=
 OpenBabel10222416183D

 46 51  0  0  1  0  0  0  0  0999 V2000
  187.5870  178.5930  138.8120 N   0  0  0  0  0  2  0  0  0  0  0  0
  189.8260  177.7160  138.8080 C   0  0  1  0  0  3  0  0  0  0  0  0
  189.3950  177.6890  137.0510 S   0  0  0  0  0  0  0  0  0  0  0  0
  188.5410  177.8230  139.5960 C   0  0  1  0  0  3  0  0  0  0  0  0
  187.6660  178.1170  137.4360 C   0  0  1  0  0  3  0  0  0  0  0  0
  187.5110  175.7560  136.6130 C   0  0  2  0  0  3  0  0  0  0  0  0
  187.8080  174.7930  137.5820 O   0  0  0  0  0  1  0  0  0  0  0  0
  185.7650  176.4080  135.1310 C   0  0  0  0  0  2  0  0  0  0  0  0
  186.7420  176.9160  137.2200 C   0  0  2  0  0  3  0  0  0  0  0  0
  185.6540  177.2700  136.3060 N   0  0  0  0  0  2  0  0  0  0  0  0
  186.6290  175.2220  135.5020 C   0  0  2  0  0  3  0  0  0  0  0  0
  184.6960  174.1790  136.6680 C   0  0  0  0  0  3  0  0  0  0  0  0
  183.8080  173.0330  137.0640 C   0  0  0  0  0  2  0  0  0  0  0  0
  185.7830  174.0210  135.8850 C   0  0  0  0  0  0  0  0  0  0  0  0
  186.1050  172.6790  135.2420 C   0  0  2  0  0  3  0  0  0  0  0  0
  185.2550  171.5140  135.7630 C   0  0  0  0  0  2  0  0  0  0  0  0
  183.8160  171.9490  135.9950 C   0  0  1  0  0  3  0  0  0  0  0  0
  183.0010  170.7680  136.4760 C   0  0  0  0  0  1  0  0  0  0  0  0
  187.5550  172.3410  135.3770 C   0  0  0  0  0  0  0  0  0  0  0  0
  188.3930  172.8610  134.5960 O   0  0  0  0  0  0  0  0  0  0  0  0
  187.9840  171.4620  136.3640 O   0  0  0  0  0  1  0  0  0  0  0  0
  190.5610  176.4390  139.1790 C   0  0  0  0  0  2  0  0  0  0  0  0
  191.1120  175.7610  137.9380 C   0  0  0  0  0  2  0  0  0  0  0  0
  192.6340  175.6990  138.0100 C   0  0  1  0  0  3  0  0  0  0  0  0
  192.4120  174.4020  135.7450 C   0  0  0  0  0  1  0  0  0  0  0  0
  193.2650  174.9880  136.8670 C   0  0  1  0  0  0  0  0  0  0  0  0
  193.1830  176.3910  136.9070 O   0  0  0  0  0  0  0  0  0  0  0  0
  197.3280  174.3720  136.7010 S   0  0  0  0  0  0  0  0  0  0  0  0
  196.5870  172.7340  136.4150 C   0  0  2  0  0  3  0  0  0  0  0  0
  194.8430  172.6830  136.9500 S   0  0  0  0  0  0  0  0  0  0  0  0
  194.6910  174.4910  137.1060 C   0  0  1  0  0  3  0  0  0  0  0  0
  195.7750  175.2130  136.3200 C   0  0  2  0  0  3  0  0  0  0  0  0
  197.3810  171.6750  137.1530 C   0  0  0  0  0  1  0  0  0  0  0  0
  195.5390  175.1970  134.8170 C   0  0  0  0  0  1  0  0  0  0  0  0
  188.8150  178.5270  140.9180 C   0  0  0  0  0  2  0  0  0  0  0  0
  187.7370  177.8990  143.1680 C   0  0  0  0  0  0  0  0  0  0  0  0
  185.2620  178.8080  142.1210 C   0  0  0  0  0  3  0  0  0  0  0  0
  186.4160  178.8940  141.3540 C   0  0  0  0  0  3  0  0  0  0  0  0
  187.6400  178.4360  141.8470 C   0  0  0  0  0  0  0  0  0  0  0  0
  185.3180  178.2460  143.3900 C   0  0  0  0  0  3  0  0  0  0  0  0
  186.5240  177.7800  143.9160 C   0  0  0  0  0  0  0  0  0  0  0  0
  186.4310  177.1300  145.2570 C   0  0  0  0  0  1  0  0  0  0  0  0
  190.2190  178.3650  143.3070 C   0  0  0  0  0  1  0  0  0  0  0  0
  189.1190  177.3650  145.1090 O   0  0  0  0  0  1  0  0  0  0  0  0
  189.0950  177.4230  143.7170 C   0  0  0  0  0  0  0  0  0  0  0  0
  189.3980  176.0340  143.1880 C   0  0  0  0  0  1  0  0  0  0  0  0
  1  4  1  0  0  0  0
  2 22  1  1  0  0  0
  2  4  1  0  0  0  0
  3  2  1  0  0  0  0
  4 35  1  1  0  0  0
  5  3  1  1  0  0  0
  5  1  1  0  0  0  0
  6  9  1  0  0  0  0
  6  7  1  1  0  0  0
  8 11  1  0  0  0  0
  8 10  1  0  0  0  0
  9 10  1  6  0  0  0
  9  5  1  0  0  0  0
 11 14  1  1  0  0  0
 11  6  1  0  0  0  0
 12 13  1  0  0  0  0
 14 12  2  0  0  0  0
 15 19  1  1  0  0  0
 15 16  1  0  0  0  0
 15 14  1  0  0  0  0
 16 17  1  0  0  0  0
 17 18  1  1  0  0  0
 17 13  1  0  0  0  0
 19 21  1  0  0  0  0
 20 19  2  0  0  0  0
 23 22  1  0  0  0  0
 24 23  1  6  0  0  0
 26 25  1  6  0  0  0
 26 27  1  0  0  0  0
 26 31  1  0  0  0  0
 26 24  1  0  0  0  0
 27 24  1  0  0  0  0
 29 28  1  0  0  0  0
 29 30  1  0  0  0  0
 29 33  1  1  0  0  0
 31 30  1  6  0  0  0
 32 34  1  6  0  0  0
 32 28  1  0  0  0  0
 32 31  1  0  0  0  0
 35 39  1  0  0  0  0
 36 45  1  0  0  0  0
 36 41  1  0  0  0  0
 37 40  1  0  0  0  0
 38 39  1  0  0  0  0
 38 37  2  0  0  0  0
 39 36  2  0  0  0  0
 40 41  2  0  0  0  0
 41 42  1  0  0  0  0
 43 45  1  0  0  0  0
 45 44  1  0  0  0  0
 46 45  1  0  0  0  0
M  END
>  <MODEL>
1

>  <REMARK>
 VINA RESULT:      -7.9      0.000      0.000
  Name = 
  10 active torsions:
  status: ('A' for Active; 'I' for Inactive)
    1  A    between atoms: C_8  and  C_10
    2  A    between atoms: C_9  and  C_23
    3  A    between atoms: C_10  and  C_12
    4  A    between atoms: C_12  and  C_16
    5  A    between atoms: C_15  and  C_26
    6  A    between atoms: C_18  and  C_43
    7  A    between atoms: C_19  and  C_45
    8  A    between atoms: C_22  and  C_42
    9  A    between atoms: C_25  and  C_29
   10  A    between atoms: C_29  and  C_41
                            x       y       z     vdW  Elec       q    Type
                         _______ _______ _______ _____ _____    ______ ____

>  <TORSDO>
F 10

$$$$
=
 OpenBabel10222416183D

 46 51  0  0  1  0  0  0  0  0999 V2000
  188.6740  179.0510  138.0990 N   0  0  0  0  0  2  0  0  0  0  0  0
  189.9930  177.0530  137.8730 C   0  0  1  0  0  3  0  0  0  0  0  0
  189.4890  177.3810  136.1660 S   0  0  0  0  0  0  0  0  0  0  0  0
  189.0700  177.8290  138.7830 C   0  0  1  0  0  3  0  0  0  0  0  0
  188.3570  178.6970  136.7200 C   0  0  1  0  0  3  0  0  0  0  0  0
  186.1980  178.3390  137.9370 C   0  0  2  0  0  3  0  0  0  0  0  0
  185.3870  179.4760  138.0090 O   0  0  0  0  0  1  0  0  0  0  0  0
  186.1570  176.0880  137.1620 C   0  0  0  0  0  2  0  0  0  0  0  0
  186.8970  178.2560  136.5920 C   0  0  2  0  0  3  0  0  0  0  0  0
  186.8230  176.8700  136.1240 N   0  0  0  0  0  2  0  0  0  0  0  0
  185.4130  177.0470  138.0660 C   0  0  2  0  0  3  0  0  0  0  0  0
  183.5990  177.2560  136.3780 C   0  0  0  0  0  3  0  0  0  0  0  0
  182.1670  177.3410  135.9290 C   0  0  0  0  0  2  0  0  0  0  0  0
  183.9500  177.1510  137.6770 C   0  0  0  0  0  0  0  0  0  0  0  0
  182.9020  176.9810  138.7670 C   0  0  2  0  0  3  0  0  0  0  0  0
  181.4600  177.1950  138.2900 C   0  0  0  0  0  2  0  0  0  0  0  0
  181.2520  176.6100  136.9020 C   0  0  1  0  0  3  0  0  0  0  0  0
  179.8130  176.8100  136.4780 C   0  0  0  0  0  1  0  0  0  0  0  0
  183.1790  177.8700  139.9380 C   0  0  0  0  0  0  0  0  0  0  0  0
  183.6040  177.3730  141.0120 O   0  0  0  0  0  1  0  0  0  0  0  0
  182.9780  179.2420  139.8430 O   0  0  0  0  0  0  0  0  0  0  0  0
  189.8870  175.5650  138.1660 C   0  0  0  0  0  2  0  0  0  0  0  0
  190.6920  174.7650  137.1590 C   0  0  0  0  0  2  0  0  0  0  0  0
  192.1520  174.6980  137.5930 C   0  0  1  0  0  3  0  0  0  0  0  0
  192.5170  173.6230  135.2340 C   0  0  0  0  0  1  0  0  0  0  0  0
  193.0590  174.1000  136.5790 C   0  0  1  0  0  0  0  0  0  0  0  0
  192.9350  175.4920  136.7270 O   0  0  0  0  0  0  0  0  0  0  0  0
  197.0470  173.5720  137.4350 S   0  0  0  0  0  0  0  0  0  0  0  0
  196.5130  172.0070  136.6750 C   0  0  2  0  0  3  0  0  0  0  0  0
  194.6960  171.8380  136.6900 S   0  0  0  0  0  0  0  0  0  0  0  0
  194.3950  173.5840  137.1110 C   0  0  1  0  0  3  0  0  0  0  0  0
  195.6040  174.4510  136.7940 C   0  0  2  0  0  3  0  0  0  0  0  0
  197.1430  170.8390  137.4060 C   0  0  0  0  0  1  0  0  0  0  0  0
  195.7830  174.7110  135.3050 C   0  0  0  0  0  1  0  0  0  0  0  0
  189.8010  178.1700  140.0740 C   0  0  0  0  0  2  0  0  0  0  0  0
  189.3690  177.7390  142.5740 C   0  0  0  0  0  0  0  0  0  0  0  0
  186.6140  178.1910  142.0710 C   0  0  0  0  0  3  0  0  0  0  0  0
  187.5380  178.3060  141.0410 C   0  0  0  0  0  3  0  0  0  0  0  0
  188.8960  178.0700  141.2660 C   0  0  0  0  0  0  0  0  0  0  0  0
  187.0400  177.8220  143.3400 C   0  0  0  0  0  3  0  0  0  0  0  0
  188.3890  177.5820  143.6030 C   0  0  0  0  0  0  0  0  0  0  0  0
  188.7010  177.1190  144.9880 C   0  0  0  0  0  1  0  0  0  0  0  0
  191.1260  176.1550  143.4680 C   0  0  0  0  0  1  0  0  0  0  0  0
  191.6170  177.5290  141.6450 O   0  0  0  0  0  1  0  0  0  0  0  0
  190.8720  177.5090  142.8220 C   0  0  0  0  0  0  0  0  0  0  0  0
  191.4090  178.5980  143.7310 C   0  0  0  0  0  1  0  0  0  0  0  0
  1  4  1  0  0  0  0
  2 22  1  1  0  0  0
  2  4  1  0  0  0  0
  3  2  1  0  0  0  0
  4 35  1  1  0  0  0
  5  3  1  1  0  0  0
  5  1  1  0  0  0  0
  6  7  1  6  0  0  0
  6 11  1  0  0  0  0
  8 11  1  0  0  0  0
  9 10  1  1  0  0  0
  9  5  1  0  0  0  0
  9  6  1  0  0  0  0
 10  8  1  0  0  0  0
 11 14  1  6  0  0  0
 12 14  2  0  0  0  0
 13 12  1  0  0  0  0
 13 17  1  0  0  0  0
 14 15  1  0  0  0  0
 15 19  1  1  0  0  0
 16 15  1  0  0  0  0
 17 18  1  6  0  0  0
 17 16  1  0  0  0  0
 19 20  1  0  0  0  0
 21 19  2  0  0  0  0
 23 22  1  0  0  0  0
 24 23  1  6  0  0  0
 26 25  1  6  0  0  0
 26 27  1  0  0  0  0
 26 31  1  0  0  0  0
 26 24  1  0  0  0  0
 27 24  1  0  0  0  0
 29 30  1  0  0  0  0
 29 33  1  1  0  0  0
 29 28  1  0  0  0  0
 31 30  1  6  0  0  0
 32 34  1  6  0  0  0
 32 31  1  0  0  0  0
 32 28  1  0  0  0  0
 35 39  1  0  0  0  0
 36 45  1  0  0  0  0
 36 41  1  0  0  0  0
 37 40  1  0  0  0  0
 38 39  1  0  0  0  0
 38 37  2  0  0  0  0
 39 36  2  0  0  0  0
 40 41  2  0  0  0  0
 41 42  1  0  0  0  0
 44 45  1  0  0  0  0
 45 43  1  0  0  0  0
 45 46  1  0  0  0  0
M  END
>  <MODEL>
2

>  <REMARK>
 VINA RESULT:      -7.5      2.618      3.648
  Name = 
  10 active torsions:
  status: ('A' for Active; 'I' for Inactive)
    1  A    between atoms: C_8  and  C_10
    2  A    between atoms: C_9  and  C_23
    3  A    between atoms: C_10  and  C_12
    4  A    between atoms: C_12  and  C_16
    5  A    between atoms: C_15  and  C_26
    6  A    between atoms: C_18  and  C_43
    7  A    between atoms: C_19  and  C_45
    8  A    between atoms: C_22  and  C_42
    9  A    between atoms: C_25  and  C_29
   10  A    between atoms: C_29  and  C_41
                            x       y       z     vdW  Elec       q    Type
                         _______ _______ _______ _____ _____    ______ ____

>  <TORSDO>
F 10

$$$$
=
 OpenBabel10222416183D

 46 51  0  0  1  0  0  0  0  0999 V2000
  187.4630  178.2830  142.2530 N   0  0  0  0  0  2  0  0  0  0  0  0
  188.9950  177.6160  140.5240 C   0  0  1  0  0  3  0  0  0  0  0  0
  187.9750  178.8520  139.6830 S   0  0  0  0  0  0  0  0  0  0  0  0
  188.2480  177.1630  141.7560 C   0  0  1  0  0  3  0  0  0  0  0  0
  186.8340  178.9210  141.1020 C   0  0  1  0  0  3  0  0  0  0  0  0
  184.6100  179.1950  139.9840 C   0  0  2  0  0  3  0  0  0  0  0  0
  184.6100  178.8690  138.6240 O   0  0  0  0  0  1  0  0  0  0  0  0
  183.5330  178.6070  142.0240 C   0  0  0  0  0  2  0  0  0  0  0  0
  185.5000  178.2480  140.7690 C   0  0  2  0  0  3  0  0  0  0  0  0
  184.7970  177.8750  141.9980 N   0  0  0  0  0  2  0  0  0  0  0  0
  183.2370  179.0790  140.6170 C   0  0  2  0  0  3  0  0  0  0  0  0
  182.5400  176.8090  139.8800 C   0  0  0  0  0  3  0  0  0  0  0  0
  181.6280  175.8210  139.2090 C   0  0  0  0  0  2  0  0  0  0  0  0
  182.2870  178.1340  139.9050 C   0  0  0  0  0  0  0  0  0  0  0  0
  180.9820  178.6990  139.3630 C   0  0  2  0  0  3  0  0  0  0  0  0
  180.1360  177.6860  138.5810 C   0  0  0  0  0  2  0  0  0  0  0  0
  180.1870  176.3130  139.2350 C   0  0  1  0  0  3  0  0  0  0  0  0
  179.3170  175.3490  138.4580 C   0  0  0  0  0  1  0  0  0  0  0  0
  181.2180  179.9110  138.5190 C   0  0  0  0  0  0  0  0  0  0  0  0
  181.6010  179.7780  137.3280 O   0  0  0  0  0  0  0  0  0  0  0  0
  181.0100  181.1820  139.0400 O   0  0  0  0  0  1  0  0  0  0  0  0
  189.2420  176.4350  139.5990 C   0  0  0  0  0  2  0  0  0  0  0  0
  188.7400  176.7390  138.2000 C   0  0  0  0  0  2  0  0  0  0  0  0
  188.0410  175.5150  137.6190 C   0  0  1  0  0  3  0  0  0  0  0  0
  187.8630  176.9850  135.4590 C   0  0  0  0  0  1  0  0  0  0  0  0
  187.6000  175.6820  136.2090 C   0  0  1  0  0  0  0  0  0  0  0  0
  188.7950  175.0160  136.5330 O   0  0  0  0  0  0  0  0  0  0  0  0
  184.0320  173.9620  135.1020 S   0  0  0  0  0  0  0  0  0  0  0  0
  184.6640  172.9180  136.4520 C   0  0  2  0  0  3  0  0  0  0  0  0
  186.4450  173.1920  136.7370 S   0  0  0  0  0  0  0  0  0  0  0  0
  186.5150  174.7130  135.7390 C   0  0  1  0  0  3  0  0  0  0  0  0
  185.1330  175.3220  135.5510 C   0  0  2  0  0  3  0  0  0  0  0  0
  184.4140  171.4580  136.1340 C   0  0  0  0  0  1  0  0  0  0  0  0
  184.6070  176.0160  136.7990 C   0  0  0  0  0  1  0  0  0  0  0  0
  189.2450  176.7170  142.8170 C   0  0  0  0  0  2  0  0  0  0  0  0
  189.6380  177.2730  145.2990 C   0  0  0  0  0  0  0  0  0  0  0  0
  186.8220  177.2830  145.6370 C   0  0  0  0  0  3  0  0  0  0  0  0
  187.3710  177.0520  144.3840 C   0  0  0  0  0  3  0  0  0  0  0  0
  188.7560  177.0270  144.2010 C   0  0  0  0  0  0  0  0  0  0  0  0
  187.6570  177.4770  146.7310 C   0  0  0  0  0  3  0  0  0  0  0  0
  189.0450  177.4610  146.5860 C   0  0  0  0  0  0  0  0  0  0  0  0
  189.8240  177.6050  147.8510 C   0  0  0  0  0  1  0  0  0  0  0  0
  191.6210  178.5310  144.3590 C   0  0  0  0  0  1  0  0  0  0  0  0
  191.8720  177.2330  146.2840 O   0  0  0  0  0  1  0  0  0  0  0  0
  191.1640  177.2740  145.0850 C   0  0  0  0  0  0  0  0  0  0  0  0
  191.5630  176.0600  144.2680 C   0  0  0  0  0  1  0  0  0  0  0  0
  2 22  1  6  0  0  0
  2  4  1  0  0  0  0
  3  2  1  0  0  0  0
  4  1  1  0  0  0  0
  4 35  1  1  0  0  0
  5  3  1  6  0  0  0
  5  1  1  0  0  0  0
  6  7  1  6  0  0  0
  6 11  1  0  0  0  0
  6  9  1  0  0  0  0
  9  5  1  0  0  0  0
  9 10  1  1  0  0  0
 10  8  1  0  0  0  0
 11 14  1  6  0  0  0
 11  8  1  0  0  0  0
 12 14  2  0  0  0  0
 13 17  1  0  0  0  0
 13 12  1  0  0  0  0
 15 19  1  6  0  0  0
 15 14  1  0  0  0  0
 16 17  1  0  0  0  0
 16 15  1  0  0  0  0
 17 18  1  6  0  0  0
 19 21  1  0  0  0  0
 20 19  2  0  0  0  0
 23 22  1  0  0  0  0
 24 23  1  6  0  0  0
 26 25  1  6  0  0  0
 26 27  1  0  0  0  0
 26 24  1  0  0  0  0
 27 24  1  0  0  0  0
 28 32  1  0  0  0  0
 28 29  1  0  0  0  0
 29 33  1  6  0  0  0
 29 30  1  0  0  0  0
 31 26  1  0  0  0  0
 31 30  1  1  0  0  0
 32 31  1  0  0  0  0
 32 34  1  1  0  0  0
 35 39  1  0  0  0  0
 36 41  1  0  0  0  0
 37 40  1  0  0  0  0
 38 37  2  0  0  0  0
 39 38  1  0  0  0  0
 39 36  2  0  0  0  0
 41 40  2  0  0  0  0
 41 42  1  0  0  0  0
 43 45  1  0  0  0  0
 45 36  1  0  0  0  0
 45 44  1  0  0  0  0
 46 45  1  0  0  0  0
M  END
>  <MODEL>
3

>  <REMARK>
 VINA RESULT:      -7.3      4.028      6.675
  Name = 
  10 active torsions:
  status: ('A' for Active; 'I' for Inactive)
    1  A    between atoms: C_8  and  C_10
    2  A    between atoms: C_9  and  C_23
    3  A    between atoms: C_10  and  C_12
    4  A    between atoms: C_12  and  C_16
    5  A    between atoms: C_15  and  C_26
    6  A    between atoms: C_18  and  C_43
    7  A    between atoms: C_19  and  C_45
    8  A    between atoms: C_22  and  C_42
    9  A    between atoms: C_25  and  C_29
   10  A    between atoms: C_29  and  C_41
                            x       y       z     vdW  Elec       q    Type
                         _______ _______ _______ _____ _____    ______ ____

>  <TORSDO>
F 10

$$$$
=
 OpenBabel10222416183D

 46 51  0  0  1  0  0  0  0  0999 V2000
  188.0090  178.1780  141.7150 N   0  0  0  0  0  2  0  0  0  0  0  0
  189.7900  177.4610  140.2670 C   0  0  1  0  0  3  0  0  0  0  0  0
  188.9660  178.7260  139.2700 S   0  0  0  0  0  0  0  0  0  0  0  0
  188.8320  177.0330  141.3540 C   0  0  1  0  0  3  0  0  0  0  0  0
  187.6030  178.8320  140.4760 C   0  0  1  0  0  3  0  0  0  0  0  0
  186.4460  177.9950  138.4190 C   0  0  2  0  0  3  0  0  0  0  0  0
  186.7120  176.6560  138.1190 O   0  0  0  0  0  1  0  0  0  0  0  0
  184.6230  179.4590  138.8730 C   0  0  0  0  0  2  0  0  0  0  0  0
  186.3250  178.2010  139.9190 C   0  0  2  0  0  3  0  0  0  0  0  0
  185.1760  179.0730  140.1690 N   0  0  0  0  0  2  0  0  0  0  0  0
  185.1310  178.4790  137.8370 C   0  0  2  0  0  3  0  0  0  0  0  0
  183.4400  176.8180  138.5880 C   0  0  0  0  0  3  0  0  0  0  0  0
  182.4080  175.7450  138.3820 C   0  0  0  0  0  2  0  0  0  0  0  0
  184.1150  177.3840  137.5660 C   0  0  0  0  0  0  0  0  0  0  0  0
  183.7750  177.0610  136.1190 C   0  0  2  0  0  3  0  0  0  0  0  0
  182.8090  175.8810  135.9500 C   0  0  0  0  0  2  0  0  0  0  0  0
  181.7340  175.8980  137.0260 C   0  0  1  0  0  3  0  0  0  0  0  0
  180.7830  174.7410  136.8090 C   0  0  0  0  0  1  0  0  0  0  0  0
  185.0070  176.8200  135.3070 C   0  0  0  0  0  0  0  0  0  0  0  0
  185.5120  175.6690  135.2640 O   0  0  0  0  0  1  0  0  0  0  0  0
  185.5940  177.8580  134.5940 O   0  0  0  0  0  0  0  0  0  0  0  0
  190.1540  176.2710  139.3940 C   0  0  0  0  0  2  0  0  0  0  0  0
  191.1020  176.6930  138.2860 C   0  0  0  0  0  2  0  0  0  0  0  0
  192.4400  175.9790  138.4450 C   0  0  1  0  0  3  0  0  0  0  0  0
  192.3420  175.8020  135.8340 C   0  0  0  0  0  1  0  0  0  0  0  0
  193.0430  175.5320  137.1620 C   0  0  1  0  0  0  0  0  0  0  0  0
  193.4480  176.7220  137.7920 O   0  0  0  0  0  0  0  0  0  0  0  0
  196.5540  173.3900  137.1150 S   0  0  0  0  0  0  0  0  0  0  0  0
  195.4170  172.4630  136.0380 C   0  0  2  0  0  3  0  0  0  0  0  0
  193.6800  172.9430  136.3210 S   0  0  0  0  0  0  0  0  0  0  0  0
  194.1010  174.4340  137.2790 C   0  0  1  0  0  3  0  0  0  0  0  0
  195.5330  174.8770  137.0210 C   0  0  2  0  0  3  0  0  0  0  0  0
  195.5830  170.9750  136.2750 C   0  0  0  0  0  1  0  0  0  0  0  0
  195.7220  175.5430  135.6650 C   0  0  0  0  0  1  0  0  0  0  0  0
  189.6210  176.5590  142.5670 C   0  0  0  0  0  2  0  0  0  0  0  0
  189.6160  177.1210  145.0780 C   0  0  0  0  0  0  0  0  0  0  0  0
  186.7850  177.2330  144.9430 C   0  0  0  0  0  3  0  0  0  0  0  0
  187.5260  176.9720  143.7990 C   0  0  0  0  0  3  0  0  0  0  0  0
  188.9200  176.8970  143.8490 C   0  0  0  0  0  0  0  0  0  0  0  0
  187.4330  177.4060  146.1600 C   0  0  0  0  0  3  0  0  0  0  0  0
  188.8240  177.3400  146.2480 C   0  0  0  0  0  0  0  0  0  0  0  0
  189.3870  177.4670  147.6240 C   0  0  0  0  0  1  0  0  0  0  0  0
  191.6590  176.7670  146.5250 C   0  0  0  0  0  1  0  0  0  0  0  0
  191.6770  176.0710  144.2960 O   0  0  0  0  0  1  0  0  0  0  0  0
  191.1550  177.0660  145.1210 C   0  0  0  0  0  0  0  0  0  0  0  0
  191.7240  178.3950  144.6640 C   0  0  0  0  0  1  0  0  0  0  0  0
  2 22  1  6  0  0  0
  2  4  1  0  0  0  0
  3  2  1  0  0  0  0
  4  1  1  0  0  0  0
  4 35  1  1  0  0  0
  5  3  1  6  0  0  0
  5  1  1  0  0  0  0
  6  7  1  1  0  0  0
  6  9  1  0  0  0  0
  8 10  1  0  0  0  0
  9 10  1  6  0  0  0
  9  5  1  0  0  0  0
 11 14  1  1  0  0  0
 11  6  1  0  0  0  0
 11  8  1  0  0  0  0
 13 12  1  0  0  0  0
 14 12  2  0  0  0  0
 15 19  1  6  0  0  0
 15 14  1  0  0  0  0
 16 15  1  0  0  0  0
 16 17  1  0  0  0  0
 17 18  1  6  0  0  0
 17 13  1  0  0  0  0
 20 19  1  0  0  0  0
 21 19  2  0  0  0  0
 23 22  1  0  0  0  0
 24 23  1  6  0  0  0
 26 25  1  6  0  0  0
 26 31  1  0  0  0  0
 26 27  1  0  0  0  0
 26 24  1  0  0  0  0
 27 24  1  0  0  0  0
 29 33  1  1  0  0  0
 29 30  1  0  0  0  0
 29 28  1  0  0  0  0
 31 30  1  6  0  0  0
 32 34  1  6  0  0  0
 32 28  1  0  0  0  0
 32 31  1  0  0  0  0
 35 39  1  0  0  0  0
 36 45  1  0  0  0  0
 36 41  1  0  0  0  0
 37 40  1  0  0  0  0
 38 39  1  0  0  0  0
 38 37  2  0  0  0  0
 39 36  2  0  0  0  0
 40 41  2  0  0  0  0
 41 42  1  0  0  0  0
 44 45  1  0  0  0  0
 45 43  1  0  0  0  0
 46 45  1  0  0  0  0
M  END
>  <MODEL>
4

>  <REMARK>
 VINA RESULT:      -7.3      2.503      3.249
  Name = 
  10 active torsions:
  status: ('A' for Active; 'I' for Inactive)
    1  A    between atoms: C_8  and  C_10
    2  A    between atoms: C_9  and  C_23
    3  A    between atoms: C_10  and  C_12
    4  A    between atoms: C_12  and  C_16
    5  A    between atoms: C_15  and  C_26
    6  A    between atoms: C_18  and  C_43
    7  A    between atoms: C_19  and  C_45
    8  A    between atoms: C_22  and  C_42
    9  A    between atoms: C_25  and  C_29
   10  A    between atoms: C_29  and  C_41
                            x       y       z     vdW  Elec       q    Type
                         _______ _______ _______ _____ _____    ______ ____

>  <TORSDO>
F 10

$$$$
=
 OpenBabel10222416183D

 46 51  0  0  1  0  0  0  0  0999 V2000
  183.2770  178.1950  141.7270 N   0  0  0  0  0  2  0  0  0  0  0  0
  185.3490  179.2650  141.1380 C   0  0  1  0  0  3  0  0  0  0  0  0
  184.4010  179.3820  139.6010 S   0  0  0  0  0  0  0  0  0  0  0  0
  184.7080  178.1980  141.9950 C   0  0  1  0  0  3  0  0  0  0  0  0
  183.1030  178.3000  140.2830 C   0  0  1  0  0  3  0  0  0  0  0  0
  182.7640  177.0160  138.1590 C   0  0  2  0  0  3  0  0  0  0  0  0
  183.9000  176.9450  137.3470 O   0  0  0  0  0  1  0  0  0  0  0  0
  181.2060  175.6080  139.2810 C   0  0  0  0  0  2  0  0  0  0  0  0
  183.1400  176.9170  139.6270 C   0  0  2  0  0  3  0  0  0  0  0  0
  182.1880  176.0170  140.2820 N   0  0  0  0  0  2  0  0  0  0  0  0
  181.7920  175.8780  137.9130 C   0  0  2  0  0  3  0  0  0  0  0  0
  183.5240  174.0950  137.8760 C   0  0  0  0  0  3  0  0  0  0  0  0
  184.1760  172.8470  137.3500 C   0  0  0  0  0  2  0  0  0  0  0  0
  182.4150  174.6270  137.3210 C   0  0  0  0  0  0  0  0  0  0  0  0
  181.6740  173.9150  136.1990 C   0  0  2  0  0  3  0  0  0  0  0  0
  182.4290  172.7180  135.6090 C   0  0  0  0  0  2  0  0  0  0  0  0
  183.1460  171.9340  136.6990 C   0  0  1  0  0  3  0  0  0  0  0  0
  183.8520  170.7440  136.0850 C   0  0  0  0  0  1  0  0  0  0  0  0
  181.3010  174.8620  135.1030 C   0  0  0  0  0  0  0  0  0  0  0  0
  180.1310  174.8550  134.6430 O   0  0  0  0  0  1  0  0  0  0  0  0
  182.2380  175.7530  134.5940 O   0  0  0  0  0  0  0  0  0  0  0  0
  186.7890  178.8910  140.8290 C   0  0  0  0  0  2  0  0  0  0  0  0
  186.8920  178.2540  139.4560 C   0  0  0  0  0  2  0  0  0  0  0  0
  188.3440  177.9020  139.1510 C   0  0  1  0  0  3  0  0  0  0  0  0
  187.7230  178.6430  136.7170 C   0  0  0  0  0  1  0  0  0  0  0  0
  188.7320  178.1110  137.7310 C   0  0  1  0  0  0  0  0  0  0  0  0
  189.0270  179.0620  138.7230 O   0  0  0  0  0  0  0  0  0  0  0  0
  191.3390  175.4700  135.9570 S   0  0  0  0  0  0  0  0  0  0  0  0
  191.6640  175.3320  137.7420 C   0  0  2  0  0  3  0  0  0  0  0  0
  190.9960  176.7600  138.6600 S   0  0  0  0  0  0  0  0  0  0  0  0
  189.9800  177.3570  137.2720 C   0  0  1  0  0  3  0  0  0  0  0  0
  189.7400  176.2620  136.2440 C   0  0  2  0  0  3  0  0  0  0  0  0
  193.1550  175.2180  137.9860 C   0  0  0  0  0  1  0  0  0  0  0  0
  188.7280  175.2200  136.7000 C   0  0  0  0  0  1  0  0  0  0  0  0
  184.9590  178.5090  143.4640 C   0  0  0  0  0  2  0  0  0  0  0  0
  186.6870  178.0010  145.3020 C   0  0  0  0  0  0  0  0  0  0  0  0
  188.2080  176.6180  143.3480 C   0  0  0  0  0  3  0  0  0  0  0  0
  186.9900  177.1890  143.0060 C   0  0  0  0  0  3  0  0  0  0  0  0
  186.2350  177.8880  143.9510 C   0  0  0  0  0  0  0  0  0  0  0  0
  188.6940  176.7550  144.6420 C   0  0  0  0  0  3  0  0  0  0  0  0
  187.9660  177.4440  145.6130 C   0  0  0  0  0  0  0  0  0  0  0  0
  188.6370  177.5830  146.9400 C   0  0  0  0  0  1  0  0  0  0  0  0
  186.6520  179.0910  147.5840 C   0  0  0  0  0  1  0  0  0  0  0  0
  185.3300  179.9520  145.8620 O   0  0  0  0  0  1  0  0  0  0  0  0
  185.8350  178.7470  146.3470 C   0  0  0  0  0  0  0  0  0  0  0  0
  184.6590  177.8810  146.7570 C   0  0  0  0  0  1  0  0  0  0  0  0
  1  4  1  0  0  0  0
  2 22  1  6  0  0  0
  2  4  1  0  0  0  0
  3  2  1  0  0  0  0
  4 35  1  1  0  0  0
  5  3  1  6  0  0  0
  5  1  1  0  0  0  0
  6  7  1  6  0  0  0
  6  9  1  0  0  0  0
  8 10  1  0  0  0  0
  9 10  1  1  0  0  0
  9  5  1  0  0  0  0
 11 14  1  1  0  0  0
 11  6  1  0  0  0  0
 11  8  1  0  0  0  0
 13 12  1  0  0  0  0
 14 12  2  0  0  0  0
 15 19  1  6  0  0  0
 15 14  1  0  0  0  0
 16 15  1  0  0  0  0
 16 17  1  0  0  0  0
 17 18  1  6  0  0  0
 17 13  1  0  0  0  0
 20 19  1  0  0  0  0
 21 19  2  0  0  0  0
 23 22  1  0  0  0  0
 24 23  1  6  0  0  0
 26 25  1  6  0  0  0
 26 27  1  0  0  0  0
 26 24  1  0  0  0  0
 27 24  1  0  0  0  0
 28 32  1  0  0  0  0
 28 29  1  0  0  0  0
 29 33  1  6  0  0  0
 29 30  1  0  0  0  0
 31 26  1  0  0  0  0
 31 30  1  1  0  0  0
 32 34  1  1  0  0  0
 32 31  1  0  0  0  0
 35 39  1  0  0  0  0
 36 41  1  0  0  0  0
 36 45  1  0  0  0  0
 37 40  1  0  0  0  0
 38 37  2  0  0  0  0
 38 39  1  0  0  0  0
 39 36  2  0  0  0  0
 40 41  2  0  0  0  0
 41 42  1  0  0  0  0
 44 45  1  0  0  0  0
 45 46  1  0  0  0  0
 45 43  1  0  0  0  0
M  END
>  <MODEL>
5

>  <REMARK>
 VINA RESULT:      -7.2      3.142      4.990
  Name = 
  10 active torsions:
  status: ('A' for Active; 'I' for Inactive)
    1  A    between atoms: C_8  and  C_10
    2  A    between atoms: C_9  and  C_23
    3  A    between atoms: C_10  and  C_12
    4  A    between atoms: C_12  and  C_16
    5  A    between atoms: C_15  and  C_26
    6  A    between atoms: C_18  and  C_43
    7  A    between atoms: C_19  and  C_45
    8  A    between atoms: C_22  and  C_42
    9  A    between atoms: C_25  and  C_29
   10  A    between atoms: C_29  and  C_41
                            x       y       z     vdW  Elec       q    Type
                         _______ _______ _______ _____ _____    ______ ____

>  <TORSDO>
F 10

$$$$
=
 OpenBabel10222416183D

 46 51  0  0  1  0  0  0  0  0999 V2000
  187.3920  178.2540  142.4830 N   0  0  0  0  0  2  0  0  0  0  0  0
  188.9540  177.5980  140.7770 C   0  0  1  0  0  3  0  0  0  0  0  0
  187.9960  178.8910  139.9490 S   0  0  0  0  0  0  0  0  0  0  0  0
  188.1580  177.1280  141.9720 C   0  0  1  0  0  3  0  0  0  0  0  0
  186.8150  178.9470  141.3360 C   0  0  1  0  0  3  0  0  0  0  0  0
  184.6100  179.3450  140.2190 C   0  0  2  0  0  3  0  0  0  0  0  0
  184.6190  179.1180  138.8390 O   0  0  0  0  0  1  0  0  0  0  0  0
  183.4990  178.6300  142.2000 C   0  0  0  0  0  2  0  0  0  0  0  0
  185.4730  178.3260  140.9410 C   0  0  2  0  0  3  0  0  0  0  0  0
  184.7500  177.8780  142.1330 N   0  0  0  0  0  2  0  0  0  0  0  0
  183.2280  179.2090  140.8280 C   0  0  2  0  0  3  0  0  0  0  0  0
  182.5570  177.0370  139.8210 C   0  0  0  0  0  3  0  0  0  0  0  0
  181.6390  176.1180  139.0670 C   0  0  0  0  0  2  0  0  0  0  0  0
  182.2680  178.3370  140.0400 C   0  0  0  0  0  0  0  0  0  0  0  0
  180.9210  178.9230  139.6450 C   0  0  2  0  0  3  0  0  0  0  0  0
  180.0640  177.9960  138.7730 C   0  0  0  0  0  2  0  0  0  0  0  0
  180.1890  176.5500  139.2300 C   0  0  1  0  0  3  0  0  0  0  0  0
  179.3070  175.6710  138.3700 C   0  0  0  0  0  1  0  0  0  0  0  0
  181.0780  180.2460  138.9650 C   0  0  0  0  0  0  0  0  0  0  0  0
  180.5760  181.2770  139.4810 O   0  0  0  0  0  1  0  0  0  0  0  0
  181.7810  180.3440  137.7700 O   0  0  0  0  0  0  0  0  0  0  0  0
  189.1940  176.4410  139.8210 C   0  0  0  0  0  2  0  0  0  0  0  0
  190.1110  176.8660  138.6890 C   0  0  0  0  0  2  0  0  0  0  0  0
  191.4030  176.0590  138.7330 C   0  0  1  0  0  3  0  0  0  0  0  0
  191.1130  175.9710  136.1320 C   0  0  0  0  0  1  0  0  0  0  0  0
  191.8840  175.6120  137.3990 C   0  0  1  0  0  0  0  0  0  0  0  0
  192.4130  176.7510  138.0290 O   0  0  0  0  0  0  0  0  0  0  0  0
  195.2620  173.2720  137.2240 S   0  0  0  0  0  0  0  0  0  0  0  0
  194.1400  172.5820  135.9680 C   0  0  2  0  0  3  0  0  0  0  0  0
  192.4190  173.1310  136.2280 S   0  0  0  0  0  0  0  0  0  0  0  0
  192.8680  174.4420  137.4100 C   0  0  1  0  0  3  0  0  0  0  0  0
  194.3360  174.8220  137.2930 C   0  0  2  0  0  3  0  0  0  0  0  0
  194.2050  171.0680  135.9970 C   0  0  0  0  0  1  0  0  0  0  0  0
  194.6430  175.6570  136.0580 C   0  0  0  0  0  1  0  0  0  0  0  0
  189.1090  176.6170  143.0450 C   0  0  0  0  0  2  0  0  0  0  0  0
  189.5660  177.2250  145.5040 C   0  0  0  0  0  0  0  0  0  0  0  0
  186.7640  177.4890  145.8530 C   0  0  0  0  0  3  0  0  0  0  0  0
  187.2820  177.1670  144.6060 C   0  0  0  0  0  3  0  0  0  0  0  0
  188.6590  177.0170  144.4190 C   0  0  0  0  0  0  0  0  0  0  0  0
  187.6200  177.6500  146.9350 C   0  0  0  0  0  3  0  0  0  0  0  0
  189.0000  177.5100  146.7850 C   0  0  0  0  0  0  0  0  0  0  0  0
  189.7980  177.6310  148.0410 C   0  0  0  0  0  1  0  0  0  0  0  0
  191.8030  176.7390  146.5800 C   0  0  0  0  0  1  0  0  0  0  0  0
  191.4040  176.0800  144.3750 O   0  0  0  0  0  1  0  0  0  0  0  0
  191.0850  177.0870  145.2830 C   0  0  0  0  0  0  0  0  0  0  0  0
  191.6420  178.3910  144.7460 C   0  0  0  0  0  1  0  0  0  0  0  0
  2 22  1  6  0  0  0
  2  4  1  0  0  0  0
  3  2  1  0  0  0  0
  4  1  1  0  0  0  0
  4 35  1  1  0  0  0
  5  3  1  6  0  0  0
  5  1  1  0  0  0  0
  6  7  1  6  0  0  0
  6 11  1  0  0  0  0
  6  9  1  0  0  0  0
  9  5  1  0  0  0  0
  9 10  1  1  0  0  0
 10  8  1  0  0  0  0
 11 14  1  6  0  0  0
 11  8  1  0  0  0  0
 12 14  2  0  0  0  0
 13 17  1  0  0  0  0
 13 12  1  0  0  0  0
 15 19  1  6  0  0  0
 15 14  1  0  0  0  0
 16 17  1  0  0  0  0
 16 15  1  0  0  0  0
 17 18  1  6  0  0  0
 19 20  1  0  0  0  0
 21 19  2  0  0  0  0
 23 22  1  0  0  0  0
 24 23  1  6  0  0  0
 26 25  1  6  0  0  0
 26 31  1  0  0  0  0
 26 27  1  0  0  0  0
 26 24  1  0  0  0  0
 27 24  1  0  0  0  0
 28 32  1  0  0  0  0
 29 33  1  1  0  0  0
 29 30  1  0  0  0  0
 29 28  1  0  0  0  0
 31 30  1  6  0  0  0
 32 34  1  6  0  0  0
 32 31  1  0  0  0  0
 35 39  1  0  0  0  0
 36 41  1  0  0  0  0
 37 40  1  0  0  0  0
 38 37  2  0  0  0  0
 39 38  1  0  0  0  0
 39 36  2  0  0  0  0
 41 40  2  0  0  0  0
 41 42  1  0  0  0  0
 44 45  1  0  0  0  0
 45 36  1  0  0  0  0
 45 43  1  0  0  0  0
 46 45  1  0  0  0  0
M  END
>  <MODEL>
6

>  <REMARK>
 VINA RESULT:      -7.1      3.537      5.165
  Name = 
  10 active torsions:
  status: ('A' for Active; 'I' for Inactive)
    1  A    between atoms: C_8  and  C_10
    2  A    between atoms: C_9  and  C_23
    3  A    between atoms: C_10  and  C_12
    4  A    between atoms: C_12  and  C_16
    5  A    between atoms: C_15  and  C_26
    6  A    between atoms: C_18  and  C_43
    7  A    between atoms: C_19  and  C_45
    8  A    between atoms: C_22  and  C_42
    9  A    between atoms: C_25  and  C_29
   10  A    between atoms: C_29  and  C_41
                            x       y       z     vdW  Elec       q    Type
                         _______ _______ _______ _____ _____    ______ ____

>  <TORSDO>
F 10

$$$$
=
 OpenBabel10222416183D

 46 51  0  0  1  0  0  0  0  0999 V2000
  186.1320  178.7550  138.1310 N   0  0  0  0  0  2  0  0  0  0  0  0
  188.1790  177.6130  137.5930 C   0  0  1  0  0  3  0  0  0  0  0  0
  187.3000  177.5990  136.0110 S   0  0  0  0  0  0  0  0  0  0  0  0
  187.1680  177.8920  138.6800 C   0  0  1  0  0  3  0  0  0  0  0  0
  185.7920  178.2430  136.8090 C   0  0  1  0  0  3  0  0  0  0  0  0
  185.2720  175.8180  136.4590 C   0  0  2  0  0  3  0  0  0  0  0  0
  185.5600  175.0060  137.5600 O   0  0  0  0  0  1  0  0  0  0  0  0
  183.4590  176.4320  135.0420 C   0  0  0  0  0  2  0  0  0  0  0  0
  184.7150  177.1590  136.9040 C   0  0  2  0  0  3  0  0  0  0  0  0
  183.5810  177.4920  136.0390 N   0  0  0  0  0  2  0  0  0  0  0  0
  184.2140  175.2220  135.5500 C   0  0  2  0  0  3  0  0  0  0  0  0
  182.3450  174.6660  137.0930 C   0  0  0  0  0  3  0  0  0  0  0  0
  181.3810  173.7380  137.7760 C   0  0  0  0  0  2  0  0  0  0  0  0
  183.2820  174.2320  136.2230 C   0  0  0  0  0  0  0  0  0  0  0  0
  183.3330  172.7780  135.7780 C   0  0  2  0  0  3  0  0  0  0  0  0
  182.4200  171.8430  136.5820 C   0  0  0  0  0  2  0  0  0  0  0  0
  181.0970  172.5190  136.9080 C   0  0  1  0  0  3  0  0  0  0  0  0
  180.2120  171.5580  137.6710 C   0  0  0  0  0  1  0  0  0  0  0  0
  184.7310  172.2490  135.7940 C   0  0  0  0  0  0  0  0  0  0  0  0
  185.3200  172.0710  136.8920 O   0  0  0  0  0  1  0  0  0  0  0  0
  185.3830  171.9440  134.6050 O   0  0  0  0  0  0  0  0  0  0  0  0
  188.8390  176.2640  137.8270 C   0  0  0  0  0  2  0  0  0  0  0  0
  190.0090  176.0710  136.8810 C   0  0  0  0  0  2  0  0  0  0  0  0
  191.1570  175.3770  137.6060 C   0  0  1  0  0  3  0  0  0  0  0  0
  192.3230  175.4630  135.2620 C   0  0  0  0  0  1  0  0  0  0  0  0
  192.3270  175.0770  136.7390 C   0  0  1  0  0  0  0  0  0  0  0  0
  192.3000  176.2060  137.5750 O   0  0  0  0  0  0  0  0  0  0  0  0
  195.6040  173.0190  138.1340 S   0  0  0  0  0  0  0  0  0  0  0  0
  195.0740  172.1160  136.6440 C   0  0  2  0  0  3  0  0  0  0  0  0
  193.3650  172.5450  136.1700 S   0  0  0  0  0  0  0  0  0  0  0  0
  193.2760  173.9990  137.2630 C   0  0  1  0  0  3  0  0  0  0  0  0
  194.6620  174.4860  137.6580 C   0  0  2  0  0  3  0  0  0  0  0  0
  195.1820  170.6240  136.8820 C   0  0  0  0  0  1  0  0  0  0  0  0
  195.3860  175.2170  136.5360 C   0  0  0  0  0  1  0  0  0  0  0  0
  187.8570  178.5860  139.8460 C   0  0  0  0  0  2  0  0  0  0  0  0
  187.5660  177.9780  142.3300 C   0  0  0  0  0  0  0  0  0  0  0  0
  184.8730  178.8450  142.1210 C   0  0  0  0  0  3  0  0  0  0  0  0
  185.7190  178.9330  141.0240 C   0  0  0  0  0  3  0  0  0  0  0  0
  187.0440  178.4950  141.1040 C   0  0  0  0  0  0  0  0  0  0  0  0
  185.3420  178.3020  143.3110 C   0  0  0  0  0  3  0  0  0  0  0  0
  186.6590  177.8570  143.4280 C   0  0  0  0  0  0  0  0  0  0  0  0
  187.0100  177.2250  144.7340 C   0  0  0  0  0  1  0  0  0  0  0  0
  189.1480  176.1200  142.9930 C   0  0  0  0  0  1  0  0  0  0  0  0
  189.6620  177.4920  141.1740 O   0  0  0  0  0  1  0  0  0  0  0  0
  189.0360  177.5250  142.4190 C   0  0  0  0  0  0  0  0  0  0  0  0
  189.8110  178.4830  143.3030 C   0  0  0  0  0  1  0  0  0  0  0  0
  1  4  1  0  0  0  0
  2 22  1  1  0  0  0
  2  4  1  0  0  0  0
  3  2  1  0  0  0  0
  4 35  1  1  0  0  0
  5  3  1  1  0  0  0
  5  9  1  0  0  0  0
  5  1  1  0  0  0  0
  6  9  1  0  0  0  0
  6  7  1  1  0  0  0
  8 11  1  0  0  0  0
  8 10  1  0  0  0  0
  9 10  1  6  0  0  0
 11 14  1  1  0  0  0
 11  6  1  0  0  0  0
 12 13  1  0  0  0  0
 14 12  2  0  0  0  0
 15 19  1  1  0  0  0
 15 14  1  0  0  0  0
 15 16  1  0  0  0  0
 16 17  1  0  0  0  0
 17 18  1  1  0  0  0
 17 13  1  0  0  0  0
 19 20  1  0  0  0  0
 21 19  2  0  0  0  0
 23 22  1  0  0  0  0
 24 23  1  6  0  0  0
 26 25  1  6  0  0  0
 26 31  1  0  0  0  0
 26 27  1  0  0  0  0
 26 24  1  0  0  0  0
 27 24  1  0  0  0  0
 29 33  1  1  0  0  0
 29 28  1  0  0  0  0
 30 29  1  0  0  0  0
 31 30  1  6  0  0  0
 31 32  1  0  0  0  0
 32 34  1  6  0  0  0
 32 28  1  0  0  0  0
 35 39  1  0  0  0  0
 36 45  1  0  0  0  0
 36 41  1  0  0  0  0
 37 40  1  0  0  0  0
 38 39  1  0  0  0  0
 38 37  2  0  0  0  0
 39 36  2  0  0  0  0
 40 41  2  0  0  0  0
 41 42  1  0  0  0  0
 44 45  1  0  0  0  0
 45 43  1  0  0  0  0
 45 46  1  0  0  0  0
M  END
>  <MODEL>
7

>  <REMARK>
 VINA RESULT:      -6.9      1.716      2.150
  Name = 
  10 active torsions:
  status: ('A' for Active; 'I' for Inactive)
    1  A    between atoms: C_8  and  C_10
    2  A    between atoms: C_9  and  C_23
    3  A    between atoms: C_10  and  C_12
    4  A    between atoms: C_12  and  C_16
    5  A    between atoms: C_15  and  C_26
    6  A    between atoms: C_18  and  C_43
    7  A    between atoms: C_19  and  C_45
    8  A    between atoms: C_22  and  C_42
    9  A    between atoms: C_25  and  C_29
   10  A    between atoms: C_29  and  C_41
                            x       y       z     vdW  Elec       q    Type
                         _______ _______ _______ _____ _____    ______ ____

>  <TORSDO>
F 10

$$$$
=
 OpenBabel10222416183D

 46 51  0  0  1  0  0  0  0  0999 V2000
  188.4040  175.8910  136.8330 N   0  0  0  0  0  2  0  0  0  0  0  0
  186.6260  177.2920  136.0230 C   0  0  1  0  0  3  0  0  0  0  0  0
  187.7470  178.4910  136.7840 S   0  0  0  0  0  0  0  0  0  0  0  0
  186.9740  175.9250  136.5640 C   0  0  1  0  0  3  0  0  0  0  0  0
  188.7560  177.1460  137.4880 C   0  0  1  0  0  3  0  0  0  0  0  0
  188.7920  178.3940  139.6590 C   0  0  2  0  0  3  0  0  0  0  0  0
  187.5780  179.0070  139.9860 O   0  0  0  0  0  1  0  0  0  0  0  0
  190.3540  176.8160  140.5180 C   0  0  0  0  0  2  0  0  0  0  0  0
  188.5580  177.0450  139.0030 C   0  0  2  0  0  3  0  0  0  0  0  0
  189.5070  176.0880  139.5770 N   0  0  0  0  0  2  0  0  0  0  0  0
  189.6540  178.1100  140.8730 C   0  0  2  0  0  3  0  0  0  0  0  0
  187.5440  178.0760  142.1890 C   0  0  0  0  0  3  0  0  0  0  0  0
  186.7300  177.9400  143.4450 C   0  0  0  0  0  2  0  0  0  0  0  0
  188.8900  177.9850  142.1790 C   0  0  0  0  0  0  0  0  0  0  0  0
  189.6640  177.6050  143.4330 C   0  0  2  0  0  3  0  0  0  0  0  0
  188.8200  177.5950  144.7130 C   0  0  0  0  0  2  0  0  0  0  0  0
  187.4320  177.0330  144.4470 C   0  0  1  0  0  3  0  0  0  0  0  0
  186.6400  177.0080  145.7360 C   0  0  0  0  0  1  0  0  0  0  0  0
  190.8580  178.4850  143.6270 C   0  0  0  0  0  0  0  0  0  0  0  0
  190.7010  179.6870  143.9630 O   0  0  0  0  0  1  0  0  0  0  0  0
  192.1400  177.9820  143.4440 O   0  0  0  0  0  0  0  0  0  0  0  0
  185.1870  177.6390  136.3690 C   0  0  0  0  0  2  0  0  0  0  0  0
  185.0790  178.0870  137.8150 C   0  0  0  0  0  2  0  0  0  0  0  0
  183.7730  177.5860  138.4200 C   0  0  1  0  0  3  0  0  0  0  0  0
  183.4340  180.0980  139.0770 C   0  0  0  0  0  1  0  0  0  0  0  0
  182.9580  178.6480  139.0650 C   0  0  1  0  0  0  0  0  0  0  0  0
  182.6850  178.1990  137.7620 O   0  0  0  0  0  0  0  0  0  0  0  0
  179.4480  177.7230  141.0000 S   0  0  0  0  0  0  0  0  0  0  0  0
  180.3660  178.7830  142.1610 C   0  0  2  0  0  3  0  0  0  0  0  0
  182.1350  178.8820  141.7260 S   0  0  0  0  0  0  0  0  0  0  0  0
  181.9130  178.1600  140.0690 C   0  0  1  0  0  3  0  0  0  0  0  0
  180.4670  178.2560  139.6070 C   0  0  2  0  0  3  0  0  0  0  0  0
  180.2140  178.2530  143.5720 C   0  0  0  0  0  1  0  0  0  0  0  0
  180.0640  179.6620  139.1850 C   0  0  0  0  0  1  0  0  0  0  0  0
  186.6150  174.8650  135.5330 C   0  0  0  0  0  2  0  0  0  0  0  0
  185.6190  172.5340  135.9760 C   0  0  0  0  0  0  0  0  0  0  0  0
  183.3010  173.8260  136.9780 C   0  0  0  0  0  3  0  0  0  0  0  0
  184.3830  174.5780  136.5390 C   0  0  0  0  0  3  0  0  0  0  0  0
  185.5260  173.9590  136.0270 C   0  0  0  0  0  0  0  0  0  0  0  0
  183.3460  172.4400  136.8940 C   0  0  0  0  0  3  0  0  0  0  0  0
  184.4710  171.7870  136.3910 C   0  0  0  0  0  0  0  0  0  0  0  0
  184.3590  170.3030  136.2830 C   0  0  0  0  0  1  0  0  0  0  0  0
  186.5600  170.6130  134.6260 C   0  0  0  0  0  1  0  0  0  0  0  0
  187.6270  172.6900  134.5960 O   0  0  0  0  0  1  0  0  0  0  0  0
  186.8940  171.8570  135.4380 C   0  0  0  0  0  0  0  0  0  0  0  0
  187.7890  171.4640  136.5970 C   0  0  0  0  0  1  0  0  0  0  0  0
  1  5  1  0  0  0  0
  2 22  1  1  0  0  0
  2  4  1  0  0  0  0
  2  3  1  0  0  0  0
  4 35  1  6  0  0  0
  4  1  1  0  0  0  0
  5  3  1  6  0  0  0
  5  9  1  0  0  0  0
  6  7  1  1  0  0  0
  6 11  1  0  0  0  0
  8 11  1  0  0  0  0
  9 10  1  1  0  0  0
  9  6  1  0  0  0  0
 10  8  1  0  0  0  0
 11 14  1  1  0  0  0
 12 13  1  0  0  0  0
 13 17  1  0  0  0  0
 14 12  2  0  0  0  0
 14 15  1  0  0  0  0
 15 19  1  1  0  0  0
 15 16  1  0  0  0  0
 17 16  1  0  0  0  0
 17 18  1  1  0  0  0
 19 20  1  0  0  0  0
 21 19  2  0  0  0  0
 22 23  1  0  0  0  0
 24 23  1  6  0  0  0
 24 26  1  0  0  0  0
 26 25  1  1  0  0  0
 26 31  1  0  0  0  0
 27 24  1  0  0  0  0
 27 26  1  0  0  0  0
 28 29  1  0  0  0  0
 29 33  1  1  0  0  0
 30 29  1  0  0  0  0
 31 30  1  1  0  0  0
 32 34  1  1  0  0  0
 32 31  1  0  0  0  0
 32 28  1  0  0  0  0
 35 39  1  0  0  0  0
 36 39  2  0  0  0  0
 36 41  1  0  0  0  0
 38 37  2  0  0  0  0
 39 38  1  0  0  0  0
 40 37  1  0  0  0  0
 41 40  2  0  0  0  0
 42 41  1  0  0  0  0
 43 45  1  0  0  0  0
 44 45  1  0  0  0  0
 45 36  1  0  0  0  0
 45 46  1  0  0  0  0
M  END
>  <MODEL>
8

>  <REMARK>
 VINA RESULT:      -6.8      3.887     10.263
  Name = 
  10 active torsions:
  status: ('A' for Active; 'I' for Inactive)
    1  A    between atoms: C_8  and  C_10
    2  A    between atoms: C_9  and  C_23
    3  A    between atoms: C_10  and  C_12
    4  A    between atoms: C_12  and  C_16
    5  A    between atoms: C_15  and  C_26
    6  A    between atoms: C_18  and  C_43
    7  A    between atoms: C_19  and  C_45
    8  A    between atoms: C_22  and  C_42
    9  A    between atoms: C_25  and  C_29
   10  A    between atoms: C_29  and  C_41
                            x       y       z     vdW  Elec       q    Type
                         _______ _______ _______ _____ _____    ______ ____

>  <TORSDO>
F 10

$$$$
=
 OpenBabel10222416183D

 46 51  0  0  1  0  0  0  0  0999 V2000
  188.1190  178.6110  139.4150 N   0  0  0  0  0  2  0  0  0  0  0  0
  190.1140  177.4180  138.8010 C   0  0  1  0  0  3  0  0  0  0  0  0
  189.3060  177.6710  137.2020 S   0  0  0  0  0  0  0  0  0  0  0  0
  189.0750  177.6170  139.8800 C   0  0  1  0  0  3  0  0  0  0  0  0
  187.8060  178.3010  138.0250 C   0  0  1  0  0  3  0  0  0  0  0  0
  186.1020  177.2430  136.5260 C   0  0  2  0  0  3  0  0  0  0  0  0
  186.5660  176.1160  135.8390 O   0  0  0  0  0  1  0  0  0  0  0  0
  184.3870  177.9080  138.0370 C   0  0  0  0  0  2  0  0  0  0  0  0
  186.6630  177.2870  137.9360 C   0  0  2  0  0  3  0  0  0  0  0  0
  185.5790  177.6620  138.8460 N   0  0  0  0  0  2  0  0  0  0  0  0
  184.5950  177.2540  136.6890 C   0  0  2  0  0  3  0  0  0  0  0  0
  184.6890  174.7700  136.7480 C   0  0  0  0  0  3  0  0  0  0  0  0
  184.0970  173.3890  136.7190 C   0  0  0  0  0  2  0  0  0  0  0  0
  183.9390  175.8860  136.6310 C   0  0  0  0  0  0  0  0  0  0  0  0
  182.4200  175.8160  136.5940 C   0  0  2  0  0  3  0  0  0  0  0  0
  181.8600  174.3970  136.4430 C   0  0  0  0  0  2  0  0  0  0  0  0
  182.6720  173.4010  137.2570 C   0  0  1  0  0  3  0  0  0  0  0  0
  182.0730  172.0190  137.1100 C   0  0  0  0  0  1  0  0  0  0  0  0
  181.8570  176.6930  135.5200 C   0  0  0  0  0  0  0  0  0  0  0  0
  181.1750  176.1870  134.5940 O   0  0  0  0  0  0  0  0  0  0  0  0
  182.0780  178.0650  135.5450 O   0  0  0  0  0  1  0  0  0  0  0  0
  190.6800  176.0090  138.8750 C   0  0  0  0  0  2  0  0  0  0  0  0
  191.0620  175.5140  137.4930 C   0  0  0  0  0  2  0  0  0  0  0  0
  192.4650  175.9920  137.1370 C   0  0  1  0  0  3  0  0  0  0  0  0
  192.8440  173.4920  136.4550 C   0  0  0  0  0  1  0  0  0  0  0  0
  193.3540  174.9220  136.6110 C   0  0  1  0  0  0  0  0  0  0  0  0
  192.6850  175.8120  135.7530 O   0  0  0  0  0  0  0  0  0  0  0  0
  197.3370  175.4490  135.7300 S   0  0  0  0  0  0  0  0  0  0  0  0
  197.3050  174.2180  137.0710 C   0  0  2  0  0  3  0  0  0  0  0  0
  195.7060  174.2210  137.9490 S   0  0  0  0  0  0  0  0  0  0  0  0
  194.8520  175.2150  136.6840 C   0  0  1  0  0  3  0  0  0  0  0  0
  195.5900  175.1790  135.3540 C   0  0  2  0  0  3  0  0  0  0  0  0
  198.4280  174.4950  138.0500 C   0  0  0  0  0  1  0  0  0  0  0  0
  195.4240  173.8610  134.6100 C   0  0  0  0  0  1  0  0  0  0  0  0
  189.7540  178.1050  141.1520 C   0  0  0  0  0  2  0  0  0  0  0  0
  189.4080  177.7470  143.6770 C   0  0  0  0  0  0  0  0  0  0  0  0
  186.6180  177.6280  143.1740 C   0  0  0  0  0  3  0  0  0  0  0  0
  187.5040  177.8580  142.1300 C   0  0  0  0  0  3  0  0  0  0  0  0
  188.8820  177.9030  142.3560 C   0  0  0  0  0  0  0  0  0  0  0  0
  187.1050  177.4250  144.4590 C   0  0  0  0  0  3  0  0  0  0  0  0
  188.4750  177.4650  144.7230 C   0  0  0  0  0  0  0  0  0  0  0  0
  188.8670  177.1540  146.1290 C   0  0  0  0  0  1  0  0  0  0  0  0
  191.3160  177.1180  145.2130 C   0  0  0  0  0  1  0  0  0  0  0  0
  191.6660  177.2270  142.9070 O   0  0  0  0  0  1  0  0  0  0  0  0
  190.9260  177.8270  143.9240 C   0  0  0  0  0  0  0  0  0  0  0  0
  191.3510  179.2800  144.0120 C   0  0  0  0  0  1  0  0  0  0  0  0
  1  4  1  0  0  0  0
  2 22  1  6  0  0  0
  2  4  1  0  0  0  0
  3  2  1  0  0  0  0
  4 35  1  1  0  0  0
  5  3  1  1  0  0  0
  5  1  1  0  0  0  0
  6  7  1  1  0  0  0
  6 11  1  0  0  0  0
  6  9  1  0  0  0  0
  8 10  1  0  0  0  0
  9  5  1  0  0  0  0
  9 10  1  1  0  0  0
 11 14  1  1  0  0  0
 11  8  1  0  0  0  0
 13 12  1  0  0  0  0
 13 17  1  0  0  0  0
 14 12  2  0  0  0  0
 15 19  1  6  0  0  0
 15 14  1  0  0  0  0
 16 15  1  0  0  0  0
 16 17  1  0  0  0  0
 17 18  1  6  0  0  0
 19 21  1  0  0  0  0
 20 19  2  0  0  0  0
 23 22  1  0  0  0  0
 24 23  1  6  0  0  0
 26 25  1  1  0  0  0
 26 31  1  0  0  0  0
 26 24  1  0  0  0  0
 27 26  1  0  0  0  0
 27 24  1  0  0  0  0
 28 29  1  0  0  0  0
 29 30  1  0  0  0  0
 29 33  1  1  0  0  0
 31 30  1  1  0  0  0
 32 34  1  1  0  0  0
 32 28  1  0  0  0  0
 32 31  1  0  0  0  0
 35 39  1  0  0  0  0
 36 45  1  0  0  0  0
 36 41  1  0  0  0  0
 37 40  1  0  0  0  0
 38 39  1  0  0  0  0
 38 37  2  0  0  0  0
 39 36  2  0  0  0  0
 40 41  2  0  0  0  0
 41 42  1  0  0  0  0
 44 45  1  0  0  0  0
 45 46  1  0  0  0  0
 45 43  1  0  0  0  0
M  END
>  <MODEL>
9

>  <REMARK>
 VINA RESULT:      -6.6      2.221      2.915
  Name = 
  10 active torsions:
  status: ('A' for Active; 'I' for Inactive)
    1  A    between atoms: C_8  and  C_10
    2  A    between atoms: C_9  and  C_23
    3  A    between atoms: C_10  and  C_12
    4  A    between atoms: C_12  and  C_16
    5  A    between atoms: C_15  and  C_26
    6  A    between atoms: C_18  and  C_43
    7  A    between atoms: C_19  and  C_45
    8  A    between atoms: C_22  and  C_42
    9  A    between atoms: C_25  and  C_29
   10  A    between atoms: C_29  and  C_41
                            x       y       z     vdW  Elec       q    Type
                         _______ _______ _______ _____ _____    ______ ____

>  <TORSDO>
F 10

$$$$
