=
 OpenBabel10222418513D

 42 44  0  0  1  0  0  0  0  0999 V2000
  183.4860  176.5990  138.3280 C   0  0  0  0  0  0  0  0  0  0  0  0
  182.2990  177.6710  140.2050 C   0  0  0  0  0  0  0  0  0  0  0  0
  181.6890  175.5290  139.0200 N   0  0  0  0  0  0  0  0  0  0  0  0
  185.4290  177.6760  137.1700 C   0  0  0  0  0  1  0  0  0  0  0  0
  181.1700  177.7740  140.8480 N   0  0  0  0  0  0  0  0  0  0  0  0
  182.4760  176.5970  139.2260 C   0  0  1  0  0  3  0  0  0  0  0  0
  182.2820  174.9020  137.9720 C   0  0  0  0  0  3  0  0  0  0  0  0
  183.3890  175.5400  137.5110 N   0  0  0  0  0  0  0  0  0  0  0  0
  184.4330  177.6650  138.2300 N   0  0  0  0  0  0  0  0  0  0  0  0
  184.3240  178.7590  139.1640 C   0  0  0  0  0  0  0  0  0  0  0  0
  183.4600  178.6310  140.4100 C   0  0  2  0  0  3  0  0  0  0  0  0
  184.9750  179.8210  138.9770 O   0  0  0  0  0  0  0  0  0  0  0  0
  182.0390  179.2150  142.6080 C   0  0  0  0  0  2  0  0  0  0  0  0
  180.7990  178.7920  141.8340 C   0  0  1  0  0  0  0  0  0  0  0  0
  181.6730  179.1200  144.0850 C   0  0  1  0  0  3  0  0  0  0  0  0
  180.1940  180.0150  141.1670 C   0  0  0  0  0  1  0  0  0  0  0  0
  179.8820  178.2450  142.8780 C   0  0  0  0  0  3  0  0  0  0  0  0
  180.3580  178.4230  144.0990 C   0  0  0  0  0  3  0  0  0  0  0  0
  182.6220  178.3480  144.7570 O   0  0  0  0  0  0  0  0  0  0  0  0
  183.7260  179.1880  144.9040 C   0  0  0  0  0  2  0  0  0  0  0  0
  184.8070  178.4750  145.6920 C   0  0  0  0  0  2  0  0  0  0  0  0
  185.3880  179.3960  146.6510 N   0  0  0  0  0  2  0  0  0  0  0  0
  186.2520  178.6280  147.5350 C   0  0  0  0  0  2  0  0  0  0  0  0
  187.4280  178.0200  146.7680 C   0  0  0  0  0  2  0  0  0  0  0  0
  188.5430  177.4920  147.6750 C   0  0  2  0  0  3  0  0  0  0  0  0
  189.0210  178.5100  148.5040 O   0  0  0  0  0  1  0  0  0  0  0  0
  189.6830  176.8570  146.8820 C   0  0  2  0  0  3  0  0  0  0  0  0
  190.8690  176.9280  147.6160 O   0  0  0  0  0  1  0  0  0  0  0  0
  190.2190  176.6570  144.5640 O   0  0  0  0  0  1  0  0  0  0  0  0
  189.8710  177.5740  145.5550 C   0  0  0  0  0  2  0  0  0  0  0  0
  184.3210  178.1330  141.5610 C   0  0  0  0  0  2  0  0  0  0  0  0
  185.6000  178.9460  141.6560 C   0  0  0  0  0  2  0  0  0  0  0  0
  186.8050  178.0220  141.7390 C   0  0  2  0  0  3  0  0  0  0  0  0
  186.9700  177.5090  143.1580 C   0  0  0  0  0  1  0  0  0  0  0  0
  188.0820  178.7030  141.2470 C   0  0  0  0  0  2  0  0  0  0  0  0
  189.3200  177.8410  141.4580 C   0  0  0  0  0  2  0  0  0  0  0  0
  189.5050  177.0010  140.3590 O   0  0  0  0  0  0  0  0  0  0  0  0
  189.9220  177.8520  139.3350 C   0  0  0  0  0  2  0  0  0  0  0  0
  189.5730  177.2600  137.9800 C   0  0  0  0  0  2  0  0  0  0  0  0
  189.0710  178.0550  135.6740 O   0  0  0  0  0  0  0  0  0  0  0  0
  189.1480  178.3280  137.0320 C   0  0  0  0  0  0  0  0  0  0  0  0
  188.8400  179.4710  137.4590 O   0  0  0  0  0  1  0  0  0  0  0  0
  2 11  1  0  0  0  0
  2  5  2  0  0  0  0
  3  6  1  0  0  0  0
  4  9  1  0  0  0  0
  5 14  1  0  0  0  0
  6  1  1  6  0  0  0
  6  2  1  0  0  0  0
  7  3  2  0  0  0  0
  8  7  1  0  0  0  0
  8  1  2  0  0  0  0
  9  1  1  0  0  0  0
  9 10  1  0  0  0  0
 10 11  1  0  0  0  0
 11 31  1  1  0  0  0
 12 10  2  0  0  0  0
 13 15  1  0  0  0  0
 14 16  1  6  0  0  0
 14 13  1  0  0  0  0
 14 17  1  0  0  0  0
 15 18  1  0  0  0  0
 15 19  1  1  0  0  0
 17 18  2  0  0  0  0
 19 20  1  0  0  0  0
 20 21  1  0  0  0  0
 21 22  1  0  0  0  0
 22 23  1  0  0  0  0
 24 23  1  0  0  0  0
 24 25  1  0  0  0  0
 25 26  1  6  0  0  0
 27 28  1  1  0  0  0
 27 25  1  0  0  0  0
 29 30  1  0  0  0  0
 30 27  1  0  0  0  0
 31 32  1  0  0  0  0
 32 33  1  0  0  0  0
 33 34  1  1  0  0  0
 35 36  1  0  0  0  0
 35 33  1  0  0  0  0
 37 36  1  0  0  0  0
 38 37  1  0  0  0  0
 39 38  1  0  0  0  0
 40 41  2  0  0  0  0
 41 42  1  0  0  0  0
 41 39  1  0  0  0  0
M  END
>  <MODEL>
1

>  <REMARK>
 VINA RESULT:      -6.9      0.000      0.000
  Name = 
  19 active torsions:
  status: ('A' for Active; 'I' for Inactive)
    1  A    between atoms: C_2  and  N_13
    2  A    between atoms: C_3  and  C_16
    3  A    between atoms: C_3  and  C_22
    4  A    between atoms: C_4  and  O_34
    5  A    between atoms: C_6  and  C_25
    6  A    between atoms: C_6  and  C_31
    7  A    between atoms: C_8  and  C_24
    8  A    between atoms: C_8  and  O_38
    9  A    between atoms: C_15  and  C_25
   10  A    between atoms: C_15  and  C_33
   11  A    between atoms: C_16  and  C_40
   12  A    between atoms: C_17  and  C_21
   13  A    between atoms: C_17  and  O_34
   14  A    between atoms: C_19  and  C_24
   15  A    between atoms: C_21  and  N_29
   16  A    between atoms: C_22  and  C_23
   17  A    between atoms: C_23  and  O_38
   18  A    between atoms: N_29  and  C_33
   19  A    between atoms: C_36  and  C_40
                            x       y       z     vdW  Elec       q    Type
                         _______ _______ _______ _____ _____    ______ ____

>  <TORSDO>
F 19

$$$$
=
 OpenBabel10222418513D

 42 44  0  0  1  0  0  0  0  0999 V2000
  180.3440  180.9390  139.4740 C   0  0  0  0  0  0  0  0  0  0  0  0
  181.9040  179.1880  138.7110 C   0  0  0  0  0  0  0  0  0  0  0  0
  181.0520  181.1680  137.4000 N   0  0  0  0  0  0  0  0  0  0  0  0
  179.1910  180.8440  141.6950 C   0  0  0  0  0  1  0  0  0  0  0  0
  182.4210  178.5800  137.6800 N   0  0  0  0  0  0  0  0  0  0  0  0
  181.1400  180.4210  138.5120 C   0  0  0  0  0  0  0  0  0  0  0  0
  180.1810  182.1480  137.7500 C   0  0  0  0  0  3  0  0  0  0  0  0
  179.7150  182.0340  139.0210 N   0  0  0  0  0  2  0  0  0  0  0  0
  180.1480  180.3080  140.7410 N   0  0  0  0  0  0  0  0  0  0  0  0
  180.8700  179.0880  141.0100 C   0  0  0  0  0  0  0  0  0  0  0  0
  182.0420  178.6700  140.1340 C   0  0  2  0  0  3  0  0  0  0  0  0
  180.5620  178.3740  142.0010 O   0  0  0  0  0  0  0  0  0  0  0  0
  184.6340  177.6270  138.0300 C   0  0  0  0  0  2  0  0  0  0  0  0
  183.1840  177.3290  137.6770 C   0  0  1  0  0  0  0  0  0  0  0  0
  185.4810  176.9510  136.9580 C   0  0  1  0  0  3  0  0  0  0  0  0
  182.6270  176.3380  138.6840 C   0  0  0  0  0  1  0  0  0  0  0  0
  183.2530  176.7250  136.3140 C   0  0  0  0  0  3  0  0  0  0  0  0
  184.5010  176.5200  135.9250 C   0  0  0  0  0  3  0  0  0  0  0  0
  186.3710  177.8740  136.4070 O   0  0  0  0  0  0  0  0  0  0  0  0
  187.3630  178.0360  137.3730 C   0  0  0  0  0  2  0  0  0  0  0  0
  188.6480  177.3890  136.8970 C   0  0  0  0  0  2  0  0  0  0  0  0
  189.7620  177.9060  137.6710 N   0  0  0  0  0  2  0  0  0  0  0  0
  190.3990  176.7790  138.3360 C   0  0  0  0  0  2  0  0  0  0  0  0
  190.9590  177.1860  139.7000 C   0  0  0  0  0  2  0  0  0  0  0  0
  190.1110  176.7000  140.8800 C   0  0  2  0  0  3  0  0  0  0  0  0
  188.8070  177.1920  140.7780 O   0  0  0  0  0  1  0  0  0  0  0  0
  190.7270  177.0690  142.2270 C   0  0  2  0  0  3  0  0  0  0  0  0
  192.0860  177.3460  142.0680 O   0  0  0  0  0  1  0  0  0  0  0  0
  191.7930  175.6130  143.7920 O   0  0  0  0  0  1  0  0  0  0  0  0
  190.5620  175.9270  143.2180 C   0  0  0  0  0  2  0  0  0  0  0  0
  183.3290  179.2090  140.7370 C   0  0  0  0  0  2  0  0  0  0  0  0
  183.7430  178.3710  141.9340 C   0  0  0  0  0  2  0  0  0  0  0  0
  184.8570  179.0670  142.7020 C   0  0  2  0  0  3  0  0  0  0  0  0
  186.1320  179.0690  141.8800 C   0  0  0  0  0  1  0  0  0  0  0  0
  185.0860  178.4340  144.0750 C   0  0  0  0  0  2  0  0  0  0  0  0
  183.9860  178.7860  145.0690 C   0  0  0  0  0  2  0  0  0  0  0  0
  184.4760  178.6860  146.3720 O   0  0  0  0  0  0  0  0  0  0  0  0
  185.7890  179.1530  146.2880 C   0  0  0  0  0  2  0  0  0  0  0  0
  186.6160  178.6170  147.4440 C   0  0  0  0  0  2  0  0  0  0  0  0
  188.2250  176.7510  147.8080 O   0  0  0  0  0  1  0  0  0  0  0  0
  187.6760  177.6930  146.9510 C   0  0  0  0  0  0  0  0  0  0  0  0
  188.0630  177.7520  145.7550 O   0  0  0  0  0  0  0  0  0  0  0  0
  1  9  1  0  0  0  0
  2 11  1  0  0  0  0
  3  7  2  0  0  0  0
  3  6  1  0  0  0  0
  5  2  2  0  0  0  0
  6  2  1  0  0  0  0
  6  1  2  0  0  0  0
  7  8  1  0  0  0  0
  8  1  1  0  0  0  0
  9 10  1  0  0  0  0
  9  4  1  0  0  0  0
 10 12  2  0  0  0  0
 11 31  1  1  0  0  0
 11 10  1  0  0  0  0
 14  5  1  0  0  0  0
 14 13  1  0  0  0  0
 14 16  1  1  0  0  0
 15 19  1  6  0  0  0
 15 13  1  0  0  0  0
 17 14  1  0  0  0  0
 18 17  2  0  0  0  0
 18 15  1  0  0  0  0
 19 20  1  0  0  0  0
 21 20  1  0  0  0  0
 21 22  1  0  0  0  0
 22 23  1  0  0  0  0
 23 24  1  0  0  0  0
 24 25  1  0  0  0  0
 25 26  1  6  0  0  0
 25 27  1  0  0  0  0
 27 28  1  6  0  0  0
 27 30  1  0  0  0  0
 30 29  1  0  0  0  0
 31 32  1  0  0  0  0
 32 33  1  0  0  0  0
 33 34  1  6  0  0  0
 33 35  1  0  0  0  0
 35 36  1  0  0  0  0
 36 37  1  0  0  0  0
 38 37  1  0  0  0  0
 38 39  1  0  0  0  0
 41 39  1  0  0  0  0
 41 40  1  0  0  0  0
 42 41  2  0  0  0  0
M  END
>  <MODEL>
2

>  <REMARK>
 VINA RESULT:      -6.8      2.283      6.878
  Name = 
  19 active torsions:
  status: ('A' for Active; 'I' for Inactive)
    1  A    between atoms: C_2  and  N_13
    2  A    between atoms: C_3  and  C_16
    3  A    between atoms: C_3  and  C_22
    4  A    between atoms: C_4  and  O_34
    5  A    between atoms: C_6  and  C_25
    6  A    between atoms: C_6  and  C_31
    7  A    between atoms: C_8  and  C_24
    8  A    between atoms: C_8  and  O_38
    9  A    between atoms: C_15  and  C_25
   10  A    between atoms: C_15  and  C_33
   11  A    between atoms: C_16  and  C_40
   12  A    between atoms: C_17  and  C_21
   13  A    between atoms: C_17  and  O_34
   14  A    between atoms: C_19  and  C_24
   15  A    between atoms: C_21  and  N_29
   16  A    between atoms: C_22  and  C_23
   17  A    between atoms: C_23  and  O_38
   18  A    between atoms: N_29  and  C_33
   19  A    between atoms: C_36  and  C_40
                            x       y       z     vdW  Elec       q    Type
                         _______ _______ _______ _____ _____    ______ ____

>  <TORSDO>
F 19

$$$$
=
 OpenBabel10222418513D

 42 44  0  0  1  0  0  0  0  0999 V2000
  186.2160  178.2270  143.1110 C   0  0  0  0  0  0  0  0  0  0  0  0
  187.2190  178.2450  140.8580 C   0  0  0  0  0  0  0  0  0  0  0  0
  185.2080  179.5420  141.6600 N   0  0  0  0  0  0  0  0  0  0  0  0
  186.9880  176.6730  144.9190 C   0  0  0  0  0  1  0  0  0  0  0  0
  187.0250  178.4990  139.5940 N   0  0  0  0  0  0  0  0  0  0  0  0
  186.2330  178.6940  141.8430 C   0  0  0  0  0  0  0  0  0  0  0  0
  184.5960  179.5590  142.8710 C   0  0  0  0  0  3  0  0  0  0  0  0
  185.1850  178.7500  143.7900 N   0  0  0  0  0  2  0  0  0  0  0  0
  187.1240  177.2280  143.5810 N   0  0  0  0  0  0  0  0  0  0  0  0
  188.1270  176.7370  142.6660 C   0  0  0  0  0  0  0  0  0  0  0  0
  188.4280  177.4820  141.3740 C   0  0  2  0  0  3  0  0  0  0  0  0
  188.7920  175.7050  142.9480 O   0  0  0  0  0  0  0  0  0  0  0  0
  187.0580  178.1380  137.1870 C   0  0  0  0  0  2  0  0  0  0  0  0
  187.8760  178.1070  138.4690 C   0  0  1  0  0  0  0  0  0  0  0  0
  187.2890  176.7960  136.5010 C   0  0  1  0  0  3  0  0  0  0  0  0
  189.0610  179.0440  138.3190 C   0  0  0  0  0  1  0  0  0  0  0  0
  188.3280  176.6890  138.5830 C   0  0  0  0  0  3  0  0  0  0  0  0
  188.0090  175.9780  137.5140 C   0  0  0  0  0  3  0  0  0  0  0  0
  186.0620  176.2020  136.2010 O   0  0  0  0  0  0  0  0  0  0  0  0
  185.1500  177.2560  136.1770 C   0  0  0  0  0  2  0  0  0  0  0  0
  183.7400  176.7080  136.0920 C   0  0  0  0  0  2  0  0  0  0  0  0
  182.8750  177.4680  136.9770 N   0  0  0  0  0  2  0  0  0  0  0  0
  183.0880  176.9800  138.3310 C   0  0  0  0  0  2  0  0  0  0  0  0
  183.1030  178.1320  139.3380 C   0  0  0  0  0  2  0  0  0  0  0  0
  182.9250  179.5100  138.6940 C   0  0  2  0  0  3  0  0  0  0  0  0
  184.0580  180.2980  138.9070 O   0  0  0  0  0  1  0  0  0  0  0  0
  181.6680  180.2220  139.1890 C   0  0  2  0  0  3  0  0  0  0  0  0
  180.6020  179.3220  139.2420 O   0  0  0  0  0  1  0  0  0  0  0  0
  181.1400  180.8970  136.9600 O   0  0  0  0  0  1  0  0  0  0  0  0
  181.3070  181.3710  138.2600 C   0  0  0  0  0  2  0  0  0  0  0  0
  189.5660  178.4600  141.6210 C   0  0  0  0  0  2  0  0  0  0  0  0
  190.0830  178.3240  143.0420 C   0  0  0  0  0  2  0  0  0  0  0  0
  191.5420  177.8940  143.0310 C   0  0  2  0  0  3  0  0  0  0  0  0
  191.9340  177.4220  141.6430 C   0  0  0  0  0  1  0  0  0  0  0  0
  191.8290  176.8200  144.0810 C   0  0  0  0  0  2  0  0  0  0  0  0
  191.0510  177.0450  145.3720 C   0  0  0  0  0  2  0  0  0  0  0  0
  191.9180  176.9800  146.4640 O   0  0  0  0  0  0  0  0  0  0  0  0
  191.1030  176.6140  147.5360 C   0  0  0  0  0  2  0  0  0  0  0  0
  189.6380  176.7820  147.1680 C   0  0  0  0  0  2  0  0  0  0  0  0
  189.5720  178.7120  148.7400 O   0  0  0  0  0  1  0  0  0  0  0  0
  188.9320  177.6160  148.1810 C   0  0  0  0  0  0  0  0  0  0  0  0
  187.7510  177.3410  148.5180 O   0  0  0  0  0  0  0  0  0  0  0  0
  1  9  1  0  0  0  0
  1  8  1  0  0  0  0
  2 11  1  0  0  0  0
  2  6  1  0  0  0  0
  3  6  1  0  0  0  0
  3  7  2  0  0  0  0
  5  2  2  0  0  0  0
  6  1  2  0  0  0  0
  7  8  1  0  0  0  0
  9  4  1  0  0  0  0
 10 12  2  0  0  0  0
 10  9  1  0  0  0  0
 11 31  1  1  0  0  0
 11 10  1  0  0  0  0
 13 14  1  0  0  0  0
 14 16  1  6  0  0  0
 14 17  1  0  0  0  0
 14  5  1  0  0  0  0
 15 19  1  1  0  0  0
 15 13  1  0  0  0  0
 15 18  1  0  0  0  0
 18 17  2  0  0  0  0
 20 19  1  0  0  0  0
 21 20  1  0  0  0  0
 21 22  1  0  0  0  0
 22 23  1  0  0  0  0
 23 24  1  0  0  0  0
 25 26  1  1  0  0  0
 25 27  1  0  0  0  0
 25 24  1  0  0  0  0
 27 28  1  6  0  0  0
 29 30  1  0  0  0  0
 30 27  1  0  0  0  0
 31 32  1  0  0  0  0
 33 34  1  6  0  0  0
 33 32  1  0  0  0  0
 33 35  1  0  0  0  0
 35 36  1  0  0  0  0
 36 37  1  0  0  0  0
 37 38  1  0  0  0  0
 39 38  1  0  0  0  0
 39 41  1  0  0  0  0
 41 42  2  0  0  0  0
 41 40  1  0  0  0  0
M  END
>  <MODEL>
3

>  <REMARK>
 VINA RESULT:      -6.8      2.500      8.627
  Name = 
  19 active torsions:
  status: ('A' for Active; 'I' for Inactive)
    1  A    between atoms: C_2  and  N_13
    2  A    between atoms: C_3  and  C_16
    3  A    between atoms: C_3  and  C_22
    4  A    between atoms: C_4  and  O_34
    5  A    between atoms: C_6  and  C_25
    6  A    between atoms: C_6  and  C_31
    7  A    between atoms: C_8  and  C_24
    8  A    between atoms: C_8  and  O_38
    9  A    between atoms: C_15  and  C_25
   10  A    between atoms: C_15  and  C_33
   11  A    between atoms: C_16  and  C_40
   12  A    between atoms: C_17  and  C_21
   13  A    between atoms: C_17  and  O_34
   14  A    between atoms: C_19  and  C_24
   15  A    between atoms: C_21  and  N_29
   16  A    between atoms: C_22  and  C_23
   17  A    between atoms: C_23  and  O_38
   18  A    between atoms: N_29  and  C_33
   19  A    between atoms: C_36  and  C_40
                            x       y       z     vdW  Elec       q    Type
                         _______ _______ _______ _____ _____    ______ ____

>  <TORSDO>
F 19

$$$$
=
 OpenBabel10222418513D

 42 44  0  0  1  0  0  0  0  0999 V2000
  191.8040  174.2080  136.8860 C   0  0  0  0  0  0  0  0  0  0  0  0
  190.0390  175.9240  137.0510 C   0  0  0  0  0  0  0  0  0  0  0  0
  189.9050  173.6810  135.9020 N   0  0  0  0  0  0  0  0  0  0  0  0
  194.1400  174.5940  137.7040 C   0  0  0  0  0  1  0  0  0  0  0  0
  188.9320  176.3830  136.5380 N   0  0  0  0  0  0  0  0  0  0  0  0
  190.5420  174.6160  136.6250 C   0  0  1  0  0  3  0  0  0  0  0  0
  190.8400  172.7080  135.7550 C   0  0  0  0  0  3  0  0  0  0  0  0
  192.0290  173.0040  136.3410 N   0  0  0  0  0  0  0  0  0  0  0  0
  192.7620  175.0330  137.5540 N   0  0  0  0  0  0  0  0  0  0  0  0
  192.3380  176.3360  138.0050 C   0  0  0  0  0  0  0  0  0  0  0  0
  190.8600  176.6910  138.0750 C   0  0  2  0  0  3  0  0  0  0  0  0
  193.1900  177.1840  138.3830 O   0  0  0  0  0  0  0  0  0  0  0  0
  187.5410  177.5860  138.1340 C   0  0  0  0  0  2  0  0  0  0  0  0
  188.2940  177.6730  136.8150 C   0  0  1  0  0  0  0  0  0  0  0  0
  186.1360  178.1100  137.8580 C   0  0  1  0  0  3  0  0  0  0  0  0
  189.3190  178.7890  136.9050 C   0  0  0  0  0  1  0  0  0  0  0  0
  187.2400  177.9960  135.8090 C   0  0  0  0  0  3  0  0  0  0  0  0
  186.0680  178.2340  136.3760 C   0  0  0  0  0  3  0  0  0  0  0  0
  185.1920  177.1810  138.2960 O   0  0  0  0  0  0  0  0  0  0  0  0
  184.0900  177.9450  138.6800 C   0  0  0  0  0  2  0  0  0  0  0  0
  184.1400  178.1950  140.1740 C   0  0  0  0  0  2  0  0  0  0  0  0
  184.8060  179.4600  140.4280 N   0  0  0  0  0  2  0  0  0  0  0  0
  185.7810  179.2420  141.4860 C   0  0  0  0  0  2  0  0  0  0  0  0
  185.2780  178.2110  142.4980 C   0  0  0  0  0  2  0  0  0  0  0  0
  185.5410  178.6040  143.9550 C   0  0  2  0  0  3  0  0  0  0  0  0
  185.9840  177.4980  144.6850 O   0  0  0  0  0  1  0  0  0  0  0  0
  184.3180  179.2360  144.6150 C   0  0  2  0  0  3  0  0  0  0  0  0
  184.3830  179.0630  145.9990 O   0  0  0  0  0  1  0  0  0  0  0  0
  182.2810  179.5470  143.4090 O   0  0  0  0  0  1  0  0  0  0  0  0
  183.0410  178.5980  144.0900 C   0  0  0  0  0  2  0  0  0  0  0  0
  190.3400  176.3740  139.4680 C   0  0  0  0  0  2  0  0  0  0  0  0
  189.8570  177.6400  140.1540 C   0  0  0  0  0  2  0  0  0  0  0  0
  190.2240  177.6100  141.6290 C   0  0  2  0  0  3  0  0  0  0  0  0
  191.6780  177.2100  141.7960 C   0  0  0  0  0  1  0  0  0  0  0  0
  189.3020  176.6880  142.4280 C   0  0  0  0  0  2  0  0  0  0  0  0
  189.9620  176.1630  143.6970 C   0  0  0  0  0  2  0  0  0  0  0  0
  189.4230  176.8070  144.8120 O   0  0  0  0  0  0  0  0  0  0  0  0
  190.4710  177.5820  145.3090 C   0  0  0  0  0  2  0  0  0  0  0  0
  191.7070  176.7250  145.5240 C   0  0  0  0  0  2  0  0  0  0  0  0
  191.7050  177.2630  147.9550 O   0  0  0  0  0  1  0  0  0  0  0  0
  191.8220  176.3130  146.9520 C   0  0  0  0  0  0  0  0  0  0  0  0
  192.0060  175.1050  147.2510 O   0  0  0  0  0  0  0  0  0  0  0  0
  1  9  1  0  0  0  0
  2 11  1  0  0  0  0
  5 14  1  0  0  0  0
  5  2  2  0  0  0  0
  6  3  1  6  0  0  0
  6  1  1  0  0  0  0
  6  2  1  0  0  0  0
  7  3  2  0  0  0  0
  7  8  1  0  0  0  0
  8  1  2  0  0  0  0
  9  4  1  0  0  0  0
  9 10  1  0  0  0  0
 10 11  1  0  0  0  0
 10 12  2  0  0  0  0
 11 31  1  1  0  0  0
 14 16  1  1  0  0  0
 14 13  1  0  0  0  0
 15 13  1  0  0  0  0
 15 19  1  6  0  0  0
 17 18  2  0  0  0  0
 17 14  1  0  0  0  0
 18 15  1  0  0  0  0
 19 20  1  0  0  0  0
 20 21  1  0  0  0  0
 21 22  1  0  0  0  0
 22 23  1  0  0  0  0
 23 24  1  0  0  0  0
 24 25  1  0  0  0  0
 25 27  1  0  0  0  0
 25 26  1  1  0  0  0
 27 28  1  1  0  0  0
 29 30  1  0  0  0  0
 30 27  1  0  0  0  0
 31 32  1  0  0  0  0
 32 33  1  0  0  0  0
 33 34  1  6  0  0  0
 33 35  1  0  0  0  0
 35 36  1  0  0  0  0
 36 37  1  0  0  0  0
 37 38  1  0  0  0  0
 38 39  1  0  0  0  0
 39 41  1  0  0  0  0
 41 42  2  0  0  0  0
 41 40  1  0  0  0  0
M  END
>  <MODEL>
4

>  <REMARK>
 VINA RESULT:      -6.7      3.221      7.758
  Name = 
  19 active torsions:
  status: ('A' for Active; 'I' for Inactive)
    1  A    between atoms: C_2  and  N_13
    2  A    between atoms: C_3  and  C_16
    3  A    between atoms: C_3  and  C_22
    4  A    between atoms: C_4  and  O_34
    5  A    between atoms: C_6  and  C_25
    6  A    between atoms: C_6  and  C_31
    7  A    between atoms: C_8  and  C_24
    8  A    between atoms: C_8  and  O_38
    9  A    between atoms: C_15  and  C_25
   10  A    between atoms: C_15  and  C_33
   11  A    between atoms: C_16  and  C_40
   12  A    between atoms: C_17  and  C_21
   13  A    between atoms: C_17  and  O_34
   14  A    between atoms: C_19  and  C_24
   15  A    between atoms: C_21  and  N_29
   16  A    between atoms: C_22  and  C_23
   17  A    between atoms: C_23  and  O_38
   18  A    between atoms: N_29  and  C_33
   19  A    between atoms: C_36  and  C_40
                            x       y       z     vdW  Elec       q    Type
                         _______ _______ _______ _____ _____    ______ ____

>  <TORSDO>
F 19

$$$$
=
 OpenBabel10222418513D

 42 44  0  0  1  0  0  0  0  0999 V2000
  186.8770  178.5010  139.0240 C   0  0  0  0  0  0  0  0  0  0  0  0
  188.8200  177.9370  140.4350 C   0  0  0  0  0  0  0  0  0  0  0  0
  186.4580  178.4120  141.1850 N   0  0  0  0  0  0  0  0  0  0  0  0
  187.0710  178.8970  136.5580 C   0  0  0  0  0  1  0  0  0  0  0  0
  189.3350  177.9920  141.6310 N   0  0  0  0  0  0  0  0  0  0  0  0
  187.4040  178.2560  140.2450 C   0  0  1  0  0  3  0  0  0  0  0  0
  185.3560  178.7490  140.4670 C   0  0  0  0  0  3  0  0  0  0  0  0
  185.5800  178.8240  139.1290 N   0  0  0  0  0  0  0  0  0  0  0  0
  187.6630  178.5120  137.8300 N   0  0  0  0  0  0  0  0  0  0  0  0
  189.0680  178.2040  137.9380 C   0  0  0  0  0  0  0  0  0  0  0  0
  189.6270  177.5650  139.2010 C   0  0  2  0  0  3  0  0  0  0  0  0
  189.8430  178.4270  136.9710 O   0  0  0  0  0  0  0  0  0  0  0  0
  190.8120  176.4080  142.7440 C   0  0  0  0  0  2  0  0  0  0  0  0
  190.7270  177.7390  142.0120 C   0  0  1  0  0  0  0  0  0  0  0  0
  191.5840  176.6780  144.0310 C   0  0  1  0  0  3  0  0  0  0  0  0
  191.6330  177.6890  140.7940 C   0  0  0  0  0  1  0  0  0  0  0  0
  191.2210  178.7380  143.0040 C   0  0  0  0  0  3  0  0  0  0  0  0
  191.6860  178.1610  144.1000 C   0  0  0  0  0  3  0  0  0  0  0  0
  190.8580  176.2040  145.1240 O   0  0  0  0  0  0  0  0  0  0  0  0
  191.6830  176.4290  146.2260 C   0  0  0  0  0  2  0  0  0  0  0  0
  190.8530  176.9290  147.3910 C   0  0  0  0  0  2  0  0  0  0  0  0
  189.5340  176.3250  147.3350 N   0  0  0  0  0  2  0  0  0  0  0  0
  188.5540  177.3840  147.5210 C   0  0  0  0  0  2  0  0  0  0  0  0
  188.1660  178.0200  146.1840 C   0  0  0  0  0  2  0  0  0  0  0  0
  186.7220  177.7290  145.7630 C   0  0  2  0  0  3  0  0  0  0  0  0
  186.6940  177.1260  144.5040 O   0  0  0  0  0  1  0  0  0  0  0  0
  185.8480  178.9810  145.7860 C   0  0  2  0  0  3  0  0  0  0  0  0
  185.4180  179.2360  147.0890 O   0  0  0  0  0  1  0  0  0  0  0  0
  183.4690  179.0620  145.5990 O   0  0  0  0  0  1  0  0  0  0  0  0
  184.6370  178.8000  144.8850 C   0  0  0  0  0  2  0  0  0  0  0  0
  189.6180  176.0540  139.0370 C   0  0  0  0  0  2  0  0  0  0  0  0
  189.4500  175.6810  137.5740 C   0  0  0  0  0  2  0  0  0  0  0  0
  190.6910  174.9600  137.0710 C   0  0  2  0  0  3  0  0  0  0  0  0
  190.3980  173.4800  136.9000 C   0  0  0  0  0  1  0  0  0  0  0  0
  191.8930  175.1820  137.9890 C   0  0  0  0  0  2  0  0  0  0  0  0
  192.8360  176.2580  137.4630 C   0  0  0  0  0  2  0  0  0  0  0  0
  194.1490  175.9550  137.8270 O   0  0  0  0  0  0  0  0  0  0  0  0
  194.5120  174.9060  136.9820 C   0  0  0  0  0  2  0  0  0  0  0  0
  195.9490  174.4890  137.2450 C   0  0  0  0  0  2  0  0  0  0  0  0
  196.7050  176.3790  135.8120 O   0  0  0  0  0  1  0  0  0  0  0  0
  196.8610  175.0620  136.2150 C   0  0  0  0  0  0  0  0  0  0  0  0
  197.7830  174.3610  135.7230 O   0  0  0  0  0  0  0  0  0  0  0  0
  1  8  2  0  0  0  0
  2  5  2  0  0  0  0
  4  9  1  0  0  0  0
  5 14  1  0  0  0  0
  6  1  1  1  0  0  0
  6  2  1  0  0  0  0
  6  3  1  0  0  0  0
  7  3  2  0  0  0  0
  8  7  1  0  0  0  0
  9 10  1  0  0  0  0
  9  1  1  0  0  0  0
 10 11  1  0  0  0  0
 11 31  1  6  0  0  0
 11  2  1  0  0  0  0
 12 10  2  0  0  0  0
 13 15  1  0  0  0  0
 14 16  1  6  0  0  0
 14 13  1  0  0  0  0
 14 17  1  0  0  0  0
 15 18  1  0  0  0  0
 15 19  1  1  0  0  0
 17 18  2  0  0  0  0
 19 20  1  0  0  0  0
 20 21  1  0  0  0  0
 22 21  1  0  0  0  0
 22 23  1  0  0  0  0
 24 23  1  0  0  0  0
 25 26  1  6  0  0  0
 25 27  1  0  0  0  0
 25 24  1  0  0  0  0
 27 28  1  1  0  0  0
 30 29  1  0  0  0  0
 30 27  1  0  0  0  0
 32 31  1  0  0  0  0
 33 34  1  1  0  0  0
 33 32  1  0  0  0  0
 33 35  1  0  0  0  0
 36 37  1  0  0  0  0
 36 35  1  0  0  0  0
 38 39  1  0  0  0  0
 38 37  1  0  0  0  0
 40 41  1  0  0  0  0
 41 39  1  0  0  0  0
 42 41  2  0  0  0  0
M  END
>  <MODEL>
5

>  <REMARK>
 VINA RESULT:      -6.6      3.628      6.965
  Name = 
  19 active torsions:
  status: ('A' for Active; 'I' for Inactive)
    1  A    between atoms: C_2  and  N_13
    2  A    between atoms: C_3  and  C_16
    3  A    between atoms: C_3  and  C_22
    4  A    between atoms: C_4  and  O_34
    5  A    between atoms: C_6  and  C_25
    6  A    between atoms: C_6  and  C_31
    7  A    between atoms: C_8  and  C_24
    8  A    between atoms: C_8  and  O_38
    9  A    between atoms: C_15  and  C_25
   10  A    between atoms: C_15  and  C_33
   11  A    between atoms: C_16  and  C_40
   12  A    between atoms: C_17  and  C_21
   13  A    between atoms: C_17  and  O_34
   14  A    between atoms: C_19  and  C_24
   15  A    between atoms: C_21  and  N_29
   16  A    between atoms: C_22  and  C_23
   17  A    between atoms: C_23  and  O_38
   18  A    between atoms: N_29  and  C_33
   19  A    between atoms: C_36  and  C_40
                            x       y       z     vdW  Elec       q    Type
                         _______ _______ _______ _____ _____    ______ ____

>  <TORSDO>
F 19

$$$$
=
 OpenBabel10222418513D

 42 44  0  0  1  0  0  0  0  0999 V2000
  192.4720  175.3910  136.7600 C   0  0  0  0  0  0  0  0  0  0  0  0
  191.3730  176.5110  138.6630 C   0  0  0  0  0  0  0  0  0  0  0  0
  193.6840  176.9440  137.7470 N   0  0  0  0  0  0  0  0  0  0  0  0
  191.4500  173.4370  135.5720 C   0  0  0  0  0  1  0  0  0  0  0  0
  191.5490  177.2040  139.7530 N   0  0  0  0  0  0  0  0  0  0  0  0
  192.4960  176.3200  137.7420 C   0  0  1  0  0  3  0  0  0  0  0  0
  194.3530  176.3500  136.7250 C   0  0  0  0  0  3  0  0  0  0  0  0
  193.6380  175.3790  136.0990 N   0  0  0  0  0  0  0  0  0  0  0  0
  191.3760  174.4950  136.5680 N   0  0  0  0  0  0  0  0  0  0  0  0
  190.2310  174.6250  137.4370 C   0  0  0  0  0  0  0  0  0  0  0  0
  190.0460  175.8680  138.2940 C   0  0  2  0  0  3  0  0  0  0  0  0
  189.3510  173.7240  137.4660 O   0  0  0  0  0  0  0  0  0  0  0  0
  191.2850  177.9030  142.0710 C   0  0  0  0  0  2  0  0  0  0  0  0
  190.5620  177.4760  140.8020 C   0  0  1  0  0  0  0  0  0  0  0  0
  190.7230  177.0380  143.1930 C   0  0  1  0  0  3  0  0  0  0  0  0
  189.6030  178.5770  140.3860 C   0  0  0  0  0  1  0  0  0  0  0  0
  189.8200  176.2430  141.1980 C   0  0  0  0  0  3  0  0  0  0  0  0
  189.9080  176.0060  142.4960 C   0  0  0  0  0  3  0  0  0  0  0  0
  191.7690  176.4240  143.8840 O   0  0  0  0  0  0  0  0  0  0  0  0
  191.7090  176.9580  145.1710 C   0  0  0  0  0  2  0  0  0  0  0  0
  191.9000  175.8540  146.1910 C   0  0  0  0  0  2  0  0  0  0  0  0
  191.4340  176.3110  147.4870 N   0  0  0  0  0  2  0  0  0  0  0  0
  190.4410  177.3500  147.2600 C   0  0  0  0  0  2  0  0  0  0  0  0
  189.0220  176.7820  147.3250 C   0  0  0  0  0  2  0  0  0  0  0  0
  187.9410  177.8540  147.4980 C   0  0  2  0  0  3  0  0  0  0  0  0
  187.4880  177.8800  148.8190 O   0  0  0  0  0  1  0  0  0  0  0  0
  186.7760  177.6640  146.5290 C   0  0  2  0  0  3  0  0  0  0  0  0
  187.2560  177.5810  145.2210 O   0  0  0  0  0  1  0  0  0  0  0  0
  184.5600  178.3710  147.0700 O   0  0  0  0  0  1  0  0  0  0  0  0
  185.8030  178.8270  146.6330 C   0  0  0  0  0  2  0  0  0  0  0  0
  189.2000  176.8750  137.5310 C   0  0  0  0  0  2  0  0  0  0  0  0
  187.9070  177.1540  138.2770 C   0  0  0  0  0  2  0  0  0  0  0  0
  186.7680  177.3660  137.2920 C   0  0  2  0  0  3  0  0  0  0  0  0
  187.2170  178.2790  136.1660 C   0  0  0  0  0  1  0  0  0  0  0  0
  185.5140  177.9100  137.9770 C   0  0  0  0  0  2  0  0  0  0  0  0
  185.8300  178.6220  139.2880 C   0  0  0  0  0  2  0  0  0  0  0  0
  184.7300  178.5460  140.1440 O   0  0  0  0  0  0  0  0  0  0  0  0
  185.1640  179.1490  141.3250 C   0  0  0  0  0  2  0  0  0  0  0  0
  184.7000  178.3480  142.5300 C   0  0  0  0  0  2  0  0  0  0  0  0
  182.2330  178.6180  142.3310 O   0  0  0  0  0  0  0  0  0  0  0  0
  183.3990  178.8670  143.0390 C   0  0  0  0  0  0  0  0  0  0  0  0
  183.3520  179.5140  144.1170 O   0  0  0  0  0  1  0  0  0  0  0  0
  2  5  2  0  0  0  0
  4  9  1  0  0  0  0
  5 14  1  0  0  0  0
  6  1  1  1  0  0  0
  6  3  1  0  0  0  0
  6  2  1  0  0  0  0
  7  3  2  0  0  0  0
  8  7  1  0  0  0  0
  8  1  2  0  0  0  0
  9  1  1  0  0  0  0
  9 10  1  0  0  0  0
 10 12  2  0  0  0  0
 10 11  1  0  0  0  0
 11 31  1  6  0  0  0
 11  2  1  0  0  0  0
 13 15  1  0  0  0  0
 14 16  1  6  0  0  0
 14 17  1  0  0  0  0
 14 13  1  0  0  0  0
 15 19  1  6  0  0  0
 17 18  2  0  0  0  0
 18 15  1  0  0  0  0
 19 20  1  0  0  0  0
 20 21  1  0  0  0  0
 21 22  1  0  0  0  0
 23 24  1  0  0  0  0
 23 22  1  0  0  0  0
 24 25  1  0  0  0  0
 25 26  1  1  0  0  0
 27 28  1  6  0  0  0
 27 30  1  0  0  0  0
 27 25  1  0  0  0  0
 30 29  1  0  0  0  0
 31 32  1  0  0  0  0
 33 34  1  6  0  0  0
 33 35  1  0  0  0  0
 33 32  1  0  0  0  0
 35 36  1  0  0  0  0
 36 37  1  0  0  0  0
 37 38  1  0  0  0  0
 38 39  1  0  0  0  0
 39 41  1  0  0  0  0
 40 41  2  0  0  0  0
 41 42  1  0  0  0  0
M  END
>  <MODEL>
6

>  <REMARK>
 VINA RESULT:      -6.5      3.802      7.747
  Name = 
  19 active torsions:
  status: ('A' for Active; 'I' for Inactive)
    1  A    between atoms: C_2  and  N_13
    2  A    between atoms: C_3  and  C_16
    3  A    between atoms: C_3  and  C_22
    4  A    between atoms: C_4  and  O_34
    5  A    between atoms: C_6  and  C_25
    6  A    between atoms: C_6  and  C_31
    7  A    between atoms: C_8  and  C_24
    8  A    between atoms: C_8  and  O_38
    9  A    between atoms: C_15  and  C_25
   10  A    between atoms: C_15  and  C_33
   11  A    between atoms: C_16  and  C_40
   12  A    between atoms: C_17  and  C_21
   13  A    between atoms: C_17  and  O_34
   14  A    between atoms: C_19  and  C_24
   15  A    between atoms: C_21  and  N_29
   16  A    between atoms: C_22  and  C_23
   17  A    between atoms: C_23  and  O_38
   18  A    between atoms: N_29  and  C_33
   19  A    between atoms: C_36  and  C_40
                            x       y       z     vdW  Elec       q    Type
                         _______ _______ _______ _____ _____    ______ ____

>  <TORSDO>
F 19

$$$$
=
 OpenBabel10222418513D

 42 44  0  0  1  0  0  0  0  0999 V2000
  185.6270  173.2390  136.0510 C   0  0  0  0  0  0  0  0  0  0  0  0
  186.5340  175.4990  136.4390 C   0  0  0  0  0  0  0  0  0  0  0  0
  187.5850  173.6230  135.1180 N   0  0  0  0  0  0  0  0  0  0  0  0
  183.5330  172.4180  137.1550 C   0  0  0  0  0  1  0  0  0  0  0  0
  187.6060  176.2410  136.4600 N   0  0  0  0  0  0  0  0  0  0  0  0
  186.5970  174.1590  135.8530 C   0  0  1  0  0  3  0  0  0  0  0  0
  187.1530  172.3570  134.8880 C   0  0  0  0  0  3  0  0  0  0  0  0
  185.9510  172.0810  135.4570 N   0  0  0  0  0  0  0  0  0  0  0  0
  184.4880  173.4800  136.8800 N   0  0  0  0  0  0  0  0  0  0  0  0
  184.3560  174.7810  137.4910 C   0  0  0  0  0  0  0  0  0  0  0  0
  185.2000  175.9520  137.0110 C   0  0  2  0  0  3  0  0  0  0  0  0
  183.5100  174.9700  138.4050 O   0  0  0  0  0  0  0  0  0  0  0  0
  189.2010  177.8250  137.3960 C   0  0  0  0  0  2  0  0  0  0  0  0
  187.7440  177.5850  137.0270 C   0  0  1  0  0  0  0  0  0  0  0  0
  189.1980  178.3320  138.8340 C   0  0  1  0  0  3  0  0  0  0  0  0
  187.3050  178.6500  136.0380 C   0  0  0  0  0  1  0  0  0  0  0  0
  187.0090  177.7210  138.3190 C   0  0  0  0  0  3  0  0  0  0  0  0
  187.8000  178.1260  139.2990 C   0  0  0  0  0  3  0  0  0  0  0  0
  190.0700  177.5640  139.6060 O   0  0  0  0  0  0  0  0  0  0  0  0
  189.4150  177.3980  140.8260 C   0  0  0  0  0  2  0  0  0  0  0  0
  190.3100  176.6400  141.7860 C   0  0  0  0  0  2  0  0  0  0  0  0
  191.5030  177.4230  142.0510 N   0  0  0  0  0  2  0  0  0  0  0  0
  191.6110  177.5900  143.4930 C   0  0  0  0  0  2  0  0  0  0  0  0
  190.5080  178.5050  144.0280 C   0  0  0  0  0  2  0  0  0  0  0  0
  189.8650  177.9970  145.3220 C   0  0  2  0  0  3  0  0  0  0  0  0
  190.7290  177.1220  145.9840 O   0  0  0  0  0  1  0  0  0  0  0  0
  188.5090  177.3390  145.0760 C   0  0  2  0  0  3  0  0  0  0  0  0
  187.8950  177.9190  143.9650 O   0  0  0  0  0  1  0  0  0  0  0  0
  186.4270  178.1480  145.9210 O   0  0  0  0  0  1  0  0  0  0  0  0
  187.6090  177.5070  146.2900 C   0  0  0  0  0  2  0  0  0  0  0  0
  184.4310  176.7120  135.9410 C   0  0  0  0  0  2  0  0  0  0  0  0
  183.6980  177.8920  136.5540 C   0  0  0  0  0  2  0  0  0  0  0  0
  182.1950  177.6720  136.4780 C   0  0  2  0  0  3  0  0  0  0  0  0
  181.6600  178.1860  135.1540 C   0  0  0  0  0  1  0  0  0  0  0  0
  181.4640  178.3170  137.6560 C   0  0  0  0  0  2  0  0  0  0  0  0
  182.3200  178.3670  138.9160 C   0  0  0  0  0  2  0  0  0  0  0  0
  181.5610  178.8470  139.9850 O   0  0  0  0  0  0  0  0  0  0  0  0
  182.3070  178.5190  141.1180 C   0  0  0  0  0  2  0  0  0  0  0  0
  183.7430  178.2050  140.7340 C   0  0  0  0  0  2  0  0  0  0  0  0
  185.5580  179.6610  141.6210 O   0  0  0  0  0  0  0  0  0  0  0  0
  184.6790  178.6070  141.8210 C   0  0  0  0  0  0  0  0  0  0  0  0
  184.6630  178.0060  142.9270 O   0  0  0  0  0  1  0  0  0  0  0  0
  1  9  1  0  0  0  0
  2  5  2  0  0  0  0
  2 11  1  0  0  0  0
  5 14  1  0  0  0  0
  6  3  1  1  0  0  0
  6  1  1  0  0  0  0
  6  2  1  0  0  0  0
  7  3  2  0  0  0  0
  7  8  1  0  0  0  0
  8  1  2  0  0  0  0
  9  4  1  0  0  0  0
  9 10  1  0  0  0  0
 10 12  2  0  0  0  0
 11 31  1  6  0  0  0
 11 10  1  0  0  0  0
 13 15  1  0  0  0  0
 14 16  1  6  0  0  0
 14 13  1  0  0  0  0
 14 17  1  0  0  0  0
 15 18  1  0  0  0  0
 15 19  1  1  0  0  0
 17 18  2  0  0  0  0
 19 20  1  0  0  0  0
 20 21  1  0  0  0  0
 21 22  1  0  0  0  0
 22 23  1  0  0  0  0
 23 24  1  0  0  0  0
 24 25  1  0  0  0  0
 25 26  1  6  0  0  0
 27 28  1  6  0  0  0
 27 25  1  0  0  0  0
 27 30  1  0  0  0  0
 29 30  1  0  0  0  0
 31 32  1  0  0  0  0
 33 34  1  6  0  0  0
 33 32  1  0  0  0  0
 33 35  1  0  0  0  0
 35 36  1  0  0  0  0
 36 37  1  0  0  0  0
 37 38  1  0  0  0  0
 39 38  1  0  0  0  0
 39 41  1  0  0  0  0
 40 41  2  0  0  0  0
 41 42  1  0  0  0  0
M  END
>  <MODEL>
7

>  <REMARK>
 VINA RESULT:      -6.4      2.999      6.669
  Name = 
  19 active torsions:
  status: ('A' for Active; 'I' for Inactive)
    1  A    between atoms: C_2  and  N_13
    2  A    between atoms: C_3  and  C_16
    3  A    between atoms: C_3  and  C_22
    4  A    between atoms: C_4  and  O_34
    5  A    between atoms: C_6  and  C_25
    6  A    between atoms: C_6  and  C_31
    7  A    between atoms: C_8  and  C_24
    8  A    between atoms: C_8  and  O_38
    9  A    between atoms: C_15  and  C_25
   10  A    between atoms: C_15  and  C_33
   11  A    between atoms: C_16  and  C_40
   12  A    between atoms: C_17  and  C_21
   13  A    between atoms: C_17  and  O_34
   14  A    between atoms: C_19  and  C_24
   15  A    between atoms: C_21  and  N_29
   16  A    between atoms: C_22  and  C_23
   17  A    between atoms: C_23  and  O_38
   18  A    between atoms: N_29  and  C_33
   19  A    between atoms: C_36  and  C_40
                            x       y       z     vdW  Elec       q    Type
                         _______ _______ _______ _____ _____    ______ ____

>  <TORSDO>
F 19

$$$$
=
 OpenBabel10222418513D

 42 44  0  0  1  0  0  0  0  0999 V2000
  187.4380  176.6870  136.6810 C   0  0  0  0  0  0  0  0  0  0  0  0
  185.6660  177.8270  137.9630 C   0  0  0  0  0  0  0  0  0  0  0  0
  188.0660  178.5520  137.6720 N   0  0  0  0  0  0  0  0  0  0  0  0
  187.1070  174.4390  135.6270 C   0  0  0  0  0  1  0  0  0  0  0  0
  185.4030  178.6770  138.9150 N   0  0  0  0  0  0  0  0  0  0  0  0
  187.0330  177.7250  137.4460 C   0  0  1  0  0  3  0  0  0  0  0  0
  189.0900  177.9620  137.0050 C   0  0  0  0  0  3  0  0  0  0  0  0
  188.7420  176.8020  136.3890 N   0  0  0  0  0  0  0  0  0  0  0  0
  186.5870  175.5870  136.3530 N   0  0  0  0  0  0  0  0  0  0  0  0
  185.2240  175.6180  136.8270 C   0  0  0  0  0  0  0  0  0  0  0  0
  184.6170  176.9080  137.3580 C   0  0  2  0  0  3  0  0  0  0  0  0
  184.5090  174.5830  136.7690 O   0  0  0  0  0  0  0  0  0  0  0  0
  184.3550  179.4810  140.9610 C   0  0  0  0  0  2  0  0  0  0  0  0
  184.1140  178.8990  139.5760 C   0  0  1  0  0  0  0  0  0  0  0  0
  183.5440  178.6270  141.9290 C   0  0  1  0  0  3  0  0  0  0  0  0
  183.2440  179.8590  138.7840 C   0  0  0  0  0  1  0  0  0  0  0  0
  183.3960  177.6170  139.8350 C   0  0  0  0  0  3  0  0  0  0  0  0
  183.0870  177.4700  141.1130 C   0  0  0  0  0  3  0  0  0  0  0  0
  184.3660  178.1780  142.9640 O   0  0  0  0  0  0  0  0  0  0  0  0
  184.4950  179.2720  143.8180 C   0  0  0  0  0  2  0  0  0  0  0  0
  183.7380  179.0070  145.1050 C   0  0  0  0  0  2  0  0  0  0  0  0
  184.6430  178.4340  146.0850 N   0  0  0  0  0  2  0  0  0  0  0  0
  185.9990  178.7910  145.6970 C   0  0  0  0  0  2  0  0  0  0  0  0
  186.9430  177.5930  145.8220 C   0  0  0  0  0  2  0  0  0  0  0  0
  188.0620  177.5830  144.7760 C   0  0  2  0  0  3  0  0  0  0  0  0
  187.9570  176.4540  143.9600 O   0  0  0  0  0  1  0  0  0  0  0  0
  189.4480  177.6690  145.4100 C   0  0  2  0  0  3  0  0  0  0  0  0
  190.3070  176.7540  144.7980 O   0  0  0  0  0  1  0  0  0  0  0  0
  190.3790  176.4710  147.2540 O   0  0  0  0  0  1  0  0  0  0  0  0
  189.3720  177.3670  146.8980 C   0  0  0  0  0  2  0  0  0  0  0  0
  183.9180  177.6320  136.2190 C   0  0  0  0  0  2  0  0  0  0  0  0
  182.4910  177.1340  136.0710 C   0  0  0  0  0  2  0  0  0  0  0  0
  181.5190  178.1460  136.6550 C   0  0  2  0  0  3  0  0  0  0  0  0
  180.3360  177.4300  137.2820 C   0  0  0  0  0  1  0  0  0  0  0  0
  181.0570  179.1630  135.6110 C   0  0  0  0  0  2  0  0  0  0  0  0
  179.7420  179.8330  135.9920 C   0  0  0  0  0  2  0  0  0  0  0  0
  179.7930  181.1910  135.6740 O   0  0  0  0  0  0  0  0  0  0  0  0
  180.8540  181.6880  136.4310 C   0  0  0  0  0  2  0  0  0  0  0  0
  180.4280  182.9370  137.1830 C   0  0  0  0  0  2  0  0  0  0  0  0
  180.7950  184.6270  135.3910 O   0  0  0  0  0  0  0  0  0  0  0  0
  181.1260  184.1400  136.6470 C   0  0  0  0  0  0  0  0  0  0  0  0
  182.0010  184.7260  137.3350 O   0  0  0  0  0  1  0  0  0  0  0  0
  2  5  2  0  0  0  0
  4  9  1  0  0  0  0
  5 14  1  0  0  0  0
  6  1  1  1  0  0  0
  6  3  1  0  0  0  0
  6  2  1  0  0  0  0
  7  3  2  0  0  0  0
  8  1  2  0  0  0  0
  8  7  1  0  0  0  0
  9  1  1  0  0  0  0
  9 10  1  0  0  0  0
 10 11  1  0  0  0  0
 11 31  1  6  0  0  0
 11  2  1  0  0  0  0
 12 10  2  0  0  0  0
 13 15  1  0  0  0  0
 14 16  1  6  0  0  0
 14 17  1  0  0  0  0
 14 13  1  0  0  0  0
 15 19  1  1  0  0  0
 17 18  2  0  0  0  0
 18 15  1  0  0  0  0
 19 20  1  0  0  0  0
 20 21  1  0  0  0  0
 21 22  1  0  0  0  0
 23 24  1  0  0  0  0
 23 22  1  0  0  0  0
 25 26  1  1  0  0  0
 25 27  1  0  0  0  0
 25 24  1  0  0  0  0
 27 28  1  6  0  0  0
 27 30  1  0  0  0  0
 30 29  1  0  0  0  0
 32 31  1  0  0  0  0
 32 33  1  0  0  0  0
 33 34  1  6  0  0  0
 35 36  1  0  0  0  0
 35 33  1  0  0  0  0
 37 36  1  0  0  0  0
 37 38  1  0  0  0  0
 38 39  1  0  0  0  0
 40 41  2  0  0  0  0
 41 39  1  0  0  0  0
 41 42  1  0  0  0  0
M  END
>  <MODEL>
8

>  <REMARK>
 VINA RESULT:      -6.4      3.226      6.023
  Name = 
  19 active torsions:
  status: ('A' for Active; 'I' for Inactive)
    1  A    between atoms: C_2  and  N_13
    2  A    between atoms: C_3  and  C_16
    3  A    between atoms: C_3  and  C_22
    4  A    between atoms: C_4  and  O_34
    5  A    between atoms: C_6  and  C_25
    6  A    between atoms: C_6  and  C_31
    7  A    between atoms: C_8  and  C_24
    8  A    between atoms: C_8  and  O_38
    9  A    between atoms: C_15  and  C_25
   10  A    between atoms: C_15  and  C_33
   11  A    between atoms: C_16  and  C_40
   12  A    between atoms: C_17  and  C_21
   13  A    between atoms: C_17  and  O_34
   14  A    between atoms: C_19  and  C_24
   15  A    between atoms: C_21  and  N_29
   16  A    between atoms: C_22  and  C_23
   17  A    between atoms: C_23  and  O_38
   18  A    between atoms: N_29  and  C_33
   19  A    between atoms: C_36  and  C_40
                            x       y       z     vdW  Elec       q    Type
                         _______ _______ _______ _____ _____    ______ ____

>  <TORSDO>
F 19

$$$$
=
 OpenBabel10222418513D

 42 44  0  0  1  0  0  0  0  0999 V2000
  186.0340  178.2260  142.9830 C   0  0  0  0  0  0  0  0  0  0  0  0
  187.1440  178.2050  140.7810 C   0  0  0  0  0  0  0  0  0  0  0  0
  185.0070  179.3850  141.4160 N   0  0  0  0  0  0  0  0  0  0  0  0
  186.8260  176.8300  144.9060 C   0  0  0  0  0  1  0  0  0  0  0  0
  186.9950  178.3780  139.4970 N   0  0  0  0  0  0  0  0  0  0  0  0
  186.0800  178.6280  141.6930 C   0  0  0  0  0  0  0  0  0  0  0  0
  184.3350  179.4180  142.5950 C   0  0  0  0  0  3  0  0  0  0  0  0
  184.9340  178.7040  143.5830 N   0  0  0  0  0  2  0  0  0  0  0  0
  186.9880  177.3240  143.5480 N   0  0  0  0  0  0  0  0  0  0  0  0
  188.0680  176.8650  142.7090 C   0  0  0  0  0  0  0  0  0  0  0  0
  188.3790  177.5630  141.3930 C   0  0  2  0  0  3  0  0  0  0  0  0
  188.7920  175.9010  143.0760 O   0  0  0  0  0  0  0  0  0  0  0  0
  187.1780  177.9110  137.1150 C   0  0  0  0  0  2  0  0  0  0  0  0
  187.9290  177.9940  138.4350 C   0  0  1  0  0  0  0  0  0  0  0  0
  187.5330  176.5580  136.5070 C   0  0  1  0  0  3  0  0  0  0  0  0
  189.0560  179.0030  138.2980 C   0  0  0  0  0  1  0  0  0  0  0  0
  188.4670  176.6170  138.6410 C   0  0  0  0  0  3  0  0  0  0  0  0
  188.2510  175.8380  137.5930 C   0  0  0  0  0  3  0  0  0  0  0  0
  186.3650  175.8680  136.1770 O   0  0  0  0  0  0  0  0  0  0  0  0
  186.6860  174.5220  136.3440 C   0  0  0  0  0  2  0  0  0  0  0  0
  185.4140  173.7040  136.4530 C   0  0  0  0  0  2  0  0  0  0  0  0
  184.6470  174.1590  137.5990 N   0  0  0  0  0  2  0  0  0  0  0  0
  183.3760  174.6690  137.1060 C   0  0  0  0  0  2  0  0  0  0  0  0
  183.0320  176.0130  137.7510 C   0  0  0  0  0  2  0  0  0  0  0  0
  182.1790  175.8840  139.0170 C   0  0  2  0  0  3  0  0  0  0  0  0
  181.2190  174.8830  138.8580 O   0  0  0  0  0  1  0  0  0  0  0  0
  181.5250  177.2060  139.4110 C   0  0  2  0  0  3  0  0  0  0  0  0
  182.0810  177.6750  140.6030 O   0  0  0  0  0  1  0  0  0  0  0  0
  179.6690  177.3180  140.9110 O   0  0  0  0  0  1  0  0  0  0  0  0
  180.0270  177.0240  139.5950 C   0  0  0  0  0  2  0  0  0  0  0  0
  189.4280  178.6360  141.6370 C   0  0  0  0  0  2  0  0  0  0  0  0
  190.0420  178.4710  143.0170 C   0  0  0  0  0  2  0  0  0  0  0  0
  191.4950  178.0400  142.8960 C   0  0  2  0  0  3  0  0  0  0  0  0
  191.7650  177.5020  141.5030 C   0  0  0  0  0  1  0  0  0  0  0  0
  191.8790  177.0180  143.9670 C   0  0  0  0  0  2  0  0  0  0  0  0
  191.3050  177.3650  145.3350 C   0  0  0  0  0  2  0  0  0  0  0  0
  192.0200  176.6980  146.3310 O   0  0  0  0  0  0  0  0  0  0  0  0
  191.0920  176.4980  147.3540 C   0  0  0  0  0  2  0  0  0  0  0  0
  189.7270  177.0190  146.9380 C   0  0  0  0  0  2  0  0  0  0  0  0
  187.8120  177.1310  148.5260 O   0  0  0  0  0  0  0  0  0  0  0  0
  189.0260  177.6440  148.0960 C   0  0  0  0  0  0  0  0  0  0  0  0
  189.5400  178.6230  148.6960 O   0  0  0  0  0  1  0  0  0  0  0  0
  1  9  1  0  0  0  0
  1  8  1  0  0  0  0
  2 11  1  0  0  0  0
  2  6  1  0  0  0  0
  3  6  1  0  0  0  0
  3  7  2  0  0  0  0
  5  2  2  0  0  0  0
  6  1  2  0  0  0  0
  7  8  1  0  0  0  0
  9  4  1  0  0  0  0
 10 12  2  0  0  0  0
 10  9  1  0  0  0  0
 11 31  1  1  0  0  0
 11 10  1  0  0  0  0
 13 14  1  0  0  0  0
 14 16  1  6  0  0  0
 14 17  1  0  0  0  0
 14  5  1  0  0  0  0
 15 19  1  1  0  0  0
 15 13  1  0  0  0  0
 15 18  1  0  0  0  0
 18 17  2  0  0  0  0
 19 20  1  0  0  0  0
 20 21  1  0  0  0  0
 21 22  1  0  0  0  0
 23 22  1  0  0  0  0
 23 24  1  0  0  0  0
 24 25  1  0  0  0  0
 25 26  1  6  0  0  0
 25 27  1  0  0  0  0
 27 30  1  0  0  0  0
 27 28  1  1  0  0  0
 30 29  1  0  0  0  0
 31 32  1  0  0  0  0
 33 34  1  6  0  0  0
 33 32  1  0  0  0  0
 33 35  1  0  0  0  0
 35 36  1  0  0  0  0
 36 37  1  0  0  0  0
 37 38  1  0  0  0  0
 39 38  1  0  0  0  0
 39 41  1  0  0  0  0
 41 40  2  0  0  0  0
 41 42  1  0  0  0  0
M  END
>  <MODEL>
9

>  <REMARK>
 VINA RESULT:      -6.3      2.537      8.660
  Name = 
  19 active torsions:
  status: ('A' for Active; 'I' for Inactive)
    1  A    between atoms: C_2  and  N_13
    2  A    between atoms: C_3  and  C_16
    3  A    between atoms: C_3  and  C_22
    4  A    between atoms: C_4  and  O_34
    5  A    between atoms: C_6  and  C_25
    6  A    between atoms: C_6  and  C_31
    7  A    between atoms: C_8  and  C_24
    8  A    between atoms: C_8  and  O_38
    9  A    between atoms: C_15  and  C_25
   10  A    between atoms: C_15  and  C_33
   11  A    between atoms: C_16  and  C_40
   12  A    between atoms: C_17  and  C_21
   13  A    between atoms: C_17  and  O_34
   14  A    between atoms: C_19  and  C_24
   15  A    between atoms: C_21  and  N_29
   16  A    between atoms: C_22  and  C_23
   17  A    between atoms: C_23  and  O_38
   18  A    between atoms: N_29  and  C_33
   19  A    between atoms: C_36  and  C_40
                            x       y       z     vdW  Elec       q    Type
                         _______ _______ _______ _____ _____    ______ ____

>  <TORSDO>
F 19

$$$$
