=
 OpenBabel10222421103D

 29 33  0  0  1  0  0  0  0  0999 V2000
  187.1670  177.9950  142.3040 S   0  0  0  0  0  0  0  0  0  0  0  0
  188.6730  177.6750  142.9920 C   0  0  0  0  0  0  0  0  0  0  0  0
  190.8910  177.0430  144.7130 C   0  0  1  0  0  0  0  0  0  0  0  0
  186.2860  177.7370  143.7130 C   0  0  0  0  0  0  0  0  0  0  0  0
  191.5080  178.3580  144.3000 C   0  0  0  0  0  2  0  0  0  0  0  0
  190.0280  177.8350  142.3440 C   0  0  1  0  0  3  0  0  0  0  0  0
  187.1510  177.4240  144.7590 C   0  0  0  0  0  3  0  0  0  0  0  0
  189.5500  177.1500  145.1890 O   0  0  0  0  0  0  0  0  0  0  0  0
  188.4840  177.4060  144.3350 C   0  0  0  0  0  0  0  0  0  0  0  0
  191.1860  177.3070  143.2340 C   0  0  2  0  0  3  0  0  0  0  0  0
  190.0460  177.2140  141.0090 N   0  0  1  0  0  0  0  0  0  0  0  0
  189.1730  177.9480  140.1840 N   0  0  0  0  0  2  0  0  0  0  0  0
  189.7040  177.8400  138.8400 C   0  0  0  0  0  2  0  0  0  0  0  0
  191.1440  177.4710  139.0190 C   0  0  1  0  0  3  0  0  0  0  0  0
  191.3350  177.3440  140.4510 N   0  0  0  0  0  2  0  0  0  0  0  0
  191.4580  176.1770  138.3290 C   0  0  0  0  0  0  0  0  0  0  0  0
  191.3140  174.2310  137.2620 C   0  0  0  0  0  3  0  0  0  0  0  0
  193.6070  176.5240  137.2940 N   0  0  0  0  0  1  0  0  0  0  0  0
  190.5630  175.3480  137.8150 C   0  0  0  0  0  3  0  0  0  0  0  0
  192.8330  175.6350  138.1440 C   0  0  2  0  0  3  0  0  0  0  0  0
  192.5840  174.3860  137.4410 N   0  0  0  0  0  0  0  0  0  0  0  0
  184.8900  177.8390  143.7880 O   0  0  0  0  0  0  0  0  0  0  0  0
  182.6990  178.7980  144.1930 C   0  0  0  0  0  1  0  0  0  0  0  0
  184.7190  180.2020  144.1140 C   0  0  0  0  0  1  0  0  0  0  0  0
  184.3890  178.6720  146.0120 C   0  0  0  0  0  1  0  0  0  0  0  0
  184.1820  178.8440  144.5170 C   0  0  0  0  0  0  0  0  0  0  0  0
  191.8420  176.1400  145.4740 C   0  0  0  0  0  2  0  0  0  0  0  0
  191.6910  176.3530  146.9420 C   0  0  0  0  0  3  0  0  0  0  0  0
  192.5760  175.8980  147.7480 N   0  0  0  0  0  2  0  0  0  0  0  0
  1  2  1  0  0  0  0
  1  4  1  0  0  0  0
  2  9  2  0  0  0  0
  3  8  1  0  0  0  0
  3 27  1  1  0  0  0
  4 22  1  0  0  0  0
  4  7  2  0  0  0  0
  5  3  1  0  0  0  0
  6  2  1  1  0  0  0
  6 10  1  0  0  0  0
  9  7  1  0  0  0  0
  9  8  1  0  0  0  0
 10  5  1  1  0  0  0
 10  3  1  0  0  0  0
 11 12  1  6  0  0  0
 11  6  1  0  0  0  0
 13 14  1  0  0  0  0
 13 12  1  0  0  0  0
 14 16  1  6  0  0  0
 14 15  1  0  0  0  0
 15 11  1  0  0  0  0
 17 21  2  0  0  0  0
 17 19  1  0  0  0  0
 19 16  2  0  0  0  0
 20 18  1  6  0  0  0
 20 16  1  0  0  0  0
 21 20  1  0  0  0  0
 22 26  1  0  0  0  0
 23 26  1  0  0  0  0
 24 26  1  0  0  0  0
 26 25  1  0  0  0  0
 27 28  1  0  0  0  0
 28 29  2  0  0  0  0
M  END
>  <MODEL>
1

>  <REMARK>
 VINA RESULT:      -8.5      0.000      0.000
  Name = 
  6 active torsions:
  status: ('A' for Active; 'I' for Inactive)
    1  A    between atoms: C_1  and  C_25
    2  A    between atoms: C_6  and  C_23
    3  A    between atoms: C_7  and  O_10
    4  A    between atoms: O_10  and  C_27
    5  A    between atoms: C_11  and  N_18
    6  A    between atoms: C_14  and  C_23
                            x       y       z     vdW  Elec       q    Type
                         _______ _______ _______ _____ _____    ______ ____

>  <TORSDO>
F 6

$$$$
=
 OpenBabel10222421103D

 29 33  0  0  1  0  0  0  0  0999 V2000
  186.5860  178.2120  141.9760 S   0  0  0  0  0  0  0  0  0  0  0  0
  188.1690  177.8810  142.4530 C   0  0  0  0  0  0  0  0  0  0  0  0
  190.5910  177.1980  143.8500 C   0  0  1  0  0  0  0  0  0  0  0  0
  185.8910  177.8700  143.4690 C   0  0  0  0  0  0  0  0  0  0  0  0
  191.1390  178.5410  143.4310 C   0  0  0  0  0  2  0  0  0  0  0  0
  189.4300  178.0950  141.6510 C   0  0  1  0  0  3  0  0  0  0  0  0
  186.8830  177.5180  144.3810 C   0  0  0  0  0  3  0  0  0  0  0  0
  189.3190  177.2600  144.4940 O   0  0  0  0  0  0  0  0  0  0  0  0
  188.1530  177.5420  143.7940 C   0  0  0  0  0  0  0  0  0  0  0  0
  190.6960  177.5400  142.3600 C   0  0  2  0  0  3  0  0  0  0  0  0
  189.2870  177.5410  140.2940 N   0  0  1  0  0  0  0  0  0  0  0  0
  188.9540  178.6040  139.4320 N   0  0  0  0  0  2  0  0  0  0  0  0
  189.5030  178.2580  138.1370 C   0  0  0  0  0  2  0  0  0  0  0  0
  190.5710  177.2470  138.4230 C   0  0  1  0  0  3  0  0  0  0  0  0
  190.5330  177.0430  139.8580 N   0  0  0  0  0  2  0  0  0  0  0  0
  190.3020  175.9610  137.7000 C   0  0  0  0  0  0  0  0  0  0  0  0
  190.4350  173.8950  136.8900 C   0  0  0  0  0  3  0  0  0  0  0  0
  187.9000  175.7940  137.5870 N   0  0  0  0  0  1  0  0  0  0  0  0
  191.0750  174.8860  137.7410 C   0  0  0  0  0  3  0  0  0  0  0  0
  189.1290  175.7240  136.8140 C   0  0  2  0  0  3  0  0  0  0  0  0
  189.3450  174.3560  136.3700 N   0  0  0  0  0  0  0  0  0  0  0  0
  184.5140  177.9460  143.7220 O   0  0  0  0  0  0  0  0  0  0  0  0
  182.3890  178.9530  144.3180 C   0  0  0  0  0  1  0  0  0  0  0  0
  184.4500  180.2910  144.1910 C   0  0  0  0  0  1  0  0  0  0  0  0
  184.1810  178.6640  146.0170 C   0  0  0  0  0  1  0  0  0  0  0  0
  183.8890  178.9300  144.5500 C   0  0  0  0  0  0  0  0  0  0  0  0
  191.6380  176.2730  144.4380 C   0  0  0  0  0  2  0  0  0  0  0  0
  191.7530  176.4930  145.9080 C   0  0  0  0  0  3  0  0  0  0  0  0
  192.2010  175.5600  146.6620 N   0  0  0  0  0  2  0  0  0  0  0  0
  1  2  1  0  0  0  0
  1  4  1  0  0  0  0
  2  9  2  0  0  0  0
  3 27  1  1  0  0  0
  3  8  1  0  0  0  0
  4 22  1  0  0  0  0
  4  7  2  0  0  0  0
  5  3  1  0  0  0  0
  6 10  1  0  0  0  0
  6  2  1  1  0  0  0
  9  7  1  0  0  0  0
  9  8  1  0  0  0  0
 10  5  1  1  0  0  0
 10  3  1  0  0  0  0
 11 12  1  6  0  0  0
 11  6  1  0  0  0  0
 13 14  1  0  0  0  0
 13 12  1  0  0  0  0
 14 16  1  6  0  0  0
 14 15  1  0  0  0  0
 15 11  1  0  0  0  0
 16 19  2  0  0  0  0
 17 19  1  0  0  0  0
 20 18  1  1  0  0  0
 20 16  1  0  0  0  0
 21 20  1  0  0  0  0
 21 17  2  0  0  0  0
 22 26  1  0  0  0  0
 23 26  1  0  0  0  0
 24 26  1  0  0  0  0
 26 25  1  0  0  0  0
 27 28  1  0  0  0  0
 28 29  2  0  0  0  0
M  END
>  <MODEL>
2

>  <REMARK>
 VINA RESULT:      -7.8      1.281      1.649
  Name = 
  6 active torsions:
  status: ('A' for Active; 'I' for Inactive)
    1  A    between atoms: C_1  and  C_25
    2  A    between atoms: C_6  and  C_23
    3  A    between atoms: C_7  and  O_10
    4  A    between atoms: O_10  and  C_27
    5  A    between atoms: C_11  and  N_18
    6  A    between atoms: C_14  and  C_23
                            x       y       z     vdW  Elec       q    Type
                         _______ _______ _______ _____ _____    ______ ____

>  <TORSDO>
F 6

$$$$
=
 OpenBabel10222421103D

 29 33  0  0  1  0  0  0  0  0999 V2000
  188.2510  177.8040  141.9410 S   0  0  0  0  0  0  0  0  0  0  0  0
  188.4420  177.8470  140.2660 C   0  0  0  0  0  0  0  0  0  0  0  0
  189.3420  177.6300  137.5410 C   0  0  1  0  0  0  0  0  0  0  0  0
  189.7120  177.0320  142.2520 C   0  0  0  0  0  0  0  0  0  0  0  0
  189.1530  179.1240  137.4240 C   0  0  0  0  0  2  0  0  0  0  0  0
  187.5500  178.5360  139.2600 C   0  0  1  0  0  3  0  0  0  0  0  0
  190.3950  176.8160  141.0570 C   0  0  0  0  0  3  0  0  0  0  0  0
  190.1410  177.2270  138.6530 O   0  0  0  0  0  0  0  0  0  0  0  0
  189.6700  177.2920  139.9580 C   0  0  0  0  0  0  0  0  0  0  0  0
  187.9590  178.2390  137.7910 C   0  0  2  0  0  3  0  0  0  0  0  0
  186.1350  178.2060  139.5040 N   0  0  1  0  0  0  0  0  0  0  0  0
  185.5150  179.3520  140.0380 N   0  0  0  0  0  2  0  0  0  0  0  0
  184.1320  179.2960  139.6110 C   0  0  0  0  0  2  0  0  0  0  0  0
  184.1280  178.3860  138.4210 C   0  0  1  0  0  3  0  0  0  0  0  0
  185.4990  177.9390  138.2730 N   0  0  0  0  0  2  0  0  0  0  0  0
  183.2140  177.2170  138.6410 C   0  0  0  0  0  0  0  0  0  0  0  0
  181.6970  175.8120  139.4590 C   0  0  0  0  0  3  0  0  0  0  0  0
  182.7170  176.3860  136.4340 N   0  0  0  0  0  1  0  0  0  0  0  0
  182.3550  177.0970  139.6420 C   0  0  0  0  0  3  0  0  0  0  0  0
  183.1630  176.0140  137.7660 C   0  0  2  0  0  3  0  0  0  0  0  0
  182.1430  175.2020  138.4110 N   0  0  0  0  0  0  0  0  0  0  0  0
  190.1480  176.6800  143.5360 O   0  0  0  0  0  0  0  0  0  0  0  0
  191.0980  178.8750  143.9460 C   0  0  0  0  0  1  0  0  0  0  0  0
  191.5800  176.9720  145.4300 C   0  0  0  0  0  1  0  0  0  0  0  0
  189.3260  177.9580  145.4290 C   0  0  0  0  0  1  0  0  0  0  0  0
  190.5200  177.6100  144.5560 C   0  0  0  0  0  0  0  0  0  0  0  0
  189.5820  176.9440  136.2100 C   0  0  0  0  0  2  0  0  0  0  0  0
  189.9070  175.5050  136.4240 C   0  0  0  0  0  3  0  0  0  0  0  0
  188.9780  174.6790  136.7330 N   0  0  0  0  0  2  0  0  0  0  0  0
  1  4  1  0  0  0  0
  2  1  1  0  0  0  0
  3 27  1  6  0  0  0
  3 10  1  0  0  0  0
  3  8  1  0  0  0  0
  4 22  1  0  0  0  0
  5  3  1  0  0  0  0
  6 11  1  0  0  0  0
  6  2  1  1  0  0  0
  7  4  2  0  0  0  0
  8  9  1  0  0  0  0
  9  2  2  0  0  0  0
  9  7  1  0  0  0  0
 10  5  1  6  0  0  0
 10  6  1  0  0  0  0
 11 15  1  6  0  0  0
 11 12  1  0  0  0  0
 13 12  1  0  0  0  0
 14 16  1  1  0  0  0
 14 13  1  0  0  0  0
 15 14  1  0  0  0  0
 16 19  2  0  0  0  0
 17 19  1  0  0  0  0
 20 18  1  6  0  0  0
 20 21  1  0  0  0  0
 20 16  1  0  0  0  0
 21 17  2  0  0  0  0
 22 26  1  0  0  0  0
 23 26  1  0  0  0  0
 26 25  1  0  0  0  0
 26 24  1  0  0  0  0
 27 28  1  0  0  0  0
 28 29  2  0  0  0  0
M  END
>  <MODEL>
3

>  <REMARK>
 VINA RESULT:      -7.4      3.933      7.352
  Name = 
  6 active torsions:
  status: ('A' for Active; 'I' for Inactive)
    1  A    between atoms: C_1  and  C_25
    2  A    between atoms: C_6  and  C_23
    3  A    between atoms: C_7  and  O_10
    4  A    between atoms: O_10  and  C_27
    5  A    between atoms: C_11  and  N_18
    6  A    between atoms: C_14  and  C_23
                            x       y       z     vdW  Elec       q    Type
                         _______ _______ _______ _____ _____    ______ ____

>  <TORSDO>
F 6

$$$$
=
 OpenBabel10222421103D

 29 33  0  0  1  0  0  0  0  0999 V2000
  185.5990  178.8250  140.7110 S   0  0  0  0  0  0  0  0  0  0  0  0
  186.9090  178.3880  141.6790 C   0  0  0  0  0  0  0  0  0  0  0  0
  188.6900  177.6090  143.8020 C   0  0  1  0  0  0  0  0  0  0  0  0
  184.4470  178.6980  141.9300 C   0  0  0  0  0  0  0  0  0  0  0  0
  189.4990  178.8460  143.4940 C   0  0  0  0  0  2  0  0  0  0  0  0
  188.3710  178.3990  141.3000 C   0  0  1  0  0  3  0  0  0  0  0  0
  185.0640  178.3400  143.1270 C   0  0  0  0  0  3  0  0  0  0  0  0
  187.3000  177.8580  144.0120 O   0  0  0  0  0  0  0  0  0  0  0  0
  186.4450  178.1830  142.9660 C   0  0  0  0  0  0  0  0  0  0  0  0
  189.2830  177.7940  142.4020 C   0  0  2  0  0  3  0  0  0  0  0  0
  188.5800  177.7340  140.0030 N   0  0  1  0  0  0  0  0  0  0  0  0
  188.5710  178.7290  139.0060 N   0  0  0  0  0  2  0  0  0  0  0  0
  189.4380  178.2480  137.9500 C   0  0  0  0  0  2  0  0  0  0  0  0
  190.3160  177.2250  138.6030 C   0  0  1  0  0  3  0  0  0  0  0  0
  189.8630  177.1490  139.9790 N   0  0  0  0  0  2  0  0  0  0  0  0
  190.1810  175.8910  137.9300 C   0  0  0  0  0  0  0  0  0  0  0  0
  189.4220  174.1300  136.8040 C   0  0  0  0  0  3  0  0  0  0  0  0
  192.4110  175.3190  137.2170 N   0  0  0  0  0  1  0  0  0  0  0  0
  189.1100  175.4720  137.2740 C   0  0  0  0  0  3  0  0  0  0  0  0
  191.2360  174.8400  137.9260 C   0  0  2  0  0  3  0  0  0  0  0  0
  190.6100  173.7720  137.1640 N   0  0  0  0  0  0  0  0  0  0  0  0
  183.0790  178.9320  141.7350 O   0  0  0  0  0  0  0  0  0  0  0  0
  180.8750  178.1180  141.1290 C   0  0  0  0  0  1  0  0  0  0  0  0
  182.9170  177.0610  140.2540 C   0  0  0  0  0  1  0  0  0  0  0  0
  182.2930  179.3070  139.4690 C   0  0  0  0  0  1  0  0  0  0  0  0
  182.2990  178.3790  140.6720 C   0  0  0  0  0  0  0  0  0  0  0  0
  189.3870  176.6480  144.7450 C   0  0  0  0  0  2  0  0  0  0  0  0
  189.1780  177.0700  146.1590 C   0  0  0  0  0  3  0  0  0  0  0  0
  190.1550  177.0390  146.9860 N   0  0  0  0  0  2  0  0  0  0  0  0
  1  2  1  0  0  0  0
  1  4  1  0  0  0  0
  2  9  2  0  0  0  0
  3  8  1  0  0  0  0
  3 27  1  1  0  0  0
  4  7  2  0  0  0  0
  5  3  1  0  0  0  0
  6  2  1  1  0  0  0
  6 10  1  0  0  0  0
  9  7  1  0  0  0  0
  9  8  1  0  0  0  0
 10  5  1  1  0  0  0
 10  3  1  0  0  0  0
 11 12  1  6  0  0  0
 11  6  1  0  0  0  0
 13 14  1  0  0  0  0
 13 12  1  0  0  0  0
 14 16  1  6  0  0  0
 14 15  1  0  0  0  0
 15 11  1  0  0  0  0
 17 21  2  0  0  0  0
 17 19  1  0  0  0  0
 19 16  2  0  0  0  0
 20 18  1  6  0  0  0
 20 16  1  0  0  0  0
 21 20  1  0  0  0  0
 22  4  1  0  0  0  0
 24 26  1  0  0  0  0
 25 26  1  0  0  0  0
 26 23  1  0  0  0  0
 26 22  1  0  0  0  0
 27 28  1  0  0  0  0
 28 29  2  0  0  0  0
M  END
>  <MODEL>
4

>  <REMARK>
 VINA RESULT:      -7.2      2.201      2.794
  Name = 
  6 active torsions:
  status: ('A' for Active; 'I' for Inactive)
    1  A    between atoms: C_1  and  C_25
    2  A    between atoms: C_6  and  C_23
    3  A    between atoms: C_7  and  O_10
    4  A    between atoms: O_10  and  C_27
    5  A    between atoms: C_11  and  N_18
    6  A    between atoms: C_14  and  C_23
                            x       y       z     vdW  Elec       q    Type
                         _______ _______ _______ _____ _____    ______ ____

>  <TORSDO>
F 6

$$$$
=
 OpenBabel10222421103D

 29 33  0  0  1  0  0  0  0  0999 V2000
  189.8710  178.5680  143.7950 S   0  0  0  0  0  0  0  0  0  0  0  0
  189.5610  178.1180  142.2000 C   0  0  0  0  0  0  0  0  0  0  0  0
  189.5260  176.9290  139.5780 C   0  0  1  0  0  0  0  0  0  0  0  0
  191.1080  177.4550  144.0410 C   0  0  0  0  0  0  0  0  0  0  0  0
  189.7030  178.3180  139.0130 C   0  0  0  0  0  2  0  0  0  0  0  0
  188.6210  178.7870  141.2260 C   0  0  1  0  0  3  0  0  0  0  0  0
  191.3270  176.7270  142.8730 C   0  0  0  0  0  3  0  0  0  0  0  0
  190.4860  176.5760  140.5740 O   0  0  0  0  0  0  0  0  0  0  0  0
  190.4570  177.1230  141.8510 C   0  0  0  0  0  0  0  0  0  0  0  0
  188.4850  178.0090  139.8880 C   0  0  2  0  0  3  0  0  0  0  0  0
  187.3070  179.0250  141.8470 N   0  0  1  0  0  0  0  0  0  0  0  0
  186.3580  179.1320  140.8120 N   0  0  0  0  0  2  0  0  0  0  0  0
  185.1070  178.6510  141.3620 C   0  0  0  0  0  2  0  0  0  0  0  0
  185.4970  177.8070  142.5370 C   0  0  1  0  0  3  0  0  0  0  0  0
  186.9430  177.8980  142.6150 N   0  0  0  0  0  2  0  0  0  0  0  0
  184.8690  178.3180  143.7990 C   0  0  0  0  0  0  0  0  0  0  0  0
  183.4350  179.0810  145.3180 C   0  0  0  0  0  3  0  0  0  0  0  0
  186.1530  177.3310  145.5840 N   0  0  0  0  0  1  0  0  0  0  0  0
  183.5880  178.6210  143.9460 C   0  0  0  0  0  3  0  0  0  0  0  0
  185.6120  178.5750  145.0640 C   0  0  2  0  0  3  0  0  0  0  0  0
  184.5630  179.0560  145.9500 N   0  0  0  0  0  0  0  0  0  0  0  0
  191.7990  177.3150  145.2520 O   0  0  0  0  0  0  0  0  0  0  0  0
  191.7980  177.1690  147.6740 C   0  0  0  0  0  1  0  0  0  0  0  0
  191.9390  175.1540  146.2680 C   0  0  0  0  0  1  0  0  0  0  0  0
  189.8300  176.4180  146.3530 C   0  0  0  0  0  1  0  0  0  0  0  0
  191.3440  176.5430  146.3670 C   0  0  0  0  0  0  0  0  0  0  0  0
  189.1760  175.8890  138.5330 C   0  0  0  0  0  2  0  0  0  0  0  0
  190.4130  175.3940  137.8630 C   0  0  0  0  0  3  0  0  0  0  0  0
  190.5070  174.1630  137.5220 N   0  0  0  0  0  2  0  0  0  0  0  0
  1  4  1  0  0  0  0
  2  1  1  0  0  0  0
  3 27  1  6  0  0  0
  3 10  1  0  0  0  0
  3  8  1  0  0  0  0
  4 22  1  0  0  0  0
  5  3  1  0  0  0  0
  6 11  1  0  0  0  0
  6  2  1  1  0  0  0
  7  4  2  0  0  0  0
  8  9  1  0  0  0  0
  9  2  2  0  0  0  0
  9  7  1  0  0  0  0
 10  5  1  6  0  0  0
 10  6  1  0  0  0  0
 11 12  1  6  0  0  0
 11 15  1  0  0  0  0
 12 13  1  0  0  0  0
 13 14  1  0  0  0  0
 14 15  1  0  0  0  0
 14 16  1  1  0  0  0
 16 19  2  0  0  0  0
 16 20  1  0  0  0  0
 17 21  2  0  0  0  0
 19 17  1  0  0  0  0
 20 18  1  1  0  0  0
 20 21  1  0  0  0  0
 22 26  1  0  0  0  0
 24 26  1  0  0  0  0
 25 26  1  0  0  0  0
 26 23  1  0  0  0  0
 28 27  1  0  0  0  0
 29 28  2  0  0  0  0
M  END
>  <MODEL>
5

>  <REMARK>
 VINA RESULT:      -7.2      2.641      7.391
  Name = 
  6 active torsions:
  status: ('A' for Active; 'I' for Inactive)
    1  A    between atoms: C_1  and  C_25
    2  A    between atoms: C_6  and  C_23
    3  A    between atoms: C_7  and  O_10
    4  A    between atoms: O_10  and  C_27
    5  A    between atoms: C_11  and  N_18
    6  A    between atoms: C_14  and  C_23
                            x       y       z     vdW  Elec       q    Type
                         _______ _______ _______ _____ _____    ______ ____

>  <TORSDO>
F 6

$$$$
=
 OpenBabel10222421103D

 29 33  0  0  1  0  0  0  0  0999 V2000
  185.5130  178.8660  140.5500 S   0  0  0  0  0  0  0  0  0  0  0  0
  186.8680  178.3870  141.4330 C   0  0  0  0  0  0  0  0  0  0  0  0
  188.7470  177.5130  143.4300 C   0  0  1  0  0  0  0  0  0  0  0  0
  184.4200  178.6810  141.8150 C   0  0  0  0  0  0  0  0  0  0  0  0
  189.5420  178.7640  143.1420 C   0  0  0  0  0  2  0  0  0  0  0  0
  188.3100  178.4180  140.9860 C   0  0  1  0  0  3  0  0  0  0  0  0
  185.0930  178.2690  142.9630 C   0  0  0  0  0  3  0  0  0  0  0  0
  187.3690  177.7490  143.7170 O   0  0  0  0  0  0  0  0  0  0  0  0
  186.4650  178.1220  142.7300 C   0  0  0  0  0  0  0  0  0  0  0  0
  189.2730  177.7640  142.0140 C   0  0  2  0  0  3  0  0  0  0  0  0
  188.4560  177.8140  139.6500 N   0  0  1  0  0  0  0  0  0  0  0  0
  188.6250  178.8620  138.7240 N   0  0  0  0  0  2  0  0  0  0  0  0
  189.4430  178.3240  137.6560 C   0  0  0  0  0  2  0  0  0  0  0  0
  190.1380  177.1400  138.2540 C   0  0  1  0  0  3  0  0  0  0  0  0
  189.6380  177.0450  139.6120 N   0  0  0  0  0  2  0  0  0  0  0  0
  189.8260  175.8890  137.4890 C   0  0  0  0  0  0  0  0  0  0  0  0
  189.8820  173.8440  136.6180 C   0  0  0  0  0  3  0  0  0  0  0  0
  187.4210  175.8280  137.3410 N   0  0  0  0  0  1  0  0  0  0  0  0
  190.5510  174.7810  137.5070 C   0  0  0  0  0  3  0  0  0  0  0  0
  188.6560  175.7280  136.5820 C   0  0  2  0  0  3  0  0  0  0  0  0
  188.8200  174.3670  136.0980 N   0  0  0  0  0  0  0  0  0  0  0  0
  183.0450  178.9220  141.6970 O   0  0  0  0  0  0  0  0  0  0  0  0
  182.0840  179.3560  139.5110 C   0  0  0  0  0  1  0  0  0  0  0  0
  180.8260  178.1490  141.2480 C   0  0  0  0  0  1  0  0  0  0  0  0
  182.7490  177.0540  140.1750 C   0  0  0  0  0  1  0  0  0  0  0  0
  182.2070  178.3830  140.6710 C   0  0  0  0  0  0  0  0  0  0  0  0
  189.4870  176.5090  144.2930 C   0  0  0  0  0  2  0  0  0  0  0  0
  189.8800  177.1340  145.5880 C   0  0  0  0  0  3  0  0  0  0  0  0
  189.1140  177.0240  146.6090 N   0  0  0  0  0  2  0  0  0  0  0  0
  1  2  1  0  0  0  0
  1  4  1  0  0  0  0
  2  9  2  0  0  0  0
  3  8  1  0  0  0  0
  3 27  1  1  0  0  0
  4  7  2  0  0  0  0
  5  3  1  0  0  0  0
  6  2  1  1  0  0  0
  6 10  1  0  0  0  0
  9  7  1  0  0  0  0
  9  8  1  0  0  0  0
 10  5  1  1  0  0  0
 10  3  1  0  0  0  0
 11 12  1  6  0  0  0
 11  6  1  0  0  0  0
 13 14  1  0  0  0  0
 13 12  1  0  0  0  0
 14 16  1  6  0  0  0
 14 15  1  0  0  0  0
 15 11  1  0  0  0  0
 16 19  2  0  0  0  0
 17 19  1  0  0  0  0
 20 18  1  1  0  0  0
 20 16  1  0  0  0  0
 21 20  1  0  0  0  0
 21 17  2  0  0  0  0
 22  4  1  0  0  0  0
 23 26  1  0  0  0  0
 25 26  1  0  0  0  0
 26 24  1  0  0  0  0
 26 22  1  0  0  0  0
 27 28  1  0  0  0  0
 28 29  2  0  0  0  0
M  END
>  <MODEL>
6

>  <REMARK>
 VINA RESULT:      -7.0      2.493      3.252
  Name = 
  6 active torsions:
  status: ('A' for Active; 'I' for Inactive)
    1  A    between atoms: C_1  and  C_25
    2  A    between atoms: C_6  and  C_23
    3  A    between atoms: C_7  and  O_10
    4  A    between atoms: O_10  and  C_27
    5  A    between atoms: C_11  and  N_18
    6  A    between atoms: C_14  and  C_23
                            x       y       z     vdW  Elec       q    Type
                         _______ _______ _______ _____ _____    ______ ____

>  <TORSDO>
F 6

$$$$
=
 OpenBabel10222421103D

 29 33  0  0  1  0  0  0  0  0999 V2000
  192.0880  176.3400  138.5320 S   0  0  0  0  0  0  0  0  0  0  0  0
  190.4500  176.3410  138.1310 C   0  0  0  0  0  0  0  0  0  0  0  0
  187.8090  175.7890  137.1290 C   0  0  1  0  0  0  0  0  0  0  0  0
  192.4490  174.9010  137.7410 C   0  0  0  0  0  0  0  0  0  0  0  0
  187.8290  177.1600  136.4960 C   0  0  0  0  0  2  0  0  0  0  0  0
  189.4440  177.4360  138.3940 C   0  0  1  0  0  3  0  0  0  0  0  0
  191.3040  174.4040  137.1210 C   0  0  0  0  0  3  0  0  0  0  0  0
  188.9410  174.9810  136.8090 O   0  0  0  0  0  0  0  0  0  0  0  0
  190.1990  175.2330  137.3430 C   0  0  0  0  0  0  0  0  0  0  0  0
  187.9950  177.0260  138.0130 C   0  0  2  0  0  3  0  0  0  0  0  0
  189.5240  177.8950  139.7910 N   0  0  1  0  0  0  0  0  0  0  0  0
  188.4150  178.7300  140.0310 N   0  0  0  0  0  2  0  0  0  0  0  0
  188.0980  178.5820  141.4370 C   0  0  0  0  0  2  0  0  0  0  0  0
  188.7170  177.2790  141.8410 C   0  0  1  0  0  3  0  0  0  0  0  0
  189.3910  176.7870  140.6550 N   0  0  0  0  0  2  0  0  0  0  0  0
  189.6960  177.4730  142.9610 C   0  0  0  0  0  0  0  0  0  0  0  0
  191.4620  178.0500  144.1830 C   0  0  0  0  0  3  0  0  0  0  0  0
  188.3540  177.5470  144.9620 N   0  0  0  0  0  1  0  0  0  0  0  0
  190.8450  178.1250  142.8670 C   0  0  0  0  0  3  0  0  0  0  0  0
  189.5150  176.9360  144.3380 C   0  0  2  0  0  3  0  0  0  0  0  0
  190.7220  177.3880  145.0110 N   0  0  0  0  0  0  0  0  0  0  0  0
  193.7250  174.3210  137.7230 O   0  0  0  0  0  0  0  0  0  0  0  0
  194.4680  173.2450  135.6800 C   0  0  0  0  0  1  0  0  0  0  0  0
  196.0560  174.3630  137.1900 C   0  0  0  0  0  1  0  0  0  0  0  0
  194.4730  175.7220  135.8870 C   0  0  0  0  0  1  0  0  0  0  0  0
  194.6480  174.4110  136.6350 C   0  0  0  0  0  0  0  0  0  0  0  0
  186.4430  175.1320  137.1110 C   0  0  0  0  0  2  0  0  0  0  0  0
  186.5840  173.6480  137.1360 C   0  0  0  0  0  3  0  0  0  0  0  0
  185.8100  172.9450  137.8760 N   0  0  0  0  0  2  0  0  0  0  0  0
  2  1  1  0  0  0  0
  3 27  1  1  0  0  0
  3 10  1  0  0  0  0
  4  1  1  0  0  0  0
  5  3  1  0  0  0  0
  6  2  1  1  0  0  0
  6 11  1  0  0  0  0
  7  9  1  0  0  0  0
  7  4  2  0  0  0  0
  8  3  1  0  0  0  0
  8  9  1  0  0  0  0
  9  2  2  0  0  0  0
 10  5  1  6  0  0  0
 10  6  1  0  0  0  0
 11 12  1  1  0  0  0
 11 15  1  0  0  0  0
 12 13  1  0  0  0  0
 13 14  1  0  0  0  0
 14 16  1  1  0  0  0
 15 14  1  0  0  0  0
 16 20  1  0  0  0  0
 17 21  2  0  0  0  0
 19 16  2  0  0  0  0
 19 17  1  0  0  0  0
 20 18  1  1  0  0  0
 20 21  1  0  0  0  0
 22  4  1  0  0  0  0
 23 26  1  0  0  0  0
 25 26  1  0  0  0  0
 26 24  1  0  0  0  0
 26 22  1  0  0  0  0
 27 28  1  0  0  0  0
 28 29  2  0  0  0  0
M  END
>  <MODEL>
7

>  <REMARK>
 VINA RESULT:      -6.9      3.788      8.892
  Name = 
  6 active torsions:
  status: ('A' for Active; 'I' for Inactive)
    1  A    between atoms: C_1  and  C_25
    2  A    between atoms: C_6  and  C_23
    3  A    between atoms: C_7  and  O_10
    4  A    between atoms: O_10  and  C_27
    5  A    between atoms: C_11  and  N_18
    6  A    between atoms: C_14  and  C_23
                            x       y       z     vdW  Elec       q    Type
                         _______ _______ _______ _____ _____    ______ ____

>  <TORSDO>
F 6

$$$$
=
 OpenBabel10222421103D

 29 33  0  0  1  0  0  0  0  0999 V2000
  188.2200  178.8160  140.9850 S   0  0  0  0  0  0  0  0  0  0  0  0
  187.5020  178.2020  139.5880 C   0  0  0  0  0  0  0  0  0  0  0  0
  186.7650  176.7170  137.2350 C   0  0  1  0  0  0  0  0  0  0  0  0
  189.4440  177.6650  141.0580 C   0  0  0  0  0  0  0  0  0  0  0  0
  186.8350  178.0160  136.4680 C   0  0  0  0  0  2  0  0  0  0  0  0
  186.3660  178.8100  138.8000 C   0  0  1  0  0  3  0  0  0  0  0  0
  189.3360  176.7930  139.9780 C   0  0  0  0  0  3  0  0  0  0  0  0
  187.9350  176.4250  137.9980 O   0  0  0  0  0  0  0  0  0  0  0  0
  188.2480  177.1190  139.1600 C   0  0  0  0  0  0  0  0  0  0  0  0
  185.8710  177.8890  137.6510 C   0  0  2  0  0  3  0  0  0  0  0  0
  185.2610  179.2000  139.6920 N   0  0  1  0  0  0  0  0  0  0  0  0
  184.3700  179.9960  138.9450 N   0  0  0  0  0  2  0  0  0  0  0  0
  183.0570  179.7710  139.5140 C   0  0  0  0  0  2  0  0  0  0  0  0
  183.1640  178.4650  140.2390 C   0  0  1  0  0  3  0  0  0  0  0  0
  184.5440  178.0480  140.0800 N   0  0  0  0  0  2  0  0  0  0  0  0
  182.8260  178.6260  141.6910 C   0  0  0  0  0  0  0  0  0  0  0  0
  182.9330  178.9010  143.8950 C   0  0  0  0  0  3  0  0  0  0  0  0
  180.6620  179.6870  141.7170 N   0  0  0  0  0  1  0  0  0  0  0  0
  183.7050  178.8100  142.6640 C   0  0  0  0  0  3  0  0  0  0  0  0
  181.4430  178.5800  142.2420 C   0  0  2  0  0  3  0  0  0  0  0  0
  181.6680  178.7760  143.6650 N   0  0  0  0  0  0  0  0  0  0  0  0
  190.4150  177.6260  142.0680 O   0  0  0  0  0  0  0  0  0  0  0  0
  188.9410  176.2360  143.4030 C   0  0  0  0  0  1  0  0  0  0  0  0
  190.1280  178.1560  144.3820 C   0  0  0  0  0  1  0  0  0  0  0  0
  191.4050  176.1580  143.7280 C   0  0  0  0  0  1  0  0  0  0  0  0
  190.2270  177.0430  143.3600 C   0  0  0  0  0  0  0  0  0  0  0  0
  186.1290  175.5850  136.4530 C   0  0  0  0  0  2  0  0  0  0  0  0
  186.4420  174.2760  137.0940 C   0  0  0  0  0  3  0  0  0  0  0  0
  185.4970  173.5550  137.5720 N   0  0  0  0  0  2  0  0  0  0  0  0
  1  4  1  0  0  0  0
  2  1  1  0  0  0  0
  3 27  1  6  0  0  0
  3 10  1  0  0  0  0
  3  8  1  0  0  0  0
  4 22  1  0  0  0  0
  5  3  1  0  0  0  0
  6  2  1  1  0  0  0
  6 11  1  0  0  0  0
  7  4  2  0  0  0  0
  8  9  1  0  0  0  0
  9  2  2  0  0  0  0
  9  7  1  0  0  0  0
 10  5  1  6  0  0  0
 10  6  1  0  0  0  0
 11 12  1  6  0  0  0
 11 15  1  0  0  0  0
 12 13  1  0  0  0  0
 13 14  1  0  0  0  0
 14 16  1  1  0  0  0
 15 14  1  0  0  0  0
 16 20  1  0  0  0  0
 16 19  2  0  0  0  0
 19 17  1  0  0  0  0
 20 18  1  6  0  0  0
 20 21  1  0  0  0  0
 21 17  2  0  0  0  0
 22 26  1  0  0  0  0
 26 23  1  0  0  0  0
 26 25  1  0  0  0  0
 26 24  1  0  0  0  0
 27 28  1  0  0  0  0
 28 29  2  0  0  0  0
M  END
>  <MODEL>
8

>  <REMARK>
 VINA RESULT:      -6.9      4.152      8.433
  Name = 
  6 active torsions:
  status: ('A' for Active; 'I' for Inactive)
    1  A    between atoms: C_1  and  C_25
    2  A    between atoms: C_6  and  C_23
    3  A    between atoms: C_7  and  O_10
    4  A    between atoms: O_10  and  C_27
    5  A    between atoms: C_11  and  N_18
    6  A    between atoms: C_14  and  C_23
                            x       y       z     vdW  Elec       q    Type
                         _______ _______ _______ _____ _____    ______ ____

>  <TORSDO>
F 6

$$$$
=
 OpenBabel10222421103D

 29 33  0  0  1  0  0  0  0  0999 V2000
  193.1530  176.5880  138.1170 S   0  0  0  0  0  0  0  0  0  0  0  0
  191.6090  176.0130  137.7630 C   0  0  0  0  0  0  0  0  0  0  0  0
  189.3000  174.5110  136.9260 C   0  0  1  0  0  0  0  0  0  0  0  0
  193.9680  175.2330  137.5450 C   0  0  0  0  0  0  0  0  0  0  0  0
  188.9020  175.7050  136.0920 C   0  0  0  0  0  2  0  0  0  0  0  0
  190.3030  176.7620  137.8830 C   0  0  1  0  0  3  0  0  0  0  0  0
  193.0530  174.3120  137.0380 C   0  0  0  0  0  3  0  0  0  0  0  0
  190.6360  174.0620  136.7030 O   0  0  0  0  0  0  0  0  0  0  0  0
  191.7380  174.7750  137.1590 C   0  0  0  0  0  0  0  0  0  0  0  0
  189.0660  175.8630  137.6060 C   0  0  2  0  0  3  0  0  0  0  0  0
  190.2010  177.4290  139.1920 N   0  0  1  0  0  0  0  0  0  0  0  0
  188.9650  178.1030  139.2330 N   0  0  0  0  0  2  0  0  0  0  0  0
  188.5620  178.1170  140.6240 C   0  0  0  0  0  2  0  0  0  0  0  0
  189.3320  177.0040  141.2650 C   0  0  1  0  0  3  0  0  0  0  0  0
  190.1650  176.4550  140.2120 N   0  0  0  0  0  2  0  0  0  0  0  0
  190.1790  177.5150  142.3930 C   0  0  0  0  0  0  0  0  0  0  0  0
  191.0190  178.7240  144.0590 C   0  0  0  0  0  3  0  0  0  0  0  0
  191.0990  175.5440  143.4300 N   0  0  0  0  0  1  0  0  0  0  0  0
  189.9450  178.6210  143.0830 C   0  0  0  0  0  3  0  0  0  0  0  0
  191.4190  176.8510  142.8810 C   0  0  2  0  0  3  0  0  0  0  0  0
  191.8450  177.7360  143.9540 N   0  0  0  0  0  0  0  0  0  0  0  0
  195.3610  175.0890  137.5830 O   0  0  0  0  0  0  0  0  0  0  0  0
  196.0590  174.8590  139.8950 C   0  0  0  0  0  1  0  0  0  0  0  0
  197.5100  174.1440  138.0410 C   0  0  0  0  0  1  0  0  0  0  0  0
  195.4720  172.8600  138.5380 C   0  0  0  0  0  1  0  0  0  0  0  0
  196.0720  174.2550  138.5010 C   0  0  0  0  0  0  0  0  0  0  0  0
  188.2110  173.4630  137.0430 C   0  0  0  0  0  2  0  0  0  0  0  0
  188.3960  172.4090  136.0040 C   0  0  0  0  0  3  0  0  0  0  0  0
  187.4170  172.0770  135.2490 N   0  0  0  0  0  2  0  0  0  0  0  0
  2  1  1  0  0  0  0
  3 27  1  1  0  0  0
  3 10  1  0  0  0  0
  4 22  1  0  0  0  0
  4  1  1  0  0  0  0
  5  3  1  0  0  0  0
  6  2  1  1  0  0  0
  6 11  1  0  0  0  0
  7  9  1  0  0  0  0
  7  4  2  0  0  0  0
  8  3  1  0  0  0  0
  8  9  1  0  0  0  0
  9  2  2  0  0  0  0
 10  5  1  6  0  0  0
 10  6  1  0  0  0  0
 11 12  1  6  0  0  0
 11 15  1  0  0  0  0
 12 13  1  0  0  0  0
 13 14  1  0  0  0  0
 14 16  1  1  0  0  0
 15 14  1  0  0  0  0
 16 20  1  0  0  0  0
 16 19  2  0  0  0  0
 19 17  1  0  0  0  0
 20 18  1  1  0  0  0
 20 21  1  0  0  0  0
 21 17  2  0  0  0  0
 22 26  1  0  0  0  0
 24 26  1  0  0  0  0
 26 25  1  0  0  0  0
 26 23  1  0  0  0  0
 28 27  1  0  0  0  0
 29 28  2  0  0  0  0
M  END
>  <MODEL>
9

>  <REMARK>
 VINA RESULT:      -6.7      4.211      9.068
  Name = 
  6 active torsions:
  status: ('A' for Active; 'I' for Inactive)
    1  A    between atoms: C_1  and  C_25
    2  A    between atoms: C_6  and  C_23
    3  A    between atoms: C_7  and  O_10
    4  A    between atoms: O_10  and  C_27
    5  A    between atoms: C_11  and  N_18
    6  A    between atoms: C_14  and  C_23
                            x       y       z     vdW  Elec       q    Type
                         _______ _______ _______ _____ _____    ______ ____

>  <TORSDO>
F 6

$$$$
