=
 OpenBabel10222419243D

 49 54  0  0  1  0  0  0  0  0999 V2000
  190.7410  177.4970  140.2570 C   0  0  2  0  0  3  0  0  0  0  0  0
  191.0260  177.1790  141.7270 C   0  0  0  0  0  2  0  0  0  0  0  0
  187.7100  177.5500  144.4340 C   0  0  1  0  0  3  0  0  0  0  0  0
  189.0670  177.9430  145.0130 C   0  0  0  0  0  2  0  0  0  0  0  0
  190.1060  178.1570  143.9060 C   0  0  0  0  0  2  0  0  0  0  0  0
  189.8050  177.3490  142.6340 C   0  0  2  0  0  3  0  0  0  0  0  0
  187.7830  176.2270  143.6550 C   0  0  0  0  0  2  0  0  0  0  0  0
  189.1270  176.0120  142.9420 C   0  0  0  0  0  2  0  0  0  0  0  0
  186.6500  177.4950  145.5240 C   0  0  0  0  0  2  0  0  0  0  0  0
  185.6720  178.6340  145.4460 C   0  0  0  0  0  0  0  0  0  0  0  0
  185.6680  179.5290  146.3370 O   0  0  0  0  0  0  0  0  0  0  0  0
  184.1350  178.3690  142.0640 C   0  0  0  0  0  3  0  0  0  0  0  0
  185.0340  178.3670  143.0850 N   0  0  0  0  0  0  0  0  0  0  0  0
  182.4060  179.0160  143.6040 C   0  0  0  0  0  3  0  0  0  0  0  0
  184.6750  178.6780  144.3620 C   0  0  0  0  0  0  0  0  0  0  0  0
  183.3430  179.0190  144.6380 C   0  0  0  0  0  3  0  0  0  0  0  0
  182.7920  178.6930  142.2960 C   0  0  0  0  0  0  0  0  0  0  0  0
  181.8290  178.6790  141.2260 N   0  0  0  0  0  0  0  0  0  0  0  0
  179.9080  178.9240  139.2710 O   0  0  0  0  0  0  0  0  0  0  0  0
  180.4350  178.2900  141.5180 C   0  0  0  0  0  2  0  0  0  0  0  0
  179.6930  177.9290  140.2310 C   0  0  0  0  0  2  0  0  0  0  0  0
  181.2170  178.7080  138.8120 C   0  0  0  0  0  2  0  0  0  0  0  0
  182.2260  179.1440  139.8830 C   0  0  0  0  0  2  0  0  0  0  0  0
  189.3050  177.6730  140.0240 N   0  0  0  0  0  2  0  0  0  0  0  0
  189.1360  178.7320  139.0340 C   0  0  0  0  0  2  0  0  0  0  0  0
  186.9490  177.8570  138.1540 C   0  0  0  0  0  3  0  0  0  0  0  0
  187.9520  177.8850  135.5820 N   0  0  0  0  0  0  0  0  0  0  0  0
  188.7560  178.2690  136.6090 C   0  0  0  0  0  3  0  0  0  0  0  0
  188.2690  178.2600  137.9190 C   0  0  0  0  0  0  0  0  0  0  0  0
  186.1410  177.4640  137.0850 C   0  0  0  0  0  3  0  0  0  0  0  0
  186.6680  177.4890  135.7900 C   0  0  0  0  0  0  0  0  0  0  0  0
  185.8550  177.0990  134.6880 N   0  0  0  0  0  1  0  0  0  0  0  0
  191.2840  176.4610  139.3660 N   0  0  0  0  0  2  0  0  0  0  0  0
  192.4690  176.9270  138.7620 N   0  0  0  0  0  2  0  0  0  0  0  0
  194.0330  176.7320  137.0560 O   0  0  0  0  0  0  0  0  0  0  0  0
  193.0910  176.1930  137.7040 C   0  0  0  0  0  0  0  0  0  0  0  0
  192.0580  174.5270  136.0990 N   0  0  0  0  0  0  0  0  0  0  0  0
  194.1570  173.6540  135.1700 C   0  0  0  0  0  2  0  0  0  0  0  0
  192.6640  174.7610  137.4290 C   0  0  1  0  0  3  0  0  0  0  0  0
  193.8350  173.8450  137.6310 C   0  0  0  0  0  3  0  0  0  0  0  0
  194.5540  173.3880  136.6020 C   0  0  0  0  0  0  0  0  0  0  0  0
  193.0600  174.7200  135.0490 C   0  0  0  0  0  2  0  0  0  0  0  0
  195.7000  172.5610  136.8590 C   0  0  0  0  0  0  0  0  0  0  0  0
  196.6760  171.8790  137.0690 C   0  0  0  0  0  3  0  0  0  0  0  0
  190.9410  175.4420  135.8730 C   0  0  0  0  0  2  0  0  0  0  0  0
  189.6730  174.6400  135.6100 C   0  0  0  0  0  2  0  0  0  0  0  0
  187.4840  174.0230  136.5660 C   0  0  0  0  0  2  0  0  0  0  0  0
  188.9130  174.3990  136.9080 C   0  0  0  0  0  3  0  0  0  0  0  0
  188.4700  172.9490  136.9690 C   0  0  0  0  0  2  0  0  0  0  0  0
  1  2  1  1  0  0  0
  3  4  1  0  0  0  0
  3  9  1  1  0  0  0
  5  4  1  0  0  0  0
  6  2  1  1  0  0  0
  6  8  1  0  0  0  0
  6  5  1  0  0  0  0
  7  3  1  0  0  0  0
  8  7  1  0  0  0  0
 10  9  1  0  0  0  0
 10 11  2  0  0  0  0
 12 17  2  0  0  0  0
 12 13  1  0  0  0  0
 13 15  2  0  0  0  0
 14 16  2  0  0  0  0
 15 16  1  0  0  0  0
 15 10  1  0  0  0  0
 17 14  1  0  0  0  0
 18 20  1  0  0  0  0
 18 17  1  0  0  0  0
 19 21  1  0  0  0  0
 21 20  1  0  0  0  0
 22 19  1  0  0  0  0
 22 23  1  0  0  0  0
 23 18  1  0  0  0  0
 24  1  1  0  0  0  0
 25 24  1  0  0  0  0
 27 31  2  0  0  0  0
 27 28  1  0  0  0  0
 28 29  2  0  0  0  0
 29 26  1  0  0  0  0
 29 25  1  0  0  0  0
 30 26  2  0  0  0  0
 31 30  1  0  0  0  0
 32 31  1  0  0  0  0
 33  1  1  0  0  0  0
 34 33  1  0  0  0  0
 35 36  2  0  0  0  0
 36 34  1  0  0  0  0
 37 39  1  0  0  0  0
 38 41  1  0  0  0  0
 39 40  1  0  0  0  0
 39 36  1  6  0  0  0
 41 43  1  0  0  0  0
 41 40  2  0  0  0  0
 42 38  1  0  0  0  0
 42 37  1  0  0  0  0
 43 44  3  0  0  0  0
 45 37  1  0  0  0  0
 46 45  1  0  0  0  0
 46 48  1  0  0  0  0
 47 48  1  0  0  0  0
 47 49  1  0  0  0  0
 48 49  1  0  0  0  0
M  END
>  <MODEL>
1

>  <REMARK>
 VINA RESULT:      -8.1      0.000      0.000
  Name = 
  16 active torsions:
  status: ('A' for Active; 'I' for Inactive)
    1  A    between atoms: C_1  and  C_46
    2  A    between atoms: N_3  and  C_44
    3  A    between atoms: N_6  and  N_16
    4  A    between atoms: N_6  and  C_18
    5  A    between atoms: N_7  and  C_25
    6  A    between atoms: C_11  and  C_23
    7  A    between atoms: C_11  and  N_28
    8  A    between atoms: C_12  and  C_45
    9  A    between atoms: C_18  and  C_22
   10  A    between atoms: C_18  and  N_28
   11  A    between atoms: C_20  and  C_48
   12  A    between atoms: C_22  and  C_40
   13  A    between atoms: C_24  and  C_37
   14  A    between atoms: C_25  and  C_48
   15  A    between atoms: C_29  and  C_33
   16  A    between atoms: C_33  and  C_46
                            x       y       z     vdW  Elec       q    Type
                         _______ _______ _______ _____ _____    ______ ____

>  <TORSDO>
F 16

$$$$
=
 OpenBabel10222419243D

 49 54  0  0  1  0  0  0  0  0999 V2000
  190.8980  177.2440  140.1300 C   0  0  2  0  0  3  0  0  0  0  0  0
  191.8160  177.1760  141.3530 C   0  0  0  0  0  2  0  0  0  0  0  0
  189.9340  177.7990  145.1640 C   0  0  1  0  0  3  0  0  0  0  0  0
  190.7580  178.9760  144.6470 C   0  0  0  0  0  2  0  0  0  0  0  0
  191.0610  178.8320  143.1510 C   0  0  0  0  0  2  0  0  0  0  0  0
  191.0790  177.3700  142.6790 C   0  0  2  0  0  3  0  0  0  0  0  0
  190.6810  176.4650  145.0060 C   0  0  0  0  0  2  0  0  0  0  0  0
  191.5840  176.4150  143.7630 C   0  0  0  0  0  2  0  0  0  0  0  0
  189.5060  178.0280  146.6060 C   0  0  0  0  0  2  0  0  0  0  0  0
  188.0990  177.5720  146.8760 C   0  0  0  0  0  0  0  0  0  0  0  0
  187.8380  176.9030  147.9150 O   0  0  0  0  0  0  0  0  0  0  0  0
  186.1170  177.5560  143.7230 C   0  0  0  0  0  3  0  0  0  0  0  0
  187.0980  177.3410  144.6400 N   0  0  0  0  0  0  0  0  0  0  0  0
  184.9060  178.8570  145.3410 C   0  0  0  0  0  3  0  0  0  0  0  0
  187.0310  177.8540  145.9010 C   0  0  0  0  0  0  0  0  0  0  0  0
  185.9260  178.6350  146.2680 C   0  0  0  0  0  3  0  0  0  0  0  0
  184.9900  178.3210  144.0490 C   0  0  0  0  0  0  0  0  0  0  0  0
  183.9380  178.5390  143.0910 N   0  0  0  0  0  0  0  0  0  0  0  0
  182.0220  179.2370  141.2430 O   0  0  0  0  0  0  0  0  0  0  0  0
  182.6600  179.1210  143.5470 C   0  0  0  0  0  2  0  0  0  0  0  0
  181.5570  178.8830  142.5150 C   0  0  0  0  0  2  0  0  0  0  0  0
  182.8770  178.1890  140.8650 C   0  0  0  0  0  2  0  0  0  0  0  0
  184.1860  178.2690  141.6620 C   0  0  0  0  0  2  0  0  0  0  0  0
  189.5000  177.0270  140.5070 N   0  0  0  0  0  2  0  0  0  0  0  0
  188.7660  178.2610  140.2460 C   0  0  0  0  0  2  0  0  0  0  0  0
  189.1170  178.6620  137.7880 C   0  0  0  0  0  3  0  0  0  0  0  0
  186.5380  177.8260  137.2650 N   0  0  0  0  0  0  0  0  0  0  0  0
  186.9750  177.8580  138.5520 C   0  0  0  0  0  3  0  0  0  0  0  0
  188.2760  178.2800  138.8390 C   0  0  0  0  0  0  0  0  0  0  0  0
  188.6490  178.6250  136.4740 C   0  0  0  0  0  3  0  0  0  0  0  0
  187.3400  178.1950  136.2300 C   0  0  0  0  0  0  0  0  0  0  0  0
  186.8490  178.1440  134.8950 N   0  0  0  0  0  1  0  0  0  0  0  0
  191.3070  176.2840  139.0940 N   0  0  0  0  0  2  0  0  0  0  0  0
  192.4270  176.7840  138.3970 N   0  0  0  0  0  2  0  0  0  0  0  0
  194.0390  176.4750  136.7540 O   0  0  0  0  0  0  0  0  0  0  0  0
  193.1710  175.9480  137.5070 C   0  0  0  0  0  0  0  0  0  0  0  0
  192.3130  173.8740  136.3320 N   0  0  0  0  0  0  0  0  0  0  0  0
  194.4590  173.1510  135.3800 C   0  0  0  0  0  2  0  0  0  0  0  0
  192.9600  174.4440  137.5350 C   0  0  1  0  0  3  0  0  0  0  0  0
  194.2730  173.7620  137.7860 C   0  0  0  0  0  3  0  0  0  0  0  0
  194.9860  173.2250  136.7930 C   0  0  0  0  0  0  0  0  0  0  0  0
  193.2000  174.0040  135.1750 C   0  0  0  0  0  2  0  0  0  0  0  0
  196.2650  172.6370  137.0850 C   0  0  0  0  0  0  0  0  0  0  0  0
  197.3380  172.1490  137.3470 C   0  0  0  0  0  3  0  0  0  0  0  0
  191.0510  174.5580  136.0520 C   0  0  0  0  0  2  0  0  0  0  0  0
  189.9350  173.9180  136.8670 C   0  0  0  0  0  2  0  0  0  0  0  0
  187.9820  174.7240  135.5940 C   0  0  0  0  0  2  0  0  0  0  0  0
  188.7170  174.8300  136.9160 C   0  0  0  0  0  3  0  0  0  0  0  0
  187.4560  173.9920  136.8090 C   0  0  0  0  0  2  0  0  0  0  0  0
  1 24  1  0  0  0  0
  1  2  1  1  0  0  0
  3  9  1  1  0  0  0
  4  3  1  0  0  0  0
  5  4  1  0  0  0  0
  6  2  1  6  0  0  0
  6  5  1  0  0  0  0
  6  8  1  0  0  0  0
  7  3  1  0  0  0  0
  8  7  1  0  0  0  0
  9 10  1  0  0  0  0
 10 11  2  0  0  0  0
 12 17  2  0  0  0  0
 12 13  1  0  0  0  0
 13 15  2  0  0  0  0
 14 16  2  0  0  0  0
 15 16  1  0  0  0  0
 15 10  1  0  0  0  0
 17 14  1  0  0  0  0
 18 20  1  0  0  0  0
 18 17  1  0  0  0  0
 19 21  1  0  0  0  0
 21 20  1  0  0  0  0
 22 19  1  0  0  0  0
 22 23  1  0  0  0  0
 23 18  1  0  0  0  0
 25 24  1  0  0  0  0
 26 29  1  0  0  0  0
 27 28  1  0  0  0  0
 28 29  2  0  0  0  0
 29 25  1  0  0  0  0
 30 26  2  0  0  0  0
 31 30  1  0  0  0  0
 31 27  2  0  0  0  0
 32 31  1  0  0  0  0
 33  1  1  0  0  0  0
 34 33  1  0  0  0  0
 35 36  2  0  0  0  0
 36 34  1  0  0  0  0
 37 39  1  0  0  0  0
 38 41  1  0  0  0  0
 39 36  1  6  0  0  0
 39 40  1  0  0  0  0
 41 43  1  0  0  0  0
 41 40  2  0  0  0  0
 42 38  1  0  0  0  0
 42 37  1  0  0  0  0
 43 44  3  0  0  0  0
 45 37  1  0  0  0  0
 45 46  1  0  0  0  0
 46 48  1  0  0  0  0
 47 49  1  0  0  0  0
 47 48  1  0  0  0  0
 49 48  1  0  0  0  0
M  END
>  <MODEL>
2

>  <REMARK>
 VINA RESULT:      -7.9      1.399      2.060
  Name = 
  16 active torsions:
  status: ('A' for Active; 'I' for Inactive)
    1  A    between atoms: C_1  and  C_46
    2  A    between atoms: N_3  and  C_44
    3  A    between atoms: N_6  and  N_16
    4  A    between atoms: N_6  and  C_18
    5  A    between atoms: N_7  and  C_25
    6  A    between atoms: C_11  and  C_23
    7  A    between atoms: C_11  and  N_28
    8  A    between atoms: C_12  and  C_45
    9  A    between atoms: C_18  and  C_22
   10  A    between atoms: C_18  and  N_28
   11  A    between atoms: C_20  and  C_48
   12  A    between atoms: C_22  and  C_40
   13  A    between atoms: C_24  and  C_37
   14  A    between atoms: C_25  and  C_48
   15  A    between atoms: C_29  and  C_33
   16  A    between atoms: C_33  and  C_46
                            x       y       z     vdW  Elec       q    Type
                         _______ _______ _______ _____ _____    ______ ____

>  <TORSDO>
F 16

$$$$
=
 OpenBabel10222419243D

 49 54  0  0  1  0  0  0  0  0999 V2000
  191.6790  177.0890  138.9860 C   0  0  2  0  0  3  0  0  0  0  0  0
  190.8130  175.9380  138.4710 C   0  0  0  0  0  2  0  0  0  0  0  0
  187.0290  177.1360  136.8270 C   0  0  1  0  0  3  0  0  0  0  0  0
  187.1910  177.3780  138.3260 C   0  0  0  0  0  2  0  0  0  0  0  0
  188.6620  177.2960  138.7500 C   0  0  0  0  0  2  0  0  0  0  0  0
  189.5050  176.4010  137.8270 C   0  0  2  0  0  3  0  0  0  0  0  0
  187.5140  175.7360  136.4190 C   0  0  0  0  0  2  0  0  0  0  0  0
  188.6990  175.2320  137.2580 C   0  0  0  0  0  2  0  0  0  0  0  0
  185.5910  177.3750  136.3910 C   0  0  0  0  0  2  0  0  0  0  0  0
  184.5960  176.6020  137.2110 C   0  0  0  0  0  0  0  0  0  0  0  0
  184.4610  175.3580  137.0380 O   0  0  0  0  0  0  0  0  0  0  0  0
  182.8980  179.3450  139.0720 C   0  0  0  0  0  3  0  0  0  0  0  0
  183.7030  178.6640  138.2130 N   0  0  0  0  0  0  0  0  0  0  0  0
  182.0810  177.2570  139.9410 C   0  0  0  0  0  3  0  0  0  0  0  0
  183.7330  177.3030  138.1790 C   0  0  0  0  0  0  0  0  0  0  0  0
  182.9200  176.5740  139.0590 C   0  0  0  0  0  3  0  0  0  0  0  0
  182.0600  178.6590  139.9610 C   0  0  0  0  0  0  0  0  0  0  0  0
  181.1910  179.3700  140.8620 N   0  0  0  0  0  0  0  0  0  0  0  0
  179.7580  180.9100  142.6360 O   0  0  0  0  0  0  0  0  0  0  0  0
  181.2530  179.0690  142.3070 C   0  0  0  0  0  2  0  0  0  0  0  0
  180.0040  179.5870  143.0210 C   0  0  0  0  0  2  0  0  0  0  0  0
  179.2220  180.8180  141.3420 C   0  0  0  0  0  2  0  0  0  0  0  0
  180.3280  180.4470  140.3430 C   0  0  0  0  0  2  0  0  0  0  0  0
  193.1020  176.8220  138.7600 N   0  0  0  0  0  2  0  0  0  0  0  0
  193.2420  176.2230  137.4360 C   0  0  0  0  0  2  0  0  0  0  0  0
  194.9500  174.6980  138.4770 C   0  0  0  0  0  3  0  0  0  0  0  0
  194.1230  172.6300  136.8440 N   0  0  0  0  0  0  0  0  0  0  0  0
  193.5290  173.8470  136.7230 C   0  0  0  0  0  3  0  0  0  0  0  0
  193.9340  174.9080  137.5370 C   0  0  0  0  0  0  0  0  0  0  0  0
  195.5490  173.4420  138.5840 C   0  0  0  0  0  3  0  0  0  0  0  0
  195.1130  172.4070  137.7500 C   0  0  0  0  0  0  0  0  0  0  0  0
  195.7080  171.1180  137.8520 N   0  0  0  0  0  1  0  0  0  0  0  0
  191.4260  177.3590  140.4100 N   0  0  0  0  0  2  0  0  0  0  0  0
  191.0180  176.1730  141.0530 N   0  0  0  0  0  2  0  0  0  0  0  0
  189.9630  175.1590  142.8560 O   0  0  0  0  0  0  0  0  0  0  0  0
  190.5000  176.2010  142.3860 C   0  0  0  0  0  0  0  0  0  0  0  0
  189.4210  178.1780  143.5460 N   0  0  0  0  0  0  0  0  0  0  0  0
  189.2610  177.1720  145.7810 C   0  0  0  0  0  2  0  0  0  0  0  0
  190.6710  177.4510  143.2320 C   0  0  1  0  0  3  0  0  0  0  0  0
  191.3940  177.0990  144.4990 C   0  0  0  0  0  3  0  0  0  0  0  0
  190.7420  176.9120  145.6500 C   0  0  0  0  0  0  0  0  0  0  0  0
  188.5740  177.3670  144.4230 C   0  0  0  0  0  2  0  0  0  0  0  0
  191.4800  176.5180  146.8190 C   0  0  0  0  0  0  0  0  0  0  0  0
  192.1060  176.2050  147.8040 C   0  0  0  0  0  3  0  0  0  0  0  0
  188.6850  178.4920  142.3210 C   0  0  0  0  0  2  0  0  0  0  0  0
  187.3080  177.8440  142.3770 C   0  0  0  0  0  2  0  0  0  0  0  0
  184.8770  178.1650  142.1000 C   0  0  0  0  0  2  0  0  0  0  0  0
  186.2260  178.8540  142.0160 C   0  0  0  0  0  3  0  0  0  0  0  0
  185.3280  179.0800  143.2180 C   0  0  0  0  0  2  0  0  0  0  0  0
  1  2  1  1  0  0  0
  1 33  1  0  0  0  0
  3  9  1  1  0  0  0
  3  4  1  0  0  0  0
  4  5  1  0  0  0  0
  6  2  1  1  0  0  0
  6  5  1  0  0  0  0
  7  3  1  0  0  0  0
  7  8  1  0  0  0  0
  8  6  1  0  0  0  0
  9 10  1  0  0  0  0
 10 15  1  0  0  0  0
 11 10  2  0  0  0  0
 12 17  1  0  0  0  0
 13 12  2  0  0  0  0
 14 17  2  0  0  0  0
 15 13  1  0  0  0  0
 15 16  2  0  0  0  0
 16 14  1  0  0  0  0
 17 18  1  0  0  0  0
 18 20  1  0  0  0  0
 19 21  1  0  0  0  0
 20 21  1  0  0  0  0
 22 19  1  0  0  0  0
 23 18  1  0  0  0  0
 23 22  1  0  0  0  0
 24  1  1  0  0  0  0
 25 29  1  0  0  0  0
 25 24  1  0  0  0  0
 26 30  1  0  0  0  0
 27 31  1  0  0  0  0
 28 27  2  0  0  0  0
 28 29  1  0  0  0  0
 29 26  2  0  0  0  0
 31 32  1  0  0  0  0
 31 30  2  0  0  0  0
 33 34  1  0  0  0  0
 34 36  1  0  0  0  0
 36 35  2  0  0  0  0
 37 42  1  0  0  0  0
 39 36  1  1  0  0  0
 39 37  1  0  0  0  0
 39 40  1  0  0  0  0
 40 41  2  0  0  0  0
 41 38  1  0  0  0  0
 41 43  1  0  0  0  0
 42 38  1  0  0  0  0
 43 44  3  0  0  0  0
 45 46  1  0  0  0  0
 45 37  1  0  0  0  0
 47 49  1  0  0  0  0
 48 47  1  0  0  0  0
 48 46  1  0  0  0  0
 48 49  1  0  0  0  0
M  END
>  <MODEL>
3

>  <REMARK>
 VINA RESULT:      -7.7      2.482      7.255
  Name = 
  16 active torsions:
  status: ('A' for Active; 'I' for Inactive)
    1  A    between atoms: C_1  and  C_46
    2  A    between atoms: N_3  and  C_44
    3  A    between atoms: N_6  and  N_16
    4  A    between atoms: N_6  and  C_18
    5  A    between atoms: N_7  and  C_25
    6  A    between atoms: C_11  and  C_23
    7  A    between atoms: C_11  and  N_28
    8  A    between atoms: C_12  and  C_45
    9  A    between atoms: C_18  and  C_22
   10  A    between atoms: C_18  and  N_28
   11  A    between atoms: C_20  and  C_48
   12  A    between atoms: C_22  and  C_40
   13  A    between atoms: C_24  and  C_37
   14  A    between atoms: C_25  and  C_48
   15  A    between atoms: C_29  and  C_33
   16  A    between atoms: C_33  and  C_46
                            x       y       z     vdW  Elec       q    Type
                         _______ _______ _______ _____ _____    ______ ____

>  <TORSDO>
F 16

$$$$
=
 OpenBabel10222419243D

 49 54  0  0  1  0  0  0  0  0999 V2000
  187.5680  177.0020  142.5230 C   0  0  2  0  0  3  0  0  0  0  0  0
  186.9370  178.3940  142.4260 C   0  0  0  0  0  2  0  0  0  0  0  0
  182.6760  178.5180  141.8870 C   0  0  1  0  0  3  0  0  0  0  0  0
  183.4930  179.1010  140.7370 C   0  0  0  0  0  2  0  0  0  0  0  0
  184.9630  178.6740  140.8210 C   0  0  0  0  0  2  0  0  0  0  0  0
  185.4170  178.3620  142.2560 C   0  0  2  0  0  3  0  0  0  0  0  0
  183.1840  179.0050  143.2530 C   0  0  0  0  0  2  0  0  0  0  0  0
  184.7040  179.2320  143.2940 C   0  0  0  0  0  2  0  0  0  0  0  0
  181.1950  178.8160  141.7070 C   0  0  0  0  0  2  0  0  0  0  0  0
  180.7160  178.5700  140.3030 C   0  0  0  0  0  0  0  0  0  0  0  0
  180.6120  177.3900  139.8670 O   0  0  0  0  0  0  0  0  0  0  0  0
  179.6230  181.9310  139.1310 C   0  0  0  0  0  3  0  0  0  0  0  0
  179.8810  180.8520  139.9160 N   0  0  0  0  0  0  0  0  0  0  0  0
  180.4700  180.7320  137.2270 C   0  0  0  0  0  3  0  0  0  0  0  0
  180.4230  179.7070  139.4140 C   0  0  0  0  0  0  0  0  0  0  0  0
  180.7180  179.6290  138.0450 C   0  0  0  0  0  3  0  0  0  0  0  0
  179.9130  181.9030  137.7600 C   0  0  0  0  0  0  0  0  0  0  0  0
  179.6610  183.0470  136.9230 N   0  0  0  0  0  0  0  0  0  0  0  0
  178.9320  185.0960  135.2380 O   0  0  0  0  0  0  0  0  0  0  0  0
  180.0460  182.9940  135.4990 C   0  0  0  0  0  2  0  0  0  0  0  0
  180.0980  184.3990  134.8990 C   0  0  0  0  0  2  0  0  0  0  0  0
  179.1000  185.4500  136.5870 C   0  0  0  0  0  2  0  0  0  0  0  0
  178.9410  184.2090  137.4760 C   0  0  0  0  0  2  0  0  0  0  0  0
  187.7690  176.6100  143.9200 N   0  0  0  0  0  2  0  0  0  0  0  0
  188.3980  177.7290  144.6150 C   0  0  0  0  0  2  0  0  0  0  0  0
  190.7240  176.8120  144.8890 C   0  0  0  0  0  3  0  0  0  0  0  0
  190.4410  176.8660  147.6350 N   0  0  0  0  0  0  0  0  0  0  0  0
  189.4000  177.2640  146.8540 C   0  0  0  0  0  3  0  0  0  0  0  0
  189.5220  177.2420  145.4620 C   0  0  0  0  0  0  0  0  0  0  0  0
  191.7790  176.4060  145.7070 C   0  0  0  0  0  3  0  0  0  0  0  0
  191.6160  176.4440  147.0950 C   0  0  0  0  0  0  0  0  0  0  0  0
  192.6850  176.0400  147.9450 N   0  0  0  0  0  1  0  0  0  0  0  0
  188.8350  176.9330  141.7800 N   0  0  0  0  0  2  0  0  0  0  0  0
  189.0420  178.1380  141.0790 N   0  0  0  0  0  2  0  0  0  0  0  0
  188.8640  179.3310  139.0950 O   0  0  0  0  0  0  0  0  0  0  0  0
  188.8640  178.2020  139.6610 C   0  0  0  0  0  0  0  0  0  0  0  0
  187.9240  177.0040  137.6370 N   0  0  0  0  0  0  0  0  0  0  0  0
  189.8840  177.2740  136.1820 C   0  0  0  0  0  2  0  0  0  0  0  0
  188.7560  176.9170  138.8580 C   0  0  1  0  0  3  0  0  0  0  0  0
  190.1320  176.4300  138.5110 C   0  0  0  0  0  3  0  0  0  0  0  0
  190.6700  176.6460  137.3080 C   0  0  0  0  0  0  0  0  0  0  0  0
  188.5600  177.8860  136.6570 C   0  0  0  0  0  2  0  0  0  0  0  0
  192.0150  176.2080  137.0510 C   0  0  0  0  0  0  0  0  0  0  0  0
  193.1510  175.8470  136.8520 C   0  0  0  0  0  3  0  0  0  0  0  0
  186.5920  177.5170  137.9550 C   0  0  0  0  0  2  0  0  0  0  0  0
  185.5370  176.5840  137.3760 C   0  0  0  0  0  2  0  0  0  0  0  0
  183.5090  177.2080  136.1180 C   0  0  0  0  0  2  0  0  0  0  0  0
  184.1510  177.2040  137.4920 C   0  0  0  0  0  3  0  0  0  0  0  0
  183.1030  176.1650  137.1370 C   0  0  0  0  0  2  0  0  0  0  0  0
  1  2  1  1  0  0  0
  1 24  1  0  0  0  0
  3  9  1  6  0  0  0
  3  7  1  0  0  0  0
  4  5  1  0  0  0  0
  4  3  1  0  0  0  0
  5  6  1  0  0  0  0
  6  2  1  6  0  0  0
  6  8  1  0  0  0  0
  7  8  1  0  0  0  0
 10  9  1  0  0  0  0
 11 10  2  0  0  0  0
 12 13  1  0  0  0  0
 14 17  1  0  0  0  0
 14 16  2  0  0  0  0
 15 13  2  0  0  0  0
 15 10  1  0  0  0  0
 16 15  1  0  0  0  0
 17 12  2  0  0  0  0
 18 23  1  0  0  0  0
 18 17  1  0  0  0  0
 19 22  1  0  0  0  0
 20 18  1  0  0  0  0
 21 19  1  0  0  0  0
 21 20  1  0  0  0  0
 22 23  1  0  0  0  0
 24 25  1  0  0  0  0
 25 29  1  0  0  0  0
 26 29  2  0  0  0  0
 26 30  1  0  0  0  0
 28 27  2  0  0  0  0
 29 28  1  0  0  0  0
 30 31  2  0  0  0  0
 31 27  1  0  0  0  0
 31 32  1  0  0  0  0
 33  1  1  0  0  0  0
 34 33  1  0  0  0  0
 35 36  2  0  0  0  0
 36 34  1  0  0  0  0
 37 45  1  0  0  0  0
 37 39  1  0  0  0  0
 38 42  1  0  0  0  0
 38 41  1  0  0  0  0
 39 36  1  6  0  0  0
 40 39  1  0  0  0  0
 41 40  2  0  0  0  0
 42 37  1  0  0  0  0
 43 41  1  0  0  0  0
 44 43  3  0  0  0  0
 46 48  1  0  0  0  0
 46 45  1  0  0  0  0
 47 49  1  0  0  0  0
 47 48  1  0  0  0  0
 49 48  1  0  0  0  0
M  END
>  <MODEL>
4

>  <REMARK>
 VINA RESULT:      -7.6      3.491      6.945
  Name = 
  16 active torsions:
  status: ('A' for Active; 'I' for Inactive)
    1  A    between atoms: C_1  and  C_46
    2  A    between atoms: N_3  and  C_44
    3  A    between atoms: N_6  and  N_16
    4  A    between atoms: N_6  and  C_18
    5  A    between atoms: N_7  and  C_25
    6  A    between atoms: C_11  and  C_23
    7  A    between atoms: C_11  and  N_28
    8  A    between atoms: C_12  and  C_45
    9  A    between atoms: C_18  and  C_22
   10  A    between atoms: C_18  and  N_28
   11  A    between atoms: C_20  and  C_48
   12  A    between atoms: C_22  and  C_40
   13  A    between atoms: C_24  and  C_37
   14  A    between atoms: C_25  and  C_48
   15  A    between atoms: C_29  and  C_33
   16  A    between atoms: C_33  and  C_46
                            x       y       z     vdW  Elec       q    Type
                         _______ _______ _______ _____ _____    ______ ____

>  <TORSDO>
F 16

$$$$
=
 OpenBabel10222419243D

 49 54  0  0  1  0  0  0  0  0999 V2000
  187.7950  177.1060  142.2550 C   0  0  2  0  0  3  0  0  0  0  0  0
  187.1240  178.4810  142.1950 C   0  0  0  0  0  2  0  0  0  0  0  0
  182.8700  178.5030  141.5950 C   0  0  1  0  0  3  0  0  0  0  0  0
  183.6800  179.2340  140.5270 C   0  0  0  0  0  2  0  0  0  0  0  0
  185.1640  178.8550  140.5930 C   0  0  0  0  0  2  0  0  0  0  0  0
  185.6090  178.4110  141.9950 C   0  0  2  0  0  3  0  0  0  0  0  0
  183.3400  178.8630  143.0140 C   0  0  0  0  0  2  0  0  0  0  0  0
  184.8490  179.1410  143.1050 C   0  0  0  0  0  2  0  0  0  0  0  0
  181.3820  178.7630  141.4210 C   0  0  0  0  0  2  0  0  0  0  0  0
  180.9570  178.7850  139.9780 C   0  0  0  0  0  0  0  0  0  0  0  0
  180.6970  179.8830  139.4110 O   0  0  0  0  0  0  0  0  0  0  0  0
  179.9270  176.3540  137.3520 C   0  0  0  0  0  3  0  0  0  0  0  0
  180.0800  177.4950  138.0750 N   0  0  0  0  0  0  0  0  0  0  0  0
  181.2310  175.1610  138.9810 C   0  0  0  0  0  3  0  0  0  0  0  0
  180.7880  177.5220  139.2390 C   0  0  0  0  0  0  0  0  0  0  0  0
  181.3710  176.3390  139.7170 C   0  0  0  0  0  3  0  0  0  0  0  0
  180.5020  175.1520  137.7840 C   0  0  0  0  0  0  0  0  0  0  0  0
  180.3610  173.9420  137.0160 N   0  0  0  0  0  0  0  0  0  0  0  0
  179.8050  171.7010  135.5190 O   0  0  0  0  0  0  0  0  0  0  0  0
  179.8720  172.7200  137.6840 C   0  0  0  0  0  2  0  0  0  0  0  0
  180.1900  171.4810  136.8470 C   0  0  0  0  0  2  0  0  0  0  0  0
  180.7890  172.5540  134.9940 C   0  0  0  0  0  2  0  0  0  0  0  0
  180.6140  173.9690  135.5630 C   0  0  0  0  0  2  0  0  0  0  0  0
  187.8560  176.6090  143.6320 N   0  0  0  0  0  2  0  0  0  0  0  0
  188.2980  177.7060  144.4870 C   0  0  0  0  0  2  0  0  0  0  0  0
  190.6800  176.9890  144.8610 C   0  0  0  0  0  3  0  0  0  0  0  0
  190.2070  176.7720  147.5730 N   0  0  0  0  0  0  0  0  0  0  0  0
  189.1880  177.1390  146.7510 C   0  0  0  0  0  3  0  0  0  0  0  0
  189.4050  177.2520  145.3750 C   0  0  0  0  0  0  0  0  0  0  0  0
  191.7120  176.6110  145.7210 C   0  0  0  0  0  3  0  0  0  0  0  0
  191.4530  176.5110  147.0910 C   0  0  0  0  0  0  0  0  0  0  0  0
  192.4960  176.1340  147.9830 N   0  0  0  0  0  1  0  0  0  0  0  0
  189.1390  177.1360  141.6580 N   0  0  0  0  0  2  0  0  0  0  0  0
  189.2470  178.2360  140.7830 N   0  0  0  0  0  2  0  0  0  0  0  0
  189.0220  179.0890  138.6350 O   0  0  0  0  0  0  0  0  0  0  0  0
  189.1170  178.0650  139.3690 C   0  0  0  0  0  0  0  0  0  0  0  0
  188.2480  176.4290  137.6420 N   0  0  0  0  0  0  0  0  0  0  0  0
  190.0150  176.7780  135.9720 C   0  0  0  0  0  2  0  0  0  0  0  0
  189.1720  176.6690  138.7730 C   0  0  1  0  0  3  0  0  0  0  0  0
  190.5820  176.3600  138.3600 C   0  0  0  0  0  3  0  0  0  0  0  0
  190.9810  176.4680  137.0900 C   0  0  0  0  0  0  0  0  0  0  0  0
  188.6450  177.2370  136.4870 C   0  0  0  0  0  2  0  0  0  0  0  0
  192.3580  176.2160  136.7640 C   0  0  0  0  0  0  0  0  0  0  0  0
  193.5200  176.0210  136.4940 C   0  0  0  0  0  3  0  0  0  0  0  0
  186.8750  176.7660  138.0170 C   0  0  0  0  0  2  0  0  0  0  0  0
  185.9910  176.7470  136.7770 C   0  0  0  0  0  2  0  0  0  0  0  0
  183.6980  177.5910  137.1190 C   0  0  0  0  0  2  0  0  0  0  0  0
  184.5670  176.3480  137.1400 C   0  0  0  0  0  3  0  0  0  0  0  0
  183.6520  176.6190  135.9600 C   0  0  0  0  0  2  0  0  0  0  0  0
  1  2  1  1  0  0  0
  1 24  1  0  0  0  0
  3  9  1  1  0  0  0
  3  7  1  0  0  0  0
  4  5  1  0  0  0  0
  4  3  1  0  0  0  0
  5  6  1  0  0  0  0
  6  2  1  1  0  0  0
  6  8  1  0  0  0  0
  7  8  1  0  0  0  0
 10  9  1  0  0  0  0
 11 10  2  0  0  0  0
 12 17  2  0  0  0  0
 12 13  1  0  0  0  0
 13 15  2  0  0  0  0
 14 16  2  0  0  0  0
 15 16  1  0  0  0  0
 15 10  1  0  0  0  0
 17 14  1  0  0  0  0
 18 20  1  0  0  0  0
 18 17  1  0  0  0  0
 19 21  1  0  0  0  0
 21 20  1  0  0  0  0
 22 19  1  0  0  0  0
 22 23  1  0  0  0  0
 23 18  1  0  0  0  0
 24 25  1  0  0  0  0
 25 29  1  0  0  0  0
 26 29  2  0  0  0  0
 26 30  1  0  0  0  0
 28 27  2  0  0  0  0
 29 28  1  0  0  0  0
 30 31  2  0  0  0  0
 31 27  1  0  0  0  0
 31 32  1  0  0  0  0
 33  1  1  0  0  0  0
 34 33  1  0  0  0  0
 35 36  2  0  0  0  0
 36 34  1  0  0  0  0
 37 45  1  0  0  0  0
 37 39  1  0  0  0  0
 38 42  1  0  0  0  0
 38 41  1  0  0  0  0
 39 36  1  6  0  0  0
 40 39  1  0  0  0  0
 41 40  2  0  0  0  0
 42 37  1  0  0  0  0
 43 41  1  0  0  0  0
 44 43  3  0  0  0  0
 46 48  1  0  0  0  0
 46 45  1  0  0  0  0
 47 48  1  0  0  0  0
 49 47  1  0  0  0  0
 49 48  1  0  0  0  0
M  END
>  <MODEL>
5

>  <REMARK>
 VINA RESULT:      -7.4      3.517      6.773
  Name = 
  16 active torsions:
  status: ('A' for Active; 'I' for Inactive)
    1  A    between atoms: C_1  and  C_46
    2  A    between atoms: N_3  and  C_44
    3  A    between atoms: N_6  and  N_16
    4  A    between atoms: N_6  and  C_18
    5  A    between atoms: N_7  and  C_25
    6  A    between atoms: C_11  and  C_23
    7  A    between atoms: C_11  and  N_28
    8  A    between atoms: C_12  and  C_45
    9  A    between atoms: C_18  and  C_22
   10  A    between atoms: C_18  and  N_28
   11  A    between atoms: C_20  and  C_48
   12  A    between atoms: C_22  and  C_40
   13  A    between atoms: C_24  and  C_37
   14  A    between atoms: C_25  and  C_48
   15  A    between atoms: C_29  and  C_33
   16  A    between atoms: C_33  and  C_46
                            x       y       z     vdW  Elec       q    Type
                         _______ _______ _______ _____ _____    ______ ____

>  <TORSDO>
F 16

$$$$
=
 OpenBabel10222419243D

 49 54  0  0  1  0  0  0  0  0999 V2000
  190.2070  177.8590  140.1340 C   0  0  2  0  0  3  0  0  0  0  0  0
  190.3230  176.9210  141.3370 C   0  0  0  0  0  2  0  0  0  0  0  0
  187.7150  177.7570  144.6480 C   0  0  1  0  0  3  0  0  0  0  0  0
  189.1890  178.0770  144.8860 C   0  0  0  0  0  2  0  0  0  0  0  0
  189.9710  178.1250  143.5680 C   0  0  0  0  0  2  0  0  0  0  0  0
  189.3460  177.2550  142.4660 C   0  0  2  0  0  3  0  0  0  0  0  0
  187.5290  176.3800  143.9900 C   0  0  0  0  0  2  0  0  0  0  0  0
  188.6670  176.0040  143.0280 C   0  0  0  0  0  2  0  0  0  0  0  0
  186.9200  177.8670  145.9400 C   0  0  0  0  0  2  0  0  0  0  0  0
  185.8260  178.8960  145.8670 C   0  0  0  0  0  0  0  0  0  0  0  0
  185.7080  179.7620  146.7780 O   0  0  0  0  0  0  0  0  0  0  0  0
  184.4090  178.8630  142.4230 C   0  0  0  0  0  3  0  0  0  0  0  0
  185.2770  178.9220  143.4680 N   0  0  0  0  0  0  0  0  0  0  0  0
  182.5780  178.6710  143.9690 C   0  0  0  0  0  3  0  0  0  0  0  0
  184.8520  178.8600  144.7620 C   0  0  0  0  0  0  0  0  0  0  0  0
  183.4810  178.7420  145.0310 C   0  0  0  0  0  3  0  0  0  0  0  0
  183.0320  178.7340  142.6440 C   0  0  0  0  0  0  0  0  0  0  0  0
  182.1070  178.6520  141.5430 N   0  0  0  0  0  0  0  0  0  0  0  0
  180.4450  178.7590  139.3530 O   0  0  0  0  0  0  0  0  0  0  0  0
  180.8050  179.3410  141.6470 C   0  0  0  0  0  2  0  0  0  0  0  0
  179.8240  178.8020  140.6060 C   0  0  0  0  0  2  0  0  0  0  0  0
  181.3030  177.6490  139.4110 C   0  0  0  0  0  2  0  0  0  0  0  0
  182.5110  177.9670  140.3020 C   0  0  0  0  0  2  0  0  0  0  0  0
  188.8040  178.1090  139.7930 N   0  0  0  0  0  2  0  0  0  0  0  0
  188.7720  178.8840  138.5560 C   0  0  0  0  0  2  0  0  0  0  0  0
  187.7590  178.5780  136.2740 C   0  0  0  0  0  3  0  0  0  0  0  0
  185.6860  177.1210  137.3710 N   0  0  0  0  0  0  0  0  0  0  0  0
  186.6430  177.6310  138.1920 C   0  0  0  0  0  3  0  0  0  0  0  0
  187.7000  178.3740  137.6580 C   0  0  0  0  0  0  0  0  0  0  0  0
  186.7660  178.0480  135.4490 C   0  0  0  0  0  3  0  0  0  0  0  0
  185.7270  177.3100  136.0240 C   0  0  0  0  0  0  0  0  0  0  0  0
  184.7100  176.7560  135.1970 N   0  0  0  0  0  1  0  0  0  0  0  0
  190.9340  177.3330  138.9680 N   0  0  0  0  0  2  0  0  0  0  0  0
  190.9940  175.9260  139.0410 N   0  0  0  0  0  2  0  0  0  0  0  0
  191.0830  173.8870  137.9340 O   0  0  0  0  0  0  0  0  0  0  0  0
  190.8290  175.1230  137.8690 C   0  0  0  0  0  0  0  0  0  0  0  0
  191.1110  175.5500  135.3880 N   0  0  0  0  0  0  0  0  0  0  0  0
  189.7100  173.6950  134.5960 C   0  0  0  0  0  2  0  0  0  0  0  0
  190.2820  175.7510  136.5980 C   0  0  1  0  0  3  0  0  0  0  0  0
  188.8880  175.2510  136.3570 C   0  0  0  0  0  3  0  0  0  0  0  0
  188.6350  174.2710  135.4850 C   0  0  0  0  0  0  0  0  0  0  0  0
  191.1190  174.1350  135.0130 C   0  0  0  0  0  2  0  0  0  0  0  0
  187.2870  173.7930  135.3390 C   0  0  0  0  0  0  0  0  0  0  0  0
  186.1490  173.4030  135.2280 C   0  0  0  0  0  3  0  0  0  0  0  0
  192.4840  175.9950  135.6240 C   0  0  0  0  0  2  0  0  0  0  0  0
  193.4020  174.7820  135.7120 C   0  0  0  0  0  2  0  0  0  0  0  0
  194.4440  175.2430  137.9000 C   0  0  0  0  0  2  0  0  0  0  0  0
  194.7060  175.1470  136.4090 C   0  0  0  0  0  3  0  0  0  0  0  0
  195.1180  174.0130  137.3300 C   0  0  0  0  0  2  0  0  0  0  0  0
  1  2  1  1  0  0  0
  3  4  1  0  0  0  0
  3  9  1  1  0  0  0
  5  4  1  0  0  0  0
  6  2  1  6  0  0  0
  6  8  1  0  0  0  0
  6  5  1  0  0  0  0
  7  3  1  0  0  0  0
  8  7  1  0  0  0  0
 10  9  1  0  0  0  0
 10 11  2  0  0  0  0
 12 17  2  0  0  0  0
 12 13  1  0  0  0  0
 13 15  2  0  0  0  0
 14 16  2  0  0  0  0
 15 16  1  0  0  0  0
 15 10  1  0  0  0  0
 17 14  1  0  0  0  0
 18 20  1  0  0  0  0
 18 17  1  0  0  0  0
 19 22  1  0  0  0  0
 19 21  1  0  0  0  0
 21 20  1  0  0  0  0
 22 23  1  0  0  0  0
 23 18  1  0  0  0  0
 24  1  1  0  0  0  0
 25 24  1  0  0  0  0
 26 29  1  0  0  0  0
 27 28  1  0  0  0  0
 29 28  2  0  0  0  0
 29 25  1  0  0  0  0
 30 31  1  0  0  0  0
 30 26  2  0  0  0  0
 31 27  2  0  0  0  0
 32 31  1  0  0  0  0
 33 34  1  0  0  0  0
 33  1  1  0  0  0  0
 36 35  2  0  0  0  0
 36 34  1  0  0  0  0
 37 45  1  0  0  0  0
 37 39  1  0  0  0  0
 38 42  1  0  0  0  0
 38 41  1  0  0  0  0
 39 36  1  1  0  0  0
 40 39  1  0  0  0  0
 41 40  2  0  0  0  0
 42 37  1  0  0  0  0
 43 41  1  0  0  0  0
 44 43  3  0  0  0  0
 45 46  1  0  0  0  0
 46 48  1  0  0  0  0
 48 49  1  0  0  0  0
 48 47  1  0  0  0  0
 49 47  1  0  0  0  0
M  END
>  <MODEL>
6

>  <REMARK>
 VINA RESULT:      -7.4      1.272      3.213
  Name = 
  16 active torsions:
  status: ('A' for Active; 'I' for Inactive)
    1  A    between atoms: C_1  and  C_46
    2  A    between atoms: N_3  and  C_44
    3  A    between atoms: N_6  and  N_16
    4  A    between atoms: N_6  and  C_18
    5  A    between atoms: N_7  and  C_25
    6  A    between atoms: C_11  and  C_23
    7  A    between atoms: C_11  and  N_28
    8  A    between atoms: C_12  and  C_45
    9  A    between atoms: C_18  and  C_22
   10  A    between atoms: C_18  and  N_28
   11  A    between atoms: C_20  and  C_48
   12  A    between atoms: C_22  and  C_40
   13  A    between atoms: C_24  and  C_37
   14  A    between atoms: C_25  and  C_48
   15  A    between atoms: C_29  and  C_33
   16  A    between atoms: C_33  and  C_46
                            x       y       z     vdW  Elec       q    Type
                         _______ _______ _______ _____ _____    ______ ____

>  <TORSDO>
F 16

$$$$
=
 OpenBabel10222419243D

 49 54  0  0  1  0  0  0  0  0999 V2000
  190.0240  177.8870  140.1580 C   0  0  2  0  0  3  0  0  0  0  0  0
  190.2300  176.9510  141.3510 C   0  0  0  0  0  2  0  0  0  0  0  0
  187.7980  177.7190  144.8080 C   0  0  1  0  0  3  0  0  0  0  0  0
  189.2890  177.9880  144.9920 C   0  0  0  0  0  2  0  0  0  0  0  0
  190.0130  178.0690  143.6430 C   0  0  0  0  0  2  0  0  0  0  0  0
  189.3140  177.2650  142.5360 C   0  0  2  0  0  3  0  0  0  0  0  0
  187.5410  176.3770  144.1040 C   0  0  0  0  0  2  0  0  0  0  0  0
  188.6240  176.0100  143.0760 C   0  0  0  0  0  2  0  0  0  0  0  0
  187.0640  177.7970  146.1390 C   0  0  0  0  0  2  0  0  0  0  0  0
  186.0180  178.8760  146.1670 C   0  0  0  0  0  0  0  0  0  0  0  0
  186.0200  179.7380  147.0900 O   0  0  0  0  0  0  0  0  0  0  0  0
  182.6320  178.9350  144.6170 C   0  0  0  0  0  3  0  0  0  0  0  0
  183.6420  178.8880  145.5260 N   0  0  0  0  0  0  0  0  0  0  0  0
  184.2510  179.0070  142.8410 C   0  0  0  0  0  3  0  0  0  0  0  0
  184.9510  178.8970  145.1500 C   0  0  0  0  0  0  0  0  0  0  0  0
  185.2750  178.9480  143.7860 C   0  0  0  0  0  3  0  0  0  0  0  0
  182.9090  178.9990  143.2440 C   0  0  0  0  0  0  0  0  0  0  0  0
  181.8470  179.0680  142.2750 N   0  0  0  0  0  0  0  0  0  0  0  0
  179.7260  178.9390  140.5270 O   0  0  0  0  0  0  0  0  0  0  0  0
  182.0030  178.3640  140.9860 C   0  0  0  0  0  2  0  0  0  0  0  0
  181.0030  178.8900  139.9570 C   0  0  0  0  0  2  0  0  0  0  0  0
  179.7480  180.0590  141.3720 C   0  0  0  0  0  2  0  0  0  0  0  0
  180.5890  179.7560  142.6200 C   0  0  0  0  0  2  0  0  0  0  0  0
  188.5990  178.1120  139.9030 N   0  0  0  0  0  2  0  0  0  0  0  0
  188.4380  178.4170  138.4850 C   0  0  0  0  0  2  0  0  0  0  0  0
  187.4260  176.3600  137.4490 C   0  0  0  0  0  3  0  0  0  0  0  0
  184.9370  177.5550  137.4650 N   0  0  0  0  0  0  0  0  0  0  0  0
  186.0090  178.2530  137.9280 C   0  0  0  0  0  3  0  0  0  0  0  0
  187.2780  177.6680  137.9270 C   0  0  0  0  0  0  0  0  0  0  0  0
  186.3140  175.6630  136.9750 C   0  0  0  0  0  3  0  0  0  0  0  0
  185.0620  176.2850  136.9950 C   0  0  0  0  0  0  0  0  0  0  0  0
  183.9160  175.5840  136.5230 N   0  0  0  0  0  1  0  0  0  0  0  0
  190.6880  177.3750  138.9500 N   0  0  0  0  0  2  0  0  0  0  0  0
  191.9170  176.7790  139.3000 N   0  0  0  0  0  2  0  0  0  0  0  0
  193.9700  175.9290  138.6250 O   0  0  0  0  0  0  0  0  0  0  0  0
  192.8010  176.2740  138.2940 C   0  0  0  0  0  0  0  0  0  0  0  0
  193.2370  175.4190  135.9510 N   0  0  0  0  0  0  0  0  0  0  0  0
  192.1110  173.2500  136.2010 C   0  0  0  0  0  2  0  0  0  0  0  0
  192.2960  176.0920  136.8730 C   0  0  1  0  0  3  0  0  0  0  0  0
  190.9870  175.3590  136.9000 C   0  0  0  0  0  3  0  0  0  0  0  0
  190.9120  174.0480  136.6520 C   0  0  0  0  0  0  0  0  0  0  0  0
  193.4270  174.0240  136.3550 C   0  0  0  0  0  2  0  0  0  0  0  0
  189.6390  173.3880  136.7490 C   0  0  0  0  0  0  0  0  0  0  0  0
  188.5720  172.8310  136.8500 C   0  0  0  0  0  3  0  0  0  0  0  0
  194.5320  176.0990  135.9460 C   0  0  0  0  0  2  0  0  0  0  0  0
  195.6440  175.0740  135.7670 C   0  0  0  0  0  2  0  0  0  0  0  0
  198.0970  175.1520  136.0110 C   0  0  0  0  0  2  0  0  0  0  0  0
  196.9160  175.7440  135.2660 C   0  0  0  0  0  3  0  0  0  0  0  0
  197.8000  174.7090  134.5940 C   0  0  0  0  0  2  0  0  0  0  0  0
  1  2  1  1  0  0  0
  3  4  1  0  0  0  0
  3  9  1  1  0  0  0
  5  4  1  0  0  0  0
  6  2  1  6  0  0  0
  6  8  1  0  0  0  0
  6  5  1  0  0  0  0
  7  3  1  0  0  0  0
  8  7  1  0  0  0  0
  9 10  1  0  0  0  0
 10 11  2  0  0  0  0
 12 13  1  0  0  0  0
 14 17  1  0  0  0  0
 14 16  2  0  0  0  0
 15 13  2  0  0  0  0
 15 10  1  0  0  0  0
 16 15  1  0  0  0  0
 17 12  2  0  0  0  0
 18 23  1  0  0  0  0
 18 17  1  0  0  0  0
 19 22  1  0  0  0  0
 20 18  1  0  0  0  0
 21 19  1  0  0  0  0
 21 20  1  0  0  0  0
 22 23  1  0  0  0  0
 24  1  1  0  0  0  0
 25 24  1  0  0  0  0
 26 29  1  0  0  0  0
 27 28  1  0  0  0  0
 29 28  2  0  0  0  0
 29 25  1  0  0  0  0
 30 31  1  0  0  0  0
 30 26  2  0  0  0  0
 31 27  2  0  0  0  0
 32 31  1  0  0  0  0
 33 34  1  0  0  0  0
 33  1  1  0  0  0  0
 36 35  2  0  0  0  0
 36 34  1  0  0  0  0
 37 42  1  0  0  0  0
 37 39  1  0  0  0  0
 38 42  1  0  0  0  0
 38 41  1  0  0  0  0
 39 40  1  0  0  0  0
 39 36  1  1  0  0  0
 41 43  1  0  0  0  0
 41 40  2  0  0  0  0
 43 44  3  0  0  0  0
 45 37  1  0  0  0  0
 46 45  1  0  0  0  0
 48 46  1  0  0  0  0
 48 47  1  0  0  0  0
 49 48  1  0  0  0  0
 49 47  1  0  0  0  0
M  END
>  <MODEL>
7

>  <REMARK>
 VINA RESULT:      -7.3      1.613      3.446
  Name = 
  16 active torsions:
  status: ('A' for Active; 'I' for Inactive)
    1  A    between atoms: C_1  and  C_46
    2  A    between atoms: N_3  and  C_44
    3  A    between atoms: N_6  and  N_16
    4  A    between atoms: N_6  and  C_18
    5  A    between atoms: N_7  and  C_25
    6  A    between atoms: C_11  and  C_23
    7  A    between atoms: C_11  and  N_28
    8  A    between atoms: C_12  and  C_45
    9  A    between atoms: C_18  and  C_22
   10  A    between atoms: C_18  and  N_28
   11  A    between atoms: C_20  and  C_48
   12  A    between atoms: C_22  and  C_40
   13  A    between atoms: C_24  and  C_37
   14  A    between atoms: C_25  and  C_48
   15  A    between atoms: C_29  and  C_33
   16  A    between atoms: C_33  and  C_46
                            x       y       z     vdW  Elec       q    Type
                         _______ _______ _______ _____ _____    ______ ____

>  <TORSDO>
F 16

$$$$
=
 OpenBabel10222419243D

 49 54  0  0  1  0  0  0  0  0999 V2000
  186.8750  178.7120  141.8480 C   0  0  2  0  0  3  0  0  0  0  0  0
  188.3010  178.9830  141.3610 C   0  0  0  0  0  2  0  0  0  0  0  0
  189.6670  176.6190  138.0440 C   0  0  1  0  0  3  0  0  0  0  0  0
  190.5570  176.5730  139.2830 C   0  0  0  0  0  2  0  0  0  0  0  0
  189.8230  177.1060  140.5190 C   0  0  0  0  0  2  0  0  0  0  0  0
  188.7140  178.1120  140.1730 C   0  0  2  0  0  3  0  0  0  0  0  0
  189.2380  178.0550  137.7010 C   0  0  0  0  0  2  0  0  0  0  0  0
  189.0530  178.9490  138.9370 C   0  0  0  0  0  2  0  0  0  0  0  0
  190.3470  175.9450  136.8620 C   0  0  0  0  0  2  0  0  0  0  0  0
  190.8440  174.5630  137.1840 C   0  0  0  0  0  0  0  0  0  0  0  0
  190.0340  173.6680  137.5550 O   0  0  0  0  0  0  0  0  0  0  0  0
  194.0480  172.8170  136.4430 C   0  0  0  0  0  3  0  0  0  0  0  0
  192.7250  173.1120  136.5430 N   0  0  0  0  0  0  0  0  0  0  0  0
  194.5810  174.8890  137.5390 C   0  0  0  0  0  3  0  0  0  0  0  0
  192.2850  174.2640  137.1230 C   0  0  0  0  0  0  0  0  0  0  0  0
  193.2190  175.1720  137.6420 C   0  0  0  0  0  3  0  0  0  0  0  0
  195.0170  173.7000  136.9380 C   0  0  0  0  0  0  0  0  0  0  0  0
  196.4210  173.4050  136.8210 N   0  0  0  0  0  0  0  0  0  0  0  0
  199.0570  172.8040  136.3070 O   0  0  0  0  0  0  0  0  0  0  0  0
  196.8600  171.9950  136.8040 C   0  0  0  0  0  2  0  0  0  0  0  0
  198.3550  171.8890  137.1010 C   0  0  0  0  0  2  0  0  0  0  0  0
  198.8240  174.0540  136.9020 C   0  0  0  0  0  2  0  0  0  0  0  0
  197.3830  174.5050  136.6250 C   0  0  0  0  0  2  0  0  0  0  0  0
  186.8180  177.4940  142.6590 N   0  0  0  0  0  2  0  0  0  0  0  0
  186.5310  177.8830  144.0360 C   0  0  0  0  0  2  0  0  0  0  0  0
  188.9700  177.3710  144.3760 C   0  0  0  0  0  3  0  0  0  0  0  0
  188.5850  177.2670  147.1080 N   0  0  0  0  0  0  0  0  0  0  0  0
  187.5190  177.5090  146.2990 C   0  0  0  0  0  3  0  0  0  0  0  0
  187.6920  177.5640  144.9130 C   0  0  0  0  0  0  0  0  0  0  0  0
  190.0500  177.1210  145.2240 C   0  0  0  0  0  3  0  0  0  0  0  0
  189.8340  177.0760  146.6050 C   0  0  0  0  0  0  0  0  0  0  0  0
  190.9260  176.8290  147.4840 N   0  0  0  0  0  1  0  0  0  0  0  0
  185.9290  178.6290  140.7250 N   0  0  0  0  0  2  0  0  0  0  0  0
  184.6170  178.4780  141.2200 N   0  0  0  0  0  2  0  0  0  0  0  0
  182.3440  178.2880  140.7830 O   0  0  0  0  0  0  0  0  0  0  0  0
  183.4860  178.6210  140.3570 C   0  0  0  0  0  0  0  0  0  0  0  0
  183.4510  178.3140  137.8420 N   0  0  0  0  0  0  0  0  0  0  0  0
  181.1630  179.1240  137.4670 C   0  0  0  0  0  2  0  0  0  0  0  0
  183.6650  179.2370  138.9800 C   0  0  1  0  0  3  0  0  0  0  0  0
  182.7670  180.4330  138.8490 C   0  0  0  0  0  3  0  0  0  0  0  0
  181.5960  180.3650  138.2100 C   0  0  0  0  0  0  0  0  0  0  0  0
  182.0450  177.9090  137.7810 C   0  0  0  0  0  2  0  0  0  0  0  0
  180.7510  181.5260  138.1670 C   0  0  0  0  0  0  0  0  0  0  0  0
  180.0310  182.4960  138.1170 C   0  0  0  0  0  3  0  0  0  0  0  0
  184.2900  177.1250  137.9780 C   0  0  0  0  0  2  0  0  0  0  0  0
  185.6370  177.3750  137.3130 C   0  0  0  0  0  2  0  0  0  0  0  0
  185.3360  175.4680  135.7770 C   0  0  0  0  0  2  0  0  0  0  0  0
  186.2480  176.0660  136.8310 C   0  0  0  0  0  3  0  0  0  0  0  0
  186.6000  176.1870  135.3600 C   0  0  0  0  0  2  0  0  0  0  0  0
  1  2  1  6  0  0  0
  1 24  1  0  0  0  0
  3  9  1  6  0  0  0
  3  4  1  0  0  0  0
  4  5  1  0  0  0  0
  6  5  1  0  0  0  0
  6  2  1  1  0  0  0
  7  3  1  0  0  0  0
  7  8  1  0  0  0  0
  8  6  1  0  0  0  0
  9 10  1  0  0  0  0
 10 11  2  0  0  0  0
 12 13  2  0  0  0  0
 12 17  1  0  0  0  0
 13 15  1  0  0  0  0
 14 16  1  0  0  0  0
 15 10  1  0  0  0  0
 15 16  2  0  0  0  0
 17 14  2  0  0  0  0
 18 17  1  0  0  0  0
 19 22  1  0  0  0  0
 19 21  1  0  0  0  0
 20 18  1  0  0  0  0
 20 21  1  0  0  0  0
 23 18  1  0  0  0  0
 23 22  1  0  0  0  0
 24 25  1  0  0  0  0
 25 29  1  0  0  0  0
 26 29  2  0  0  0  0
 26 30  1  0  0  0  0
 28 27  2  0  0  0  0
 29 28  1  0  0  0  0
 30 31  2  0  0  0  0
 31 27  1  0  0  0  0
 31 32  1  0  0  0  0
 33 34  1  0  0  0  0
 33  1  1  0  0  0  0
 36 35  2  0  0  0  0
 36 34  1  0  0  0  0
 37 45  1  0  0  0  0
 37 39  1  0  0  0  0
 38 42  1  0  0  0  0
 38 41  1  0  0  0  0
 39 36  1  1  0  0  0
 40 39  1  0  0  0  0
 41 40  2  0  0  0  0
 42 37  1  0  0  0  0
 43 41  1  0  0  0  0
 44 43  3  0  0  0  0
 46 45  1  0  0  0  0
 47 48  1  0  0  0  0
 48 46  1  0  0  0  0
 49 47  1  0  0  0  0
 49 48  1  0  0  0  0
M  END
>  <MODEL>
8

>  <REMARK>
 VINA RESULT:      -7.2      2.593     11.408
  Name = 
  16 active torsions:
  status: ('A' for Active; 'I' for Inactive)
    1  A    between atoms: C_1  and  C_46
    2  A    between atoms: N_3  and  C_44
    3  A    between atoms: N_6  and  N_16
    4  A    between atoms: N_6  and  C_18
    5  A    between atoms: N_7  and  C_25
    6  A    between atoms: C_11  and  C_23
    7  A    between atoms: C_11  and  N_28
    8  A    between atoms: C_12  and  C_45
    9  A    between atoms: C_18  and  C_22
   10  A    between atoms: C_18  and  N_28
   11  A    between atoms: C_20  and  C_48
   12  A    between atoms: C_22  and  C_40
   13  A    between atoms: C_24  and  C_37
   14  A    between atoms: C_25  and  C_48
   15  A    between atoms: C_29  and  C_33
   16  A    between atoms: C_33  and  C_46
                            x       y       z     vdW  Elec       q    Type
                         _______ _______ _______ _____ _____    ______ ____

>  <TORSDO>
F 16

$$$$
=
 OpenBabel10222419243D

 49 54  0  0  1  0  0  0  0  0999 V2000
  191.7200  177.2820  139.9210 C   0  0  2  0  0  3  0  0  0  0  0  0
  192.3630  176.9720  141.2760 C   0  0  0  0  0  2  0  0  0  0  0  0
  190.0330  177.9680  144.7450 C   0  0  1  0  0  3  0  0  0  0  0  0
  191.1940  178.9150  144.4490 C   0  0  0  0  0  2  0  0  0  0  0  0
  191.7180  178.7290  143.0210 C   0  0  0  0  0  2  0  0  0  0  0  0
  191.4680  177.3170  142.4670 C   0  0  2  0  0  3  0  0  0  0  0  0
  190.4550  176.4940  144.6320 C   0  0  0  0  0  2  0  0  0  0  0  0
  191.5270  176.2470  143.5590 C   0  0  0  0  0  2  0  0  0  0  0  0
  189.4210  178.2680  146.1050 C   0  0  0  0  0  2  0  0  0  0  0  0
  188.1420  177.5160  146.3480 C   0  0  0  0  0  0  0  0  0  0  0  0
  188.1110  176.5720  147.1860 O   0  0  0  0  0  0  0  0  0  0  0  0
  185.7870  177.8490  143.4830 C   0  0  0  0  0  3  0  0  0  0  0  0
  186.8930  177.5890  144.2290 N   0  0  0  0  0  0  0  0  0  0  0  0
  184.6640  178.6560  145.4490 C   0  0  0  0  0  3  0  0  0  0  0  0
  186.9350  177.8410  145.5680 C   0  0  0  0  0  0  0  0  0  0  0  0
  185.8110  178.3930  146.2000 C   0  0  0  0  0  3  0  0  0  0  0  0
  184.6370  178.3900  144.0740 C   0  0  0  0  0  0  0  0  0  0  0  0
  183.4540  178.6520  143.2950 N   0  0  0  0  0  0  0  0  0  0  0  0
  181.2610  179.4390  141.8330 O   0  0  0  0  0  0  0  0  0  0  0  0
  182.1990  179.0010  143.9910 C   0  0  0  0  0  2  0  0  0  0  0  0
  180.9980  178.8230  143.0620 C   0  0  0  0  0  2  0  0  0  0  0  0
  182.1490  178.5740  141.1760 C   0  0  0  0  0  2  0  0  0  0  0  0
  183.5380  178.6600  141.8230 C   0  0  0  0  0  2  0  0  0  0  0  0
  190.2680  177.4260  140.0480 N   0  0  0  0  0  2  0  0  0  0  0  0
  189.6530  176.8440  138.8590 C   0  0  0  0  0  2  0  0  0  0  0  0
  187.4920  177.0070  137.5810 C   0  0  0  0  0  3  0  0  0  0  0  0
  186.4290  178.6240  139.5500 N   0  0  0  0  0  0  0  0  0  0  0  0
  187.7100  178.1840  139.6750 C   0  0  0  0  0  3  0  0  0  0  0  0
  188.2680  177.3660  138.6890 C   0  0  0  0  0  0  0  0  0  0  0  0
  186.1810  177.4710  137.4700 C   0  0  0  0  0  3  0  0  0  0  0  0
  185.6600  178.2860  138.4800 C   0  0  0  0  0  0  0  0  0  0  0  0
  184.3220  178.7620  138.3860 N   0  0  0  0  0  1  0  0  0  0  0  0
  192.0500  176.2560  138.9210 N   0  0  0  0  0  2  0  0  0  0  0  0
  192.9050  176.8040  137.9420 N   0  0  0  0  0  2  0  0  0  0  0  0
  194.5300  176.4680  136.3180 O   0  0  0  0  0  0  0  0  0  0  0  0
  193.9180  176.0070  137.3220 C   0  0  0  0  0  0  0  0  0  0  0  0
  194.9540  173.7180  136.9980 N   0  0  0  0  0  0  0  0  0  0  0  0
  197.1870  174.2670  137.8590 C   0  0  0  0  0  2  0  0  0  0  0  0
  194.2890  174.6620  137.9240 C   0  0  1  0  0  3  0  0  0  0  0  0
  195.1420  174.8790  139.1390 C   0  0  0  0  0  3  0  0  0  0  0  0
  196.4720  174.7580  139.0940 C   0  0  0  0  0  0  0  0  0  0  0  0
  196.2760  174.2250  136.6260 C   0  0  0  0  0  2  0  0  0  0  0  0
  197.2420  175.0350  140.2750 C   0  0  0  0  0  0  0  0  0  0  0  0
  197.8810  175.2550  141.2770 C   0  0  0  0  0  3  0  0  0  0  0  0
  194.1520  173.5290  135.7900 C   0  0  0  0  0  2  0  0  0  0  0  0
  192.8390  172.8470  136.1530 C   0  0  0  0  0  2  0  0  0  0  0  0
  190.4210  172.7590  135.6740 C   0  0  0  0  0  2  0  0  0  0  0  0
  191.6570  173.6360  135.6090 C   0  0  0  0  0  3  0  0  0  0  0  0
  190.6350  173.8380  136.7130 C   0  0  0  0  0  2  0  0  0  0  0  0
  1 24  1  0  0  0  0
  1  2  1  1  0  0  0
  3  9  1  1  0  0  0
  4  3  1  0  0  0  0
  5  4  1  0  0  0  0
  6  2  1  6  0  0  0
  6  5  1  0  0  0  0
  6  8  1  0  0  0  0
  7  3  1  0  0  0  0
  8  7  1  0  0  0  0
  9 10  1  0  0  0  0
 10 11  2  0  0  0  0
 12 17  2  0  0  0  0
 12 13  1  0  0  0  0
 13 15  2  0  0  0  0
 14 16  2  0  0  0  0
 15 16  1  0  0  0  0
 15 10  1  0  0  0  0
 17 14  1  0  0  0  0
 18 20  1  0  0  0  0
 18 17  1  0  0  0  0
 19 21  1  0  0  0  0
 21 20  1  0  0  0  0
 22 23  1  0  0  0  0
 22 19  1  0  0  0  0
 23 18  1  0  0  0  0
 25 24  1  0  0  0  0
 26 29  1  0  0  0  0
 27 28  1  0  0  0  0
 29 25  1  0  0  0  0
 29 28  2  0  0  0  0
 30 26  2  0  0  0  0
 30 31  1  0  0  0  0
 31 27  2  0  0  0  0
 32 31  1  0  0  0  0
 33  1  1  0  0  0  0
 34 33  1  0  0  0  0
 35 36  2  0  0  0  0
 36 34  1  0  0  0  0
 37 39  1  0  0  0  0
 38 41  1  0  0  0  0
 39 36  1  6  0  0  0
 39 40  1  0  0  0  0
 41 40  2  0  0  0  0
 41 43  1  0  0  0  0
 42 37  1  0  0  0  0
 42 38  1  0  0  0  0
 43 44  3  0  0  0  0
 45 46  1  0  0  0  0
 45 37  1  0  0  0  0
 47 49  1  0  0  0  0
 48 47  1  0  0  0  0
 48 46  1  0  0  0  0
 48 49  1  0  0  0  0
M  END
>  <MODEL>
9

>  <REMARK>
 VINA RESULT:      -7.1      2.035      2.820
  Name = 
  16 active torsions:
  status: ('A' for Active; 'I' for Inactive)
    1  A    between atoms: C_1  and  C_46
    2  A    between atoms: N_3  and  C_44
    3  A    between atoms: N_6  and  N_16
    4  A    between atoms: N_6  and  C_18
    5  A    between atoms: N_7  and  C_25
    6  A    between atoms: C_11  and  C_23
    7  A    between atoms: C_11  and  N_28
    8  A    between atoms: C_12  and  C_45
    9  A    between atoms: C_18  and  C_22
   10  A    between atoms: C_18  and  N_28
   11  A    between atoms: C_20  and  C_48
   12  A    between atoms: C_22  and  C_40
   13  A    between atoms: C_24  and  C_37
   14  A    between atoms: C_25  and  C_48
   15  A    between atoms: C_29  and  C_33
   16  A    between atoms: C_33  and  C_46
                            x       y       z     vdW  Elec       q    Type
                         _______ _______ _______ _____ _____    ______ ____

>  <TORSDO>
F 16

$$$$
