=
 OpenBabel10222418483D

 68 74  0  0  1  0  0  0  0  0999 V2000
  189.1090  177.4560  138.0650 C   0  0  0  0  0  3  0  0  0  0  0  0
  194.0340  175.5300  138.1770 N   0  0  0  0  0  0  0  0  0  0  0  0
  191.0580  176.1460  140.8650 F   0  0  0  0  0  0  0  0  0  0  0  0
  192.7270  174.9650  136.1900 C   0  0  0  0  0  0  0  0  0  0  0  0
  189.4400  177.0080  139.3440 C   0  0  0  0  0  0  0  0  0  0  0  0
  193.0600  175.9690  138.9230 C   0  0  0  0  0  3  0  0  0  0  0  0
  191.2140  176.6060  137.2250 C   0  0  0  0  0  0  0  0  0  0  0  0
  190.0040  177.2760  137.0080 C   0  0  0  0  0  0  0  0  0  0  0  0
  191.9100  176.1130  136.0860 N   0  0  0  0  0  2  0  0  0  0  0  0
  194.0860  175.1890  136.7480 C   0  0  1  0  0  3  0  0  0  0  0  0
  192.0190  173.4990  136.4260 S   0  0  0  0  0  0  0  0  0  0  0  0
  190.7230  176.4940  139.5890 C   0  0  0  0  0  0  0  0  0  0  0  0
  191.6580  176.3370  138.5460 C   0  0  0  0  0  0  0  0  0  0  0  0
  188.4580  177.0060  140.3390 O   0  0  0  0  0  0  0  0  0  0  0  0
  188.6340  177.6520  141.5910 C   0  0  0  0  0  2  0  0  0  0  0  0
  188.3620  179.1310  141.4690 C   0  0  0  0  0  2  0  0  0  0  0  0
  186.8960  179.3950  141.7780 C   0  0  0  0  0  2  0  0  0  0  0  0
  186.0620  178.1810  141.3740 C   0  0  0  0  0  2  0  0  0  0  0  0
  185.1730  177.7710  142.4580 N   0  0  0  0  0  2  0  0  0  0  0  0
  185.1740  178.7280  144.7040 C   0  0  0  0  0  0  0  0  0  0  0  0
  185.5850  177.8420  143.8230 C   0  0  0  0  0  0  0  0  0  0  0  0
  186.8840  177.4100  145.6680 N   0  0  0  0  0  0  0  0  0  0  0  0
  186.5490  177.0380  144.3790 O   0  0  0  0  0  0  0  0  0  0  0  0
  186.0080  178.5680  145.9390 C   0  0  2  0  0  3  0  0  0  0  0  0
  185.1290  178.2730  147.1370 C   0  0  0  0  0  1  0  0  0  0  0  0
  184.3040  179.8890  144.3900 C   0  0  0  0  0  2  0  0  0  0  0  0
  182.8520  179.4990  144.4570 C   0  0  0  0  0  1  0  0  0  0  0  0
  188.2770  177.8660  145.6040 C   0  0  0  0  0  2  0  0  0  0  0  0
  189.1170  177.3950  146.8080 C   0  0  0  0  0  0  0  0  0  0  0  0
  189.2370  178.5320  147.7960 C   0  0  0  0  0  1  0  0  0  0  0  0
  190.5230  177.0110  146.3740 C   0  0  0  0  0  1  0  0  0  0  0  0
  188.5230  176.2940  147.4270 O   0  0  0  0  0  1  0  0  0  0  0  0
  194.8820  176.2360  135.9300 C   0  0  0  0  0  2  0  0  0  0  0  0
  197.2270  175.3050  135.6210 C   0  0  2  0  0  0  0  0  0  0  0  0
  195.9020  175.5540  134.9980 C   0  0  2  0  0  3  0  0  0  0  0  0
  197.1990  176.8160  134.6010 S   0  0  0  0  0  0  0  0  0  0  0  0
  198.0660  174.3420  135.0550 O   0  0  0  0  0  1  0  0  0  0  0  0
  197.3980  175.5550  137.0480 N   0  0  0  0  0  1  0  0  0  0  0  0
  189.5920  177.9850  135.4190 S   0  0  0  0  0  0  0  0  0  0  0  0
  186.9610  174.9040  135.5590 C   0  0  0  0  0  3  0  0  0  0  0  0
  185.7580  175.5000  135.2050 C   0  0  0  0  0  0  0  0  0  0  0  0
  188.1520  175.6240  135.4660 C   0  0  0  0  0  3  0  0  0  0  0  0
  188.1610  176.9570  135.0230 C   0  0  0  0  0  0  0  0  0  0  0  0
  186.9510  177.5510  134.6570 C   0  0  0  0  0  3  0  0  0  0  0  0
  185.7520  176.8320  134.7540 C   0  0  0  0  0  3  0  0  0  0  0  0
  184.6330  173.7990  136.6240 N   0  0  1  0  0  0  0  0  0  0  0  0
  183.7900  173.1190  135.6190 C   0  0  2  0  0  0  0  0  0  0  0  0
  184.4820  174.9190  135.6950 C   0  0  2  0  0  3  0  0  0  0  0  0
  183.7830  174.2030  134.7240 O   0  0  0  0  0  0  0  0  0  0  0  0
  183.3200  173.2570  137.0170 C   0  0  2  0  0  3  0  0  0  0  0  0
  184.4230  171.9470  135.1960 O   0  0  0  0  0  1  0  0  0  0  0  0
  182.3150  174.3590  137.2080 C   0  0  0  0  0  3  0  0  0  0  0  0
  182.4100  175.1980  138.2440 C   0  0  0  0  0  3  0  0  0  0  0  0
  181.6220  177.5330  138.1090 C   0  0  0  0  0  0  0  0  0  0  0  0
  181.4080  176.1770  138.5490 N   0  0  0  0  0  0  0  0  0  0  0  0
  181.7590  177.7530  136.8750 O   0  0  0  0  0  0  0  0  0  0  0  0
  180.0320  175.6570  138.6440 C   0  0  1  0  0  3  0  0  0  0  0  0
  179.6220  175.0130  137.4500 O   0  0  0  0  0  1  0  0  0  0  0  0
  179.8440  174.8940  139.8310 O   0  0  0  0  0  0  0  0  0  0  0  0
  178.9360  173.8490  139.5850 C   0  0  0  0  0  1  0  0  0  0  0  0
  181.4930  178.6610  139.0930 C   0  0  1  0  0  3  0  0  0  0  0  0
  180.7200  179.8080  138.4990 C   0  0  0  0  0  0  0  0  0  0  0  0
  179.6880  179.5990  137.8750 O   0  0  0  0  0  0  0  0  0  0  0  0
  181.2880  181.1980  138.5900 C   0  0  2  0  0  3  0  0  0  0  0  0
  180.7150  182.0760  137.5020 C   0  0  0  0  0  1  0  0  0  0  0  0
  182.6590  181.1800  138.4850 F   0  0  0  0  0  0  0  0  0  0  0  0
  181.5200  178.6660  141.5860 C   0  0  0  0  0  2  0  0  0  0  0  0
  180.9150  178.2860  140.4360 C   0  0  0  0  0  3  0  0  0  0  0  0
  1  5  1  0  0  0  0
  2  6  2  0  0  0  0
  4 11  2  0  0  0  0
  4 10  1  0  0  0  0
  5 12  2  0  0  0  0
  5 14  1  0  0  0  0
  7 13  2  0  0  0  0
  8  7  1  0  0  0  0
  8  1  2  0  0  0  0
  9  4  1  0  0  0  0
  9  7  1  0  0  0  0
 10 33  1  6  0  0  0
 10  2  1  0  0  0  0
 12  3  1  0  0  0  0
 13  6  1  0  0  0  0
 13 12  1  0  0  0  0
 14 15  1  0  0  0  0
 16 15  1  0  0  0  0
 16 17  1  0  0  0  0
 18 17  1  0  0  0  0
 18 19  1  0  0  0  0
 19 21  1  0  0  0  0
 20 24  1  0  0  0  0
 21 23  1  0  0  0  0
 21 20  2  0  0  0  0
 22 24  1  0  0  0  0
 23 22  1  0  0  0  0
 24 25  1  1  0  0  0
 26 27  1  0  0  0  0
 26 20  1  0  0  0  0
 28 22  1  0  0  0  0
 28 29  1  0  0  0  0
 29 32  1  0  0  0  0
 29 30  1  0  0  0  0
 31 29  1  0  0  0  0
 34 37  1  6  0  0  0
 34 38  1  0  0  0  0
 35 34  1  0  0  0  0
 35 33  1  1  0  0  0
 36 35  1  0  0  0  0
 36 34  1  0  0  0  0
 39  8  1  0  0  0  0
 41 40  2  0  0  0  0
 41 48  1  0  0  0  0
 42 40  1  0  0  0  0
 43 39  1  0  0  0  0
 43 42  2  0  0  0  0
 44 45  2  0  0  0  0
 44 43  1  0  0  0  0
 45 41  1  0  0  0  0
 46 50  1  0  0  0  0
 47 46  1  0  0  0  0
 47 50  1  0  0  0  0
 48 46  1  0  0  0  0
 49 47  1  0  0  0  0
 49 48  1  0  0  0  0
 50 52  1  0  0  0  0
 51 47  1  0  0  0  0
 52 53  2  0  0  0  0
 53 55  1  0  0  0  0
 54 55  1  0  0  0  0
 54 61  1  0  0  0  0
 55 57  1  0  0  0  0
 56 54  2  0  0  0  0
 57 59  1  0  0  0  0
 58 57  1  0  0  0  0
 60 59  1  0  0  0  0
 61 68  1  0  0  0  0
 62 64  1  0  0  0  0
 62 61  1  0  0  0  0
 63 62  2  0  0  0  0
 65 64  1  0  0  0  0
 66 64  1  0  0  0  0
 68 67  2  0  0  0  0
M  END
>  <MODEL>
1

>  <REMARK>
 VINA RESULT:      -6.0      0.000      0.000
  Name = 
  23 active torsions:
  status: ('A' for Active; 'I' for Inactive)
    1  A    between atoms: C_1  and  C_18
    2  A    between atoms: O_6  and  C_53
    3  A    between atoms: C_7  and  C_9
    4  A    between atoms: C_7  and  C_60
    5  A    between atoms: C_8  and  C_38
    6  A    between atoms: C_9  and  C_44
    7  A    between atoms: C_11  and  C_59
    8  A    between atoms: C_12  and  C_28
    9  A    between atoms: C_15  and  C_17
   10  A    between atoms: C_17  and  C_18
   11  A    between atoms: C_17  and  C_51
   12  A    between atoms: C_21  and  C_45
   13  A    between atoms: C_22  and  S_68
   14  A    between atoms: O_23  and  C_40
   15  A    between atoms: O_23  and  C_60
   16  A    between atoms: C_24  and  C_29
   17  A    between atoms: C_26  and  N_43
   18  A    between atoms: C_29  and  C_56
   19  A    between atoms: C_36  and  N_41
   20  A    between atoms: N_37  and  C_59
   21  A    between atoms: N_41  and  C_44
   22  A    between atoms: N_43  and  C_53
   23  A    between atoms: C_52  and  S_68
                            x       y       z     vdW  Elec       q    Type
                         _______ _______ _______ _____ _____    ______ ____

>  <TORSDO>
F 23

$$$$
=
 OpenBabel10222418483D

 68 74  0  0  1  0  0  0  0  0999 V2000
  189.1580  177.6100  138.4390 C   0  0  0  0  0  3  0  0  0  0  0  0
  194.0340  175.6000  138.0370 N   0  0  0  0  0  0  0  0  0  0  0  0
  191.3170  176.1490  141.0000 F   0  0  0  0  0  0  0  0  0  0  0  0
  192.5470  175.1420  136.1510 C   0  0  0  0  0  0  0  0  0  0  0  0
  189.5910  177.1020  139.6650 C   0  0  0  0  0  0  0  0  0  0  0  0
  193.1380  176.0220  138.8830 C   0  0  0  0  0  3  0  0  0  0  0  0
  191.1640  176.7630  137.3820 C   0  0  0  0  0  0  0  0  0  0  0  0
  189.9540  177.4610  137.3010 C   0  0  0  0  0  0  0  0  0  0  0  0
  191.7480  176.3080  136.1670 N   0  0  0  0  0  2  0  0  0  0  0  0
  193.9540  175.3200  136.5950 C   0  0  1  0  0  3  0  0  0  0  0  0
  191.8320  173.6800  136.3870 S   0  0  0  0  0  0  0  0  0  0  0  0
  190.8800  176.5580  139.7740 C   0  0  0  0  0  0  0  0  0  0  0  0
  191.7160  176.4300  138.6470 C   0  0  0  0  0  0  0  0  0  0  0  0
  188.7000  177.0740  140.7410 O   0  0  0  0  0  0  0  0  0  0  0  0
  188.4300  178.2130  141.5440 C   0  0  0  0  0  2  0  0  0  0  0  0
  187.3660  179.0730  140.9060 C   0  0  0  0  0  2  0  0  0  0  0  0
  186.0450  178.8440  141.6250 C   0  0  0  0  0  2  0  0  0  0  0  0
  186.1970  177.6940  142.6180 C   0  0  0  0  0  2  0  0  0  0  0  0
  185.9150  178.1370  143.9820 N   0  0  0  0  0  0  0  0  0  0  0  0
  186.6750  178.2610  146.2980 C   0  0  1  0  0  3  0  0  0  0  0  0
  186.8310  177.8870  145.0470 C   0  0  0  0  0  0  0  0  0  0  0  0
  188.8240  177.3100  146.0350 N   0  0  0  0  0  0  0  0  0  0  0  0
  188.0590  177.2920  144.8840 O   0  0  0  0  0  0  0  0  0  0  0  0
  187.9560  177.9790  147.0250 C   0  0  2  0  0  3  0  0  0  0  0  0
  187.7070  177.0500  148.1950 C   0  0  0  0  0  1  0  0  0  0  0  0
  185.5720  179.1250  146.7890 C   0  0  0  0  0  2  0  0  0  0  0  0
  184.2430  178.6240  146.2900 C   0  0  0  0  0  1  0  0  0  0  0  0
  189.9710  178.1760  145.7390 C   0  0  0  0  0  2  0  0  0  0  0  0
  191.0990  177.4400  144.9880 C   0  0  0  0  0  0  0  0  0  0  0  0
  191.7170  178.3860  143.9840 C   0  0  0  0  0  1  0  0  0  0  0  0
  190.5540  176.2460  144.2210 C   0  0  0  0  0  1  0  0  0  0  0  0
  192.0780  176.9920  145.8780 O   0  0  0  0  0  1  0  0  0  0  0  0
  194.6970  176.3880  135.7540 C   0  0  0  0  0  2  0  0  0  0  0  0
  196.3940  174.5760  135.2090 C   0  0  2  0  0  0  0  0  0  0  0  0
  196.1750  176.0040  135.5510 C   0  0  2  0  0  3  0  0  0  0  0  0
  196.6550  174.9280  136.9790 S   0  0  0  0  0  0  0  0  0  0  0  0
  197.5940  174.2070  134.5960 O   0  0  0  0  0  1  0  0  0  0  0  0
  195.2400  173.7270  134.9370 N   0  0  0  0  0  1  0  0  0  0  0  0
  189.4190  178.2450  135.7850 S   0  0  0  0  0  0  0  0  0  0  0  0
  186.7800  175.1810  136.0700 C   0  0  0  0  0  3  0  0  0  0  0  0
  185.6120  175.7200  135.5470 C   0  0  0  0  0  0  0  0  0  0  0  0
  187.9760  175.8940  135.9930 C   0  0  0  0  0  3  0  0  0  0  0  0
  188.0250  177.1650  135.3960 C   0  0  0  0  0  0  0  0  0  0  0  0
  186.8520  177.7000  134.8590 C   0  0  0  0  0  3  0  0  0  0  0  0
  185.6480  176.9890  134.9400 C   0  0  0  0  0  3  0  0  0  0  0  0
  184.3720  174.1240  136.9900 N   0  0  1  0  0  0  0  0  0  0  0  0
  183.5730  173.4030  135.9770 C   0  0  2  0  0  0  0  0  0  0  0  0
  184.2980  175.1910  135.9920 C   0  0  2  0  0  3  0  0  0  0  0  0
  183.6420  174.4340  135.0240 O   0  0  0  0  0  0  0  0  0  0  0  0
  183.0270  173.6290  137.3350 C   0  0  2  0  0  3  0  0  0  0  0  0
  184.2050  172.1970  135.6590 O   0  0  0  0  0  1  0  0  0  0  0  0
  182.0360  174.7580  137.4040 C   0  0  0  0  0  3  0  0  0  0  0  0
  181.8760  175.4580  138.5320 C   0  0  0  0  0  3  0  0  0  0  0  0
  181.2010  177.8300  138.4610 C   0  0  0  0  0  0  0  0  0  0  0  0
  180.8540  176.4500  138.6950 N   0  0  0  0  0  0  0  0  0  0  0  0
  181.6310  178.1600  137.3230 O   0  0  0  0  0  0  0  0  0  0  0  0
  179.4830  175.9910  138.4110 C   0  0  1  0  0  3  0  0  0  0  0  0
  179.2570  175.8100  137.0240 O   0  0  0  0  0  1  0  0  0  0  0  0
  179.1260  174.8800  139.2270 O   0  0  0  0  0  0  0  0  0  0  0  0
  179.1750  175.2510  140.5820 C   0  0  0  0  0  1  0  0  0  0  0  0
  180.8690  178.8640  139.4990 C   0  0  1  0  0  3  0  0  0  0  0  0
  181.7130  178.6790  140.7320 C   0  0  0  0  0  0  0  0  0  0  0  0
  182.8690  178.2900  140.6360 O   0  0  0  0  0  0  0  0  0  0  0  0
  181.0840  178.8750  142.0850 C   0  0  2  0  0  3  0  0  0  0  0  0
  182.1480  179.0770  143.1380 C   0  0  0  0  0  1  0  0  0  0  0  0
  180.3020  177.7980  142.4280 F   0  0  0  0  0  0  0  0  0  0  0  0
  180.1230  181.2430  139.5530 C   0  0  0  0  0  2  0  0  0  0  0  0
  180.9400  180.2970  139.0320 C   0  0  0  0  0  3  0  0  0  0  0  0
  1  5  1  0  0  0  0
  2  6  2  0  0  0  0
  4  9  1  0  0  0  0
  4 11  2  0  0  0  0
  4 10  1  0  0  0  0
  5 12  2  0  0  0  0
  5 14  1  0  0  0  0
  7 13  2  0  0  0  0
  8  7  1  0  0  0  0
  8  1  2  0  0  0  0
  9  7  1  0  0  0  0
 10 33  1  6  0  0  0
 10  2  1  0  0  0  0
 12  3  1  0  0  0  0
 13  6  1  0  0  0  0
 13 12  1  0  0  0  0
 14 15  1  0  0  0  0
 16 15  1  0  0  0  0
 16 17  1  0  0  0  0
 17 18  1  0  0  0  0
 18 19  1  0  0  0  0
 19 21  2  0  0  0  0
 20 26  1  6  0  0  0
 20 24  1  0  0  0  0
 21 20  1  0  0  0  0
 22 24  1  0  0  0  0
 23 21  1  0  0  0  0
 23 22  1  0  0  0  0
 24 25  1  1  0  0  0
 27 26  1  0  0  0  0
 28 22  1  0  0  0  0
 29 28  1  0  0  0  0
 29 32  1  0  0  0  0
 30 29  1  0  0  0  0
 31 29  1  0  0  0  0
 34 37  1  6  0  0  0
 34 35  1  0  0  0  0
 34 36  1  0  0  0  0
 35 33  1  1  0  0  0
 35 36  1  0  0  0  0
 38 34  1  0  0  0  0
 39  8  1  0  0  0  0
 41 48  1  0  0  0  0
 41 40  2  0  0  0  0
 42 40  1  0  0  0  0
 43 39  1  0  0  0  0
 43 42  2  0  0  0  0
 44 45  2  0  0  0  0
 44 43  1  0  0  0  0
 45 41  1  0  0  0  0
 46 50  1  0  0  0  0
 47 46  1  0  0  0  0
 47 50  1  0  0  0  0
 48 46  1  0  0  0  0
 49 47  1  0  0  0  0
 49 48  1  0  0  0  0
 50 52  1  0  0  0  0
 51 47  1  0  0  0  0
 52 53  2  0  0  0  0
 53 55  1  0  0  0  0
 54 55  1  0  0  0  0
 54 61  1  0  0  0  0
 56 54  2  0  0  0  0
 57 55  1  0  0  0  0
 57 59  1  0  0  0  0
 58 57  1  0  0  0  0
 59 60  1  0  0  0  0
 61 62  1  0  0  0  0
 62 64  1  0  0  0  0
 63 62  2  0  0  0  0
 64 66  1  0  0  0  0
 64 65  1  0  0  0  0
 68 61  1  0  0  0  0
 68 67  2  0  0  0  0
M  END
>  <MODEL>
2

>  <REMARK>
 VINA RESULT:      -5.3      1.484      2.020
  Name = 
  23 active torsions:
  status: ('A' for Active; 'I' for Inactive)
    1  A    between atoms: C_1  and  C_18
    2  A    between atoms: O_6  and  C_53
    3  A    between atoms: C_7  and  C_9
    4  A    between atoms: C_7  and  C_60
    5  A    between atoms: C_8  and  C_38
    6  A    between atoms: C_9  and  C_44
    7  A    between atoms: C_11  and  C_59
    8  A    between atoms: C_12  and  C_28
    9  A    between atoms: C_15  and  C_17
   10  A    between atoms: C_17  and  C_18
   11  A    between atoms: C_17  and  C_51
   12  A    between atoms: C_21  and  C_45
   13  A    between atoms: C_22  and  S_68
   14  A    between atoms: O_23  and  C_40
   15  A    between atoms: O_23  and  C_60
   16  A    between atoms: C_24  and  C_29
   17  A    between atoms: C_26  and  N_43
   18  A    between atoms: C_29  and  C_56
   19  A    between atoms: C_36  and  N_41
   20  A    between atoms: N_37  and  C_59
   21  A    between atoms: N_41  and  C_44
   22  A    between atoms: N_43  and  C_53
   23  A    between atoms: C_52  and  S_68
                            x       y       z     vdW  Elec       q    Type
                         _______ _______ _______ _____ _____    ______ ____

>  <TORSDO>
F 23

$$$$
=
 OpenBabel10222418483D

 68 74  0  0  1  0  0  0  0  0999 V2000
  186.9980  177.9370  141.7330 C   0  0  0  0  0  3  0  0  0  0  0  0
  192.0010  176.8590  143.0700 N   0  0  0  0  0  0  0  0  0  0  0  0
  189.9570  177.5190  139.6280 F   0  0  0  0  0  0  0  0  0  0  0  0
  190.8020  178.3510  144.5910 C   0  0  0  0  0  0  0  0  0  0  0  0
  187.8230  177.9230  140.6070 C   0  0  0  0  0  0  0  0  0  0  0  0
  191.1660  176.9000  142.0710 C   0  0  0  0  0  3  0  0  0  0  0  0
  188.9360  177.6410  143.1540 C   0  0  0  0  0  0  0  0  0  0  0  0
  187.5500  177.7740  143.0050 C   0  0  0  0  0  0  0  0  0  0  0  0
  189.4850  177.8570  144.4480 N   0  0  0  0  0  2  0  0  0  0  0  0
  191.8860  177.3430  144.4540 C   0  0  1  0  0  3  0  0  0  0  0  0
  191.1240  179.9060  144.1640 S   0  0  0  0  0  0  0  0  0  0  0  0
  189.1860  177.6160  140.7500 C   0  0  0  0  0  0  0  0  0  0  0  0
  189.7590  177.4110  142.0200 C   0  0  0  0  0  0  0  0  0  0  0  0
  187.2910  178.2920  139.3690 O   0  0  0  0  0  0  0  0  0  0  0  0
  187.5160  177.5440  138.1830 C   0  0  0  0  0  2  0  0  0  0  0  0
  186.9740  178.2790  136.9810 C   0  0  0  0  0  2  0  0  0  0  0  0
  185.4870  177.9890  136.8480 C   0  0  0  0  0  2  0  0  0  0  0  0
  185.2870  176.7240  136.0150 C   0  0  0  0  0  2  0  0  0  0  0  0
  185.3300  175.5290  136.8550 N   0  0  0  0  0  2  0  0  0  0  0  0
  186.1160  173.2200  136.9330 C   0  0  0  0  0  0  0  0  0  0  0  0
  186.2730  174.4860  136.6130 C   0  0  0  0  0  0  0  0  0  0  0  0
  188.3060  173.5460  136.1020 N   0  0  0  0  0  0  0  0  0  0  0  0
  187.5260  174.6870  136.0870 O   0  0  0  0  0  0  0  0  0  0  0  0
  187.4200  172.5210  136.6910 C   0  0  2  0  0  3  0  0  0  0  0  0
  187.2350  171.3830  135.7080 C   0  0  0  0  0  1  0  0  0  0  0  0
  184.9800  172.6840  137.7230 C   0  0  0  0  0  2  0  0  0  0  0  0
  183.9150  172.1310  136.8130 C   0  0  0  0  0  1  0  0  0  0  0  0
  189.4040  173.8250  137.0350 C   0  0  0  0  0  2  0  0  0  0  0  0
  190.6970  174.2670  136.3210 C   0  0  0  0  0  0  0  0  0  0  0  0
  191.2270  175.5120  136.9950 C   0  0  0  0  0  1  0  0  0  0  0  0
  190.4260  174.6100  134.8650 C   0  0  0  0  0  1  0  0  0  0  0  0
  191.6620  173.2580  136.3720 O   0  0  0  0  0  1  0  0  0  0  0  0
  191.7270  176.1800  145.4650 C   0  0  0  0  0  2  0  0  0  0  0  0
  192.3400  176.2600  147.9300 C   0  0  2  0  0  0  0  0  0  0  0  0
  191.4000  176.7110  146.8740 C   0  0  2  0  0  3  0  0  0  0  0  0
  190.8120  175.2660  147.8720 S   0  0  0  0  0  0  0  0  0  0  0  0
  192.4120  176.9860  149.1220 O   0  0  0  0  0  1  0  0  0  0  0  0
  193.5400  175.5260  147.5460 N   0  0  0  0  0  1  0  0  0  0  0  0
  186.4380  177.6660  144.4020 S   0  0  0  0  0  0  0  0  0  0  0  0
  183.6230  178.8400  141.7320 C   0  0  0  0  0  3  0  0  0  0  0  0
  182.5400  179.1650  142.5370 C   0  0  0  0  0  0  0  0  0  0  0  0
  184.8580  178.5410  142.3070 C   0  0  0  0  0  3  0  0  0  0  0  0
  185.0310  178.5540  143.7020 C   0  0  0  0  0  0  0  0  0  0  0  0
  183.9430  178.8930  144.5090 C   0  0  0  0  0  3  0  0  0  0  0  0
  182.7000  179.1890  143.9350 C   0  0  0  0  0  3  0  0  0  0  0  0
  180.2880  180.1870  142.3150 N   0  0  1  0  0  0  0  0  0  0  0  0
  179.4410  179.1050  142.8600 C   0  0  2  0  0  0  0  0  0  0  0  0
  181.1630  179.0620  141.9900 C   0  0  2  0  0  3  0  0  0  0  0  0
  180.3840  178.0910  142.6160 O   0  0  0  0  0  0  0  0  0  0  0  0
  178.9320  179.9760  141.7750 C   0  0  2  0  0  3  0  0  0  0  0  0
  179.1330  179.3820  144.1940 O   0  0  0  0  0  1  0  0  0  0  0  0
  178.9860  179.3370  140.4150 C   0  0  0  0  0  3  0  0  0  0  0  0
  179.9290  178.4350  140.1210 C   0  0  0  0  0  3  0  0  0  0  0  0
  181.0320  178.5620  137.9170 C   0  0  0  0  0  0  0  0  0  0  0  0
  180.1090  177.8980  138.8040 N   0  0  0  0  0  0  0  0  0  0  0  0
  182.2390  178.6630  138.2660 O   0  0  0  0  0  0  0  0  0  0  0  0
  179.9170  176.4420  138.6890 C   0  0  1  0  0  3  0  0  0  0  0  0
  179.0070  176.1040  137.6550 O   0  0  0  0  0  1  0  0  0  0  0  0
  181.1620  175.7530  138.6400 O   0  0  0  0  0  0  0  0  0  0  0  0
  181.0340  174.5980  137.8500 C   0  0  0  0  0  1  0  0  0  0  0  0
  180.5850  178.9460  136.5350 C   0  0  1  0  0  3  0  0  0  0  0  0
  180.6210  180.4400  136.3530 C   0  0  0  0  0  0  0  0  0  0  0  0
  181.1620  180.9300  135.3710 O   0  0  0  0  0  0  0  0  0  0  0  0
  180.0790  181.3220  137.4440 C   0  0  2  0  0  3  0  0  0  0  0  0
  181.1080  181.5070  138.5350 C   0  0  0  0  0  1  0  0  0  0  0  0
  178.9310  180.7920  137.9860 F   0  0  0  0  0  0  0  0  0  0  0  0
  181.0610  176.9810  135.0760 C   0  0  0  0  0  2  0  0  0  0  0  0
  181.3210  178.2680  135.4050 C   0  0  0  0  0  3  0  0  0  0  0  0
  1  8  1  0  0  0  0
  2 10  1  0  0  0  0
  3 12  1  0  0  0  0
  5 12  1  0  0  0  0
  5  1  2  0  0  0  0
  6  2  2  0  0  0  0
  7  9  1  0  0  0  0
  8  7  2  0  0  0  0
  8 39  1  0  0  0  0
  9  4  1  0  0  0  0
 10  4  1  0  0  0  0
 10 33  1  1  0  0  0
 11  4  2  0  0  0  0
 12 13  2  0  0  0  0
 13  6  1  0  0  0  0
 13  7  1  0  0  0  0
 14  5  1  0  0  0  0
 15 14  1  0  0  0  0
 16 15  1  0  0  0  0
 17 16  1  0  0  0  0
 18 17  1  0  0  0  0
 18 19  1  0  0  0  0
 20 26  1  0  0  0  0
 21 19  1  0  0  0  0
 21 20  2  0  0  0  0
 22 24  1  0  0  0  0
 22 28  1  0  0  0  0
 23 22  1  0  0  0  0
 23 21  1  0  0  0  0
 24 25  1  6  0  0  0
 24 20  1  0  0  0  0
 27 26  1  0  0  0  0
 29 32  1  0  0  0  0
 29 30  1  0  0  0  0
 29 28  1  0  0  0  0
 31 29  1  0  0  0  0
 34 38  1  6  0  0  0
 34 37  1  0  0  0  0
 35 33  1  6  0  0  0
 35 36  1  0  0  0  0
 35 34  1  0  0  0  0
 36 34  1  0  0  0  0
 40 42  2  0  0  0  0
 40 41  1  0  0  0  0
 41 45  2  0  0  0  0
 42 43  1  0  0  0  0
 43 39  1  0  0  0  0
 43 44  2  0  0  0  0
 45 44  1  0  0  0  0
 46 47  1  0  0  0  0
 47 51  1  0  0  0  0
 48 46  1  0  0  0  0
 48 41  1  0  0  0  0
 48 49  1  0  0  0  0
 49 47  1  0  0  0  0
 50 46  1  0  0  0  0
 50 47  1  0  0  0  0
 52 50  1  0  0  0  0
 53 52  2  0  0  0  0
 54 56  2  0  0  0  0
 54 55  1  0  0  0  0
 55 53  1  0  0  0  0
 57 55  1  0  0  0  0
 58 57  1  0  0  0  0
 59 57  1  0  0  0  0
 60 59  1  0  0  0  0
 61 54  1  0  0  0  0
 62 61  1  0  0  0  0
 62 64  1  0  0  0  0
 63 62  2  0  0  0  0
 64 66  1  0  0  0  0
 64 65  1  0  0  0  0
 67 68  2  0  0  0  0
 68 61  1  0  0  0  0
M  END
>  <MODEL>
3

>  <REMARK>
 VINA RESULT:      -4.2      3.551      8.181
  Name = 
  23 active torsions:
  status: ('A' for Active; 'I' for Inactive)
    1  A    between atoms: C_1  and  C_18
    2  A    between atoms: O_6  and  C_53
    3  A    between atoms: C_7  and  C_9
    4  A    between atoms: C_7  and  C_60
    5  A    between atoms: C_8  and  C_38
    6  A    between atoms: C_9  and  C_44
    7  A    between atoms: C_11  and  C_59
    8  A    between atoms: C_12  and  C_28
    9  A    between atoms: C_15  and  C_17
   10  A    between atoms: C_17  and  C_18
   11  A    between atoms: C_17  and  C_51
   12  A    between atoms: C_21  and  C_45
   13  A    between atoms: C_22  and  S_68
   14  A    between atoms: O_23  and  C_40
   15  A    between atoms: O_23  and  C_60
   16  A    between atoms: C_24  and  C_29
   17  A    between atoms: C_26  and  N_43
   18  A    between atoms: C_29  and  C_56
   19  A    between atoms: C_36  and  N_41
   20  A    between atoms: N_37  and  C_59
   21  A    between atoms: N_41  and  C_44
   22  A    between atoms: N_43  and  C_53
   23  A    between atoms: C_52  and  S_68
                            x       y       z     vdW  Elec       q    Type
                         _______ _______ _______ _____ _____    ______ ____

>  <TORSDO>
F 23

$$$$
=
 OpenBabel10222418483D

 68 74  0  0  1  0  0  0  0  0999 V2000
  191.5790  176.5170  137.8410 C   0  0  0  0  0  3  0  0  0  0  0  0
  196.5030  174.5860  137.7760 N   0  0  0  0  0  0  0  0  0  0  0  0
  194.2080  176.6970  140.3730 F   0  0  0  0  0  0  0  0  0  0  0  0
  194.8030  173.1740  136.7300 C   0  0  0  0  0  0  0  0  0  0  0  0
  192.2280  176.7670  139.0510 C   0  0  0  0  0  0  0  0  0  0  0  0
  195.7050  175.4120  138.3940 C   0  0  0  0  0  3  0  0  0  0  0  0
  193.4770  175.2140  137.0940 C   0  0  0  0  0  0  0  0  0  0  0  0
  192.2100  175.7590  136.8530 C   0  0  0  0  0  0  0  0  0  0  0  0
  193.9150  174.1600  136.2440 N   0  0  0  0  0  2  0  0  0  0  0  0
  196.2390  173.5580  136.7580 C   0  0  1  0  0  3  0  0  0  0  0  0
  194.2630  172.0900  137.8420 S   0  0  0  0  0  0  0  0  0  0  0  0
  193.5620  176.3640  139.2180 C   0  0  0  0  0  0  0  0  0  0  0  0
  194.2340  175.6310  138.2200 C   0  0  0  0  0  0  0  0  0  0  0  0
  191.5100  177.3430  140.1020 O   0  0  0  0  0  0  0  0  0  0  0  0
  190.1190  177.1260  140.2890 C   0  0  0  0  0  2  0  0  0  0  0  0
  189.3160  178.2090  139.6120 C   0  0  0  0  0  2  0  0  0  0  0  0
  187.8370  177.9720  139.8750 C   0  0  0  0  0  2  0  0  0  0  0  0
  187.3900  178.8120  141.0700 C   0  0  0  0  0  2  0  0  0  0  0  0
  186.3330  178.1380  141.8200 N   0  0  0  0  0  2  0  0  0  0  0  0
  185.5890  178.6820  144.0800 C   0  0  0  0  0  0  0  0  0  0  0  0
  186.3780  178.0440  143.2430 C   0  0  0  0  0  0  0  0  0  0  0  0
  187.2510  177.5300  145.3050 N   0  0  0  0  0  0  0  0  0  0  0  0
  187.3250  177.3330  143.9390 O   0  0  0  0  0  0  0  0  0  0  0  0
  186.1140  178.4570  145.4670 C   0  0  2  0  0  3  0  0  0  0  0  0
  185.0530  177.8150  146.3370 C   0  0  0  0  0  1  0  0  0  0  0  0
  184.5980  179.7140  143.6860 C   0  0  0  0  0  2  0  0  0  0  0  0
  183.1950  179.1990  143.8650 C   0  0  0  0  0  1  0  0  0  0  0  0
  188.4910  178.2210  145.6770 C   0  0  0  0  0  2  0  0  0  0  0  0
  189.2230  177.5460  146.8540 C   0  0  0  0  0  0  0  0  0  0  0  0
  190.2680  176.6020  146.3050 C   0  0  0  0  0  1  0  0  0  0  0  0
  188.2590  176.7260  147.6970 C   0  0  0  0  0  1  0  0  0  0  0  0
  189.8330  178.5000  147.6720 O   0  0  0  0  0  1  0  0  0  0  0  0
  196.7540  173.9800  135.3600 C   0  0  0  0  0  2  0  0  0  0  0  0
  198.0650  171.8050  135.4480 C   0  0  2  0  0  0  0  0  0  0  0  0
  197.3340  172.7750  134.5950 C   0  0  2  0  0  3  0  0  0  0  0  0
  199.1750  172.9710  134.5940 S   0  0  0  0  0  0  0  0  0  0  0  0
  198.2560  170.5030  134.9760 O   0  0  0  0  0  1  0  0  0  0  0  0
  198.0330  171.9690  136.8970 N   0  0  0  0  0  1  0  0  0  0  0  0
  191.3930  175.5800  135.2720 S   0  0  0  0  0  0  0  0  0  0  0  0
  187.4260  176.4080  135.1890 C   0  0  0  0  0  3  0  0  0  0  0  0
  186.8900  175.4760  136.0660 C   0  0  0  0  0  0  0  0  0  0  0  0
  188.8090  176.5450  135.0720 C   0  0  0  0  0  3  0  0  0  0  0  0
  189.6840  175.7460  135.8270 C   0  0  0  0  0  0  0  0  0  0  0  0
  189.1420  174.8170  136.7190 C   0  0  0  0  0  3  0  0  0  0  0  0
  187.7530  174.6730  136.8340 C   0  0  0  0  0  3  0  0  0  0  0  0
  185.1610  173.7570  136.5400 N   0  0  1  0  0  0  0  0  0  0  0  0
  184.7520  173.3940  135.1670 C   0  0  2  0  0  0  0  0  0  0  0  0
  185.4850  175.0260  135.8900 C   0  0  2  0  0  3  0  0  0  0  0  0
  185.1920  174.6000  134.5960 O   0  0  0  0  0  0  0  0  0  0  0  0
  183.7650  173.3660  136.2720 C   0  0  2  0  0  3  0  0  0  0  0  0
  185.4130  172.2250  134.7790 O   0  0  0  0  0  1  0  0  0  0  0  0
  182.8550  174.5640  136.2950 C   0  0  0  0  0  3  0  0  0  0  0  0
  182.4070  175.0590  137.4530 C   0  0  0  0  0  3  0  0  0  0  0  0
  181.5340  177.1990  136.5890 C   0  0  0  0  0  0  0  0  0  0  0  0
  181.4340  176.1090  137.5260 N   0  0  0  0  0  0  0  0  0  0  0  0
  181.4700  176.9430  135.3560 O   0  0  0  0  0  0  0  0  0  0  0  0
  180.1070  175.7000  138.0210 C   0  0  1  0  0  3  0  0  0  0  0  0
  179.1040  175.8340  137.0280 O   0  0  0  0  0  1  0  0  0  0  0  0
  180.1570  174.4270  138.6560 O   0  0  0  0  0  0  0  0  0  0  0  0
  179.0870  173.6320  138.2080 C   0  0  0  0  0  1  0  0  0  0  0  0
  181.5230  178.6150  137.0930 C   0  0  1  0  0  3  0  0  0  0  0  0
  180.1530  179.0020  137.5820 C   0  0  0  0  0  0  0  0  0  0  0  0
  179.1740  178.8410  136.8660 O   0  0  0  0  0  0  0  0  0  0  0  0
  180.0190  179.6850  138.9150 C   0  0  2  0  0  3  0  0  0  0  0  0
  179.0010  178.9720  139.7750 C   0  0  0  0  0  1  0  0  0  0  0  0
  179.6450  181.0000  138.7630 F   0  0  0  0  0  0  0  0  0  0  0  0
  183.5500  178.0630  138.4360 C   0  0  0  0  0  2  0  0  0  0  0  0
  182.5600  178.9370  138.1420 C   0  0  0  0  0  3  0  0  0  0  0  0
  1  5  1  0  0  0  0
  2  6  2  0  0  0  0
  4 10  1  0  0  0  0
  4 11  2  0  0  0  0
  5 12  2  0  0  0  0
  5 14  1  0  0  0  0
  7 13  2  0  0  0  0
  8  7  1  0  0  0  0
  8  1  2  0  0  0  0
  9  4  1  0  0  0  0
  9  7  1  0  0  0  0
 10 33  1  6  0  0  0
 10  2  1  0  0  0  0
 12  3  1  0  0  0  0
 13  6  1  0  0  0  0
 13 12  1  0  0  0  0
 14 15  1  0  0  0  0
 16 17  1  0  0  0  0
 16 15  1  0  0  0  0
 17 18  1  0  0  0  0
 18 19  1  0  0  0  0
 19 21  1  0  0  0  0
 20 24  1  0  0  0  0
 21 23  1  0  0  0  0
 21 20  2  0  0  0  0
 22 24  1  0  0  0  0
 22 28  1  0  0  0  0
 23 22  1  0  0  0  0
 24 25  1  1  0  0  0
 26 27  1  0  0  0  0
 26 20  1  0  0  0  0
 28 29  1  0  0  0  0
 29 32  1  0  0  0  0
 29 31  1  0  0  0  0
 30 29  1  0  0  0  0
 34 37  1  6  0  0  0
 34 38  1  0  0  0  0
 35 33  1  1  0  0  0
 35 34  1  0  0  0  0
 36 35  1  0  0  0  0
 36 34  1  0  0  0  0
 39 43  1  0  0  0  0
 39  8  1  0  0  0  0
 40 41  1  0  0  0  0
 41 45  2  0  0  0  0
 42 40  2  0  0  0  0
 42 43  1  0  0  0  0
 43 44  2  0  0  0  0
 44 45  1  0  0  0  0
 47 50  1  0  0  0  0
 47 46  1  0  0  0  0
 48 41  1  0  0  0  0
 48 46  1  0  0  0  0
 49 47  1  0  0  0  0
 49 48  1  0  0  0  0
 50 52  1  0  0  0  0
 50 46  1  0  0  0  0
 51 47  1  0  0  0  0
 52 53  2  0  0  0  0
 53 55  1  0  0  0  0
 54 61  1  0  0  0  0
 54 55  1  0  0  0  0
 55 57  1  0  0  0  0
 56 54  2  0  0  0  0
 57 59  1  0  0  0  0
 58 57  1  0  0  0  0
 60 59  1  0  0  0  0
 61 62  1  0  0  0  0
 61 68  1  0  0  0  0
 62 64  1  0  0  0  0
 63 62  2  0  0  0  0
 64 65  1  0  0  0  0
 66 64  1  0  0  0  0
 68 67  2  0  0  0  0
M  END
>  <MODEL>
4

>  <REMARK>
 VINA RESULT:      -4.1      1.769      2.322
  Name = 
  23 active torsions:
  status: ('A' for Active; 'I' for Inactive)
    1  A    between atoms: C_1  and  C_18
    2  A    between atoms: O_6  and  C_53
    3  A    between atoms: C_7  and  C_9
    4  A    between atoms: C_7  and  C_60
    5  A    between atoms: C_8  and  C_38
    6  A    between atoms: C_9  and  C_44
    7  A    between atoms: C_11  and  C_59
    8  A    between atoms: C_12  and  C_28
    9  A    between atoms: C_15  and  C_17
   10  A    between atoms: C_17  and  C_18
   11  A    between atoms: C_17  and  C_51
   12  A    between atoms: C_21  and  C_45
   13  A    between atoms: C_22  and  S_68
   14  A    between atoms: O_23  and  C_40
   15  A    between atoms: O_23  and  C_60
   16  A    between atoms: C_24  and  C_29
   17  A    between atoms: C_26  and  N_43
   18  A    between atoms: C_29  and  C_56
   19  A    between atoms: C_36  and  N_41
   20  A    between atoms: N_37  and  C_59
   21  A    between atoms: N_41  and  C_44
   22  A    between atoms: N_43  and  C_53
   23  A    between atoms: C_52  and  S_68
                            x       y       z     vdW  Elec       q    Type
                         _______ _______ _______ _____ _____    ______ ____

>  <TORSDO>
F 23

$$$$
=
 OpenBabel10222418483D

 68 74  0  0  1  0  0  0  0  0999 V2000
  191.6420  176.6110  137.5890 C   0  0  0  0  0  3  0  0  0  0  0  0
  196.3520  174.2100  137.4150 N   0  0  0  0  0  0  0  0  0  0  0  0
  194.3250  176.5150  140.0690 F   0  0  0  0  0  0  0  0  0  0  0  0
  194.5030  172.9780  136.3950 C   0  0  0  0  0  0  0  0  0  0  0  0
  192.3360  176.7870  138.7870 C   0  0  0  0  0  0  0  0  0  0  0  0
  195.6510  175.1040  138.0530 C   0  0  0  0  0  3  0  0  0  0  0  0
  193.3890  175.1340  136.7970 C   0  0  0  0  0  0  0  0  0  0  0  0
  192.1780  175.8030  136.5840 C   0  0  0  0  0  0  0  0  0  0  0  0
  193.7060  174.0490  135.9320 N   0  0  0  0  0  2  0  0  0  0  0  0
  195.9700  173.2200  136.3970 C   0  0  1  0  0  3  0  0  0  0  0  0
  193.8820  171.9430  137.5120 S   0  0  0  0  0  0  0  0  0  0  0  0
  193.6280  176.2550  138.9250 C   0  0  0  0  0  0  0  0  0  0  0  0
  194.2050  175.4670  137.9100 C   0  0  0  0  0  0  0  0  0  0  0  0
  191.6980  177.4220  139.8560 O   0  0  0  0  0  0  0  0  0  0  0  0
  190.4000  177.0560  140.3000 C   0  0  0  0  0  2  0  0  0  0  0  0
  189.3750  178.0600  139.8320 C   0  0  0  0  0  2  0  0  0  0  0  0
  187.9910  177.5950  140.2590 C   0  0  0  0  0  2  0  0  0  0  0  0
  187.2570  178.7430  140.9490 C   0  0  0  0  0  2  0  0  0  0  0  0
  186.3420  178.2410  141.9720 N   0  0  0  0  0  2  0  0  0  0  0  0
  186.1880  178.3690  144.4040 C   0  0  0  0  0  0  0  0  0  0  0  0
  186.7880  177.9780  143.3020 C   0  0  0  0  0  0  0  0  0  0  0  0
  188.2530  177.3600  144.9600 N   0  0  0  0  0  0  0  0  0  0  0  0
  187.9710  177.3500  143.6070 O   0  0  0  0  0  0  0  0  0  0  0  0
  187.0980  178.0610  145.5560 C   0  0  2  0  0  3  0  0  0  0  0  0
  186.4060  177.1510  146.5490 C   0  0  0  0  0  1  0  0  0  0  0  0
  185.0070  179.2670  144.4500 C   0  0  0  0  0  2  0  0  0  0  0  0
  183.8140  178.6070  143.8120 C   0  0  0  0  0  1  0  0  0  0  0  0
  189.4520  178.1920  145.1130 C   0  0  0  0  0  2  0  0  0  0  0  0
  190.7530  177.3660  145.1580 C   0  0  0  0  0  0  0  0  0  0  0  0
  190.6330  176.2100  144.1910 C   0  0  0  0  0  1  0  0  0  0  0  0
  190.9810  176.7850  146.5450 C   0  0  0  0  0  1  0  0  0  0  0  0
  191.8530  178.1540  144.8160 O   0  0  0  0  0  1  0  0  0  0  0  0
  196.4960  173.6000  134.9910 C   0  0  0  0  0  2  0  0  0  0  0  0
  198.2250  171.8740  135.6910 C   0  0  2  0  0  0  0  0  0  0  0  0
  197.7000  172.7250  134.5930 C   0  0  2  0  0  3  0  0  0  0  0  0
  199.1800  173.4120  135.4710 S   0  0  0  0  0  0  0  0  0  0  0  0
  199.0020  170.7590  135.3660 O   0  0  0  0  0  1  0  0  0  0  0  0
  197.4910  171.8060  136.9500 N   0  0  0  0  0  1  0  0  0  0  0  0
  191.3160  175.7160  135.0190 S   0  0  0  0  0  0  0  0  0  0  0  0
  187.2630  175.7350  135.0930 C   0  0  0  0  0  3  0  0  0  0  0  0
  186.9590  174.7310  136.0010 C   0  0  0  0  0  0  0  0  0  0  0  0
  188.5850  176.1430  134.9170 C   0  0  0  0  0  3  0  0  0  0  0  0
  189.6310  175.5480  135.6440 C   0  0  0  0  0  0  0  0  0  0  0  0
  189.3200  174.5460  136.5660 C   0  0  0  0  0  3  0  0  0  0  0  0
  187.9940  174.1300  136.7400 C   0  0  0  0  0  3  0  0  0  0  0  0
  185.4880  172.9170  136.8460 N   0  0  1  0  0  0  0  0  0  0  0  0
  185.2730  172.1390  135.6080 C   0  0  2  0  0  0  0  0  0  0  0  0
  185.6660  174.0080  135.8880 C   0  0  2  0  0  3  0  0  0  0  0  0
  185.5680  173.2120  134.7480 O   0  0  0  0  0  0  0  0  0  0  0  0
  184.2030  172.2270  136.6280 C   0  0  2  0  0  3  0  0  0  0  0  0
  186.1460  171.0470  135.5880 O   0  0  0  0  0  1  0  0  0  0  0  0
  183.1160  173.2060  136.2770 C   0  0  0  0  0  3  0  0  0  0  0  0
  182.8500  174.2450  137.0750 C   0  0  0  0  0  3  0  0  0  0  0  0
  181.3470  176.0020  137.9350 C   0  0  0  0  0  0  0  0  0  0  0  0
  181.7400  175.1270  136.8590 N   0  0  0  0  0  0  0  0  0  0  0  0
  182.1870  176.8310  138.3780 O   0  0  0  0  0  0  0  0  0  0  0  0
  181.5470  175.5630  135.4650 C   0  0  1  0  0  3  0  0  0  0  0  0
  180.4610  174.8960  134.8440 O   0  0  0  0  0  1  0  0  0  0  0  0
  181.5170  176.9820  135.3620 O   0  0  0  0  0  0  0  0  0  0  0  0
  182.8280  177.4880  135.4010 C   0  0  0  0  0  1  0  0  0  0  0  0
  179.9090  176.0400  138.3720 C   0  0  1  0  0  3  0  0  0  0  0  0
  179.7570  175.5040  139.7710 C   0  0  0  0  0  0  0  0  0  0  0  0
  180.0630  176.1950  140.7330 O   0  0  0  0  0  0  0  0  0  0  0  0
  179.3280  174.0750  139.9630 C   0  0  2  0  0  3  0  0  0  0  0  0
  179.5560  173.6430  141.3930 C   0  0  0  0  0  1  0  0  0  0  0  0
  180.0120  173.2340  139.1190 F   0  0  0  0  0  0  0  0  0  0  0  0
  179.3870  178.3300  139.2080 C   0  0  0  0  0  2  0  0  0  0  0  0
  179.2310  177.3830  138.2540 C   0  0  0  0  0  3  0  0  0  0  0  0
  1  5  1  0  0  0  0
  2  6  2  0  0  0  0
  4 10  1  0  0  0  0
  4 11  2  0  0  0  0
  5 12  2  0  0  0  0
  5 14  1  0  0  0  0
  7 13  2  0  0  0  0
  8  7  1  0  0  0  0
  8  1  2  0  0  0  0
  9  4  1  0  0  0  0
  9  7  1  0  0  0  0
 10 33  1  6  0  0  0
 10  2  1  0  0  0  0
 12  3  1  0  0  0  0
 13  6  1  0  0  0  0
 13 12  1  0  0  0  0
 14 15  1  0  0  0  0
 16 17  1  0  0  0  0
 16 15  1  0  0  0  0
 17 18  1  0  0  0  0
 18 19  1  0  0  0  0
 19 21  1  0  0  0  0
 20 26  1  0  0  0  0
 20 24  1  0  0  0  0
 21 23  1  0  0  0  0
 21 20  2  0  0  0  0
 22 28  1  0  0  0  0
 22 24  1  0  0  0  0
 23 22  1  0  0  0  0
 24 25  1  1  0  0  0
 27 26  1  0  0  0  0
 28 29  1  0  0  0  0
 29 31  1  0  0  0  0
 30 29  1  0  0  0  0
 32 29  1  0  0  0  0
 34 37  1  6  0  0  0
 34 38  1  0  0  0  0
 35 33  1  1  0  0  0
 35 36  1  0  0  0  0
 35 34  1  0  0  0  0
 36 34  1  0  0  0  0
 39 43  1  0  0  0  0
 39  8  1  0  0  0  0
 40 41  1  0  0  0  0
 41 45  2  0  0  0  0
 42 40  2  0  0  0  0
 42 43  1  0  0  0  0
 43 44  2  0  0  0  0
 44 45  1  0  0  0  0
 47 50  1  0  0  0  0
 47 46  1  0  0  0  0
 48 41  1  0  0  0  0
 48 46  1  0  0  0  0
 49 47  1  0  0  0  0
 49 48  1  0  0  0  0
 50 46  1  0  0  0  0
 51 47  1  0  0  0  0
 52 50  1  0  0  0  0
 52 53  2  0  0  0  0
 54 61  1  0  0  0  0
 54 56  2  0  0  0  0
 55 53  1  0  0  0  0
 55 54  1  0  0  0  0
 57 55  1  0  0  0  0
 58 57  1  0  0  0  0
 59 60  1  0  0  0  0
 59 57  1  0  0  0  0
 61 62  1  0  0  0  0
 62 64  1  0  0  0  0
 62 63  2  0  0  0  0
 64 65  1  0  0  0  0
 66 64  1  0  0  0  0
 68 61  1  0  0  0  0
 68 67  2  0  0  0  0
M  END
>  <MODEL>
5

>  <REMARK>
 VINA RESULT:      -3.3      2.258      3.298
  Name = 
  23 active torsions:
  status: ('A' for Active; 'I' for Inactive)
    1  A    between atoms: C_1  and  C_18
    2  A    between atoms: O_6  and  C_53
    3  A    between atoms: C_7  and  C_9
    4  A    between atoms: C_7  and  C_60
    5  A    between atoms: C_8  and  C_38
    6  A    between atoms: C_9  and  C_44
    7  A    between atoms: C_11  and  C_59
    8  A    between atoms: C_12  and  C_28
    9  A    between atoms: C_15  and  C_17
   10  A    between atoms: C_17  and  C_18
   11  A    between atoms: C_17  and  C_51
   12  A    between atoms: C_21  and  C_45
   13  A    between atoms: C_22  and  S_68
   14  A    between atoms: O_23  and  C_40
   15  A    between atoms: O_23  and  C_60
   16  A    between atoms: C_24  and  C_29
   17  A    between atoms: C_26  and  N_43
   18  A    between atoms: C_29  and  C_56
   19  A    between atoms: C_36  and  N_41
   20  A    between atoms: N_37  and  C_59
   21  A    between atoms: N_41  and  C_44
   22  A    between atoms: N_43  and  C_53
   23  A    between atoms: C_52  and  S_68
                            x       y       z     vdW  Elec       q    Type
                         _______ _______ _______ _____ _____    ______ ____

>  <TORSDO>
F 23

$$$$
=
 OpenBabel10222418483D

 68 74  0  0  1  0  0  0  0  0999 V2000
  185.4530  179.2680  141.5530 C   0  0  0  0  0  3  0  0  0  0  0  0
  181.4690  176.9050  138.9990 N   0  0  0  0  0  0  0  0  0  0  0  0
  182.3440  177.8490  142.8470 F   0  0  0  0  0  0  0  0  0  0  0  0
  182.4920  178.7950  137.8350 C   0  0  0  0  0  0  0  0  0  0  0  0
  184.4270  178.9270  142.4360 C   0  0  0  0  0  0  0  0  0  0  0  0
  181.9910  177.1050  140.1760 C   0  0  0  0  0  3  0  0  0  0  0  0
  184.0880  178.5410  139.6900 C   0  0  0  0  0  0  0  0  0  0  0  0
  185.2940  179.0550  140.1810 C   0  0  0  0  0  0  0  0  0  0  0  0
  183.8230  178.6920  138.3000 N   0  0  0  0  0  2  0  0  0  0  0  0
  181.7590  177.5100  137.6910 C   0  0  1  0  0  3  0  0  0  0  0  0
  181.6290  180.1530  138.1760 S   0  0  0  0  0  0  0  0  0  0  0  0
  183.2930  178.2540  141.9540 C   0  0  0  0  0  0  0  0  0  0  0  0
  183.1260  177.9940  140.5800 C   0  0  0  0  0  0  0  0  0  0  0  0
  184.5150  179.3350  143.7690 O   0  0  0  0  0  0  0  0  0  0  0  0
  185.1300  178.5430  144.7740 C   0  0  0  0  0  2  0  0  0  0  0  0
  184.5200  178.8290  146.1250 C   0  0  0  0  0  2  0  0  0  0  0  0
  185.4300  178.2750  147.2100 C   0  0  0  0  0  2  0  0  0  0  0  0
  186.6200  177.5660  146.5660 C   0  0  0  0  0  2  0  0  0  0  0  0
  187.8510  177.8250  147.3090 N   0  0  0  0  0  2  0  0  0  0  0  0
  189.3650  177.2250  145.4920 C   0  0  0  0  0  0  0  0  0  0  0  0
  189.1310  177.5410  146.7470 C   0  0  0  0  0  0  0  0  0  0  0  0
  191.3690  177.0220  146.7310 N   0  0  0  0  0  0  0  0  0  0  0  0
  190.2940  177.4710  147.4740 O   0  0  0  0  0  0  0  0  0  0  0  0
  190.8010  176.8080  145.3840 C   0  0  2  0  0  3  0  0  0  0  0  0
  191.5300  177.6770  144.3800 C   0  0  0  0  0  1  0  0  0  0  0  0
  188.3130  176.9810  144.4730 C   0  0  0  0  0  2  0  0  0  0  0  0
  188.7200  177.5570  143.1430 C   0  0  0  0  0  1  0  0  0  0  0  0
  191.7390  175.7240  147.3070 C   0  0  0  0  0  2  0  0  0  0  0  0
  192.7940  175.8450  148.4250 C   0  0  0  0  0  0  0  0  0  0  0  0
  194.1660  175.6310  147.8290 C   0  0  0  0  0  1  0  0  0  0  0  0
  192.5830  174.7810  149.4910 C   0  0  0  0  0  1  0  0  0  0  0  0
  192.7340  177.1030  149.0300 O   0  0  0  0  0  1  0  0  0  0  0  0
  182.4930  176.5270  136.7460 C   0  0  0  0  0  2  0  0  0  0  0  0
  183.1630  174.0920  136.4620 C   0  0  2  0  0  0  0  0  0  0  0  0
  182.4590  175.0910  137.3040 C   0  0  2  0  0  3  0  0  0  0  0  0
  181.3600  174.1030  136.1870 S   0  0  0  0  0  0  0  0  0  0  0  0
  183.5670  172.8860  137.0430 O   0  0  0  0  0  1  0  0  0  0  0  0
  183.9410  174.5500  135.3170 N   0  0  0  0  0  1  0  0  0  0  0  0
  186.6850  179.3830  139.1070 S   0  0  0  0  0  0  0  0  0  0  0  0
  187.3430  175.8700  137.1950 C   0  0  0  0  0  3  0  0  0  0  0  0
  188.5060  175.4000  137.7890 C   0  0  0  0  0  0  0  0  0  0  0  0
  186.7020  176.9980  137.7070 C   0  0  0  0  0  3  0  0  0  0  0  0
  187.2170  177.6820  138.8210 C   0  0  0  0  0  0  0  0  0  0  0  0
  188.3810  177.2000  139.4240 C   0  0  0  0  0  3  0  0  0  0  0  0
  189.0300  176.0700  138.9090 C   0  0  0  0  0  3  0  0  0  0  0  0
  189.2330  174.5470  135.5730 N   0  0  1  0  0  0  0  0  0  0  0  0
  189.0280  173.0950  135.7570 C   0  0  2  0  0  0  0  0  0  0  0  0
  189.4070  174.5000  137.0240 C   0  0  2  0  0  3  0  0  0  0  0  0
  189.0970  173.1480  137.1600 O   0  0  0  0  0  0  0  0  0  0  0  0
  190.1310  173.5890  134.9010 C   0  0  2  0  0  3  0  0  0  0  0  0
  187.8050  172.7220  135.1920 O   0  0  0  0  0  1  0  0  0  0  0  0
  191.4770  173.5490  135.5720 C   0  0  0  0  0  3  0  0  0  0  0  0
  192.1910  174.6670  135.7370 C   0  0  0  0  0  3  0  0  0  0  0  0
  194.3640  173.5210  135.9720 C   0  0  0  0  0  0  0  0  0  0  0  0
  193.5320  174.6670  136.2450 N   0  0  0  0  0  0  0  0  0  0  0  0
  194.5960  173.2150  134.7720 O   0  0  0  0  0  0  0  0  0  0  0  0
  194.1530  175.9970  136.3760 C   0  0  1  0  0  3  0  0  0  0  0  0
  194.2850  176.3920  137.7300 O   0  0  0  0  0  1  0  0  0  0  0  0
  195.3460  176.0930  135.6040 O   0  0  0  0  0  0  0  0  0  0  0  0
  195.4290  177.3690  135.0190 C   0  0  0  0  0  1  0  0  0  0  0  0
  195.0790  172.8380  137.1030 C   0  0  1  0  0  3  0  0  0  0  0  0
  195.0510  171.3430  136.9350 C   0  0  0  0  0  0  0  0  0  0  0  0
  193.9940  170.7670  136.7150 O   0  0  0  0  0  0  0  0  0  0  0  0
  196.3170  170.5590  137.1460 C   0  0  2  0  0  3  0  0  0  0  0  0
  196.6390  169.7350  135.9200 C   0  0  0  0  0  1  0  0  0  0  0  0
  196.2100  169.7280  138.2360 F   0  0  0  0  0  0  0  0  0  0  0  0
  196.7440  174.3910  138.1210 C   0  0  0  0  0  2  0  0  0  0  0  0
  196.4930  173.3060  137.3520 C   0  0  0  0  0  3  0  0  0  0  0  0
  1  5  1  0  0  0  0
  2  6  2  0  0  0  0
  4 11  2  0  0  0  0
  4  9  1  0  0  0  0
  5 14  1  0  0  0  0
  6 13  1  0  0  0  0
  7  8  1  0  0  0  0
  7 13  2  0  0  0  0
  8  1  2  0  0  0  0
  9  7  1  0  0  0  0
 10 33  1  6  0  0  0
 10  4  1  0  0  0  0
 10  2  1  0  0  0  0
 12  5  2  0  0  0  0
 12  3  1  0  0  0  0
 13 12  1  0  0  0  0
 14 15  1  0  0  0  0
 15 16  1  0  0  0  0
 16 17  1  0  0  0  0
 18 17  1  0  0  0  0
 18 19  1  0  0  0  0
 20 21  2  0  0  0  0
 21 19  1  0  0  0  0
 21 23  1  0  0  0  0
 22 28  1  0  0  0  0
 22 23  1  0  0  0  0
 24 25  1  6  0  0  0
 24 20  1  0  0  0  0
 24 22  1  0  0  0  0
 26 20  1  0  0  0  0
 27 26  1  0  0  0  0
 28 29  1  0  0  0  0
 29 32  1  0  0  0  0
 29 31  1  0  0  0  0
 30 29  1  0  0  0  0
 34 38  1  6  0  0  0
 34 37  1  0  0  0  0
 34 35  1  0  0  0  0
 35 33  1  6  0  0  0
 36 34  1  0  0  0  0
 36 35  1  0  0  0  0
 39  8  1  0  0  0  0
 40 42  2  0  0  0  0
 40 41  1  0  0  0  0
 41 45  2  0  0  0  0
 42 43  1  0  0  0  0
 43 39  1  0  0  0  0
 43 44  2  0  0  0  0
 45 44  1  0  0  0  0
 46 47  1  0  0  0  0
 46 48  1  0  0  0  0
 47 49  1  0  0  0  0
 48 49  1  0  0  0  0
 48 41  1  0  0  0  0
 50 52  1  0  0  0  0
 50 46  1  0  0  0  0
 50 47  1  0  0  0  0
 51 47  1  0  0  0  0
 52 53  2  0  0  0  0
 53 55  1  0  0  0  0
 54 55  1  0  0  0  0
 54 61  1  0  0  0  0
 55 57  1  0  0  0  0
 56 54  2  0  0  0  0
 57 58  1  0  0  0  0
 59 57  1  0  0  0  0
 60 59  1  0  0  0  0
 61 68  1  0  0  0  0
 62 61  1  0  0  0  0
 62 64  1  0  0  0  0
 63 62  2  0  0  0  0
 64 66  1  0  0  0  0
 65 64  1  0  0  0  0
 68 67  2  0  0  0  0
M  END
>  <MODEL>
6

>  <REMARK>
 VINA RESULT:      -3.3      3.362     10.361
  Name = 
  23 active torsions:
  status: ('A' for Active; 'I' for Inactive)
    1  A    between atoms: C_1  and  C_18
    2  A    between atoms: O_6  and  C_53
    3  A    between atoms: C_7  and  C_9
    4  A    between atoms: C_7  and  C_60
    5  A    between atoms: C_8  and  C_38
    6  A    between atoms: C_9  and  C_44
    7  A    between atoms: C_11  and  C_59
    8  A    between atoms: C_12  and  C_28
    9  A    between atoms: C_15  and  C_17
   10  A    between atoms: C_17  and  C_18
   11  A    between atoms: C_17  and  C_51
   12  A    between atoms: C_21  and  C_45
   13  A    between atoms: C_22  and  S_68
   14  A    between atoms: O_23  and  C_40
   15  A    between atoms: O_23  and  C_60
   16  A    between atoms: C_24  and  C_29
   17  A    between atoms: C_26  and  N_43
   18  A    between atoms: C_29  and  C_56
   19  A    between atoms: C_36  and  N_41
   20  A    between atoms: N_37  and  C_59
   21  A    between atoms: N_41  and  C_44
   22  A    between atoms: N_43  and  C_53
   23  A    between atoms: C_52  and  S_68
                            x       y       z     vdW  Elec       q    Type
                         _______ _______ _______ _____ _____    ______ ____

>  <TORSDO>
F 23

$$$$
=
 OpenBabel10222418483D

 68 74  0  0  1  0  0  0  0  0999 V2000
  186.2130  179.3860  142.2470 C   0  0  0  0  0  3  0  0  0  0  0  0
  182.1370  177.2870  139.6080 N   0  0  0  0  0  0  0  0  0  0  0  0
  183.0300  178.0830  143.4850 F   0  0  0  0  0  0  0  0  0  0  0  0
  183.2580  179.1570  138.5020 C   0  0  0  0  0  0  0  0  0  0  0  0
  185.1660  179.0700  143.1150 C   0  0  0  0  0  0  0  0  0  0  0  0
  182.6600  177.4300  140.7930 C   0  0  0  0  0  3  0  0  0  0  0  0
  184.8270  178.7760  140.3570 C   0  0  0  0  0  0  0  0  0  0  0  0
  186.0530  179.2180  140.8690 C   0  0  0  0  0  0  0  0  0  0  0  0
  184.5790  178.9780  138.9710 N   0  0  0  0  0  2  0  0  0  0  0  0
  182.4650  177.9130  138.3180 C   0  0  1  0  0  3  0  0  0  0  0  0
  182.4580  180.5450  138.8750 S   0  0  0  0  0  0  0  0  0  0  0  0
  184.0050  178.4660  142.6090 C   0  0  0  0  0  0  0  0  0  0  0  0
  183.8350  178.2520  141.2270 C   0  0  0  0  0  0  0  0  0  0  0  0
  185.2640  179.4370  144.4590 O   0  0  0  0  0  0  0  0  0  0  0  0
  185.7840  178.5680  145.4550 C   0  0  0  0  0  2  0  0  0  0  0  0
  185.2490  178.9400  146.8170 C   0  0  0  0  0  2  0  0  0  0  0  0
  186.2270  178.4680  147.8820 C   0  0  0  0  0  2  0  0  0  0  0  0
  187.3300  177.6370  147.2290 C   0  0  0  0  0  2  0  0  0  0  0  0
  188.6520  178.0880  147.6590 N   0  0  0  0  0  2  0  0  0  0  0  0
  190.9470  177.3250  147.9850 C   0  0  0  0  0  0  0  0  0  0  0  0
  189.8340  177.3820  147.2870 C   0  0  0  0  0  0  0  0  0  0  0  0
  191.2860  176.2660  145.8990 N   0  0  0  0  0  0  0  0  0  0  0  0
  189.9990  176.7330  146.0870 O   0  0  0  0  0  0  0  0  0  0  0  0
  191.9890  176.6600  147.1360 C   0  0  2  0  0  3  0  0  0  0  0  0
  192.5280  175.4260  147.8300 C   0  0  0  0  0  1  0  0  0  0  0  0
  191.2050  178.0990  149.2260 C   0  0  0  0  0  2  0  0  0  0  0  0
  192.6140  177.8740  149.7080 C   0  0  0  0  0  1  0  0  0  0  0  0
  191.8290  177.0340  144.7730 C   0  0  0  0  0  2  0  0  0  0  0  0
  190.7580  177.4050  143.7280 C   0  0  0  0  0  0  0  0  0  0  0  0
  190.1470  176.1350  143.1810 C   0  0  0  0  0  1  0  0  0  0  0  0
  191.3740  178.1600  142.5600 C   0  0  0  0  0  1  0  0  0  0  0  0
  189.7610  178.1990  144.3000 O   0  0  0  0  0  1  0  0  0  0  0  0
  183.1570  176.9220  137.3510 C   0  0  0  0  0  2  0  0  0  0  0  0
  183.6390  174.4560  136.9680 C   0  0  2  0  0  0  0  0  0  0  0  0
  183.0900  175.4810  137.8910 C   0  0  2  0  0  3  0  0  0  0  0  0
  181.8220  174.5840  136.8820 S   0  0  0  0  0  0  0  0  0  0  0  0
  184.0230  173.2170  137.4880 O   0  0  0  0  0  1  0  0  0  0  0  0
  184.3220  174.8880  135.7540 N   0  0  0  0  0  1  0  0  0  0  0  0
  187.4650  179.5080  139.8120 S   0  0  0  0  0  0  0  0  0  0  0  0
  187.7980  176.1030  137.6380 C   0  0  0  0  0  3  0  0  0  0  0  0
  188.9270  175.4970  138.1700 C   0  0  0  0  0  0  0  0  0  0  0  0
  187.2610  177.2380  138.2440 C   0  0  0  0  0  3  0  0  0  0  0  0
  187.8500  177.7950  139.3920 C   0  0  0  0  0  0  0  0  0  0  0  0
  188.9800  177.1770  139.9330 C   0  0  0  0  0  3  0  0  0  0  0  0
  189.5240  176.0390  139.3230 C   0  0  0  0  0  3  0  0  0  0  0  0
  189.5500  174.7580  135.8820 N   0  0  1  0  0  0  0  0  0  0  0  0
  189.2220  173.3190  135.9610 C   0  0  2  0  0  0  0  0  0  0  0  0
  189.7380  174.5860  137.3220 C   0  0  2  0  0  3  0  0  0  0  0  0
  189.3140  173.2590  137.3630 O   0  0  0  0  0  0  0  0  0  0  0  0
  190.3530  173.7820  135.1230 C   0  0  2  0  0  3  0  0  0  0  0  0
  187.9650  173.0960  135.3940 O   0  0  0  0  0  1  0  0  0  0  0  0
  191.6990  173.5770  135.7620 C   0  0  0  0  0  3  0  0  0  0  0  0
  192.7980  174.1180  135.2280 C   0  0  0  0  0  3  0  0  0  0  0  0
  194.5850  174.5730  136.8680 C   0  0  0  0  0  0  0  0  0  0  0  0
  194.1180  173.8430  135.7160 N   0  0  0  0  0  0  0  0  0  0  0  0
  193.9400  174.4750  137.9470 O   0  0  0  0  0  0  0  0  0  0  0  0
  194.5970  172.4680  135.4880 C   0  0  1  0  0  3  0  0  0  0  0  0
  195.6960  172.4280  134.5950 O   0  0  0  0  0  1  0  0  0  0  0  0
  194.7970  171.7750  136.7160 O   0  0  0  0  0  0  0  0  0  0  0  0
  195.3610  170.5130  136.4620 C   0  0  0  0  0  1  0  0  0  0  0  0
  195.9130  175.2740  136.8140 C   0  0  1  0  0  3  0  0  0  0  0  0
  196.9770  174.4640  137.5070 C   0  0  0  0  0  0  0  0  0  0  0  0
  197.0110  174.4060  138.7280 O   0  0  0  0  0  0  0  0  0  0  0  0
  198.0570  173.8190  136.6820 C   0  0  2  0  0  3  0  0  0  0  0  0
  199.1600  173.2950  137.5720 C   0  0  0  0  0  1  0  0  0  0  0  0
  198.5880  174.7080  135.7770 F   0  0  0  0  0  0  0  0  0  0  0  0
  196.5050  176.9770  135.0920 C   0  0  0  0  0  2  0  0  0  0  0  0
  196.3790  175.6740  135.4360 C   0  0  0  0  0  3  0  0  0  0  0  0
  1  5  1  0  0  0  0
  2  6  2  0  0  0  0
  4 11  2  0  0  0  0
  4  9  1  0  0  0  0
  5 14  1  0  0  0  0
  6 13  1  0  0  0  0
  7  8  1  0  0  0  0
  7 13  2  0  0  0  0
  8  1  2  0  0  0  0
  9  7  1  0  0  0  0
 10 33  1  6  0  0  0
 10  4  1  0  0  0  0
 10  2  1  0  0  0  0
 12  5  2  0  0  0  0
 12  3  1  0  0  0  0
 13 12  1  0  0  0  0
 14 15  1  0  0  0  0
 15 16  1  0  0  0  0
 16 17  1  0  0  0  0
 18 19  1  0  0  0  0
 18 17  1  0  0  0  0
 20 26  1  0  0  0  0
 21 19  1  0  0  0  0
 21 20  2  0  0  0  0
 22 23  1  0  0  0  0
 22 24  1  0  0  0  0
 23 21  1  0  0  0  0
 24 25  1  1  0  0  0
 24 20  1  0  0  0  0
 26 27  1  0  0  0  0
 28 22  1  0  0  0  0
 29 32  1  0  0  0  0
 29 28  1  0  0  0  0
 30 29  1  0  0  0  0
 31 29  1  0  0  0  0
 34 38  1  6  0  0  0
 34 37  1  0  0  0  0
 34 35  1  0  0  0  0
 35 33  1  6  0  0  0
 36 34  1  0  0  0  0
 36 35  1  0  0  0  0
 39  8  1  0  0  0  0
 40 41  2  0  0  0  0
 40 42  1  0  0  0  0
 41 45  1  0  0  0  0
 42 43  2  0  0  0  0
 43 39  1  0  0  0  0
 43 44  1  0  0  0  0
 45 44  2  0  0  0  0
 46 47  1  0  0  0  0
 46 48  1  0  0  0  0
 47 49  1  0  0  0  0
 48 49  1  0  0  0  0
 48 41  1  0  0  0  0
 50 52  1  0  0  0  0
 50 46  1  0  0  0  0
 50 47  1  0  0  0  0
 51 47  1  0  0  0  0
 53 55  1  0  0  0  0
 53 52  2  0  0  0  0
 54 56  2  0  0  0  0
 55 54  1  0  0  0  0
 57 55  1  0  0  0  0
 57 59  1  0  0  0  0
 58 57  1  0  0  0  0
 60 59  1  0  0  0  0
 61 54  1  0  0  0  0
 61 62  1  0  0  0  0
 62 63  2  0  0  0  0
 64 62  1  0  0  0  0
 64 65  1  0  0  0  0
 66 64  1  0  0  0  0
 67 68  2  0  0  0  0
 68 61  1  0  0  0  0
M  END
>  <MODEL>
7

>  <REMARK>
 VINA RESULT:      -3.2      3.402     10.489
  Name = 
  23 active torsions:
  status: ('A' for Active; 'I' for Inactive)
    1  A    between atoms: C_1  and  C_18
    2  A    between atoms: O_6  and  C_53
    3  A    between atoms: C_7  and  C_9
    4  A    between atoms: C_7  and  C_60
    5  A    between atoms: C_8  and  C_38
    6  A    between atoms: C_9  and  C_44
    7  A    between atoms: C_11  and  C_59
    8  A    between atoms: C_12  and  C_28
    9  A    between atoms: C_15  and  C_17
   10  A    between atoms: C_17  and  C_18
   11  A    between atoms: C_17  and  C_51
   12  A    between atoms: C_21  and  C_45
   13  A    between atoms: C_22  and  S_68
   14  A    between atoms: O_23  and  C_40
   15  A    between atoms: O_23  and  C_60
   16  A    between atoms: C_24  and  C_29
   17  A    between atoms: C_26  and  N_43
   18  A    between atoms: C_29  and  C_56
   19  A    between atoms: C_36  and  N_41
   20  A    between atoms: N_37  and  C_59
   21  A    between atoms: N_41  and  C_44
   22  A    between atoms: N_43  and  C_53
   23  A    between atoms: C_52  and  S_68
                            x       y       z     vdW  Elec       q    Type
                         _______ _______ _______ _____ _____    ______ ____

>  <TORSDO>
F 23

$$$$
=
 OpenBabel10222418483D

 68 74  0  0  1  0  0  0  0  0999 V2000
  185.7350  179.3530  141.6510 C   0  0  0  0  0  3  0  0  0  0  0  0
  181.6570  176.9450  139.2950 N   0  0  0  0  0  0  0  0  0  0  0  0
  182.6990  177.9180  143.0940 F   0  0  0  0  0  0  0  0  0  0  0  0
  182.6110  178.8370  138.0750 C   0  0  0  0  0  0  0  0  0  0  0  0
  184.7540  179.0090  142.5820 C   0  0  0  0  0  0  0  0  0  0  0  0
  182.2310  177.1570  140.4460 C   0  0  0  0  0  3  0  0  0  0  0  0
  184.2920  178.6050  139.8570 C   0  0  0  0  0  0  0  0  0  0  0  0
  185.5150  179.1310  140.2900 C   0  0  0  0  0  0  0  0  0  0  0  0
  183.9630  178.7470  138.4800 N   0  0  0  0  0  2  0  0  0  0  0  0
  181.8820  177.5460  137.9720 C   0  0  1  0  0  3  0  0  0  0  0  0
  181.7540  180.1900  138.4490 S   0  0  0  0  0  0  0  0  0  0  0  0
  183.6040  178.3250  142.1570 C   0  0  0  0  0  0  0  0  0  0  0  0
  183.3770  178.0560  140.7930 C   0  0  0  0  0  0  0  0  0  0  0  0
  184.8990  179.4250  143.9080 O   0  0  0  0  0  0  0  0  0  0  0  0
  185.5980  178.6600  144.8790 C   0  0  0  0  0  2  0  0  0  0  0  0
  185.1500  179.0320  146.2720 C   0  0  0  0  0  2  0  0  0  0  0  0
  186.2850  178.7650  147.2480 C   0  0  0  0  0  2  0  0  0  0  0  0
  187.3530  177.9110  146.5680 C   0  0  0  0  0  2  0  0  0  0  0  0
  188.6610  178.5590  146.6300 N   0  0  0  0  0  2  0  0  0  0  0  0
  189.8120  177.6900  144.6610 C   0  0  0  0  0  0  0  0  0  0  0  0
  189.7860  178.0280  145.9310 C   0  0  0  0  0  0  0  0  0  0  0  0
  191.8550  177.0620  145.6720 N   0  0  0  0  0  0  0  0  0  0  0  0
  190.9830  177.7100  146.5260 O   0  0  0  0  0  0  0  0  0  0  0  0
  191.1110  176.9900  144.3980 C   0  0  2  0  0  3  0  0  0  0  0  0
  191.8880  177.7070  143.3130 C   0  0  0  0  0  1  0  0  0  0  0  0
  188.6270  177.6830  143.7660 C   0  0  0  0  0  2  0  0  0  0  0  0
  188.6240  176.4510  142.9000 C   0  0  0  0  0  1  0  0  0  0  0  0
  192.0130  175.7070  146.2130 C   0  0  0  0  0  2  0  0  0  0  0  0
  192.1390  175.6870  147.7490 C   0  0  0  0  0  0  0  0  0  0  0  0
  191.5660  176.9700  148.3050 C   0  0  0  0  0  1  0  0  0  0  0  0
  193.5970  175.6120  148.1750 C   0  0  0  0  0  1  0  0  0  0  0  0
  191.4580  174.5940  148.2890 O   0  0  0  0  0  1  0  0  0  0  0  0
  182.5800  176.5630  136.9990 C   0  0  0  0  0  2  0  0  0  0  0  0
  183.6980  174.2830  136.8880 C   0  0  2  0  0  0  0  0  0  0  0  0
  183.2030  175.3770  137.7610 C   0  0  2  0  0  3  0  0  0  0  0  0
  182.0420  173.9460  137.5740 S   0  0  0  0  0  0  0  0  0  0  0  0
  184.6380  173.3850  137.4020 O   0  0  0  0  0  1  0  0  0  0  0  0
  183.7140  174.4800  135.4440 N   0  0  0  0  0  1  0  0  0  0  0  0
  186.8530  179.4640  139.1510 S   0  0  0  0  0  0  0  0  0  0  0  0
  187.3920  175.9330  137.2350 C   0  0  0  0  0  3  0  0  0  0  0  0
  188.6050  175.4830  137.7370 C   0  0  0  0  0  0  0  0  0  0  0  0
  186.7830  177.0600  137.7840 C   0  0  0  0  0  3  0  0  0  0  0  0
  187.3800  177.7650  138.8430 C   0  0  0  0  0  0  0  0  0  0  0  0
  188.5950  177.3030  139.3550 C   0  0  0  0  0  3  0  0  0  0  0  0
  189.2120  176.1740  138.8020 C   0  0  0  0  0  3  0  0  0  0  0  0
  189.3680  174.8140  135.4700 N   0  0  1  0  0  0  0  0  0  0  0  0
  189.0020  173.3820  135.4690 C   0  0  2  0  0  0  0  0  0  0  0  0
  189.4510  174.5820  136.9120 C   0  0  2  0  0  3  0  0  0  0  0  0
  188.9940  173.2670  136.8700 O   0  0  0  0  0  0  0  0  0  0  0  0
  190.1990  173.8460  134.7300 C   0  0  2  0  0  3  0  0  0  0  0  0
  187.7820  173.2140  134.8080 O   0  0  0  0  0  1  0  0  0  0  0  0
  191.4910  173.5810  135.4520 C   0  0  0  0  0  3  0  0  0  0  0  0
  192.5970  174.2670  135.1460 C   0  0  0  0  0  3  0  0  0  0  0  0
  194.2660  174.6180  136.9300 C   0  0  0  0  0  0  0  0  0  0  0  0
  193.8820  173.9630  135.7050 N   0  0  0  0  0  0  0  0  0  0  0  0
  193.5500  174.4510  137.9540 O   0  0  0  0  0  0  0  0  0  0  0  0
  194.3820  172.6050  135.4230 C   0  0  1  0  0  3  0  0  0  0  0  0
  195.5790  172.6250  134.6640 O   0  0  0  0  0  1  0  0  0  0  0  0
  194.4350  171.8140  136.6050 O   0  0  0  0  0  0  0  0  0  0  0  0
  193.7900  170.5850  136.3820 C   0  0  0  0  0  1  0  0  0  0  0  0
  195.5910  175.3220  137.0110 C   0  0  1  0  0  3  0  0  0  0  0  0
  196.6560  174.4040  137.5500 C   0  0  0  0  0  0  0  0  0  0  0  0
  196.4290  173.7010  138.5250 O   0  0  0  0  0  0  0  0  0  0  0  0
  198.0310  174.4430  136.9410 C   0  0  2  0  0  3  0  0  0  0  0  0
  198.8740  173.3030  137.4640 C   0  0  0  0  0  1  0  0  0  0  0  0
  198.6600  175.6350  137.2120 F   0  0  0  0  0  0  0  0  0  0  0  0
  195.4150  177.0370  135.2100 C   0  0  0  0  0  2  0  0  0  0  0  0
  196.0610  175.9680  135.7310 C   0  0  0  0  0  3  0  0  0  0  0  0
  1  5  1  0  0  0  0
  2  6  2  0  0  0  0
  4 11  2  0  0  0  0
  4  9  1  0  0  0  0
  5 14  1  0  0  0  0
  6 13  1  0  0  0  0
  7  8  1  0  0  0  0
  7 13  2  0  0  0  0
  8  1  2  0  0  0  0
  9  7  1  0  0  0  0
 10 33  1  6  0  0  0
 10  4  1  0  0  0  0
 10  2  1  0  0  0  0
 12  5  2  0  0  0  0
 12  3  1  0  0  0  0
 13 12  1  0  0  0  0
 14 15  1  0  0  0  0
 15 16  1  0  0  0  0
 16 17  1  0  0  0  0
 18 19  1  0  0  0  0
 18 17  1  0  0  0  0
 20 21  2  0  0  0  0
 21 23  1  0  0  0  0
 21 19  1  0  0  0  0
 22 28  1  0  0  0  0
 22 23  1  0  0  0  0
 24 25  1  6  0  0  0
 24 20  1  0  0  0  0
 24 22  1  0  0  0  0
 26 20  1  0  0  0  0
 27 26  1  0  0  0  0
 28 29  1  0  0  0  0
 29 31  1  0  0  0  0
 29 32  1  0  0  0  0
 29 30  1  0  0  0  0
 34 38  1  6  0  0  0
 34 37  1  0  0  0  0
 34 36  1  0  0  0  0
 34 35  1  0  0  0  0
 35 33  1  6  0  0  0
 36 35  1  0  0  0  0
 39  8  1  0  0  0  0
 40 41  2  0  0  0  0
 40 42  1  0  0  0  0
 41 45  1  0  0  0  0
 42 43  2  0  0  0  0
 43 39  1  0  0  0  0
 43 44  1  0  0  0  0
 45 44  2  0  0  0  0
 46 48  1  0  0  0  0
 47 46  1  0  0  0  0
 47 49  1  0  0  0  0
 48 41  1  0  0  0  0
 49 48  1  0  0  0  0
 50 52  1  0  0  0  0
 50 47  1  0  0  0  0
 50 46  1  0  0  0  0
 51 47  1  0  0  0  0
 53 52  2  0  0  0  0
 53 55  1  0  0  0  0
 54 61  1  0  0  0  0
 54 56  2  0  0  0  0
 55 54  1  0  0  0  0
 57 55  1  0  0  0  0
 57 59  1  0  0  0  0
 58 57  1  0  0  0  0
 60 59  1  0  0  0  0
 61 62  1  0  0  0  0
 62 63  2  0  0  0  0
 64 66  1  0  0  0  0
 64 65  1  0  0  0  0
 64 62  1  0  0  0  0
 67 68  2  0  0  0  0
 68 61  1  0  0  0  0
M  END
>  <MODEL>
8

>  <REMARK>
 VINA RESULT:      -3.2      3.433     10.200
  Name = 
  23 active torsions:
  status: ('A' for Active; 'I' for Inactive)
    1  A    between atoms: C_1  and  C_18
    2  A    between atoms: O_6  and  C_53
    3  A    between atoms: C_7  and  C_9
    4  A    between atoms: C_7  and  C_60
    5  A    between atoms: C_8  and  C_38
    6  A    between atoms: C_9  and  C_44
    7  A    between atoms: C_11  and  C_59
    8  A    between atoms: C_12  and  C_28
    9  A    between atoms: C_15  and  C_17
   10  A    between atoms: C_17  and  C_18
   11  A    between atoms: C_17  and  C_51
   12  A    between atoms: C_21  and  C_45
   13  A    between atoms: C_22  and  S_68
   14  A    between atoms: O_23  and  C_40
   15  A    between atoms: O_23  and  C_60
   16  A    between atoms: C_24  and  C_29
   17  A    between atoms: C_26  and  N_43
   18  A    between atoms: C_29  and  C_56
   19  A    between atoms: C_36  and  N_41
   20  A    between atoms: N_37  and  C_59
   21  A    between atoms: N_41  and  C_44
   22  A    between atoms: N_43  and  C_53
   23  A    between atoms: C_52  and  S_68
                            x       y       z     vdW  Elec       q    Type
                         _______ _______ _______ _____ _____    ______ ____

>  <TORSDO>
F 23

$$$$
=
 OpenBabel10222418483D

 68 74  0  0  1  0  0  0  0  0999 V2000
  185.4550  179.2670  141.5460 C   0  0  0  0  0  3  0  0  0  0  0  0
  181.4200  176.9180  139.0590 N   0  0  0  0  0  0  0  0  0  0  0  0
  182.3640  177.8550  142.8920 F   0  0  0  0  0  0  0  0  0  0  0  0
  182.4290  178.8070  137.8790 C   0  0  0  0  0  0  0  0  0  0  0  0
  184.4430  178.9280  142.4460 C   0  0  0  0  0  0  0  0  0  0  0  0
  181.9630  177.1160  140.2270 C   0  0  0  0  0  3  0  0  0  0  0  0
  184.0560  178.5460  139.7060 C   0  0  0  0  0  0  0  0  0  0  0  0
  185.2710  179.0560  140.1770 C   0  0  0  0  0  0  0  0  0  0  0  0
  183.7670  178.7000  138.3210 N   0  0  0  0  0  2  0  0  0  0  0  0
  181.6900  177.5240  137.7460 C   0  0  1  0  0  3  0  0  0  0  0  0
  181.5750  180.1670  138.2370 S   0  0  0  0  0  0  0  0  0  0  0  0
  183.3000  178.2580  141.9840 C   0  0  0  0  0  0  0  0  0  0  0  0
  183.1080  178.0010  140.6120 C   0  0  0  0  0  0  0  0  0  0  0  0
  184.5550  179.3340  143.7780 O   0  0  0  0  0  0  0  0  0  0  0  0
  185.2710  178.5850  144.7500 C   0  0  0  0  0  2  0  0  0  0  0  0
  184.9020  179.0340  146.1440 C   0  0  0  0  0  2  0  0  0  0  0  0
  186.0480  178.7100  147.0900 C   0  0  0  0  0  2  0  0  0  0  0  0
  187.1350  177.9490  146.3340 C   0  0  0  0  0  2  0  0  0  0  0  0
  188.4660  178.3530  146.7810 N   0  0  0  0  0  2  0  0  0  0  0  0
  190.5370  177.2880  147.5100 C   0  0  0  0  0  0  0  0  0  0  0  0
  189.5960  177.4970  146.6170 C   0  0  0  0  0  0  0  0  0  0  0  0
  191.1260  176.2030  145.4940 N   0  0  0  0  0  0  0  0  0  0  0  0
  189.8990  176.8370  145.4510 O   0  0  0  0  0  0  0  0  0  0  0  0
  191.6260  176.4930  146.8530 C   0  0  2  0  0  3  0  0  0  0  0  0
  191.8570  175.1940  147.5990 C   0  0  0  0  0  1  0  0  0  0  0  0
  190.6530  178.0140  148.8000 C   0  0  0  0  0  2  0  0  0  0  0  0
  192.0270  177.8320  149.3900 C   0  0  0  0  0  1  0  0  0  0  0  0
  191.9700  176.8970  144.5140 C   0  0  0  0  0  2  0  0  0  0  0  0
  191.2610  177.1170  143.1630 C   0  0  0  0  0  0  0  0  0  0  0  0
  190.5060  178.4260  143.2140 C   0  0  0  0  0  1  0  0  0  0  0  0
  190.2520  176.0130  142.8910 C   0  0  0  0  0  1  0  0  0  0  0  0
  192.1850  177.1470  142.1160 O   0  0  0  0  0  1  0  0  0  0  0  0
  182.4050  176.5400  136.7880 C   0  0  0  0  0  2  0  0  0  0  0  0
  182.3800  174.0960  136.0940 C   0  0  2  0  0  0  0  0  0  0  0  0
  182.1120  175.0780  137.1750 C   0  0  2  0  0  3  0  0  0  0  0  0
  180.6190  174.5530  136.2130 S   0  0  0  0  0  0  0  0  0  0  0  0
  182.5660  172.7530  136.4360 O   0  0  0  0  0  1  0  0  0  0  0  0
  183.0300  174.5470  134.8690 N   0  0  0  0  0  1  0  0  0  0  0  0
  186.6450  179.3820  139.0790 S   0  0  0  0  0  0  0  0  0  0  0  0
  187.3480  175.9000  137.1270 C   0  0  0  0  0  3  0  0  0  0  0  0
  188.4750  175.4020  137.7650 C   0  0  0  0  0  0  0  0  0  0  0  0
  186.6980  177.0260  137.6310 C   0  0  0  0  0  3  0  0  0  0  0  0
  187.1680  177.6800  138.7830 C   0  0  0  0  0  0  0  0  0  0  0  0
  188.2950  177.1700  139.4300 C   0  0  0  0  0  3  0  0  0  0  0  0
  188.9540  176.0420  138.9230 C   0  0  0  0  0  3  0  0  0  0  0  0
  189.3680  174.6570  135.5710 N   0  0  1  0  0  0  0  0  0  0  0  0
  189.0750  173.2100  135.6330 C   0  0  2  0  0  0  0  0  0  0  0  0
  189.4000  174.5060  137.0250 C   0  0  2  0  0  3  0  0  0  0  0  0
  189.0120  173.1680  137.0360 O   0  0  0  0  0  0  0  0  0  0  0  0
  190.2780  173.6980  134.9190 C   0  0  2  0  0  3  0  0  0  0  0  0
  187.8950  172.9440  134.9320 O   0  0  0  0  0  1  0  0  0  0  0  0
  191.5500  173.5390  135.7060 C   0  0  0  0  0  3  0  0  0  0  0  0
  192.4630  174.5140  135.7320 C   0  0  0  0  0  3  0  0  0  0  0  0
  194.6650  173.4020  135.7930 C   0  0  0  0  0  0  0  0  0  0  0  0
  193.7480  174.3630  136.3520 N   0  0  0  0  0  0  0  0  0  0  0  0
  195.0290  173.5400  134.5940 O   0  0  0  0  0  0  0  0  0  0  0  0
  194.2770  175.5750  137.0020 C   0  0  1  0  0  3  0  0  0  0  0  0
  194.2280  176.7030  136.1460 O   0  0  0  0  0  1  0  0  0  0  0  0
  193.6980  175.7710  138.2880 O   0  0  0  0  0  0  0  0  0  0  0  0
  192.7810  176.8360  138.2370 C   0  0  0  0  0  1  0  0  0  0  0  0
  195.3060  172.3800  136.6890 C   0  0  1  0  0  3  0  0  0  0  0  0
  194.6660  171.0300  136.5120 C   0  0  0  0  0  0  0  0  0  0  0  0
  193.4640  170.9400  136.3030 O   0  0  0  0  0  0  0  0  0  0  0  0
  195.5020  169.7940  136.7000 C   0  0  2  0  0  3  0  0  0  0  0  0
  195.9290  169.6590  138.1440 C   0  0  0  0  0  1  0  0  0  0  0  0
  196.6180  169.8220  135.8970 F   0  0  0  0  0  0  0  0  0  0  0  0
  197.5840  172.1050  137.6650 C   0  0  0  0  0  2  0  0  0  0  0  0
  196.8060  172.2640  136.5690 C   0  0  0  0  0  3  0  0  0  0  0  0
  1  5  1  0  0  0  0
  2  6  2  0  0  0  0
  4 11  2  0  0  0  0
  4  9  1  0  0  0  0
  5 14  1  0  0  0  0
  6 13  1  0  0  0  0
  7  8  1  0  0  0  0
  7 13  2  0  0  0  0
  8  1  2  0  0  0  0
  9  7  1  0  0  0  0
 10 33  1  6  0  0  0
 10  4  1  0  0  0  0
 10  2  1  0  0  0  0
 12  5  2  0  0  0  0
 12  3  1  0  0  0  0
 13 12  1  0  0  0  0
 14 15  1  0  0  0  0
 15 16  1  0  0  0  0
 16 17  1  0  0  0  0
 18 19  1  0  0  0  0
 18 17  1  0  0  0  0
 20 26  1  0  0  0  0
 21 19  1  0  0  0  0
 21 20  2  0  0  0  0
 22 24  1  0  0  0  0
 23 22  1  0  0  0  0
 23 21  1  0  0  0  0
 24 20  1  0  0  0  0
 24 25  1  1  0  0  0
 26 27  1  0  0  0  0
 28 22  1  0  0  0  0
 29 30  1  0  0  0  0
 29 28  1  0  0  0  0
 31 29  1  0  0  0  0
 32 29  1  0  0  0  0
 34 38  1  6  0  0  0
 34 36  1  0  0  0  0
 34 37  1  0  0  0  0
 34 35  1  0  0  0  0
 35 33  1  6  0  0  0
 36 35  1  0  0  0  0
 39  8  1  0  0  0  0
 40 42  2  0  0  0  0
 40 41  1  0  0  0  0
 41 45  2  0  0  0  0
 42 43  1  0  0  0  0
 43 39  1  0  0  0  0
 43 44  2  0  0  0  0
 45 44  1  0  0  0  0
 46 47  1  0  0  0  0
 46 48  1  0  0  0  0
 47 49  1  0  0  0  0
 48 49  1  0  0  0  0
 48 41  1  0  0  0  0
 50 46  1  0  0  0  0
 50 47  1  0  0  0  0
 50 52  1  0  0  0  0
 51 47  1  0  0  0  0
 52 53  2  0  0  0  0
 53 55  1  0  0  0  0
 54 55  1  0  0  0  0
 54 61  1  0  0  0  0
 55 57  1  0  0  0  0
 56 54  2  0  0  0  0
 57 59  1  0  0  0  0
 58 57  1  0  0  0  0
 60 59  1  0  0  0  0
 62 61  1  0  0  0  0
 62 64  1  0  0  0  0
 63 62  2  0  0  0  0
 64 65  1  0  0  0  0
 66 64  1  0  0  0  0
 68 61  1  0  0  0  0
 68 67  2  0  0  0  0
M  END
>  <MODEL>
9

>  <REMARK>
 VINA RESULT:      -3.1      3.458     10.484
  Name = 
  23 active torsions:
  status: ('A' for Active; 'I' for Inactive)
    1  A    between atoms: C_1  and  C_18
    2  A    between atoms: O_6  and  C_53
    3  A    between atoms: C_7  and  C_9
    4  A    between atoms: C_7  and  C_60
    5  A    between atoms: C_8  and  C_38
    6  A    between atoms: C_9  and  C_44
    7  A    between atoms: C_11  and  C_59
    8  A    between atoms: C_12  and  C_28
    9  A    between atoms: C_15  and  C_17
   10  A    between atoms: C_17  and  C_18
   11  A    between atoms: C_17  and  C_51
   12  A    between atoms: C_21  and  C_45
   13  A    between atoms: C_22  and  S_68
   14  A    between atoms: O_23  and  C_40
   15  A    between atoms: O_23  and  C_60
   16  A    between atoms: C_24  and  C_29
   17  A    between atoms: C_26  and  N_43
   18  A    between atoms: C_29  and  C_56
   19  A    between atoms: C_36  and  N_41
   20  A    between atoms: N_37  and  C_59
   21  A    between atoms: N_41  and  C_44
   22  A    between atoms: N_43  and  C_53
   23  A    between atoms: C_52  and  S_68
                            x       y       z     vdW  Elec       q    Type
                         _______ _______ _______ _____ _____    ______ ____

>  <TORSDO>
F 23

$$$$
