=
 OpenBabel10222417533D

 53 55  0  0  1  0  0  0  0  0999 V2000
  187.1230  178.1350  141.7940 C   0  0  0  0  0  0  0  0  0  0  0  0
  185.8040  178.3170  141.6310 C   0  0  0  0  0  3  0  0  0  0  0  0
  188.3310  177.5170  148.3710 C   0  0  0  0  0  3  0  0  0  0  0  0
  187.7200  177.8830  145.6480 C   0  0  0  0  0  0  0  0  0  0  0  0
  189.2560  177.1550  147.3930 C   0  0  0  0  0  3  0  0  0  0  0  0
  188.9900  177.3520  146.0240 C   0  0  0  0  0  0  0  0  0  0  0  0
  190.0190  176.8860  145.0100 C   0  0  1  0  0  3  0  0  0  0  0  0
  189.1070  177.0800  143.0240 C   0  0  0  0  0  2  0  0  0  0  0  0
  187.1080  178.0680  147.9990 C   0  0  0  0  0  3  0  0  0  0  0  0
  187.7950  177.7950  143.0840 C   0  0  0  0  0  0  0  0  0  0  0  0
  187.2350  178.1120  144.2630 C   0  0  0  0  0  3  0  0  0  0  0  0
  186.8090  178.2440  146.6490 C   0  0  0  0  0  3  0  0  0  0  0  0
  190.0180  177.6990  143.8760 O   0  0  0  0  0  0  0  0  0  0  0  0
  192.1320  177.7860  145.5470 O   0  0  0  0  0  0  0  0  0  0  0  0
  191.4180  176.7940  145.5520 C   0  0  0  0  0  0  0  0  0  0  0  0
  192.5230  175.6820  147.3250 O   0  0  0  0  0  1  0  0  0  0  0  0
  191.9540  175.4950  146.0660 C   0  0  0  0  0  2  0  0  0  0  0  0
  187.9650  178.3080  140.5690 C   0  0  0  0  0  2  0  0  0  0  0  0
  187.1050  178.2910  139.3540 C   0  0  0  0  0  3  0  0  0  0  0  0
  187.7300  178.3290  135.9000 O   0  0  0  0  0  1  0  0  0  0  0  0
  187.6090  177.9610  138.1990 C   0  0  0  0  0  0  0  0  0  0  0  0
  188.1070  177.6320  137.0410 C   0  0  0  0  0  0  0  0  0  0  0  0
  189.0610  176.4940  136.9390 C   0  0  0  0  0  2  0  0  0  0  0  0
  189.4550  176.0840  138.2260 O   0  0  0  0  0  0  0  0  0  0  0  0
  191.7710  175.3330  137.9270 C   0  0  0  0  0  2  0  0  0  0  0  0
  190.8120  176.4230  138.4220 C   0  0  2  0  0  3  0  0  0  0  0  0
  194.3910  174.7170  137.9830 O   0  0  0  0  0  0  0  0  0  0  0  0
  192.4580  177.6140  139.9210 C   0  0  0  0  0  2  0  0  0  0  0  0
  193.6110  176.6450  139.6960 C   0  0  0  0  0  2  0  0  0  0  0  0
  193.4550  175.8860  138.0910 S   0  0  0  0  0  0  0  0  0  0  0  0
  191.1110  176.8990  139.8530 C   0  0  0  0  0  2  0  0  0  0  0  0
  193.7710  176.8890  137.0180 O   0  0  0  0  0  0  0  0  0  0  0  0
  184.7670  178.1970  142.6980 C   0  0  0  0  0  2  0  0  0  0  0  0
  184.4580  179.5680  143.2670 C   0  0  0  0  0  2  0  0  0  0  0  0
  183.1410  179.5340  144.0190 C   0  0  2  0  0  3  0  0  0  0  0  0
  183.3600  179.1340  145.3400 O   0  0  0  0  0  1  0  0  0  0  0  0
  182.1990  178.5550  143.3380 C   0  0  0  0  0  2  0  0  0  0  0  0
  180.9220  179.2480  142.8810 C   0  0  2  0  0  3  0  0  0  0  0  0
  179.0090  179.9330  144.1600 O   0  0  0  0  0  0  0  0  0  0  0  0
  179.6140  177.7310  144.3710 O   0  0  0  0  0  1  0  0  0  0  0  0
  179.7950  179.0010  143.8400 C   0  0  0  0  0  0  0  0  0  0  0  0
  180.5520  178.7570  141.4920 C   0  0  0  0  0  2  0  0  0  0  0  0
  181.8470  179.5130  139.5400 C   0  0  0  0  0  0  0  0  0  0  0  0
  181.7210  178.7990  140.6220 N   0  0  0  0  0  0  0  0  0  0  0  0
  180.7970  180.4640  139.0660 C   0  0  0  0  0  0  0  0  0  0  0  0
  180.3680  181.3570  139.8460 O   0  0  0  0  0  0  0  0  0  0  0  0
  179.2050  181.2600  137.2750 C   0  0  0  0  0  1  0  0  0  0  0  0
  180.2390  180.3560  137.7530 N   0  0  0  0  0  2  0  0  0  0  0  0
  184.1330  180.2200  139.2490 O   0  0  0  0  0  1  0  0  0  0  0  0
  183.1360  179.3560  138.7810 C   0  0  1  0  0  3  0  0  0  0  0  0
  183.6250  177.9110  138.7190 C   0  0  0  0  0  2  0  0  0  0  0  0
  183.9750  177.4750  137.3060 C   0  0  0  0  0  2  0  0  0  0  0  0
  184.5260  176.0650  137.3360 C   0  0  0  0  0  1  0  0  0  0  0  0
  1 10  1  0  0  0  0
  2  1  2  0  0  0  0
  2 33  1  0  0  0  0
  4  6  2  0  0  0  0
  4 12  1  0  0  0  0
  5  3  2  0  0  0  0
  6  5  1  0  0  0  0
  7 15  1  1  0  0  0
  7  6  1  0  0  0  0
  8 10  1  0  0  0  0
  8 13  1  0  0  0  0
  9  3  1  0  0  0  0
 10 11  2  0  0  0  0
 11  4  1  0  0  0  0
 12  9  2  0  0  0  0
 13  7  1  0  0  0  0
 14 15  2  0  0  0  0
 15 17  1  0  0  0  0
 17 16  1  0  0  0  0
 18  1  1  0  0  0  0
 19 18  1  0  0  0  0
 20 22  1  0  0  0  0
 21 19  2  0  0  0  0
 22 21  2  0  0  0  0
 23 22  1  0  0  0  0
 23 24  1  0  0  0  0
 25 30  1  0  0  0  0
 25 26  1  0  0  0  0
 26 24  1  1  0  0  0
 26 31  1  0  0  0  0
 27 30  2  0  0  0  0
 29 28  1  0  0  0  0
 30 29  1  0  0  0  0
 31 28  1  0  0  0  0
 32 30  2  0  0  0  0
 33 34  1  0  0  0  0
 34 35  1  0  0  0  0
 35 36  1  1  0  0  0
 37 35  1  0  0  0  0
 38 42  1  6  0  0  0
 38 37  1  0  0  0  0
 38 41  1  0  0  0  0
 41 39  2  0  0  0  0
 41 40  1  0  0  0  0
 43 44  2  0  0  0  0
 44 42  1  0  0  0  0
 45 43  1  0  0  0  0
 45 46  2  0  0  0  0
 47 48  1  0  0  0  0
 48 45  1  0  0  0  0
 50 49  1  1  0  0  0
 50 43  1  0  0  0  0
 51 50  1  0  0  0  0
 52 53  1  0  0  0  0
 52 51  1  0  0  0  0
M  END
>  <MODEL>
1

>  <REMARK>
 VINA RESULT:      -8.2      0.000      0.000
  Name = 
  20 active torsions:
  status: ('A' for Active; 'I' for Inactive)
    1  A    between atoms: C_4  and  C_10
    2  A    between atoms: C_6  and  O_15
    3  A    between atoms: C_7  and  C_10
    4  A    between atoms: C_7  and  C_42
    5  A    between atoms: C_8  and  C_19
    6  A    between atoms: C_9  and  C_14
    7  A    between atoms: C_9  and  C_21
    8  A    between atoms: C_11  and  C_19
    9  A    between atoms: C_11  and  C_39
   10  A    between atoms: C_14  and  C_33
   11  A    between atoms: C_14  and  C_40
   12  A    between atoms: O_15  and  C_16
   13  A    between atoms: C_16  and  C_30
   14  A    between atoms: C_20  and  C_39
   15  A    between atoms: C_21  and  C_28
   16  A    between atoms: C_22  and  C_28
   17  A    between atoms: C_22  and  C_50
   18  A    between atoms: C_32  and  C_51
   19  A    between atoms: C_35  and  C_51
   20  A    between atoms: C_40  and  N_48
                            x       y       z     vdW  Elec       q    Type
                         _______ _______ _______ _____ _____    ______ ____

>  <TORSDO>
F 20

$$$$
=
 OpenBabel10222417533D

 53 55  0  0  1  0  0  0  0  0999 V2000
  187.8460  178.1010  140.7470 C   0  0  0  0  0  0  0  0  0  0  0  0
  186.6460  178.5800  140.3850 C   0  0  0  0  0  3  0  0  0  0  0  0
  187.7290  177.4400  147.4290 C   0  0  0  0  0  3  0  0  0  0  0  0
  187.6660  177.8200  144.6400 C   0  0  0  0  0  0  0  0  0  0  0  0
  188.8450  177.1240  146.6540 C   0  0  0  0  0  3  0  0  0  0  0  0
  188.8520  177.3290  145.2620 C   0  0  0  0  0  0  0  0  0  0  0  0
  190.0810  176.9120  144.4730 C   0  0  1  0  0  3  0  0  0  0  0  0
  189.5800  177.1000  142.3450 C   0  0  0  0  0  2  0  0  0  0  0  0
  186.5870  177.9530  146.8210 C   0  0  0  0  0  3  0  0  0  0  0  0
  188.2570  177.7680  142.1440 C   0  0  0  0  0  0  0  0  0  0  0  0
  187.4600  178.0500  143.1880 C   0  0  0  0  0  3  0  0  0  0  0  0
  186.5600  178.1360  145.4400 C   0  0  0  0  0  3  0  0  0  0  0  0
  190.2770  177.7390  143.3660 O   0  0  0  0  0  0  0  0  0  0  0  0
  191.9080  177.9030  145.5870 O   0  0  0  0  0  0  0  0  0  0  0  0
  191.3440  176.8620  145.2850 C   0  0  0  0  0  0  0  0  0  0  0  0
  192.0840  175.5120  147.0830 O   0  0  0  0  0  1  0  0  0  0  0  0
  191.9360  175.5500  145.6970 C   0  0  0  0  0  2  0  0  0  0  0  0
  188.8370  177.9090  139.6420 C   0  0  0  0  0  2  0  0  0  0  0  0
  188.1250  177.6660  138.3570 C   0  0  0  0  0  3  0  0  0  0  0  0
  189.1240  177.4280  135.0000 O   0  0  0  0  0  1  0  0  0  0  0  0
  188.7870  177.2840  137.3030 C   0  0  0  0  0  0  0  0  0  0  0  0
  189.4440  176.9000  136.2450 C   0  0  0  0  0  0  0  0  0  0  0  0
  190.5210  175.8800  136.3680 C   0  0  0  0  0  2  0  0  0  0  0  0
  191.5160  176.1190  135.4020 O   0  0  0  0  0  0  0  0  0  0  0  0
  193.7540  175.2300  134.9350 C   0  0  0  0  0  2  0  0  0  0  0  0
  192.7800  175.8250  135.9600 C   0  0  2  0  0  3  0  0  0  0  0  0
  196.1910  174.0880  134.8340 O   0  0  0  0  0  0  0  0  0  0  0  0
  194.0090  175.0560  138.0260 C   0  0  0  0  0  2  0  0  0  0  0  0
  195.0990  174.2900  137.2890 C   0  0  0  0  0  2  0  0  0  0  0  0
  195.3560  175.0080  135.6790 S   0  0  0  0  0  0  0  0  0  0  0  0
  192.6880  175.0140  137.2630 C   0  0  0  0  0  2  0  0  0  0  0  0
  196.0460  176.3360  135.8150 O   0  0  0  0  0  0  0  0  0  0  0  0
  185.5010  178.8520  141.3020 C   0  0  0  0  0  2  0  0  0  0  0  0
  184.1940  178.6190  140.5700 C   0  0  0  0  0  2  0  0  0  0  0  0
  184.3130  179.0870  139.1310 C   0  0  2  0  0  3  0  0  0  0  0  0
  184.2050  180.4780  139.0750 O   0  0  0  0  0  1  0  0  0  0  0  0
  183.2080  178.4520  138.3040 C   0  0  0  0  0  2  0  0  0  0  0  0
  182.8560  177.0660  138.8270 C   0  0  2  0  0  3  0  0  0  0  0  0
  184.6140  175.9150  137.6660 O   0  0  0  0  0  1  0  0  0  0  0  0
  182.5030  175.0700  137.3700 O   0  0  0  0  0  0  0  0  0  0  0  0
  183.3820  175.9920  137.9220 C   0  0  0  0  0  0  0  0  0  0  0  0
  181.3470  176.9490  138.9660 C   0  0  0  0  0  2  0  0  0  0  0  0
  180.3420  178.4770  140.6130 C   0  0  0  0  0  0  0  0  0  0  0  0
  180.9380  177.3610  140.3030 N   0  0  0  0  0  0  0  0  0  0  0  0
  179.9290  179.4890  139.5940 C   0  0  0  0  0  0  0  0  0  0  0  0
  178.9540  179.2440  138.8330 O   0  0  0  0  0  0  0  0  0  0  0  0
  180.2720  181.7100  138.4440 C   0  0  0  0  0  1  0  0  0  0  0  0
  180.6460  180.7180  139.4380 N   0  0  0  0  0  2  0  0  0  0  0  0
  179.6170  177.5350  142.7090 O   0  0  0  0  0  1  0  0  0  0  0  0
  180.0570  178.7010  142.0720 C   0  0  1  0  0  3  0  0  0  0  0  0
  181.2210  179.3480  142.8200 C   0  0  0  0  0  2  0  0  0  0  0  0
  181.5420  178.6360  144.1240 C   0  0  0  0  0  2  0  0  0  0  0  0
  183.0120  178.8090  144.4430 C   0  0  0  0  0  1  0  0  0  0  0  0
  1 10  1  0  0  0  0
  2  1  2  0  0  0  0
  2 33  1  0  0  0  0
  4  6  2  0  0  0  0
  4 12  1  0  0  0  0
  5  3  2  0  0  0  0
  6  5  1  0  0  0  0
  7  6  1  0  0  0  0
  7 15  1  1  0  0  0
  8 13  1  0  0  0  0
  9  3  1  0  0  0  0
 10  8  1  0  0  0  0
 10 11  2  0  0  0  0
 11  4  1  0  0  0  0
 12  9  2  0  0  0  0
 13  7  1  0  0  0  0
 15 14  2  0  0  0  0
 15 17  1  0  0  0  0
 17 16  1  0  0  0  0
 18  1  1  0  0  0  0
 19 18  1  0  0  0  0
 20 22  1  0  0  0  0
 21 19  2  0  0  0  0
 22 23  1  0  0  0  0
 22 21  2  0  0  0  0
 24 23  1  0  0  0  0
 25 30  1  0  0  0  0
 25 26  1  0  0  0  0
 26 24  1  6  0  0  0
 26 31  1  0  0  0  0
 27 30  2  0  0  0  0
 29 28  1  0  0  0  0
 30 32  2  0  0  0  0
 30 29  1  0  0  0  0
 31 28  1  0  0  0  0
 34 33  1  0  0  0  0
 35 36  1  1  0  0  0
 35 34  1  0  0  0  0
 37 35  1  0  0  0  0
 38 37  1  6  0  0  0
 38 42  1  0  0  0  0
 39 41  1  0  0  0  0
 40 41  2  0  0  0  0
 41 38  1  0  0  0  0
 42 44  1  0  0  0  0
 43 50  1  0  0  0  0
 44 43  2  0  0  0  0
 45 43  1  0  0  0  0
 46 45  2  0  0  0  0
 47 48  1  0  0  0  0
 48 45  1  0  0  0  0
 50 49  1  1  0  0  0
 50 51  1  0  0  0  0
 51 52  1  0  0  0  0
 52 53  1  0  0  0  0
M  END
>  <MODEL>
2

>  <REMARK>
 VINA RESULT:      -7.6      1.872      3.657
  Name = 
  20 active torsions:
  status: ('A' for Active; 'I' for Inactive)
    1  A    between atoms: C_4  and  C_10
    2  A    between atoms: C_6  and  O_15
    3  A    between atoms: C_7  and  C_10
    4  A    between atoms: C_7  and  C_42
    5  A    between atoms: C_8  and  C_19
    6  A    between atoms: C_9  and  C_14
    7  A    between atoms: C_9  and  C_21
    8  A    between atoms: C_11  and  C_19
    9  A    between atoms: C_11  and  C_39
   10  A    between atoms: C_14  and  C_33
   11  A    between atoms: C_14  and  C_40
   12  A    between atoms: O_15  and  C_16
   13  A    between atoms: C_16  and  C_30
   14  A    between atoms: C_20  and  C_39
   15  A    between atoms: C_21  and  C_28
   16  A    between atoms: C_22  and  C_28
   17  A    between atoms: C_22  and  C_50
   18  A    between atoms: C_32  and  C_51
   19  A    between atoms: C_35  and  C_51
   20  A    between atoms: C_40  and  N_48
                            x       y       z     vdW  Elec       q    Type
                         _______ _______ _______ _____ _____    ______ ____

>  <TORSDO>
F 20

$$$$
=
 OpenBabel10222417533D

 53 55  0  0  1  0  0  0  0  0999 V2000
  184.8860  178.5970  140.3730 C   0  0  0  0  0  0  0  0  0  0  0  0
  185.1880  178.6990  141.6770 C   0  0  0  0  0  3  0  0  0  0  0  0
  179.0800  175.7150  138.6160 C   0  0  0  0  0  3  0  0  0  0  0  0
  181.5750  176.7830  139.3640 C   0  0  0  0  0  0  0  0  0  0  0  0
  179.4070  177.0290  138.2830 C   0  0  0  0  0  3  0  0  0  0  0  0
  180.6570  177.5810  138.6190 C   0  0  0  0  0  0  0  0  0  0  0  0
  180.9260  179.0350  138.2720 C   0  0  1  0  0  3  0  0  0  0  0  0
  182.8210  179.5900  139.2270 C   0  0  0  0  0  2  0  0  0  0  0  0
  179.9940  174.9300  139.3120 C   0  0  0  0  0  3  0  0  0  0  0  0
  183.5130  178.4030  139.8170 C   0  0  0  0  0  0  0  0  0  0  0  0
  182.9110  177.2020  139.8560 C   0  0  0  0  0  3  0  0  0  0  0  0
  181.2270  175.4640  139.6830 C   0  0  0  0  0  3  0  0  0  0  0  0
  182.2760  179.2480  137.9930 O   0  0  0  0  0  0  0  0  0  0  0  0
  180.2630  179.1110  136.0100 O   0  0  0  0  0  0  0  0  0  0  0  0
  180.0950  179.5590  137.1340 C   0  0  0  0  0  0  0  0  0  0  0  0
  179.7430  181.8620  137.5480 O   0  0  0  0  0  1  0  0  0  0  0  0
  179.0900  180.6440  137.3590 C   0  0  0  0  0  2  0  0  0  0  0  0
  186.0410  178.6730  139.4250 C   0  0  0  0  0  2  0  0  0  0  0  0
  185.6850  178.0160  138.1370 C   0  0  0  0  0  3  0  0  0  0  0  0
  186.8210  178.3170  134.8290 O   0  0  0  0  0  1  0  0  0  0  0  0
  186.5050  178.0700  137.1250 C   0  0  0  0  0  0  0  0  0  0  0  0
  187.3200  178.1200  136.1110 C   0  0  0  0  0  0  0  0  0  0  0  0
  188.7830  177.9430  136.3230 C   0  0  0  0  0  2  0  0  0  0  0  0
  189.0080  176.9200  137.2620 O   0  0  0  0  0  0  0  0  0  0  0  0
  190.2300  174.8770  136.6720 C   0  0  0  0  0  2  0  0  0  0  0  0
  190.2870  176.3640  137.0420 C   0  0  2  0  0  3  0  0  0  0  0  0
  191.8820  172.7820  136.3050 O   0  0  0  0  0  0  0  0  0  0  0  0
  192.7160  176.4110  137.7290 C   0  0  0  0  0  2  0  0  0  0  0  0
  192.9670  174.9220  137.5320 C   0  0  0  0  0  2  0  0  0  0  0  0
  191.8640  174.2840  136.2870 S   0  0  0  0  0  0  0  0  0  0  0  0
  191.2810  176.6780  138.1730 C   0  0  0  0  0  2  0  0  0  0  0  0
  192.2810  174.7790  134.9310 O   0  0  0  0  0  0  0  0  0  0  0  0
  184.2130  178.6540  142.8060 C   0  0  0  0  0  2  0  0  0  0  0  0
  184.7600  179.4340  143.9840 C   0  0  0  0  0  2  0  0  0  0  0  0
  185.0820  178.4900  145.1280 C   0  0  2  0  0  3  0  0  0  0  0  0
  184.2400  178.7540  146.2120 O   0  0  0  0  0  1  0  0  0  0  0  0
  186.5300  178.6820  145.5450 C   0  0  0  0  0  2  0  0  0  0  0  0
  186.9840  177.5750  146.4860 C   0  0  2  0  0  3  0  0  0  0  0  0
  188.3240  177.5200  148.4780 O   0  0  0  0  0  1  0  0  0  0  0  0
  186.9360  179.3330  148.2570 O   0  0  0  0  0  0  0  0  0  0  0  0
  187.4560  178.1300  147.7960 C   0  0  0  0  0  0  0  0  0  0  0  0
  188.0900  176.7720  145.8220 C   0  0  0  0  0  2  0  0  0  0  0  0
  190.0740  177.6390  144.6520 C   0  0  0  0  0  0  0  0  0  0  0  0
  188.7860  177.5980  144.8440 N   0  0  0  0  0  0  0  0  0  0  0  0
  191.0350  176.7650  145.3900 C   0  0  0  0  0  0  0  0  0  0  0  0
  191.6650  175.8680  144.7670 O   0  0  0  0  0  0  0  0  0  0  0  0
  192.1410  176.0510  147.5450 C   0  0  0  0  0  1  0  0  0  0  0  0
  191.2230  176.9000  146.8020 N   0  0  0  0  0  2  0  0  0  0  0  0
  191.4300  179.5660  144.1480 O   0  0  0  0  0  1  0  0  0  0  0  0
  190.5650  178.6070  143.6110 C   0  0  1  0  0  3  0  0  0  0  0  0
  191.1720  177.9190  142.3900 C   0  0  0  0  0  2  0  0  0  0  0  0
  190.2090  176.9430  141.7330 C   0  0  0  0  0  2  0  0  0  0  0  0
  189.0730  177.7120  141.0910 C   0  0  0  0  0  1  0  0  0  0  0  0
  1  2  2  0  0  0  0
  2 33  1  0  0  0  0
  3  9  1  0  0  0  0
  4 12  1  0  0  0  0
  4 11  1  0  0  0  0
  5  3  2  0  0  0  0
  5  6  1  0  0  0  0
  6  4  2  0  0  0  0
  7 15  1  6  0  0  0
  7  6  1  0  0  0  0
  8 10  1  0  0  0  0
  9 12  2  0  0  0  0
 10 11  2  0  0  0  0
 10  1  1  0  0  0  0
 13  7  1  0  0  0  0
 13  8  1  0  0  0  0
 14 15  2  0  0  0  0
 15 17  1  0  0  0  0
 17 16  1  0  0  0  0
 18  1  1  0  0  0  0
 19 18  1  0  0  0  0
 20 22  1  0  0  0  0
 21 19  2  0  0  0  0
 22 23  1  0  0  0  0
 22 21  2  0  0  0  0
 23 24  1  0  0  0  0
 25 26  1  0  0  0  0
 26 24  1  1  0  0  0
 26 31  1  0  0  0  0
 28 31  1  0  0  0  0
 29 28  1  0  0  0  0
 30 27  2  0  0  0  0
 30 25  1  0  0  0  0
 30 29  1  0  0  0  0
 32 30  2  0  0  0  0
 33 34  1  0  0  0  0
 34 35  1  0  0  0  0
 35 37  1  0  0  0  0
 35 36  1  1  0  0  0
 38 37  1  6  0  0  0
 38 41  1  0  0  0  0
 41 40  2  0  0  0  0
 41 39  1  0  0  0  0
 42 38  1  0  0  0  0
 43 44  2  0  0  0  0
 43 45  1  0  0  0  0
 44 42  1  0  0  0  0
 45 48  1  0  0  0  0
 46 45  2  0  0  0  0
 48 47  1  0  0  0  0
 50 49  1  1  0  0  0
 50 43  1  0  0  0  0
 51 50  1  0  0  0  0
 52 51  1  0  0  0  0
 53 52  1  0  0  0  0
M  END
>  <MODEL>
3

>  <REMARK>
 VINA RESULT:      -6.9      2.958      8.691
  Name = 
  20 active torsions:
  status: ('A' for Active; 'I' for Inactive)
    1  A    between atoms: C_4  and  C_10
    2  A    between atoms: C_6  and  O_15
    3  A    between atoms: C_7  and  C_10
    4  A    between atoms: C_7  and  C_42
    5  A    between atoms: C_8  and  C_19
    6  A    between atoms: C_9  and  C_14
    7  A    between atoms: C_9  and  C_21
    8  A    between atoms: C_11  and  C_19
    9  A    between atoms: C_11  and  C_39
   10  A    between atoms: C_14  and  C_33
   11  A    between atoms: C_14  and  C_40
   12  A    between atoms: O_15  and  C_16
   13  A    between atoms: C_16  and  C_30
   14  A    between atoms: C_20  and  C_39
   15  A    between atoms: C_21  and  C_28
   16  A    between atoms: C_22  and  C_28
   17  A    between atoms: C_22  and  C_50
   18  A    between atoms: C_32  and  C_51
   19  A    between atoms: C_35  and  C_51
   20  A    between atoms: C_40  and  N_48
                            x       y       z     vdW  Elec       q    Type
                         _______ _______ _______ _____ _____    ______ ____

>  <TORSDO>
F 20

$$$$
=
 OpenBabel10222417533D

 53 55  0  0  1  0  0  0  0  0999 V2000
  190.5140  176.8750  138.8830 C   0  0  0  0  0  0  0  0  0  0  0  0
  189.6010  177.7620  138.4590 C   0  0  0  0  0  3  0  0  0  0  0  0
  193.0010  172.2330  134.7150 C   0  0  0  0  0  3  0  0  0  0  0  0
  191.8460  174.0800  136.4980 C   0  0  0  0  0  0  0  0  0  0  0  0
  193.7740  173.2600  135.2550 C   0  0  0  0  0  3  0  0  0  0  0  0
  193.2310  174.1820  136.1700 C   0  0  0  0  0  0  0  0  0  0  0  0
  194.1150  175.3070  136.6780 C   0  0  1  0  0  3  0  0  0  0  0  0
  192.8320  176.6800  137.8110 C   0  0  0  0  0  2  0  0  0  0  0  0
  191.6590  172.1180  135.0660 C   0  0  0  0  0  3  0  0  0  0  0  0
  191.4580  176.1210  138.0030 C   0  0  0  0  0  0  0  0  0  0  0  0
  191.0830  174.9840  137.3950 C   0  0  0  0  0  3  0  0  0  0  0  0
  191.0910  173.0370  135.9470 C   0  0  0  0  0  3  0  0  0  0  0  0
  193.7760  175.6700  137.9810 O   0  0  0  0  0  0  0  0  0  0  0  0
  196.0890  174.2730  137.4490 O   0  0  0  0  0  0  0  0  0  0  0  0
  195.5870  175.0090  136.6130 C   0  0  0  0  0  0  0  0  0  0  0  0
  197.6180  176.1230  136.1310 O   0  0  0  0  0  1  0  0  0  0  0  0
  196.4460  175.6310  135.5580 C   0  0  0  0  0  2  0  0  0  0  0  0
  190.5550  176.6300  140.3580 C   0  0  0  0  0  2  0  0  0  0  0  0
  191.6430  177.4360  140.9770 C   0  0  0  0  0  3  0  0  0  0  0  0
  192.0450  179.0630  144.0620 O   0  0  0  0  0  1  0  0  0  0  0  0
  191.6660  177.6260  142.2660 C   0  0  0  0  0  0  0  0  0  0  0  0
  191.6940  177.8180  143.5540 C   0  0  0  0  0  0  0  0  0  0  0  0
  191.3750  176.6980  144.4810 C   0  0  0  0  0  2  0  0  0  0  0  0
  191.3310  177.1710  145.8040 O   0  0  0  0  0  0  0  0  0  0  0  0
  189.5960  177.0560  147.5340 C   0  0  0  0  0  2  0  0  0  0  0  0
  190.0000  177.5160  146.1280 C   0  0  2  0  0  3  0  0  0  0  0  0
  187.4070  176.8860  149.0930 O   0  0  0  0  0  0  0  0  0  0  0  0
  187.6620  177.8320  145.2300 C   0  0  0  0  0  2  0  0  0  0  0  0
  186.9420  177.3400  146.4780 C   0  0  0  0  0  2  0  0  0  0  0  0
  187.9560  177.6360  147.9130 S   0  0  0  0  0  0  0  0  0  0  0  0
  188.9940  177.1120  145.0370 C   0  0  0  0  0  2  0  0  0  0  0  0
  187.9920  179.1070  148.2210 O   0  0  0  0  0  0  0  0  0  0  0  0
  189.3710  178.1720  137.0430 C   0  0  0  0  0  2  0  0  0  0  0  0
  188.2210  177.3760  136.4600 C   0  0  0  0  0  2  0  0  0  0  0  0
  186.9180  178.1300  136.6500 C   0  0  2  0  0  3  0  0  0  0  0  0
  187.1850  179.4660  136.9610 O   0  0  0  0  0  1  0  0  0  0  0  0
  186.1280  177.4890  137.7790 C   0  0  0  0  0  2  0  0  0  0  0  0
  185.1870  178.4930  138.4320 C   0  0  2  0  0  3  0  0  0  0  0  0
  186.7340  178.6770  140.2580 O   0  0  0  0  0  0  0  0  0  0  0  0
  184.5210  178.9500  140.7930 O   0  0  0  0  0  1  0  0  0  0  0  0
  185.5340  178.7070  139.8750 C   0  0  0  0  0  0  0  0  0  0  0  0
  183.7550  178.0020  138.2980 C   0  0  0  0  0  2  0  0  0  0  0  0
  181.7420  179.4160  138.3500 C   0  0  0  0  0  0  0  0  0  0  0  0
  182.8970  179.0880  137.8440 N   0  0  0  0  0  0  0  0  0  0  0  0
  181.1540  178.7370  139.5430 C   0  0  0  0  0  0  0  0  0  0  0  0
  180.6350  177.5950  139.4160 O   0  0  0  0  0  0  0  0  0  0  0  0
  180.5500  178.7430  141.9950 C   0  0  0  0  0  1  0  0  0  0  0  0
  181.1310  179.3770  140.8230 N   0  0  0  0  0  2  0  0  0  0  0  0
  179.6280  180.3980  137.7380 O   0  0  0  0  0  1  0  0  0  0  0  0
  181.0170  180.5520  137.6810 C   0  0  1  0  0  3  0  0  0  0  0  0
  181.4550  181.9250  138.1880 C   0  0  0  0  0  2  0  0  0  0  0  0
  180.6670  183.0580  137.5510 C   0  0  0  0  0  2  0  0  0  0  0  0
  181.5790  184.2470  137.3370 C   0  0  0  0  0  1  0  0  0  0  0  0
  1 18  1  0  0  0  0
  2  1  2  0  0  0  0
  3  9  2  0  0  0  0
  3  5  1  0  0  0  0
  4 11  1  0  0  0  0
  5  6  2  0  0  0  0
  6  4  1  0  0  0  0
  6  7  1  0  0  0  0
  7 15  1  1  0  0  0
  7 13  1  0  0  0  0
  8 13  1  0  0  0  0
  8 10  1  0  0  0  0
  9 12  1  0  0  0  0
 10  1  1  0  0  0  0
 11 10  2  0  0  0  0
 12  4  2  0  0  0  0
 15 14  2  0  0  0  0
 17 16  1  0  0  0  0
 17 15  1  0  0  0  0
 18 19  1  0  0  0  0
 19 21  2  0  0  0  0
 21 22  2  0  0  0  0
 22 20  1  0  0  0  0
 22 23  1  0  0  0  0
 23 24  1  0  0  0  0
 25 30  1  0  0  0  0
 26 24  1  6  0  0  0
 26 25  1  0  0  0  0
 28 29  1  0  0  0  0
 29 30  1  0  0  0  0
 30 32  2  0  0  0  0
 30 27  2  0  0  0  0
 31 28  1  0  0  0  0
 31 26  1  0  0  0  0
 33  2  1  0  0  0  0
 34 35  1  0  0  0  0
 34 33  1  0  0  0  0
 35 36  1  1  0  0  0
 35 37  1  0  0  0  0
 38 37  1  1  0  0  0
 38 41  1  0  0  0  0
 41 39  2  0  0  0  0
 41 40  1  0  0  0  0
 42 38  1  0  0  0  0
 43 45  1  0  0  0  0
 44 42  1  0  0  0  0
 44 43  2  0  0  0  0
 45 48  1  0  0  0  0
 46 45  2  0  0  0  0
 48 47  1  0  0  0  0
 50 49  1  1  0  0  0
 50 51  1  0  0  0  0
 50 43  1  0  0  0  0
 52 51  1  0  0  0  0
 53 52  1  0  0  0  0
M  END
>  <MODEL>
4

>  <REMARK>
 VINA RESULT:      -6.8      2.912      8.448
  Name = 
  20 active torsions:
  status: ('A' for Active; 'I' for Inactive)
    1  A    between atoms: C_4  and  C_10
    2  A    between atoms: C_6  and  O_15
    3  A    between atoms: C_7  and  C_10
    4  A    between atoms: C_7  and  C_42
    5  A    between atoms: C_8  and  C_19
    6  A    between atoms: C_9  and  C_14
    7  A    between atoms: C_9  and  C_21
    8  A    between atoms: C_11  and  C_19
    9  A    between atoms: C_11  and  C_39
   10  A    between atoms: C_14  and  C_33
   11  A    between atoms: C_14  and  C_40
   12  A    between atoms: O_15  and  C_16
   13  A    between atoms: C_16  and  C_30
   14  A    between atoms: C_20  and  C_39
   15  A    between atoms: C_21  and  C_28
   16  A    between atoms: C_22  and  C_28
   17  A    between atoms: C_22  and  C_50
   18  A    between atoms: C_32  and  C_51
   19  A    between atoms: C_35  and  C_51
   20  A    between atoms: C_40  and  N_48
                            x       y       z     vdW  Elec       q    Type
                         _______ _______ _______ _____ _____    ______ ____

>  <TORSDO>
F 20

$$$$
=
 OpenBabel10222417533D

 53 55  0  0  1  0  0  0  0  0999 V2000
  187.7050  177.8320  138.0640 C   0  0  0  0  0  0  0  0  0  0  0  0
  187.7120  178.3410  139.3060 C   0  0  0  0  0  3  0  0  0  0  0  0
  190.8310  172.5840  135.2730 C   0  0  0  0  0  3  0  0  0  0  0  0
  189.4070  174.6890  136.4850 C   0  0  0  0  0  0  0  0  0  0  0  0
  191.5000  173.7370  135.6810 C   0  0  0  0  0  3  0  0  0  0  0  0
  190.8200  174.7940  136.3140 C   0  0  0  0  0  0  0  0  0  0  0  0
  191.6010  176.0430  136.6840 C   0  0  1  0  0  3  0  0  0  0  0  0
  190.1470  177.5460  137.3460 C   0  0  0  0  0  2  0  0  0  0  0  0
  189.4580  172.4720  135.4750 C   0  0  0  0  0  3  0  0  0  0  0  0
  188.7750  176.9680  137.4800 C   0  0  0  0  0  0  0  0  0  0  0  0
  188.5110  175.7140  137.0770 C   0  0  0  0  0  3  0  0  0  0  0  0
  188.7570  173.5190  136.0720 C   0  0  0  0  0  3  0  0  0  0  0  0
  191.0860  176.6420  137.8340 O   0  0  0  0  0  0  0  0  0  0  0  0
  193.4750  175.1720  137.8220 O   0  0  0  0  0  0  0  0  0  0  0  0
  193.0760  175.8140  136.8610 C   0  0  0  0  0  0  0  0  0  0  0  0
  193.5530  176.3160  134.5980 O   0  0  0  0  0  1  0  0  0  0  0  0
  194.0610  176.3930  135.8950 C   0  0  0  0  0  2  0  0  0  0  0  0
  186.5260  178.1900  137.2150 C   0  0  0  0  0  2  0  0  0  0  0  0
  185.6330  177.0090  137.0630 C   0  0  0  0  0  3  0  0  0  0  0  0
  182.8930  175.7520  138.8630 O   0  0  0  0  0  1  0  0  0  0  0  0
  184.4820  176.9750  137.6730 C   0  0  0  0  0  0  0  0  0  0  0  0
  183.3290  176.9350  138.2800 C   0  0  0  0  0  0  0  0  0  0  0  0
  182.4720  178.1510  138.3270 C   0  0  0  0  0  2  0  0  0  0  0  0
  182.7960  178.9200  139.4600 O   0  0  0  0  0  0  0  0  0  0  0  0
  181.8190  178.7500  141.7030 C   0  0  0  0  0  2  0  0  0  0  0  0
  181.6290  179.1250  140.2280 C   0  0  2  0  0  3  0  0  0  0  0  0
  180.3710  178.4530  143.9540 O   0  0  0  0  0  0  0  0  0  0  0  0
  179.1050  179.0650  140.2250 C   0  0  0  0  0  2  0  0  0  0  0  0
  178.9530  178.6050  141.6680 C   0  0  0  0  0  2  0  0  0  0  0  0
  180.3510  179.1550  142.6260 S   0  0  0  0  0  0  0  0  0  0  0  0
  180.3750  178.5010  139.5930 C   0  0  0  0  0  2  0  0  0  0  0  0
  180.2740  180.6400  142.8390 O   0  0  0  0  0  0  0  0  0  0  0  0
  188.7730  178.1260  140.3330 C   0  0  0  0  0  2  0  0  0  0  0  0
  188.7000  176.7040  140.8540 C   0  0  0  0  0  2  0  0  0  0  0  0
  189.1220  176.6620  142.3110 C   0  0  2  0  0  3  0  0  0  0  0  0
  188.1930  175.9270  143.0520 O   0  0  0  0  0  1  0  0  0  0  0  0
  189.2030  178.0800  142.8510 C   0  0  0  0  0  2  0  0  0  0  0  0
  190.6240  178.4280  143.2730 C   0  0  2  0  0  3  0  0  0  0  0  0
  191.9190  176.4430  143.6550 O   0  0  0  0  0  1  0  0  0  0  0  0
  192.1290  177.3880  141.5760 O   0  0  0  0  0  0  0  0  0  0  0  0
  191.5930  177.3630  142.8570 C   0  0  0  0  0  0  0  0  0  0  0  0
  190.6680  178.6260  144.7790 C   0  0  0  0  0  2  0  0  0  0  0  0
  189.2200  177.6080  146.4890 C   0  0  0  0  0  0  0  0  0  0  0  0
  189.3890  178.2490  145.3680 N   0  0  0  0  0  0  0  0  0  0  0  0
  190.3530  177.2160  147.3810 C   0  0  0  0  0  0  0  0  0  0  0  0
  190.5470  177.8500  148.4540 O   0  0  0  0  0  0  0  0  0  0  0  0
  192.3660  175.7720  147.8660 C   0  0  0  0  0  1  0  0  0  0  0  0
  191.2480  176.1600  147.0210 N   0  0  0  0  0  2  0  0  0  0  0  0
  187.4030  177.9670  148.0300 O   0  0  0  0  0  1  0  0  0  0  0  0
  187.8010  177.2910  146.8720 C   0  0  1  0  0  3  0  0  0  0  0  0
  186.8100  177.4990  145.7280 C   0  0  0  0  0  2  0  0  0  0  0  0
  185.7090  178.4850  146.0840 C   0  0  0  0  0  2  0  0  0  0  0  0
  185.1410  179.0860  144.8150 C   0  0  0  0  0  1  0  0  0  0  0  0
  1  2  2  0  0  0  0
  2 33  1  0  0  0  0
  3  9  2  0  0  0  0
  3  5  1  0  0  0  0
  4 11  1  0  0  0  0
  5  6  2  0  0  0  0
  6  4  1  0  0  0  0
  6  7  1  0  0  0  0
  7 15  1  1  0  0  0
  7 13  1  0  0  0  0
  8 10  1  0  0  0  0
  8 13  1  0  0  0  0
  9 12  1  0  0  0  0
 10  1  1  0  0  0  0
 11 10  2  0  0  0  0
 12  4  2  0  0  0  0
 15 14  2  0  0  0  0
 16 17  1  0  0  0  0
 17 15  1  0  0  0  0
 18  1  1  0  0  0  0
 19 18  1  0  0  0  0
 19 21  2  0  0  0  0
 21 22  2  0  0  0  0
 22 23  1  0  0  0  0
 22 20  1  0  0  0  0
 23 24  1  0  0  0  0
 25 30  1  0  0  0  0
 26 24  1  6  0  0  0
 26 25  1  0  0  0  0
 28 29  1  0  0  0  0
 29 30  1  0  0  0  0
 30 32  2  0  0  0  0
 30 27  2  0  0  0  0
 31 28  1  0  0  0  0
 31 26  1  0  0  0  0
 33 34  1  0  0  0  0
 34 35  1  0  0  0  0
 35 37  1  0  0  0  0
 35 36  1  1  0  0  0
 38 37  1  1  0  0  0
 38 42  1  0  0  0  0
 40 41  2  0  0  0  0
 41 38  1  0  0  0  0
 41 39  1  0  0  0  0
 42 44  1  0  0  0  0
 43 50  1  0  0  0  0
 43 45  1  0  0  0  0
 44 43  2  0  0  0  0
 45 46  2  0  0  0  0
 48 45  1  0  0  0  0
 48 47  1  0  0  0  0
 50 49  1  1  0  0  0
 51 52  1  0  0  0  0
 51 50  1  0  0  0  0
 53 52  1  0  0  0  0
M  END
>  <MODEL>
5

>  <REMARK>
 VINA RESULT:      -6.7      3.504     10.234
  Name = 
  20 active torsions:
  status: ('A' for Active; 'I' for Inactive)
    1  A    between atoms: C_4  and  C_10
    2  A    between atoms: C_6  and  O_15
    3  A    between atoms: C_7  and  C_10
    4  A    between atoms: C_7  and  C_42
    5  A    between atoms: C_8  and  C_19
    6  A    between atoms: C_9  and  C_14
    7  A    between atoms: C_9  and  C_21
    8  A    between atoms: C_11  and  C_19
    9  A    between atoms: C_11  and  C_39
   10  A    between atoms: C_14  and  C_33
   11  A    between atoms: C_14  and  C_40
   12  A    between atoms: O_15  and  C_16
   13  A    between atoms: C_16  and  C_30
   14  A    between atoms: C_20  and  C_39
   15  A    between atoms: C_21  and  C_28
   16  A    between atoms: C_22  and  C_28
   17  A    between atoms: C_22  and  C_50
   18  A    between atoms: C_32  and  C_51
   19  A    between atoms: C_35  and  C_51
   20  A    between atoms: C_40  and  N_48
                            x       y       z     vdW  Elec       q    Type
                         _______ _______ _______ _____ _____    ______ ____

>  <TORSDO>
F 20

$$$$
=
 OpenBabel10222417533D

 53 55  0  0  1  0  0  0  0  0999 V2000
  189.4020  177.4750  138.7080 C   0  0  0  0  0  0  0  0  0  0  0  0
  188.3200  178.0570  138.1680 C   0  0  0  0  0  3  0  0  0  0  0  0
  191.4750  172.1400  135.1940 C   0  0  0  0  0  3  0  0  0  0  0  0
  190.4730  174.3030  136.6920 C   0  0  0  0  0  0  0  0  0  0  0  0
  192.3530  173.0480  135.7850 C   0  0  0  0  0  3  0  0  0  0  0  0
  191.8830  174.1230  136.5620 C   0  0  0  0  0  0  0  0  0  0  0  0
  192.8930  175.1040  137.1320 C   0  0  1  0  0  3  0  0  0  0  0  0
  191.7600  176.7730  137.9930 C   0  0  0  0  0  2  0  0  0  0  0  0
  190.1020  172.3010  135.3540 C   0  0  0  0  0  3  0  0  0  0  0  0
  190.2910  176.4940  138.0150 C   0  0  0  0  0  0  0  0  0  0  0  0
  189.7880  175.4000  137.4200 C   0  0  0  0  0  3  0  0  0  0  0  0
  189.6110  173.3760  136.0940 C   0  0  0  0  0  3  0  0  0  0  0  0
  192.4600  175.6250  138.3520 O   0  0  0  0  0  0  0  0  0  0  0  0
  194.4770  173.6810  138.1450 O   0  0  0  0  0  0  0  0  0  0  0  0
  194.2750  174.5360  137.2960 C   0  0  0  0  0  0  0  0  0  0  0  0
  196.5700  175.1080  137.2240 O   0  0  0  0  0  1  0  0  0  0  0  0
  195.4090  175.0330  136.4560 C   0  0  0  0  0  2  0  0  0  0  0  0
  189.7080  177.8470  140.1250 C   0  0  0  0  0  2  0  0  0  0  0  0
  189.7440  176.6250  140.9740 C   0  0  0  0  0  3  0  0  0  0  0  0
  191.7450  175.5520  143.6520 O   0  0  0  0  0  1  0  0  0  0  0  0
  190.3670  176.6410  142.1190 C   0  0  0  0  0  0  0  0  0  0  0  0
  190.9870  176.6510  143.2640 C   0  0  0  0  0  0  0  0  0  0  0  0
  190.8640  177.8280  144.1660 C   0  0  0  0  0  2  0  0  0  0  0  0
  190.9350  177.4110  145.5080 O   0  0  0  0  0  0  0  0  0  0  0  0
  188.6430  178.2560  145.2850 C   0  0  0  0  0  2  0  0  0  0  0  0
  189.6300  177.3610  146.0460 C   0  0  2  0  0  3  0  0  0  0  0  0
  186.1170  179.1680  145.4850 O   0  0  0  0  0  0  0  0  0  0  0  0
  188.2610  177.1270  148.1540 C   0  0  0  0  0  2  0  0  0  0  0  0
  187.1330  178.0510  147.7170 C   0  0  0  0  0  2  0  0  0  0  0  0
  187.0010  178.0420  145.9400 S   0  0  0  0  0  0  0  0  0  0  0  0
  189.6000  177.5700  147.5690 C   0  0  0  0  0  2  0  0  0  0  0  0
  186.4320  176.7310  145.4750 O   0  0  0  0  0  0  0  0  0  0  0  0
  187.8170  177.8480  136.7790 C   0  0  0  0  0  2  0  0  0  0  0  0
  186.3340  177.5370  136.8130 C   0  0  0  0  0  2  0  0  0  0  0  0
  186.1060  176.0590  136.5560 C   0  0  2  0  0  3  0  0  0  0  0  0
  186.7790  175.6710  135.3950 O   0  0  0  0  0  1  0  0  0  0  0  0
  184.6170  175.8010  136.3960 C   0  0  0  0  0  2  0  0  0  0  0  0
  184.0920  174.9010  137.5060 C   0  0  2  0  0  3  0  0  0  0  0  0
  182.2190  173.4300  137.2000 O   0  0  0  0  0  1  0  0  0  0  0  0
  184.1580  172.8120  136.1420 O   0  0  0  0  0  0  0  0  0  0  0  0
  183.4300  173.6770  136.9490 C   0  0  0  0  0  0  0  0  0  0  0  0
  183.1170  175.6840  138.3700 C   0  0  0  0  0  2  0  0  0  0  0  0
  183.4470  178.0230  139.0590 C   0  0  0  0  0  0  0  0  0  0  0  0
  183.8120  176.7730  139.0430 N   0  0  0  0  0  0  0  0  0  0  0  0
  182.1890  178.5110  138.4180 C   0  0  0  0  0  0  0  0  0  0  0  0
  182.1480  178.6680  137.1680 O   0  0  0  0  0  0  0  0  0  0  0  0
  179.8100  179.3360  138.6030 C   0  0  0  0  0  1  0  0  0  0  0  0
  181.0400  178.8440  139.2030 N   0  0  0  0  0  2  0  0  0  0  0  0
  184.1860  180.2970  139.3600 O   0  0  0  0  0  1  0  0  0  0  0  0
  184.3540  178.9760  139.7880 C   0  0  1  0  0  3  0  0  0  0  0  0
  184.2530  178.8570  141.3070 C   0  0  0  0  0  2  0  0  0  0  0  0
  185.5000  179.3640  142.0150 C   0  0  0  0  0  2  0  0  0  0  0  0
  186.5240  178.2510  142.0890 C   0  0  0  0  0  1  0  0  0  0  0  0
  1 18  1  0  0  0  0
  2  1  2  0  0  0  0
  3  9  2  0  0  0  0
  3  5  1  0  0  0  0
  4 11  1  0  0  0  0
  5  6  2  0  0  0  0
  6  4  1  0  0  0  0
  6  7  1  0  0  0  0
  7 15  1  1  0  0  0
  7 13  1  0  0  0  0
  8 10  1  0  0  0  0
  8 13  1  0  0  0  0
  9 12  1  0  0  0  0
 10  1  1  0  0  0  0
 11 10  2  0  0  0  0
 12  4  2  0  0  0  0
 15 14  2  0  0  0  0
 17 16  1  0  0  0  0
 17 15  1  0  0  0  0
 18 19  1  0  0  0  0
 19 21  2  0  0  0  0
 21 22  2  0  0  0  0
 22 20  1  0  0  0  0
 22 23  1  0  0  0  0
 23 24  1  0  0  0  0
 25 30  1  0  0  0  0
 25 26  1  0  0  0  0
 26 24  1  6  0  0  0
 26 31  1  0  0  0  0
 27 30  2  0  0  0  0
 29 28  1  0  0  0  0
 30 29  1  0  0  0  0
 31 28  1  0  0  0  0
 32 30  2  0  0  0  0
 33 34  1  0  0  0  0
 33  2  1  0  0  0  0
 35 36  1  6  0  0  0
 35 34  1  0  0  0  0
 37 35  1  0  0  0  0
 38 37  1  6  0  0  0
 38 42  1  0  0  0  0
 40 41  2  0  0  0  0
 41 39  1  0  0  0  0
 41 38  1  0  0  0  0
 42 44  1  0  0  0  0
 43 50  1  0  0  0  0
 44 43  2  0  0  0  0
 45 43  1  0  0  0  0
 45 48  1  0  0  0  0
 46 45  2  0  0  0  0
 47 48  1  0  0  0  0
 50 49  1  1  0  0  0
 50 51  1  0  0  0  0
 51 52  1  0  0  0  0
 52 53  1  0  0  0  0
M  END
>  <MODEL>
6

>  <REMARK>
 VINA RESULT:      -6.6      2.833      8.125
  Name = 
  20 active torsions:
  status: ('A' for Active; 'I' for Inactive)
    1  A    between atoms: C_4  and  C_10
    2  A    between atoms: C_6  and  O_15
    3  A    between atoms: C_7  and  C_10
    4  A    between atoms: C_7  and  C_42
    5  A    between atoms: C_8  and  C_19
    6  A    between atoms: C_9  and  C_14
    7  A    between atoms: C_9  and  C_21
    8  A    between atoms: C_11  and  C_19
    9  A    between atoms: C_11  and  C_39
   10  A    between atoms: C_14  and  C_33
   11  A    between atoms: C_14  and  C_40
   12  A    between atoms: O_15  and  C_16
   13  A    between atoms: C_16  and  C_30
   14  A    between atoms: C_20  and  C_39
   15  A    between atoms: C_21  and  C_28
   16  A    between atoms: C_22  and  C_28
   17  A    between atoms: C_22  and  C_50
   18  A    between atoms: C_32  and  C_51
   19  A    between atoms: C_35  and  C_51
   20  A    between atoms: C_40  and  N_48
                            x       y       z     vdW  Elec       q    Type
                         _______ _______ _______ _____ _____    ______ ____

>  <TORSDO>
F 20

$$$$
=
 OpenBabel10222417533D

 53 55  0  0  1  0  0  0  0  0999 V2000
  186.9670  177.8720  138.0700 C   0  0  0  0  0  0  0  0  0  0  0  0
  186.5320  178.2670  139.2760 C   0  0  0  0  0  3  0  0  0  0  0  0
  191.5910  173.3260  136.3210 C   0  0  0  0  0  3  0  0  0  0  0  0
  189.5520  175.1170  137.0700 C   0  0  0  0  0  0  0  0  0  0  0  0
  191.9160  174.5800  136.8350 C   0  0  0  0  0  3  0  0  0  0  0  0
  190.9190  175.4860  137.2450 C   0  0  0  0  0  0  0  0  0  0  0  0
  191.3430  176.8550  137.7460 C   0  0  1  0  0  3  0  0  0  0  0  0
  189.5200  178.0540  137.9780 C   0  0  0  0  0  2  0  0  0  0  0  0
  190.2550  172.9580  136.1870 C   0  0  0  0  0  3  0  0  0  0  0  0
  188.2870  177.2280  137.7960 C   0  0  0  0  0  0  0  0  0  0  0  0
  188.3660  175.9510  137.3880 C   0  0  0  0  0  3  0  0  0  0  0  0
  189.2500  173.8500  136.5560 C   0  0  0  0  0  3  0  0  0  0  0  0
  190.4600  177.3370  138.7130 O   0  0  0  0  0  0  0  0  0  0  0  0
  193.6890  176.7560  137.5230 O   0  0  0  0  0  0  0  0  0  0  0  0
  192.7450  176.9050  138.2850 C   0  0  0  0  0  0  0  0  0  0  0  0
  194.3000  176.7230  140.0600 O   0  0  0  0  0  1  0  0  0  0  0  0
  192.9940  177.0990  139.7480 C   0  0  0  0  0  2  0  0  0  0  0  0
  186.0390  178.1240  136.9230 C   0  0  0  0  0  2  0  0  0  0  0  0
  185.4860  176.8360  136.4240 C   0  0  0  0  0  3  0  0  0  0  0  0
  183.9910  174.0480  137.9450 O   0  0  0  0  0  1  0  0  0  0  0  0
  184.6790  176.1360  137.1690 C   0  0  0  0  0  0  0  0  0  0  0  0
  183.8700  175.4320  137.9090 C   0  0  0  0  0  0  0  0  0  0  0  0
  182.8040  176.1080  138.6970 C   0  0  0  0  0  2  0  0  0  0  0  0
  183.2940  177.3190  139.2210 O   0  0  0  0  0  0  0  0  0  0  0  0
  182.8790  179.6650  138.6370 C   0  0  0  0  0  2  0  0  0  0  0  0
  182.3020  178.3160  139.0840 C   0  0  2  0  0  3  0  0  0  0  0  0
  182.1100  182.2250  138.3100 O   0  0  0  0  0  0  0  0  0  0  0  0
  180.1150  179.2040  139.9780 C   0  0  0  0  0  2  0  0  0  0  0  0
  180.4250  180.6740  139.7300 C   0  0  0  0  0  2  0  0  0  0  0  0
  181.5590  180.8280  138.3650 S   0  0  0  0  0  0  0  0  0  0  0  0
  181.3810  178.4180  140.3110 C   0  0  0  0  0  2  0  0  0  0  0  0
  180.8550  180.5110  137.0760 O   0  0  0  0  0  0  0  0  0  0  0  0
  187.2740  178.1220  140.5630 C   0  0  0  0  0  2  0  0  0  0  0  0
  186.6580  179.0240  141.6130 C   0  0  0  0  0  2  0  0  0  0  0  0
  186.0070  178.1890  142.7000 C   0  0  2  0  0  3  0  0  0  0  0  0
  184.6230  178.1660  142.5150 O   0  0  0  0  0  1  0  0  0  0  0  0
  186.3330  178.7890  144.0570 C   0  0  0  0  0  2  0  0  0  0  0  0
  186.1040  177.7800  145.1750 C   0  0  2  0  0  3  0  0  0  0  0  0
  186.0280  178.7890  147.3520 O   0  0  0  0  0  1  0  0  0  0  0  0
  184.0110  178.5670  146.2840 O   0  0  0  0  0  0  0  0  0  0  0  0
  185.3890  178.4050  146.3360 C   0  0  0  0  0  0  0  0  0  0  0  0
  187.4400  177.2100  145.6200 C   0  0  0  0  0  2  0  0  0  0  0  0
  189.7810  177.8280  145.1750 C   0  0  0  0  0  0  0  0  0  0  0  0
  188.5200  177.8130  144.8480 N   0  0  0  0  0  0  0  0  0  0  0  0
  190.3130  177.1500  146.3950 C   0  0  0  0  0  0  0  0  0  0  0  0
  189.7480  177.3350  147.5060 O   0  0  0  0  0  0  0  0  0  0  0  0
  192.0260  175.6660  147.5090 C   0  0  0  0  0  1  0  0  0  0  0  0
  191.4800  176.3240  146.3330 N   0  0  0  0  0  2  0  0  0  0  0  0
  192.0400  178.1640  144.4060 O   0  0  0  0  0  1  0  0  0  0  0  0
  190.7070  178.5520  144.2370 C   0  0  1  0  0  3  0  0  0  0  0  0
  190.2730  178.4620  142.7750 C   0  0  0  0  0  2  0  0  0  0  0  0
  190.9030  177.2810  142.0540 C   0  0  0  0  0  2  0  0  0  0  0  0
  189.9240  176.1260  142.0280 C   0  0  0  0  0  1  0  0  0  0  0  0
  1  2  2  0  0  0  0
  2 33  1  0  0  0  0
  3  5  1  0  0  0  0
  4  6  1  0  0  0  0
  4 11  1  0  0  0  0
  5  6  2  0  0  0  0
  6  7  1  0  0  0  0
  7 15  1  1  0  0  0
  7 13  1  0  0  0  0
  8 13  1  0  0  0  0
  9  3  2  0  0  0  0
  9 12  1  0  0  0  0
 10  8  1  0  0  0  0
 10  1  1  0  0  0  0
 11 10  2  0  0  0  0
 12  4  2  0  0  0  0
 14 15  2  0  0  0  0
 15 17  1  0  0  0  0
 17 16  1  0  0  0  0
 18  1  1  0  0  0  0
 19 18  1  0  0  0  0
 19 21  2  0  0  0  0
 21 22  2  0  0  0  0
 22 20  1  0  0  0  0
 22 23  1  0  0  0  0
 23 24  1  0  0  0  0
 25 26  1  0  0  0  0
 26 24  1  1  0  0  0
 26 31  1  0  0  0  0
 27 30  2  0  0  0  0
 28 31  1  0  0  0  0
 29 28  1  0  0  0  0
 30 25  1  0  0  0  0
 30 29  1  0  0  0  0
 32 30  2  0  0  0  0
 33 34  1  0  0  0  0
 34 35  1  0  0  0  0
 35 36  1  6  0  0  0
 35 37  1  0  0  0  0
 38 37  1  6  0  0  0
 38 42  1  0  0  0  0
 38 41  1  0  0  0  0
 40 41  2  0  0  0  0
 41 39  1  0  0  0  0
 43 45  1  0  0  0  0
 44 43  2  0  0  0  0
 44 42  1  0  0  0  0
 45 46  2  0  0  0  0
 48 45  1  0  0  0  0
 48 47  1  0  0  0  0
 50 49  1  6  0  0  0
 50 43  1  0  0  0  0
 51 50  1  0  0  0  0
 52 51  1  0  0  0  0
 53 52  1  0  0  0  0
M  END
>  <MODEL>
7

>  <REMARK>
 VINA RESULT:      -6.5      3.309      8.905
  Name = 
  20 active torsions:
  status: ('A' for Active; 'I' for Inactive)
    1  A    between atoms: C_4  and  C_10
    2  A    between atoms: C_6  and  O_15
    3  A    between atoms: C_7  and  C_10
    4  A    between atoms: C_7  and  C_42
    5  A    between atoms: C_8  and  C_19
    6  A    between atoms: C_9  and  C_14
    7  A    between atoms: C_9  and  C_21
    8  A    between atoms: C_11  and  C_19
    9  A    between atoms: C_11  and  C_39
   10  A    between atoms: C_14  and  C_33
   11  A    between atoms: C_14  and  C_40
   12  A    between atoms: O_15  and  C_16
   13  A    between atoms: C_16  and  C_30
   14  A    between atoms: C_20  and  C_39
   15  A    between atoms: C_21  and  C_28
   16  A    between atoms: C_22  and  C_28
   17  A    between atoms: C_22  and  C_50
   18  A    between atoms: C_32  and  C_51
   19  A    between atoms: C_35  and  C_51
   20  A    between atoms: C_40  and  N_48
                            x       y       z     vdW  Elec       q    Type
                         _______ _______ _______ _____ _____    ______ ____

>  <TORSDO>
F 20

$$$$
=
 OpenBabel10222417533D

 53 55  0  0  1  0  0  0  0  0999 V2000
  191.1370  176.8150  138.3030 C   0  0  0  0  0  0  0  0  0  0  0  0
  190.0520  177.3640  137.7360 C   0  0  0  0  0  3  0  0  0  0  0  0
  194.0650  171.7310  135.0340 C   0  0  0  0  0  3  0  0  0  0  0  0
  192.7300  173.7640  136.4520 C   0  0  0  0  0  0  0  0  0  0  0  0
  194.7530  172.8780  135.4270 C   0  0  0  0  0  3  0  0  0  0  0  0
  194.1200  173.8990  136.1610 C   0  0  0  0  0  0  0  0  0  0  0  0
  194.9160  175.1440  136.5090 C   0  0  1  0  0  3  0  0  0  0  0  0
  193.5080  176.5970  137.3580 C   0  0  0  0  0  2  0  0  0  0  0  0
  192.7170  171.5900  135.3530 C   0  0  0  0  0  3  0  0  0  0  0  0
  192.1610  175.9920  137.5910 C   0  0  0  0  0  0  0  0  0  0  0  0
  191.8780  174.7510  137.1630 C   0  0  0  0  0  3  0  0  0  0  0  0
  192.0600  172.6010  136.0520 C   0  0  0  0  0  3  0  0  0  0  0  0
  194.4980  175.6890  137.7240 O   0  0  0  0  0  0  0  0  0  0  0  0
  197.0810  175.2560  135.5810 O   0  0  0  0  0  0  0  0  0  0  0  0
  196.4030  174.9320  136.5450 C   0  0  0  0  0  0  0  0  0  0  0  0
  197.9450  175.1970  138.3200 O   0  0  0  0  0  1  0  0  0  0  0  0
  197.0560  174.2980  137.7330 C   0  0  0  0  0  2  0  0  0  0  0  0
  191.3000  177.0530  139.7710 C   0  0  0  0  0  2  0  0  0  0  0  0
  189.9660  177.2170  140.4110 C   0  0  0  0  0  3  0  0  0  0  0  0
  188.3120  175.6510  143.0830 O   0  0  0  0  0  1  0  0  0  0  0  0
  189.7480  176.7400  141.6040 C   0  0  0  0  0  0  0  0  0  0  0  0
  189.5240  176.2670  142.7970 C   0  0  0  0  0  0  0  0  0  0  0  0
  190.5570  176.4080  143.8590 C   0  0  0  0  0  2  0  0  0  0  0  0
  190.3680  177.6180  144.5510 O   0  0  0  0  0  0  0  0  0  0  0  0
  188.1060  178.3800  145.1170 C   0  0  0  0  0  2  0  0  0  0  0  0
  189.2930  177.4690  145.4550 C   0  0  2  0  0  3  0  0  0  0  0  0
  185.7510  179.1640  146.1600 O   0  0  0  0  0  0  0  0  0  0  0  0
  188.6440  177.0050  147.8500 C   0  0  0  0  0  2  0  0  0  0  0  0
  187.4210  177.9130  147.8640 C   0  0  0  0  0  2  0  0  0  0  0  0
  186.7490  178.0430  146.2190 S   0  0  0  0  0  0  0  0  0  0  0  0
  189.7300  177.5510  146.9270 C   0  0  0  0  0  2  0  0  0  0  0  0
  186.0850  176.7520  145.8330 O   0  0  0  0  0  0  0  0  0  0  0  0
  189.6760  177.2680  136.2940 C   0  0  0  0  0  2  0  0  0  0  0  0
  188.2210  177.6530  136.1180 C   0  0  0  0  0  2  0  0  0  0  0  0
  187.4270  177.2590  137.3500 C   0  0  2  0  0  3  0  0  0  0  0  0
  187.3310  175.8680  137.4270 O   0  0  0  0  0  1  0  0  0  0  0  0
  186.0360  177.8650  137.2650 C   0  0  0  0  0  2  0  0  0  0  0  0
  184.9970  176.8110  136.9080 C   0  0  2  0  0  3  0  0  0  0  0  0
  185.4390  176.2450  134.6170 O   0  0  0  0  0  0  0  0  0  0  0  0
  183.5460  177.4850  134.9930 O   0  0  0  0  0  1  0  0  0  0  0  0
  184.6840  176.8280  135.4420 C   0  0  0  0  0  0  0  0  0  0  0  0
  183.7360  177.0500  137.7220 C   0  0  0  0  0  2  0  0  0  0  0  0
  183.4980  178.3030  139.8270 C   0  0  0  0  0  0  0  0  0  0  0  0
  184.0880  177.4040  139.0910 N   0  0  0  0  0  0  0  0  0  0  0  0
  182.3010  179.0710  139.3700 C   0  0  0  0  0  0  0  0  0  0  0  0
  181.1470  178.6190  139.6010 O   0  0  0  0  0  0  0  0  0  0  0  0
  181.2910  181.0490  138.1690 C   0  0  0  0  0  1  0  0  0  0  0  0
  182.4400  180.2930  138.6380 N   0  0  0  0  0  2  0  0  0  0  0  0
  184.9650  179.5980  141.2340 O   0  0  0  0  0  1  0  0  0  0  0  0
  184.0700  178.5230  141.2010 C   0  0  1  0  0  3  0  0  0  0  0  0
  183.0000  178.6450  142.2840 C   0  0  0  0  0  2  0  0  0  0  0  0
  183.5850  178.9950  143.6430 C   0  0  0  0  0  2  0  0  0  0  0  0
  182.5480  178.7410  144.7170 C   0  0  0  0  0  1  0  0  0  0  0  0
  1 18  1  0  0  0  0
  2  1  2  0  0  0  0
  3  9  2  0  0  0  0
  3  5  1  0  0  0  0
  4 11  1  0  0  0  0
  5  6  2  0  0  0  0
  6  4  1  0  0  0  0
  6  7  1  0  0  0  0
  7 15  1  1  0  0  0
  7 13  1  0  0  0  0
  8 10  1  0  0  0  0
  8 13  1  0  0  0  0
  9 12  1  0  0  0  0
 10  1  1  0  0  0  0
 11 10  2  0  0  0  0
 12  4  2  0  0  0  0
 14 15  2  0  0  0  0
 15 17  1  0  0  0  0
 17 16  1  0  0  0  0
 18 19  1  0  0  0  0
 19 21  2  0  0  0  0
 21 22  2  0  0  0  0
 22 20  1  0  0  0  0
 22 23  1  0  0  0  0
 23 24  1  0  0  0  0
 25 26  1  0  0  0  0
 25 30  1  0  0  0  0
 26 24  1  6  0  0  0
 26 31  1  0  0  0  0
 27 30  2  0  0  0  0
 28 29  1  0  0  0  0
 30 29  1  0  0  0  0
 31 28  1  0  0  0  0
 32 30  2  0  0  0  0
 33  2  1  0  0  0  0
 34 33  1  0  0  0  0
 34 35  1  0  0  0  0
 35 36  1  6  0  0  0
 37 35  1  0  0  0  0
 38 37  1  6  0  0  0
 38 42  1  0  0  0  0
 39 41  2  0  0  0  0
 40 41  1  0  0  0  0
 41 38  1  0  0  0  0
 42 44  1  0  0  0  0
 43 50  1  0  0  0  0
 44 43  2  0  0  0  0
 45 46  2  0  0  0  0
 45 43  1  0  0  0  0
 47 48  1  0  0  0  0
 48 45  1  0  0  0  0
 50 49  1  6  0  0  0
 50 51  1  0  0  0  0
 51 52  1  0  0  0  0
 52 53  1  0  0  0  0
M  END
>  <MODEL>
8

>  <REMARK>
 VINA RESULT:      -6.5      2.834      8.602
  Name = 
  20 active torsions:
  status: ('A' for Active; 'I' for Inactive)
    1  A    between atoms: C_4  and  C_10
    2  A    between atoms: C_6  and  O_15
    3  A    between atoms: C_7  and  C_10
    4  A    between atoms: C_7  and  C_42
    5  A    between atoms: C_8  and  C_19
    6  A    between atoms: C_9  and  C_14
    7  A    between atoms: C_9  and  C_21
    8  A    between atoms: C_11  and  C_19
    9  A    between atoms: C_11  and  C_39
   10  A    between atoms: C_14  and  C_33
   11  A    between atoms: C_14  and  C_40
   12  A    between atoms: O_15  and  C_16
   13  A    between atoms: C_16  and  C_30
   14  A    between atoms: C_20  and  C_39
   15  A    between atoms: C_21  and  C_28
   16  A    between atoms: C_22  and  C_28
   17  A    between atoms: C_22  and  C_50
   18  A    between atoms: C_32  and  C_51
   19  A    between atoms: C_35  and  C_51
   20  A    between atoms: C_40  and  N_48
                            x       y       z     vdW  Elec       q    Type
                         _______ _______ _______ _____ _____    ______ ____

>  <TORSDO>
F 20

$$$$
=
 OpenBabel10222417533D

 53 55  0  0  1  0  0  0  0  0999 V2000
  184.8910  178.6260  140.5240 C   0  0  0  0  0  0  0  0  0  0  0  0
  185.2530  178.8330  141.7990 C   0  0  0  0  0  3  0  0  0  0  0  0
  178.9310  176.0060  138.8760 C   0  0  0  0  0  3  0  0  0  0  0  0
  181.4880  176.9620  139.5630 C   0  0  0  0  0  0  0  0  0  0  0  0
  179.2680  177.3370  138.6340 C   0  0  0  0  0  3  0  0  0  0  0  0
  180.5470  177.8360  138.9410 C   0  0  0  0  0  0  0  0  0  0  0  0
  180.8290  179.3090  138.7000 C   0  0  1  0  0  3  0  0  0  0  0  0
  182.7880  179.7480  139.5860 C   0  0  0  0  0  2  0  0  0  0  0  0
  179.8650  175.1480  139.4500 C   0  0  0  0  0  3  0  0  0  0  0  0
  183.4840  178.5030  140.0350 C   0  0  0  0  0  0  0  0  0  0  0  0
  182.8590  177.3150  140.0100 C   0  0  0  0  0  3  0  0  0  0  0  0
  181.1280  175.6280  139.7920 C   0  0  0  0  0  3  0  0  0  0  0  0
  182.1660  179.5210  138.3620 O   0  0  0  0  0  0  0  0  0  0  0  0
  180.0010  179.5460  136.5050 O   0  0  0  0  0  0  0  0  0  0  0  0
  179.9470  179.9410  137.6600 C   0  0  0  0  0  0  0  0  0  0  0  0
  179.7770  182.1580  138.4700 O   0  0  0  0  0  1  0  0  0  0  0  0
  179.0320  181.0690  138.0180 C   0  0  0  0  0  2  0  0  0  0  0  0
  186.0080  178.4960  139.5380 C   0  0  0  0  0  2  0  0  0  0  0  0
  185.4600  178.3950  138.1580 C   0  0  0  0  0  3  0  0  0  0  0  0
  186.8310  177.6340  135.0170 O   0  0  0  0  0  1  0  0  0  0  0  0
  186.1210  177.7570  137.2340 C   0  0  0  0  0  0  0  0  0  0  0  0
  186.7780  177.1200  136.3070 C   0  0  0  0  0  0  0  0  0  0  0  0
  187.4500  175.8310  136.6240 C   0  0  0  0  0  2  0  0  0  0  0  0
  188.5600  176.0640  137.4570 O   0  0  0  0  0  0  0  0  0  0  0  0
  190.9140  176.1140  136.7700 C   0  0  0  0  0  2  0  0  0  0  0  0
  189.6470  175.2820  137.0060 C   0  0  2  0  0  3  0  0  0  0  0  0
  193.3830  175.8510  135.7280 O   0  0  0  0  0  0  0  0  0  0  0  0
  190.3360  173.2850  135.6250 C   0  0  0  0  0  2  0  0  0  0  0  0
  191.6520  173.8730  135.1360 C   0  0  0  0  0  2  0  0  0  0  0  0
  192.2680  175.0450  136.3290 S   0  0  0  0  0  0  0  0  0  0  0  0
  189.2820  174.3710  135.8230 C   0  0  0  0  0  2  0  0  0  0  0  0
  192.7660  174.3210  137.5480 O   0  0  0  0  0  0  0  0  0  0  0  0
  184.3250  178.9970  142.9560 C   0  0  0  0  0  2  0  0  0  0  0  0
  185.1030  179.4410  144.1780 C   0  0  0  0  0  2  0  0  0  0  0  0
  184.7510  178.5640  145.3660 C   0  0  2  0  0  3  0  0  0  0  0  0
  183.5550  179.0020  145.9390 O   0  0  0  0  0  1  0  0  0  0  0  0
  185.8690  178.6380  146.3930 C   0  0  0  0  0  2  0  0  0  0  0  0
  186.8900  177.5300  146.1760 C   0  0  2  0  0  3  0  0  0  0  0  0
  188.4090  176.3880  147.6440 O   0  0  0  0  0  0  0  0  0  0  0  0
  188.2500  178.6570  147.9390 O   0  0  0  0  0  1  0  0  0  0  0  0
  187.8890  177.4820  147.2930 C   0  0  0  0  0  0  0  0  0  0  0  0
  187.5920  177.7450  144.8460 C   0  0  0  0  0  2  0  0  0  0  0  0
  189.9500  177.4190  144.2220 C   0  0  0  0  0  0  0  0  0  0  0  0
  189.0320  177.8270  145.0520 N   0  0  0  0  0  0  0  0  0  0  0  0
  189.6360  176.8500  142.8770 C   0  0  0  0  0  0  0  0  0  0  0  0
  188.8260  175.8890  142.7810 O   0  0  0  0  0  0  0  0  0  0  0  0
  189.9930  176.8030  140.3780 C   0  0  0  0  0  1  0  0  0  0  0  0
  190.2700  177.3510  141.6950 N   0  0  0  0  0  2  0  0  0  0  0  0
  191.8770  178.8520  144.4260 O   0  0  0  0  0  1  0  0  0  0  0  0
  191.3760  177.5690  144.6750 C   0  0  1  0  0  3  0  0  0  0  0  0
  191.5930  177.1500  146.1280 C   0  0  0  0  0  2  0  0  0  0  0  0
  192.0560  175.7080  146.2540 C   0  0  0  0  0  2  0  0  0  0  0  0
  192.0120  175.2910  147.7090 C   0  0  0  0  0  1  0  0  0  0  0  0
  1  2  2  0  0  0  0
  2 33  1  0  0  0  0
  3  9  1  0  0  0  0
  4 12  1  0  0  0  0
  4 11  1  0  0  0  0
  5  3  2  0  0  0  0
  5  6  1  0  0  0  0
  6  4  2  0  0  0  0
  7 15  1  6  0  0  0
  7  6  1  0  0  0  0
  8 10  1  0  0  0  0
  9 12  2  0  0  0  0
 10  1  1  0  0  0  0
 11 10  2  0  0  0  0
 13  7  1  0  0  0  0
 13  8  1  0  0  0  0
 14 15  2  0  0  0  0
 15 17  1  0  0  0  0
 17 16  1  0  0  0  0
 18  1  1  0  0  0  0
 19 18  1  0  0  0  0
 20 22  1  0  0  0  0
 21 19  2  0  0  0  0
 22 23  1  0  0  0  0
 22 21  2  0  0  0  0
 23 24  1  0  0  0  0
 25 26  1  0  0  0  0
 26 24  1  6  0  0  0
 27 30  2  0  0  0  0
 28 31  1  0  0  0  0
 29 28  1  0  0  0  0
 29 30  1  0  0  0  0
 30 25  1  0  0  0  0
 30 32  2  0  0  0  0
 31 26  1  0  0  0  0
 33 34  1  0  0  0  0
 34 35  1  0  0  0  0
 35 36  1  1  0  0  0
 35 37  1  0  0  0  0
 38 42  1  6  0  0  0
 38 37  1  0  0  0  0
 38 41  1  0  0  0  0
 41 39  2  0  0  0  0
 41 40  1  0  0  0  0
 42 44  1  0  0  0  0
 43 50  1  0  0  0  0
 43 44  2  0  0  0  0
 45 43  1  0  0  0  0
 46 45  2  0  0  0  0
 47 48  1  0  0  0  0
 48 45  1  0  0  0  0
 50 49  1  1  0  0  0
 50 51  1  0  0  0  0
 51 52  1  0  0  0  0
 52 53  1  0  0  0  0
M  END
>  <MODEL>
9

>  <REMARK>
 VINA RESULT:      -6.5      2.804      8.651
  Name = 
  20 active torsions:
  status: ('A' for Active; 'I' for Inactive)
    1  A    between atoms: C_4  and  C_10
    2  A    between atoms: C_6  and  O_15
    3  A    between atoms: C_7  and  C_10
    4  A    between atoms: C_7  and  C_42
    5  A    between atoms: C_8  and  C_19
    6  A    between atoms: C_9  and  C_14
    7  A    between atoms: C_9  and  C_21
    8  A    between atoms: C_11  and  C_19
    9  A    between atoms: C_11  and  C_39
   10  A    between atoms: C_14  and  C_33
   11  A    between atoms: C_14  and  C_40
   12  A    between atoms: O_15  and  C_16
   13  A    between atoms: C_16  and  C_30
   14  A    between atoms: C_20  and  C_39
   15  A    between atoms: C_21  and  C_28
   16  A    between atoms: C_22  and  C_28
   17  A    between atoms: C_22  and  C_50
   18  A    between atoms: C_32  and  C_51
   19  A    between atoms: C_35  and  C_51
   20  A    between atoms: C_40  and  N_48
                            x       y       z     vdW  Elec       q    Type
                         _______ _______ _______ _____ _____    ______ ____

>  <TORSDO>
F 20

$$$$
