=
 OpenBabel10222421073D

 29 32  0  0  1  0  0  0  0  0999 V2000
  190.0580  177.3720  144.7340 C   0  0  0  0  0  3  0  0  0  0  0  0
  188.6350  177.6990  146.6680 C   0  0  0  0  0  0  0  0  0  0  0  0
  186.2160  177.3600  143.4180 S   0  0  0  0  0  0  0  0  0  0  0  0
  187.5090  177.7100  145.8380 C   0  0  0  0  0  3  0  0  0  0  0  0
  189.9070  177.5110  146.1180 C   0  0  0  0  0  3  0  0  0  0  0  0
  188.1520  178.0580  141.6080 C   0  0  2  0  0  3  0  0  0  0  0  0
  186.8890  178.2840  142.0230 C   0  0  1  0  0  3  0  0  0  0  0  0
  188.9370  177.4050  143.9010 C   0  0  0  0  0  0  0  0  0  0  0  0
  187.6600  177.5590  144.4570 C   0  0  0  0  0  0  0  0  0  0  0  0
  189.1110  177.4430  142.4810 N   0  0  0  0  0  2  0  0  0  0  0  0
  188.4830  177.8540  148.0870 C   0  0  0  0  0  0  0  0  0  0  0  0
  188.3610  177.9800  149.2310 N   0  0  0  0  0  0  0  0  0  0  0  0
  185.9590  179.1620  141.2410 C   0  0  2  0  0  3  0  0  0  0  0  0
  185.3580  180.0830  142.0790 F   0  0  0  0  0  0  0  0  0  0  0  0
  184.9050  178.3230  140.5340 C   0  0  0  0  0  2  0  0  0  0  0  0
  184.6710  178.8290  139.1210 C   0  0  0  0  0  2  0  0  0  0  0  0
  182.9600  180.1890  138.8120 C   0  0  0  0  0  1  0  0  0  0  0  0
  184.3130  180.1780  139.1470 O   0  0  0  0  0  0  0  0  0  0  0  0
  188.6500  178.6090  140.3050 C   0  0  0  0  0  2  0  0  0  0  0  0
  190.0870  176.8510  139.2410 C   0  0  0  0  0  3  0  0  0  0  0  0
  189.7190  174.2940  136.3920 S   0  0  0  0  0  0  0  0  0  0  0  0
  191.2490  174.2380  137.1160 C   0  0  0  0  0  0  0  0  0  0  0  0
  192.2830  173.3470  136.7190 N   0  0  0  0  0  1  0  0  0  0  0  0
  190.2550  175.8490  138.2860 C   0  0  0  0  0  0  0  0  0  0  0  0
  189.2210  175.5240  137.4200 C   0  0  0  0  0  0  0  0  0  0  0  0
  187.8080  177.1760  138.4240 C   0  0  0  0  0  3  0  0  0  0  0  0
  191.3950  175.1320  138.1220 N   0  0  0  0  0  0  0  0  0  0  0  0
  187.9870  176.1660  137.4650 C   0  0  0  0  0  3  0  0  0  0  0  0
  188.8500  177.5160  139.3110 C   0  0  0  0  0  0  0  0  0  0  0  0
  1  5  1  0  0  0  0
  2 11  1  0  0  0  0
  3  9  1  0  0  0  0
  4  2  1  0  0  0  0
  5  2  2  0  0  0  0
  6 19  1  1  0  0  0
  6  7  1  0  0  0  0
  6 10  1  0  0  0  0
  7 13  1  6  0  0  0
  7  3  1  0  0  0  0
  8  9  1  0  0  0  0
  8  1  2  0  0  0  0
  9  4  2  0  0  0  0
 10  8  1  0  0  0  0
 11 12  3  0  0  0  0
 13 14  1  1  0  0  0
 15 13  1  0  0  0  0
 16 18  1  0  0  0  0
 16 15  1  0  0  0  0
 17 18  1  0  0  0  0
 20 29  1  0  0  0  0
 21 22  1  0  0  0  0
 21 25  1  0  0  0  0
 22 27  2  0  0  0  0
 23 22  1  0  0  0  0
 24 20  2  0  0  0  0
 25 28  2  0  0  0  0
 25 24  1  0  0  0  0
 26 29  2  0  0  0  0
 27 24  1  0  0  0  0
 28 26  1  0  0  0  0
 29 19  1  0  0  0  0
M  END
>  <MODEL>
1

>  <REMARK>
 VINA RESULT:      -7.3      0.000      0.000
  Name = 
  7 active torsions:
  status: ('A' for Active; 'I' for Inactive)
    1  A    between atoms: C_2  and  C_5
    2  A    between atoms: C_7  and  C_21
    3  A    between atoms: C_7  and  O_28
    4  A    between atoms: C_12  and  C_16
    5  A    between atoms: C_12  and  C_29
    6  A    between atoms: C_13  and  C_18
    7  A    between atoms: C_13  and  C_21
                            x       y       z     vdW  Elec       q    Type
                         _______ _______ _______ _____ _____    ______ ____

>  <TORSDO>
F 7

$$$$
=
 OpenBabel10222421073D

 29 32  0  0  1  0  0  0  0  0999 V2000
  184.1980  177.8850  141.1580 C   0  0  0  0  0  3  0  0  0  0  0  0
  181.9900  178.6890  141.7540 C   0  0  0  0  0  0  0  0  0  0  0  0
  184.5080  179.6760  144.7890 S   0  0  0  0  0  0  0  0  0  0  0  0
  182.4820  179.1240  142.9890 C   0  0  0  0  0  3  0  0  0  0  0  0
  182.8520  178.0860  140.8320 C   0  0  0  0  0  3  0  0  0  0  0  0
  186.3790  177.7700  144.1750 C   0  0  2  0  0  3  0  0  0  0  0  0
  185.6310  178.3120  145.1570 C   0  0  1  0  0  3  0  0  0  0  0  0
  184.6860  178.3000  142.4000 C   0  0  0  0  0  0  0  0  0  0  0  0
  183.8290  178.9340  143.3090 C   0  0  0  0  0  0  0  0  0  0  0  0
  186.0110  177.9330  142.7970 N   0  0  0  0  0  2  0  0  0  0  0  0
  180.6080  178.8830  141.4230 C   0  0  0  0  0  0  0  0  0  0  0  0
  179.4920  179.0390  141.1560 N   0  0  0  0  0  0  0  0  0  0  0  0
  185.8350  177.9300  146.5910 C   0  0  2  0  0  3  0  0  0  0  0  0
  184.6200  177.8990  147.2520 F   0  0  0  0  0  0  0  0  0  0  0  0
  186.7840  178.9070  147.2710 C   0  0  0  0  0  2  0  0  0  0  0  0
  187.7740  178.1700  148.1560 C   0  0  0  0  0  2  0  0  0  0  0  0
  189.3860  176.7900  147.5520 C   0  0  0  0  0  1  0  0  0  0  0  0
  189.0300  178.1370  147.5480 O   0  0  0  0  0  0  0  0  0  0  0  0
  187.5020  176.8250  144.4880 C   0  0  0  0  0  2  0  0  0  0  0  0
  188.7160  176.5620  142.3100 C   0  0  0  0  0  3  0  0  0  0  0  0
  192.0920  177.6760  140.8440 S   0  0  0  0  0  0  0  0  0  0  0  0
  191.1850  176.7570  139.7490 C   0  0  0  0  0  0  0  0  0  0  0  0
  191.6200  176.4320  138.4340 N   0  0  0  0  0  1  0  0  0  0  0  0
  189.8380  176.8080  141.5190 C   0  0  0  0  0  0  0  0  0  0  0  0
  190.8960  177.5560  142.0160 C   0  0  0  0  0  0  0  0  0  0  0  0
  189.7600  177.8500  144.1030 C   0  0  0  0  0  3  0  0  0  0  0  0
  189.9930  176.3570  140.2490 N   0  0  0  0  0  0  0  0  0  0  0  0
  190.8860  178.0920  143.3000 C   0  0  0  0  0  3  0  0  0  0  0  0
  188.6780  177.0930  143.6110 C   0  0  0  0  0  0  0  0  0  0  0  0
  1  8  1  0  0  0  0
  2  4  2  0  0  0  0
  3  7  1  0  0  0  0
  4  9  1  0  0  0  0
  5  1  2  0  0  0  0
  5  2  1  0  0  0  0
  6 19  1  1  0  0  0
  6  7  1  0  0  0  0
  7 13  1  1  0  0  0
  8 10  1  0  0  0  0
  8  9  2  0  0  0  0
  9  3  1  0  0  0  0
 10  6  1  0  0  0  0
 11  2  1  0  0  0  0
 12 11  3  0  0  0  0
 13 14  1  1  0  0  0
 13 15  1  0  0  0  0
 15 16  1  0  0  0  0
 18 17  1  0  0  0  0
 18 16  1  0  0  0  0
 20 29  1  0  0  0  0
 21 25  1  0  0  0  0
 22 27  2  0  0  0  0
 22 21  1  0  0  0  0
 23 22  1  0  0  0  0
 24 25  1  0  0  0  0
 24 20  2  0  0  0  0
 25 28  2  0  0  0  0
 27 24  1  0  0  0  0
 28 26  1  0  0  0  0
 29 26  2  0  0  0  0
 29 19  1  0  0  0  0
M  END
>  <MODEL>
2

>  <REMARK>
 VINA RESULT:      -7.2      3.637      6.533
  Name = 
  7 active torsions:
  status: ('A' for Active; 'I' for Inactive)
    1  A    between atoms: C_2  and  C_5
    2  A    between atoms: C_7  and  C_21
    3  A    between atoms: C_7  and  O_28
    4  A    between atoms: C_12  and  C_16
    5  A    between atoms: C_12  and  C_29
    6  A    between atoms: C_13  and  C_18
    7  A    between atoms: C_13  and  C_21
                            x       y       z     vdW  Elec       q    Type
                         _______ _______ _______ _____ _____    ______ ____

>  <TORSDO>
F 7

$$$$
=
 OpenBabel10222421073D

 29 32  0  0  1  0  0  0  0  0999 V2000
  188.5220  178.3350  141.3690 C   0  0  0  0  0  3  0  0  0  0  0  0
  188.7780  177.6980  139.0450 C   0  0  0  0  0  0  0  0  0  0  0  0
  184.9600  179.0020  139.5370 S   0  0  0  0  0  0  0  0  0  0  0  0
  187.4280  177.9820  138.8180 C   0  0  0  0  0  3  0  0  0  0  0  0
  189.3290  177.8920  140.3160 C   0  0  0  0  0  3  0  0  0  0  0  0
  184.9090  178.5730  142.2430 C   0  0  2  0  0  3  0  0  0  0  0  0
  184.2630  178.3720  141.0770 C   0  0  1  0  0  3  0  0  0  0  0  0
  187.1670  178.5990  141.1490 C   0  0  0  0  0  0  0  0  0  0  0  0
  186.6250  178.4370  139.8670 C   0  0  0  0  0  0  0  0  0  0  0  0
  186.3110  178.8780  142.2610 N   0  0  0  0  0  2  0  0  0  0  0  0
  189.6050  177.2300  137.9690 C   0  0  0  0  0  0  0  0  0  0  0  0
  190.2720  176.8530  137.1010 N   0  0  0  0  0  0  0  0  0  0  0  0
  182.8830  177.7880  141.0440 C   0  0  2  0  0  3  0  0  0  0  0  0
  182.8520  176.6900  140.2030 F   0  0  0  0  0  0  0  0  0  0  0  0
  181.8750  178.8340  140.5870 C   0  0  0  0  0  2  0  0  0  0  0  0
  180.6840  178.8810  141.5280 C   0  0  0  0  0  2  0  0  0  0  0  0
  180.4530  178.6550  143.7120 C   0  0  0  0  0  1  0  0  0  0  0  0
  181.0540  179.4590  142.7440 O   0  0  0  0  0  0  0  0  0  0  0  0
  184.2400  178.2980  143.5580 C   0  0  0  0  0  2  0  0  0  0  0  0
  186.4600  177.6040  144.4940 C   0  0  0  0  0  3  0  0  0  0  0  0
  188.3320  178.0060  147.8280 S   0  0  0  0  0  0  0  0  0  0  0  0
  189.2220  177.1210  146.6920 C   0  0  0  0  0  0  0  0  0  0  0  0
  190.5160  176.5850  146.9390 N   0  0  0  0  0  1  0  0  0  0  0  0
  187.3670  177.5810  145.5530 C   0  0  0  0  0  0  0  0  0  0  0  0
  187.0590  178.2070  146.7530 C   0  0  0  0  0  0  0  0  0  0  0  0
  184.9390  178.9090  145.8900 C   0  0  0  0  0  3  0  0  0  0  0  0
  188.5780  176.9710  145.5110 N   0  0  0  0  0  0  0  0  0  0  0  0
  185.8570  178.8800  146.9510 C   0  0  0  0  0  3  0  0  0  0  0  0
  185.2390  178.2780  144.6650 C   0  0  0  0  0  0  0  0  0  0  0  0
  2  5  1  0  0  0  0
  3  9  1  0  0  0  0
  3  7  1  0  0  0  0
  4  2  2  0  0  0  0
  4  9  1  0  0  0  0
  5  1  2  0  0  0  0
  6 10  1  0  0  0  0
  6 19  1  1  0  0  0
  7 13  1  1  0  0  0
  7  6  1  0  0  0  0
  8  1  1  0  0  0  0
  8 10  1  0  0  0  0
  9  8  2  0  0  0  0
 11  2  1  0  0  0  0
 12 11  3  0  0  0  0
 13 14  1  6  0  0  0
 15 13  1  0  0  0  0
 15 16  1  0  0  0  0
 16 18  1  0  0  0  0
 18 17  1  0  0  0  0
 19 29  1  0  0  0  0
 20 29  2  0  0  0  0
 20 24  1  0  0  0  0
 22 23  1  0  0  0  0
 22 21  1  0  0  0  0
 24 25  2  0  0  0  0
 25 28  1  0  0  0  0
 25 21  1  0  0  0  0
 26 28  2  0  0  0  0
 27 24  1  0  0  0  0
 27 22  2  0  0  0  0
 29 26  1  0  0  0  0
M  END
>  <MODEL>
3

>  <REMARK>
 VINA RESULT:      -7.2      2.783      7.184
  Name = 
  7 active torsions:
  status: ('A' for Active; 'I' for Inactive)
    1  A    between atoms: C_2  and  C_5
    2  A    between atoms: C_7  and  C_21
    3  A    between atoms: C_7  and  O_28
    4  A    between atoms: C_12  and  C_16
    5  A    between atoms: C_12  and  C_29
    6  A    between atoms: C_13  and  C_18
    7  A    between atoms: C_13  and  C_21
                            x       y       z     vdW  Elec       q    Type
                         _______ _______ _______ _____ _____    ______ ____

>  <TORSDO>
F 7

$$$$
=
 OpenBabel10222421073D

 29 32  0  0  1  0  0  0  0  0999 V2000
  184.1310  178.2090  142.2520 C   0  0  0  0  0  3  0  0  0  0  0  0
  182.2890  178.7280  143.7390 C   0  0  0  0  0  0  0  0  0  0  0  0
  185.7330  179.2740  145.8290 S   0  0  0  0  0  0  0  0  0  0  0  0
  183.1930  178.9470  144.7830 C   0  0  0  0  0  3  0  0  0  0  0  0
  182.7590  178.3770  142.4690 C   0  0  0  0  0  3  0  0  0  0  0  0
  187.2480  177.6570  144.2160 C   0  0  2  0  0  3  0  0  0  0  0  0
  186.9040  177.9440  145.4870 C   0  0  1  0  0  3  0  0  0  0  0  0
  185.0340  178.4060  143.3000 C   0  0  0  0  0  0  0  0  0  0  0  0
  184.5640  178.7910  144.5630 C   0  0  0  0  0  0  0  0  0  0  0  0
  186.4110  178.0600  143.1210 N   0  0  0  0  0  2  0  0  0  0  0  0
  180.8800  178.8880  143.9630 C   0  0  0  0  0  0  0  0  0  0  0  0
  179.7440  179.0160  144.1450 N   0  0  0  0  0  0  0  0  0  0  0  0
  187.6070  177.3050  146.6460 C   0  0  2  0  0  3  0  0  0  0  0  0
  186.8940  177.5230  147.8120 F   0  0  0  0  0  0  0  0  0  0  0  0
  189.0200  177.8520  146.7790 C   0  0  0  0  0  2  0  0  0  0  0  0
  189.9670  176.7820  147.2940 C   0  0  0  0  0  2  0  0  0  0  0  0
  191.9870  175.8940  147.2450 C   0  0  0  0  0  1  0  0  0  0  0  0
  191.2250  176.9320  146.7090 O   0  0  0  0  0  0  0  0  0  0  0  0
  188.4020  176.7480  143.9110 C   0  0  0  0  0  2  0  0  0  0  0  0
  188.1120  177.6850  141.6030 C   0  0  0  0  0  3  0  0  0  0  0  0
  190.1320  177.7170  138.3310 S   0  0  0  0  0  0  0  0  0  0  0  0
  188.6550  178.5330  138.1860 C   0  0  0  0  0  0  0  0  0  0  0  0
  188.2090  179.1610  136.9910 N   0  0  0  0  0  1  0  0  0  0  0  0
  188.5950  177.8650  140.3080 C   0  0  0  0  0  0  0  0  0  0  0  0
  189.8280  177.3460  139.9400 C   0  0  0  0  0  0  0  0  0  0  0  0
  190.1540  176.4550  142.1380 C   0  0  0  0  0  3  0  0  0  0  0  0
  187.9320  178.5320  139.3300 N   0  0  0  0  0  0  0  0  0  0  0  0
  190.6310  176.6400  140.8310 C   0  0  0  0  0  3  0  0  0  0  0  0
  188.9030  176.9770  142.5260 C   0  0  0  0  0  0  0  0  0  0  0  0
  1  5  2  0  0  0  0
  1  8  1  0  0  0  0
  2 11  1  0  0  0  0
  2  4  2  0  0  0  0
  5  2  1  0  0  0  0
  6 19  1  1  0  0  0
  6  7  1  0  0  0  0
  7  3  1  0  0  0  0
  7 13  1  1  0  0  0
  8  9  2  0  0  0  0
  9  4  1  0  0  0  0
  9  3  1  0  0  0  0
 10  8  1  0  0  0  0
 10  6  1  0  0  0  0
 11 12  3  0  0  0  0
 13 15  1  0  0  0  0
 13 14  1  1  0  0  0
 15 16  1  0  0  0  0
 18 17  1  0  0  0  0
 18 16  1  0  0  0  0
 20 29  1  0  0  0  0
 21 25  1  0  0  0  0
 22 21  1  0  0  0  0
 22 27  2  0  0  0  0
 23 22  1  0  0  0  0
 24 20  2  0  0  0  0
 25 24  1  0  0  0  0
 25 28  2  0  0  0  0
 26 29  2  0  0  0  0
 27 24  1  0  0  0  0
 28 26  1  0  0  0  0
 29 19  1  0  0  0  0
M  END
>  <MODEL>
4

>  <REMARK>
 VINA RESULT:      -7.1      3.916      6.308
  Name = 
  7 active torsions:
  status: ('A' for Active; 'I' for Inactive)
    1  A    between atoms: C_2  and  C_5
    2  A    between atoms: C_7  and  C_21
    3  A    between atoms: C_7  and  O_28
    4  A    between atoms: C_12  and  C_16
    5  A    between atoms: C_12  and  C_29
    6  A    between atoms: C_13  and  C_18
    7  A    between atoms: C_13  and  C_21
                            x       y       z     vdW  Elec       q    Type
                         _______ _______ _______ _____ _____    ______ ____

>  <TORSDO>
F 7

$$$$
=
 OpenBabel10222421073D

 29 32  0  0  1  0  0  0  0  0999 V2000
  190.2510  177.3650  144.6780 C   0  0  0  0  0  3  0  0  0  0  0  0
  188.8610  177.6350  146.6450 C   0  0  0  0  0  0  0  0  0  0  0  0
  186.3850  177.2970  143.4380 S   0  0  0  0  0  0  0  0  0  0  0  0
  187.7190  177.6370  145.8370 C   0  0  0  0  0  3  0  0  0  0  0  0
  190.1250  177.4810  146.0670 C   0  0  0  0  0  3  0  0  0  0  0  0
  188.2700  178.0600  141.6010 C   0  0  2  0  0  3  0  0  0  0  0  0
  187.0120  178.2550  142.0430 C   0  0  1  0  0  3  0  0  0  0  0  0
  189.1130  177.3880  143.8680 C   0  0  0  0  0  0  0  0  0  0  0  0
  187.8450  177.5090  144.4510 C   0  0  0  0  0  0  0  0  0  0  0  0
  189.2580  177.4500  142.4460 N   0  0  0  0  0  2  0  0  0  0  0  0
  188.7340  177.7670  148.0680 C   0  0  0  0  0  0  0  0  0  0  0  0
  188.6310  177.8730  149.2170 N   0  0  0  0  0  0  0  0  0  0  0  0
  186.0500  179.1250  141.2930 C   0  0  2  0  0  3  0  0  0  0  0  0
  185.2860  179.8630  142.1800 F   0  0  0  0  0  0  0  0  0  0  0  0
  185.1550  178.2800  140.3990 C   0  0  0  0  0  2  0  0  0  0  0  0
  185.0330  178.9000  139.0180 C   0  0  0  0  0  2  0  0  0  0  0  0
  182.9920  179.6930  139.2920 C   0  0  0  0  0  1  0  0  0  0  0  0
  184.3110  180.0930  139.0880 O   0  0  0  0  0  0  0  0  0  0  0  0
  188.7320  178.6390  140.2970 C   0  0  0  0  0  2  0  0  0  0  0  0
  188.1900  177.0250  138.4550 C   0  0  0  0  0  3  0  0  0  0  0  0
  190.0590  174.2910  136.5020 S   0  0  0  0  0  0  0  0  0  0  0  0
  188.4460  174.4480  136.0100 C   0  0  0  0  0  0  0  0  0  0  0  0
  187.8470  173.6600  134.9890 N   0  0  0  0  0  1  0  0  0  0  0  0
  188.5860  176.0000  137.5980 C   0  0  0  0  0  0  0  0  0  0  0  0
  189.8850  175.5140  137.6380 C   0  0  0  0  0  0  0  0  0  0  0  0
  190.4510  177.0550  139.3810 C   0  0  0  0  0  3  0  0  0  0  0  0
  187.7740  175.4080  136.6870 N   0  0  0  0  0  0  0  0  0  0  0  0
  190.8400  176.0210  138.5150 C   0  0  0  0  0  3  0  0  0  0  0  0
  189.1340  177.5590  139.3510 C   0  0  0  0  0  0  0  0  0  0  0  0
  1  5  1  0  0  0  0
  2 11  1  0  0  0  0
  3  9  1  0  0  0  0
  4  2  1  0  0  0  0
  5  2  2  0  0  0  0
  6 19  1  1  0  0  0
  6  7  1  0  0  0  0
  6 10  1  0  0  0  0
  7 13  1  6  0  0  0
  7  3  1  0  0  0  0
  8  9  1  0  0  0  0
  8  1  2  0  0  0  0
  9  4  2  0  0  0  0
 10  8  1  0  0  0  0
 11 12  3  0  0  0  0
 13 14  1  1  0  0  0
 15 13  1  0  0  0  0
 16 18  1  0  0  0  0
 16 15  1  0  0  0  0
 18 17  1  0  0  0  0
 20 29  1  0  0  0  0
 21 25  1  0  0  0  0
 22 21  1  0  0  0  0
 22 27  2  0  0  0  0
 23 22  1  0  0  0  0
 24 25  1  0  0  0  0
 24 20  2  0  0  0  0
 25 28  2  0  0  0  0
 27 24  1  0  0  0  0
 28 26  1  0  0  0  0
 29 26  2  0  0  0  0
 29 19  1  0  0  0  0
M  END
>  <MODEL>
5

>  <REMARK>
 VINA RESULT:      -6.8      1.245      1.596
  Name = 
  7 active torsions:
  status: ('A' for Active; 'I' for Inactive)
    1  A    between atoms: C_2  and  C_5
    2  A    between atoms: C_7  and  C_21
    3  A    between atoms: C_7  and  O_28
    4  A    between atoms: C_12  and  C_16
    5  A    between atoms: C_12  and  C_29
    6  A    between atoms: C_13  and  C_18
    7  A    between atoms: C_13  and  C_21
                            x       y       z     vdW  Elec       q    Type
                         _______ _______ _______ _____ _____    ______ ____

>  <TORSDO>
F 7

$$$$
=
 OpenBabel10222421073D

 29 32  0  0  1  0  0  0  0  0999 V2000
  189.7470  176.7450  143.5340 C   0  0  0  0  0  3  0  0  0  0  0  0
  190.2920  176.9130  145.8900 C   0  0  0  0  0  0  0  0  0  0  0  0
  186.2590  177.2840  145.5420 S   0  0  0  0  0  0  0  0  0  0  0  0
  188.9460  177.1520  146.1840 C   0  0  0  0  0  3  0  0  0  0  0  0
  190.6900  176.6910  144.5670 C   0  0  0  0  0  3  0  0  0  0  0  0
  186.3170  178.0590  142.9140 C   0  0  2  0  0  3  0  0  0  0  0  0
  185.8330  178.3380  144.1410 C   0  0  1  0  0  3  0  0  0  0  0  0
  188.4050  177.0040  143.8240 C   0  0  0  0  0  0  0  0  0  0  0  0
  188.0030  177.1920  145.1540 C   0  0  0  0  0  0  0  0  0  0  0  0
  187.4810  177.2350  142.7560 N   0  0  0  0  0  2  0  0  0  0  0  0
  191.2620  176.8710  146.9460 C   0  0  0  0  0  0  0  0  0  0  0  0
  192.0450  176.8370  147.7990 N   0  0  0  0  0  0  0  0  0  0  0  0
  184.7990  179.4040  144.3450 C   0  0  2  0  0  3  0  0  0  0  0  0
  185.3430  180.4640  145.0480 F   0  0  0  0  0  0  0  0  0  0  0  0
  183.5940  178.8410  145.0840 C   0  0  0  0  0  2  0  0  0  0  0  0
  182.4210  178.6540  144.1380 C   0  0  0  0  0  2  0  0  0  0  0  0
  181.8590  178.7140  142.0040 C   0  0  0  0  0  1  0  0  0  0  0  0
  182.6360  179.3690  142.9580 O   0  0  0  0  0  0  0  0  0  0  0  0
  185.7810  178.7470  141.6940 C   0  0  0  0  0  2  0  0  0  0  0  0
  186.1670  178.3000  139.2570 C   0  0  0  0  0  3  0  0  0  0  0  0
  189.2110  177.8750  136.9460 S   0  0  0  0  0  0  0  0  0  0  0  0
  187.7440  177.7050  136.1180 C   0  0  0  0  0  0  0  0  0  0  0  0
  187.6440  177.4360  134.7250 N   0  0  0  0  0  1  0  0  0  0  0  0
  187.0470  178.1020  138.1940 C   0  0  0  0  0  0  0  0  0  0  0  0
  188.4190  178.1520  138.4000 C   0  0  0  0  0  0  0  0  0  0  0  0
  188.0930  178.6040  140.7280 C   0  0  0  0  0  3  0  0  0  0  0  0
  186.6610  177.8530  136.9170 N   0  0  0  0  0  0  0  0  0  0  0  0
  188.9720  178.4030  139.6520 C   0  0  0  0  0  3  0  0  0  0  0  0
  186.6980  178.5570  140.5340 C   0  0  0  0  0  0  0  0  0  0  0  0
  1  8  2  0  0  0  0
  1  5  1  0  0  0  0
  2  4  1  0  0  0  0
  2 11  1  0  0  0  0
  5  2  2  0  0  0  0
  6 19  1  1  0  0  0
  6  7  1  0  0  0  0
  7 13  1  6  0  0  0
  7  3  1  0  0  0  0
  8  9  1  0  0  0  0
  9  3  1  0  0  0  0
  9  4  2  0  0  0  0
 10  6  1  0  0  0  0
 10  8  1  0  0  0  0
 11 12  3  0  0  0  0
 13 14  1  1  0  0  0
 13 15  1  0  0  0  0
 16 15  1  0  0  0  0
 17 18  1  0  0  0  0
 18 16  1  0  0  0  0
 20 29  1  0  0  0  0
 21 25  1  0  0  0  0
 22 27  2  0  0  0  0
 22 21  1  0  0  0  0
 23 22  1  0  0  0  0
 24 25  1  0  0  0  0
 24 20  2  0  0  0  0
 25 28  2  0  0  0  0
 27 24  1  0  0  0  0
 28 26  1  0  0  0  0
 29 26  2  0  0  0  0
 29 19  1  0  0  0  0
M  END
>  <MODEL>
6

>  <REMARK>
 VINA RESULT:      -6.7      2.756      3.483
  Name = 
  7 active torsions:
  status: ('A' for Active; 'I' for Inactive)
    1  A    between atoms: C_2  and  C_5
    2  A    between atoms: C_7  and  C_21
    3  A    between atoms: C_7  and  O_28
    4  A    between atoms: C_12  and  C_16
    5  A    between atoms: C_12  and  C_29
    6  A    between atoms: C_13  and  C_18
    7  A    between atoms: C_13  and  C_21
                            x       y       z     vdW  Elec       q    Type
                         _______ _______ _______ _____ _____    ______ ____

>  <TORSDO>
F 7

$$$$
=
 OpenBabel10222421073D

 29 32  0  0  1  0  0  0  0  0999 V2000
  184.8970  178.6480  139.1130 C   0  0  0  0  0  3  0  0  0  0  0  0
  182.8260  177.7550  140.0010 C   0  0  0  0  0  0  0  0  0  0  0  0
  185.2490  178.5820  143.1580 S   0  0  0  0  0  0  0  0  0  0  0  0
  183.3520  177.8210  141.2950 C   0  0  0  0  0  3  0  0  0  0  0  0
  183.5920  178.1850  138.9120 C   0  0  0  0  0  3  0  0  0  0  0  0
  187.5700  178.5040  141.7030 C   0  0  2  0  0  3  0  0  0  0  0  0
  186.9440  178.0680  142.8140 C   0  0  1  0  0  3  0  0  0  0  0  0
  185.4320  178.6950  140.4040 C   0  0  0  0  0  0  0  0  0  0  0  0
  184.6510  178.2950  141.4960 C   0  0  0  0  0  0  0  0  0  0  0  0
  186.8190  178.9970  140.5840 N   0  0  0  0  0  2  0  0  0  0  0  0
  181.4920  177.2680  139.7910 C   0  0  0  0  0  0  0  0  0  0  0  0
  180.4160  176.8760  139.6220 N   0  0  0  0  0  0  0  0  0  0  0  0
  187.6800  177.3040  143.8720 C   0  0  2  0  0  3  0  0  0  0  0  0
  187.6370  175.9490  143.5960 F   0  0  0  0  0  0  0  0  0  0  0  0
  187.0820  177.5840  145.2440 C   0  0  0  0  0  2  0  0  0  0  0  0
  188.1760  177.8300  146.2680 C   0  0  0  0  0  2  0  0  0  0  0  0
  188.2950  177.9940  148.4660 C   0  0  0  0  0  1  0  0  0  0  0  0
  187.8990  177.1320  147.4450 O   0  0  0  0  0  0  0  0  0  0  0  0
  189.0470  178.3140  141.5200 C   0  0  0  0  0  2  0  0  0  0  0  0
  190.0230  176.6160  139.9540 C   0  0  0  0  0  3  0  0  0  0  0  0
  190.4430  176.2440  136.1500 S   0  0  0  0  0  0  0  0  0  0  0  0
  191.0940  174.9340  137.0020 C   0  0  0  0  0  0  0  0  0  0  0  0
  191.7250  173.8190  136.3840 N   0  0  0  0  0  1  0  0  0  0  0  0
  190.3160  176.2050  138.6550 C   0  0  0  0  0  0  0  0  0  0  0  0
  189.9570  176.9940  137.5710 C   0  0  0  0  0  0  0  0  0  0  0  0
  188.9930  178.6290  139.0300 C   0  0  0  0  0  3  0  0  0  0  0  0
  190.9540  175.0480  138.3440 N   0  0  0  0  0  0  0  0  0  0  0  0
  189.2930  178.2080  137.7260 C   0  0  0  0  0  3  0  0  0  0  0  0
  189.3510  177.8370  140.1400 C   0  0  0  0  0  0  0  0  0  0  0  0
  1  8  1  0  0  0  0
  2  4  2  0  0  0  0
  4  9  1  0  0  0  0
  5  1  2  0  0  0  0
  5  2  1  0  0  0  0
  6 19  1  6  0  0  0
  6  7  1  0  0  0  0
  7  3  1  0  0  0  0
  7 13  1  1  0  0  0
  8 10  1  0  0  0  0
  8  9  2  0  0  0  0
  9  3  1  0  0  0  0
 10  6  1  0  0  0  0
 11  2  1  0  0  0  0
 12 11  3  0  0  0  0
 13 14  1  6  0  0  0
 13 15  1  0  0  0  0
 15 16  1  0  0  0  0
 16 18  1  0  0  0  0
 18 17  1  0  0  0  0
 20 29  1  0  0  0  0
 21 22  1  0  0  0  0
 21 25  1  0  0  0  0
 22 27  2  0  0  0  0
 23 22  1  0  0  0  0
 24 20  2  0  0  0  0
 25 28  2  0  0  0  0
 25 24  1  0  0  0  0
 26 29  2  0  0  0  0
 27 24  1  0  0  0  0
 28 26  1  0  0  0  0
 29 19  1  0  0  0  0
M  END
>  <MODEL>
7

>  <REMARK>
 VINA RESULT:      -6.6      2.960      5.788
  Name = 
  7 active torsions:
  status: ('A' for Active; 'I' for Inactive)
    1  A    between atoms: C_2  and  C_5
    2  A    between atoms: C_7  and  C_21
    3  A    between atoms: C_7  and  O_28
    4  A    between atoms: C_12  and  C_16
    5  A    between atoms: C_12  and  C_29
    6  A    between atoms: C_13  and  C_18
    7  A    between atoms: C_13  and  C_21
                            x       y       z     vdW  Elec       q    Type
                         _______ _______ _______ _____ _____    ______ ____

>  <TORSDO>
F 7

$$$$
=
 OpenBabel10222421073D

 29 32  0  0  1  0  0  0  0  0999 V2000
  191.1710  177.2210  143.3640 C   0  0  0  0  0  3  0  0  0  0  0  0
  190.7920  177.1330  145.7560 C   0  0  0  0  0  0  0  0  0  0  0  0
  187.1810  176.7200  143.9340 S   0  0  0  0  0  0  0  0  0  0  0  0
  189.4140  177.0430  145.5350 C   0  0  0  0  0  3  0  0  0  0  0  0
  191.6710  177.2030  144.6710 C   0  0  0  0  0  3  0  0  0  0  0  0
  187.9680  177.8850  141.5810 C   0  0  2  0  0  3  0  0  0  0  0  0
  187.0300  177.8670  142.5490 C   0  0  1  0  0  3  0  0  0  0  0  0
  189.7930  177.1520  143.1410 C   0  0  0  0  0  0  0  0  0  0  0  0
  188.9160  177.0480  144.2290 C   0  0  0  0  0  0  0  0  0  0  0  0
  189.2790  177.3510  141.8210 N   0  0  0  0  0  2  0  0  0  0  0  0
  191.3050  177.1280  147.0960 C   0  0  0  0  0  0  0  0  0  0  0  0
  191.7210  177.1250  148.1770 N   0  0  0  0  0  0  0  0  0  0  0  0
  185.7620  178.6550  142.4180 C   0  0  2  0  0  3  0  0  0  0  0  0
  186.0350  180.0090  142.4920 F   0  0  0  0  0  0  0  0  0  0  0  0
  184.7720  178.2540  143.5010 C   0  0  0  0  0  2  0  0  0  0  0  0
  184.4340  179.4390  144.3890 C   0  0  0  0  0  2  0  0  0  0  0  0
  185.3430  178.8380  146.3080 C   0  0  0  0  0  1  0  0  0  0  0  0
  184.1120  179.0010  145.6740 O   0  0  0  0  0  0  0  0  0  0  0  0
  187.7440  178.6280  140.2980 C   0  0  0  0  0  2  0  0  0  0  0  0
  189.7670  177.6850  139.1540 C   0  0  0  0  0  3  0  0  0  0  0  0
  190.5120  175.8810  135.8410 S   0  0  0  0  0  0  0  0  0  0  0  0
  191.9050  176.1180  136.7740 C   0  0  0  0  0  0  0  0  0  0  0  0
  193.2050  175.6980  136.3800 N   0  0  0  0  0  1  0  0  0  0  0  0
  190.3380  177.0330  138.0620 C   0  0  0  0  0  0  0  0  0  0  0  0
  189.5480  176.6260  136.9960 C   0  0  0  0  0  0  0  0  0  0  0  0
  187.5890  177.4930  138.0640 C   0  0  0  0  0  3  0  0  0  0  0  0
  191.6600  176.7510  137.9450 N   0  0  0  0  0  0  0  0  0  0  0  0
  188.1730  176.8390  136.9680 C   0  0  0  0  0  3  0  0  0  0  0  0
  188.3790  177.9110  139.1540 C   0  0  0  0  0  0  0  0  0  0  0  0
  1  5  1  0  0  0  0
  2 11  1  0  0  0  0
  3  9  1  0  0  0  0
  4  2  1  0  0  0  0
  5  2  2  0  0  0  0
  6 19  1  1  0  0  0
  6 10  1  0  0  0  0
  6  7  1  0  0  0  0
  7 13  1  6  0  0  0
  7  3  1  0  0  0  0
  8  1  2  0  0  0  0
  8  9  1  0  0  0  0
  9  4  2  0  0  0  0
 10  8  1  0  0  0  0
 11 12  3  0  0  0  0
 13 14  1  1  0  0  0
 13 15  1  0  0  0  0
 15 16  1  0  0  0  0
 16 18  1  0  0  0  0
 18 17  1  0  0  0  0
 21 22  1  0  0  0  0
 21 25  1  0  0  0  0
 22 27  2  0  0  0  0
 23 22  1  0  0  0  0
 24 20  2  0  0  0  0
 25 24  1  0  0  0  0
 26 29  2  0  0  0  0
 27 24  1  0  0  0  0
 28 25  2  0  0  0  0
 28 26  1  0  0  0  0
 29 20  1  0  0  0  0
 29 19  1  0  0  0  0
M  END
>  <MODEL>
8

>  <REMARK>
 VINA RESULT:      -6.6      2.212      2.733
  Name = 
  7 active torsions:
  status: ('A' for Active; 'I' for Inactive)
    1  A    between atoms: C_2  and  C_5
    2  A    between atoms: C_7  and  C_21
    3  A    between atoms: C_7  and  O_28
    4  A    between atoms: C_12  and  C_16
    5  A    between atoms: C_12  and  C_29
    6  A    between atoms: C_13  and  C_18
    7  A    between atoms: C_13  and  C_21
                            x       y       z     vdW  Elec       q    Type
                         _______ _______ _______ _____ _____    ______ ____

>  <TORSDO>
F 7

$$$$
=
 OpenBabel10222421073D

 29 32  0  0  1  0  0  0  0  0999 V2000
  183.4890  179.0710  144.9360 C   0  0  0  0  0  3  0  0  0  0  0  0
  185.7280  178.1630  145.1140 C   0  0  0  0  0  0  0  0  0  0  0  0
  184.9710  178.7730  141.1670 S   0  0  0  0  0  0  0  0  0  0  0  0
  185.8340  178.1480  143.7200 C   0  0  0  0  0  3  0  0  0  0  0  0
  184.5630  178.6410  145.7220 C   0  0  0  0  0  3  0  0  0  0  0  0
  182.2440  178.7400  141.4400 C   0  0  2  0  0  3  0  0  0  0  0  0
  183.2950  178.2520  140.7500 C   0  0  1  0  0  3  0  0  0  0  0  0
  183.5840  179.0370  143.5420 C   0  0  0  0  0  0  0  0  0  0  0  0
  184.7650  178.5890  142.9350 C   0  0  0  0  0  0  0  0  0  0  0  0
  182.4250  179.3060  142.7460 N   0  0  0  0  0  2  0  0  0  0  0  0
  186.8240  177.7100  145.9220 C   0  0  0  0  0  0  0  0  0  0  0  0
  187.7090  177.3450  146.5740 N   0  0  0  0  0  0  0  0  0  0  0  0
  183.0980  177.4170  139.5210 C   0  0  2  0  0  3  0  0  0  0  0  0
  183.1460  176.0730  139.8460 F   0  0  0  0  0  0  0  0  0  0  0  0
  184.1560  177.7490  138.4790 C   0  0  0  0  0  2  0  0  0  0  0  0
  184.1050  176.7610  137.3260 C   0  0  0  0  0  2  0  0  0  0  0  0
  186.2210  177.3620  137.1470 C   0  0  0  0  0  1  0  0  0  0  0  0
  185.3810  176.2530  137.0720 O   0  0  0  0  0  0  0  0  0  0  0  0
  180.8390  178.5370  140.9580 C   0  0  0  0  0  2  0  0  0  0  0  0
  180.7270  180.1440  139.0370 C   0  0  0  0  0  3  0  0  0  0  0  0
  178.9490  183.4690  138.2810 S   0  0  0  0  0  0  0  0  0  0  0  0
  179.9230  182.9510  136.9960 C   0  0  0  0  0  0  0  0  0  0  0  0
  180.0690  183.6620  135.7730 N   0  0  0  0  0  1  0  0  0  0  0  0
  180.2350  181.3250  138.4830 C   0  0  0  0  0  0  0  0  0  0  0  0
  179.3590  182.1260  139.2010 C   0  0  0  0  0  0  0  0  0  0  0  0
  179.4200  180.6050  141.0490 C   0  0  0  0  0  3  0  0  0  0  0  0
  180.5550  181.7810  137.2450 N   0  0  0  0  0  0  0  0  0  0  0  0
  178.9310  181.7930  140.4830 C   0  0  0  0  0  3  0  0  0  0  0  0
  180.3100  179.7820  140.3300 C   0  0  0  0  0  0  0  0  0  0  0  0
  1  5  1  0  0  0  0
  2  5  2  0  0  0  0
  2 11  1  0  0  0  0
  3  9  1  0  0  0  0
  4  2  1  0  0  0  0
  6 19  1  1  0  0  0
  6 10  1  0  0  0  0
  7 13  1  6  0  0  0
  7  3  1  0  0  0  0
  7  6  1  0  0  0  0
  8  1  2  0  0  0  0
  9  8  1  0  0  0  0
  9  4  2  0  0  0  0
 10  8  1  0  0  0  0
 11 12  3  0  0  0  0
 13 14  1  1  0  0  0
 15 13  1  0  0  0  0
 16 15  1  0  0  0  0
 18 17  1  0  0  0  0
 18 16  1  0  0  0  0
 20 29  1  0  0  0  0
 21 25  1  0  0  0  0
 22 27  2  0  0  0  0
 22 21  1  0  0  0  0
 23 22  1  0  0  0  0
 24 20  2  0  0  0  0
 24 25  1  0  0  0  0
 25 28  2  0  0  0  0
 27 24  1  0  0  0  0
 28 26  1  0  0  0  0
 29 19  1  0  0  0  0
 29 26  2  0  0  0  0
M  END
>  <MODEL>
9

>  <REMARK>
 VINA RESULT:      -6.4      4.934      8.110
  Name = 
  7 active torsions:
  status: ('A' for Active; 'I' for Inactive)
    1  A    between atoms: C_2  and  C_5
    2  A    between atoms: C_7  and  C_21
    3  A    between atoms: C_7  and  O_28
    4  A    between atoms: C_12  and  C_16
    5  A    between atoms: C_12  and  C_29
    6  A    between atoms: C_13  and  C_18
    7  A    between atoms: C_13  and  C_21
                            x       y       z     vdW  Elec       q    Type
                         _______ _______ _______ _____ _____    ______ ____

>  <TORSDO>
F 7

$$$$
