=
 OpenBabel10222419113D

 64 72  0  0  1  0  0  0  0  0999 V2000
  183.6550  177.9810  140.3170 C   0  0  0  0  0  2  0  0  0  0  0  0
  187.1850  178.5780  139.6630 C   0  0  0  0  0  2  0  0  0  0  0  0
  189.3470  174.4680  136.2340 N   0  0  0  0  0  0  0  0  0  0  0  0
  187.1190  175.5460  136.5130 C   0  0  0  0  0  0  0  0  0  0  0  0
  181.5160  179.1300  140.8540 C   0  0  0  0  0  2  0  0  0  0  0  0
  186.6580  176.7190  137.0870 C   0  0  0  0  0  0  0  0  0  0  0  0
  179.0640  181.2820  137.1420 C   0  0  0  0  0  2  0  0  0  0  0  0
  180.9350  179.4550  137.9780 C   0  0  2  0  0  3  0  0  0  0  0  0
  179.8720  179.7850  139.0510 C   0  0  2  0  0  3  0  0  0  0  0  0
  181.9780  178.4470  138.4990 C   0  0  1  0  0  3  0  0  0  0  0  0
  187.7390  172.6400  136.1790 N   0  0  0  0  0  0  0  0  0  0  0  0
  187.7990  177.3420  137.6260 C   0  0  0  0  0  0  0  0  0  0  0  0
  181.5600  180.7380  137.4210 C   0  0  0  0  0  2  0  0  0  0  0  0
  178.9310  180.9200  138.6210 C   0  0  0  0  0  2  0  0  0  0  0  0
  186.5590  173.1890  136.1410 C   0  0  0  0  0  0  0  0  0  0  0  0
  185.4260  172.3520  136.4020 N   0  0  0  0  0  2  0  0  0  0  0  0
  180.5150  180.1800  140.3840 C   0  0  0  0  0  2  0  0  0  0  0  0
  183.0010  178.0330  137.4550 C   0  0  0  0  0  0  0  0  0  0  0  0
  184.7390  177.8570  139.3010 C   0  0  1  0  0  3  0  0  0  0  0  0
  189.0370  173.2310  135.9690 C   0  0  0  0  0  3  0  0  0  0  0  0
  180.5080  181.6610  136.7880 C   0  0  1  0  0  3  0  0  0  0  0  0
  182.6060  178.9540  139.8060 C   0  0  2  0  0  3  0  0  0  0  0  0
  188.4690  175.4790  136.7380 C   0  0  0  0  0  0  0  0  0  0  0  0
  182.5690  177.7370  136.2280 C   0  0  0  0  0  2  0  0  0  0  0  0
  184.3940  177.6880  137.8670 C   0  0  0  0  0  0  0  0  0  0  0  0
  186.3590  174.5960  135.6640 C   0  0  0  0  0  2  0  0  0  0  0  0
  188.8870  176.5720  137.3990 N   0  0  0  0  0  0  0  0  0  0  0  0
  187.8710  178.6620  138.3440 C   0  0  0  0  0  2  0  0  0  0  0  0
  185.9390  178.2340  139.6070 C   0  0  0  0  0  2  0  0  0  0  0  0
  180.6680  181.6550  135.2810 C   0  0  0  0  0  1  0  0  0  0  0  0
  185.2550  177.1960  136.9430 C   0  0  0  0  0  3  0  0  0  0  0  0
  181.4270  173.4930  137.2450 C   0  0  0  0  0  0  0  0  0  0  0  0
  183.0230  172.0160  136.1730 C   0  0  0  0  0  3  0  0  0  0  0  0
  180.0960  173.8970  137.5520 N   0  0  0  0  0  1  0  0  0  0  0  0
  183.8090  173.8760  137.4960 C   0  0  0  0  0  3  0  0  0  0  0  0
  182.4890  174.2340  137.7720 C   0  0  0  0  0  3  0  0  0  0  0  0
  181.6890  172.3620  136.4360 C   0  0  0  0  0  0  0  0  0  0  0  0
  184.0830  172.7710  136.6820 C   0  0  0  0  0  0  0  0  0  0  0  0
  180.6200  171.5190  135.8510 C   0  0  0  0  0  0  0  0  0  0  0  0
  180.1600  170.5240  136.4720 O   0  0  0  0  0  1  0  0  0  0  0  0
  180.0980  171.8310  134.6010 O   0  0  0  0  0  0  0  0  0  0  0  0
  190.2540  176.8420  137.8240 C   0  0  0  0  0  2  0  0  0  0  0  0
  190.4930  176.2500  139.2050 C   0  0  0  0  0  2  0  0  0  0  0  0
  190.1760  177.2640  140.2880 C   0  0  0  0  0  2  0  0  0  0  0  0
  191.3840  177.4920  141.1830 C   0  0  0  0  0  2  0  0  0  0  0  0
  191.1680  176.8280  142.5310 C   0  0  0  0  0  2  0  0  0  0  0  0
  190.1270  177.5990  143.3270 C   0  0  0  0  0  2  0  0  0  0  0  0
  189.5640  176.7470  144.4570 C   0  0  1  0  0  3  0  0  0  0  0  0
  189.5930  177.5300  145.7380 C   0  0  0  0  0  3  0  0  0  0  0  0
  190.4560  177.3110  146.7440 C   0  0  0  0  0  0  0  0  0  0  0  0
  191.1990  175.0080  147.6040 C   0  0  0  0  0  2  0  0  0  0  0  0
  192.0610  175.8710  145.4930 O   0  0  0  0  0  1  0  0  0  0  0  0
  192.3330  175.9750  147.9310 C   0  0  0  0  0  2  0  0  0  0  0  0
  191.4670  176.1980  146.7110 C   0  0  0  0  0  0  0  0  0  0  0  0
  189.0800  177.9490  148.5640 O   0  0  0  0  0  1  0  0  0  0  0  0
  190.3330  178.1390  147.9840 C   0  0  0  0  0  2  0  0  0  0  0  0
  188.2460  176.3960  144.1550 O   0  0  0  0  0  0  0  0  0  0  0  0
  187.7490  177.4540  143.3890 C   0  0  0  0  0  2  0  0  0  0  0  0
  186.2920  177.8880  145.3810 C   0  0  0  0  0  3  0  0  0  0  0  0
  184.1280  178.9430  145.1310 C   0  0  0  0  0  3  0  0  0  0  0  0
  184.3300  179.0330  143.7490 C   0  0  0  0  0  3  0  0  0  0  0  0
  185.5130  178.5500  143.1830 C   0  0  0  0  0  3  0  0  0  0  0  0
  185.1090  178.3710  145.9470 C   0  0  0  0  0  3  0  0  0  0  0  0
  186.4950  177.9760  143.9990 C   0  0  0  0  0  0  0  0  0  0  0  0
  3 23  1  0  0  0  0
  4 23  2  0  0  0  0
  4  6  1  0  0  0  0
  6 12  2  0  0  0  0
  7 14  1  0  0  0  0
  8 13  1  1  0  0  0
  8 10  1  0  0  0  0
  8  9  1  0  0  0  0
  9 14  1  6  0  0  0
  9 17  1  0  0  0  0
 10 18  1  6  0  0  0
 10 22  1  0  0  0  0
 12 28  1  0  0  0  0
 15 11  2  0  0  0  0
 15 16  1  0  0  0  0
 16 38  1  0  0  0  0
 17  5  1  0  0  0  0
 18 25  1  0  0  0  0
 19 29  1  6  0  0  0
 19  1  1  0  0  0  0
 20 11  1  0  0  0  0
 20  3  2  0  0  0  0
 21 30  1  6  0  0  0
 21  7  1  0  0  0  0
 21 13  1  0  0  0  0
 22  1  1  1  0  0  0
 22  5  1  0  0  0  0
 23 27  1  0  0  0  0
 24 18  2  0  0  0  0
 25 19  1  0  0  0  0
 26 15  1  0  0  0  0
 26  4  1  0  0  0  0
 27 12  1  0  0  0  0
 27 42  1  0  0  0  0
 28  2  1  0  0  0  0
 29  2  1  0  0  0  0
 31  6  1  0  0  0  0
 31 25  2  0  0  0  0
 32 34  1  0  0  0  0
 32 36  1  0  0  0  0
 33 37  1  0  0  0  0
 33 38  2  0  0  0  0
 35 36  2  0  0  0  0
 37 32  2  0  0  0  0
 38 35  1  0  0  0  0
 39 37  1  0  0  0  0
 39 40  1  0  0  0  0
 41 39  2  0  0  0  0
 42 43  1  0  0  0  0
 43 44  1  0  0  0  0
 44 45  1  0  0  0  0
 45 46  1  0  0  0  0
 46 47  1  0  0  0  0
 48 47  1  6  0  0  0
 48 49  1  0  0  0  0
 49 50  2  0  0  0  0
 50 56  1  0  0  0  0
 51 53  1  0  0  0  0
 52 54  1  0  0  0  0
 54 50  1  0  0  0  0
 54 51  1  0  0  0  0
 54 53  1  0  0  0  0
 56 55  1  0  0  0  0
 57 48  1  0  0  0  0
 58 64  1  0  0  0  0
 58 57  1  0  0  0  0
 59 63  1  0  0  0  0
 60 63  2  0  0  0  0
 61 60  1  0  0  0  0
 62 61  2  0  0  0  0
 62 64  1  0  0  0  0
 64 59  2  0  0  0  0
M  END
>  <MODEL>
1

>  <REMARK>
 VINA RESULT:      -8.4      0.000      0.000
  Name = 
  15 active torsions:
  status: ('A' for Active; 'I' for Inactive)
    1  A    between atoms: C_4  and  C_20
    2  A    between atoms: C_4  and  C_25
    3  A    between atoms: C_4  and  O_33
    4  A    between atoms: C_10  and  C_25
    5  A    between atoms: C_10  and  C_50
    6  A    between atoms: C_14  and  C_38
    7  A    between atoms: C_14  and  C_53
    8  A    between atoms: N_32  and  C_60
    9  A    between atoms: O_33  and  C_51
   10  A    between atoms: C_34  and  C_51
   11  A    between atoms: C_36  and  C_43
   12  A    between atoms: C_36  and  C_62
   13  A    between atoms: C_38  and  C_50
   14  A    between atoms: C_39  and  C_57
   15  A    between atoms: C_53  and  N_56
                            x       y       z     vdW  Elec       q    Type
                         _______ _______ _______ _____ _____    ______ ____

>  <TORSDO>
F 15

$$$$
=
 OpenBabel10222419113D

 64 72  0  0  1  0  0  0  0  0999 V2000
  185.7660  178.9970  138.4130 C   0  0  0  0  0  2  0  0  0  0  0  0
  185.7490  178.9720  142.0520 C   0  0  0  0  0  2  0  0  0  0  0  0
  180.3760  179.5830  144.0700 N   0  0  0  0  0  0  0  0  0  0  0  0
  181.3940  178.5740  142.0340 C   0  0  0  0  0  0  0  0  0  0  0  0
  187.0070  178.1540  136.4310 C   0  0  0  0  0  2  0  0  0  0  0  0
  182.6610  178.1400  141.6790 C   0  0  0  0  0  0  0  0  0  0  0  0
  186.2170  173.4790  135.0360 C   0  0  0  0  0  2  0  0  0  0  0  0
  185.3690  175.6980  136.4120 C   0  0  2  0  0  3  0  0  0  0  0  0
  186.3340  176.0240  135.2490 C   0  0  2  0  0  3  0  0  0  0  0  0
  184.9410  176.9690  137.1710 C   0  0  1  0  0  3  0  0  0  0  0  0
  178.9780  180.3250  142.2190 N   0  0  0  0  0  0  0  0  0  0  0  0
  183.4720  178.4090  142.7970 C   0  0  0  0  0  0  0  0  0  0  0  0
  185.9640  174.6200  137.3240 C   0  0  0  0  0  2  0  0  0  0  0  0
  186.9170  174.7630  134.5940 C   0  0  0  0  0  2  0  0  0  0  0  0
  179.3800  179.6690  141.1690 C   0  0  0  0  0  0  0  0  0  0  0  0
  178.9320  180.1250  139.8860 N   0  0  0  0  0  2  0  0  0  0  0  0
  187.5010  176.9040  135.7100 C   0  0  0  0  0  2  0  0  0  0  0  0
  183.9320  176.7080  138.2780 C   0  0  0  0  0  0  0  0  0  0  0  0
  184.9940  178.5860  139.6210 C   0  0  1  0  0  3  0  0  0  0  0  0
  179.2730  180.1020  143.6130 C   0  0  0  0  0  3  0  0  0  0  0  0
  186.2550  173.3190  136.5620 C   0  0  1  0  0  3  0  0  0  0  0  0
  186.1750  177.7540  137.6400 C   0  0  2  0  0  3  0  0  0  0  0  0
  181.4780  179.1010  143.2960 C   0  0  0  0  0  0  0  0  0  0  0  0
  182.9070  175.8930  138.0200 C   0  0  0  0  0  2  0  0  0  0  0  0
  183.9280  177.5600  139.5040 C   0  0  0  0  0  0  0  0  0  0  0  0
  180.1290  178.3760  141.2860 C   0  0  0  0  0  2  0  0  0  0  0  0
  182.7310  178.9900  143.7670 N   0  0  0  0  0  0  0  0  0  0  0  0
  184.9390  178.1120  142.9590 C   0  0  0  0  0  2  0  0  0  0  0  0
  185.4660  178.8550  140.7950 C   0  0  0  0  0  2  0  0  0  0  0  0
  185.2580  172.2550  136.9750 C   0  0  0  0  0  1  0  0  0  0  0  0
  182.9400  177.3980  140.4180 C   0  0  0  0  0  3  0  0  0  0  0  0
  180.5140  179.0910  136.0880 C   0  0  0  0  0  0  0  0  0  0  0  0
  179.6600  180.7420  137.6440 C   0  0  0  0  0  3  0  0  0  0  0  0
  181.0530  178.7120  134.8240 N   0  0  0  0  0  1  0  0  0  0  0  0
  179.7930  178.4240  138.3050 C   0  0  0  0  0  3  0  0  0  0  0  0
  180.3200  178.1000  137.0550 C   0  0  0  0  0  3  0  0  0  0  0  0
  180.1860  180.4350  136.3800 C   0  0  0  0  0  0  0  0  0  0  0  0
  179.4460  179.7470  138.6020 C   0  0  0  0  0  0  0  0  0  0  0  0
  180.3730  181.5430  135.4140 C   0  0  0  0  0  0  0  0  0  0  0  0
  179.4630  181.8610  134.6020 O   0  0  0  0  0  0  0  0  0  0  0  0
  181.5630  182.2600  135.4030 O   0  0  0  0  0  1  0  0  0  0  0  0
  183.2000  179.4530  145.0660 C   0  0  0  0  0  2  0  0  0  0  0  0
  184.1470  178.4270  145.6700 C   0  0  0  0  0  2  0  0  0  0  0  0
  185.3080  179.1120  146.3690 C   0  0  0  0  0  2  0  0  0  0  0  0
  185.9700  178.1700  147.3610 C   0  0  0  0  0  2  0  0  0  0  0  0
  187.4620  178.0900  147.0910 C   0  0  0  0  0  2  0  0  0  0  0  0
  187.7450  178.4360  145.6380 C   0  0  0  0  0  2  0  0  0  0  0  0
  189.1960  178.1440  145.2810 C   0  0  1  0  0  3  0  0  0  0  0  0
  189.8090  177.2750  146.3420 C   0  0  0  0  0  3  0  0  0  0  0  0
  190.9170  176.5360  146.1730 C   0  0  0  0  0  0  0  0  0  0  0  0
  191.0360  175.5680  143.7970 C   0  0  0  0  0  2  0  0  0  0  0  0
  192.2380  177.6140  144.3550 O   0  0  0  0  0  1  0  0  0  0  0  0
  192.3330  175.1650  144.4900 C   0  0  0  0  0  2  0  0  0  0  0  0
  191.6420  176.4590  144.8570 C   0  0  0  0  0  0  0  0  0  0  0  0
  192.4860  176.2590  147.9270 O   0  0  0  0  0  1  0  0  0  0  0  0
  191.3830  175.6770  147.3060 C   0  0  0  0  0  2  0  0  0  0  0  0
  189.2430  177.4820  144.0520 O   0  0  0  0  0  0  0  0  0  0  0  0
  189.5580  178.4690  143.1140 C   0  0  0  0  0  2  0  0  0  0  0  0
  190.8580  177.2470  141.3540 C   0  0  0  0  0  3  0  0  0  0  0  0
  189.8680  176.7460  139.2020 C   0  0  0  0  0  3  0  0  0  0  0  0
  188.6770  177.3610  139.6050 C   0  0  0  0  0  3  0  0  0  0  0  0
  188.5770  177.9200  140.8820 C   0  0  0  0  0  3  0  0  0  0  0  0
  190.9580  176.6880  140.0770 C   0  0  0  0  0  3  0  0  0  0  0  0
  189.6670  177.8640  141.7580 C   0  0  0  0  0  0  0  0  0  0  0  0
  2 28  1  0  0  0  0
  4 23  2  0  0  0  0
  6  4  1  0  0  0  0
  6 12  2  0  0  0  0
  7 21  1  0  0  0  0
  8 10  1  0  0  0  0
  8 13  1  1  0  0  0
  9 14  1  1  0  0  0
  9 17  1  0  0  0  0
  9  8  1  0  0  0  0
 10 22  1  0  0  0  0
 10 18  1  1  0  0  0
 11 20  1  0  0  0  0
 12 28  1  0  0  0  0
 12 27  1  0  0  0  0
 14  7  1  0  0  0  0
 15 26  1  0  0  0  0
 15 11  2  0  0  0  0
 16 15  1  0  0  0  0
 17  5  1  0  0  0  0
 18 25  1  0  0  0  0
 19  1  1  6  0  0  0
 19 29  1  0  0  0  0
 20  3  2  0  0  0  0
 21 30  1  1  0  0  0
 21 13  1  0  0  0  0
 22  5  1  6  0  0  0
 22  1  1  0  0  0  0
 23 27  1  0  0  0  0
 23  3  1  0  0  0  0
 24 18  2  0  0  0  0
 25 19  1  0  0  0  0
 25 31  2  0  0  0  0
 26  4  1  0  0  0  0
 27 42  1  0  0  0  0
 29  2  1  0  0  0  0
 31  6  1  0  0  0  0
 32 37  2  0  0  0  0
 32 36  1  0  0  0  0
 33 38  2  0  0  0  0
 34 32  1  0  0  0  0
 35 38  1  0  0  0  0
 36 35  2  0  0  0  0
 37 33  1  0  0  0  0
 38 16  1  0  0  0  0
 39 37  1  0  0  0  0
 40 39  2  0  0  0  0
 41 39  1  0  0  0  0
 42 43  1  0  0  0  0
 43 44  1  0  0  0  0
 44 45  1  0  0  0  0
 46 45  1  0  0  0  0
 47 46  1  0  0  0  0
 48 47  1  1  0  0  0
 48 49  1  0  0  0  0
 50 49  2  0  0  0  0
 50 56  1  0  0  0  0
 51 53  1  0  0  0  0
 51 54  1  0  0  0  0
 52 54  1  0  0  0  0
 53 54  1  0  0  0  0
 54 50  1  0  0  0  0
 56 55  1  0  0  0  0
 57 48  1  0  0  0  0
 58 57  1  0  0  0  0
 59 64  1  0  0  0  0
 60 61  2  0  0  0  0
 60 63  1  0  0  0  0
 61 62  1  0  0  0  0
 62 64  2  0  0  0  0
 63 59  2  0  0  0  0
 64 58  1  0  0  0  0
M  END
>  <MODEL>
2

>  <REMARK>
 VINA RESULT:      -6.3      3.419      7.350
  Name = 
  15 active torsions:
  status: ('A' for Active; 'I' for Inactive)
    1  A    between atoms: C_4  and  C_20
    2  A    between atoms: C_4  and  C_25
    3  A    between atoms: C_4  and  O_33
    4  A    between atoms: C_10  and  C_25
    5  A    between atoms: C_10  and  C_50
    6  A    between atoms: C_14  and  C_38
    7  A    between atoms: C_14  and  C_53
    8  A    between atoms: N_32  and  C_60
    9  A    between atoms: O_33  and  C_51
   10  A    between atoms: C_34  and  C_51
   11  A    between atoms: C_36  and  C_43
   12  A    between atoms: C_36  and  C_62
   13  A    between atoms: C_38  and  C_50
   14  A    between atoms: C_39  and  C_57
   15  A    between atoms: C_53  and  N_56
                            x       y       z     vdW  Elec       q    Type
                         _______ _______ _______ _____ _____    ______ ____

>  <TORSDO>
F 15

$$$$
=
 OpenBabel10222419113D

 64 72  0  0  1  0  0  0  0  0999 V2000
  185.9120  179.2240  138.4100 C   0  0  0  0  0  2  0  0  0  0  0  0
  185.7600  179.1580  142.0460 C   0  0  0  0  0  2  0  0  0  0  0  0
  180.2920  179.5170  143.8630 N   0  0  0  0  0  0  0  0  0  0  0  0
  181.4300  178.5750  141.8570 C   0  0  0  0  0  0  0  0  0  0  0  0
  187.2630  178.4560  136.4690 C   0  0  0  0  0  2  0  0  0  0  0  0
  182.7260  178.1990  141.5470 C   0  0  0  0  0  0  0  0  0  0  0  0
  186.7280  173.7680  135.0010 C   0  0  0  0  0  2  0  0  0  0  0  0
  185.7340  175.9340  136.3650 C   0  0  2  0  0  3  0  0  0  0  0  0
  186.7270  176.3140  135.2430 C   0  0  2  0  0  3  0  0  0  0  0  0
  185.2230  177.1770  137.1190 C   0  0  1  0  0  3  0  0  0  0  0  0
  178.9350  180.2190  141.9670 N   0  0  0  0  0  0  0  0  0  0  0  0
  183.4820  178.4900  142.6980 C   0  0  0  0  0  0  0  0  0  0  0  0
  186.3400  174.8720  137.2890 C   0  0  0  0  0  2  0  0  0  0  0  0
  187.3880  175.0860  134.5980 C   0  0  0  0  0  2  0  0  0  0  0  0
  179.4040  179.5930  140.9260 C   0  0  0  0  0  0  0  0  0  0  0  0
  178.9850  180.0430  139.6320 N   0  0  0  0  0  2  0  0  0  0  0  0
  187.8370  177.2370  135.7560 C   0  0  0  0  0  2  0  0  0  0  0  0
  184.1850  176.8610  138.1830 C   0  0  0  0  0  0  0  0  0  0  0  0
  185.1140  178.7670  139.5830 C   0  0  1  0  0  3  0  0  0  0  0  0
  179.1860  179.9940  143.3680 C   0  0  0  0  0  3  0  0  0  0  0  0
  186.7150  173.5930  136.5250 C   0  0  1  0  0  3  0  0  0  0  0  0
  186.4030  178.0080  137.6420 C   0  0  2  0  0  3  0  0  0  0  0  0
  181.4420  179.0910  143.1260 C   0  0  0  0  0  0  0  0  0  0  0  0
  183.2070  176.0060  137.8780 C   0  0  0  0  0  2  0  0  0  0  0  0
  184.0980  177.6980  139.4160 C   0  0  0  0  0  0  0  0  0  0  0  0
  180.2030  178.3310  141.0600 C   0  0  0  0  0  2  0  0  0  0  0  0
  182.6810  179.0280  143.6440 N   0  0  0  0  0  0  0  0  0  0  0  0
  184.9530  178.2550  142.9130 C   0  0  0  0  0  2  0  0  0  0  0  0
  185.5290  179.0430  140.7780 C   0  0  0  0  0  2  0  0  0  0  0  0
  185.7500  172.4830  136.8900 C   0  0  0  0  0  1  0  0  0  0  0  0
  183.0850  177.4840  140.2910 C   0  0  0  0  0  3  0  0  0  0  0  0
  180.6200  178.9650  135.8680 C   0  0  0  0  0  0  0  0  0  0  0  0
  179.5440  178.3650  137.9560 C   0  0  0  0  0  3  0  0  0  0  0  0
  181.1690  178.6360  134.5950 N   0  0  0  0  0  1  0  0  0  0  0  0
  180.0920  180.6730  137.5070 C   0  0  0  0  0  3  0  0  0  0  0  0
  180.6190  180.3050  136.2690 C   0  0  0  0  0  3  0  0  0  0  0  0
  180.0720  177.9750  136.7160 C   0  0  0  0  0  0  0  0  0  0  0  0
  179.5640  179.7010  138.3650 C   0  0  0  0  0  0  0  0  0  0  0  0
  180.0250  176.5380  136.3580 C   0  0  0  0  0  0  0  0  0  0  0  0
  179.6370  175.6710  137.1860 O   0  0  0  0  0  1  0  0  0  0  0  0
  180.4010  176.1280  135.0840 O   0  0  0  0  0  0  0  0  0  0  0  0
  183.0800  179.4960  144.9650 C   0  0  0  0  0  2  0  0  0  0  0  0
  184.5910  179.4000  145.1130 C   0  0  0  0  0  2  0  0  0  0  0  0
  184.9670  178.3030  146.0930 C   0  0  0  0  0  2  0  0  0  0  0  0
  186.4300  178.4130  146.4890 C   0  0  0  0  0  2  0  0  0  0  0  0
  187.0930  177.0490  146.4250 C   0  0  0  0  0  2  0  0  0  0  0  0
  187.8080  176.8820  145.0940 C   0  0  0  0  0  2  0  0  0  0  0  0
  189.0430  177.7690  145.0230 C   0  0  1  0  0  3  0  0  0  0  0  0
  190.2420  176.9990  145.4970 C   0  0  0  0  0  3  0  0  0  0  0  0
  190.5510  176.7910  146.7870 C   0  0  0  0  0  0  0  0  0  0  0  0
  189.5550  178.8700  147.9200 C   0  0  0  0  0  2  0  0  0  0  0  0
  188.6320  176.6600  148.3720 O   0  0  0  0  0  1  0  0  0  0  0  0
  190.4500  178.2030  148.9590 C   0  0  0  0  0  2  0  0  0  0  0  0
  189.7400  177.3690  147.9140 C   0  0  0  0  0  0  0  0  0  0  0  0
  192.2770  175.3820  145.9780 O   0  0  0  0  0  1  0  0  0  0  0  0
  191.8090  176.0470  147.1100 C   0  0  0  0  0  2  0  0  0  0  0  0
  189.2430  178.1760  143.7020 O   0  0  0  0  0  0  0  0  0  0  0  0
  189.7680  177.0580  143.0480 C   0  0  0  0  0  2  0  0  0  0  0  0
  190.7020  176.5650  140.7760 C   0  0  0  0  0  3  0  0  0  0  0  0
  189.9710  177.8140  138.8350 C   0  0  0  0  0  3  0  0  0  0  0  0
  189.1050  178.5620  139.6400 C   0  0  0  0  0  3  0  0  0  0  0  0
  189.0380  178.3110  141.0140 C   0  0  0  0  0  3  0  0  0  0  0  0
  190.7690  176.8160  139.4020 C   0  0  0  0  0  3  0  0  0  0  0  0
  189.8370  177.3140  141.5830 C   0  0  0  0  0  0  0  0  0  0  0  0
  2 28  1  0  0  0  0
  4 23  2  0  0  0  0
  6  4  1  0  0  0  0
  6 12  2  0  0  0  0
  7 21  1  0  0  0  0
  8 10  1  0  0  0  0
  8 13  1  1  0  0  0
  9 14  1  1  0  0  0
  9 17  1  0  0  0  0
  9  8  1  0  0  0  0
 10 22  1  0  0  0  0
 10 18  1  1  0  0  0
 11 20  1  0  0  0  0
 12 28  1  0  0  0  0
 12 27  1  0  0  0  0
 14  7  1  0  0  0  0
 15 26  1  0  0  0  0
 15 11  2  0  0  0  0
 16 15  1  0  0  0  0
 17  5  1  0  0  0  0
 18 25  1  0  0  0  0
 19  1  1  6  0  0  0
 19 29  1  0  0  0  0
 20  3  2  0  0  0  0
 21 30  1  6  0  0  0
 21 13  1  0  0  0  0
 22  5  1  6  0  0  0
 22  1  1  0  0  0  0
 23 27  1  0  0  0  0
 23  3  1  0  0  0  0
 24 18  2  0  0  0  0
 25 19  1  0  0  0  0
 25 31  2  0  0  0  0
 26  4  1  0  0  0  0
 27 42  1  0  0  0  0
 29  2  1  0  0  0  0
 31  6  1  0  0  0  0
 32 36  2  0  0  0  0
 32 37  1  0  0  0  0
 33 38  1  0  0  0  0
 34 32  1  0  0  0  0
 35 38  2  0  0  0  0
 36 35  1  0  0  0  0
 37 33  2  0  0  0  0
 38 16  1  0  0  0  0
 39 37  1  0  0  0  0
 39 40  1  0  0  0  0
 41 39  2  0  0  0  0
 42 43  1  0  0  0  0
 43 44  1  0  0  0  0
 44 45  1  0  0  0  0
 46 45  1  0  0  0  0
 47 46  1  0  0  0  0
 48 47  1  6  0  0  0
 48 49  1  0  0  0  0
 49 50  2  0  0  0  0
 50 56  1  0  0  0  0
 50 54  1  0  0  0  0
 51 53  1  0  0  0  0
 54 51  1  0  0  0  0
 54 52  1  0  0  0  0
 54 53  1  0  0  0  0
 55 56  1  0  0  0  0
 57 48  1  0  0  0  0
 58 57  1  0  0  0  0
 59 64  1  0  0  0  0
 60 63  1  0  0  0  0
 60 61  2  0  0  0  0
 61 62  1  0  0  0  0
 62 64  2  0  0  0  0
 63 59  2  0  0  0  0
 64 58  1  0  0  0  0
M  END
>  <MODEL>
3

>  <REMARK>
 VINA RESULT:      -6.2      2.916      7.034
  Name = 
  15 active torsions:
  status: ('A' for Active; 'I' for Inactive)
    1  A    between atoms: C_4  and  C_20
    2  A    between atoms: C_4  and  C_25
    3  A    between atoms: C_4  and  O_33
    4  A    between atoms: C_10  and  C_25
    5  A    between atoms: C_10  and  C_50
    6  A    between atoms: C_14  and  C_38
    7  A    between atoms: C_14  and  C_53
    8  A    between atoms: N_32  and  C_60
    9  A    between atoms: O_33  and  C_51
   10  A    between atoms: C_34  and  C_51
   11  A    between atoms: C_36  and  C_43
   12  A    between atoms: C_36  and  C_62
   13  A    between atoms: C_38  and  C_50
   14  A    between atoms: C_39  and  C_57
   15  A    between atoms: C_53  and  N_56
                            x       y       z     vdW  Elec       q    Type
                         _______ _______ _______ _____ _____    ______ ____

>  <TORSDO>
F 15

$$$$
=
 OpenBabel10222419113D

 64 72  0  0  1  0  0  0  0  0999 V2000
  185.9110  179.1140  138.4240 C   0  0  0  0  0  2  0  0  0  0  0  0
  185.7490  179.0320  142.0590 C   0  0  0  0  0  2  0  0  0  0  0  0
  180.2860  179.4820  143.8680 N   0  0  0  0  0  0  0  0  0  0  0  0
  181.4100  178.5300  141.8590 C   0  0  0  0  0  0  0  0  0  0  0  0
  187.2510  178.3320  136.4820 C   0  0  0  0  0  2  0  0  0  0  0  0
  182.6990  178.1320  141.5500 C   0  0  0  0  0  0  0  0  0  0  0  0
  186.6310  173.6620  134.9880 C   0  0  0  0  0  2  0  0  0  0  0  0
  185.6750  175.8380  136.3620 C   0  0  2  0  0  3  0  0  0  0  0  0
  186.6770  176.2050  135.2430 C   0  0  2  0  0  3  0  0  0  0  0  0
  185.1860  177.0870  137.1210 C   0  0  1  0  0  3  0  0  0  0  0  0
  178.9460  180.2200  141.9730 N   0  0  0  0  0  0  0  0  0  0  0  0
  183.4590  178.4030  142.7040 C   0  0  0  0  0  0  0  0  0  0  0  0
  186.2590  174.7610  137.2810 C   0  0  0  0  0  2  0  0  0  0  0  0
  187.3170  174.9690  134.5940 C   0  0  0  0  0  2  0  0  0  0  0  0
  179.4050  179.5900  140.9310 C   0  0  0  0  0  0  0  0  0  0  0  0
  178.9980  180.0550  139.6380 N   0  0  0  0  0  2  0  0  0  0  0  0
  187.8030  177.1050  135.7640 C   0  0  0  0  0  2  0  0  0  0  0  0
  184.1410  176.7840  138.1820 C   0  0  0  0  0  0  0  0  0  0  0  0
  185.1010  178.6660  139.5940 C   0  0  1  0  0  3  0  0  0  0  0  0
  179.1900  179.9820  143.3740 C   0  0  0  0  0  3  0  0  0  0  0  0
  186.6120  173.4790  136.5120 C   0  0  1  0  0  3  0  0  0  0  0  0
  186.3810  177.8930  137.6510 C   0  0  2  0  0  3  0  0  0  0  0  0
  181.4300  179.0390  143.1320 C   0  0  0  0  0  0  0  0  0  0  0  0
  183.1470  175.9490  137.8710 C   0  0  0  0  0  2  0  0  0  0  0  0
  184.0660  177.6170  139.4190 C   0  0  0  0  0  0  0  0  0  0  0  0
  180.1800  178.3140  141.0590 C   0  0  0  0  0  2  0  0  0  0  0  0
  182.6660  178.9510  143.6520 N   0  0  0  0  0  0  0  0  0  0  0  0
  184.9250  178.1390  142.9210 C   0  0  0  0  0  2  0  0  0  0  0  0
  185.5190  178.9280  140.7910 C   0  0  0  0  0  2  0  0  0  0  0  0
  185.6270  172.3850  136.8690 C   0  0  0  0  0  1  0  0  0  0  0  0
  183.0470  177.4170  140.2910 C   0  0  0  0  0  3  0  0  0  0  0  0
  180.6150  178.9730  135.8670 C   0  0  0  0  0  0  0  0  0  0  0  0
  179.4450  178.3950  137.9110 C   0  0  0  0  0  3  0  0  0  0  0  0
  181.1620  178.6430  134.5940 N   0  0  0  0  0  1  0  0  0  0  0  0
  180.2030  180.6600  137.5600 C   0  0  0  0  0  3  0  0  0  0  0  0
  180.7220  180.2920  136.3190 C   0  0  0  0  0  3  0  0  0  0  0  0
  179.9630  178.0050  136.6670 C   0  0  0  0  0  0  0  0  0  0  0  0
  179.5720  179.7090  138.3700 C   0  0  0  0  0  0  0  0  0  0  0  0
  179.7990  176.5920  136.2540 C   0  0  0  0  0  0  0  0  0  0  0  0
  179.8040  175.6590  137.1010 O   0  0  0  0  0  1  0  0  0  0  0  0
  179.6210  176.2780  134.9120 O   0  0  0  0  0  0  0  0  0  0  0  0
  183.0710  179.4050  144.9750 C   0  0  0  0  0  2  0  0  0  0  0  0
  184.1730  178.5060  145.5150 C   0  0  0  0  0  2  0  0  0  0  0  0
  185.3230  179.3330  146.0610 C   0  0  0  0  0  2  0  0  0  0  0  0
  186.3340  178.4470  146.7700 C   0  0  0  0  0  2  0  0  0  0  0  0
  187.5240  178.1830  145.8640 C   0  0  0  0  0  2  0  0  0  0  0  0
  188.4130  177.1110  146.4740 C   0  0  0  0  0  2  0  0  0  0  0  0
  189.5580  176.7540  145.5350 C   0  0  1  0  0  3  0  0  0  0  0  0
  190.1130  178.0080  144.9220 C   0  0  0  0  0  3  0  0  0  0  0  0
  190.3400  178.1760  143.6090 C   0  0  0  0  0  0  0  0  0  0  0  0
  189.8200  177.5110  141.1830 C   0  0  0  0  0  2  0  0  0  0  0  0
  190.8600  175.9130  142.7020 O   0  0  0  0  0  1  0  0  0  0  0  0
  188.7140  176.9050  142.0400 C   0  0  0  0  0  2  0  0  0  0  0  0
  190.1070  177.0810  142.6040 C   0  0  0  0  0  0  0  0  0  0  0  0
  191.9040  179.8970  144.0620 O   0  0  0  0  0  1  0  0  0  0  0  0
  190.9460  179.4630  143.1470 C   0  0  0  0  0  2  0  0  0  0  0  0
  190.5610  176.1060  146.2600 O   0  0  0  0  0  0  0  0  0  0  0  0
  190.2700  176.3640  147.6020 C   0  0  0  0  0  2  0  0  0  0  0  0
  191.6990  177.7590  149.1160 C   0  0  0  0  0  3  0  0  0  0  0  0
  193.9130  177.0230  149.7620 C   0  0  0  0  0  3  0  0  0  0  0  0
  193.7470  175.8560  149.0060 C   0  0  0  0  0  3  0  0  0  0  0  0
  192.5570  175.6420  148.3060 C   0  0  0  0  0  3  0  0  0  0  0  0
  192.8890  177.9740  149.8160 C   0  0  0  0  0  3  0  0  0  0  0  0
  191.5320  176.5930  148.3590 C   0  0  0  0  0  0  0  0  0  0  0  0
  2 28  1  0  0  0  0
  4 23  2  0  0  0  0
  6  4  1  0  0  0  0
  6 12  2  0  0  0  0
  7 21  1  0  0  0  0
  8 10  1  0  0  0  0
  8 13  1  1  0  0  0
  9 14  1  1  0  0  0
  9 17  1  0  0  0  0
  9  8  1  0  0  0  0
 10 22  1  0  0  0  0
 10 18  1  1  0  0  0
 11 20  1  0  0  0  0
 12 28  1  0  0  0  0
 12 27  1  0  0  0  0
 14  7  1  0  0  0  0
 15 26  1  0  0  0  0
 15 11  2  0  0  0  0
 16 15  1  0  0  0  0
 17  5  1  0  0  0  0
 18 25  1  0  0  0  0
 19  1  1  6  0  0  0
 19 29  1  0  0  0  0
 20  3  2  0  0  0  0
 21 30  1  6  0  0  0
 21 13  1  0  0  0  0
 22  5  1  6  0  0  0
 22  1  1  0  0  0  0
 23 27  1  0  0  0  0
 23  3  1  0  0  0  0
 24 18  2  0  0  0  0
 25 19  1  0  0  0  0
 25 31  2  0  0  0  0
 26  4  1  0  0  0  0
 27 42  1  0  0  0  0
 29  2  1  0  0  0  0
 31  6  1  0  0  0  0
 32 36  2  0  0  0  0
 32 37  1  0  0  0  0
 33 38  1  0  0  0  0
 34 32  1  0  0  0  0
 35 38  2  0  0  0  0
 36 35  1  0  0  0  0
 37 33  2  0  0  0  0
 38 16  1  0  0  0  0
 39 37  1  0  0  0  0
 39 40  1  0  0  0  0
 41 39  2  0  0  0  0
 42 43  1  0  0  0  0
 43 44  1  0  0  0  0
 44 45  1  0  0  0  0
 46 47  1  0  0  0  0
 46 45  1  0  0  0  0
 48 49  1  1  0  0  0
 48 57  1  0  0  0  0
 48 47  1  0  0  0  0
 50 49  2  0  0  0  0
 51 53  1  0  0  0  0
 51 54  1  0  0  0  0
 53 54  1  0  0  0  0
 54 52  1  0  0  0  0
 54 50  1  0  0  0  0
 56 50  1  0  0  0  0
 56 55  1  0  0  0  0
 57 58  1  0  0  0  0
 58 64  1  0  0  0  0
 59 63  1  0  0  0  0
 60 63  2  0  0  0  0
 61 60  1  0  0  0  0
 62 64  1  0  0  0  0
 62 61  2  0  0  0  0
 64 59  2  0  0  0  0
M  END
>  <MODEL>
4

>  <REMARK>
 VINA RESULT:      -5.7      3.012      7.438
  Name = 
  15 active torsions:
  status: ('A' for Active; 'I' for Inactive)
    1  A    between atoms: C_4  and  C_20
    2  A    between atoms: C_4  and  C_25
    3  A    between atoms: C_4  and  O_33
    4  A    between atoms: C_10  and  C_25
    5  A    between atoms: C_10  and  C_50
    6  A    between atoms: C_14  and  C_38
    7  A    between atoms: C_14  and  C_53
    8  A    between atoms: N_32  and  C_60
    9  A    between atoms: O_33  and  C_51
   10  A    between atoms: C_34  and  C_51
   11  A    between atoms: C_36  and  C_43
   12  A    between atoms: C_36  and  C_62
   13  A    between atoms: C_38  and  C_50
   14  A    between atoms: C_39  and  C_57
   15  A    between atoms: C_53  and  N_56
                            x       y       z     vdW  Elec       q    Type
                         _______ _______ _______ _____ _____    ______ ____

>  <TORSDO>
F 15

$$$$
