=
 OpenBabel10222418503D

 42 45  0  0  1  0  0  0  0  0999 V2000
  189.7020  178.2870  141.7510 C   0  0  0  0  0  2  0  0  0  0  0  0
  189.1140  177.9680  140.3890 C   0  0  2  0  0  3  0  0  0  0  0  0
  192.0050  176.2290  136.8490 C   0  0  0  0  0  0  0  0  0  0  0  0
  182.6100  179.3330  140.4610 O   0  0  0  0  0  0  0  0  0  0  0  0
  183.2670  178.7740  141.3800 C   0  0  0  0  0  0  0  0  0  0  0  0
  189.7280  176.2050  136.1310 C   0  0  0  0  0  0  0  0  0  0  0  0
  185.3350  178.5080  139.9190 C   0  0  0  0  0  0  0  0  0  0  0  0
  184.6130  178.3530  141.1480 N   0  0  0  0  0  2  0  0  0  0  0  0
  191.5520  176.1130  138.2910 C   0  0  1  0  0  3  0  0  0  0  0  0
  187.6470  177.8730  140.6390 C   0  0  2  0  0  3  0  0  0  0  0  0
  185.8130  179.1270  137.8610 N   0  0  0  0  0  2  0  0  0  0  0  0
  192.5090  176.6510  139.1570 O   0  0  0  0  0  1  0  0  0  0  0  0
  190.2130  176.8280  138.4840 C   0  0  2  0  0  3  0  0  0  0  0  0
  188.9240  176.0260  135.1780 O   0  0  0  0  0  0  0  0  0  0  0  0
  186.7140  178.0750  139.6890 C   0  0  2  0  0  3  0  0  0  0  0  0
  184.8620  179.1170  138.8880 N   0  0  0  0  0  0  0  0  0  0  0  0
  189.6910  176.6510  139.9050 C   0  0  0  0  0  2  0  0  0  0  0  0
  191.1360  176.2310  135.8800 N   0  0  0  0  0  0  0  0  0  0  0  0
  188.6820  177.8300  142.7830 C   0  0  0  0  0  2  0  0  0  0  0  0
  187.3320  177.8560  142.0930 C   0  0  0  0  0  2  0  0  0  0  0  0
  186.9740  178.3250  138.2290 C   0  0  1  0  0  3  0  0  0  0  0  0
  187.8930  175.9710  137.8310 C   0  0  0  0  0  2  0  0  0  0  0  0
  189.2490  176.3780  137.4720 N   0  0  0  0  0  0  0  0  0  0  0  0
  186.8820  177.0280  137.4200 C   0  0  0  0  0  2  0  0  0  0  0  0
  183.2860  178.6690  143.8550 C   0  0  0  0  0  3  0  0  0  0  0  0
  182.7070  178.5910  142.6880 N   0  0  0  0  0  0  0  0  0  0  0  0
  185.1460  180.3780  143.5840 C   0  0  0  0  0  1  0  0  0  0  0  0
  184.7180  179.0280  144.1330 C   0  0  1  0  0  3  0  0  0  0  0  0
  184.3950  178.9070  146.4820 O   0  0  0  0  0  0  0  0  0  0  0  0
  185.1600  178.7520  145.5430 C   0  0  0  0  0  0  0  0  0  0  0  0
  186.7100  176.8270  145.3680 C   0  0  0  0  0  1  0  0  0  0  0  0
  186.5620  178.2790  145.7800 C   0  0  0  0  0  3  0  0  0  0  0  0
  186.9480  178.4440  147.2380 C   0  0  0  0  0  1  0  0  0  0  0  0
  193.4600  176.2970  136.5120 C   0  0  0  0  0  2  0  0  0  0  0  0
  194.1940  175.1480  137.1200 C   0  0  0  0  0  3  0  0  0  0  0  0
  195.0610  175.3510  138.0590 N   0  0  0  0  0  0  0  0  0  0  0  0
  195.7880  174.2870  138.6740 C   0  0  0  0  0  0  0  0  0  0  0  0
  195.6970  172.7980  137.9940 S   0  0  0  0  0  0  0  0  0  0  0  0
  197.7300  175.0780  140.1680 C   0  0  0  0  0  0  0  0  0  0  0  0
  198.4250  175.7700  139.1360 N   0  0  0  0  0  1  0  0  0  0  0  0
  196.4380  174.4980  139.9410 N   0  0  0  0  0  2  0  0  0  0  0  0
  198.2450  175.0030  141.3140 O   0  0  0  0  0  0  0  0  0  0  0  0
  1 19  1  0  0  0  0
  2 17  1  1  0  0  0
  2 10  1  0  0  0  0
  2  1  1  0  0  0  0
  3  9  1  0  0  0  0
  4  5  2  0  0  0  0
  5 26  1  0  0  0  0
  6 23  1  0  0  0  0
  7  8  1  0  0  0  0
  8  5  1  0  0  0  0
  9 13  1  0  0  0  0
  9 12  1  1  0  0  0
 10 20  1  1  0  0  0
 11 21  1  0  0  0  0
 11 16  1  0  0  0  0
 13 17  1  1  0  0  0
 14  6  2  0  0  0  0
 15  7  1  1  0  0  0
 15 10  1  0  0  0  0
 16  7  2  0  0  0  0
 18  6  1  0  0  0  0
 18  3  2  0  0  0  0
 20 19  1  0  0  0  0
 21 24  1  6  0  0  0
 21 15  1  0  0  0  0
 23 22  1  0  0  0  0
 23 13  1  0  0  0  0
 24 22  1  0  0  0  0
 25 28  1  0  0  0  0
 26 25  2  0  0  0  0
 28 27  1  1  0  0  0
 28 30  1  0  0  0  0
 30 32  1  0  0  0  0
 30 29  2  0  0  0  0
 31 32  1  0  0  0  0
 32 33  1  0  0  0  0
 34  3  1  0  0  0  0
 34 35  1  0  0  0  0
 35 36  2  0  0  0  0
 36 37  1  0  0  0  0
 37 41  1  0  0  0  0
 38 37  2  0  0  0  0
 39 42  2  0  0  0  0
 40 39  1  0  0  0  0
 41 39  1  0  0  0  0
M  END
>  <MODEL>
1

>  <REMARK>
 VINA RESULT:      -8.1      0.000      0.000
  Name = 
  8 active torsions:
  status: ('A' for Active; 'I' for Inactive)
    1  A    between atoms: C_3  and  C_13
    2  A    between atoms: C_6  and  C_25
    3  A    between atoms: C_8  and  N_33
    4  A    between atoms: C_11  and  C_14
    5  A    between atoms: C_11  and  C_25
    6  A    between atoms: C_13  and  C_15
    7  A    between atoms: N_20  and  C_21
    8  A    between atoms: C_21  and  N_24
                            x       y       z     vdW  Elec       q    Type
                         _______ _______ _______ _____ _____    ______ ____

>  <TORSDO>
F 8

$$$$
=
 OpenBabel10222418503D

 42 45  0  0  1  0  0  0  0  0999 V2000
  189.7910  178.4370  138.6150 C   0  0  0  0  0  2  0  0  0  0  0  0
  189.7090  177.2440  137.6790 C   0  0  2  0  0  3  0  0  0  0  0  0
  193.8200  175.2530  135.9330 C   0  0  0  0  0  0  0  0  0  0  0  0
  183.3250  175.6740  136.7140 O   0  0  0  0  0  0  0  0  0  0  0  0
  183.8560  176.0030  137.8080 C   0  0  0  0  0  0  0  0  0  0  0  0
  191.9350  173.9370  135.2880 C   0  0  0  0  0  0  0  0  0  0  0  0
  186.2130  175.8730  136.8530 C   0  0  0  0  0  0  0  0  0  0  0  0
  185.2780  176.1110  137.9140 N   0  0  0  0  0  2  0  0  0  0  0  0
  193.0630  175.7400  137.1530 C   0  0  1  0  0  3  0  0  0  0  0  0
  188.3320  176.7110  137.8870 C   0  0  2  0  0  3  0  0  0  0  0  0
  186.9990  175.4500  134.8400 N   0  0  0  0  0  2  0  0  0  0  0  0
  193.5430  176.9840  137.5710 O   0  0  0  0  0  1  0  0  0  0  0  0
  191.5680  175.8350  136.8440 C   0  0  2  0  0  3  0  0  0  0  0  0
  191.5070  172.9780  134.5940 O   0  0  0  0  0  0  0  0  0  0  0  0
  187.6670  175.9860  136.9680 C   0  0  2  0  0  3  0  0  0  0  0  0
  185.8630  175.5970  135.6450 N   0  0  0  0  0  0  0  0  0  0  0  0
  190.7720  176.2370  138.0800 C   0  0  0  0  0  2  0  0  0  0  0  0
  193.2800  174.3940  135.1170 N   0  0  0  0  0  0  0  0  0  0  0  0
  188.7280  178.2240  139.6830 C   0  0  0  0  0  2  0  0  0  0  0  0
  187.6680  177.3350  139.0630 C   0  0  0  0  0  2  0  0  0  0  0  0
  188.2110  175.5120  135.6490 C   0  0  1  0  0  3  0  0  0  0  0  0
  189.8840  173.9120  136.7380 C   0  0  0  0  0  2  0  0  0  0  0  0
  191.0910  174.5770  136.2560 N   0  0  0  0  0  0  0  0  0  0  0  0
  188.7410  174.0790  135.7510 C   0  0  0  0  0  2  0  0  0  0  0  0
  183.1380  177.3530  139.7570 C   0  0  0  0  0  3  0  0  0  0  0  0
  183.0570  176.3270  138.9550 N   0  0  0  0  0  0  0  0  0  0  0  0
  183.5290  179.7120  138.9020 C   0  0  0  0  0  1  0  0  0  0  0  0
  184.0850  178.5140  139.6510 C   0  0  1  0  0  3  0  0  0  0  0  0
  185.6790  179.6930  140.9570 O   0  0  0  0  0  0  0  0  0  0  0  0
  184.7980  178.8470  140.9310 C   0  0  0  0  0  0  0  0  0  0  0  0
  183.4280  178.9500  142.9920 C   0  0  0  0  0  1  0  0  0  0  0  0
  184.4090  178.1230  142.1840 C   0  0  0  0  0  3  0  0  0  0  0  0
  185.6300  177.8030  143.0250 C   0  0  0  0  0  1  0  0  0  0  0  0
  195.2180  175.7150  135.6710 C   0  0  0  0  0  2  0  0  0  0  0  0
  196.1920  174.9290  136.4830 C   0  0  0  0  0  3  0  0  0  0  0  0
  197.2440  175.5010  136.9740 N   0  0  0  0  0  0  0  0  0  0  0  0
  198.2050  174.7940  137.7580 C   0  0  0  0  0  0  0  0  0  0  0  0
  198.9430  173.4950  137.0850 S   0  0  0  0  0  0  0  0  0  0  0  0
  197.3590  175.2860  140.1400 C   0  0  0  0  0  0  0  0  0  0  0  0
  196.0210  174.8630  139.9000 N   0  0  0  0  0  1  0  0  0  0  0  0
  198.3830  175.1250  139.1470 N   0  0  0  0  0  2  0  0  0  0  0  0
  197.6580  175.7790  141.2570 O   0  0  0  0  0  0  0  0  0  0  0  0
  1 19  1  0  0  0  0
  2 10  1  0  0  0  0
  2 17  1  1  0  0  0
  2  1  1  0  0  0  0
  3  9  1  0  0  0  0
  4  5  2  0  0  0  0
  5  8  1  0  0  0  0
  5 26  1  0  0  0  0
  6 23  1  0  0  0  0
  7  8  1  0  0  0  0
  9 12  1  6  0  0  0
 10 20  1  6  0  0  0
 11 16  1  0  0  0  0
 11 21  1  0  0  0  0
 13  9  1  0  0  0  0
 13 17  1  1  0  0  0
 14  6  2  0  0  0  0
 15  7  1  6  0  0  0
 15 10  1  0  0  0  0
 16  7  2  0  0  0  0
 18  6  1  0  0  0  0
 18  3  2  0  0  0  0
 20 19  1  0  0  0  0
 21 24  1  1  0  0  0
 21 15  1  0  0  0  0
 23 22  1  0  0  0  0
 23 13  1  0  0  0  0
 24 22  1  0  0  0  0
 26 25  2  0  0  0  0
 28 27  1  1  0  0  0
 28 25  1  0  0  0  0
 28 30  1  0  0  0  0
 30 29  2  0  0  0  0
 30 32  1  0  0  0  0
 32 31  1  0  0  0  0
 32 33  1  0  0  0  0
 34  3  1  0  0  0  0
 34 35  1  0  0  0  0
 35 36  2  0  0  0  0
 36 37  1  0  0  0  0
 37 41  1  0  0  0  0
 38 37  2  0  0  0  0
 39 42  2  0  0  0  0
 40 39  1  0  0  0  0
 41 39  1  0  0  0  0
M  END
>  <MODEL>
2

>  <REMARK>
 VINA RESULT:      -7.8      2.403      3.581
  Name = 
  8 active torsions:
  status: ('A' for Active; 'I' for Inactive)
    1  A    between atoms: C_3  and  C_13
    2  A    between atoms: C_6  and  C_25
    3  A    between atoms: C_8  and  N_33
    4  A    between atoms: C_11  and  C_14
    5  A    between atoms: C_11  and  C_25
    6  A    between atoms: C_13  and  C_15
    7  A    between atoms: N_20  and  C_21
    8  A    between atoms: C_21  and  N_24
                            x       y       z     vdW  Elec       q    Type
                         _______ _______ _______ _____ _____    ______ ____

>  <TORSDO>
F 8

$$$$
=
 OpenBabel10222418503D

 42 45  0  0  1  0  0  0  0  0999 V2000
  190.5690  178.0030  141.3080 C   0  0  0  0  0  2  0  0  0  0  0  0
  190.0530  177.7520  139.9030 C   0  0  2  0  0  3  0  0  0  0  0  0
  193.1340  176.2190  136.4300 C   0  0  0  0  0  0  0  0  0  0  0  0
  183.5410  179.0660  139.7160 O   0  0  0  0  0  0  0  0  0  0  0  0
  184.1560  178.4650  140.6370 C   0  0  0  0  0  0  0  0  0  0  0  0
  190.8970  176.2170  135.5970 C   0  0  0  0  0  0  0  0  0  0  0  0
  186.2980  178.2890  139.2710 C   0  0  0  0  0  0  0  0  0  0  0  0
  185.5160  178.0650  140.4520 N   0  0  0  0  0  2  0  0  0  0  0  0
  192.6110  176.0250  137.8390 C   0  0  1  0  0  3  0  0  0  0  0  0
  188.5760  177.6340  140.0730 C   0  0  2  0  0  3  0  0  0  0  0  0
  186.8730  179.0180  137.2740 N   0  0  0  0  0  2  0  0  0  0  0  0
  193.5180  176.5230  138.7780 O   0  0  0  0  0  1  0  0  0  0  0  0
  191.2580  176.7200  138.0000 C   0  0  2  0  0  3  0  0  0  0  0  0
  190.1440  176.0820  134.5970 O   0  0  0  0  0  0  0  0  0  0  0  0
  187.6900  177.8780  139.0890 C   0  0  2  0  0  3  0  0  0  0  0  0
  185.8710  178.9480  138.2500 N   0  0  0  0  0  0  0  0  0  0  0  0
  190.6660  176.4650  139.3820 C   0  0  0  0  0  2  0  0  0  0  0  0
  192.3160  176.2660  135.4190 N   0  0  0  0  0  0  0  0  0  0  0  0
  189.5030  177.4860  142.2620 C   0  0  0  0  0  2  0  0  0  0  0  0
  188.1890  177.5390  141.5070 C   0  0  0  0  0  2  0  0  0  0  0  0
  188.0210  178.2050  137.6590 C   0  0  1  0  0  3  0  0  0  0  0  0
  188.9810  175.8820  137.1870 C   0  0  0  0  0  2  0  0  0  0  0  0
  190.3490  176.3160  136.9190 N   0  0  0  0  0  0  0  0  0  0  0  0
  187.9820  176.9510  136.7810 C   0  0  0  0  0  2  0  0  0  0  0  0
  184.0260  178.3250  143.1070 C   0  0  0  0  0  3  0  0  0  0  0  0
  183.5330  178.2100  141.9040 N   0  0  0  0  0  0  0  0  0  0  0  0
  185.4850  180.3110  143.7190 C   0  0  0  0  0  1  0  0  0  0  0  0
  185.3960  178.8140  143.4820 C   0  0  1  0  0  3  0  0  0  0  0  0
  186.4950  176.8510  144.2390 O   0  0  0  0  0  0  0  0  0  0  0  0
  186.0910  177.9700  144.5130 C   0  0  0  0  0  0  0  0  0  0  0  0
  187.4520  177.8470  146.5790 C   0  0  0  0  0  1  0  0  0  0  0  0
  186.2840  178.5270  145.8900 C   0  0  0  0  0  3  0  0  0  0  0  0
  185.0260  178.3610  146.7220 C   0  0  0  0  0  1  0  0  0  0  0  0
  194.6040  176.3140  136.1710 C   0  0  0  0  0  2  0  0  0  0  0  0
  195.2740  175.0130  136.4630 C   0  0  0  0  0  3  0  0  0  0  0  0
  196.5550  174.9640  136.6410 N   0  0  0  0  0  0  0  0  0  0  0  0
  197.2440  173.7450  136.9240 C   0  0  0  0  0  0  0  0  0  0  0  0
  198.7160  173.8410  137.6380 S   0  0  0  0  0  0  0  0  0  0  0  0
  195.9980  171.5070  137.1860 C   0  0  0  0  0  0  0  0  0  0  0  0
  195.4750  171.7920  138.4800 N   0  0  0  0  0  1  0  0  0  0  0  0
  196.7220  172.4950  136.4390 N   0  0  0  0  0  2  0  0  0  0  0  0
  195.7920  170.3770  136.6740 O   0  0  0  0  0  0  0  0  0  0  0  0
  1 19  1  0  0  0  0
  2 17  1  1  0  0  0
  2 10  1  0  0  0  0
  2  1  1  0  0  0  0
  3  9  1  0  0  0  0
  4  5  2  0  0  0  0
  5 26  1  0  0  0  0
  6 23  1  0  0  0  0
  7  8  1  0  0  0  0
  8  5  1  0  0  0  0
  9 13  1  0  0  0  0
  9 12  1  1  0  0  0
 10 20  1  1  0  0  0
 11 21  1  0  0  0  0
 11 16  1  0  0  0  0
 13 17  1  1  0  0  0
 14  6  2  0  0  0  0
 15  7  1  1  0  0  0
 15 10  1  0  0  0  0
 16  7  2  0  0  0  0
 18  6  1  0  0  0  0
 18  3  2  0  0  0  0
 20 19  1  0  0  0  0
 21 24  1  6  0  0  0
 21 15  1  0  0  0  0
 23 22  1  0  0  0  0
 23 13  1  0  0  0  0
 24 22  1  0  0  0  0
 25 28  1  0  0  0  0
 26 25  2  0  0  0  0
 28 27  1  1  0  0  0
 28 30  1  0  0  0  0
 29 30  2  0  0  0  0
 30 32  1  0  0  0  0
 32 31  1  0  0  0  0
 32 33  1  0  0  0  0
 34  3  1  0  0  0  0
 34 35  1  0  0  0  0
 35 36  2  0  0  0  0
 36 37  1  0  0  0  0
 37 38  2  0  0  0  0
 39 40  1  0  0  0  0
 41 37  1  0  0  0  0
 41 39  1  0  0  0  0
 42 39  2  0  0  0  0
M  END
>  <MODEL>
3

>  <REMARK>
 VINA RESULT:      -7.8      1.929      2.175
  Name = 
  8 active torsions:
  status: ('A' for Active; 'I' for Inactive)
    1  A    between atoms: C_3  and  C_13
    2  A    between atoms: C_6  and  C_25
    3  A    between atoms: C_8  and  N_33
    4  A    between atoms: C_11  and  C_14
    5  A    between atoms: C_11  and  C_25
    6  A    between atoms: C_13  and  C_15
    7  A    between atoms: N_20  and  C_21
    8  A    between atoms: C_21  and  N_24
                            x       y       z     vdW  Elec       q    Type
                         _______ _______ _______ _____ _____    ______ ____

>  <TORSDO>
F 8

$$$$
=
 OpenBabel10222418503D

 42 45  0  0  1  0  0  0  0  0999 V2000
  190.3770  176.9690  141.7050 C   0  0  0  0  0  2  0  0  0  0  0  0
  189.3620  177.0540  140.5790 C   0  0  2  0  0  3  0  0  0  0  0  0
  184.8480  178.6860  141.5070 C   0  0  0  0  0  0  0  0  0  0  0  0
  192.1950  174.9600  134.9440 O   0  0  0  0  0  0  0  0  0  0  0  0
  192.7250  175.6960  135.8180 C   0  0  0  0  0  0  0  0  0  0  0  0
  185.1330  178.3600  139.1590 C   0  0  0  0  0  0  0  0  0  0  0  0
  190.5280  176.0270  137.0610 C   0  0  0  0  0  0  0  0  0  0  0  0
  191.9330  176.2410  136.8770 N   0  0  0  0  0  2  0  0  0  0  0  0
  186.3380  178.9190  141.6560 C   0  0  1  0  0  3  0  0  0  0  0  0
  190.1900  177.0060  139.3390 C   0  0  2  0  0  3  0  0  0  0  0  0
  188.4970  175.2280  136.7660 N   0  0  0  0  0  2  0  0  0  0  0  0
  186.7620  178.6020  142.9500 O   0  0  0  0  0  1  0  0  0  0  0  0
  187.1090  178.0810  140.6350 C   0  0  2  0  0  3  0  0  0  0  0  0
  184.5880  178.3310  138.0240 O   0  0  0  0  0  0  0  0  0  0  0  0
  189.7240  176.5870  138.1480 C   0  0  2  0  0  3  0  0  0  0  0  0
  189.8230  175.2490  136.3150 N   0  0  0  0  0  0  0  0  0  0  0  0
  188.6050  178.3630  140.7040 C   0  0  0  0  0  2  0  0  0  0  0  0
  184.3250  178.4680  140.3340 N   0  0  0  0  0  0  0  0  0  0  0  0
  191.7090  177.4230  141.1260 C   0  0  0  0  0  2  0  0  0  0  0  0
  191.6400  177.1590  139.6350 C   0  0  0  0  0  2  0  0  0  0  0  0
  188.3050  176.1980  137.8370 C   0  0  1  0  0  3  0  0  0  0  0  0
  187.4210  178.5790  138.1450 C   0  0  0  0  0  2  0  0  0  0  0  0
  186.5600  178.2930  139.2890 N   0  0  0  0  0  0  0  0  0  0  0  0
  187.5290  177.3710  137.2310 C   0  0  0  0  0  2  0  0  0  0  0  0
  195.1230  175.2260  136.2280 C   0  0  0  0  0  3  0  0  0  0  0  0
  194.1340  175.9670  135.8070 N   0  0  0  0  0  0  0  0  0  0  0  0
  195.2400  172.7270  135.7940 C   0  0  0  0  0  1  0  0  0  0  0  0
  195.0360  173.8410  136.8050 C   0  0  1  0  0  3  0  0  0  0  0  0
  195.4050  172.8550  138.9330 O   0  0  0  0  0  0  0  0  0  0  0  0
  195.7810  173.6640  138.0980 C   0  0  0  0  0  0  0  0  0  0  0  0
  198.2300  173.8270  137.7640 C   0  0  0  0  0  1  0  0  0  0  0  0
  197.0010  174.4960  138.3480 C   0  0  0  0  0  3  0  0  0  0  0  0
  197.1980  174.7320  139.8340 C   0  0  0  0  0  1  0  0  0  0  0  0
  183.9440  178.7490  142.6970 C   0  0  0  0  0  2  0  0  0  0  0  0
  182.5140  178.7360  142.2720 C   0  0  0  0  0  3  0  0  0  0  0  0
  181.5970  179.2030  143.0560 N   0  0  0  0  0  0  0  0  0  0  0  0
  180.2140  179.2150  142.6970 C   0  0  0  0  0  0  0  0  0  0  0  0
  179.1060  179.2690  143.9030 S   0  0  0  0  0  0  0  0  0  0  0  0
  179.4790  177.7770  140.6920 C   0  0  0  0  0  0  0  0  0  0  0  0
  179.2240  176.6010  141.4520 N   0  0  0  0  0  1  0  0  0  0  0  0
  179.8260  179.0170  141.3250 N   0  0  0  0  0  2  0  0  0  0  0  0
  179.3660  177.7380  139.4400 O   0  0  0  0  0  0  0  0  0  0  0  0
  2 17  1  1  0  0  0
  2  1  1  0  0  0  0
  3  9  1  0  0  0  0
  3 34  1  0  0  0  0
  4  5  2  0  0  0  0
  5  8  1  0  0  0  0
  6 23  1  0  0  0  0
  6 18  1  0  0  0  0
  8  7  1  0  0  0  0
  9 12  1  1  0  0  0
 10 20  1  1  0  0  0
 10  2  1  0  0  0  0
 11 21  1  0  0  0  0
 13 17  1  6  0  0  0
 13  9  1  0  0  0  0
 14  6  2  0  0  0  0
 15  7  1  1  0  0  0
 15 10  1  0  0  0  0
 16 11  1  0  0  0  0
 16  7  2  0  0  0  0
 18  3  2  0  0  0  0
 19  1  1  0  0  0  0
 20 19  1  0  0  0  0
 21 24  1  6  0  0  0
 21 15  1  0  0  0  0
 22 23  1  0  0  0  0
 23 13  1  0  0  0  0
 24 22  1  0  0  0  0
 25 28  1  0  0  0  0
 26  5  1  0  0  0  0
 26 25  2  0  0  0  0
 28 27  1  6  0  0  0
 28 30  1  0  0  0  0
 30 32  1  0  0  0  0
 30 29  2  0  0  0  0
 31 32  1  0  0  0  0
 32 33  1  0  0  0  0
 35 34  1  0  0  0  0
 35 36  2  0  0  0  0
 37 36  1  0  0  0  0
 37 38  2  0  0  0  0
 39 41  1  0  0  0  0
 39 40  1  0  0  0  0
 41 37  1  0  0  0  0
 42 39  2  0  0  0  0
M  END
>  <MODEL>
4

>  <REMARK>
 VINA RESULT:      -7.6      3.823     11.124
  Name = 
  8 active torsions:
  status: ('A' for Active; 'I' for Inactive)
    1  A    between atoms: C_3  and  C_13
    2  A    between atoms: C_6  and  C_25
    3  A    between atoms: C_8  and  N_33
    4  A    between atoms: C_11  and  C_14
    5  A    between atoms: C_11  and  C_25
    6  A    between atoms: C_13  and  C_15
    7  A    between atoms: N_20  and  C_21
    8  A    between atoms: C_21  and  N_24
                            x       y       z     vdW  Elec       q    Type
                         _______ _______ _______ _____ _____    ______ ____

>  <TORSDO>
F 8

$$$$
=
 OpenBabel10222418503D

 42 45  0  0  1  0  0  0  0  0999 V2000
  190.6570  177.0060  142.0340 C   0  0  0  0  0  2  0  0  0  0  0  0
  189.8090  177.0480  140.7750 C   0  0  2  0  0  3  0  0  0  0  0  0
  185.2120  178.6960  141.0080 C   0  0  0  0  0  0  0  0  0  0  0  0
  193.3950  174.7680  135.6660 O   0  0  0  0  0  0  0  0  0  0  0  0
  193.8000  175.5360  136.5790 C   0  0  0  0  0  0  0  0  0  0  0  0
  185.8210  178.2890  138.7350 C   0  0  0  0  0  0  0  0  0  0  0  0
  191.4510  175.9020  137.4920 C   0  0  0  0  0  0  0  0  0  0  0  0
  192.8690  176.1150  137.4970 N   0  0  0  0  0  2  0  0  0  0  0  0
  186.6670  178.9390  141.3550 C   0  0  1  0  0  3  0  0  0  0  0  0
  190.8010  176.9600  139.6650 C   0  0  2  0  0  3  0  0  0  0  0  0
  189.4800  175.0870  136.9450 N   0  0  0  0  0  2  0  0  0  0  0  0
  186.9060  178.6690  142.7050 O   0  0  0  0  0  1  0  0  0  0  0  0
  187.5710  178.0680  140.4800 C   0  0  2  0  0  3  0  0  0  0  0  0
  185.4390  178.2190  137.5370 O   0  0  0  0  0  0  0  0  0  0  0  0
  190.5040  176.4970  138.4360 C   0  0  2  0  0  3  0  0  0  0  0  0
  190.8550  175.0960  136.6830 N   0  0  0  0  0  0  0  0  0  0  0  0
  189.0430  178.3580  140.7470 C   0  0  0  0  0  2  0  0  0  0  0  0
  184.8570  178.4360  139.7820 N   0  0  0  0  0  0  0  0  0  0  0  0
  192.0570  177.4430  141.6300 C   0  0  0  0  0  2  0  0  0  0  0  0
  192.1960  177.1270  140.1540 C   0  0  0  0  0  2  0  0  0  0  0  0
  189.1420  176.0930  137.9440 C   0  0  1  0  0  3  0  0  0  0  0  0
  188.2280  178.4810  138.0430 C   0  0  0  0  0  2  0  0  0  0  0  0
  187.2160  178.2320  139.0650 N   0  0  0  0  0  0  0  0  0  0  0  0
  188.4600  177.2410  137.1950 C   0  0  0  0  0  2  0  0  0  0  0  0
  196.2040  174.9820  136.8030 C   0  0  0  0  0  3  0  0  0  0  0  0
  195.1970  175.8100  136.7550 N   0  0  0  0  0  0  0  0  0  0  0  0
  197.3920  172.8960  135.9750 C   0  0  0  0  0  1  0  0  0  0  0  0
  196.1590  173.4900  136.6320 C   0  0  1  0  0  3  0  0  0  0  0  0
  195.7680  173.2300  138.9600 O   0  0  0  0  0  0  0  0  0  0  0  0
  195.6690  172.7460  137.8420 C   0  0  0  0  0  0  0  0  0  0  0  0
  196.1270  170.3360  137.5000 C   0  0  0  0  0  1  0  0  0  0  0  0
  195.0520  171.3940  137.6570 C   0  0  0  0  0  3  0  0  0  0  0  0
  194.1330  171.3790  136.4500 C   0  0  0  0  0  1  0  0  0  0  0  0
  184.1520  178.7980  142.0580 C   0  0  0  0  0  2  0  0  0  0  0  0
  182.8030  178.5530  141.4680 C   0  0  0  0  0  3  0  0  0  0  0  0
  181.7360  178.8910  142.1170 N   0  0  0  0  0  0  0  0  0  0  0  0
  180.4230  178.6800  141.5970 C   0  0  0  0  0  0  0  0  0  0  0  0
  179.6430  179.9580  140.9290 S   0  0  0  0  0  0  0  0  0  0  0  0
  179.7420  176.2860  140.9350 C   0  0  0  0  0  0  0  0  0  0  0  0
  180.6340  176.1900  139.8290 N   0  0  0  0  0  1  0  0  0  0  0  0
  179.7580  177.4220  141.8120 N   0  0  0  0  0  2  0  0  0  0  0  0
  178.9470  175.3400  141.1680 O   0  0  0  0  0  0  0  0  0  0  0  0
  2 17  1  6  0  0  0
  2  1  1  0  0  0  0
  3  9  1  0  0  0  0
  3 34  1  0  0  0  0
  4  5  2  0  0  0  0
  5 26  1  0  0  0  0
  5  8  1  0  0  0  0
  6 23  1  0  0  0  0
  6 18  1  0  0  0  0
  7  8  1  0  0  0  0
  9 12  1  1  0  0  0
 10 20  1  1  0  0  0
 10  2  1  0  0  0  0
 11 21  1  0  0  0  0
 13 17  1  6  0  0  0
 13  9  1  0  0  0  0
 14  6  2  0  0  0  0
 15  7  1  1  0  0  0
 15 10  1  0  0  0  0
 16 11  1  0  0  0  0
 16  7  2  0  0  0  0
 18  3  2  0  0  0  0
 19  1  1  0  0  0  0
 20 19  1  0  0  0  0
 21 24  1  6  0  0  0
 21 15  1  0  0  0  0
 22 23  1  0  0  0  0
 23 13  1  0  0  0  0
 24 22  1  0  0  0  0
 26 25  2  0  0  0  0
 28 27  1  1  0  0  0
 28 25  1  0  0  0  0
 28 30  1  0  0  0  0
 30 29  2  0  0  0  0
 31 32  1  0  0  0  0
 32 30  1  0  0  0  0
 33 32  1  0  0  0  0
 35 34  1  0  0  0  0
 35 36  2  0  0  0  0
 37 41  1  0  0  0  0
 37 36  1  0  0  0  0
 38 37  2  0  0  0  0
 39 42  2  0  0  0  0
 39 41  1  0  0  0  0
 40 39  1  0  0  0  0
M  END
>  <MODEL>
5

>  <REMARK>
 VINA RESULT:      -7.4      3.773     11.154
  Name = 
  8 active torsions:
  status: ('A' for Active; 'I' for Inactive)
    1  A    between atoms: C_3  and  C_13
    2  A    between atoms: C_6  and  C_25
    3  A    between atoms: C_8  and  N_33
    4  A    between atoms: C_11  and  C_14
    5  A    between atoms: C_11  and  C_25
    6  A    between atoms: C_13  and  C_15
    7  A    between atoms: N_20  and  C_21
    8  A    between atoms: C_21  and  N_24
                            x       y       z     vdW  Elec       q    Type
                         _______ _______ _______ _____ _____    ______ ____

>  <TORSDO>
F 8

$$$$
=
 OpenBabel10222418503D

 42 45  0  0  1  0  0  0  0  0999 V2000
  190.8150  176.9280  141.4650 C   0  0  0  0  0  2  0  0  0  0  0  0
  189.9890  176.9540  140.1920 C   0  0  2  0  0  3  0  0  0  0  0  0
  185.3540  178.5050  140.3450 C   0  0  0  0  0  0  0  0  0  0  0  0
  193.7110  174.7580  135.1440 O   0  0  0  0  0  0  0  0  0  0  0  0
  194.0840  175.5330  136.0650 C   0  0  0  0  0  0  0  0  0  0  0  0
  186.0120  178.1150  138.0830 C   0  0  0  0  0  0  0  0  0  0  0  0
  191.7120  175.8480  136.9370 C   0  0  0  0  0  0  0  0  0  0  0  0
  193.1250  176.0910  136.9680 N   0  0  0  0  0  2  0  0  0  0  0  0
  186.7980  178.7780  140.7180 C   0  0  1  0  0  3  0  0  0  0  0  0
  191.0010  176.8890  139.0990 C   0  0  2  0  0  3  0  0  0  0  0  0
  189.7690  174.9930  136.3540 N   0  0  0  0  0  2  0  0  0  0  0  0
  187.0190  178.5110  142.0720 O   0  0  0  0  0  1  0  0  0  0  0  0
  187.7350  177.9280  139.8590 C   0  0  2  0  0  3  0  0  0  0  0  0
  185.6530  178.0380  136.8780 O   0  0  0  0  0  0  0  0  0  0  0  0
  190.7370  176.4220  137.8640 C   0  0  2  0  0  3  0  0  0  0  0  0
  191.1480  175.0310  136.1170 N   0  0  0  0  0  0  0  0  0  0  0  0
  189.1960  178.2480  140.1520 C   0  0  0  0  0  2  0  0  0  0  0  0
  185.0260  178.2390  139.1130 N   0  0  0  0  0  0  0  0  0  0  0  0
  192.2120  177.3960  141.0860 C   0  0  0  0  0  2  0  0  0  0  0  0
  192.3840  177.0850  139.6130 C   0  0  0  0  0  2  0  0  0  0  0  0
  189.3920  175.9900  137.3490 C   0  0  1  0  0  3  0  0  0  0  0  0
  188.4260  178.3570  137.4330 C   0  0  0  0  0  2  0  0  0  0  0  0
  187.4020  178.0860  138.4370 N   0  0  0  0  0  0  0  0  0  0  0  0
  188.6990  177.1250  136.5880 C   0  0  0  0  0  2  0  0  0  0  0  0
  196.4740  175.0280  136.4740 C   0  0  0  0  0  3  0  0  0  0  0  0
  195.4710  175.8370  136.2660 N   0  0  0  0  0  0  0  0  0  0  0  0
  197.6790  172.8540  135.9520 C   0  0  0  0  0  1  0  0  0  0  0  0
  196.4360  173.5270  136.5080 C   0  0  1  0  0  3  0  0  0  0  0  0
  196.2380  173.4550  138.8730 O   0  0  0  0  0  0  0  0  0  0  0  0
  195.9330  172.9520  137.8020 C   0  0  0  0  0  0  0  0  0  0  0  0
  195.8670  170.4770  137.8850 C   0  0  0  0  0  1  0  0  0  0  0  0
  195.0450  171.7460  137.7600 C   0  0  0  0  0  3  0  0  0  0  0  0
  194.2380  171.7130  136.4760 C   0  0  0  0  0  1  0  0  0  0  0  0
  184.2740  178.5830  141.3760 C   0  0  0  0  0  2  0  0  0  0  0  0
  182.9630  178.9060  140.7400 C   0  0  0  0  0  3  0  0  0  0  0  0
  181.8980  178.2490  141.0700 N   0  0  0  0  0  0  0  0  0  0  0  0
  180.6200  178.5200  140.4930 C   0  0  0  0  0  0  0  0  0  0  0  0
  179.5980  177.2600  140.2600 S   0  0  0  0  0  0  0  0  0  0  0  0
  179.7130  180.9210  140.6930 C   0  0  0  0  0  0  0  0  0  0  0  0
  179.5640  180.8940  142.1080 N   0  0  0  0  0  1  0  0  0  0  0  0
  180.3250  179.8330  139.9840 N   0  0  0  0  0  2  0  0  0  0  0  0
  179.3320  181.9340  140.0520 O   0  0  0  0  0  0  0  0  0  0  0  0
  2 17  1  6  0  0  0
  2  1  1  0  0  0  0
  3  9  1  0  0  0  0
  3 34  1  0  0  0  0
  4  5  2  0  0  0  0
  5 26  1  0  0  0  0
  5  8  1  0  0  0  0
  6 23  1  0  0  0  0
  6 18  1  0  0  0  0
  7  8  1  0  0  0  0
  9 12  1  1  0  0  0
 10 20  1  1  0  0  0
 10  2  1  0  0  0  0
 11 21  1  0  0  0  0
 13 17  1  6  0  0  0
 13  9  1  0  0  0  0
 14  6  2  0  0  0  0
 15  7  1  1  0  0  0
 15 10  1  0  0  0  0
 16 11  1  0  0  0  0
 16  7  2  0  0  0  0
 18  3  2  0  0  0  0
 19  1  1  0  0  0  0
 20 19  1  0  0  0  0
 21 24  1  6  0  0  0
 21 15  1  0  0  0  0
 22 23  1  0  0  0  0
 23 13  1  0  0  0  0
 24 22  1  0  0  0  0
 25 28  1  0  0  0  0
 26 25  2  0  0  0  0
 28 27  1  1  0  0  0
 28 30  1  0  0  0  0
 30 29  2  0  0  0  0
 32 30  1  0  0  0  0
 32 31  1  0  0  0  0
 33 32  1  0  0  0  0
 35 36  2  0  0  0  0
 35 34  1  0  0  0  0
 37 36  1  0  0  0  0
 38 37  2  0  0  0  0
 39 40  1  0  0  0  0
 41 37  1  0  0  0  0
 41 39  1  0  0  0  0
 42 39  2  0  0  0  0
M  END
>  <MODEL>
6

>  <REMARK>
 VINA RESULT:      -7.4      3.810     11.276
  Name = 
  8 active torsions:
  status: ('A' for Active; 'I' for Inactive)
    1  A    between atoms: C_3  and  C_13
    2  A    between atoms: C_6  and  C_25
    3  A    between atoms: C_8  and  N_33
    4  A    between atoms: C_11  and  C_14
    5  A    between atoms: C_11  and  C_25
    6  A    between atoms: C_13  and  C_15
    7  A    between atoms: N_20  and  C_21
    8  A    between atoms: C_21  and  N_24
                            x       y       z     vdW  Elec       q    Type
                         _______ _______ _______ _____ _____    ______ ____

>  <TORSDO>
F 8

$$$$
=
 OpenBabel10222418503D

 42 45  0  0  1  0  0  0  0  0999 V2000
  185.9140  177.6070  138.2930 C   0  0  0  0  0  2  0  0  0  0  0  0
  186.9280  177.6050  139.4220 C   0  0  2  0  0  3  0  0  0  0  0  0
  191.6500  176.8050  138.4340 C   0  0  0  0  0  0  0  0  0  0  0  0
  183.7900  178.7770  145.1620 O   0  0  0  0  0  0  0  0  0  0  0  0
  183.5760  179.3540  144.0620 C   0  0  0  0  0  0  0  0  0  0  0  0
  191.3820  177.3830  140.7350 C   0  0  0  0  0  0  0  0  0  0  0  0
  185.6330  178.3210  142.9720 C   0  0  0  0  0  0  0  0  0  0  0  0
  184.4650  179.1530  142.9600 N   0  0  0  0  0  2  0  0  0  0  0  0
  190.3950  177.5840  138.0920 C   0  0  1  0  0  3  0  0  0  0  0  0
  186.2300  178.3010  140.5410 C   0  0  2  0  0  3  0  0  0  0  0  0
  187.1430  176.8800  143.6720 N   0  0  0  0  0  2  0  0  0  0  0  0
  189.8050  177.0880  136.9260 O   0  0  0  0  0  1  0  0  0  0  0  0
  189.3980  177.5140  139.2510 C   0  0  2  0  0  3  0  0  0  0  0  0
  191.9250  177.4840  141.8670 O   0  0  0  0  0  0  0  0  0  0  0  0
  186.5370  178.1200  141.8400 C   0  0  2  0  0  3  0  0  0  0  0  0
  185.9790  177.5960  143.9780 N   0  0  0  0  0  0  0  0  0  0  0  0
  188.1630  178.3620  138.9700 C   0  0  0  0  0  2  0  0  0  0  0  0
  192.0940  176.7670  139.6570 N   0  0  0  0  0  0  0  0  0  0  0  0
  184.9360  178.7350  138.5890 C   0  0  0  0  0  2  0  0  0  0  0  0
  184.9680  178.9480  140.0900 C   0  0  0  0  0  2  0  0  0  0  0  0
  187.6700  177.2890  142.3760 C   0  0  1  0  0  3  0  0  0  0  0  0
  189.4650  178.8490  141.4320 C   0  0  0  0  0  2  0  0  0  0  0  0
  190.0580  177.8850  140.5090 N   0  0  0  0  0  0  0  0  0  0  0  0
  188.9040  178.1510  142.6590 C   0  0  0  0  0  2  0  0  0  0  0  0
  181.2130  179.8420  143.5030 C   0  0  0  0  0  3  0  0  0  0  0  0
  182.4190  180.1800  143.8670 N   0  0  0  0  0  0  0  0  0  0  0  0
  179.7430  177.9230  144.2810 C   0  0  0  0  0  1  0  0  0  0  0  0
  180.7020  178.4560  143.2310 C   0  0  1  0  0  3  0  0  0  0  0  0
  179.1390  177.8510  141.5490 O   0  0  0  0  0  0  0  0  0  0  0  0
  180.2740  178.2230  141.8100 C   0  0  0  0  0  0  0  0  0  0  0  0
  180.7990  179.5870  139.8100 C   0  0  0  0  0  1  0  0  0  0  0  0
  181.2630  178.4580  140.7100 C   0  0  0  0  0  3  0  0  0  0  0  0
  181.4710  177.1970  139.8920 C   0  0  0  0  0  1  0  0  0  0  0  0
  192.4270  176.1070  137.3640 C   0  0  0  0  0  2  0  0  0  0  0  0
  193.4240  175.1730  137.9640 C   0  0  0  0  0  3  0  0  0  0  0  0
  194.6910  175.3760  137.7980 N   0  0  0  0  0  0  0  0  0  0  0  0
  195.6850  174.5140  138.3520 C   0  0  0  0  0  0  0  0  0  0  0  0
  196.0730  173.1540  137.5230 S   0  0  0  0  0  0  0  0  0  0  0  0
  197.5360  175.1290  140.0330 C   0  0  0  0  0  0  0  0  0  0  0  0
  198.4760  175.5570  139.0530 N   0  0  0  0  0  1  0  0  0  0  0  0
  196.1960  174.7610  139.6740 N   0  0  0  0  0  2  0  0  0  0  0  0
  197.8770  175.1050  141.2430 O   0  0  0  0  0  0  0  0  0  0  0  0
  1 19  1  0  0  0  0
  2  1  1  6  0  0  0
  2 10  1  0  0  0  0
  3 18  2  0  0  0  0
  5  4  2  0  0  0  0
  6 14  2  0  0  0  0
  7 16  2  0  0  0  0
  8  7  1  0  0  0  0
  8  5  1  0  0  0  0
  9 12  1  6  0  0  0
  9  3  1  0  0  0  0
  9 13  1  0  0  0  0
 10 20  1  1  0  0  0
 10 15  1  0  0  0  0
 11 16  1  0  0  0  0
 13 17  1  6  0  0  0
 13 23  1  0  0  0  0
 15 21  1  0  0  0  0
 15  7  1  1  0  0  0
 17  2  1  0  0  0  0
 18  6  1  0  0  0  0
 19 20  1  0  0  0  0
 21 24  1  1  0  0  0
 21 11  1  0  0  0  0
 22 24  1  0  0  0  0
 23  6  1  0  0  0  0
 23 22  1  0  0  0  0
 25 26  2  0  0  0  0
 26  5  1  0  0  0  0
 28 25  1  0  0  0  0
 28 27  1  1  0  0  0
 29 30  2  0  0  0  0
 30 28  1  0  0  0  0
 31 32  1  0  0  0  0
 32 30  1  0  0  0  0
 33 32  1  0  0  0  0
 34 35  1  0  0  0  0
 34  3  1  0  0  0  0
 36 35  2  0  0  0  0
 36 37  1  0  0  0  0
 37 41  1  0  0  0  0
 38 37  2  0  0  0  0
 39 42  2  0  0  0  0
 40 39  1  0  0  0  0
 41 39  1  0  0  0  0
M  END
>  <MODEL>
7

>  <REMARK>
 VINA RESULT:      -7.4      2.135      4.309
  Name = 
  8 active torsions:
  status: ('A' for Active; 'I' for Inactive)
    1  A    between atoms: C_3  and  C_13
    2  A    between atoms: C_6  and  C_25
    3  A    between atoms: C_8  and  N_33
    4  A    between atoms: C_11  and  C_14
    5  A    between atoms: C_11  and  C_25
    6  A    between atoms: C_13  and  C_15
    7  A    between atoms: N_20  and  C_21
    8  A    between atoms: C_21  and  N_24
                            x       y       z     vdW  Elec       q    Type
                         _______ _______ _______ _____ _____    ______ ____

>  <TORSDO>
F 8

$$$$
=
 OpenBabel10222418503D

 42 45  0  0  1  0  0  0  0  0999 V2000
  184.8740  178.0860  141.1120 C   0  0  0  0  0  2  0  0  0  0  0  0
  185.7850  177.8170  139.9280 C   0  0  2  0  0  3  0  0  0  0  0  0
  183.8780  177.4500  135.4400 C   0  0  0  0  0  0  0  0  0  0  0  0
  192.0550  177.3370  142.0780 O   0  0  0  0  0  0  0  0  0  0  0  0
  191.1970  178.1770  142.4590 C   0  0  0  0  0  0  0  0  0  0  0  0
  186.2620  177.3910  135.3230 C   0  0  0  0  0  0  0  0  0  0  0  0
  189.5570  177.5320  140.6210 C   0  0  0  0  0  0  0  0  0  0  0  0
  189.9540  178.3010  141.7640 N   0  0  0  0  0  2  0  0  0  0  0  0
  183.9600  178.2520  136.7240 C   0  0  1  0  0  3  0  0  0  0  0  0
  187.1450  178.1710  140.4260 C   0  0  2  0  0  3  0  0  0  0  0  0
  189.5990  176.0030  139.0370 N   0  0  0  0  0  2  0  0  0  0  0  0
  182.8140  178.0640  137.5010 O   0  0  0  0  0  1  0  0  0  0  0  0
  185.2030  177.8490  137.5200 C   0  0  2  0  0  3  0  0  0  0  0  0
  187.2780  177.2050  134.6030 O   0  0  0  0  0  0  0  0  0  0  0  0
  188.2830  177.6640  139.9150 C   0  0  2  0  0  3  0  0  0  0  0  0
  190.2660  176.5770  140.1260 N   0  0  0  0  0  0  0  0  0  0  0  0
  185.3580  178.7040  138.7730 C   0  0  0  0  0  2  0  0  0  0  0  0
  184.9600  177.1030  134.8040 N   0  0  0  0  0  0  0  0  0  0  0  0
  185.6110  179.0660  142.0130 C   0  0  0  0  0  2  0  0  0  0  0  0
  187.0900  178.8760  141.7350 C   0  0  0  0  0  2  0  0  0  0  0  0
  188.3910  176.7550  138.7210 C   0  0  1  0  0  3  0  0  0  0  0  0
  187.6200  178.5620  137.0820 C   0  0  0  0  0  2  0  0  0  0  0  0
  186.3920  177.8950  136.6600 N   0  0  0  0  0  0  0  0  0  0  0  0
  188.6920  177.5490  137.4460 C   0  0  0  0  0  2  0  0  0  0  0  0
  191.1610  178.7290  144.8740 C   0  0  0  0  0  3  0  0  0  0  0  0
  191.4160  178.9890  143.6210 N   0  0  0  0  0  0  0  0  0  0  0  0
  191.5330  176.7240  146.3880 C   0  0  0  0  0  1  0  0  0  0  0  0
  190.5990  177.4550  145.4390 C   0  0  1  0  0  3  0  0  0  0  0  0
  188.9180  177.6480  147.1030 O   0  0  0  0  0  0  0  0  0  0  0  0
  189.1780  177.5650  145.9130 C   0  0  0  0  0  0  0  0  0  0  0  0
  186.7230  177.5700  145.5810 C   0  0  0  0  0  1  0  0  0  0  0  0
  188.0760  177.5730  144.8970 C   0  0  0  0  0  3  0  0  0  0  0  0
  188.1880  176.3780  143.9690 C   0  0  0  0  0  1  0  0  0  0  0  0
  182.5510  177.0820  134.8570 C   0  0  0  0  0  2  0  0  0  0  0  0
  182.3090  175.6150  134.9860 C   0  0  0  0  0  3  0  0  0  0  0  0
  182.6350  174.9930  136.0730 N   0  0  0  0  0  0  0  0  0  0  0  0
  182.4230  173.5920  136.2480 C   0  0  0  0  0  0  0  0  0  0  0  0
  181.0500  173.1080  137.0020 S   0  0  0  0  0  0  0  0  0  0  0  0
  184.7060  172.4580  136.6170 C   0  0  0  0  0  0  0  0  0  0  0  0
  184.9220  173.0030  137.9140 N   0  0  0  0  0  1  0  0  0  0  0  0
  183.4690  172.6600  135.9170 N   0  0  0  0  0  2  0  0  0  0  0  0
  185.6050  171.7570  136.0860 O   0  0  0  0  0  0  0  0  0  0  0  0
  1 19  1  0  0  0  0
  2 17  1  6  0  0  0
  2 10  1  0  0  0  0
  2  1  1  0  0  0  0
  3  9  1  0  0  0  0
  4  5  2  0  0  0  0
  5 26  1  0  0  0  0
  6 23  1  0  0  0  0
  7  8  1  0  0  0  0
  8  5  1  0  0  0  0
  9 12  1  1  0  0  0
  9 13  1  0  0  0  0
 10 20  1  1  0  0  0
 11 16  1  0  0  0  0
 13 17  1  1  0  0  0
 14  6  2  0  0  0  0
 15 10  1  0  0  0  0
 15  7  1  1  0  0  0
 16  7  2  0  0  0  0
 18  6  1  0  0  0  0
 18  3  2  0  0  0  0
 20 19  1  0  0  0  0
 21 24  1  6  0  0  0
 21 11  1  0  0  0  0
 21 15  1  0  0  0  0
 22 24  1  0  0  0  0
 23 22  1  0  0  0  0
 23 13  1  0  0  0  0
 25 28  1  0  0  0  0
 26 25  2  0  0  0  0
 28 30  1  0  0  0  0
 28 27  1  1  0  0  0
 30 29  2  0  0  0  0
 32 31  1  0  0  0  0
 32 30  1  0  0  0  0
 33 32  1  0  0  0  0
 34 35  1  0  0  0  0
 34  3  1  0  0  0  0
 35 36  2  0  0  0  0
 36 37  1  0  0  0  0
 37 38  2  0  0  0  0
 39 40  1  0  0  0  0
 41 37  1  0  0  0  0
 41 39  1  0  0  0  0
 42 39  2  0  0  0  0
M  END
>  <MODEL>
8

>  <REMARK>
 VINA RESULT:      -7.3      4.351      7.847
  Name = 
  8 active torsions:
  status: ('A' for Active; 'I' for Inactive)
    1  A    between atoms: C_3  and  C_13
    2  A    between atoms: C_6  and  C_25
    3  A    between atoms: C_8  and  N_33
    4  A    between atoms: C_11  and  C_14
    5  A    between atoms: C_11  and  C_25
    6  A    between atoms: C_13  and  C_15
    7  A    between atoms: N_20  and  C_21
    8  A    between atoms: C_21  and  N_24
                            x       y       z     vdW  Elec       q    Type
                         _______ _______ _______ _____ _____    ______ ____

>  <TORSDO>
F 8

$$$$
=
 OpenBabel10222418503D

 42 45  0  0  1  0  0  0  0  0999 V2000
  186.0250  173.5800  136.6930 C   0  0  0  0  0  2  0  0  0  0  0  0
  187.1340  174.5930  136.9150 C   0  0  2  0  0  3  0  0  0  0  0  0
  191.7200  173.4780  135.6370 C   0  0  0  0  0  0  0  0  0  0  0  0
  184.5550  180.0740  139.6470 O   0  0  0  0  0  0  0  0  0  0  0  0
  184.0470  179.3930  138.7180 C   0  0  0  0  0  0  0  0  0  0  0  0
  191.5970  175.7570  136.3360 C   0  0  0  0  0  0  0  0  0  0  0  0
  186.1550  177.9980  138.4110 C   0  0  0  0  0  0  0  0  0  0  0  0
  184.8070  178.3610  138.0840 N   0  0  0  0  0  2  0  0  0  0  0  0
  190.2630  173.5250  135.2240 C   0  0  1  0  0  3  0  0  0  0  0  0
  186.4160  175.8880  137.0900 C   0  0  2  0  0  3  0  0  0  0  0  0
  188.0900  177.9440  139.4610 N   0  0  0  0  0  2  0  0  0  0  0  0
  189.6940  172.2490  135.2620 O   0  0  0  0  0  1  0  0  0  0  0  0
  189.4840  174.4710  136.1410 C   0  0  2  0  0  3  0  0  0  0  0  0
  192.2290  176.8090  136.6210 O   0  0  0  0  0  0  0  0  0  0  0  0
  186.9260  176.9390  137.7590 C   0  0  2  0  0  3  0  0  0  0  0  0
  186.8200  178.5280  139.3780 N   0  0  0  0  0  0  0  0  0  0  0  0
  188.0340  174.6060  135.6930 C   0  0  0  0  0  2  0  0  0  0  0  0
  192.3100  174.5380  136.1110 N   0  0  0  0  0  0  0  0  0  0  0  0
  184.8130  174.3630  136.2080 C   0  0  0  0  0  2  0  0  0  0  0  0
  184.9750  175.7750  136.7350 C   0  0  0  0  0  2  0  0  0  0  0  0
  188.3080  177.0320  138.3450 C   0  0  1  0  0  3  0  0  0  0  0  0
  189.4480  177.0270  136.0550 C   0  0  0  0  0  2  0  0  0  0  0  0
  190.1670  175.7680  136.2260 N   0  0  0  0  0  0  0  0  0  0  0  0
  189.2710  177.7380  137.3860 C   0  0  0  0  0  2  0  0  0  0  0  0
  181.5870  179.1150  138.8150 C   0  0  0  0  0  3  0  0  0  0  0  0
  182.6880  179.5950  138.3050 N   0  0  0  0  0  0  0  0  0  0  0  0
  181.2170  178.9980  141.3250 C   0  0  0  0  0  1  0  0  0  0  0  0
  181.4580  178.2410  140.0300 C   0  0  1  0  0  3  0  0  0  0  0  0
  179.4020  177.0590  140.1470 O   0  0  0  0  0  0  0  0  0  0  0  0
  180.5830  177.0360  139.8330 C   0  0  0  0  0  0  0  0  0  0  0  0
  182.6810  175.7720  139.4680 C   0  0  0  0  0  1  0  0  0  0  0  0
  181.1820  175.7980  139.2400 C   0  0  0  0  0  3  0  0  0  0  0  0
  180.8840  175.7100  137.7560 C   0  0  0  0  0  1  0  0  0  0  0  0
  192.5200  172.2260  135.4630 C   0  0  0  0  0  2  0  0  0  0  0  0
  193.8970  172.4030  136.0090 C   0  0  0  0  0  3  0  0  0  0  0  0
  194.2470  171.8080  137.1030 N   0  0  0  0  0  0  0  0  0  0  0  0
  195.5530  171.9430  137.6670 C   0  0  0  0  0  0  0  0  0  0  0  0
  196.7010  170.8640  137.2170 S   0  0  0  0  0  0  0  0  0  0  0  0
  196.2750  174.2400  138.5790 C   0  0  0  0  0  0  0  0  0  0  0  0
  196.3370  174.8800  137.3090 N   0  0  0  0  0  1  0  0  0  0  0  0
  195.7870  172.8980  138.7180 N   0  0  0  0  0  2  0  0  0  0  0  0
  196.6240  174.8760  139.6070 O   0  0  0  0  0  0  0  0  0  0  0  0
  1  2  1  0  0  0  0
  2 17  1  6  0  0  0
  2 10  1  0  0  0  0
  3 18  2  0  0  0  0
  5  4  2  0  0  0  0
  6 14  2  0  0  0  0
  7 16  2  0  0  0  0
  8  7  1  0  0  0  0
  8  5  1  0  0  0  0
  9 12  1  1  0  0  0
  9  3  1  0  0  0  0
  9 13  1  0  0  0  0
 10 20  1  1  0  0  0
 10 15  1  0  0  0  0
 13 17  1  6  0  0  0
 13 23  1  0  0  0  0
 15 21  1  0  0  0  0
 15  7  1  1  0  0  0
 16 11  1  0  0  0  0
 18  6  1  0  0  0  0
 19  1  1  0  0  0  0
 19 20  1  0  0  0  0
 21 24  1  6  0  0  0
 21 11  1  0  0  0  0
 22 23  1  0  0  0  0
 22 24  1  0  0  0  0
 23  6  1  0  0  0  0
 25 28  1  0  0  0  0
 26  5  1  0  0  0  0
 26 25  2  0  0  0  0
 28 27  1  1  0  0  0
 30 28  1  0  0  0  0
 30 29  2  0  0  0  0
 32 31  1  0  0  0  0
 32 30  1  0  0  0  0
 33 32  1  0  0  0  0
 34  3  1  0  0  0  0
 34 35  1  0  0  0  0
 35 36  2  0  0  0  0
 36 37  1  0  0  0  0
 37 41  1  0  0  0  0
 38 37  2  0  0  0  0
 39 41  1  0  0  0  0
 39 42  2  0  0  0  0
 40 39  1  0  0  0  0
M  END
>  <MODEL>
9

>  <REMARK>
 VINA RESULT:      -7.2      3.425      4.811
  Name = 
  8 active torsions:
  status: ('A' for Active; 'I' for Inactive)
    1  A    between atoms: C_3  and  C_13
    2  A    between atoms: C_6  and  C_25
    3  A    between atoms: C_8  and  N_33
    4  A    between atoms: C_11  and  C_14
    5  A    between atoms: C_11  and  C_25
    6  A    between atoms: C_13  and  C_15
    7  A    between atoms: N_20  and  C_21
    8  A    between atoms: C_21  and  N_24
                            x       y       z     vdW  Elec       q    Type
                         _______ _______ _______ _____ _____    ______ ____

>  <TORSDO>
F 8

$$$$
