=
 OpenBabel10222417173D

 46 51  0  0  1  0  0  0  0  0999 V2000
  185.6280  178.5890  143.6780 C   0  0  0  0  0  0  0  0  0  0  0  0
  185.9650  178.6620  142.3180 C   0  0  0  0  0  0  0  0  0  0  0  0
  184.2930  178.0530  147.4980 O   0  0  0  0  0  0  0  0  0  0  0  0
  184.4050  179.2300  144.1910 C   0  0  0  0  0  3  0  0  0  0  0  0
  187.8910  177.2600  142.7480 C   0  0  0  0  0  0  0  0  0  0  0  0
  187.5520  177.2220  144.0680 N   0  0  0  0  0  0  0  0  0  0  0  0
  184.0320  179.0770  145.4240 N   0  0  0  0  0  0  0  0  0  0  0  0
  184.7850  178.3010  146.3650 C   0  0  0  0  0  0  0  0  0  0  0  0
  186.1710  177.8160  146.0370 C   0  0  1  0  0  3  0  0  0  0  0  0
  186.4540  177.8610  144.5540 C   0  0  0  0  0  0  0  0  0  0  0  0
  187.1050  177.9930  141.8570 C   0  0  0  0  0  3  0  0  0  0  0  0
  189.1180  176.5540  142.2350 C   0  0  2  0  0  0  0  0  0  0  0  0
  190.3300  177.4290  142.5270 C   0  0  2  0  0  3  0  0  0  0  0  0
  189.8270  177.2770  141.1040 C   0  0  1  0  0  3  0  0  0  0  0  0
  190.0850  176.1770  143.3410 C   0  0  0  0  0  2  0  0  0  0  0  0
  190.6800  176.3490  140.3790 N   0  0  0  0  0  2  0  0  0  0  0  0
  190.7610  176.8430  139.0170 C   0  0  0  0  0  2  0  0  0  0  0  0
  189.3720  177.1830  138.5180 C   0  0  0  0  0  2  0  0  0  0  0  0
  189.4040  177.4070  137.0140 C   0  0  1  0  0  3  0  0  0  0  0  0
  189.9320  176.1920  136.3240 C   0  0  0  0  0  0  0  0  0  0  0  0
  189.3240  174.9550  136.5000 O   0  0  0  0  0  1  0  0  0  0  0  0
  190.9500  176.2890  135.5910 O   0  0  0  0  0  0  0  0  0  0  0  0
  187.7810  177.8430  136.3910 S   0  0  0  0  0  0  0  0  0  0  0  0
  187.7560  177.6990  134.8950 O   0  0  0  0  0  0  0  0  0  0  0  0
  187.4630  179.2660  136.7530 O   0  0  0  0  0  0  0  0  0  0  0  0
  186.5500  176.7700  137.1060 C   0  0  0  0  0  2  0  0  0  0  0  0
  184.5700  177.2930  135.8890 O   0  0  0  0  0  1  0  0  0  0  0  0
  185.4860  175.2390  135.4530 O   0  0  0  0  0  0  0  0  0  0  0  0
  185.4870  176.4610  136.1110 C   0  0  0  0  0  0  0  0  0  0  0  0
  187.1720  178.6380  146.7910 C   0  0  0  0  0  3  0  0  0  0  0  0
  187.6420  178.2440  147.9730 C   0  0  0  0  0  2  0  0  0  0  0  0
  185.1310  179.3920  141.4090 N   0  0  0  0  0  2  0  0  0  0  0  0
  184.6200  179.1920  139.0150 C   0  0  0  0  0  1  0  0  0  0  0  0
  184.2580  178.7560  140.4270 C   0  0  2  0  0  3  0  0  0  0  0  0
  182.8490  179.0250  140.7270 N   0  0  0  0  0  2  0  0  0  0  0  0
  182.0550  179.0320  139.5020 C   0  0  0  0  0  2  0  0  0  0  0  0
  180.4830  181.4760  137.6580 C   0  0  0  0  0  0  0  0  0  0  0  0
  179.3950  179.7120  139.1780 S   0  0  1  0  0  0  0  0  0  0  0  0
  181.4470  181.1630  138.4630 N   0  0  0  0  0  0  0  0  0  0  0  0
  181.0980  180.2130  139.5150 C   0  0  2  0  0  3  0  0  0  0  0  0
  179.2250  180.8580  137.8820 N   0  0  0  0  0  2  0  0  0  0  0  0
  179.5140  178.3830  138.4400 O   0  0  0  0  0  0  0  0  0  0  0  0
  180.6760  182.4750  136.5720 C   0  0  0  0  0  2  0  0  0  0  0  0
  181.6870  184.5920  137.3480 C   0  0  0  0  0  2  0  0  0  0  0  0
  180.3820  183.8680  137.0950 C   0  0  0  0  0  3  0  0  0  0  0  0
  180.8930  184.8860  136.0960 C   0  0  0  0  0  2  0  0  0  0  0  0
  1  4  1  0  0  0  0
  1 10  1  0  0  0  0
  2  1  2  0  0  0  0
  4  7  2  0  0  0  0
  5  6  1  0  0  0  0
  6 10  2  0  0  0  0
  7  8  1  0  0  0  0
  8  3  2  0  0  0  0
  9  8  1  0  0  0  0
  9 30  1  1  0  0  0
 10  9  1  0  0  0  0
 11  2  1  0  0  0  0
 11  5  2  0  0  0  0
 12 13  1  0  0  0  0
 12  5  1  1  0  0  0
 12 15  1  0  0  0  0
 13 15  1  6  0  0  0
 14 16  1  6  0  0  0
 14 12  1  0  0  0  0
 14 13  1  0  0  0  0
 17 16  1  0  0  0  0
 18 17  1  0  0  0  0
 19 18  1  1  0  0  0
 20 21  1  0  0  0  0
 20 19  1  0  0  0  0
 22 20  2  0  0  0  0
 23 25  2  0  0  0  0
 23 19  1  0  0  0  0
 23 26  1  0  0  0  0
 24 23  2  0  0  0  0
 27 29  1  0  0  0  0
 28 29  2  0  0  0  0
 29 26  1  0  0  0  0
 30 31  2  0  0  0  0
 32  2  1  0  0  0  0
 34 33  1  6  0  0  0
 34 35  1  0  0  0  0
 34 32  1  0  0  0  0
 36 35  1  0  0  0  0
 37 41  1  0  0  0  0
 37 39  2  0  0  0  0
 38 42  2  6  0  0  0
 38 40  1  0  0  0  0
 39 40  1  0  0  0  0
 40 36  1  6  0  0  0
 41 38  1  0  0  0  0
 43 45  1  0  0  0  0
 43 37  1  0  0  0  0
 45 44  1  0  0  0  0
 46 45  1  0  0  0  0
 46 44  1  0  0  0  0
M  END
>  <MODEL>
1

>  <REMARK>
 VINA RESULT:      -7.4      0.000      0.000
  Name = 
  17 active torsions:
  status: ('A' for Active; 'I' for Inactive)
    1  A    between atoms: C_2  and  C_40
    2  A    between atoms: C_3  and  C_23
    3  A    between atoms: C_4  and  C_42
    4  A    between atoms: C_6  and  S_14
    5  A    between atoms: C_6  and  C_33
    6  A    between atoms: C_7  and  N_9
    7  A    between atoms: N_9  and  C_15
    8  A    between atoms: S_14  and  C_42
    9  A    between atoms: C_15  and  N_35
   10  A    between atoms: C_16  and  C_21
   11  A    between atoms: N_19  and  C_20
   12  A    between atoms: N_19  and  C_32
   13  A    between atoms: C_20  and  C_43
   14  A    between atoms: C_22  and  C_23
   15  A    between atoms: C_27  and  C_37
   16  A    between atoms: N_35  and  C_37
   17  A    between atoms: C_42  and  C_43
                            x       y       z     vdW  Elec       q    Type
                         _______ _______ _______ _____ _____    ______ ____

>  <TORSDO>
F 17

$$$$
=
 OpenBabel10222417173D

 46 51  0  0  1  0  0  0  0  0999 V2000
  185.0140  178.4340  139.8320 C   0  0  0  0  0  0  0  0  0  0  0  0
  186.0020  178.7030  140.7910 C   0  0  0  0  0  0  0  0  0  0  0  0
  182.3490  177.1990  136.9970 O   0  0  0  0  0  0  0  0  0  0  0  0
  185.3440  178.3850  138.3970 C   0  0  0  0  0  3  0  0  0  0  0  0
  184.3520  178.4000  142.5360 C   0  0  0  0  0  0  0  0  0  0  0  0
  183.4070  178.1620  141.5820 N   0  0  0  0  0  0  0  0  0  0  0  0
  184.4600  178.0310  137.5160 N   0  0  0  0  0  0  0  0  0  0  0  0
  183.1140  177.6890  137.8690 C   0  0  0  0  0  0  0  0  0  0  0  0
  182.5870  177.9490  139.2550 C   0  0  1  0  0  3  0  0  0  0  0  0
  183.6980  178.1720  140.2540 C   0  0  0  0  0  0  0  0  0  0  0  0
  185.6620  178.6870  142.1490 C   0  0  0  0  0  3  0  0  0  0  0  0
  184.0050  178.3940  144.0010 C   0  0  2  0  0  0  0  0  0  0  0  0
  183.7780  179.8350  144.4440 C   0  0  2  0  0  3  0  0  0  0  0  0
  185.0230  179.0900  144.8870 C   0  0  1  0  0  3  0  0  0  0  0  0
  182.6010  178.9000  144.2740 C   0  0  0  0  0  2  0  0  0  0  0  0
  184.8660  178.6490  146.2630 N   0  0  0  0  0  2  0  0  0  0  0  0
  186.2050  178.5070  146.8050 C   0  0  0  0  0  2  0  0  0  0  0  0
  187.0970  177.8360  145.7820 C   0  0  0  0  0  2  0  0  0  0  0  0
  188.5520  178.1830  146.0570 C   0  0  1  0  0  3  0  0  0  0  0  0
  188.9990  177.5520  147.3340 C   0  0  0  0  0  0  0  0  0  0  0  0
  189.5430  178.3230  148.3550 O   0  0  0  0  0  1  0  0  0  0  0  0
  188.8990  176.3070  147.4780 O   0  0  0  0  0  0  0  0  0  0  0  0
  189.6040  177.6870  144.6940 S   0  0  0  0  0  0  0  0  0  0  0  0
  189.4690  178.6700  143.5640 O   0  0  0  0  0  0  0  0  0  0  0  0
  189.2000  176.3230  144.2090 O   0  0  0  0  0  0  0  0  0  0  0  0
  191.3040  177.6370  145.2290 C   0  0  0  0  0  2  0  0  0  0  0  0
  192.0310  175.7220  146.4470 O   0  0  0  0  0  1  0  0  0  0  0  0
  191.9770  175.4850  144.1680 O   0  0  0  0  0  0  0  0  0  0  0  0
  191.7780  176.2290  145.3230 C   0  0  0  0  0  0  0  0  0  0  0  0
  181.6650  179.1300  139.2180 C   0  0  0  0  0  3  0  0  0  0  0  0
  182.0820  180.3220  138.7960 C   0  0  0  0  0  2  0  0  0  0  0  0
  187.3510  178.9640  140.3800 N   0  0  0  0  0  2  0  0  0  0  0  0
  189.0170  177.1700  140.5670 C   0  0  0  0  0  1  0  0  0  0  0  0
  188.1640  178.0130  139.6300 C   0  0  2  0  0  3  0  0  0  0  0  0
  188.9840  178.7000  138.6290 N   0  0  0  0  0  2  0  0  0  0  0  0
  188.4210  178.5250  137.2930 C   0  0  0  0  0  2  0  0  0  0  0  0
  190.7080  175.9540  137.3020 C   0  0  0  0  0  0  0  0  0  0  0  0
  188.5150  176.0990  135.9710 S   0  0  1  0  0  0  0  0  0  0  0  0
  190.4960  177.2300  137.2440 N   0  0  0  0  0  0  0  0  0  0  0  0
  189.3310  177.6340  136.4630 C   0  0  2  0  0  3  0  0  0  0  0  0
  189.7890  175.1130  136.6230 N   0  0  0  0  0  2  0  0  0  0  0  0
  187.3890  175.9090  136.9810 O   0  0  0  0  0  0  0  0  0  0  0  0
  191.8900  175.3980  138.0150 C   0  0  0  0  0  2  0  0  0  0  0  0
  194.1910  174.5340  137.7600 C   0  0  0  0  0  2  0  0  0  0  0  0
  193.0180  175.1540  137.0300 C   0  0  0  0  0  3  0  0  0  0  0  0
  193.2720  173.6640  136.9340 C   0  0  0  0  0  2  0  0  0  0  0  0
  1 10  2  0  0  0  0
  1  2  1  0  0  0  0
  2 11  2  0  0  0  0
  3  8  2  0  0  0  0
  4  1  1  0  0  0  0
  6  5  2  0  0  0  0
  7  8  1  0  0  0  0
  7  4  2  0  0  0  0
  8  9  1  0  0  0  0
  9 30  1  6  0  0  0
  9 10  1  0  0  0  0
 10  6  1  0  0  0  0
 11  5  1  0  0  0  0
 12  5  1  6  0  0  0
 12 15  1  0  0  0  0
 12 13  1  0  0  0  0
 12 14  1  0  0  0  0
 13 15  1  1  0  0  0
 13 14  1  0  0  0  0
 14 16  1  1  0  0  0
 16 17  1  0  0  0  0
 18 17  1  0  0  0  0
 19 18  1  6  0  0  0
 19 20  1  0  0  0  0
 20 22  2  0  0  0  0
 20 21  1  0  0  0  0
 23 26  1  0  0  0  0
 23 19  1  0  0  0  0
 24 23  2  0  0  0  0
 25 23  2  0  0  0  0
 26 29  1  0  0  0  0
 28 29  2  0  0  0  0
 29 27  1  0  0  0  0
 31 30  2  0  0  0  0
 32  2  1  0  0  0  0
 34 32  1  0  0  0  0
 34 33  1  1  0  0  0
 35 34  1  0  0  0  0
 36 35  1  0  0  0  0
 37 43  1  0  0  0  0
 38 40  1  0  0  0  0
 38 41  1  0  0  0  0
 38 42  2  1  0  0  0
 39 37  2  0  0  0  0
 40 39  1  0  0  0  0
 40 36  1  1  0  0  0
 41 37  1  0  0  0  0
 45 44  1  0  0  0  0
 45 43  1  0  0  0  0
 46 45  1  0  0  0  0
 46 44  1  0  0  0  0
M  END
>  <MODEL>
2

>  <REMARK>
 VINA RESULT:      -7.4      3.362      9.324
  Name = 
  17 active torsions:
  status: ('A' for Active; 'I' for Inactive)
    1  A    between atoms: C_2  and  C_40
    2  A    between atoms: C_3  and  C_23
    3  A    between atoms: C_4  and  C_42
    4  A    between atoms: C_6  and  S_14
    5  A    between atoms: C_6  and  C_33
    6  A    between atoms: C_7  and  N_9
    7  A    between atoms: N_9  and  C_15
    8  A    between atoms: S_14  and  C_42
    9  A    between atoms: C_15  and  N_35
   10  A    between atoms: C_16  and  C_21
   11  A    between atoms: N_19  and  C_20
   12  A    between atoms: N_19  and  C_32
   13  A    between atoms: C_20  and  C_43
   14  A    between atoms: C_22  and  C_23
   15  A    between atoms: C_27  and  C_37
   16  A    between atoms: N_35  and  C_37
   17  A    between atoms: C_42  and  C_43
                            x       y       z     vdW  Elec       q    Type
                         _______ _______ _______ _____ _____    ______ ____

>  <TORSDO>
F 17

$$$$
=
 OpenBabel10222417173D

 46 51  0  0  1  0  0  0  0  0999 V2000
  185.5050  178.5590  143.7700 C   0  0  0  0  0  0  0  0  0  0  0  0
  185.7940  178.6370  142.4000 C   0  0  0  0  0  0  0  0  0  0  0  0
  184.3050  178.0070  147.6330 O   0  0  0  0  0  0  0  0  0  0  0  0
  184.2930  179.1870  144.3250 C   0  0  0  0  0  3  0  0  0  0  0  0
  187.7490  177.2550  142.7630 C   0  0  0  0  0  0  0  0  0  0  0  0
  187.4550  177.2130  144.0940 N   0  0  0  0  0  0  0  0  0  0  0  0
  183.9640  179.0290  145.5700 N   0  0  0  0  0  0  0  0  0  0  0  0
  184.7560  178.2600  146.4840 C   0  0  0  0  0  0  0  0  0  0  0  0
  186.1350  177.7910  146.1090 C   0  0  1  0  0  3  0  0  0  0  0  0
  186.3670  177.8400  144.6170 C   0  0  0  0  0  0  0  0  0  0  0  0
  186.9260  177.9800  141.9000 C   0  0  0  0  0  3  0  0  0  0  0  0
  188.9650  176.5620  142.2080 C   0  0  2  0  0  0  0  0  0  0  0  0
  190.1900  177.4040  142.5450 C   0  0  2  0  0  3  0  0  0  0  0  0
  189.6820  177.3380  141.1180 C   0  0  1  0  0  3  0  0  0  0  0  0
  189.9290  176.1120  143.2890 C   0  0  0  0  0  2  0  0  0  0  0  0
  190.5210  176.4410  140.3400 N   0  0  0  0  0  2  0  0  0  0  0  0
  191.0500  177.2230  139.2390 C   0  0  0  0  0  2  0  0  0  0  0  0
  190.5360  176.6650  137.9270 C   0  0  0  0  0  2  0  0  0  0  0  0
  189.0270  176.8340  137.8500 C   0  0  1  0  0  3  0  0  0  0  0  0
  188.6710  178.2830  137.8090 C   0  0  0  0  0  0  0  0  0  0  0  0
  189.2630  179.1340  136.8820 O   0  0  0  0  0  0  0  0  0  0  0  0
  187.8410  178.7410  138.6350 O   0  0  0  0  0  1  0  0  0  0  0  0
  188.3510  175.9670  136.4340 S   0  0  0  0  0  0  0  0  0  0  0  0
  189.3730  175.9200  135.3330 O   0  0  0  0  0  0  0  0  0  0  0  0
  187.1270  176.6820  135.9360 O   0  0  0  0  0  0  0  0  0  0  0  0
  187.9080  174.3040  136.8970 C   0  0  0  0  0  2  0  0  0  0  0  0
  190.0540  173.4250  137.4420 O   0  0  0  0  0  1  0  0  0  0  0  0
  189.0380  172.4930  135.6110 O   0  0  0  0  0  0  0  0  0  0  0  0
  189.0540  173.3800  136.6790 C   0  0  0  0  0  0  0  0  0  0  0  0
  187.1520  178.6230  146.8300 C   0  0  0  0  0  3  0  0  0  0  0  0
  187.8320  178.1400  147.8680 C   0  0  0  0  0  2  0  0  0  0  0  0
  184.9230  179.3580  141.5200 N   0  0  0  0  0  2  0  0  0  0  0  0
  184.2940  179.7380  139.1770 C   0  0  0  0  0  1  0  0  0  0  0  0
  184.2890  178.7650  140.3470 C   0  0  2  0  0  3  0  0  0  0  0  0
  182.9340  178.3060  140.6580 N   0  0  0  0  0  2  0  0  0  0  0  0
  182.7730  176.8970  140.3090 C   0  0  0  0  0  2  0  0  0  0  0  0
  182.9360  175.0120  137.4350 C   0  0  0  0  0  0  0  0  0  0  0  0
  180.8290  175.8450  138.6490 S   0  0  1  0  0  0  0  0  0  0  0  0
  183.3780  176.0290  138.1030 N   0  0  0  0  0  0  0  0  0  0  0  0
  182.3670  176.7720  138.8490 C   0  0  2  0  0  3  0  0  0  0  0  0
  181.5460  174.7360  137.5190 N   0  0  0  0  0  2  0  0  0  0  0  0
  180.7070  175.0050  139.9150 O   0  0  0  0  0  0  0  0  0  0  0  0
  183.8400  174.1940  136.5820 C   0  0  0  0  0  2  0  0  0  0  0  0
  183.6150  171.7780  137.0510 C   0  0  0  0  0  2  0  0  0  0  0  0
  184.3950  173.0320  137.3850 C   0  0  0  0  0  3  0  0  0  0  0  0
  184.9740  172.0090  136.4310 C   0  0  0  0  0  2  0  0  0  0  0  0
  1  4  1  0  0  0  0
  1 10  1  0  0  0  0
  2  1  2  0  0  0  0
  4  7  2  0  0  0  0
  5  6  1  0  0  0  0
  6 10  2  0  0  0  0
  7  8  1  0  0  0  0
  8  3  2  0  0  0  0
  9  8  1  0  0  0  0
  9 30  1  1  0  0  0
 10  9  1  0  0  0  0
 11  2  1  0  0  0  0
 11  5  2  0  0  0  0
 12 13  1  0  0  0  0
 12  5  1  1  0  0  0
 12 15  1  0  0  0  0
 13 15  1  6  0  0  0
 14 16  1  6  0  0  0
 14 12  1  0  0  0  0
 14 13  1  0  0  0  0
 17 16  1  0  0  0  0
 18 17  1  0  0  0  0
 19 18  1  6  0  0  0
 20 19  1  0  0  0  0
 20 22  1  0  0  0  0
 21 20  2  0  0  0  0
 23 26  1  0  0  0  0
 23 19  1  0  0  0  0
 24 23  2  0  0  0  0
 25 23  2  0  0  0  0
 28 29  2  0  0  0  0
 29 26  1  0  0  0  0
 29 27  1  0  0  0  0
 30 31  2  0  0  0  0
 32  2  1  0  0  0  0
 34 33  1  6  0  0  0
 34 35  1  0  0  0  0
 34 32  1  0  0  0  0
 36 35  1  0  0  0  0
 37 41  1  0  0  0  0
 37 39  2  0  0  0  0
 38 40  1  0  0  0  0
 38 42  2  1  0  0  0
 39 40  1  0  0  0  0
 40 36  1  1  0  0  0
 41 38  1  0  0  0  0
 43 45  1  0  0  0  0
 43 37  1  0  0  0  0
 44 45  1  0  0  0  0
 46 44  1  0  0  0  0
 46 45  1  0  0  0  0
M  END
>  <MODEL>
3

>  <REMARK>
 VINA RESULT:      -7.3      2.574      4.440
  Name = 
  17 active torsions:
  status: ('A' for Active; 'I' for Inactive)
    1  A    between atoms: C_2  and  C_40
    2  A    between atoms: C_3  and  C_23
    3  A    between atoms: C_4  and  C_42
    4  A    between atoms: C_6  and  S_14
    5  A    between atoms: C_6  and  C_33
    6  A    between atoms: C_7  and  N_9
    7  A    between atoms: N_9  and  C_15
    8  A    between atoms: S_14  and  C_42
    9  A    between atoms: C_15  and  N_35
   10  A    between atoms: C_16  and  C_21
   11  A    between atoms: N_19  and  C_20
   12  A    between atoms: N_19  and  C_32
   13  A    between atoms: C_20  and  C_43
   14  A    between atoms: C_22  and  C_23
   15  A    between atoms: C_27  and  C_37
   16  A    between atoms: N_35  and  C_37
   17  A    between atoms: C_42  and  C_43
                            x       y       z     vdW  Elec       q    Type
                         _______ _______ _______ _____ _____    ______ ____

>  <TORSDO>
F 17

$$$$
=
 OpenBabel10222417173D

 46 51  0  0  1  0  0  0  0  0999 V2000
  185.0690  178.3910  139.7310 C   0  0  0  0  0  0  0  0  0  0  0  0
  186.0690  178.5660  140.6990 C   0  0  0  0  0  0  0  0  0  0  0  0
  182.3290  177.4140  136.8670 O   0  0  0  0  0  0  0  0  0  0  0  0
  185.4060  178.3180  138.2990 C   0  0  0  0  0  3  0  0  0  0  0  0
  184.3820  178.4050  142.4290 C   0  0  0  0  0  0  0  0  0  0  0  0
  183.4280  178.2570  141.4660 N   0  0  0  0  0  0  0  0  0  0  0  0
  184.5020  178.0500  137.4080 N   0  0  0  0  0  0  0  0  0  0  0  0
  183.1270  177.8300  137.7480 C   0  0  0  0  0  0  0  0  0  0  0  0
  182.6140  178.1300  139.1300 C   0  0  1  0  0  3  0  0  0  0  0  0
  183.7310  178.2470  140.1400 C   0  0  0  0  0  0  0  0  0  0  0  0
  185.7170  178.5740  142.0550 C   0  0  0  0  0  3  0  0  0  0  0  0
  184.0230  178.4250  143.8910 C   0  0  2  0  0  0  0  0  0  0  0  0
  183.7940  179.8720  144.3070 C   0  0  2  0  0  3  0  0  0  0  0  0
  185.0340  179.1340  144.7730 C   0  0  1  0  0  3  0  0  0  0  0  0
  182.6170  178.9360  144.1430 C   0  0  0  0  0  2  0  0  0  0  0  0
  184.8660  178.7160  146.1560 N   0  0  0  0  0  2  0  0  0  0  0  0
  186.1920  178.6920  146.7430 C   0  0  0  0  0  2  0  0  0  0  0  0
  187.0430  177.6590  146.0310 C   0  0  0  0  0  2  0  0  0  0  0  0
  188.5140  178.0170  146.1710 C   0  0  1  0  0  3  0  0  0  0  0  0
  189.0820  177.3910  147.4010 C   0  0  0  0  0  0  0  0  0  0  0  0
  189.7440  178.1630  148.3500 O   0  0  0  0  0  1  0  0  0  0  0  0
  188.9750  176.1500  147.5710 O   0  0  0  0  0  0  0  0  0  0  0  0
  189.4380  177.5260  144.7160 S   0  0  0  0  0  0  0  0  0  0  0  0
  189.5240  178.6780  143.7550 O   0  0  0  0  0  0  0  0  0  0  0  0
  188.7500  176.3730  144.0410 O   0  0  0  0  0  0  0  0  0  0  0  0
  191.0850  177.0280  145.1860 C   0  0  0  0  0  2  0  0  0  0  0  0
  191.9520  176.8160  142.9760 O   0  0  0  0  0  0  0  0  0  0  0  0
  192.0560  174.9250  144.2670 O   0  0  0  0  0  1  0  0  0  0  0  0
  191.7310  176.2620  144.0850 C   0  0  0  0  0  0  0  0  0  0  0  0
  181.8020  179.3890  139.0920 C   0  0  0  0  0  3  0  0  0  0  0  0
  182.2810  180.5050  138.5460 C   0  0  0  0  0  2  0  0  0  0  0  0
  187.4390  178.7060  140.3020 N   0  0  0  0  0  2  0  0  0  0  0  0
  189.7860  177.9950  140.4200 C   0  0  0  0  0  1  0  0  0  0  0  0
  188.3500  177.5780  140.1370 C   0  0  2  0  0  3  0  0  0  0  0  0
  188.2160  176.9860  138.8040 N   0  0  0  0  0  2  0  0  0  0  0  0
  189.5290  176.7130  138.2270 C   0  0  0  0  0  2  0  0  0  0  0  0
  187.4090  175.1010  136.0480 C   0  0  0  0  0  0  0  0  0  0  0  0
  189.5070  176.4710  135.4730 S   0  0  1  0  0  0  0  0  0  0  0  0
  188.0870  175.0560  137.1500 N   0  0  0  0  0  0  0  0  0  0  0  0
  189.3970  175.6980  137.1030 C   0  0  2  0  0  3  0  0  0  0  0  0
  188.0040  175.7730  134.9480 N   0  0  0  0  0  2  0  0  0  0  0  0
  189.1380  177.9320  135.7040 O   0  0  0  0  0  0  0  0  0  0  0  0
  186.0820  174.4410  135.9290 C   0  0  0  0  0  2  0  0  0  0  0  0
  183.9410  173.9930  137.0810 C   0  0  0  0  0  2  0  0  0  0  0  0
  185.3600  174.4890  137.2630 C   0  0  0  0  0  3  0  0  0  0  0  0
  184.9900  173.0790  137.6720 C   0  0  0  0  0  2  0  0  0  0  0  0
  1 10  2  0  0  0  0
  1  2  1  0  0  0  0
  2 11  2  0  0  0  0
  3  8  2  0  0  0  0
  4  1  1  0  0  0  0
  6  5  2  0  0  0  0
  7  8  1  0  0  0  0
  7  4  2  0  0  0  0
  8  9  1  0  0  0  0
  9 30  1  6  0  0  0
  9 10  1  0  0  0  0
 10  6  1  0  0  0  0
 11  5  1  0  0  0  0
 12  5  1  6  0  0  0
 12 15  1  0  0  0  0
 12 13  1  0  0  0  0
 12 14  1  0  0  0  0
 13 15  1  1  0  0  0
 13 14  1  0  0  0  0
 14 16  1  1  0  0  0
 16 17  1  0  0  0  0
 18 17  1  0  0  0  0
 19 18  1  6  0  0  0
 19 20  1  0  0  0  0
 20 22  2  0  0  0  0
 20 21  1  0  0  0  0
 23 26  1  0  0  0  0
 23 19  1  0  0  0  0
 24 23  2  0  0  0  0
 25 23  2  0  0  0  0
 27 29  2  0  0  0  0
 29 28  1  0  0  0  0
 29 26  1  0  0  0  0
 31 30  2  0  0  0  0
 32  2  1  0  0  0  0
 34 32  1  0  0  0  0
 34 33  1  6  0  0  0
 35 34  1  0  0  0  0
 36 35  1  0  0  0  0
 37 39  2  0  0  0  0
 38 42  2  1  0  0  0
 38 40  1  0  0  0  0
 40 39  1  0  0  0  0
 40 36  1  1  0  0  0
 41 38  1  0  0  0  0
 41 37  1  0  0  0  0
 43 37  1  0  0  0  0
 43 45  1  0  0  0  0
 44 45  1  0  0  0  0
 44 46  1  0  0  0  0
 45 46  1  0  0  0  0
M  END
>  <MODEL>
4

>  <REMARK>
 VINA RESULT:      -7.3      3.337      8.658
  Name = 
  17 active torsions:
  status: ('A' for Active; 'I' for Inactive)
    1  A    between atoms: C_2  and  C_40
    2  A    between atoms: C_3  and  C_23
    3  A    between atoms: C_4  and  C_42
    4  A    between atoms: C_6  and  S_14
    5  A    between atoms: C_6  and  C_33
    6  A    between atoms: C_7  and  N_9
    7  A    between atoms: N_9  and  C_15
    8  A    between atoms: S_14  and  C_42
    9  A    between atoms: C_15  and  N_35
   10  A    between atoms: C_16  and  C_21
   11  A    between atoms: N_19  and  C_20
   12  A    between atoms: N_19  and  C_32
   13  A    between atoms: C_20  and  C_43
   14  A    between atoms: C_22  and  C_23
   15  A    between atoms: C_27  and  C_37
   16  A    between atoms: N_35  and  C_37
   17  A    between atoms: C_42  and  C_43
                            x       y       z     vdW  Elec       q    Type
                         _______ _______ _______ _____ _____    ______ ____

>  <TORSDO>
F 17

$$$$
=
 OpenBabel10222417173D

 46 51  0  0  1  0  0  0  0  0999 V2000
  183.1270  179.0170  139.6540 C   0  0  0  0  0  0  0  0  0  0  0  0
  184.4950  178.9400  139.9560 C   0  0  0  0  0  0  0  0  0  0  0  0
  179.1970  178.7850  138.5730 O   0  0  0  0  0  0  0  0  0  0  0  0
  182.6670  179.2340  138.2710 C   0  0  0  0  0  3  0  0  0  0  0  0
  183.9300  178.4910  142.2680 C   0  0  0  0  0  0  0  0  0  0  0  0
  182.6080  178.5910  141.9500 N   0  0  0  0  0  0  0  0  0  0  0  0
  181.4060  179.1980  137.9680 N   0  0  0  0  0  0  0  0  0  0  0  0
  180.3860  178.9710  138.9480 C   0  0  0  0  0  0  0  0  0  0  0  0
  180.7030  178.9940  140.4180 C   0  0  1  0  0  3  0  0  0  0  0  0
  182.1830  178.8480  140.6830 C   0  0  0  0  0  0  0  0  0  0  0  0
  184.8920  178.6780  141.2730 C   0  0  0  0  0  3  0  0  0  0  0  0
  184.3770  178.2170  143.6790 C   0  0  2  0  0  0  0  0  0  0  0  0
  184.9150  179.5150  144.2700 C   0  0  2  0  0  3  0  0  0  0  0  0
  185.8680  178.3930  143.9060 C   0  0  1  0  0  3  0  0  0  0  0  0
  183.5690  178.9810  144.7100 C   0  0  0  0  0  2  0  0  0  0  0  0
  186.2730  177.6850  145.1100 N   0  0  0  0  0  2  0  0  0  0  0  0
  187.6510  178.0620  145.3650 C   0  0  0  0  0  2  0  0  0  0  0  0
  188.5650  176.9000  145.0350 C   0  0  0  0  0  2  0  0  0  0  0  0
  190.0140  177.3050  145.2490 C   0  0  1  0  0  3  0  0  0  0  0  0
  190.4820  176.8520  146.5930 C   0  0  0  0  0  0  0  0  0  0  0  0
  191.7950  177.0690  146.9980 O   0  0  0  0  0  0  0  0  0  0  0  0
  189.6850  176.2520  147.3580 O   0  0  0  0  0  1  0  0  0  0  0  0
  191.0660  176.6560  143.9510 S   0  0  0  0  0  0  0  0  0  0  0  0
  191.8660  175.4970  144.4780 O   0  0  0  0  0  0  0  0  0  0  0  0
  192.0070  177.7260  143.4750 O   0  0  0  0  0  0  0  0  0  0  0  0
  190.0660  176.1060  142.5810 C   0  0  0  0  0  2  0  0  0  0  0  0
  189.0700  178.1170  141.7780 O   0  0  0  0  0  1  0  0  0  0  0  0
  190.6580  177.1840  140.4140 O   0  0  0  0  0  0  0  0  0  0  0  0
  189.9080  177.1980  141.5820 C   0  0  0  0  0  0  0  0  0  0  0  0
  180.1830  180.2670  141.0140 C   0  0  0  0  0  3  0  0  0  0  0  0
  179.5380  180.2730  142.1790 C   0  0  0  0  0  2  0  0  0  0  0  0
  185.4710  179.1010  138.9200 N   0  0  0  0  0  2  0  0  0  0  0  0
  187.7240  178.2180  138.5060 C   0  0  0  0  0  1  0  0  0  0  0  0
  186.2280  177.9940  138.3440 C   0  0  2  0  0  3  0  0  0  0  0  0
  185.8650  177.7840  136.9410 N   0  0  0  0  0  2  0  0  0  0  0  0
  185.0910  176.5550  136.7880 C   0  0  0  0  0  2  0  0  0  0  0  0
  187.8310  174.6130  136.0380 C   0  0  0  0  0  0  0  0  0  0  0  0
  185.3600  173.9070  136.0410 S   0  0  1  0  0  0  0  0  0  0  0  0
  187.2140  175.7410  135.8850 N   0  0  0  0  0  0  0  0  0  0  0  0
  185.7620  175.6470  135.7700 C   0  0  2  0  0  3  0  0  0  0  0  0
  187.0340  173.4400  136.0900 N   0  0  0  0  0  2  0  0  0  0  0  0
  184.9430  173.8220  137.5050 O   0  0  0  0  0  0  0  0  0  0  0  0
  189.3150  174.5470  136.1130 C   0  0  0  0  0  2  0  0  0  0  0  0
  191.2810  175.0920  137.5080 C   0  0  0  0  0  2  0  0  0  0  0  0
  189.8090  175.3720  137.2870 C   0  0  0  0  0  3  0  0  0  0  0  0
  190.8520  176.3530  136.7940 C   0  0  0  0  0  2  0  0  0  0  0  0
  1  2  2  0  0  0  0
  1 10  1  0  0  0  0
  2 11  1  0  0  0  0
  3  8  2  0  0  0  0
  4  1  1  0  0  0  0
  6  5  1  0  0  0  0
  7  4  2  0  0  0  0
  7  8  1  0  0  0  0
  8  9  1  0  0  0  0
  9 10  1  0  0  0  0
  9 30  1  6  0  0  0
 10  6  2  0  0  0  0
 11  5  2  0  0  0  0
 12  5  1  6  0  0  0
 12 14  1  0  0  0  0
 12 13  1  0  0  0  0
 12 15  1  0  0  0  0
 13 15  1  1  0  0  0
 14 13  1  0  0  0  0
 14 16  1  1  0  0  0
 16 17  1  0  0  0  0
 18 17  1  0  0  0  0
 19 18  1  6  0  0  0
 19 20  1  0  0  0  0
 20 21  2  0  0  0  0
 20 22  1  0  0  0  0
 23 24  2  0  0  0  0
 23 19  1  0  0  0  0
 25 23  2  0  0  0  0
 26 23  1  0  0  0  0
 28 29  2  0  0  0  0
 29 27  1  0  0  0  0
 29 26  1  0  0  0  0
 30 31  2  0  0  0  0
 32  2  1  0  0  0  0
 34 33  1  6  0  0  0
 34 32  1  0  0  0  0
 35 34  1  0  0  0  0
 36 35  1  0  0  0  0
 37 41  1  0  0  0  0
 37 43  1  0  0  0  0
 38 41  1  0  0  0  0
 38 42  2  1  0  0  0
 39 37  2  0  0  0  0
 40 39  1  0  0  0  0
 40 38  1  0  0  0  0
 40 36  1  1  0  0  0
 43 45  1  0  0  0  0
 45 44  1  0  0  0  0
 46 45  1  0  0  0  0
 46 44  1  0  0  0  0
M  END
>  <MODEL>
5

>  <REMARK>
 VINA RESULT:      -7.2      3.501      8.112
  Name = 
  17 active torsions:
  status: ('A' for Active; 'I' for Inactive)
    1  A    between atoms: C_2  and  C_40
    2  A    between atoms: C_3  and  C_23
    3  A    between atoms: C_4  and  C_42
    4  A    between atoms: C_6  and  S_14
    5  A    between atoms: C_6  and  C_33
    6  A    between atoms: C_7  and  N_9
    7  A    between atoms: N_9  and  C_15
    8  A    between atoms: S_14  and  C_42
    9  A    between atoms: C_15  and  N_35
   10  A    between atoms: C_16  and  C_21
   11  A    between atoms: N_19  and  C_20
   12  A    between atoms: N_19  and  C_32
   13  A    between atoms: C_20  and  C_43
   14  A    between atoms: C_22  and  C_23
   15  A    between atoms: C_27  and  C_37
   16  A    between atoms: N_35  and  C_37
   17  A    between atoms: C_42  and  C_43
                            x       y       z     vdW  Elec       q    Type
                         _______ _______ _______ _____ _____    ______ ____

>  <TORSDO>
F 17

$$$$
=
 OpenBabel10222417173D

 46 51  0  0  1  0  0  0  0  0999 V2000
  189.2700  177.0370  143.9530 C   0  0  0  0  0  0  0  0  0  0  0  0
  188.3660  177.1590  142.8870 C   0  0  0  0  0  0  0  0  0  0  0  0
  192.1620  177.0480  146.8350 O   0  0  0  0  0  0  0  0  0  0  0  0
  190.5860  176.4040  143.7630 C   0  0  0  0  0  3  0  0  0  0  0  0
  186.8450  178.3470  144.3490 C   0  0  0  0  0  0  0  0  0  0  0  0
  187.7330  178.1970  145.3730 N   0  0  0  0  0  0  0  0  0  0  0  0
  191.4670  176.3850  144.7150 N   0  0  0  0  0  0  0  0  0  0  0  0
  191.2170  176.9510  146.0070 C   0  0  0  0  0  0  0  0  0  0  0  0
  189.8340  177.3910  146.4060 C   0  0  1  0  0  3  0  0  0  0  0  0
  188.9250  177.5620  145.2120 C   0  0  0  0  0  0  0  0  0  0  0  0
  187.1470  177.8170  143.0930 C   0  0  0  0  0  3  0  0  0  0  0  0
  185.5260  179.0440  144.5520 C   0  0  2  0  0  0  0  0  0  0  0  0
  184.6350  178.1440  145.4000 C   0  0  2  0  0  3  0  0  0  0  0  0
  184.3400  178.3330  143.9250 C   0  0  1  0  0  3  0  0  0  0  0  0
  185.2580  179.3820  146.0070 C   0  0  0  0  0  2  0  0  0  0  0  0
  183.2340  179.2630  143.7610 N   0  0  0  0  0  2  0  0  0  0  0  0
  182.5060  178.8330  142.5820 C   0  0  0  0  0  2  0  0  0  0  0  0
  183.4800  178.3080  141.5470 C   0  0  0  0  0  2  0  0  0  0  0  0
  183.0920  178.8160  140.1680 C   0  0  1  0  0  3  0  0  0  0  0  0
  184.2870  179.3790  139.4720 C   0  0  0  0  0  0  0  0  0  0  0  0
  185.5180  178.7370  139.5400 O   0  0  0  0  0  1  0  0  0  0  0  0
  184.1810  180.4570  138.8320 O   0  0  0  0  0  0  0  0  0  0  0  0
  182.3330  177.5190  139.1910 S   0  0  0  0  0  0  0  0  0  0  0  0
  183.0480  176.2190  139.4300 O   0  0  0  0  0  0  0  0  0  0  0  0
  182.4180  177.8650  137.7310 O   0  0  0  0  0  0  0  0  0  0  0  0
  180.6190  177.3410  139.6500 C   0  0  0  0  0  2  0  0  0  0  0  0
  180.0870  175.0190  139.6100 O   0  0  0  0  0  1  0  0  0  0  0  0
  179.4650  176.2100  137.7540 O   0  0  0  0  0  0  0  0  0  0  0  0
  180.0350  176.1270  139.0170 C   0  0  0  0  0  0  0  0  0  0  0  0
  189.2610  176.3960  147.3700 C   0  0  0  0  0  3  0  0  0  0  0  0
  188.2730  176.7270  148.2000 C   0  0  0  0  0  2  0  0  0  0  0  0
  188.7030  176.6380  141.5960 N   0  0  0  0  0  2  0  0  0  0  0  0
  188.8660  178.4010  139.8940 C   0  0  0  0  0  1  0  0  0  0  0  0
  189.6000  177.3120  140.6630 C   0  0  2  0  0  3  0  0  0  0  0  0
  190.2350  176.3510  139.7580 N   0  0  0  0  0  2  0  0  0  0  0  0
  189.6350  176.4220  138.4280 C   0  0  0  0  0  2  0  0  0  0  0  0
  192.8700  175.4790  137.7260 C   0  0  0  0  0  0  0  0  0  0  0  0
  190.7140  174.6620  136.5900 S   0  0  1  0  0  0  0  0  0  0  0  0
  192.0390  176.4420  137.9700 N   0  0  0  0  0  0  0  0  0  0  0  0
  190.7170  176.2920  137.3680 C   0  0  2  0  0  3  0  0  0  0  0  0
  192.3990  174.4030  136.9290 N   0  0  0  0  0  2  0  0  0  0  0  0
  190.0230  173.7470  137.5950 O   0  0  0  0  0  0  0  0  0  0  0  0
  194.2700  175.5210  138.2260 C   0  0  0  0  0  2  0  0  0  0  0  0
  196.2100  174.1370  137.5710 C   0  0  0  0  0  2  0  0  0  0  0  0
  194.8540  174.1210  138.2450 C   0  0  0  0  0  3  0  0  0  0  0  0
  196.1170  174.1270  139.0790 C   0  0  0  0  0  2  0  0  0  0  0  0
  1 10  1  0  0  0  0
  2 11  1  0  0  0  0
  2  1  2  0  0  0  0
  4  1  1  0  0  0  0
  4  7  2  0  0  0  0
  5  6  1  0  0  0  0
  7  8  1  0  0  0  0
  8  9  1  0  0  0  0
  8  3  2  0  0  0  0
  9 30  1  1  0  0  0
 10  6  2  0  0  0  0
 10  9  1  0  0  0  0
 11  5  2  0  0  0  0
 12  5  1  6  0  0  0
 12 13  1  0  0  0  0
 12 15  1  0  0  0  0
 13 15  1  1  0  0  0
 14 16  1  1  0  0  0
 14 12  1  0  0  0  0
 14 13  1  0  0  0  0
 17 16  1  0  0  0  0
 18 17  1  0  0  0  0
 19 18  1  1  0  0  0
 20 21  1  0  0  0  0
 20 19  1  0  0  0  0
 22 20  2  0  0  0  0
 23 24  2  0  0  0  0
 23 26  1  0  0  0  0
 23 19  1  0  0  0  0
 25 23  2  0  0  0  0
 28 29  2  0  0  0  0
 29 27  1  0  0  0  0
 29 26  1  0  0  0  0
 30 31  2  0  0  0  0
 32  2  1  0  0  0  0
 34 33  1  6  0  0  0
 34 32  1  0  0  0  0
 35 34  1  0  0  0  0
 36 35  1  0  0  0  0
 37 39  2  0  0  0  0
 37 43  1  0  0  0  0
 38 41  1  0  0  0  0
 38 40  1  0  0  0  0
 38 42  2  1  0  0  0
 40 39  1  0  0  0  0
 40 36  1  1  0  0  0
 41 37  1  0  0  0  0
 43 45  1  0  0  0  0
 44 45  1  0  0  0  0
 44 46  1  0  0  0  0
 45 46  1  0  0  0  0
M  END
>  <MODEL>
6

>  <REMARK>
 VINA RESULT:      -7.2      3.471      8.703
  Name = 
  17 active torsions:
  status: ('A' for Active; 'I' for Inactive)
    1  A    between atoms: C_2  and  C_40
    2  A    between atoms: C_3  and  C_23
    3  A    between atoms: C_4  and  C_42
    4  A    between atoms: C_6  and  S_14
    5  A    between atoms: C_6  and  C_33
    6  A    between atoms: C_7  and  N_9
    7  A    between atoms: N_9  and  C_15
    8  A    between atoms: S_14  and  C_42
    9  A    between atoms: C_15  and  N_35
   10  A    between atoms: C_16  and  C_21
   11  A    between atoms: N_19  and  C_20
   12  A    between atoms: N_19  and  C_32
   13  A    between atoms: C_20  and  C_43
   14  A    between atoms: C_22  and  C_23
   15  A    between atoms: C_27  and  C_37
   16  A    between atoms: N_35  and  C_37
   17  A    between atoms: C_42  and  C_43
                            x       y       z     vdW  Elec       q    Type
                         _______ _______ _______ _____ _____    ______ ____

>  <TORSDO>
F 17

$$$$
=
 OpenBabel10222417173D

 46 51  0  0  1  0  0  0  0  0999 V2000
  188.3670  177.6060  143.5380 C   0  0  0  0  0  0  0  0  0  0  0  0
  187.4780  177.8590  142.4830 C   0  0  0  0  0  0  0  0  0  0  0  0
  190.7620  176.4060  146.6190 O   0  0  0  0  0  0  0  0  0  0  0  0
  187.8860  177.5010  144.9260 C   0  0  0  0  0  3  0  0  0  0  0  0
  189.3210  177.6770  140.9230 C   0  0  0  0  0  0  0  0  0  0  0  0
  190.1660  177.4520  141.9690 N   0  0  0  0  0  0  0  0  0  0  0  0
  188.6840  177.1610  145.8910 N   0  0  0  0  0  0  0  0  0  0  0  0
  190.0750  176.8870  145.6790 C   0  0  0  0  0  0  0  0  0  0  0  0
  190.7370  177.2090  144.3670 C   0  0  1  0  0  3  0  0  0  0  0  0
  189.7320  177.4120  143.2570 C   0  0  0  0  0  0  0  0  0  0  0  0
  187.9640  177.8960  141.1700 C   0  0  0  0  0  3  0  0  0  0  0  0
  189.8250  177.7280  139.5050 C   0  0  2  0  0  0  0  0  0  0  0  0
  188.9880  176.7710  138.6660 C   0  0  2  0  0  3  0  0  0  0  0  0
  190.4240  176.4240  139.0090 C   0  0  1  0  0  3  0  0  0  0  0  0
  188.7920  178.2650  138.5330 C   0  0  0  0  0  2  0  0  0  0  0  0
  191.2770  176.6770  137.8590 N   0  0  0  0  0  2  0  0  0  0  0  0
  192.6440  176.6290  138.3420 C   0  0  0  0  0  2  0  0  0  0  0  0
  193.5370  176.0200  137.2800 C   0  0  0  0  0  2  0  0  0  0  0  0
  193.6500  174.5200  137.4980 C   0  0  1  0  0  3  0  0  0  0  0  0
  193.4490  173.7950  136.2080 C   0  0  0  0  0  0  0  0  0  0  0  0
  193.1010  172.4490  136.1950 O   0  0  0  0  0  1  0  0  0  0  0  0
  193.6150  174.4070  135.1210 O   0  0  0  0  0  0  0  0  0  0  0  0
  195.2260  174.0910  138.2360 S   0  0  0  0  0  0  0  0  0  0  0  0
  195.0680  172.8700  139.0980 O   0  0  0  0  0  0  0  0  0  0  0  0
  195.7190  175.2300  139.0830 O   0  0  0  0  0  0  0  0  0  0  0  0
  196.4220  173.7560  136.9560 C   0  0  0  0  0  2  0  0  0  0  0  0
  196.6600  175.9600  136.0800 O   0  0  0  0  0  0  0  0  0  0  0  0
  198.5640  175.0300  136.9530 O   0  0  0  0  0  1  0  0  0  0  0  0
  197.2110  174.9810  136.6480 C   0  0  0  0  0  0  0  0  0  0  0  0
  191.5950  178.4260  144.5330 C   0  0  0  0  0  3  0  0  0  0  0  0
  191.2030  179.6160  144.0820 C   0  0  0  0  0  2  0  0  0  0  0  0
  186.0830  178.0510  142.7490 N   0  0  0  0  0  2  0  0  0  0  0  0
  184.5430  179.7080  143.7050 C   0  0  0  0  0  1  0  0  0  0  0  0
  185.3780  179.3040  142.4980 C   0  0  2  0  0  3  0  0  0  0  0  0
  184.5600  179.2120  141.2870 N   0  0  0  0  0  2  0  0  0  0  0  0
  183.7790  177.9790  141.2850 C   0  0  0  0  0  2  0  0  0  0  0  0
  181.6810  179.0220  138.7640 C   0  0  0  0  0  0  0  0  0  0  0  0
  181.5460  176.8410  140.1180 S   0  0  1  0  0  0  0  0  0  0  0  0
  182.3230  179.3210  139.8480 N   0  0  0  0  0  0  0  0  0  0  0  0
  182.3480  178.2760  140.8670 C   0  0  2  0  0  3  0  0  0  0  0  0
  181.1000  177.7290  138.6910 N   0  0  0  0  0  2  0  0  0  0  0  0
  182.6900  175.9630  139.6250 O   0  0  0  0  0  0  0  0  0  0  0  0
  181.5230  180.0080  137.6620 C   0  0  0  0  0  2  0  0  0  0  0  0
  181.5830  182.4210  138.1900 C   0  0  0  0  0  2  0  0  0  0  0  0
  180.7020  181.1910  138.1410 C   0  0  0  0  0  3  0  0  0  0  0  0
  180.6330  182.2210  137.0330 C   0  0  0  0  0  2  0  0  0  0  0  0
  1  4  1  0  0  0  0
  2 32  1  0  0  0  0
  2  1  2  0  0  0  0
  4  7  2  0  0  0  0
  5 11  2  0  0  0  0
  5  6  1  0  0  0  0
  6 10  2  0  0  0  0
  8  7  1  0  0  0  0
  8  3  2  0  0  0  0
  9 30  1  1  0  0  0
  9  8  1  0  0  0  0
 10  1  1  0  0  0  0
 10  9  1  0  0  0  0
 11  2  1  0  0  0  0
 12  5  1  1  0  0  0
 13 15  1  6  0  0  0
 13 14  1  0  0  0  0
 13 12  1  0  0  0  0
 14 16  1  6  0  0  0
 14 12  1  0  0  0  0
 15 12  1  0  0  0  0
 16 17  1  0  0  0  0
 18 17  1  0  0  0  0
 19 18  1  6  0  0  0
 19 23  1  0  0  0  0
 20 19  1  0  0  0  0
 21 20  1  0  0  0  0
 22 20  2  0  0  0  0
 23 25  2  0  0  0  0
 23 24  2  0  0  0  0
 26 23  1  0  0  0  0
 27 29  2  0  0  0  0
 29 28  1  0  0  0  0
 29 26  1  0  0  0  0
 31 30  2  0  0  0  0
 34 32  1  0  0  0  0
 34 33  1  1  0  0  0
 35 34  1  0  0  0  0
 36 35  1  0  0  0  0
 37 39  2  0  0  0  0
 38 42  2  6  0  0  0
 38 40  1  0  0  0  0
 39 40  1  0  0  0  0
 40 36  1  6  0  0  0
 41 37  1  0  0  0  0
 41 38  1  0  0  0  0
 43 45  1  0  0  0  0
 43 37  1  0  0  0  0
 45 44  1  0  0  0  0
 46 45  1  0  0  0  0
 46 44  1  0  0  0  0
M  END
>  <MODEL>
7

>  <REMARK>
 VINA RESULT:      -7.1      3.530      5.459
  Name = 
  17 active torsions:
  status: ('A' for Active; 'I' for Inactive)
    1  A    between atoms: C_2  and  C_40
    2  A    between atoms: C_3  and  C_23
    3  A    between atoms: C_4  and  C_42
    4  A    between atoms: C_6  and  S_14
    5  A    between atoms: C_6  and  C_33
    6  A    between atoms: C_7  and  N_9
    7  A    between atoms: N_9  and  C_15
    8  A    between atoms: S_14  and  C_42
    9  A    between atoms: C_15  and  N_35
   10  A    between atoms: C_16  and  C_21
   11  A    between atoms: N_19  and  C_20
   12  A    between atoms: N_19  and  C_32
   13  A    between atoms: C_20  and  C_43
   14  A    between atoms: C_22  and  C_23
   15  A    between atoms: C_27  and  C_37
   16  A    between atoms: N_35  and  C_37
   17  A    between atoms: C_42  and  C_43
                            x       y       z     vdW  Elec       q    Type
                         _______ _______ _______ _____ _____    ______ ____

>  <TORSDO>
F 17

$$$$
=
 OpenBabel10222417173D

 46 51  0  0  1  0  0  0  0  0999 V2000
  185.7140  178.6690  143.4060 C   0  0  0  0  0  0  0  0  0  0  0  0
  186.1160  178.7470  142.0640 C   0  0  0  0  0  0  0  0  0  0  0  0
  184.1890  178.1230  147.1530 O   0  0  0  0  0  0  0  0  0  0  0  0
  184.4780  179.3250  143.8660 C   0  0  0  0  0  3  0  0  0  0  0  0
  187.9980  177.3110  142.5730 C   0  0  0  0  0  0  0  0  0  0  0  0
  187.5950  177.2680  143.8750 N   0  0  0  0  0  0  0  0  0  0  0  0
  184.0440  179.1670  145.0780 N   0  0  0  0  0  0  0  0  0  0  0  0
  184.7390  178.3720  146.0470 C   0  0  0  0  0  0  0  0  0  0  0  0
  186.1310  177.8670  145.7810 C   0  0  1  0  0  3  0  0  0  0  0  0
  186.4850  177.9200  144.3140 C   0  0  0  0  0  0  0  0  0  0  0  0
  187.2670  178.0640  141.6520 C   0  0  0  0  0  3  0  0  0  0  0  0
  189.2360  176.5890  142.1120 C   0  0  2  0  0  0  0  0  0  0  0  0
  190.4430  177.4650  142.4240 C   0  0  2  0  0  3  0  0  0  0  0  0
  189.9830  177.2860  140.9900 C   0  0  1  0  0  3  0  0  0  0  0  0
  190.1670  176.2310  143.2550 C   0  0  0  0  0  2  0  0  0  0  0  0
  190.8540  176.3400  140.3110 N   0  0  0  0  0  2  0  0  0  0  0  0
  190.8830  176.7360  138.9150 C   0  0  0  0  0  2  0  0  0  0  0  0
  192.2630  176.4840  138.3450 C   0  0  0  0  0  2  0  0  0  0  0  0
  192.3900  175.0290  137.9230 C   0  0  1  0  0  3  0  0  0  0  0  0
  191.2950  174.6700  136.9740 C   0  0  0  0  0  0  0  0  0  0  0  0
  191.0880  175.4100  135.8160 O   0  0  0  0  0  0  0  0  0  0  0  0
  190.5420  173.6970  137.2360 O   0  0  0  0  0  1  0  0  0  0  0  0
  193.9980  174.7040  137.2000 S   0  0  0  0  0  0  0  0  0  0  0  0
  194.6820  176.0020  136.8770 O   0  0  0  0  0  0  0  0  0  0  0  0
  193.8360  173.9060  135.9370 O   0  0  0  0  0  0  0  0  0  0  0  0
  195.0020  173.7790  138.3480 C   0  0  0  0  0  2  0  0  0  0  0  0
  195.8220  175.2490  140.0350 O   0  0  0  0  0  1  0  0  0  0  0  0
  197.2530  174.8470  138.2910 O   0  0  0  0  0  0  0  0  0  0  0  0
  196.0450  174.6550  138.9480 C   0  0  0  0  0  0  0  0  0  0  0  0
  187.1070  178.6670  146.5900 C   0  0  0  0  0  3  0  0  0  0  0  0
  187.6160  178.1940  147.7260 C   0  0  0  0  0  2  0  0  0  0  0  0
  185.3380  179.4980  141.1230 N   0  0  0  0  0  2  0  0  0  0  0  0
  183.9970  177.8160  139.9390 C   0  0  0  0  0  1  0  0  0  0  0  0
  184.9540  178.9920  139.8090 C   0  0  2  0  0  3  0  0  0  0  0  0
  186.1340  178.6380  139.0170 N   0  0  0  0  0  2  0  0  0  0  0  0
  185.7600  177.7980  137.8820 C   0  0  0  0  0  2  0  0  0  0  0  0
  186.8800  175.2600  135.8460 C   0  0  0  0  0  0  0  0  0  0  0  0
  187.9490  177.5690  136.2100 S   0  0  1  0  0  0  0  0  0  0  0  0
  186.4110  175.6100  137.0010 N   0  0  0  0  0  0  0  0  0  0  0  0
  186.9150  176.8780  137.5200 C   0  0  2  0  0  3  0  0  0  0  0  0
  187.8010  176.1430  135.2260 N   0  0  0  0  0  2  0  0  0  0  0  0
  187.0550  178.5710  135.4880 O   0  0  0  0  0  0  0  0  0  0  0  0
  186.5000  173.9660  135.2180 C   0  0  0  0  0  2  0  0  0  0  0  0
  185.9080  171.6030  135.6350 C   0  0  0  0  0  2  0  0  0  0  0  0
  186.2840  172.9150  136.2910 C   0  0  0  0  0  3  0  0  0  0  0  0
  187.3210  171.8240  136.1250 C   0  0  0  0  0  2  0  0  0  0  0  0
  1  4  1  0  0  0  0
  1 10  1  0  0  0  0
  2  1  2  0  0  0  0
  4  7  2  0  0  0  0
  5  6  1  0  0  0  0
  6 10  2  0  0  0  0
  7  8  1  0  0  0  0
  8  3  2  0  0  0  0
  9  8  1  0  0  0  0
  9 30  1  1  0  0  0
 10  9  1  0  0  0  0
 11  2  1  0  0  0  0
 11  5  2  0  0  0  0
 12 13  1  0  0  0  0
 12  5  1  1  0  0  0
 12 15  1  0  0  0  0
 13 15  1  6  0  0  0
 14 16  1  6  0  0  0
 14 12  1  0  0  0  0
 14 13  1  0  0  0  0
 17 16  1  0  0  0  0
 18 17  1  0  0  0  0
 19 18  1  6  0  0  0
 20 22  1  0  0  0  0
 20 19  1  0  0  0  0
 21 20  2  0  0  0  0
 23 19  1  0  0  0  0
 23 26  1  0  0  0  0
 24 23  2  0  0  0  0
 25 23  2  0  0  0  0
 26 29  1  0  0  0  0
 28 29  2  0  0  0  0
 29 27  1  0  0  0  0
 30 31  2  0  0  0  0
 32  2  1  0  0  0  0
 34 33  1  1  0  0  0
 34 32  1  0  0  0  0
 35 34  1  0  0  0  0
 36 35  1  0  0  0  0
 37 39  2  0  0  0  0
 38 42  2  6  0  0  0
 38 40  1  0  0  0  0
 39 40  1  0  0  0  0
 40 36  1  6  0  0  0
 41 37  1  0  0  0  0
 41 38  1  0  0  0  0
 43 37  1  0  0  0  0
 43 45  1  0  0  0  0
 44 46  1  0  0  0  0
 44 45  1  0  0  0  0
 46 45  1  0  0  0  0
M  END
>  <MODEL>
8

>  <REMARK>
 VINA RESULT:      -7.1      3.428      6.363
  Name = 
  17 active torsions:
  status: ('A' for Active; 'I' for Inactive)
    1  A    between atoms: C_2  and  C_40
    2  A    between atoms: C_3  and  C_23
    3  A    between atoms: C_4  and  C_42
    4  A    between atoms: C_6  and  S_14
    5  A    between atoms: C_6  and  C_33
    6  A    between atoms: C_7  and  N_9
    7  A    between atoms: N_9  and  C_15
    8  A    between atoms: S_14  and  C_42
    9  A    between atoms: C_15  and  N_35
   10  A    between atoms: C_16  and  C_21
   11  A    between atoms: N_19  and  C_20
   12  A    between atoms: N_19  and  C_32
   13  A    between atoms: C_20  and  C_43
   14  A    between atoms: C_22  and  C_23
   15  A    between atoms: C_27  and  C_37
   16  A    between atoms: N_35  and  C_37
   17  A    between atoms: C_42  and  C_43
                            x       y       z     vdW  Elec       q    Type
                         _______ _______ _______ _____ _____    ______ ____

>  <TORSDO>
F 17

$$$$
=
 OpenBabel10222417173D

 46 51  0  0  1  0  0  0  0  0999 V2000
  185.6780  178.5900  143.5010 C   0  0  0  0  0  0  0  0  0  0  0  0
  186.0190  178.6630  142.1430 C   0  0  0  0  0  0  0  0  0  0  0  0
  184.3330  178.0510  147.3180 O   0  0  0  0  0  0  0  0  0  0  0  0
  184.4460  179.2190  144.0080 C   0  0  0  0  0  3  0  0  0  0  0  0
  187.9600  177.2840  142.5860 C   0  0  0  0  0  0  0  0  0  0  0  0
  187.6150  177.2460  143.9050 N   0  0  0  0  0  0  0  0  0  0  0  0
  184.0690  179.0650  145.2400 N   0  0  0  0  0  0  0  0  0  0  0  0
  184.8260  178.3010  146.1860 C   0  0  0  0  0  0  0  0  0  0  0  0
  186.2190  177.8310  145.8650 C   0  0  1  0  0  3  0  0  0  0  0  0
  186.5080  177.8750  144.3830 C   0  0  0  0  0  0  0  0  0  0  0  0
  187.1700  178.0050  141.6890 C   0  0  0  0  0  3  0  0  0  0  0  0
  189.1960  176.5900  142.0790 C   0  0  2  0  0  0  0  0  0  0  0  0
  190.3630  177.5650  142.1730 C   0  0  2  0  0  3  0  0  0  0  0  0
  189.7840  177.2010  140.8200 C   0  0  1  0  0  3  0  0  0  0  0  0
  190.2540  176.4170  143.1530 C   0  0  0  0  0  2  0  0  0  0  0  0
  190.6500  176.2380  140.1590 N   0  0  0  0  0  2  0  0  0  0  0  0
  191.4480  176.9880  139.2080 C   0  0  0  0  0  2  0  0  0  0  0  0
  191.3130  176.3700  137.8320 C   0  0  0  0  0  2  0  0  0  0  0  0
  192.1840  175.1280  137.7350 C   0  0  1  0  0  3  0  0  0  0  0  0
  191.3870  173.9790  137.2130 C   0  0  0  0  0  0  0  0  0  0  0  0
  191.9760  173.0140  136.4040 O   0  0  0  0  0  0  0  0  0  0  0  0
  190.1640  173.8940  137.4950 O   0  0  0  0  0  1  0  0  0  0  0  0
  193.6230  175.4270  136.7100 S   0  0  0  0  0  0  0  0  0  0  0  0
  194.2350  176.7530  137.0670 O   0  0  0  0  0  0  0  0  0  0  0  0
  193.2220  175.4460  135.2610 O   0  0  0  0  0  0  0  0  0  0  0  0
  194.8260  174.1360  136.9640 C   0  0  0  0  0  2  0  0  0  0  0  0
  195.0510  173.0750  139.0860 O   0  0  0  0  0  1  0  0  0  0  0  0
  195.8590  175.2160  138.9580 O   0  0  0  0  0  0  0  0  0  0  0  0
  195.2590  174.1010  138.3880 C   0  0  0  0  0  0  0  0  0  0  0  0
  187.2070  178.6660  146.6220 C   0  0  0  0  0  3  0  0  0  0  0  0
  187.8480  178.1870  147.6860 C   0  0  0  0  0  2  0  0  0  0  0  0
  185.1820  179.3800  141.2280 N   0  0  0  0  0  2  0  0  0  0  0  0
  184.0030  179.8580  139.1270 C   0  0  0  0  0  1  0  0  0  0  0  0
  184.6100  178.7880  140.0230 C   0  0  2  0  0  3  0  0  0  0  0  0
  183.6310  177.7520  140.3610 N   0  0  0  0  0  2  0  0  0  0  0  0
  183.1060  177.1260  139.1510 C   0  0  0  0  0  2  0  0  0  0  0  0
  180.0100  177.9050  140.4340 C   0  0  0  0  0  0  0  0  0  0  0  0
  180.5730  177.1430  138.0450 S   0  0  1  0  0  0  0  0  0  0  0  0
  181.1360  177.2860  140.5920 N   0  0  0  0  0  0  0  0  0  0  0  0
  181.6790  176.6610  139.3890 C   0  0  2  0  0  3  0  0  0  0  0  0
  179.4540  177.9160  139.1280 N   0  0  0  0  0  2  0  0  0  0  0  0
  181.2620  178.3250  137.3720 O   0  0  0  0  0  0  0  0  0  0  0  0
  179.3090  178.5410  141.5820 C   0  0  0  0  0  2  0  0  0  0  0  0
  179.6490  179.7420  143.7150 C   0  0  0  0  0  2  0  0  0  0  0  0
  180.3000  178.8340  142.6930 C   0  0  0  0  0  3  0  0  0  0  0  0
  179.7680  178.2600  143.9890 C   0  0  0  0  0  2  0  0  0  0  0  0
  1  4  1  0  0  0  0
  1 10  1  0  0  0  0
  2  1  2  0  0  0  0
  4  7  2  0  0  0  0
  5  6  1  0  0  0  0
  6 10  2  0  0  0  0
  7  8  1  0  0  0  0
  8  3  2  0  0  0  0
  9  8  1  0  0  0  0
  9 30  1  1  0  0  0
 10  9  1  0  0  0  0
 11  2  1  0  0  0  0
 11  5  2  0  0  0  0
 12 13  1  0  0  0  0
 12  5  1  1  0  0  0
 12 15  1  0  0  0  0
 13 15  1  6  0  0  0
 14 16  1  6  0  0  0
 14 12  1  0  0  0  0
 14 13  1  0  0  0  0
 17 16  1  0  0  0  0
 18 17  1  0  0  0  0
 19 18  1  6  0  0  0
 20 22  1  0  0  0  0
 20 19  1  0  0  0  0
 21 20  2  0  0  0  0
 23 26  1  0  0  0  0
 23 24  2  0  0  0  0
 23 19  1  0  0  0  0
 25 23  2  0  0  0  0
 26 29  1  0  0  0  0
 29 28  2  0  0  0  0
 29 27  1  0  0  0  0
 30 31  2  0  0  0  0
 32  2  1  0  0  0  0
 34 33  1  1  0  0  0
 34 35  1  0  0  0  0
 34 32  1  0  0  0  0
 36 35  1  0  0  0  0
 37 39  2  0  0  0  0
 37 43  1  0  0  0  0
 38 42  2  6  0  0  0
 38 41  1  0  0  0  0
 38 40  1  0  0  0  0
 40 36  1  6  0  0  0
 40 39  1  0  0  0  0
 41 37  1  0  0  0  0
 43 45  1  0  0  0  0
 44 46  1  0  0  0  0
 45 44  1  0  0  0  0
 45 46  1  0  0  0  0
M  END
>  <MODEL>
9

>  <REMARK>
 VINA RESULT:      -7.1      2.972      4.629
  Name = 
  17 active torsions:
  status: ('A' for Active; 'I' for Inactive)
    1  A    between atoms: C_2  and  C_40
    2  A    between atoms: C_3  and  C_23
    3  A    between atoms: C_4  and  C_42
    4  A    between atoms: C_6  and  S_14
    5  A    between atoms: C_6  and  C_33
    6  A    between atoms: C_7  and  N_9
    7  A    between atoms: N_9  and  C_15
    8  A    between atoms: S_14  and  C_42
    9  A    between atoms: C_15  and  N_35
   10  A    between atoms: C_16  and  C_21
   11  A    between atoms: N_19  and  C_20
   12  A    between atoms: N_19  and  C_32
   13  A    between atoms: C_20  and  C_43
   14  A    between atoms: C_22  and  C_23
   15  A    between atoms: C_27  and  C_37
   16  A    between atoms: N_35  and  C_37
   17  A    between atoms: C_42  and  C_43
                            x       y       z     vdW  Elec       q    Type
                         _______ _______ _______ _____ _____    ______ ____

>  <TORSDO>
F 17

$$$$
