=
 OpenBabel10222416103D

 26 27  0  0  1  0  0  0  0  0999 V2000
  189.8660  177.0730  139.8710 C   0  0  0  0  0  0  0  0  0  0  0  0
  188.1490  178.6070  139.7540 N   0  0  0  0  0  0  0  0  0  0  0  0
  188.8520  177.7540  140.6470 C   0  0  0  0  0  0  0  0  0  0  0  0
  190.6980  176.2260  140.2910 O   0  0  0  0  0  0  0  0  0  0  0  0
  188.6170  177.6700  141.9670 C   0  0  1  0  0  3  0  0  0  0  0  0
  189.7780  177.4840  138.5550 O   0  0  0  0  0  0  0  0  0  0  0  0
  188.7250  178.4380  138.4160 C   0  0  0  0  0  2  0  0  0  0  0  0
  188.9410  175.6360  143.1510 O   0  0  0  0  0  1  0  0  0  0  0  0
  189.5270  176.8660  142.8470 C   0  0  2  0  0  3  0  0  0  0  0  0
  189.8280  177.6360  144.1290 C   0  0  0  0  0  2  0  0  0  0  0  0
  191.2440  178.1990  144.1340 C   0  0  0  0  0  0  0  0  0  0  0  0
  191.9270  177.7110  143.0390 F   0  0  0  0  0  0  0  0  0  0  0  0
  191.9070  177.8110  145.2860 F   0  0  0  0  0  0  0  0  0  0  0  0
  191.2110  179.5790  144.0630 F   0  0  0  0  0  0  0  0  0  0  0  0
  187.5870  178.4540  142.5870 N   0  0  0  0  0  2  0  0  0  0  0  0
  186.2410  178.2790  144.6580 C   0  0  0  0  0  2  0  0  0  0  0  0
  184.7760  178.2690  145.0870 C   0  0  0  0  0  2  0  0  0  0  0  0
  186.3650  177.9100  143.1790 C   0  0  0  0  0  3  0  0  0  0  0  0
  183.9660  179.2560  144.3470 N   0  0  0  0  0  0  0  0  0  0  0  0
  184.4190  179.4910  142.9650 C   0  0  0  0  0  2  0  0  0  0  0  0
  185.1250  178.2780  142.3560 C   0  0  0  0  0  2  0  0  0  0  0  0
  182.6120  178.7210  144.2710 C   0  0  0  0  0  2  0  0  0  0  0  0
  181.8900  179.3620  143.2230 O   0  0  0  0  0  0  0  0  0  0  0  0
  180.5160  179.6130  143.2950 C   0  0  0  0  0  0  0  0  0  0  0  0
  180.0360  180.6010  142.6800 O   0  0  0  0  0  0  0  0  0  0  0  0
  179.6010  178.7420  144.0930 C   0  0  0  0  0  1  0  0  0  0  0  0
  1  4  2  0  0  0  0
  1  3  1  0  0  0  0
  2  3  2  0  0  0  0
  3  5  1  0  0  0  0
  5 15  1  1  0  0  0
  5  9  1  0  0  0  0
  6  1  1  0  0  0  0
  7  6  1  0  0  0  0
  7  2  1  0  0  0  0
  9  8  1  1  0  0  0
  9 10  1  0  0  0  0
 10 11  1  0  0  0  0
 11 13  1  0  0  0  0
 12 11  1  0  0  0  0
 14 11  1  0  0  0  0
 15 18  1  0  0  0  0
 16 17  1  0  0  0  0
 18 16  1  0  0  0  0
 19 17  1  0  0  0  0
 20 19  1  0  0  0  0
 21 20  1  0  0  0  0
 21 18  1  0  0  0  0
 22 19  1  0  0  0  0
 23 24  1  0  0  0  0
 23 22  1  0  0  0  0
 24 26  1  0  0  0  0
 25 24  2  0  0  0  0
M  END
>  <MODEL>
1

>  <REMARK>
 VINA RESULT:      -7.0      0.000      0.000
  Name = 
  8 active torsions:
  status: ('A' for Active; 'I' for Inactive)
    1  A    between atoms: C_3  and  C_20
    2  A    between atoms: C_4  and  N_18
    3  A    between atoms: C_4  and  O_19
    4  A    between atoms: C_7  and  O_19
    5  A    between atoms: C_10  and  C_14
    6  A    between atoms: C_10  and  C_20
    7  A    between atoms: C_14  and  N_21
    8  A    between atoms: C_16  and  N_21
                            x       y       z     vdW  Elec       q    Type
                         _______ _______ _______ _____ _____    ______ ____

>  <TORSDO>
F 8

$$$$
=
 OpenBabel10222416103D

 26 27  0  0  1  0  0  0  0  0999 V2000
  188.3340  177.8940  146.8870 C   0  0  0  0  0  0  0  0  0  0  0  0
  187.3320  177.1860  144.9360 N   0  0  0  0  0  0  0  0  0  0  0  0
  188.5920  177.4600  145.5310 C   0  0  0  0  0  0  0  0  0  0  0  0
  189.1880  178.2360  147.7470 O   0  0  0  0  0  0  0  0  0  0  0  0
  189.7780  177.2820  144.9260 C   0  0  0  0  0  0  0  0  0  0  0  0
  186.9700  177.8980  147.1080 O   0  0  0  0  0  0  0  0  0  0  0  0
  186.2890  177.4690  145.9270 C   0  0  0  0  0  3  0  0  0  0  0  0
  191.9290  178.2840  145.0170 O   0  0  0  0  0  1  0  0  0  0  0  0
  191.0530  177.4380  145.6990 C   0  0  2  0  0  3  0  0  0  0  0  0
  191.7030  176.0750  145.9170 C   0  0  0  0  0  2  0  0  0  0  0  0
  192.0280  175.8310  147.3860 C   0  0  0  0  0  0  0  0  0  0  0  0
  191.8100  176.9940  148.0950 F   0  0  0  0  0  0  0  0  0  0  0  0
  193.3550  175.4610  147.5240 F   0  0  0  0  0  0  0  0  0  0  0  0
  191.2160  174.8350  147.8960 F   0  0  0  0  0  0  0  0  0  0  0  0
  189.8540  176.8010  143.5740 N   0  0  0  0  0  2  0  0  0  0  0  0
  190.9210  176.8390  141.3400 C   0  0  0  0  0  2  0  0  0  0  0  0
  190.7000  177.4610  139.9640 C   0  0  0  0  0  2  0  0  0  0  0  0
  190.1660  177.6290  142.4100 C   0  0  0  0  0  3  0  0  0  0  0  0
  189.2810  177.4460  139.5610 N   0  0  0  0  0  0  0  0  0  0  0  0
  188.3350  177.5710  140.6850 C   0  0  0  0  0  2  0  0  0  0  0  0
  188.9200  178.3410  141.8710 C   0  0  0  0  0  2  0  0  0  0  0  0
  189.0740  178.6010  138.6950 C   0  0  0  0  0  2  0  0  0  0  0  0
  187.6990  178.7040  138.3350 O   0  0  0  0  0  0  0  0  0  0  0  0
  187.1740  178.1140  137.1810 C   0  0  0  0  0  0  0  0  0  0  0  0
  187.2760  178.7160  136.0790 O   0  0  0  0  0  0  0  0  0  0  0  0
  186.4840  176.7900  137.2220 C   0  0  0  0  0  1  0  0  0  0  0  0
  1  6  1  0  0  0  0
  1  4  2  0  0  0  0
  2  3  1  0  0  0  0
  2  7  2  0  0  0  0
  3  1  1  0  0  0  0
  5  3  2  0  0  0  0
  5  9  1  0  0  0  0
  7  6  1  0  0  0  0
  9  8  1  6  0  0  0
  9 10  1  0  0  0  0
 10 11  1  0  0  0  0
 11 13  1  0  0  0  0
 11 14  1  0  0  0  0
 11 12  1  0  0  0  0
 15  5  1  0  0  0  0
 16 18  1  0  0  0  0
 17 16  1  0  0  0  0
 18 15  1  0  0  0  0
 19 17  1  0  0  0  0
 19 20  1  0  0  0  0
 20 21  1  0  0  0  0
 21 18  1  0  0  0  0
 22 19  1  0  0  0  0
 23 22  1  0  0  0  0
 24 26  1  0  0  0  0
 24 23  1  0  0  0  0
 25 24  2  0  0  0  0
M  END
>  <MODEL>
2

>  <REMARK>
 VINA RESULT:      -6.9      3.966      6.450
  Name = 
  8 active torsions:
  status: ('A' for Active; 'I' for Inactive)
    1  A    between atoms: C_3  and  C_20
    2  A    between atoms: C_4  and  N_18
    3  A    between atoms: C_4  and  O_19
    4  A    between atoms: C_7  and  O_19
    5  A    between atoms: C_10  and  C_14
    6  A    between atoms: C_10  and  C_20
    7  A    between atoms: C_14  and  N_21
    8  A    between atoms: C_16  and  N_21
                            x       y       z     vdW  Elec       q    Type
                         _______ _______ _______ _____ _____    ______ ____

>  <TORSDO>
F 8

$$$$
=
 OpenBabel10222416103D

 26 27  0  0  1  0  0  0  0  0999 V2000
  189.5360  177.4340  147.0300 C   0  0  0  0  0  0  0  0  0  0  0  0
  190.6310  176.6850  145.1450 N   0  0  0  0  0  0  0  0  0  0  0  0
  189.3660  177.1140  145.6290 C   0  0  0  0  0  0  0  0  0  0  0  0
  188.6500  177.8470  147.8240 O   0  0  0  0  0  0  0  0  0  0  0  0
  188.2600  177.2340  144.8760 C   0  0  0  0  0  0  0  0  0  0  0  0
  190.8480  177.1990  147.3910 O   0  0  0  0  0  0  0  0  0  0  0  0
  191.5820  176.7270  146.2600 C   0  0  0  0  0  3  0  0  0  0  0  0
  186.3950  176.9690  146.3220 O   0  0  0  0  0  1  0  0  0  0  0  0
  187.0210  177.8570  145.4450 C   0  0  2  0  0  3  0  0  0  0  0  0
  186.0660  178.2450  144.3200 C   0  0  0  0  0  2  0  0  0  0  0  0
  184.9910  179.2130  144.7980 C   0  0  0  0  0  0  0  0  0  0  0  0
  185.4300  179.8450  145.9420 F   0  0  0  0  0  0  0  0  0  0  0  0
  183.8240  178.5260  145.0820 F   0  0  0  0  0  0  0  0  0  0  0  0
  184.7400  180.1660  143.8280 F   0  0  0  0  0  0  0  0  0  0  0  0
  188.2780  176.9060  143.4780 N   0  0  0  0  0  2  0  0  0  0  0  0
  189.8850  176.6270  141.6140 C   0  0  0  0  0  2  0  0  0  0  0  0
  190.1890  177.2400  140.2490 C   0  0  0  0  0  2  0  0  0  0  0  0
  189.0720  177.6030  142.4660 C   0  0  0  0  0  3  0  0  0  0  0  0
  188.9660  177.5370  139.4800 N   0  0  0  0  0  0  0  0  0  0  0  0
  187.8080  177.9100  140.3120 C   0  0  0  0  0  2  0  0  0  0  0  0
  188.2130  178.5630  141.6350 C   0  0  0  0  0  2  0  0  0  0  0  0
  189.2690  178.6790  138.6270 C   0  0  0  0  0  2  0  0  0  0  0  0
  188.1750  178.9430  137.7530 O   0  0  0  0  0  0  0  0  0  0  0  0
  187.9670  178.2320  136.5670 C   0  0  0  0  0  0  0  0  0  0  0  0
  188.9410  178.0170  135.7970 O   0  0  0  0  0  0  0  0  0  0  0  0
  186.6150  177.7270  136.1830 C   0  0  0  0  0  1  0  0  0  0  0  0
  1  6  1  0  0  0  0
  1  4  2  0  0  0  0
  2  3  1  0  0  0  0
  2  7  2  0  0  0  0
  3  1  1  0  0  0  0
  5  9  1  0  0  0  0
  5  3  2  0  0  0  0
  7  6  1  0  0  0  0
  9  8  1  1  0  0  0
 10 11  1  0  0  0  0
 10  9  1  0  0  0  0
 11 13  1  0  0  0  0
 11 12  1  0  0  0  0
 14 11  1  0  0  0  0
 15  5  1  0  0  0  0
 16 18  1  0  0  0  0
 17 16  1  0  0  0  0
 18 15  1  0  0  0  0
 19 17  1  0  0  0  0
 19 20  1  0  0  0  0
 20 21  1  0  0  0  0
 21 18  1  0  0  0  0
 22 19  1  0  0  0  0
 23 22  1  0  0  0  0
 24 23  1  0  0  0  0
 25 24  2  0  0  0  0
 26 24  1  0  0  0  0
M  END
>  <MODEL>
3

>  <REMARK>
 VINA RESULT:      -6.6      3.912      6.959
  Name = 
  8 active torsions:
  status: ('A' for Active; 'I' for Inactive)
    1  A    between atoms: C_3  and  C_20
    2  A    between atoms: C_4  and  N_18
    3  A    between atoms: C_4  and  O_19
    4  A    between atoms: C_7  and  O_19
    5  A    between atoms: C_10  and  C_14
    6  A    between atoms: C_10  and  C_20
    7  A    between atoms: C_14  and  N_21
    8  A    between atoms: C_16  and  N_21
                            x       y       z     vdW  Elec       q    Type
                         _______ _______ _______ _____ _____    ______ ____

>  <TORSDO>
F 8

$$$$
=
 OpenBabel10222416103D

 26 27  0  0  1  0  0  0  0  0999 V2000
  185.1370  179.0470  145.6940 C   0  0  0  0  0  0  0  0  0  0  0  0
  184.7870  178.1340  143.6060 N   0  0  0  0  0  0  0  0  0  0  0  0
  185.7880  178.3860  144.5820 C   0  0  0  0  0  0  0  0  0  0  0  0
  185.6780  179.4420  146.7600 O   0  0  0  0  0  0  0  0  0  0  0  0
  187.0730  178.0130  144.4730 C   0  0  1  0  0  3  0  0  0  0  0  0
  183.7960  179.2030  145.4020 O   0  0  0  0  0  0  0  0  0  0  0  0
  183.5150  178.6570  144.1130 C   0  0  0  0  0  2  0  0  0  0  0  0
  189.3240  178.2940  145.1770 O   0  0  0  0  0  1  0  0  0  0  0  0
  188.0100  178.1760  145.6320 C   0  0  2  0  0  3  0  0  0  0  0  0
  187.8860  176.9840  146.5760 C   0  0  0  0  0  2  0  0  0  0  0  0
  188.5510  177.2540  147.9210 C   0  0  0  0  0  0  0  0  0  0  0  0
  189.8460  176.7810  147.8860 F   0  0  0  0  0  0  0  0  0  0  0  0
  187.8610  176.6050  148.9300 F   0  0  0  0  0  0  0  0  0  0  0  0
  188.5760  178.6120  148.1790 F   0  0  0  0  0  0  0  0  0  0  0  0
  187.5470  177.3240  143.3050 N   0  0  0  0  0  2  0  0  0  0  0  0
  189.3040  176.7660  141.6510 C   0  0  0  0  0  2  0  0  0  0  0  0
  189.8030  177.2440  140.2900 C   0  0  0  0  0  2  0  0  0  0  0  0
  188.5030  177.8700  142.3420 C   0  0  0  0  0  3  0  0  0  0  0  0
  188.7000  177.5870  139.3730 N   0  0  0  0  0  0  0  0  0  0  0  0
  187.5030  178.1210  140.0480 C   0  0  0  0  0  2  0  0  0  0  0  0
  187.8290  178.8350  141.3610 C   0  0  0  0  0  2  0  0  0  0  0  0
  189.1950  178.6310  138.4850 C   0  0  0  0  0  2  0  0  0  0  0  0
  189.5540  178.0720  137.2240 O   0  0  0  0  0  0  0  0  0  0  0  0
  188.6060  177.6560  136.2850 C   0  0  0  0  0  0  0  0  0  0  0  0
  188.8530  176.6560  135.5590 O   0  0  0  0  0  0  0  0  0  0  0  0
  187.3070  178.3740  136.1110 C   0  0  0  0  0  1  0  0  0  0  0  0
  1  4  2  0  0  0  0
  2  7  1  0  0  0  0
  2  3  2  0  0  0  0
  3  1  1  0  0  0  0
  5 15  1  1  0  0  0
  5  3  1  0  0  0  0
  5  9  1  0  0  0  0
  6  1  1  0  0  0  0
  7  6  1  0  0  0  0
  9  8  1  6  0  0  0
  9 10  1  0  0  0  0
 10 11  1  0  0  0  0
 11 14  1  0  0  0  0
 11 13  1  0  0  0  0
 12 11  1  0  0  0  0
 16 18  1  0  0  0  0
 17 16  1  0  0  0  0
 18 15  1  0  0  0  0
 19 20  1  0  0  0  0
 19 17  1  0  0  0  0
 20 21  1  0  0  0  0
 21 18  1  0  0  0  0
 22 19  1  0  0  0  0
 23 22  1  0  0  0  0
 24 23  1  0  0  0  0
 25 24  2  0  0  0  0
 26 24  1  0  0  0  0
M  END
>  <MODEL>
4

>  <REMARK>
 VINA RESULT:      -6.5      2.690      6.788
  Name = 
  8 active torsions:
  status: ('A' for Active; 'I' for Inactive)
    1  A    between atoms: C_3  and  C_20
    2  A    between atoms: C_4  and  N_18
    3  A    between atoms: C_4  and  O_19
    4  A    between atoms: C_7  and  O_19
    5  A    between atoms: C_10  and  C_14
    6  A    between atoms: C_10  and  C_20
    7  A    between atoms: C_14  and  N_21
    8  A    between atoms: C_16  and  N_21
                            x       y       z     vdW  Elec       q    Type
                         _______ _______ _______ _____ _____    ______ ____

>  <TORSDO>
F 8

$$$$
=
 OpenBabel10222416103D

 26 27  0  0  1  0  0  0  0  0999 V2000
  189.4160  176.7070  147.0280 C   0  0  0  0  0  0  0  0  0  0  0  0
  191.0030  177.3110  145.4690 N   0  0  0  0  0  0  0  0  0  0  0  0
  189.6040  177.1550  145.6650 C   0  0  0  0  0  0  0  0  0  0  0  0
  188.3210  176.4480  147.5940 O   0  0  0  0  0  0  0  0  0  0  0  0
  188.6680  177.4360  144.7440 C   0  0  0  0  0  0  0  0  0  0  0  0
  190.6500  176.5820  147.6360 O   0  0  0  0  0  0  0  0  0  0  0  0
  191.6810  176.9410  146.7150 C   0  0  0  0  0  3  0  0  0  0  0  0
  186.4790  176.7780  144.0970 O   0  0  0  0  0  1  0  0  0  0  0  0
  187.2140  177.4000  145.1080 C   0  0  2  0  0  3  0  0  0  0  0  0
  186.6960  178.8160  145.3380 C   0  0  0  0  0  2  0  0  0  0  0  0
  185.5540  178.8460  146.3460 C   0  0  0  0  0  0  0  0  0  0  0  0
  185.3930  177.5850  146.8820 F   0  0  0  0  0  0  0  0  0  0  0  0
  184.3780  179.2220  145.7210 F   0  0  0  0  0  0  0  0  0  0  0  0
  185.8380  179.7330  147.3670 F   0  0  0  0  0  0  0  0  0  0  0  0
  189.0320  177.9140  143.4400 N   0  0  0  0  0  2  0  0  0  0  0  0
  188.3650  177.9440  141.0550 C   0  0  0  0  0  2  0  0  0  0  0  0
  188.8370  177.3840  139.7160 C   0  0  0  0  0  2  0  0  0  0  0  0
  188.9500  177.1280  142.2090 C   0  0  0  0  0  3  0  0  0  0  0  0
  190.3030  177.4500  139.5640 N   0  0  0  0  0  0  0  0  0  0  0  0
  191.0460  177.3010  140.8280 C   0  0  0  0  0  2  0  0  0  0  0  0
  190.2910  176.4690  141.8670 C   0  0  0  0  0  2  0  0  0  0  0  0
  190.6910  176.3380  138.7040 C   0  0  0  0  0  2  0  0  0  0  0  0
  191.6510  176.7700  137.7450 O   0  0  0  0  0  0  0  0  0  0  0  0
  192.8610  176.1020  137.5340 C   0  0  0  0  0  0  0  0  0  0  0  0
  193.9110  176.7710  137.3400 O   0  0  0  0  0  0  0  0  0  0  0  0
  192.9410  174.6100  137.5210 C   0  0  0  0  0  1  0  0  0  0  0  0
  1  4  2  0  0  0  0
  1  6  1  0  0  0  0
  2  3  1  0  0  0  0
  2  7  2  0  0  0  0
  3  1  1  0  0  0  0
  5  9  1  0  0  0  0
  5  3  2  0  0  0  0
  7  6  1  0  0  0  0
  9  8  1  6  0  0  0
  9 10  1  0  0  0  0
 10 11  1  0  0  0  0
 11 12  1  0  0  0  0
 11 14  1  0  0  0  0
 13 11  1  0  0  0  0
 15  5  1  0  0  0  0
 16 18  1  0  0  0  0
 17 16  1  0  0  0  0
 18 15  1  0  0  0  0
 19 17  1  0  0  0  0
 19 20  1  0  0  0  0
 20 21  1  0  0  0  0
 21 18  1  0  0  0  0
 22 19  1  0  0  0  0
 23 22  1  0  0  0  0
 24 23  1  0  0  0  0
 25 24  2  0  0  0  0
 26 24  1  0  0  0  0
M  END
>  <MODEL>
5

>  <REMARK>
 VINA RESULT:      -6.5      4.021      8.103
  Name = 
  8 active torsions:
  status: ('A' for Active; 'I' for Inactive)
    1  A    between atoms: C_3  and  C_20
    2  A    between atoms: C_4  and  N_18
    3  A    between atoms: C_4  and  O_19
    4  A    between atoms: C_7  and  O_19
    5  A    between atoms: C_10  and  C_14
    6  A    between atoms: C_10  and  C_20
    7  A    between atoms: C_14  and  N_21
    8  A    between atoms: C_16  and  N_21
                            x       y       z     vdW  Elec       q    Type
                         _______ _______ _______ _____ _____    ______ ____

>  <TORSDO>
F 8

$$$$
=
 OpenBabel10222416103D

 26 27  0  0  1  0  0  0  0  0999 V2000
  183.7050  178.8260  144.7350 C   0  0  0  0  0  0  0  0  0  0  0  0
  185.9510  178.8390  145.2510 N   0  0  0  0  0  0  0  0  0  0  0  0
  185.0340  178.7240  144.1720 C   0  0  0  0  0  0  0  0  0  0  0  0
  182.6130  178.7670  144.1100 O   0  0  0  0  0  0  0  0  0  0  0  0
  185.3840  178.5990  142.8820 C   0  0  0  0  0  0  0  0  0  0  0  0
  183.8050  178.9840  146.1030 O   0  0  0  0  0  0  0  0  0  0  0  0
  185.1810  178.9970  146.4880 C   0  0  0  0  0  3  0  0  0  0  0  0
  183.8550  177.3760  141.5370 O   0  0  0  0  0  1  0  0  0  0  0  0
  184.3420  178.6560  141.8050 C   0  0  2  0  0  3  0  0  0  0  0  0
  184.9300  179.2700  140.5390 C   0  0  0  0  0  2  0  0  0  0  0  0
  183.8940  179.3780  139.4270 C   0  0  0  0  0  0  0  0  0  0  0  0
  184.1120  180.5410  138.7180 F   0  0  0  0  0  0  0  0  0  0  0  0
  182.6190  179.4110  139.9660 F   0  0  0  0  0  0  0  0  0  0  0  0
  184.0020  178.3010  138.5660 F   0  0  0  0  0  0  0  0  0  0  0  0
  186.7650  178.5530  142.4910 N   0  0  0  0  0  2  0  0  0  0  0  0
  188.6900  177.2670  141.6080 C   0  0  0  0  0  2  0  0  0  0  0  0
  189.9390  176.5570  142.1240 C   0  0  0  0  0  2  0  0  0  0  0  0
  187.6650  177.4250  142.7330 C   0  0  0  0  0  3  0  0  0  0  0  0
  190.6160  177.3140  143.1940 N   0  0  0  0  0  0  0  0  0  0  0  0
  189.7040  178.1000  144.0440 C   0  0  0  0  0  2  0  0  0  0  0  0
  188.3000  177.4970  144.1260 C   0  0  0  0  0  2  0  0  0  0  0  0
  191.2720  176.3370  144.0550 C   0  0  0  0  0  2  0  0  0  0  0  0
  191.7500  176.9690  145.2380 O   0  0  0  0  0  0  0  0  0  0  0  0
  191.5680  176.4230  146.5130 C   0  0  0  0  0  0  0  0  0  0  0  0
  192.4300  175.6270  146.9720 O   0  0  0  0  0  0  0  0  0  0  0  0
  190.3710  176.7520  147.3430 C   0  0  0  0  0  1  0  0  0  0  0  0
  1  6  1  0  0  0  0
  2  7  2  0  0  0  0
  3  1  1  0  0  0  0
  3  2  1  0  0  0  0
  4  1  2  0  0  0  0
  5  3  2  0  0  0  0
  6  7  1  0  0  0  0
  9  8  1  6  0  0  0
  9  5  1  0  0  0  0
 10  9  1  0  0  0  0
 11 13  1  0  0  0  0
 11 10  1  0  0  0  0
 12 11  1  0  0  0  0
 14 11  1  0  0  0  0
 15 18  1  0  0  0  0
 15  5  1  0  0  0  0
 16 17  1  0  0  0  0
 16 18  1  0  0  0  0
 17 19  1  0  0  0  0
 18 21  1  0  0  0  0
 19 20  1  0  0  0  0
 19 22  1  0  0  0  0
 20 21  1  0  0  0  0
 22 23  1  0  0  0  0
 23 24  1  0  0  0  0
 24 25  2  0  0  0  0
 24 26  1  0  0  0  0
M  END
>  <MODEL>
6

>  <REMARK>
 VINA RESULT:      -6.3      4.127      8.031
  Name = 
  8 active torsions:
  status: ('A' for Active; 'I' for Inactive)
    1  A    between atoms: C_3  and  C_20
    2  A    between atoms: C_4  and  N_18
    3  A    between atoms: C_4  and  O_19
    4  A    between atoms: C_7  and  O_19
    5  A    between atoms: C_10  and  C_14
    6  A    between atoms: C_10  and  C_20
    7  A    between atoms: C_14  and  N_21
    8  A    between atoms: C_16  and  N_21
                            x       y       z     vdW  Elec       q    Type
                         _______ _______ _______ _____ _____    ______ ____

>  <TORSDO>
F 8

$$$$
=
 OpenBabel10222416103D

 26 27  0  0  1  0  0  0  0  0999 V2000
  187.1930  177.6130  147.3010 C   0  0  0  0  0  0  0  0  0  0  0  0
  187.0110  178.3110  145.1120 N   0  0  0  0  0  0  0  0  0  0  0  0
  187.9430  177.8800  146.0930 C   0  0  0  0  0  0  0  0  0  0  0  0
  187.6520  177.2150  148.4040 O   0  0  0  0  0  0  0  0  0  0  0  0
  189.2590  177.7150  145.8770 C   0  0  1  0  0  3  0  0  0  0  0  0
  185.8570  177.8820  147.0710 O   0  0  0  0  0  0  0  0  0  0  0  0
  185.6790  178.3250  145.7250 C   0  0  0  0  0  2  0  0  0  0  0  0
  190.2680  177.9620  148.0130 O   0  0  0  0  0  1  0  0  0  0  0  0
  190.1260  177.0930  146.9300 C   0  0  2  0  0  3  0  0  0  0  0  0
  191.4940  176.7520  146.3470 C   0  0  0  0  0  2  0  0  0  0  0  0
  192.0630  175.4710  146.9440 C   0  0  0  0  0  0  0  0  0  0  0  0
  192.4310  174.6220  145.9220 F   0  0  0  0  0  0  0  0  0  0  0  0
  191.1070  174.8460  147.7260 F   0  0  0  0  0  0  0  0  0  0  0  0
  193.1750  175.7540  147.7140 F   0  0  0  0  0  0  0  0  0  0  0  0
  189.8380  177.9920  144.5920 N   0  0  0  0  0  2  0  0  0  0  0  0
  188.9220  178.1150  142.2950 C   0  0  0  0  0  2  0  0  0  0  0  0
  189.2030  177.5450  140.9070 C   0  0  0  0  0  2  0  0  0  0  0  0
  189.5630  177.2370  143.3710 C   0  0  0  0  0  3  0  0  0  0  0  0
  190.6450  177.5010  140.5970 N   0  0  0  0  0  0  0  0  0  0  0  0
  191.5050  177.2740  141.7720 C   0  0  0  0  0  2  0  0  0  0  0  0
  190.8040  176.4840  142.8790 C   0  0  0  0  0  2  0  0  0  0  0  0
  190.8490  176.3780  139.6900 C   0  0  0  0  0  2  0  0  0  0  0  0
  191.2810  176.8480  138.4170 O   0  0  0  0  0  0  0  0  0  0  0  0
  192.4730  176.4250  137.8190 C   0  0  0  0  0  0  0  0  0  0  0  0
  193.5550  176.5370  138.4530 O   0  0  0  0  0  0  0  0  0  0  0  0
  192.4970  175.8490  136.4410 C   0  0  0  0  0  1  0  0  0  0  0  0
  1  4  2  0  0  0  0
  2  7  1  0  0  0  0
  2  3  2  0  0  0  0
  3  1  1  0  0  0  0
  5 15  1  6  0  0  0
  5  3  1  0  0  0  0
  5  9  1  0  0  0  0
  6  1  1  0  0  0  0
  7  6  1  0  0  0  0
  9  8  1  1  0  0  0
 10  9  1  0  0  0  0
 10 11  1  0  0  0  0
 11 14  1  0  0  0  0
 11 13  1  0  0  0  0
 12 11  1  0  0  0  0
 16 18  1  0  0  0  0
 17 16  1  0  0  0  0
 18 15  1  0  0  0  0
 19 17  1  0  0  0  0
 19 20  1  0  0  0  0
 20 21  1  0  0  0  0
 21 18  1  0  0  0  0
 22 19  1  0  0  0  0
 23 22  1  0  0  0  0
 24 23  1  0  0  0  0
 24 25  2  0  0  0  0
 26 24  1  0  0  0  0
M  END
>  <MODEL>
7

>  <REMARK>
 VINA RESULT:      -6.3      3.650      7.779
  Name = 
  8 active torsions:
  status: ('A' for Active; 'I' for Inactive)
    1  A    between atoms: C_3  and  C_20
    2  A    between atoms: C_4  and  N_18
    3  A    between atoms: C_4  and  O_19
    4  A    between atoms: C_7  and  O_19
    5  A    between atoms: C_10  and  C_14
    6  A    between atoms: C_10  and  C_20
    7  A    between atoms: C_14  and  N_21
    8  A    between atoms: C_16  and  N_21
                            x       y       z     vdW  Elec       q    Type
                         _______ _______ _______ _____ _____    ______ ____

>  <TORSDO>
F 8

$$$$
=
 OpenBabel10222416103D

 26 27  0  0  1  0  0  0  0  0999 V2000
  186.5020  178.6990  147.0830 C   0  0  0  0  0  0  0  0  0  0  0  0
  185.8940  177.9590  144.9860 N   0  0  0  0  0  0  0  0  0  0  0  0
  187.0060  178.1200  145.8560 C   0  0  0  0  0  0  0  0  0  0  0  0
  187.1710  179.0020  148.1060 O   0  0  0  0  0  0  0  0  0  0  0  0
  188.2610  177.7400  145.5690 C   0  0  1  0  0  3  0  0  0  0  0  0
  185.1400  178.8960  146.9630 O   0  0  0  0  0  0  0  0  0  0  0  0
  184.7010  178.4580  145.6770 C   0  0  0  0  0  2  0  0  0  0  0  0
  190.3920  178.5900  146.1850 O   0  0  0  0  0  1  0  0  0  0  0  0
  189.3290  177.7980  146.6210 C   0  0  2  0  0  3  0  0  0  0  0  0
  189.8210  176.3910  146.9450 C   0  0  0  0  0  2  0  0  0  0  0  0
  191.3030  176.3750  147.2970 C   0  0  0  0  0  0  0  0  0  0  0  0
  192.0360  176.7130  146.1780 F   0  0  0  0  0  0  0  0  0  0  0  0
  191.6790  175.1110  147.7160 F   0  0  0  0  0  0  0  0  0  0  0  0
  191.5670  177.2910  148.2990 F   0  0  0  0  0  0  0  0  0  0  0  0
  188.5820  177.1390  144.3040 N   0  0  0  0  0  2  0  0  0  0  0  0
  190.7680  176.9660  143.1530 C   0  0  0  0  0  2  0  0  0  0  0  0
  191.3610  177.1750  141.7620 C   0  0  0  0  0  2  0  0  0  0  0  0
  189.4540  177.7360  143.2930 C   0  0  0  0  0  3  0  0  0  0  0  0
  190.4760  176.6770  140.6910 N   0  0  0  0  0  0  0  0  0  0  0  0
  189.0390  176.7860  141.0000 C   0  0  0  0  0  2  0  0  0  0  0  0
  188.7220  177.9340  141.9610 C   0  0  0  0  0  2  0  0  0  0  0  0
  190.7270  177.5030  139.5160 C   0  0  0  0  0  2  0  0  0  0  0  0
  189.7600  177.2260  138.5070 O   0  0  0  0  0  0  0  0  0  0  0  0
  189.2330  178.2170  137.6730 C   0  0  0  0  0  0  0  0  0  0  0  0
  189.0550  179.3770  138.1300 O   0  0  0  0  0  0  0  0  0  0  0  0
  188.8660  177.9330  136.2530 C   0  0  0  0  0  1  0  0  0  0  0  0
  1  4  2  0  0  0  0
  2  7  1  0  0  0  0
  2  3  2  0  0  0  0
  3  1  1  0  0  0  0
  5 15  1  1  0  0  0
  5  3  1  0  0  0  0
  5  9  1  0  0  0  0
  6  1  1  0  0  0  0
  7  6  1  0  0  0  0
  9  8  1  6  0  0  0
  9 10  1  0  0  0  0
 10 11  1  0  0  0  0
 11 13  1  0  0  0  0
 11 14  1  0  0  0  0
 12 11  1  0  0  0  0
 16 18  1  0  0  0  0
 17 16  1  0  0  0  0
 18 15  1  0  0  0  0
 19 20  1  0  0  0  0
 19 17  1  0  0  0  0
 20 21  1  0  0  0  0
 21 18  1  0  0  0  0
 22 19  1  0  0  0  0
 23 22  1  0  0  0  0
 24 25  2  0  0  0  0
 24 23  1  0  0  0  0
 26 24  1  0  0  0  0
M  END
>  <MODEL>
8

>  <REMARK>
 VINA RESULT:      -6.2      3.047      6.894
  Name = 
  8 active torsions:
  status: ('A' for Active; 'I' for Inactive)
    1  A    between atoms: C_3  and  C_20
    2  A    between atoms: C_4  and  N_18
    3  A    between atoms: C_4  and  O_19
    4  A    between atoms: C_7  and  O_19
    5  A    between atoms: C_10  and  C_14
    6  A    between atoms: C_10  and  C_20
    7  A    between atoms: C_14  and  N_21
    8  A    between atoms: C_16  and  N_21
                            x       y       z     vdW  Elec       q    Type
                         _______ _______ _______ _____ _____    ______ ____

>  <TORSDO>
F 8

$$$$
=
 OpenBabel10222416103D

 26 27  0  0  1  0  0  0  0  0999 V2000
  189.9690  177.5500  145.0470 C   0  0  0  0  0  0  0  0  0  0  0  0
  190.9900  178.5560  143.2410 N   0  0  0  0  0  0  0  0  0  0  0  0
  189.7620  177.9970  143.6860 C   0  0  0  0  0  0  0  0  0  0  0  0
  189.1250  176.9940  145.7970 O   0  0  0  0  0  0  0  0  0  0  0  0
  188.6320  177.9630  142.9620 C   0  0  0  0  0  0  0  0  0  0  0  0
  191.2750  177.8130  145.4140 O   0  0  0  0  0  0  0  0  0  0  0  0
  191.9640  178.4380  144.3300 C   0  0  0  0  0  3  0  0  0  0  0  0
  187.2370  176.1170  143.5000 O   0  0  0  0  0  1  0  0  0  0  0  0
  187.3470  177.5060  143.5850 C   0  0  2  0  0  3  0  0  0  0  0  0
  186.1620  178.1700  142.8900 C   0  0  0  0  0  2  0  0  0  0  0  0
  185.1440  178.7040  143.8900 C   0  0  0  0  0  0  0  0  0  0  0  0
  185.5700  178.4080  145.1680 F   0  0  0  0  0  0  0  0  0  0  0  0
  183.9120  178.1090  143.6780 F   0  0  0  0  0  0  0  0  0  0  0  0
  185.0220  180.0750  143.7640 F   0  0  0  0  0  0  0  0  0  0  0  0
  188.5910  178.4920  141.6270 N   0  0  0  0  0  2  0  0  0  0  0  0
  188.8200  178.5680  139.1620 C   0  0  0  0  0  2  0  0  0  0  0  0
  189.5080  177.7930  138.0420 C   0  0  0  0  0  2  0  0  0  0  0  0
  188.6790  177.6900  140.4070 C   0  0  0  0  0  3  0  0  0  0  0  0
  190.8750  177.3720  138.4050 N   0  0  0  0  0  0  0  0  0  0  0  0
  191.0530  177.0810  139.8390 C   0  0  0  0  0  2  0  0  0  0  0  0
  189.7630  176.6120  140.5150 C   0  0  0  0  0  2  0  0  0  0  0  0
  191.1450  176.1370  137.6790 C   0  0  0  0  0  2  0  0  0  0  0  0
  192.3070  175.5030  138.2040 O   0  0  0  0  0  0  0  0  0  0  0  0
  193.5700  175.6360  137.6190 C   0  0  0  0  0  0  0  0  0  0  0  0
  193.8840  176.7240  137.0690 O   0  0  0  0  0  0  0  0  0  0  0  0
  194.5570  174.5140  137.6220 C   0  0  0  0  0  1  0  0  0  0  0  0
  1  6  1  0  0  0  0
  1  4  2  0  0  0  0
  2  3  1  0  0  0  0
  2  7  2  0  0  0  0
  3  1  1  0  0  0  0
  5  9  1  0  0  0  0
  5  3  2  0  0  0  0
  7  6  1  0  0  0  0
  9  8  1  6  0  0  0
 10  9  1  0  0  0  0
 10 11  1  0  0  0  0
 11 12  1  0  0  0  0
 13 11  1  0  0  0  0
 14 11  1  0  0  0  0
 15  5  1  0  0  0  0
 16 18  1  0  0  0  0
 17 19  1  0  0  0  0
 17 16  1  0  0  0  0
 18 21  1  0  0  0  0
 18 15  1  0  0  0  0
 19 20  1  0  0  0  0
 20 21  1  0  0  0  0
 22 23  1  0  0  0  0
 22 19  1  0  0  0  0
 24 26  1  0  0  0  0
 24 23  1  0  0  0  0
 25 24  2  0  0  0  0
M  END
>  <MODEL>
9

>  <REMARK>
 VINA RESULT:      -6.2      3.726      8.107
  Name = 
  8 active torsions:
  status: ('A' for Active; 'I' for Inactive)
    1  A    between atoms: C_3  and  C_20
    2  A    between atoms: C_4  and  N_18
    3  A    between atoms: C_4  and  O_19
    4  A    between atoms: C_7  and  O_19
    5  A    between atoms: C_10  and  C_14
    6  A    between atoms: C_10  and  C_20
    7  A    between atoms: C_14  and  N_21
    8  A    between atoms: C_16  and  N_21
                            x       y       z     vdW  Elec       q    Type
                         _______ _______ _______ _____ _____    ______ ____

>  <TORSDO>
F 8

$$$$
