=
 OpenBabel10222417033D

 55 63  0  0  1  0  0  0  0  0999 V2000
  185.0570  178.5150  140.1060 C   0  0  2  0  0  0  0  0  0  0  0  0
  180.2700  179.8930  138.4780 C   0  0  0  0  0  3  0  0  0  0  0  0
  178.9820  181.0020  141.7230 N   0  0  0  0  0  0  0  0  0  0  0  0
  178.9350  179.8440  142.4220 C   0  0  0  0  0  3  0  0  0  0  0  0
  179.8120  179.8450  139.8010 C   0  0  0  0  0  0  0  0  0  0  0  0
  179.7760  178.6570  140.5470 C   0  0  0  0  0  0  0  0  0  0  0  0
  179.3510  181.0290  140.4150 C   0  0  0  0  0  0  0  0  0  0  0  0
  184.0850  178.0470  141.2220 C   0  0  2  0  0  3  0  0  0  0  0  0
  184.7710  177.9610  138.6850 C   0  0  0  0  0  2  0  0  0  0  0  0
  186.1040  178.0580  142.7980 C   0  0  2  0  0  3  0  0  0  0  0  0
  186.9360  178.5270  141.7550 O   0  0  0  0  0  0  0  0  0  0  0  0
  180.2770  181.0960  137.7690 C   0  0  0  0  0  3  0  0  0  0  0  0
  181.2850  176.4360  138.0920 C   0  0  0  0  0  2  0  0  0  0  0  0
  187.3940  178.6110  139.5460 F   0  0  0  0  0  0  0  0  0  0  0  0
  180.0220  176.8120  138.8580 C   0  0  0  0  0  2  0  0  0  0  0  0
  182.6330  178.4770  140.9620 C   0  0  0  0  0  2  0  0  0  0  0  0
  182.3550  177.3370  138.6820 C   0  0  1  0  0  3  0  0  0  0  0  0
  186.5060  178.0980  140.4760 C   0  0  2  0  0  3  0  0  0  0  0  0
  179.3410  178.6810  141.8340 N   0  0  0  0  0  0  0  0  0  0  0  0
  179.3520  182.2300  139.6990 C   0  0  0  0  0  3  0  0  0  0  0  0
  183.8870  178.9710  143.5370 C   0  0  0  0  0  2  0  0  0  0  0  0
  181.9210  177.3910  140.1420 C   0  0  2  0  0  3  0  0  0  0  0  0
  184.6570  178.4660  142.5580 C   0  0  0  0  0  0  0  0  0  0  0  0
  180.4750  177.4820  140.0770 N   0  0  0  0  0  0  0  0  0  0  0  0
  179.8010  182.2640  138.3730 C   0  0  0  0  0  3  0  0  0  0  0  0
  183.7840  176.7910  138.5650 C   0  0  1  0  0  3  0  0  0  0  0  0
  184.9910  179.9060  140.0480 O   0  0  0  0  0  1  0  0  0  0  0  0
  186.6970  178.6390  144.0870 C   0  0  0  0  0  2  0  0  0  0  0  0
  186.4910  176.3590  144.8610 O   0  0  0  0  0  1  0  0  0  0  0  0
  186.8830  177.6400  145.2420 C   0  0  1  0  0  3  0  0  0  0  0  0
  188.3820  178.2010  147.1460 C   0  0  0  0  0  3  0  0  0  0  0  0
  188.2190  177.6170  145.9560 C   0  0  0  0  0  0  0  0  0  0  0  0
  189.4850  177.1150  145.2550 C   0  0  1  0  0  0  0  0  0  0  0  0
  189.9160  177.8230  143.5070 C   0  0  1  0  0  3  0  0  0  0  0  0
  189.7380  178.2020  147.7790 C   0  0  0  0  0  2  0  0  0  0  0  0
  191.7110  177.7740  145.1510 C   0  0  0  0  0  2  0  0  0  0  0  0
  190.2920  176.2070  146.2050 C   0  0  2  0  0  3  0  0  0  0  0  0
  190.3350  176.7820  147.6520 C   0  0  0  0  0  2  0  0  0  0  0  0
  191.6780  176.3350  145.6480 C   0  0  0  0  0  2  0  0  0  0  0  0
  189.2500  176.6500  143.9380 O   0  0  0  0  0  0  0  0  0  0  0  0
  190.3410  178.2330  144.8530 N   0  0  2  0  0  0  0  0  0  0  0  0
  190.4720  177.4510  141.1050 C   0  0  0  0  0  1  0  0  0  0  0  0
  191.0750  177.5650  142.5030 C   0  0  0  0  0  2  0  0  0  0  0  0
  184.0170  176.0100  137.3340 N   0  0  0  0  0  2  0  0  0  0  0  0
  185.1310  176.5660  136.5720 C   0  0  0  0  0  2  0  0  0  0  0  0
  186.1790  175.4960  136.2750 C   0  0  2  0  0  3  0  0  0  0  0  0
  186.0650  174.4640  137.2060 O   0  0  0  0  0  1  0  0  0  0  0  0
  188.5070  175.3160  137.3200 C   0  0  0  0  0  2  0  0  0  0  0  0
  189.9010  177.4080  137.5670 C   0  0  0  0  0  2  0  0  0  0  0  0
  189.9260  175.8950  137.2850 C   0  0  1  0  0  3  0  0  0  0  0  0
  187.6090  176.0670  136.3010 C   0  0  2  0  0  3  0  0  0  0  0  0
  189.0720  178.1260  136.4890 C   0  0  0  0  0  2  0  0  0  0  0  0
  187.6250  177.5990  136.5360 C   0  0  0  0  0  2  0  0  0  0  0  0
  192.0050  175.7860  138.0320 C   0  0  0  0  0  1  0  0  0  0  0  0
  190.7180  175.2900  138.2530 O   0  0  0  0  0  0  0  0  0  0  0  0
  1 27  1  6  0  0  0
  1 18  1  0  0  0  0
  1  8  1  0  0  0  0
  2  5  1  0  0  0  0
  3  4  1  0  0  0  0
  5  7  1  0  0  0  0
  5  6  2  0  0  0  0
  6 19  1  0  0  0  0
  7  3  2  0  0  0  0
  8 16  1  6  0  0  0
  8 23  1  0  0  0  0
  9  1  1  0  0  0  0
 10 28  1  1  0  0  0
 11 10  1  0  0  0  0
 12 25  1  0  0  0  0
 12  2  2  0  0  0  0
 13 15  1  0  0  0  0
 15 24  1  0  0  0  0
 17 13  1  6  0  0  0
 17 22  1  0  0  0  0
 18 14  1  6  0  0  0
 18 11  1  0  0  0  0
 19  4  2  0  0  0  0
 20  7  1  0  0  0  0
 22 16  1  6  0  0  0
 23 10  1  0  0  0  0
 23 21  2  0  0  0  0
 24 22  1  0  0  0  0
 24  6  1  0  0  0  0
 25 20  2  0  0  0  0
 26 44  1  6  0  0  0
 26 17  1  0  0  0  0
 26  9  1  0  0  0  0
 28 30  1  0  0  0  0
 30 29  1  6  0  0  0
 30 32  1  0  0  0  0
 31 35  1  0  0  0  0
 32 31  2  0  0  0  0
 33 40  1  6  0  0  0
 33 32  1  0  0  0  0
 33 37  1  0  0  0  0
 34 43  1  6  0  0  0
 34 40  1  0  0  0  0
 34 41  1  0  0  0  0
 36 39  1  0  0  0  0
 37 39  1  6  0  0  0
 37 38  1  0  0  0  0
 38 35  1  0  0  0  0
 41 36  1  6  0  0  0
 41 33  1  0  0  0  0
 42 43  1  0  0  0  0
 45 44  1  0  0  0  0
 46 45  1  0  0  0  0
 46 47  1  1  0  0  0
 50 48  1  0  0  0  0
 50 49  1  0  0  0  0
 50 55  1  1  0  0  0
 51 46  1  1  0  0  0
 51 53  1  0  0  0  0
 51 48  1  0  0  0  0
 52 53  1  0  0  0  0
 52 49  1  0  0  0  0
 54 55  1  0  0  0  0
M  END
>  <MODEL>
1

>  <REMARK>
 VINA RESULT:      -9.2      0.000      0.000
  Name = 
  9 active torsions:
  status: ('A' for Active; 'I' for Inactive)
    1  A    between atoms: C_5  and  C_36
    2  A    between atoms: C_7  and  C_44
    3  A    between atoms: O_18  and  C_24
    4  A    between atoms: C_19  and  C_32
    5  A    between atoms: C_22  and  C_28
    6  A    between atoms: C_22  and  C_31
    7  A    between atoms: C_28  and  N_42
    8  A    between atoms: C_32  and  C_36
    9  A    between atoms: N_42  and  C_54
                            x       y       z     vdW  Elec       q    Type
                         _______ _______ _______ _____ _____    ______ ____

>  <TORSDO>
F 9

$$$$
=
 OpenBabel10222417033D

 55 63  0  0  1  0  0  0  0  0999 V2000
  184.4160  178.6020  138.7680 C   0  0  2  0  0  0  0  0  0  0  0  0
  179.4040  180.1090  138.5100 C   0  0  0  0  0  3  0  0  0  0  0  0
  179.1180  181.3480  141.9450 N   0  0  0  0  0  0  0  0  0  0  0  0
  179.2400  180.2110  142.6700 C   0  0  0  0  0  3  0  0  0  0  0  0
  179.3380  180.1120  139.9090 C   0  0  0  0  0  0  0  0  0  0  0  0
  179.4820  178.9460  140.6760 C   0  0  0  0  0  0  0  0  0  0  0  0
  179.1030  181.3280  140.5860 C   0  0  0  0  0  0  0  0  0  0  0  0
  183.7880  178.1980  140.1280 C   0  0  2  0  0  3  0  0  0  0  0  0
  183.7240  178.0210  137.5050 C   0  0  0  0  0  2  0  0  0  0  0  0
  186.1700  178.1770  141.0680 C   0  0  2  0  0  3  0  0  0  0  0  0
  186.6850  178.5880  139.8170 O   0  0  0  0  0  0  0  0  0  0  0  0
  179.2420  181.2920  137.7860 C   0  0  0  0  0  3  0  0  0  0  0  0
  180.1730  176.6090  137.9740 C   0  0  0  0  0  2  0  0  0  0  0  0
  186.5000  178.5980  137.5680 F   0  0  0  0  0  0  0  0  0  0  0  0
  179.1890  177.0500  139.0520 C   0  0  0  0  0  2  0  0  0  0  0  0
  182.3340  178.6730  140.2740 C   0  0  0  0  0  2  0  0  0  0  0  0
  181.3900  177.4860  138.2070 C   0  0  1  0  0  3  0  0  0  0  0  0
  185.8990  178.1420  138.7280 C   0  0  2  0  0  3  0  0  0  0  0  0
  179.4310  179.0200  142.0320 N   0  0  0  0  0  0  0  0  0  0  0  0
  178.9330  182.5090  139.8580 C   0  0  0  0  0  3  0  0  0  0  0  0
  184.2790  179.1880  142.3710 C   0  0  0  0  0  2  0  0  0  0  0  0
  181.3900  177.5930  139.7270 C   0  0  2  0  0  3  0  0  0  0  0  0
  184.7260  178.6310  141.2330 C   0  0  0  0  0  0  0  0  0  0  0  0
  179.9870  177.7340  140.0690 N   0  0  0  0  0  0  0  0  0  0  0  0
  178.9890  182.4920  138.4580 C   0  0  0  0  0  3  0  0  0  0  0  0
  182.7120  176.8860  137.7100 C   0  0  1  0  0  3  0  0  0  0  0  0
  184.3740  179.9920  138.6820 O   0  0  0  0  0  1  0  0  0  0  0  0
  187.1200  178.7690  142.1160 C   0  0  0  0  0  2  0  0  0  0  0  0
  186.3500  176.9540  143.5130 O   0  0  0  0  0  1  0  0  0  0  0  0
  187.3610  177.9000  143.3620 C   0  0  1  0  0  3  0  0  0  0  0  0
  189.1420  176.2700  142.7630 C   0  0  0  0  0  3  0  0  0  0  0  0
  188.7290  177.2740  143.5400 C   0  0  0  0  0  0  0  0  0  0  0  0
  189.6070  177.6180  144.7470 C   0  0  1  0  0  0  0  0  0  0  0  0
  188.8290  177.5190  146.5150 C   0  0  1  0  0  3  0  0  0  0  0  0
  190.4780  175.6480  143.0220 C   0  0  0  0  0  2  0  0  0  0  0  0
  190.9890  176.4410  146.1980 C   0  0  0  0  0  2  0  0  0  0  0  0
  191.0660  177.8370  144.2950 C   0  0  2  0  0  3  0  0  0  0  0  0
  191.5080  176.7800  143.2410 C   0  0  0  0  0  2  0  0  0  0  0  0
  191.8250  177.5370  145.5520 C   0  0  0  0  0  2  0  0  0  0  0  0
  189.0290  178.5850  145.6040 O   0  0  0  0  0  0  0  0  0  0  0  0
  189.5920  176.5360  145.7320 N   0  0  2  0  0  0  0  0  0  0  0  0
  188.1880  177.9460  148.8860 C   0  0  0  0  0  1  0  0  0  0  0  0
  189.3790  177.7900  147.9430 C   0  0  0  0  0  2  0  0  0  0  0  0
  182.5650  176.0650  136.4910 N   0  0  0  0  0  2  0  0  0  0  0  0
  183.8580  175.8620  135.8460 C   0  0  0  0  0  2  0  0  0  0  0  0
  184.2400  174.3830  135.8380 C   0  0  2  0  0  3  0  0  0  0  0  0
  183.2230  173.6390  136.4360 O   0  0  0  0  0  1  0  0  0  0  0  0
  186.5860  175.2780  136.3250 C   0  0  0  0  0  2  0  0  0  0  0  0
  188.4690  173.6340  136.6930 C   0  0  0  0  0  2  0  0  0  0  0  0
  187.8810  174.9970  137.0970 C   0  0  1  0  0  3  0  0  0  0  0  0
  185.5720  174.1280  136.5680 C   0  0  2  0  0  3  0  0  0  0  0  0
  187.4680  172.5140  137.0270 C   0  0  0  0  0  2  0  0  0  0  0  0
  186.1740  172.7430  136.2240 C   0  0  0  0  0  2  0  0  0  0  0  0
  189.1120  176.5660  138.0540 C   0  0  0  0  0  1  0  0  0  0  0  0
  188.8290  175.9750  136.8200 O   0  0  0  0  0  0  0  0  0  0  0  0
  1 27  1  6  0  0  0
  1  8  1  0  0  0  0
  2  5  1  0  0  0  0
  3  4  1  0  0  0  0
  5  7  1  0  0  0  0
  5  6  2  0  0  0  0
  6 19  1  0  0  0  0
  7  3  2  0  0  0  0
  8 16  1  1  0  0  0
  8 23  1  0  0  0  0
  9 26  1  0  0  0  0
  9  1  1  0  0  0  0
 10 23  1  0  0  0  0
 10 28  1  1  0  0  0
 11 10  1  0  0  0  0
 12 25  1  0  0  0  0
 12  2  2  0  0  0  0
 13 15  1  0  0  0  0
 15 24  1  0  0  0  0
 17 13  1  1  0  0  0
 17 22  1  0  0  0  0
 18 14  1  6  0  0  0
 18  1  1  0  0  0  0
 18 11  1  0  0  0  0
 19  4  2  0  0  0  0
 20  7  1  0  0  0  0
 22 24  1  0  0  0  0
 22 16  1  6  0  0  0
 23 21  2  0  0  0  0
 24  6  1  0  0  0  0
 25 20  2  0  0  0  0
 26 44  1  6  0  0  0
 26 17  1  0  0  0  0
 28 30  1  0  0  0  0
 30 29  1  6  0  0  0
 30 32  1  0  0  0  0
 31 35  1  0  0  0  0
 31 32  2  0  0  0  0
 33 32  1  6  0  0  0
 33 40  1  0  0  0  0
 33 41  1  0  0  0  0
 34 43  1  1  0  0  0
 35 38  1  0  0  0  0
 37 38  1  6  0  0  0
 37 33  1  0  0  0  0
 37 39  1  0  0  0  0
 39 36  1  0  0  0  0
 40 34  1  0  0  0  0
 41 36  1  1  0  0  0
 41 34  1  0  0  0  0
 43 42  1  0  0  0  0
 45 44  1  0  0  0  0
 46 45  1  0  0  0  0
 46 47  1  1  0  0  0
 48 51  1  0  0  0  0
 48 50  1  0  0  0  0
 49 52  1  0  0  0  0
 49 50  1  0  0  0  0
 50 55  1  6  0  0  0
 51 46  1  6  0  0  0
 53 51  1  0  0  0  0
 53 52  1  0  0  0  0
 55 54  1  0  0  0  0
M  END
>  <MODEL>
2

>  <REMARK>
 VINA RESULT:      -8.7      1.431      2.662
  Name = 
  9 active torsions:
  status: ('A' for Active; 'I' for Inactive)
    1  A    between atoms: C_5  and  C_36
    2  A    between atoms: C_7  and  C_44
    3  A    between atoms: O_18  and  C_24
    4  A    between atoms: C_19  and  C_32
    5  A    between atoms: C_22  and  C_28
    6  A    between atoms: C_22  and  C_31
    7  A    between atoms: C_28  and  N_42
    8  A    between atoms: C_32  and  C_36
    9  A    between atoms: N_42  and  C_54
                            x       y       z     vdW  Elec       q    Type
                         _______ _______ _______ _____ _____    ______ ____

>  <TORSDO>
F 9

$$$$
=
 OpenBabel10222417033D

 55 63  0  0  1  0  0  0  0  0999 V2000
  185.7570  178.1280  137.8910 C   0  0  2  0  0  0  0  0  0  0  0  0
  181.0980  179.1390  135.7160 C   0  0  0  0  0  3  0  0  0  0  0  0
  179.5770  180.7730  138.6210 N   0  0  0  0  0  0  0  0  0  0  0  0
  179.4820  179.7510  139.5050 C   0  0  0  0  0  3  0  0  0  0  0  0
  180.5450  179.3130  136.9920 C   0  0  0  0  0  0  0  0  0  0  0  0
  180.4570  178.2710  137.9270 C   0  0  0  0  0  0  0  0  0  0  0  0
  180.0400  180.5790  137.3570 C   0  0  0  0  0  0  0  0  0  0  0  0
  184.7080  177.8450  138.9990 C   0  0  2  0  0  3  0  0  0  0  0  0
  185.5740  177.3330  136.5700 C   0  0  0  0  0  2  0  0  0  0  0  0
  186.6080  178.1550  140.6880 C   0  0  2  0  0  3  0  0  0  0  0  0
  187.5120  178.4490  139.6420 O   0  0  0  0  0  0  0  0  0  0  0  0
  181.1540  180.2020  134.8120 C   0  0  0  0  0  3  0  0  0  0  0  0
  182.1420  175.6820  136.0050 C   0  0  0  0  0  2  0  0  0  0  0  0
  188.1270  178.1580  137.4900 F   0  0  0  0  0  0  0  0  0  0  0  0
  180.8260  176.1660  136.6030 C   0  0  0  0  0  2  0  0  0  0  0  0
  183.2770  178.2040  138.5680 C   0  0  0  0  0  2  0  0  0  0  0  0
  183.1650  176.6850  136.5050 C   0  0  1  0  0  3  0  0  0  0  0  0
  187.1760  177.8000  138.4290 C   0  0  2  0  0  3  0  0  0  0  0  0
  179.9310  178.5110  139.1560 N   0  0  0  0  0  0  0  0  0  0  0  0
  180.0900  181.6390  136.4470 C   0  0  0  0  0  3  0  0  0  0  0  0
  184.3420  179.1510  141.1010 C   0  0  0  0  0  2  0  0  0  0  0  0
  182.6280  176.9840  137.8990 C   0  0  2  0  0  3  0  0  0  0  0  0
  185.1810  178.4960  140.2810 C   0  0  0  0  0  0  0  0  0  0  0  0
  181.1900  177.0420  137.7170 N   0  0  0  0  0  0  0  0  0  0  0  0
  180.6340  181.4500  135.1700 C   0  0  0  0  0  3  0  0  0  0  0  0
  184.6000  176.1470  136.5850 C   0  0  1  0  0  3  0  0  0  0  0  0
  185.6930  179.4870  137.5900 O   0  0  0  0  0  1  0  0  0  0  0  0
  187.1060  178.9570  141.8970 C   0  0  0  0  0  2  0  0  0  0  0  0
  186.2560  177.2860  143.4200 O   0  0  0  0  0  1  0  0  0  0  0  0
  187.3230  178.1490  143.1870 C   0  0  1  0  0  3  0  0  0  0  0  0
  189.0190  176.4360  142.5750 C   0  0  0  0  0  3  0  0  0  0  0  0
  188.6510  177.4430  143.3710 C   0  0  0  0  0  0  0  0  0  0  0  0
  189.5280  177.7090  144.5980 C   0  0  1  0  0  0  0  0  0  0  0  0
  188.7170  177.6130  146.3520 C   0  0  1  0  0  3  0  0  0  0  0  0
  190.3140  175.7330  142.8390 C   0  0  0  0  0  2  0  0  0  0  0  0
  190.8170  176.4210  146.0410 C   0  0  0  0  0  2  0  0  0  0  0  0
  191.0030  177.8550  144.1730 C   0  0  2  0  0  3  0  0  0  0  0  0
  191.4020  176.8000  143.1000 C   0  0  0  0  0  2  0  0  0  0  0  0
  191.7240  177.4830  145.4340 C   0  0  0  0  0  2  0  0  0  0  0  0
  188.9910  178.6860  145.4700 O   0  0  0  0  0  0  0  0  0  0  0  0
  189.4360  176.6060  145.5570 N   0  0  2  0  0  0  0  0  0  0  0  0
  188.0630  178.0370  148.7200 C   0  0  0  0  0  1  0  0  0  0  0  0
  189.2570  177.8180  147.7940 C   0  0  0  0  0  2  0  0  0  0  0  0
  184.9210  175.1690  135.5260 N   0  0  0  0  0  2  0  0  0  0  0  0
  186.2360  175.4410  134.9540 C   0  0  0  0  0  2  0  0  0  0  0  0
  187.1850  174.2660  135.1790 C   0  0  2  0  0  3  0  0  0  0  0  0
  186.7270  173.4980  136.2490 O   0  0  0  0  0  1  0  0  0  0  0  0
  188.9840  174.6380  136.9590 C   0  0  0  0  0  2  0  0  0  0  0  0
  190.6570  176.5040  136.6340 C   0  0  0  0  0  2  0  0  0  0  0  0
  190.4370  175.0790  137.1740 C   0  0  1  0  0  3  0  0  0  0  0  0
  188.6270  174.7330  135.4510 C   0  0  2  0  0  3  0  0  0  0  0  0
  190.3740  176.5370  135.1220 C   0  0  0  0  0  2  0  0  0  0  0  0
  188.9040  176.1460  134.8790 C   0  0  0  0  0  2  0  0  0  0  0  0
  191.0890  176.4030  138.8220 C   0  0  0  0  0  1  0  0  0  0  0  0
  190.7430  175.0810  138.5300 O   0  0  0  0  0  0  0  0  0  0  0  0
  1 27  1  6  0  0  0
  1 18  1  0  0  0  0
  1  8  1  0  0  0  0
  2  5  1  0  0  0  0
  3  4  1  0  0  0  0
  5  7  1  0  0  0  0
  5  6  2  0  0  0  0
  6 19  1  0  0  0  0
  7  3  2  0  0  0  0
  8 16  1  6  0  0  0
  8 23  1  0  0  0  0
  9 26  1  0  0  0  0
  9  1  1  0  0  0  0
 10 28  1  1  0  0  0
 11 10  1  0  0  0  0
 12 25  1  0  0  0  0
 12  2  2  0  0  0  0
 13 15  1  0  0  0  0
 15 24  1  0  0  0  0
 17 13  1  1  0  0  0
 17 26  1  0  0  0  0
 17 22  1  0  0  0  0
 18 14  1  6  0  0  0
 18 11  1  0  0  0  0
 19  4  2  0  0  0  0
 20  7  1  0  0  0  0
 22 16  1  6  0  0  0
 23 10  1  0  0  0  0
 23 21  2  0  0  0  0
 24 22  1  0  0  0  0
 24  6  1  0  0  0  0
 25 20  2  0  0  0  0
 26 44  1  6  0  0  0
 28 30  1  0  0  0  0
 30 32  1  0  0  0  0
 30 29  1  6  0  0  0
 31 35  1  0  0  0  0
 31 32  2  0  0  0  0
 33 32  1  6  0  0  0
 33 40  1  0  0  0  0
 33 41  1  0  0  0  0
 34 43  1  1  0  0  0
 35 38  1  0  0  0  0
 37 38  1  6  0  0  0
 37 33  1  0  0  0  0
 37 39  1  0  0  0  0
 39 36  1  0  0  0  0
 40 34  1  0  0  0  0
 41 36  1  1  0  0  0
 41 34  1  0  0  0  0
 43 42  1  0  0  0  0
 45 46  1  0  0  0  0
 45 44  1  0  0  0  0
 46 47  1  1  0  0  0
 48 50  1  0  0  0  0
 49 50  1  0  0  0  0
 50 55  1  1  0  0  0
 51 46  1  1  0  0  0
 51 48  1  0  0  0  0
 52 49  1  0  0  0  0
 53 52  1  0  0  0  0
 53 51  1  0  0  0  0
 55 54  1  0  0  0  0
M  END
>  <MODEL>
3

>  <REMARK>
 VINA RESULT:      -8.4      1.686      2.870
  Name = 
  9 active torsions:
  status: ('A' for Active; 'I' for Inactive)
    1  A    between atoms: C_5  and  C_36
    2  A    between atoms: C_7  and  C_44
    3  A    between atoms: O_18  and  C_24
    4  A    between atoms: C_19  and  C_32
    5  A    between atoms: C_22  and  C_28
    6  A    between atoms: C_22  and  C_31
    7  A    between atoms: C_28  and  N_42
    8  A    between atoms: C_32  and  C_36
    9  A    between atoms: N_42  and  C_54
                            x       y       z     vdW  Elec       q    Type
                         _______ _______ _______ _____ _____    ______ ____

>  <TORSDO>
F 9

$$$$
=
 OpenBabel10222417033D

 55 63  0  0  1  0  0  0  0  0999 V2000
  184.7930  178.4780  139.7160 C   0  0  2  0  0  0  0  0  0  0  0  0
  179.8140  179.8250  138.7910 C   0  0  0  0  0  3  0  0  0  0  0  0
  178.9310  180.7170  142.2320 N   0  0  0  0  0  0  0  0  0  0  0  0
  178.9940  179.5200  142.8620 C   0  0  0  0  0  3  0  0  0  0  0  0
  179.5290  179.6910  140.1560 C   0  0  0  0  0  0  0  0  0  0  0  0
  179.6090  178.4630  140.8280 C   0  0  0  0  0  0  0  0  0  0  0  0
  179.1300  180.8270  140.8920 C   0  0  0  0  0  0  0  0  0  0  0  0
  183.9800  177.9240  140.9150 C   0  0  2  0  0  3  0  0  0  0  0  0
  184.3370  177.9980  138.3120 C   0  0  0  0  0  2  0  0  0  0  0  0
  186.1830  177.8960  142.2210 C   0  0  2  0  0  3  0  0  0  0  0  0
  186.8660  178.4440  141.1110 O   0  0  0  0  0  0  0  0  0  0  0  0
  179.7080  181.0660  138.1590 C   0  0  0  0  0  3  0  0  0  0  0  0
  180.8320  176.4230  138.0750 C   0  0  0  0  0  2  0  0  0  0  0  0
  187.0370  178.6640  138.8710 F   0  0  0  0  0  0  0  0  0  0  0  0
  179.6700  176.7220  139.0160 C   0  0  0  0  0  2  0  0  0  0  0  0
  182.4990  178.3310  140.8680 C   0  0  0  0  0  2  0  0  0  0  0  0
  181.9520  177.3150  138.5780 C   0  0  1  0  0  3  0  0  0  0  0  0
  186.2840  178.0770  139.8740 C   0  0  2  0  0  3  0  0  0  0  0  0
  179.3420  178.4030  142.1590 N   0  0  0  0  0  0  0  0  0  0  0  0
  179.0170  182.0660  140.2540 C   0  0  0  0  0  3  0  0  0  0  0  0
  184.0630  178.7100  143.2880 C   0  0  0  0  0  2  0  0  0  0  0  0
  181.7080  177.2760  140.0810 C   0  0  2  0  0  3  0  0  0  0  0  0
  184.7100  178.2810  142.1910 C   0  0  0  0  0  0  0  0  0  0  0  0
  180.2640  177.3330  140.2050 N   0  0  0  0  0  0  0  0  0  0  0  0
  179.2930  182.1860  138.8860 C   0  0  0  0  0  3  0  0  0  0  0  0
  183.3640  176.8130  138.2480 C   0  0  1  0  0  3  0  0  0  0  0  0
  184.6950  179.8680  139.7490 O   0  0  0  0  0  1  0  0  0  0  0  0
  186.9250  178.4180  143.4570 C   0  0  0  0  0  2  0  0  0  0  0  0
  186.7390  176.1470  144.2620 O   0  0  0  0  0  1  0  0  0  0  0  0
  186.9660  177.4620  144.6610 C   0  0  1  0  0  3  0  0  0  0  0  0
  188.0760  178.2470  146.7440 C   0  0  0  0  0  3  0  0  0  0  0  0
  188.1480  177.5540  145.6050 C   0  0  0  0  0  0  0  0  0  0  0  0
  189.5310  177.0390  145.1960 C   0  0  1  0  0  0  0  0  0  0  0  0
  190.2620  177.6050  143.4960 C   0  0  1  0  0  3  0  0  0  0  0  0
  189.2920  178.3560  147.6100 C   0  0  0  0  0  2  0  0  0  0  0  0
  191.7240  177.7710  145.4360 C   0  0  0  0  0  2  0  0  0  0  0  0
  190.1680  176.2520  146.3590 C   0  0  2  0  0  3  0  0  0  0  0  0
  189.9320  176.9540  147.7280 C   0  0  0  0  0  2  0  0  0  0  0  0
  191.6300  176.3820  146.0520 C   0  0  0  0  0  2  0  0  0  0  0  0
  189.5530  176.4500  143.9090 O   0  0  0  0  0  0  0  0  0  0  0  0
  190.4230  178.1490  144.8530 N   0  0  2  0  0  0  0  0  0  0  0  0
  191.4990  177.9190  141.3540 C   0  0  0  0  0  1  0  0  0  0  0  0
  191.5910  177.3030  142.7490 C   0  0  0  0  0  2  0  0  0  0  0  0
  183.4510  176.1080  136.9540 N   0  0  0  0  0  2  0  0  0  0  0  0
  184.1600  174.8410  137.1020 C   0  0  0  0  0  2  0  0  0  0  0  0
  185.1990  174.6630  135.9970 C   0  0  2  0  0  3  0  0  0  0  0  0
  184.5570  174.3340  134.8040 O   0  0  0  0  0  1  0  0  0  0  0  0
  187.6320  174.1930  136.6350 C   0  0  0  0  0  2  0  0  0  0  0  0
  188.6880  172.0170  135.9040 C   0  0  0  0  0  2  0  0  0  0  0  0
  188.6170  173.0820  137.0140 C   0  0  1  0  0  3  0  0  0  0  0  0
  186.2350  173.5790  136.3500 C   0  0  2  0  0  3  0  0  0  0  0  0
  187.3040  171.3740  135.7100 C   0  0  0  0  0  2  0  0  0  0  0  0
  186.3030  172.4610  135.2780 C   0  0  0  0  0  2  0  0  0  0  0  0
  190.6540  173.0620  136.1520 C   0  0  0  0  0  1  0  0  0  0  0  0
  189.8920  173.6070  137.1880 O   0  0  0  0  0  0  0  0  0  0  0  0
  1 27  1  1  0  0  0
  1 18  1  0  0  0  0
  1  8  1  0  0  0  0
  2  5  1  0  0  0  0
  3  4  1  0  0  0  0
  5  6  2  0  0  0  0
  5  7  1  0  0  0  0
  6 19  1  0  0  0  0
  7  3  2  0  0  0  0
  8 16  1  1  0  0  0
  8 23  1  0  0  0  0
  9  1  1  0  0  0  0
 10 28  1  1  0  0  0
 11 10  1  0  0  0  0
 12  2  2  0  0  0  0
 12 25  1  0  0  0  0
 13 15  1  0  0  0  0
 15 24  1  0  0  0  0
 17 13  1  6  0  0  0
 17 22  1  0  0  0  0
 18 14  1  6  0  0  0
 18 11  1  0  0  0  0
 19  4  2  0  0  0  0
 20  7  1  0  0  0  0
 22 24  1  0  0  0  0
 22 16  1  1  0  0  0
 23 10  1  0  0  0  0
 23 21  2  0  0  0  0
 24  6  1  0  0  0  0
 25 20  2  0  0  0  0
 26 44  1  6  0  0  0
 26  9  1  0  0  0  0
 26 17  1  0  0  0  0
 28 30  1  0  0  0  0
 30 29  1  6  0  0  0
 30 32  1  0  0  0  0
 31 35  1  0  0  0  0
 32 31  2  0  0  0  0
 33 40  1  6  0  0  0
 33 32  1  0  0  0  0
 33 37  1  0  0  0  0
 34 43  1  1  0  0  0
 34 40  1  0  0  0  0
 34 41  1  0  0  0  0
 35 38  1  0  0  0  0
 36 39  1  0  0  0  0
 37 39  1  6  0  0  0
 37 38  1  0  0  0  0
 41 33  1  0  0  0  0
 41 36  1  1  0  0  0
 42 43  1  0  0  0  0
 44 45  1  0  0  0  0
 46 47  1  6  0  0  0
 46 45  1  0  0  0  0
 48 50  1  0  0  0  0
 49 50  1  0  0  0  0
 50 55  1  6  0  0  0
 51 46  1  6  0  0  0
 51 48  1  0  0  0  0
 52 49  1  0  0  0  0
 53 52  1  0  0  0  0
 53 51  1  0  0  0  0
 54 55  1  0  0  0  0
M  END
>  <MODEL>
4

>  <REMARK>
 VINA RESULT:      -7.5      1.373      1.790
  Name = 
  9 active torsions:
  status: ('A' for Active; 'I' for Inactive)
    1  A    between atoms: C_5  and  C_36
    2  A    between atoms: C_7  and  C_44
    3  A    between atoms: O_18  and  C_24
    4  A    between atoms: C_19  and  C_32
    5  A    between atoms: C_22  and  C_28
    6  A    between atoms: C_22  and  C_31
    7  A    between atoms: C_28  and  N_42
    8  A    between atoms: C_32  and  C_36
    9  A    between atoms: N_42  and  C_54
                            x       y       z     vdW  Elec       q    Type
                         _______ _______ _______ _____ _____    ______ ____

>  <TORSDO>
F 9

$$$$
=
 OpenBabel10222417033D

 55 63  0  0  1  0  0  0  0  0999 V2000
  185.2800  178.3970  139.6090 C   0  0  2  0  0  0  0  0  0  0  0  0
  180.2330  179.5760  138.8360 C   0  0  0  0  0  3  0  0  0  0  0  0
  179.4420  180.5070  142.2890 N   0  0  0  0  0  0  0  0  0  0  0  0
  179.5640  179.3250  142.9380 C   0  0  0  0  0  3  0  0  0  0  0  0
  180.0000  179.4600  140.2120 C   0  0  0  0  0  0  0  0  0  0  0  0
  180.1410  178.2470  140.9030 C   0  0  0  0  0  0  0  0  0  0  0  0
  179.5910  180.5970  140.9410 C   0  0  0  0  0  0  0  0  0  0  0  0
  184.5270  177.8420  140.8460 C   0  0  2  0  0  3  0  0  0  0  0  0
  184.7910  177.8760  138.2310 C   0  0  0  0  0  2  0  0  0  0  0  0
  186.7730  177.9060  142.0740 C   0  0  2  0  0  3  0  0  0  0  0  0
  187.4010  178.4520  140.9310 O   0  0  0  0  0  0  0  0  0  0  0  0
  180.0680  180.8010  138.1850 C   0  0  0  0  0  3  0  0  0  0  0  0
  181.3300  176.1920  138.1470 C   0  0  0  0  0  2  0  0  0  0  0  0
  187.4860  178.6340  138.6830 F   0  0  0  0  0  0  0  0  0  0  0  0
  180.1930  176.4750  139.1220 C   0  0  0  0  0  2  0  0  0  0  0  0
  183.0330  178.2030  140.8430 C   0  0  0  0  0  2  0  0  0  0  0  0
  182.4390  177.1270  138.5930 C   0  0  1  0  0  3  0  0  0  0  0  0
  186.7880  178.0440  139.7220 C   0  0  2  0  0  3  0  0  0  0  0  0
  179.9220  178.2060  142.2440 N   0  0  0  0  0  0  0  0  0  0  0  0
  179.4190  181.8190  140.2850 C   0  0  0  0  0  3  0  0  0  0  0  0
  184.6670  178.6750  143.2000 C   0  0  0  0  0  2  0  0  0  0  0  0
  182.2480  177.1100  140.1050 C   0  0  2  0  0  3  0  0  0  0  0  0
  185.2890  178.2450  142.0890 C   0  0  0  0  0  0  0  0  0  0  0  0
  180.8080  177.1260  140.2780 N   0  0  0  0  0  0  0  0  0  0  0  0
  179.6430  181.9210  138.9060 C   0  0  0  0  0  3  0  0  0  0  0  0
  183.8530  176.6610  138.2240 C   0  0  1  0  0  3  0  0  0  0  0  0
  185.1410  179.7840  139.6200 O   0  0  0  0  0  1  0  0  0  0  0  0
  187.5420  178.4730  143.2740 C   0  0  0  0  0  2  0  0  0  0  0  0
  189.9330  178.6250  142.9640 O   0  0  0  0  0  1  0  0  0  0  0  0
  188.9240  177.8510  143.5320 C   0  0  1  0  0  3  0  0  0  0  0  0
  190.1700  176.4960  145.2050 C   0  0  0  0  0  3  0  0  0  0  0  0
  189.2710  177.4500  144.9510 C   0  0  0  0  0  0  0  0  0  0  0  0
  188.4590  177.9670  146.1430 C   0  0  1  0  0  0  0  0  0  0  0  0
  186.5310  177.8080  146.0850 C   0  0  1  0  0  3  0  0  0  0  0  0
  190.4310  176.0970  146.6240 C   0  0  0  0  0  2  0  0  0  0  0  0
  187.6390  177.0660  148.1220 C   0  0  0  0  0  2  0  0  0  0  0  0
  189.4040  178.3920  147.2840 C   0  0  2  0  0  3  0  0  0  0  0  0
  190.5730  177.3810  147.4720 C   0  0  0  0  0  2  0  0  0  0  0  0
  188.5170  178.2550  148.4850 C   0  0  0  0  0  2  0  0  0  0  0  0
  187.4260  178.8610  145.7720 O   0  0  0  0  0  0  0  0  0  0  0  0
  187.5620  176.9290  146.6550 N   0  0  2  0  0  0  0  0  0  0  0  0
  184.1780  178.6190  146.2380 C   0  0  0  0  0  1  0  0  0  0  0  0
  185.3940  178.2090  147.0660 C   0  0  0  0  0  2  0  0  0  0  0  0
  183.9170  175.9350  136.9390 N   0  0  0  0  0  2  0  0  0  0  0  0
  185.1990  175.2510  136.7960 C   0  0  0  0  0  2  0  0  0  0  0  0
  185.8290  175.5520  135.4380 C   0  0  2  0  0  3  0  0  0  0  0  0
  185.6970  174.4390  134.6080 O   0  0  0  0  0  1  0  0  0  0  0  0
  187.9680  175.2890  136.8160 C   0  0  0  0  0  2  0  0  0  0  0  0
  189.6190  177.2000  136.8870 C   0  0  0  0  0  2  0  0  0  0  0  0
  189.4520  175.6690  136.8800 C   0  0  1  0  0  3  0  0  0  0  0  0
  187.3160  175.9350  135.5650 C   0  0  2  0  0  3  0  0  0  0  0  0
  189.0360  177.7940  135.5930 C   0  0  0  0  0  2  0  0  0  0  0  0
  187.5320  177.4690  135.5270 C   0  0  0  0  0  2  0  0  0  0  0  0
  191.1400  175.9820  138.2750 C   0  0  0  0  0  1  0  0  0  0  0  0
  190.0280  175.1680  138.0410 O   0  0  0  0  0  0  0  0  0  0  0  0
  1 27  1  1  0  0  0
  1 18  1  0  0  0  0
  1  8  1  0  0  0  0
  2  5  1  0  0  0  0
  3  4  1  0  0  0  0
  5  6  2  0  0  0  0
  5  7  1  0  0  0  0
  6 19  1  0  0  0  0
  7  3  2  0  0  0  0
  8 16  1  1  0  0  0
  8 23  1  0  0  0  0
  9  1  1  0  0  0  0
 10 23  1  0  0  0  0
 10 28  1  1  0  0  0
 11 10  1  0  0  0  0
 12  2  2  0  0  0  0
 12 25  1  0  0  0  0
 13 15  1  0  0  0  0
 15 24  1  0  0  0  0
 17 13  1  6  0  0  0
 17 22  1  0  0  0  0
 18 14  1  6  0  0  0
 18 11  1  0  0  0  0
 19  4  2  0  0  0  0
 20  7  1  0  0  0  0
 22 24  1  0  0  0  0
 22 16  1  1  0  0  0
 23 21  2  0  0  0  0
 24  6  1  0  0  0  0
 25 20  2  0  0  0  0
 26 44  1  6  0  0  0
 26  9  1  0  0  0  0
 26 17  1  0  0  0  0
 28 30  1  0  0  0  0
 30 29  1  1  0  0  0
 30 32  1  0  0  0  0
 31 35  1  0  0  0  0
 32 31  2  0  0  0  0
 33 32  1  6  0  0  0
 33 41  1  0  0  0  0
 33 37  1  0  0  0  0
 34 41  1  0  0  0  0
 34 43  1  1  0  0  0
 35 38  1  0  0  0  0
 36 39  1  0  0  0  0
 37 38  1  1  0  0  0
 37 39  1  0  0  0  0
 40 34  1  0  0  0  0
 40 33  1  0  0  0  0
 41 36  1  1  0  0  0
 42 43  1  0  0  0  0
 45 44  1  0  0  0  0
 46 47  1  6  0  0  0
 46 45  1  0  0  0  0
 48 50  1  0  0  0  0
 50 49  1  0  0  0  0
 50 55  1  1  0  0  0
 51 46  1  1  0  0  0
 51 48  1  0  0  0  0
 52 49  1  0  0  0  0
 53 51  1  0  0  0  0
 53 52  1  0  0  0  0
 55 54  1  0  0  0  0
M  END
>  <MODEL>
5

>  <REMARK>
 VINA RESULT:      -7.2      1.205      2.318
  Name = 
  9 active torsions:
  status: ('A' for Active; 'I' for Inactive)
    1  A    between atoms: C_5  and  C_36
    2  A    between atoms: C_7  and  C_44
    3  A    between atoms: O_18  and  C_24
    4  A    between atoms: C_19  and  C_32
    5  A    between atoms: C_22  and  C_28
    6  A    between atoms: C_22  and  C_31
    7  A    between atoms: C_28  and  N_42
    8  A    between atoms: C_32  and  C_36
    9  A    between atoms: N_42  and  C_54
                            x       y       z     vdW  Elec       q    Type
                         _______ _______ _______ _____ _____    ______ ____

>  <TORSDO>
F 9

$$$$
=
 OpenBabel10222417033D

 55 63  0  0  1  0  0  0  0  0999 V2000
  182.4260  177.5890  139.9970 C   0  0  2  0  0  0  0  0  0  0  0  0
  182.2860  174.6910  135.6340 C   0  0  0  0  0  3  0  0  0  0  0  0
  185.8950  174.6230  135.0100 N   0  0  0  0  0  0  0  0  0  0  0  0
  186.1590  175.9180  134.7160 C   0  0  0  0  0  3  0  0  0  0  0  0
  183.5770  175.1280  135.3080 C   0  0  0  0  0  0  0  0  0  0  0  0
  183.8700  176.4700  135.0210 C   0  0  0  0  0  0  0  0  0  0  0  0
  184.6290  174.1900  135.2470 C   0  0  0  0  0  0  0  0  0  0  0  0
  183.4790  178.2160  139.0460 C   0  0  2  0  0  3  0  0  0  0  0  0
  180.9810  177.4940  139.4370 C   0  0  0  0  0  2  0  0  0  0  0  0
  184.5580  179.2370  141.1310 C   0  0  2  0  0  3  0  0  0  0  0  0
  183.5980  178.6070  141.9560 O   0  0  0  0  0  0  0  0  0  0  0  0
  182.0370  173.3430  135.9000 C   0  0  0  0  0  3  0  0  0  0  0  0
  180.5730  177.8830  135.6280 C   0  0  0  0  0  2  0  0  0  0  0  0
  181.5030  177.8050  142.2070 F   0  0  0  0  0  0  0  0  0  0  0  0
  181.6440  177.5550  134.5940 C   0  0  0  0  0  2  0  0  0  0  0  0
  183.6570  177.4140  137.7470 C   0  0  0  0  0  2  0  0  0  0  0  0
  181.2210  177.5270  136.9540 C   0  0  1  0  0  3  0  0  0  0  0  0
  182.3540  178.4210  141.3060 C   0  0  2  0  0  3  0  0  0  0  0  0
  185.1470  176.8340  134.7330 N   0  0  0  0  0  0  0  0  0  0  0  0
  184.3740  172.8400  135.5060 C   0  0  0  0  0  3  0  0  0  0  0  0
  185.9630  178.2060  139.3270 C   0  0  0  0  0  2  0  0  0  0  0  0
  182.6670  177.9290  136.6920 C   0  0  2  0  0  3  0  0  0  0  0  0
  184.7460  178.4630  139.8340 C   0  0  0  0  0  0  0  0  0  0  0  0
  182.9090  177.5070  135.3260 N   0  0  0  0  0  0  0  0  0  0  0  0
  183.0780  172.4120  135.8190 C   0  0  0  0  0  3  0  0  0  0  0  0
  180.6610  178.2870  138.1630 C   0  0  1  0  0  3  0  0  0  0  0  0
  182.8540  176.3000  140.3060 O   0  0  0  0  0  1  0  0  0  0  0  0
  185.8320  179.3260  141.9800 C   0  0  0  0  0  2  0  0  0  0  0  0
  187.2400  177.3970  142.3470 O   0  0  0  0  0  1  0  0  0  0  0  0
  186.1420  178.0930  142.8450 C   0  0  1  0  0  3  0  0  0  0  0  0
  185.5000  179.1870  144.9850 C   0  0  0  0  0  3  0  0  0  0  0  0
  186.2460  178.2840  144.3450 C   0  0  0  0  0  0  0  0  0  0  0  0
  187.3540  177.6040  145.1550 C   0  0  1  0  0  0  0  0  0  0  0  0
  189.1820  177.7770  144.5480 C   0  0  1  0  0  3  0  0  0  0  0  0
  185.6870  179.3770  146.4580 C   0  0  0  0  0  2  0  0  0  0  0  0
  188.7570  178.2140  146.9050 C   0  0  0  0  0  2  0  0  0  0  0  0
  186.7720  177.0150  146.4570 C   0  0  2  0  0  3  0  0  0  0  0  0
  185.7520  177.9830  147.1230 C   0  0  0  0  0  2  0  0  0  0  0  0
  187.9800  176.9810  147.3440 C   0  0  0  0  0  2  0  0  0  0  0  0
  188.1950  176.7770  144.3730 O   0  0  0  0  0  0  0  0  0  0  0  0
  188.4020  178.5610  145.5160 N   0  0  2  0  0  0  0  0  0  0  0  0
  191.6580  177.9240  144.2890 C   0  0  0  0  0  1  0  0  0  0  0  0
  190.5420  177.2440  145.0790 C   0  0  0  0  0  2  0  0  0  0  0  0
  179.2180  178.5820  138.0550 N   0  0  0  0  0  2  0  0  0  0  0  0
  178.9760  180.0190  138.1380 C   0  0  0  0  0  2  0  0  0  0  0  0
  180.2480  180.7660  138.5330 C   0  0  2  0  0  3  0  0  0  0  0  0
  180.0790  181.3370  139.7930 O   0  0  0  0  0  1  0  0  0  0  0  0
  180.1300  183.2570  137.9660 C   0  0  0  0  0  2  0  0  0  0  0  0
  180.0060  183.9550  135.5410 C   0  0  0  0  0  2  0  0  0  0  0  0
  180.5500  184.3120  136.9360 C   0  0  1  0  0  3  0  0  0  0  0  0
  180.6170  181.8560  137.5100 C   0  0  2  0  0  3  0  0  0  0  0  0
  180.5780  182.6000  135.0890 C   0  0  0  0  0  2  0  0  0  0  0  0
  180.1280  181.5110  136.0810 C   0  0  0  0  0  2  0  0  0  0  0  0
  178.9310  185.7440  136.4670 C   0  0  0  0  0  1  0  0  0  0  0  0
  180.0460  185.5580  137.2880 O   0  0  0  0  0  0  0  0  0  0  0  0
  1 27  1  1  0  0  0
  1 18  1  0  0  0  0
  2 12  1  0  0  0  0
  3  7  1  0  0  0  0
  4 19  1  0  0  0  0
  4  3  2  0  0  0  0
  5  2  2  0  0  0  0
  6  5  1  0  0  0  0
  6 24  1  0  0  0  0
  7  5  1  0  0  0  0
  7 20  2  0  0  0  0
  8 16  1  6  0  0  0
  8 23  1  0  0  0  0
  8  1  1  0  0  0  0
  9  1  1  0  0  0  0
 10 11  1  0  0  0  0
 10 28  1  1  0  0  0
 15 24  1  0  0  0  0
 15 13  1  0  0  0  0
 17 13  1  6  0  0  0
 17 26  1  0  0  0  0
 18 11  1  0  0  0  0
 18 14  1  1  0  0  0
 19  6  2  0  0  0  0
 20 25  1  0  0  0  0
 21 23  2  0  0  0  0
 22 17  1  0  0  0  0
 22 16  1  1  0  0  0
 23 10  1  0  0  0  0
 24 22  1  0  0  0  0
 25 12  2  0  0  0  0
 26 44  1  6  0  0  0
 26  9  1  0  0  0  0
 28 30  1  0  0  0  0
 30 29  1  6  0  0  0
 30 32  1  0  0  0  0
 31 35  1  0  0  0  0
 32 31  2  0  0  0  0
 33 32  1  6  0  0  0
 33 41  1  0  0  0  0
 33 37  1  0  0  0  0
 34 43  1  1  0  0  0
 34 41  1  0  0  0  0
 35 38  1  0  0  0  0
 36 39  1  0  0  0  0
 37 38  1  1  0  0  0
 37 39  1  0  0  0  0
 40 34  1  0  0  0  0
 40 33  1  0  0  0  0
 41 36  1  1  0  0  0
 42 43  1  0  0  0  0
 44 45  1  0  0  0  0
 45 46  1  0  0  0  0
 46 47  1  1  0  0  0
 49 50  1  0  0  0  0
 50 55  1  1  0  0  0
 50 48  1  0  0  0  0
 51 48  1  0  0  0  0
 51 46  1  1  0  0  0
 52 49  1  0  0  0  0
 52 53  1  0  0  0  0
 53 51  1  0  0  0  0
 54 55  1  0  0  0  0
M  END
>  <MODEL>
6

>  <REMARK>
 VINA RESULT:      -7.0      2.651      7.058
  Name = 
  9 active torsions:
  status: ('A' for Active; 'I' for Inactive)
    1  A    between atoms: C_5  and  C_36
    2  A    between atoms: C_7  and  C_44
    3  A    between atoms: O_18  and  C_24
    4  A    between atoms: C_19  and  C_32
    5  A    between atoms: C_22  and  C_28
    6  A    between atoms: C_22  and  C_31
    7  A    between atoms: C_28  and  N_42
    8  A    between atoms: C_32  and  C_36
    9  A    between atoms: N_42  and  C_54
                            x       y       z     vdW  Elec       q    Type
                         _______ _______ _______ _____ _____    ______ ____

>  <TORSDO>
F 9

$$$$
=
 OpenBabel10222417033D

 55 63  0  0  1  0  0  0  0  0999 V2000
  188.3420  177.2980  140.4910 C   0  0  2  0  0  0  0  0  0  0  0  0
  188.8340  174.8730  135.8720 C   0  0  0  0  0  3  0  0  0  0  0  0
  192.3910  174.0480  136.1600 N   0  0  0  0  0  0  0  0  0  0  0  0
  192.9710  175.2710  136.1230 C   0  0  0  0  0  3  0  0  0  0  0  0
  190.2230  175.0350  135.9390 C   0  0  0  0  0  0  0  0  0  0  0  0
  190.8390  176.2950  135.9230 C   0  0  0  0  0  0  0  0  0  0  0  0
  191.0490  173.8930  136.0130 C   0  0  0  0  0  0  0  0  0  0  0  0
  189.7150  177.7480  139.9260 C   0  0  2  0  0  3  0  0  0  0  0  0
  187.1150  177.5760  139.5820 C   0  0  0  0  0  2  0  0  0  0  0  0
  190.3640  178.3270  142.3350 C   0  0  2  0  0  3  0  0  0  0  0  0
  189.1120  177.8620  142.8010 O   0  0  0  0  0  0  0  0  0  0  0  0
  188.2640  173.5980  135.8780 C   0  0  0  0  0  3  0  0  0  0  0  0
  187.8420  178.3570  135.8830 C   0  0  0  0  0  2  0  0  0  0  0  0
  186.9140  177.5320  142.4110 F   0  0  0  0  0  0  0  0  0  0  0  0
  189.0680  177.8840  135.1110 C   0  0  0  0  0  2  0  0  0  0  0  0
  190.0800  177.0360  138.6140 C   0  0  0  0  0  2  0  0  0  0  0  0
  188.0230  177.7570  137.2650 C   0  0  1  0  0  3  0  0  0  0  0  0
  188.0810  178.0140  141.8430 C   0  0  2  0  0  3  0  0  0  0  0  0
  192.1920  176.3870  136.0150 N   0  0  0  0  0  0  0  0  0  0  0  0
  190.4750  172.6180  136.0110 C   0  0  0  0  0  3  0  0  0  0  0  0
  191.9790  177.1590  140.8110 C   0  0  0  0  0  2  0  0  0  0  0  0
  189.5350  177.8450  137.4290 C   0  0  2  0  0  3  0  0  0  0  0  0
  190.7440  177.6400  141.0310 C   0  0  0  0  0  0  0  0  0  0  0  0
  190.0520  177.4930  136.1200 N   0  0  0  0  0  0  0  0  0  0  0  0
  189.0850  172.4670  135.9310 C   0  0  0  0  0  3  0  0  0  0  0  0
  187.3140  178.5220  138.3910 C   0  0  1  0  0  3  0  0  0  0  0  0
  188.4110  175.9240  140.7150 O   0  0  0  0  0  1  0  0  0  0  0  0
  191.3510  178.0580  143.4770 C   0  0  0  0  0  2  0  0  0  0  0  0
  192.0560  175.7650  143.7640 O   0  0  0  0  0  1  0  0  0  0  0  0
  191.1590  176.7260  144.2220 C   0  0  1  0  0  3  0  0  0  0  0  0
  191.9300  176.0010  146.4730 C   0  0  0  0  0  3  0  0  0  0  0  0
  191.1130  176.7570  145.7360 C   0  0  0  0  0  0  0  0  0  0  0  0
  189.9920  177.4880  146.4810 C   0  0  1  0  0  0  0  0  0  0  0  0
  188.1590  177.1270  145.9780 C   0  0  1  0  0  3  0  0  0  0  0  0
  191.8010  176.0240  147.9640 C   0  0  0  0  0  2  0  0  0  0  0  0
  188.6820  177.0720  148.3550 C   0  0  0  0  0  2  0  0  0  0  0  0
  190.5770  178.2970  147.6570 C   0  0  2  0  0  3  0  0  0  0  0  0
  191.6730  177.4960  148.4190 C   0  0  0  0  0  2  0  0  0  0  0  0
  189.3970  178.3970  148.5770 C   0  0  0  0  0  2  0  0  0  0  0  0
  189.0790  178.1430  145.6190 O   0  0  0  0  0  0  0  0  0  0  0  0
  189.0140  176.5410  147.0190 N   0  0  2  0  0  0  0  0  0  0  0  0
  185.9870  178.1200  145.2610 C   0  0  0  0  0  1  0  0  0  0  0  0
  186.7870  177.6590  146.4780 C   0  0  0  0  0  2  0  0  0  0  0  0
  186.0400  179.1400  137.9700 N   0  0  0  0  0  2  0  0  0  0  0  0
  184.9060  178.3200  138.3850 C   0  0  0  0  0  2  0  0  0  0  0  0
  183.7750  179.1870  138.9330 C   0  0  2  0  0  3  0  0  0  0  0  0
  184.2190  180.5030  139.0590 O   0  0  0  0  0  1  0  0  0  0  0  0
  181.8250  179.1790  140.5880 C   0  0  0  0  0  2  0  0  0  0  0  0
  182.3210  179.0030  143.0590 C   0  0  0  0  0  2  0  0  0  0  0  0
  181.3470  178.6170  141.9320 C   0  0  1  0  0  3  0  0  0  0  0  0
  183.2630  178.6750  140.2920 C   0  0  2  0  0  3  0  0  0  0  0  0
  183.7120  178.4140  142.7710 C   0  0  0  0  0  2  0  0  0  0  0  0
  184.2410  179.0030  141.4490 C   0  0  0  0  0  2  0  0  0  0  0  0
  179.8710  178.7440  143.5740 C   0  0  0  0  0  1  0  0  0  0  0  0
  180.0940  179.1290  142.2500 O   0  0  0  0  0  0  0  0  0  0  0  0
  1 27  1  1  0  0  0
  1 18  1  0  0  0  0
  2 12  2  0  0  0  0
  2  5  1  0  0  0  0
  4  3  1  0  0  0  0
  5  7  1  0  0  0  0
  6  5  2  0  0  0  0
  6 19  1  0  0  0  0
  6 24  1  0  0  0  0
  7  3  2  0  0  0  0
  8 16  1  6  0  0  0
  8  1  1  0  0  0  0
  8 23  1  0  0  0  0
  9  1  1  0  0  0  0
 10 11  1  0  0  0  0
 10 28  1  1  0  0  0
 12 25  1  0  0  0  0
 15 13  1  0  0  0  0
 15 24  1  0  0  0  0
 17 13  1  6  0  0  0
 17 22  1  0  0  0  0
 17 26  1  0  0  0  0
 18 14  1  1  0  0  0
 18 11  1  0  0  0  0
 19  4  2  0  0  0  0
 20  7  1  0  0  0  0
 21 23  2  0  0  0  0
 22 16  1  1  0  0  0
 23 10  1  0  0  0  0
 24 22  1  0  0  0  0
 25 20  2  0  0  0  0
 26 44  1  6  0  0  0
 26  9  1  0  0  0  0
 28 30  1  0  0  0  0
 30 29  1  1  0  0  0
 30 32  1  0  0  0  0
 31 35  1  0  0  0  0
 32 31  2  0  0  0  0
 32 33  1  0  0  0  0
 33 40  1  6  0  0  0
 33 41  1  0  0  0  0
 33 37  1  0  0  0  0
 34 43  1  1  0  0  0
 34 41  1  0  0  0  0
 35 38  1  0  0  0  0
 36 39  1  0  0  0  0
 37 38  1  1  0  0  0
 37 39  1  0  0  0  0
 40 34  1  0  0  0  0
 41 36  1  1  0  0  0
 42 43  1  0  0  0  0
 44 45  1  0  0  0  0
 45 46  1  0  0  0  0
 46 47  1  1  0  0  0
 48 50  1  0  0  0  0
 50 55  1  1  0  0  0
 50 49  1  0  0  0  0
 51 46  1  6  0  0  0
 51 48  1  0  0  0  0
 51 53  1  0  0  0  0
 52 49  1  0  0  0  0
 53 52  1  0  0  0  0
 55 54  1  0  0  0  0
M  END
>  <MODEL>
7

>  <REMARK>
 VINA RESULT:      -6.3      2.789      8.122
  Name = 
  9 active torsions:
  status: ('A' for Active; 'I' for Inactive)
    1  A    between atoms: C_5  and  C_36
    2  A    between atoms: C_7  and  C_44
    3  A    between atoms: O_18  and  C_24
    4  A    between atoms: C_19  and  C_32
    5  A    between atoms: C_22  and  C_28
    6  A    between atoms: C_22  and  C_31
    7  A    between atoms: C_28  and  N_42
    8  A    between atoms: C_32  and  C_36
    9  A    between atoms: N_42  and  C_54
                            x       y       z     vdW  Elec       q    Type
                         _______ _______ _______ _____ _____    ______ ____

>  <TORSDO>
F 9

$$$$
