=
 OpenBabel10222416183D

 46 51  0  0  1  0  0  0  0  0999 V2000
  192.2330  175.3600  135.5850 C   0  0  0  0  0  0  0  0  0  0  0  0
  193.3910  176.1590  138.7940 C   0  0  0  0  0  0  0  0  0  0  0  0
  194.4940  176.1320  139.6960 N   0  0  0  0  0  1  0  0  0  0  0  0
  190.0330  176.8350  137.2060 C   0  0  0  0  0  0  0  0  0  0  0  0
  193.3080  174.6230  135.0970 O   0  0  0  0  0  1  0  0  0  0  0  0
  191.2020  175.7070  134.5940 C   0  0  0  0  0  3  0  0  0  0  0  0
  189.3830  176.1090  136.1510 N   0  0  0  0  0  0  0  0  0  0  0  0
  189.9400  176.0380  134.8360 C   0  0  0  0  0  3  0  0  0  0  0  0
  193.4040  175.5450  137.5930 N   0  0  0  0  0  0  0  0  0  0  0  0
  192.2700  175.7700  136.8680 C   0  0  0  0  0  0  0  0  0  0  0  0
  191.3080  176.5640  137.5470 C   0  0  0  0  0  0  0  0  0  0  0  0
  191.9950  177.0420  139.0230 S   0  0  0  0  0  0  0  0  0  0  0  0
  187.5680  173.1750  136.9670 C   0  0  0  0  0  2  0  0  0  0  0  0
  188.2230  175.2750  136.4660 C   0  0  1  0  0  3  0  0  0  0  0  0
  186.2030  173.3980  136.3740 C   0  0  0  0  0  0  0  0  0  0  0  0
  185.4260  172.4660  136.2670 O   0  0  0  0  0  0  0  0  0  0  0  0
  186.9960  175.6590  135.6250 C   0  0  0  0  0  2  0  0  0  0  0  0
  188.5350  173.9180  136.2630 O   0  0  0  0  0  0  0  0  0  0  0  0
  185.7850  174.7950  135.9920 C   0  0  2  0  0  3  0  0  0  0  0  0
  185.0140  175.4570  137.1230 C   0  0  0  0  0  2  0  0  0  0  0  0
  183.7100  176.0300  136.5830 C   0  0  0  0  0  2  0  0  0  0  0  0
  182.2020  176.4440  138.4440 C   0  0  0  0  0  1  0  0  0  0  0  0
  182.1570  178.0770  136.6660 C   0  0  0  0  0  1  0  0  0  0  0  0
  183.0900  177.1510  137.4410 C   0  0  0  0  0  0  0  0  0  0  0  0
  184.0550  177.8660  138.1980 O   0  0  0  0  0  0  0  0  0  0  0  0
  181.7680  179.3680  138.7900 O   0  0  0  0  0  0  0  0  0  0  0  0
  184.1830  180.3150  139.0810 O   0  0  0  0  0  1  0  0  0  0  0  0
  183.4360  178.5840  140.8580 O   0  0  0  0  0  1  0  0  0  0  0  0
  183.3760  179.0540  139.2370 P   0  0  0  0  0  0  0  0  0  0  0  0
  187.0800  178.6310  138.5140 O   0  0  0  0  0  1  0  0  0  0  0  0
  189.2700  177.8530  138.0350 C   0  0  1  0  0  3  0  0  0  0  0  0
  187.8340  177.4700  138.3280 C   0  0  1  0  0  3  0  0  0  0  0  0
  188.9110  177.2980  139.3980 C   0  0  2  0  0  3  0  0  0  0  0  0
  188.9690  178.4250  140.4180 C   0  0  0  0  0  2  0  0  0  0  0  0
  188.9530  177.8830  141.8060 C   0  0  0  0  0  0  0  0  0  0  0  0
  190.0980  176.8640  143.6620 C   0  0  0  0  0  3  0  0  0  0  0  0
  190.1260  177.3780  142.3670 C   0  0  0  0  0  3  0  0  0  0  0  0
  187.7390  177.3420  143.7740 C   0  0  0  0  0  0  0  0  0  0  0  0
  187.7970  177.8470  142.5150 N   0  0  0  0  0  0  0  0  0  0  0  0
  188.9030  176.8510  144.3770 C   0  0  0  0  0  3  0  0  0  0  0  0
  186.4430  177.4040  144.5190 C   0  0  2  0  0  3  0  0  0  0  0  0
  184.6770  178.9360  144.9200 C   0  0  0  0  0  2  0  0  0  0  0  0
  185.4580  178.2960  143.8060 C   0  0  0  0  0  2  0  0  0  0  0  0
  184.9390  178.7160  147.2690 O   0  0  0  0  0  1  0  0  0  0  0  0
  186.6220  177.8980  145.8830 N   0  0  0  0  0  2  0  0  0  0  0  0
  185.6370  178.9480  146.0880 C   0  0  1  0  0  3  0  0  0  0  0  0
  1 10  2  0  0  0  0
  2 12  1  0  0  0  0
  2  3  1  0  0  0  0
  4 11  2  0  0  0  0
  5  1  1  0  0  0  0
  6  8  2  0  0  0  0
  6  1  1  0  0  0  0
  7 14  1  0  0  0  0
  7  4  1  0  0  0  0
  8  7  1  0  0  0  0
  9  2  2  0  0  0  0
 10 11  1  0  0  0  0
 10  9  1  0  0  0  0
 11 12  1  0  0  0  0
 14 17  1  6  0  0  0
 15 13  1  0  0  0  0
 16 15  2  0  0  0  0
 17 19  1  0  0  0  0
 18 14  1  0  0  0  0
 18 13  1  0  0  0  0
 19 15  1  0  0  0  0
 19 20  1  1  0  0  0
 21 20  1  0  0  0  0
 21 24  1  0  0  0  0
 23 24  1  0  0  0  0
 24 25  1  0  0  0  0
 24 22  1  0  0  0  0
 25 29  1  0  0  0  0
 26 29  2  0  0  0  0
 27 29  1  0  0  0  0
 29 28  1  0  0  0  0
 31  4  1  6  0  0  0
 31 32  1  0  0  0  0
 31 33  1  0  0  0  0
 32 30  1  1  0  0  0
 32 33  1  0  0  0  0
 33 34  1  1  0  0  0
 34 35  1  0  0  0  0
 35 37  2  0  0  0  0
 35 39  1  0  0  0  0
 36 40  2  0  0  0  0
 37 36  1  0  0  0  0
 38 40  1  0  0  0  0
 39 38  2  0  0  0  0
 41 38  1  6  0  0  0
 41 45  1  0  0  0  0
 42 46  1  0  0  0  0
 43 41  1  0  0  0  0
 43 42  1  0  0  0  0
 45 46  1  0  0  0  0
 46 44  1  1  0  0  0
M  END
>  <MODEL>
1

>  <REMARK>
 VINA RESULT:      -8.1      0.000      0.000
  Name = 
  10 active torsions:
  status: ('A' for Active; 'I' for Inactive)
    1  A    between atoms: C_6  and  C_15
    2  A    between atoms: C_6  and  C_44
    3  A    between atoms: C_8  and  C_17
    4  A    between atoms: C_10  and  N_31
    5  A    between atoms: C_12  and  C_32
    6  A    between atoms: C_13  and  C_14
    7  A    between atoms: C_15  and  C_46
    8  A    between atoms: C_17  and  C_23
    9  A    between atoms: P_35  and  O_43
   10  A    between atoms: O_43  and  C_44
                            x       y       z     vdW  Elec       q    Type
                         _______ _______ _______ _____ _____    ______ ____

>  <TORSDO>
F 10

$$$$
=
 OpenBabel10222416183D

 46 51  0  0  1  0  0  0  0  0999 V2000
  189.3830  176.1200  136.5250 C   0  0  0  0  0  0  0  0  0  0  0  0
  190.3720  177.3520  139.6520 C   0  0  0  0  0  0  0  0  0  0  0  0
  191.4420  177.5020  140.5820 N   0  0  0  0  0  1  0  0  0  0  0  0
  187.0350  177.6140  137.9030 C   0  0  0  0  0  0  0  0  0  0  0  0
  190.5200  175.4070  136.1550 O   0  0  0  0  0  1  0  0  0  0  0  0
  188.3680  176.2820  135.4720 C   0  0  0  0  0  3  0  0  0  0  0  0
  186.4720  176.7320  136.9210 N   0  0  0  0  0  0  0  0  0  0  0  0
  187.0790  176.5510  135.6390 C   0  0  0  0  0  3  0  0  0  0  0  0
  190.4670  176.6100  138.5310 N   0  0  0  0  0  0  0  0  0  0  0  0
  189.3480  176.6740  137.7530 C   0  0  0  0  0  0  0  0  0  0  0  0
  188.3130  177.4720  138.3100 C   0  0  0  0  0  0  0  0  0  0  0  0
  188.9140  178.1580  139.7390 S   0  0  0  0  0  0  0  0  0  0  0  0
  184.7470  173.7120  137.6070 C   0  0  0  0  0  2  0  0  0  0  0  0
  185.3580  175.8610  137.2970 C   0  0  1  0  0  3  0  0  0  0  0  0
  183.3120  174.0110  137.2680 C   0  0  0  0  0  0  0  0  0  0  0  0
  182.5100  173.1010  137.1580 O   0  0  0  0  0  0  0  0  0  0  0  0
  184.0240  176.3540  136.7150 C   0  0  0  0  0  2  0  0  0  0  0  0
  185.6080  174.5450  136.8680 O   0  0  0  0  0  0  0  0  0  0  0  0
  182.8680  175.4460  137.1450 C   0  0  2  0  0  3  0  0  0  0  0  0
  182.2920  175.9480  138.4600 C   0  0  0  0  0  2  0  0  0  0  0  0
  180.9990  176.7080  138.1930 C   0  0  0  0  0  2  0  0  0  0  0  0
  181.5580  177.4800  140.4290 C   0  0  0  0  0  1  0  0  0  0  0  0
  179.2220  177.5890  139.8280 C   0  0  0  0  0  1  0  0  0  0  0  0
  180.6300  177.7540  139.2630 C   0  0  0  0  0  0  0  0  0  0  0  0
  180.8930  179.0870  138.8500 O   0  0  0  0  0  0  0  0  0  0  0  0
  181.5640  179.0410  136.1330 O   0  0  0  0  0  0  0  0  0  0  0  0
  180.0780  180.9140  137.1790 O   0  0  0  0  0  1  0  0  0  0  0  0
  178.9310  178.6110  136.8760 O   0  0  0  0  0  1  0  0  0  0  0  0
  180.3540  179.4360  137.2570 P   0  0  0  0  0  0  0  0  0  0  0  0
  183.9570  179.4860  138.7270 O   0  0  0  0  0  1  0  0  0  0  0  0
  186.1800  178.6650  138.5890 C   0  0  1  0  0  3  0  0  0  0  0  0
  184.7090  178.3100  138.6810 C   0  0  1  0  0  3  0  0  0  0  0  0
  185.6190  178.1520  139.8990 C   0  0  2  0  0  3  0  0  0  0  0  0
  185.5490  179.3050  140.8880 C   0  0  0  0  0  2  0  0  0  0  0  0
  185.5660  178.8000  142.2910 C   0  0  0  0  0  0  0  0  0  0  0  0
  184.5300  178.6130  144.4550 C   0  0  0  0  0  3  0  0  0  0  0  0
  184.4980  179.0800  143.1420 C   0  0  0  0  0  3  0  0  0  0  0  0
  186.6950  177.6420  144.0300 C   0  0  0  0  0  0  0  0  0  0  0  0
  186.6330  178.1000  142.7530 N   0  0  0  0  0  0  0  0  0  0  0  0
  185.6280  177.8830  144.9040 C   0  0  0  0  0  3  0  0  0  0  0  0
  187.8690  176.8140  144.4450 C   0  0  2  0  0  3  0  0  0  0  0  0
  190.0600  177.1150  145.3030 C   0  0  0  0  0  2  0  0  0  0  0  0
  188.6270  177.4840  145.5640 C   0  0  0  0  0  2  0  0  0  0  0  0
  190.9960  175.8580  143.5210 O   0  0  0  0  0  1  0  0  0  0  0  0
  188.7880  176.5750  143.3340 N   0  0  0  0  0  2  0  0  0  0  0  0
  190.1230  176.9030  143.8080 C   0  0  1  0  0  3  0  0  0  0  0  0
  1 10  2  0  0  0  0
  2 12  1  0  0  0  0
  2  3  1  0  0  0  0
  4 11  2  0  0  0  0
  5  1  1  0  0  0  0
  6  8  2  0  0  0  0
  6  1  1  0  0  0  0
  7 14  1  0  0  0  0
  7  4  1  0  0  0  0
  8  7  1  0  0  0  0
  9  2  2  0  0  0  0
 10 11  1  0  0  0  0
 10  9  1  0  0  0  0
 11 12  1  0  0  0  0
 14 17  1  6  0  0  0
 15 13  1  0  0  0  0
 16 15  2  0  0  0  0
 17 19  1  0  0  0  0
 18 14  1  0  0  0  0
 18 13  1  0  0  0  0
 19 15  1  0  0  0  0
 19 20  1  1  0  0  0
 21 20  1  0  0  0  0
 21 24  1  0  0  0  0
 24 23  1  0  0  0  0
 24 22  1  0  0  0  0
 25 24  1  0  0  0  0
 26 29  2  0  0  0  0
 27 29  1  0  0  0  0
 28 29  1  0  0  0  0
 29 25  1  0  0  0  0
 31  4  1  6  0  0  0
 31 32  1  0  0  0  0
 31 33  1  0  0  0  0
 32 30  1  1  0  0  0
 32 33  1  0  0  0  0
 33 34  1  1  0  0  0
 34 35  1  0  0  0  0
 35 39  2  0  0  0  0
 35 37  1  0  0  0  0
 36 40  1  0  0  0  0
 37 36  2  0  0  0  0
 38 40  2  0  0  0  0
 39 38  1  0  0  0  0
 41 38  1  6  0  0  0
 41 43  1  0  0  0  0
 42 43  1  0  0  0  0
 45 46  1  0  0  0  0
 45 41  1  0  0  0  0
 46 44  1  1  0  0  0
 46 42  1  0  0  0  0
M  END
>  <MODEL>
2

>  <REMARK>
 VINA RESULT:      -7.9      2.369      3.719
  Name = 
  10 active torsions:
  status: ('A' for Active; 'I' for Inactive)
    1  A    between atoms: C_6  and  C_15
    2  A    between atoms: C_6  and  C_44
    3  A    between atoms: C_8  and  C_17
    4  A    between atoms: C_10  and  N_31
    5  A    between atoms: C_12  and  C_32
    6  A    between atoms: C_13  and  C_14
    7  A    between atoms: C_15  and  C_46
    8  A    between atoms: C_17  and  C_23
    9  A    between atoms: P_35  and  O_43
   10  A    between atoms: O_43  and  C_44
                            x       y       z     vdW  Elec       q    Type
                         _______ _______ _______ _____ _____    ______ ____

>  <TORSDO>
F 10

$$$$
=
 OpenBabel10222416183D

 46 51  0  0  1  0  0  0  0  0999 V2000
  189.7090  175.8170  137.6460 C   0  0  0  0  0  0  0  0  0  0  0  0
  189.0490  177.7560  140.4890 C   0  0  0  0  0  0  0  0  0  0  0  0
  189.5680  178.2940  141.7030 N   0  0  0  0  0  1  0  0  0  0  0  0
  186.8300  176.9760  137.5350 C   0  0  0  0  0  0  0  0  0  0  0  0
  190.9700  175.3180  137.9600 O   0  0  0  0  0  1  0  0  0  0  0  0
  189.2550  175.5690  136.2690 C   0  0  0  0  0  3  0  0  0  0  0  0
  186.8730  175.8360  136.6640 N   0  0  0  0  0  0  0  0  0  0  0  0
  188.0030  175.5740  135.8280 C   0  0  0  0  0  3  0  0  0  0  0  0
  189.7210  176.8700  139.7270 N   0  0  0  0  0  0  0  0  0  0  0  0
  189.0650  176.5530  138.5740 C   0  0  0  0  0  0  0  0  0  0  0  0
  187.8010  177.1890  138.4450 C   0  0  0  0  0  0  0  0  0  0  0  0
  187.6170  178.2260  139.7740 S   0  0  0  0  0  0  0  0  0  0  0  0
  185.1900  172.9520  137.8540 C   0  0  0  0  0  2  0  0  0  0  0  0
  185.8240  174.8210  136.7610 C   0  0  1  0  0  3  0  0  0  0  0  0
  184.4050  172.4570  136.6690 C   0  0  0  0  0  0  0  0  0  0  0  0
  183.9190  171.3400  136.6840 O   0  0  0  0  0  0  0  0  0  0  0  0
  185.2790  174.4250  135.3800 C   0  0  0  0  0  2  0  0  0  0  0  0
  186.3150  173.6810  137.4240 O   0  0  0  0  0  0  0  0  0  0  0  0
  184.1620  173.3850  135.5070 C   0  0  2  0  0  3  0  0  0  0  0  0
  182.8240  174.0930  135.6510 C   0  0  0  0  0  2  0  0  0  0  0  0
  182.3090  173.9240  137.0750 C   0  0  0  0  0  2  0  0  0  0  0  0
  180.5890  172.2070  137.0010 C   0  0  0  0  0  1  0  0  0  0  0  0
  179.9800  174.3520  136.0730 C   0  0  0  0  0  1  0  0  0  0  0  0
  180.7890  173.6970  137.1900 C   0  0  0  0  0  0  0  0  0  0  0  0
  180.2790  174.0070  138.4790 O   0  0  0  0  0  0  0  0  0  0  0  0
  182.2730  175.5460  139.7000 O   0  0  0  0  0  1  0  0  0  0  0  0
  179.7290  175.9660  140.1080 O   0  0  0  0  0  1  0  0  0  0  0  0
  180.6350  176.7250  137.8020 O   0  0  0  0  0  0  0  0  0  0  0  0
  180.7100  175.5730  139.0360 P   0  0  0  0  0  0  0  0  0  0  0  0
  183.4060  178.1210  136.7470 O   0  0  0  0  0  1  0  0  0  0  0  0
  185.6370  177.9160  137.5290 C   0  0  1  0  0  3  0  0  0  0  0  0
  184.3000  177.2280  137.3400 C   0  0  1  0  0  3  0  0  0  0  0  0
  184.7440  177.6830  138.7290 C   0  0  2  0  0  3  0  0  0  0  0  0
  184.1560  179.0150  139.1710 C   0  0  0  0  0  2  0  0  0  0  0  0
  183.6620  178.9360  140.5750 C   0  0  0  0  0  0  0  0  0  0  0  0
  181.8530  178.6670  142.1390 C   0  0  0  0  0  3  0  0  0  0  0  0
  182.3060  178.7270  140.8220 C   0  0  0  0  0  3  0  0  0  0  0  0
  184.1050  179.0580  142.9040 C   0  0  0  0  0  0  0  0  0  0  0  0
  184.5200  179.1020  141.6130 N   0  0  0  0  0  0  0  0  0  0  0  0
  182.7540  178.8230  143.1890 C   0  0  0  0  0  3  0  0  0  0  0  0
  185.1210  179.1750  143.9960 C   0  0  2  0  0  3  0  0  0  0  0  0
  186.2440  177.7860  145.5560 C   0  0  0  0  0  2  0  0  0  0  0  0
  185.9540  177.9220  144.0880 C   0  0  0  0  0  2  0  0  0  0  0  0
  185.5160  179.1320  147.3700 O   0  0  0  0  0  1  0  0  0  0  0  0
  184.4990  179.4210  145.2950 N   0  0  0  0  0  2  0  0  0  0  0  0
  185.0750  178.4670  146.2300 C   0  0  1  0  0  3  0  0  0  0  0  0
  1  5  1  0  0  0  0
  1 10  2  0  0  0  0
  2  3  1  0  0  0  0
  4 11  2  0  0  0  0
  6  1  1  0  0  0  0
  7 14  1  0  0  0  0
  7  4  1  0  0  0  0
  8  6  2  0  0  0  0
  8  7  1  0  0  0  0
  9  2  2  0  0  0  0
 10  9  1  0  0  0  0
 11 10  1  0  0  0  0
 11 12  1  0  0  0  0
 12  2  1  0  0  0  0
 14 17  1  6  0  0  0
 14 18  1  0  0  0  0
 15 16  2  0  0  0  0
 15 13  1  0  0  0  0
 17 19  1  0  0  0  0
 18 13  1  0  0  0  0
 19 20  1  1  0  0  0
 19 15  1  0  0  0  0
 20 21  1  0  0  0  0
 21 24  1  0  0  0  0
 22 24  1  0  0  0  0
 23 24  1  0  0  0  0
 24 25  1  0  0  0  0
 25 29  1  0  0  0  0
 28 29  2  0  0  0  0
 29 26  1  0  0  0  0
 29 27  1  0  0  0  0
 31  4  1  1  0  0  0
 31 33  1  0  0  0  0
 32 30  1  6  0  0  0
 32 31  1  0  0  0  0
 32 33  1  0  0  0  0
 33 34  1  6  0  0  0
 34 35  1  0  0  0  0
 35 37  2  0  0  0  0
 35 39  1  0  0  0  0
 36 40  2  0  0  0  0
 37 36  1  0  0  0  0
 38 40  1  0  0  0  0
 39 38  2  0  0  0  0
 41 38  1  6  0  0  0
 41 43  1  0  0  0  0
 41 45  1  0  0  0  0
 42 46  1  0  0  0  0
 43 42  1  0  0  0  0
 45 46  1  0  0  0  0
 46 44  1  1  0  0  0
M  END
>  <MODEL>
3

>  <REMARK>
 VINA RESULT:      -7.9      2.659      4.070
  Name = 
  10 active torsions:
  status: ('A' for Active; 'I' for Inactive)
    1  A    between atoms: C_6  and  C_15
    2  A    between atoms: C_6  and  C_44
    3  A    between atoms: C_8  and  C_17
    4  A    between atoms: C_10  and  N_31
    5  A    between atoms: C_12  and  C_32
    6  A    between atoms: C_13  and  C_14
    7  A    between atoms: C_15  and  C_46
    8  A    between atoms: C_17  and  C_23
    9  A    between atoms: P_35  and  O_43
   10  A    between atoms: O_43  and  C_44
                            x       y       z     vdW  Elec       q    Type
                         _______ _______ _______ _____ _____    ______ ____

>  <TORSDO>
F 10

$$$$
=
 OpenBabel10222416183D

 46 51  0  0  1  0  0  0  0  0999 V2000
  189.7290  176.0650  137.2980 C   0  0  0  0  0  0  0  0  0  0  0  0
  190.1010  177.1970  140.5920 C   0  0  0  0  0  0  0  0  0  0  0  0
  190.9740  177.3120  141.7140 N   0  0  0  0  0  1  0  0  0  0  0  0
  187.1620  177.5320  138.2470 C   0  0  0  0  0  0  0  0  0  0  0  0
  190.9150  175.3560  137.1310 O   0  0  0  0  0  1  0  0  0  0  0  0
  188.9340  176.2640  136.0760 C   0  0  0  0  0  3  0  0  0  0  0  0
  186.7960  176.6830  137.1490 N   0  0  0  0  0  0  0  0  0  0  0  0
  187.6370  176.5360  136.0020 C   0  0  0  0  0  3  0  0  0  0  0  0
  190.4090  176.4880  139.4880 N   0  0  0  0  0  0  0  0  0  0  0  0
  189.4590  176.5820  138.5130 C   0  0  0  0  0  0  0  0  0  0  0  0
  188.3380  177.3700  138.8850 C   0  0  0  0  0  0  0  0  0  0  0  0
  188.6550  178.0090  140.4230 S   0  0  0  0  0  0  0  0  0  0  0  0
  184.9780  173.6750  137.6070 C   0  0  0  0  0  2  0  0  0  0  0  0
  185.6300  175.8090  137.2770 C   0  0  1  0  0  3  0  0  0  0  0  0
  183.6950  173.8900  136.8520 C   0  0  0  0  0  0  0  0  0  0  0  0
  182.9660  172.9440  136.6080 O   0  0  0  0  0  0  0  0  0  0  0  0
  184.5100  176.1990  136.3010 C   0  0  0  0  0  2  0  0  0  0  0  0
  186.0050  174.4700  137.0640 O   0  0  0  0  0  0  0  0  0  0  0  0
  183.2890  175.2910  136.4730 C   0  0  2  0  0  3  0  0  0  0  0  0
  182.3600  175.8850  137.5200 C   0  0  0  0  0  2  0  0  0  0  0  0
  181.6700  177.1170  136.9470 C   0  0  0  0  0  2  0  0  0  0  0  0
  179.2810  177.5380  136.7870 C   0  0  0  0  0  1  0  0  0  0  0  0
  180.5320  179.0730  138.1680 C   0  0  0  0  0  1  0  0  0  0  0  0
  180.4480  177.6070  137.7500 C   0  0  0  0  0  0  0  0  0  0  0  0
  180.1200  176.7540  138.8360 O   0  0  0  0  0  0  0  0  0  0  0  0
  181.5400  178.1060  140.8330 O   0  0  0  0  0  1  0  0  0  0  0  0
  179.4880  176.5810  141.3580 O   0  0  0  0  0  1  0  0  0  0  0  0
  178.9360  178.8720  140.2800 O   0  0  0  0  0  0  0  0  0  0  0  0
  180.0060  177.5660  140.3450 P   0  0  0  0  0  0  0  0  0  0  0  0
  183.9190  179.2470  138.6960 O   0  0  0  0  0  1  0  0  0  0  0  0
  186.1910  178.5670  138.7880 C   0  0  1  0  0  3  0  0  0  0  0  0
  184.7420  178.1230  138.7920 C   0  0  1  0  0  3  0  0  0  0  0  0
  185.5580  178.1070  140.0840 C   0  0  2  0  0  3  0  0  0  0  0  0
  185.3380  179.3160  140.9800 C   0  0  0  0  0  2  0  0  0  0  0  0
  185.2070  178.9020  142.4060 C   0  0  0  0  0  0  0  0  0  0  0  0
  183.9060  178.7550  144.4250 C   0  0  0  0  0  3  0  0  0  0  0  0
  184.0140  179.1370  143.0890 C   0  0  0  0  0  3  0  0  0  0  0  0
  186.1780  177.9570  144.3550 C   0  0  0  0  0  0  0  0  0  0  0  0
  186.2530  178.3290  143.0520 N   0  0  0  0  0  0  0  0  0  0  0  0
  184.9870  178.1540  145.0640 C   0  0  0  0  0  3  0  0  0  0  0  0
  187.3480  177.2640  144.9780 C   0  0  2  0  0  3  0  0  0  0  0  0
  188.9580  177.6410  146.6790 C   0  0  0  0  0  2  0  0  0  0  0  0
  187.4750  177.6320  146.4350 C   0  0  0  0  0  2  0  0  0  0  0  0
  190.7410  177.2670  145.1580 O   0  0  0  0  0  1  0  0  0  0  0  0
  188.6010  177.5920  144.3000 N   0  0  0  0  0  2  0  0  0  0  0  0
  189.5550  177.9730  145.3300 C   0  0  1  0  0  3  0  0  0  0  0  0
  1 10  2  0  0  0  0
  2  3  1  0  0  0  0
  4 11  2  0  0  0  0
  5  1  1  0  0  0  0
  6  1  1  0  0  0  0
  7 14  1  0  0  0  0
  7  4  1  0  0  0  0
  8  6  2  0  0  0  0
  8  7  1  0  0  0  0
  9  2  2  0  0  0  0
 10 11  1  0  0  0  0
 10  9  1  0  0  0  0
 11 12  1  0  0  0  0
 12  2  1  0  0  0  0
 14 17  1  6  0  0  0
 15 13  1  0  0  0  0
 16 15  2  0  0  0  0
 17 19  1  0  0  0  0
 18 14  1  0  0  0  0
 18 13  1  0  0  0  0
 19 15  1  0  0  0  0
 19 20  1  1  0  0  0
 21 20  1  0  0  0  0
 21 24  1  0  0  0  0
 22 24  1  0  0  0  0
 24 23  1  0  0  0  0
 24 25  1  0  0  0  0
 25 29  1  0  0  0  0
 28 29  2  0  0  0  0
 29 26  1  0  0  0  0
 29 27  1  0  0  0  0
 31  4  1  6  0  0  0
 31 32  1  0  0  0  0
 31 33  1  0  0  0  0
 32 30  1  1  0  0  0
 32 33  1  0  0  0  0
 33 34  1  1  0  0  0
 34 35  1  0  0  0  0
 35 39  2  0  0  0  0
 35 37  1  0  0  0  0
 36 40  1  0  0  0  0
 37 36  2  0  0  0  0
 38 40  2  0  0  0  0
 39 38  1  0  0  0  0
 41 38  1  6  0  0  0
 41 43  1  0  0  0  0
 43 42  1  0  0  0  0
 45 41  1  0  0  0  0
 45 46  1  0  0  0  0
 46 44  1  6  0  0  0
 46 42  1  0  0  0  0
M  END
>  <MODEL>
4

>  <REMARK>
 VINA RESULT:      -7.8      2.382      3.618
  Name = 
  10 active torsions:
  status: ('A' for Active; 'I' for Inactive)
    1  A    between atoms: C_6  and  C_15
    2  A    between atoms: C_6  and  C_44
    3  A    between atoms: C_8  and  C_17
    4  A    between atoms: C_10  and  N_31
    5  A    between atoms: C_12  and  C_32
    6  A    between atoms: C_13  and  C_14
    7  A    between atoms: C_15  and  C_46
    8  A    between atoms: C_17  and  C_23
    9  A    between atoms: P_35  and  O_43
   10  A    between atoms: O_43  and  C_44
                            x       y       z     vdW  Elec       q    Type
                         _______ _______ _______ _____ _____    ______ ____

>  <TORSDO>
F 10

$$$$
=
 OpenBabel10222416183D

 46 51  0  0  1  0  0  0  0  0999 V2000
  191.0150  176.8540  142.6020 C   0  0  0  0  0  0  0  0  0  0  0  0
  187.5640  177.2230  143.0840 C   0  0  0  0  0  0  0  0  0  0  0  0
  186.4790  177.1240  144.0040 N   0  0  0  0  0  1  0  0  0  0  0  0
  189.6590  177.9290  140.0240 C   0  0  0  0  0  0  0  0  0  0  0  0
  191.3840  176.2650  143.8080 O   0  0  0  0  0  1  0  0  0  0  0  0
  192.1280  177.2840  141.7420 C   0  0  0  0  0  3  0  0  0  0  0  0
  190.9090  177.3350  139.6420 N   0  0  0  0  0  0  0  0  0  0  0  0
  192.0890  177.4980  140.4330 C   0  0  0  0  0  3  0  0  0  0  0  0
  188.8130  176.8010  143.3680 N   0  0  0  0  0  0  0  0  0  0  0  0
  189.7040  177.0650  142.3700 C   0  0  0  0  0  0  0  0  0  0  0  0
  189.1190  177.6870  141.2350 C   0  0  0  0  0  0  0  0  0  0  0  0
  187.4880  177.9750  141.5980 S   0  0  0  0  0  0  0  0  0  0  0  0
  189.7650  174.8020  137.4420 C   0  0  0  0  0  2  0  0  0  0  0  0
  190.9420  176.3950  138.5220 C   0  0  1  0  0  3  0  0  0  0  0  0
  191.0180  174.1090  136.9800 C   0  0  0  0  0  0  0  0  0  0  0  0
  190.9440  173.0330  136.4120 O   0  0  0  0  0  0  0  0  0  0  0  0
  192.3270  175.7520  138.3540 C   0  0  0  0  0  2  0  0  0  0  0  0
  189.9700  175.3940  138.7030 O   0  0  0  0  0  0  0  0  0  0  0  0
  192.3480  174.7950  137.1580 C   0  0  2  0  0  3  0  0  0  0  0  0
  192.7320  175.5620  135.9020 C   0  0  0  0  0  2  0  0  0  0  0  0
  193.9730  174.9330  135.2820 C   0  0  0  0  0  2  0  0  0  0  0  0
  195.0560  177.1090  135.3230 C   0  0  0  0  0  1  0  0  0  0  0  0
  196.4640  175.2400  134.7230 C   0  0  0  0  0  1  0  0  0  0  0  0
  195.2980  175.6430  135.6230 C   0  0  0  0  0  0  0  0  0  0  0  0
  195.6290  175.5690  137.0010 O   0  0  0  0  0  0  0  0  0  0  0  0
  195.4770  173.6450  139.0290 O   0  0  0  0  0  1  0  0  0  0  0  0
  197.6390  174.0280  137.6170 O   0  0  0  0  0  1  0  0  0  0  0  0
  195.7030  172.8110  136.3970 O   0  0  0  0  0  0  0  0  0  0  0  0
  196.1380  174.0080  137.5070 P   0  0  0  0  0  0  0  0  0  0  0  0
  188.9310  179.6660  136.8440 O   0  0  0  0  0  1  0  0  0  0  0  0
  188.8590  178.7620  139.0370 C   0  0  1  0  0  3  0  0  0  0  0  0
  189.2090  178.5150  137.5840 C   0  0  1  0  0  3  0  0  0  0  0  0
  187.9520  177.8940  138.1910 C   0  0  2  0  0  3  0  0  0  0  0  0
  186.6700  178.6610  137.9000 C   0  0  0  0  0  2  0  0  0  0  0  0
  185.4850  177.7610  137.9810 C   0  0  0  0  0  0  0  0  0  0  0  0
  184.2170  175.8970  137.1370 C   0  0  0  0  0  3  0  0  0  0  0  0
  185.3350  176.7260  137.0590 C   0  0  0  0  0  3  0  0  0  0  0  0
  183.4300  177.1800  139.0190 C   0  0  0  0  0  0  0  0  0  0  0  0
  184.5330  177.9650  138.9260 N   0  0  0  0  0  0  0  0  0  0  0  0
  183.2610  176.1160  138.1260 C   0  0  0  0  0  3  0  0  0  0  0  0
  182.4620  177.4210  140.1340 C   0  0  2  0  0  3  0  0  0  0  0  0
  180.1180  177.5560  140.4750 C   0  0  0  0  0  2  0  0  0  0  0  0
  181.1810  176.6590  139.9040 C   0  0  0  0  0  2  0  0  0  0  0  0
  180.3220  179.7150  141.4400 O   0  0  0  0  0  1  0  0  0  0  0  0
  182.1440  178.8400  140.2820 N   0  0  0  0  0  2  0  0  0  0  0  0
  180.6940  178.9470  140.3400 C   0  0  1  0  0  3  0  0  0  0  0  0
  1  5  1  0  0  0  0
  2  9  2  0  0  0  0
  2  3  1  0  0  0  0
  4 11  2  0  0  0  0
  6  1  1  0  0  0  0
  7  4  1  0  0  0  0
  7  8  1  0  0  0  0
  8  6  2  0  0  0  0
 10  1  2  0  0  0  0
 10  9  1  0  0  0  0
 11 12  1  0  0  0  0
 11 10  1  0  0  0  0
 12  2  1  0  0  0  0
 13 18  1  0  0  0  0
 14 17  1  1  0  0  0
 14 18  1  0  0  0  0
 14  7  1  0  0  0  0
 15 19  1  0  0  0  0
 15 13  1  0  0  0  0
 16 15  2  0  0  0  0
 19 20  1  6  0  0  0
 19 17  1  0  0  0  0
 21 24  1  0  0  0  0
 21 20  1  0  0  0  0
 22 24  1  0  0  0  0
 23 24  1  0  0  0  0
 24 25  1  0  0  0  0
 25 29  1  0  0  0  0
 28 29  2  0  0  0  0
 29 27  1  0  0  0  0
 29 26  1  0  0  0  0
 31  4  1  1  0  0  0
 32 30  1  6  0  0  0
 32 33  1  0  0  0  0
 32 31  1  0  0  0  0
 33 34  1  6  0  0  0
 33 31  1  0  0  0  0
 34 35  1  0  0  0  0
 35 39  1  0  0  0  0
 36 40  2  0  0  0  0
 37 36  1  0  0  0  0
 37 35  2  0  0  0  0
 39 38  2  0  0  0  0
 40 38  1  0  0  0  0
 41 38  1  6  0  0  0
 41 45  1  0  0  0  0
 43 41  1  0  0  0  0
 43 42  1  0  0  0  0
 45 46  1  0  0  0  0
 46 42  1  0  0  0  0
 46 44  1  1  0  0  0
M  END
>  <MODEL>
5

>  <REMARK>
 VINA RESULT:      -7.8      3.516      8.066
  Name = 
  10 active torsions:
  status: ('A' for Active; 'I' for Inactive)
    1  A    between atoms: C_6  and  C_15
    2  A    between atoms: C_6  and  C_44
    3  A    between atoms: C_8  and  C_17
    4  A    between atoms: C_10  and  N_31
    5  A    between atoms: C_12  and  C_32
    6  A    between atoms: C_13  and  C_14
    7  A    between atoms: C_15  and  C_46
    8  A    between atoms: C_17  and  C_23
    9  A    between atoms: P_35  and  O_43
   10  A    between atoms: O_43  and  C_44
                            x       y       z     vdW  Elec       q    Type
                         _______ _______ _______ _____ _____    ______ ____

>  <TORSDO>
F 10

$$$$
=
 OpenBabel10222416183D

 46 51  0  0  1  0  0  0  0  0999 V2000
  191.1260  176.7630  142.6450 C   0  0  0  0  0  0  0  0  0  0  0  0
  187.6920  177.0470  143.2820 C   0  0  0  0  0  0  0  0  0  0  0  0
  186.6490  176.8980  144.2430 N   0  0  0  0  0  1  0  0  0  0  0  0
  189.6420  177.8920  140.1610 C   0  0  0  0  0  0  0  0  0  0  0  0
  191.5570  176.1440  143.8150 O   0  0  0  0  0  1  0  0  0  0  0  0
  192.1930  177.2430  141.7530 C   0  0  0  0  0  3  0  0  0  0  0  0
  190.8860  177.3360  139.7090 N   0  0  0  0  0  0  0  0  0  0  0  0
  192.0950  177.4970  140.4540 C   0  0  0  0  0  3  0  0  0  0  0  0
  188.9600  176.6410  143.5000 N   0  0  0  0  0  0  0  0  0  0  0  0
  189.8030  176.9550  142.4740 C   0  0  0  0  0  0  0  0  0  0  0  0
  189.1590  177.6010  141.3850 C   0  0  0  0  0  0  0  0  0  0  0  0
  187.5390  177.8440  141.8260 S   0  0  0  0  0  0  0  0  0  0  0  0
  189.6880  174.8650  137.4660 C   0  0  0  0  0  2  0  0  0  0  0  0
  190.8890  176.4320  138.5580 C   0  0  1  0  0  3  0  0  0  0  0  0
  190.9300  174.1970  136.9420 C   0  0  0  0  0  0  0  0  0  0  0  0
  190.8460  173.1400  136.3420 O   0  0  0  0  0  0  0  0  0  0  0  0
  192.2720  175.8060  138.3250 C   0  0  0  0  0  2  0  0  0  0  0  0
  189.9300  175.4180  138.7380 O   0  0  0  0  0  0  0  0  0  0  0  0
  192.2600  174.8880  137.0990 C   0  0  2  0  0  3  0  0  0  0  0  0
  192.5980  175.6980  135.8570 C   0  0  0  0  0  2  0  0  0  0  0  0
  193.7740  175.0540  135.1340 C   0  0  0  0  0  2  0  0  0  0  0  0
  195.0920  177.0960  135.0800 C   0  0  0  0  0  1  0  0  0  0  0  0
  196.3060  175.0460  134.6870 C   0  0  0  0  0  1  0  0  0  0  0  0
  195.1540  175.6400  135.4930 C   0  0  0  0  0  0  0  0  0  0  0  0
  195.4130  175.6330  136.8890 O   0  0  0  0  0  0  0  0  0  0  0  0
  195.1550  172.8510  136.7230 O   0  0  0  0  0  0  0  0  0  0  0  0
  195.7090  174.0770  138.9590 O   0  0  0  0  0  1  0  0  0  0  0  0
  197.6470  173.9430  137.2440 O   0  0  0  0  0  1  0  0  0  0  0  0
  195.9840  174.1250  137.4800 P   0  0  0  0  0  0  0  0  0  0  0  0
  188.7680  179.7560  137.0930 O   0  0  0  0  0  1  0  0  0  0  0  0
  188.7850  178.7390  139.2370 C   0  0  1  0  0  3  0  0  0  0  0  0
  189.1110  178.5810  137.7650 C   0  0  1  0  0  3  0  0  0  0  0  0
  187.8950  177.8780  138.3660 C   0  0  2  0  0  3  0  0  0  0  0  0
  186.5760  178.6030  138.1430 C   0  0  0  0  0  2  0  0  0  0  0  0
  185.4580  177.6310  137.9850 C   0  0  0  0  0  0  0  0  0  0  0  0
  183.1950  176.9580  138.4540 C   0  0  0  0  0  3  0  0  0  0  0  0
  184.2310  177.8800  138.5980 C   0  0  0  0  0  3  0  0  0  0  0  0
  184.6500  175.5690  137.1270 C   0  0  0  0  0  0  0  0  0  0  0  0
  185.6380  176.4880  137.2760 N   0  0  0  0  0  0  0  0  0  0  0  0
  183.3970  175.8000  137.7080 C   0  0  0  0  0  3  0  0  0  0  0  0
  184.9010  174.3690  136.2700 C   0  0  2  0  0  3  0  0  0  0  0  0
  185.0350  172.0110  136.4820 C   0  0  0  0  0  2  0  0  0  0  0  0
  184.1340  173.1760  136.7820 C   0  0  0  0  0  2  0  0  0  0  0  0
  187.2040  171.9870  135.5190 O   0  0  0  0  0  1  0  0  0  0  0  0
  186.3210  174.0270  136.2140 N   0  0  0  0  0  2  0  0  0  0  0  0
  186.4260  172.6030  136.4940 C   0  0  1  0  0  3  0  0  0  0  0  0
  1  5  1  0  0  0  0
  2  9  2  0  0  0  0
  2  3  1  0  0  0  0
  4 11  2  0  0  0  0
  6  1  1  0  0  0  0
  7  4  1  0  0  0  0
  7  8  1  0  0  0  0
  8  6  2  0  0  0  0
 10  1  2  0  0  0  0
 10  9  1  0  0  0  0
 11 12  1  0  0  0  0
 11 10  1  0  0  0  0
 12  2  1  0  0  0  0
 13 18  1  0  0  0  0
 14 17  1  1  0  0  0
 14 18  1  0  0  0  0
 14  7  1  0  0  0  0
 15 19  1  0  0  0  0
 15 13  1  0  0  0  0
 16 15  2  0  0  0  0
 19 20  1  6  0  0  0
 19 17  1  0  0  0  0
 21 24  1  0  0  0  0
 21 20  1  0  0  0  0
 22 24  1  0  0  0  0
 23 24  1  0  0  0  0
 24 25  1  0  0  0  0
 25 29  1  0  0  0  0
 26 29  2  0  0  0  0
 28 29  1  0  0  0  0
 29 27  1  0  0  0  0
 31  4  1  1  0  0  0
 32 30  1  6  0  0  0
 32 33  1  0  0  0  0
 32 31  1  0  0  0  0
 33 34  1  6  0  0  0
 33 31  1  0  0  0  0
 35 34  1  0  0  0  0
 35 37  1  0  0  0  0
 36 37  2  0  0  0  0
 38 39  1  0  0  0  0
 38 40  2  0  0  0  0
 39 35  2  0  0  0  0
 40 36  1  0  0  0  0
 41 43  1  0  0  0  0
 41 38  1  1  0  0  0
 42 46  1  0  0  0  0
 42 43  1  0  0  0  0
 45 41  1  0  0  0  0
 45 46  1  0  0  0  0
 46 44  1  6  0  0  0
M  END
>  <MODEL>
6

>  <REMARK>
 VINA RESULT:      -7.7      3.582      8.607
  Name = 
  10 active torsions:
  status: ('A' for Active; 'I' for Inactive)
    1  A    between atoms: C_6  and  C_15
    2  A    between atoms: C_6  and  C_44
    3  A    between atoms: C_8  and  C_17
    4  A    between atoms: C_10  and  N_31
    5  A    between atoms: C_12  and  C_32
    6  A    between atoms: C_13  and  C_14
    7  A    between atoms: C_15  and  C_46
    8  A    between atoms: C_17  and  C_23
    9  A    between atoms: P_35  and  O_43
   10  A    between atoms: O_43  and  C_44
                            x       y       z     vdW  Elec       q    Type
                         _______ _______ _______ _____ _____    ______ ____

>  <TORSDO>
F 10

$$$$
=
 OpenBabel10222416183D

 46 51  0  0  1  0  0  0  0  0999 V2000
  186.7040  175.5180  135.3360 C   0  0  0  0  0  0  0  0  0  0  0  0
  189.1010  175.8930  137.8630 C   0  0  0  0  0  0  0  0  0  0  0  0
  190.3920  175.5160  138.3370 N   0  0  0  0  0  1  0  0  0  0  0  0
  185.7580  177.5950  137.4410 C   0  0  0  0  0  0  0  0  0  0  0  0
  187.2680  174.4840  134.5940 O   0  0  0  0  0  1  0  0  0  0  0  0
  185.5400  176.1760  134.7210 C   0  0  0  0  0  3  0  0  0  0  0  0
  184.5940  177.1160  136.7500 N   0  0  0  0  0  0  0  0  0  0  0  0
  184.6030  176.8830  135.3400 C   0  0  0  0  0  3  0  0  0  0  0  0
  188.5070  175.3140  136.8000 N   0  0  0  0  0  0  0  0  0  0  0  0
  187.3110  175.8870  136.4810 C   0  0  0  0  0  0  0  0  0  0  0  0
  186.9310  176.9370  137.3580 C   0  0  0  0  0  0  0  0  0  0  0  0
  188.2030  177.1670  138.4560 S   0  0  0  0  0  0  0  0  0  0  0  0
  182.7280  175.2510  139.1180 C   0  0  0  0  0  2  0  0  0  0  0  0
  183.4300  176.6840  137.5230 C   0  0  1  0  0  3  0  0  0  0  0  0
  181.3290  175.2320  138.5660 C   0  0  0  0  0  0  0  0  0  0  0  0
  180.5050  174.4580  139.0200 O   0  0  0  0  0  0  0  0  0  0  0  0
  182.1530  176.6550  136.6690 C   0  0  0  0  0  2  0  0  0  0  0  0
  183.6630  175.4120  138.0770 O   0  0  0  0  0  0  0  0  0  0  0  0
  180.9420  176.2300  137.5050 C   0  0  2  0  0  3  0  0  0  0  0  0
  180.3010  177.4600  138.1290 C   0  0  0  0  0  2  0  0  0  0  0  0
  180.0810  177.2200  139.6170 C   0  0  0  0  0  2  0  0  0  0  0  0
  180.7020  179.5700  139.5870 C   0  0  0  0  0  1  0  0  0  0  0  0
  181.7720  178.2180  141.2780 C   0  0  0  0  0  1  0  0  0  0  0  0
  180.4570  178.4070  140.5270 C   0  0  0  0  0  0  0  0  0  0  0  0
  179.3970  178.8050  141.3840 O   0  0  0  0  0  0  0  0  0  0  0  0
  179.7350  177.4940  143.8340 O   0  0  0  0  0  1  0  0  0  0  0  0
  178.9310  179.9720  143.6680 O   0  0  0  0  0  1  0  0  0  0  0  0
  181.4430  179.5720  143.1740 O   0  0  0  0  0  0  0  0  0  0  0  0
  179.8670  178.9820  143.0270 P   0  0  0  0  0  0  0  0  0  0  0  0
  184.1980  180.4940  139.1200 O   0  0  0  0  0  1  0  0  0  0  0  0
  185.6740  178.7950  138.3680 C   0  0  1  0  0  3  0  0  0  0  0  0
  184.2710  179.1300  138.8320 C   0  0  1  0  0  3  0  0  0  0  0  0
  185.2330  178.3890  139.7590 C   0  0  2  0  0  3  0  0  0  0  0  0
  185.9340  179.2780  140.7760 C   0  0  0  0  0  2  0  0  0  0  0  0
  186.7220  178.4590  141.7400 C   0  0  0  0  0  0  0  0  0  0  0  0
  188.6180  177.0610  142.2300 C   0  0  0  0  0  3  0  0  0  0  0  0
  187.8950  177.8330  141.3230 C   0  0  0  0  0  3  0  0  0  0  0  0
  186.9630  177.5380  143.9150 C   0  0  0  0  0  0  0  0  0  0  0  0
  186.2840  178.2920  143.0140 N   0  0  0  0  0  0  0  0  0  0  0  0
  188.1590  176.9160  143.5370 C   0  0  0  0  0  3  0  0  0  0  0  0
  186.4570  177.4610  145.3210 C   0  0  2  0  0  3  0  0  0  0  0  0
  186.0190  178.9060  147.1500 C   0  0  0  0  0  2  0  0  0  0  0  0
  185.7110  178.7180  145.6910 C   0  0  0  0  0  2  0  0  0  0  0  0
  187.4150  177.6230  148.5770 O   0  0  0  0  0  1  0  0  0  0  0  0
  187.5420  177.2590  146.2800 N   0  0  0  0  0  2  0  0  0  0  0  0
  187.3660  178.2460  147.3340 C   0  0  1  0  0  3  0  0  0  0  0  0
  1 10  2  0  0  0  0
  2  3  1  0  0  0  0
  2 12  1  0  0  0  0
  5  1  1  0  0  0  0
  6  1  1  0  0  0  0
  6  8  2  0  0  0  0
  7  4  1  0  0  0  0
  7 14  1  0  0  0  0
  8  7  1  0  0  0  0
  9  2  2  0  0  0  0
 10  9  1  0  0  0  0
 10 11  1  0  0  0  0
 11  4  2  0  0  0  0
 11 12  1  0  0  0  0
 14 17  1  6  0  0  0
 14 18  1  0  0  0  0
 15 16  2  0  0  0  0
 15 13  1  0  0  0  0
 17 19  1  0  0  0  0
 18 13  1  0  0  0  0
 19 20  1  1  0  0  0
 19 15  1  0  0  0  0
 20 21  1  0  0  0  0
 21 24  1  0  0  0  0
 22 24  1  0  0  0  0
 24 23  1  0  0  0  0
 24 25  1  0  0  0  0
 25 29  1  0  0  0  0
 29 28  2  0  0  0  0
 29 27  1  0  0  0  0
 29 26  1  0  0  0  0
 31  4  1  6  0  0  0
 31 32  1  0  0  0  0
 31 33  1  0  0  0  0
 32 30  1  1  0  0  0
 32 33  1  0  0  0  0
 33 34  1  1  0  0  0
 34 35  1  0  0  0  0
 35 39  1  0  0  0  0
 36 40  2  0  0  0  0
 37 35  2  0  0  0  0
 37 36  1  0  0  0  0
 39 38  2  0  0  0  0
 40 38  1  0  0  0  0
 41 38  1  6  0  0  0
 41 43  1  0  0  0  0
 41 45  1  0  0  0  0
 42 46  1  0  0  0  0
 43 42  1  0  0  0  0
 45 46  1  0  0  0  0
 46 44  1  1  0  0  0
M  END
>  <MODEL>
7

>  <REMARK>
 VINA RESULT:      -7.4      2.642      4.355
  Name = 
  10 active torsions:
  status: ('A' for Active; 'I' for Inactive)
    1  A    between atoms: C_6  and  C_15
    2  A    between atoms: C_6  and  C_44
    3  A    between atoms: C_8  and  C_17
    4  A    between atoms: C_10  and  N_31
    5  A    between atoms: C_12  and  C_32
    6  A    between atoms: C_13  and  C_14
    7  A    between atoms: C_15  and  C_46
    8  A    between atoms: C_17  and  C_23
    9  A    between atoms: P_35  and  O_43
   10  A    between atoms: O_43  and  C_44
                            x       y       z     vdW  Elec       q    Type
                         _______ _______ _______ _____ _____    ______ ____

>  <TORSDO>
F 10

$$$$
=
 OpenBabel10222416183D

 46 51  0  0  1  0  0  0  0  0999 V2000
  180.3670  177.1700  137.2450 C   0  0  0  0  0  0  0  0  0  0  0  0
  179.8730  173.7260  137.6570 C   0  0  0  0  0  0  0  0  0  0  0  0
  178.9310  172.6560  137.6570 N   0  0  0  0  0  1  0  0  0  0  0  0
  183.0730  175.7280  137.7360 C   0  0  0  0  0  0  0  0  0  0  0  0
  179.0500  177.6130  137.1610 O   0  0  0  0  0  1  0  0  0  0  0  0
  181.3930  178.1740  136.9230 C   0  0  0  0  0  3  0  0  0  0  0  0
  183.2500  177.1120  138.0730 N   0  0  0  0  0  0  0  0  0  0  0  0
  182.6690  178.1560  137.2870 C   0  0  0  0  0  3  0  0  0  0  0  0
  179.5160  175.0230  137.5700 N   0  0  0  0  0  0  0  0  0  0  0  0
  180.5860  175.8670  137.5100 C   0  0  0  0  0  0  0  0  0  0  0  0
  181.8390  175.2040  137.5940 C   0  0  0  0  0  0  0  0  0  0  0  0
  181.5290  173.5370  137.6350 S   0  0  0  0  0  0  0  0  0  0  0  0
  183.5470  177.6210  141.5680 C   0  0  0  0  0  2  0  0  0  0  0  0
  183.8840  177.4640  139.3430 C   0  0  1  0  0  3  0  0  0  0  0  0
  184.5790  178.7070  141.7060 C   0  0  0  0  0  0  0  0  0  0  0  0
  184.7200  179.2820  142.7710 O   0  0  0  0  0  0  0  0  0  0  0  0
  184.8050  178.6860  139.2060 C   0  0  0  0  0  2  0  0  0  0  0  0
  182.9030  177.7130  140.3200 O   0  0  0  0  0  0  0  0  0  0  0  0
  185.4810  179.0180  140.5400 C   0  0  2  0  0  3  0  0  0  0  0  0
  186.7890  178.2500  140.6490 C   0  0  0  0  0  2  0  0  0  0  0  0
  187.3200  178.3500  142.0730 C   0  0  0  0  0  2  0  0  0  0  0  0
  189.1980  177.3300  140.9130 C   0  0  0  0  0  1  0  0  0  0  0  0
  188.6570  176.3930  143.0720 C   0  0  0  0  0  1  0  0  0  0  0  0
  188.7040  177.7060  142.2950 C   0  0  0  0  0  0  0  0  0  0  0  0
  189.6590  178.6140  142.8250 O   0  0  0  0  0  0  0  0  0  0  0  0
  190.1470  177.4190  145.3090 O   0  0  0  0  0  1  0  0  0  0  0  0
  191.9290  178.8770  144.0790 O   0  0  0  0  0  1  0  0  0  0  0  0
  191.5320  176.5170  143.0860 O   0  0  0  0  0  0  0  0  0  0  0  0
  190.8400  177.8690  143.8250 P   0  0  0  0  0  0  0  0  0  0  0  0
  185.0610  172.8790  136.4780 O   0  0  0  0  0  1  0  0  0  0  0  0
  184.2640  174.7920  137.6330 C   0  0  1  0  0  3  0  0  0  0  0  0
  184.3960  174.0930  136.2960 C   0  0  1  0  0  3  0  0  0  0  0  0
  185.2770  175.2960  136.6270 C   0  0  2  0  0  3  0  0  0  0  0  0
  186.6730  174.9360  137.1130 C   0  0  0  0  0  2  0  0  0  0  0  0
  187.5770  176.1190  137.0500 C   0  0  0  0  0  0  0  0  0  0  0  0
  187.8980  178.5040  137.0690 C   0  0  0  0  0  3  0  0  0  0  0  0
  187.0450  177.4040  137.1400 C   0  0  0  0  0  3  0  0  0  0  0  0
  189.7640  177.0060  136.7880 C   0  0  0  0  0  0  0  0  0  0  0  0
  188.9120  175.9530  136.8710 N   0  0  0  0  0  0  0  0  0  0  0  0
  189.2660  178.3090  136.9010 C   0  0  0  0  0  3  0  0  0  0  0  0
  191.2310  176.7410  136.6650 C   0  0  2  0  0  3  0  0  0  0  0  0
  192.7170  174.8950  136.5510 C   0  0  0  0  0  2  0  0  0  0  0  0
  191.4830  175.4620  135.9070 C   0  0  0  0  0  2  0  0  0  0  0  0
  193.9720  175.7150  138.3910 O   0  0  0  0  0  1  0  0  0  0  0  0
  191.8800  176.6480  137.9720 N   0  0  0  0  0  2  0  0  0  0  0  0
  192.6790  175.4320  137.9640 C   0  0  1  0  0  3  0  0  0  0  0  0
  1 10  2  0  0  0  0
  3  2  1  0  0  0  0
  4  7  1  0  0  0  0
  5  1  1  0  0  0  0
  6  1  1  0  0  0  0
  6  8  2  0  0  0  0
  8  7  1  0  0  0  0
  9  2  2  0  0  0  0
 10  9  1  0  0  0  0
 10 11  1  0  0  0  0
 11 12  1  0  0  0  0
 11  4  2  0  0  0  0
 12  2  1  0  0  0  0
 13 15  1  0  0  0  0
 14  7  1  6  0  0  0
 14 18  1  0  0  0  0
 15 16  2  0  0  0  0
 17 14  1  0  0  0  0
 17 19  1  0  0  0  0
 18 13  1  0  0  0  0
 19 20  1  1  0  0  0
 19 15  1  0  0  0  0
 20 21  1  0  0  0  0
 21 24  1  0  0  0  0
 22 24  1  0  0  0  0
 24 25  1  0  0  0  0
 24 23  1  0  0  0  0
 25 29  1  0  0  0  0
 28 29  2  0  0  0  0
 29 27  1  0  0  0  0
 29 26  1  0  0  0  0
 31  4  1  6  0  0  0
 32 30  1  1  0  0  0
 32 33  1  0  0  0  0
 32 31  1  0  0  0  0
 33 34  1  1  0  0  0
 33 31  1  0  0  0  0
 35 34  1  0  0  0  0
 35 37  1  0  0  0  0
 36 37  2  0  0  0  0
 38 39  1  0  0  0  0
 38 40  2  0  0  0  0
 39 35  2  0  0  0  0
 40 36  1  0  0  0  0
 41 38  1  1  0  0  0
 41 45  1  0  0  0  0
 42 46  1  0  0  0  0
 43 42  1  0  0  0  0
 43 41  1  0  0  0  0
 46 45  1  0  0  0  0
 46 44  1  6  0  0  0
M  END
>  <MODEL>
8

>  <REMARK>
 VINA RESULT:      -7.4      4.056      9.109
  Name = 
  10 active torsions:
  status: ('A' for Active; 'I' for Inactive)
    1  A    between atoms: C_6  and  C_15
    2  A    between atoms: C_6  and  C_44
    3  A    between atoms: C_8  and  C_17
    4  A    between atoms: C_10  and  N_31
    5  A    between atoms: C_12  and  C_32
    6  A    between atoms: C_13  and  C_14
    7  A    between atoms: C_15  and  C_46
    8  A    between atoms: C_17  and  C_23
    9  A    between atoms: P_35  and  O_43
   10  A    between atoms: O_43  and  C_44
                            x       y       z     vdW  Elec       q    Type
                         _______ _______ _______ _____ _____    ______ ____

>  <TORSDO>
F 10

$$$$
=
 OpenBabel10222416183D

 46 51  0  0  1  0  0  0  0  0999 V2000
  184.2200  174.8590  135.3500 C   0  0  0  0  0  0  0  0  0  0  0  0
  187.2730  174.6080  137.0500 C   0  0  0  0  0  0  0  0  0  0  0  0
  188.5010  173.8960  137.1820 N   0  0  0  0  0  1  0  0  0  0  0  0
  184.5210  177.1700  137.4030 C   0  0  0  0  0  0  0  0  0  0  0  0
  184.2470  173.6910  134.5940 O   0  0  0  0  0  1  0  0  0  0  0  0
  183.1400  175.8020  135.0180 C   0  0  0  0  0  3  0  0  0  0  0  0
  183.1220  177.0200  137.1190 N   0  0  0  0  0  0  0  0  0  0  0  0
  182.6480  176.7590  135.7960 C   0  0  0  0  0  3  0  0  0  0  0  0
  186.2590  174.1930  136.2640 N   0  0  0  0  0  0  0  0  0  0  0  0
  185.2150  175.0710  136.2330 C   0  0  0  0  0  0  0  0  0  0  0  0
  185.4020  176.2070  137.0650 C   0  0  0  0  0  0  0  0  0  0  0  0
  186.9570  176.0970  137.7330 S   0  0  0  0  0  0  0  0  0  0  0  0
  181.7510  175.9650  140.2130 C   0  0  0  0  0  2  0  0  0  0  0  0
  182.1710  176.9510  138.2290 C   0  0  1  0  0  3  0  0  0  0  0  0
  180.2640  176.1180  140.0400 C   0  0  0  0  0  0  0  0  0  0  0  0
  179.5010  175.6000  140.8360 O   0  0  0  0  0  0  0  0  0  0  0  0
  180.7150  177.0200  137.7410 C   0  0  0  0  0  2  0  0  0  0  0  0
  182.3720  175.7700  138.9650 O   0  0  0  0  0  0  0  0  0  0  0  0
  179.7380  176.9780  138.9200 C   0  0  2  0  0  3  0  0  0  0  0  0
  179.4700  178.3940  139.4070 C   0  0  0  0  0  2  0  0  0  0  0  0
  179.0320  179.2610  138.2330 C   0  0  0  0  0  2  0  0  0  0  0  0
  181.0190  180.5290  137.6340 C   0  0  0  0  0  1  0  0  0  0  0  0
  179.8480  181.2730  139.6110 C   0  0  0  0  0  1  0  0  0  0  0  0
  179.6300  180.6820  138.2200 C   0  0  0  0  0  0  0  0  0  0  0  0
  178.9310  181.5700  137.3610 O   0  0  0  0  0  0  0  0  0  0  0  0
  178.9470  184.2740  136.6380 O   0  0  0  0  0  1  0  0  0  0  0  0
  180.4070  182.4870  135.4180 O   0  0  0  0  0  0  0  0  0  0  0  0
  181.2170  183.1740  137.7820 O   0  0  0  0  0  1  0  0  0  0  0  0
  179.8920  182.8700  136.7800 P   0  0  0  0  0  0  0  0  0  0  0  0
  184.3810  180.4910  139.0180 O   0  0  0  0  0  1  0  0  0  0  0  0
  185.0340  178.3670  138.1830 C   0  0  1  0  0  3  0  0  0  0  0  0
  183.9530  179.1680  138.8790 C   0  0  1  0  0  3  0  0  0  0  0  0
  184.8190  178.1900  139.6710 C   0  0  2  0  0  3  0  0  0  0  0  0
  185.9770  178.8370  140.4160 C   0  0  0  0  0  2  0  0  0  0  0  0
  185.8520  178.6160  141.8840 C   0  0  0  0  0  0  0  0  0  0  0  0
  184.6020  178.8320  143.9290 C   0  0  0  0  0  3  0  0  0  0  0  0
  184.7040  179.0340  142.5540 C   0  0  0  0  0  3  0  0  0  0  0  0
  186.7980  177.8400  143.9190 C   0  0  0  0  0  0  0  0  0  0  0  0
  186.8660  178.0400  142.5780 N   0  0  0  0  0  0  0  0  0  0  0  0
  185.6480  178.2250  144.6190 C   0  0  0  0  0  3  0  0  0  0  0  0
  187.9240  177.1320  144.6030 C   0  0  2  0  0  3  0  0  0  0  0  0
  189.4080  177.4640  146.4240 C   0  0  0  0  0  2  0  0  0  0  0  0
  187.9460  177.4580  146.0750 C   0  0  0  0  0  2  0  0  0  0  0  0
  191.2960  177.1380  145.0230 O   0  0  0  0  0  1  0  0  0  0  0  0
  189.2200  177.4840  144.0260 N   0  0  0  0  0  2  0  0  0  0  0  0
  190.0970  177.8360  145.1310 C   0  0  1  0  0  3  0  0  0  0  0  0
  1 10  2  0  0  0  0
  2  3  1  0  0  0  0
  2 12  1  0  0  0  0
  5  1  1  0  0  0  0
  6  1  1  0  0  0  0
  6  8  2  0  0  0  0
  7  4  1  0  0  0  0
  8  7  1  0  0  0  0
  9  2  2  0  0  0  0
 10  9  1  0  0  0  0
 10 11  1  0  0  0  0
 11  4  2  0  0  0  0
 11 12  1  0  0  0  0
 14  7  1  6  0  0  0
 14 18  1  0  0  0  0
 15 13  1  0  0  0  0
 15 16  2  0  0  0  0
 17 14  1  0  0  0  0
 17 19  1  0  0  0  0
 18 13  1  0  0  0  0
 19 20  1  1  0  0  0
 19 15  1  0  0  0  0
 21 20  1  0  0  0  0
 22 24  1  0  0  0  0
 24 21  1  0  0  0  0
 24 23  1  0  0  0  0
 25 24  1  0  0  0  0
 26 29  1  0  0  0  0
 27 29  2  0  0  0  0
 29 25  1  0  0  0  0
 29 28  1  0  0  0  0
 31  4  1  6  0  0  0
 31 32  1  0  0  0  0
 31 33  1  0  0  0  0
 32 30  1  1  0  0  0
 32 33  1  0  0  0  0
 33 34  1  1  0  0  0
 34 35  1  0  0  0  0
 35 37  2  0  0  0  0
 35 39  1  0  0  0  0
 36 40  2  0  0  0  0
 37 36  1  0  0  0  0
 38 40  1  0  0  0  0
 39 38  2  0  0  0  0
 41 38  1  6  0  0  0
 41 43  1  0  0  0  0
 43 42  1  0  0  0  0
 45 41  1  0  0  0  0
 45 46  1  0  0  0  0
 46 44  1  6  0  0  0
 46 42  1  0  0  0  0
M  END
>  <MODEL>
9

>  <REMARK>
 VINA RESULT:      -7.3      3.619      5.844
  Name = 
  10 active torsions:
  status: ('A' for Active; 'I' for Inactive)
    1  A    between atoms: C_6  and  C_15
    2  A    between atoms: C_6  and  C_44
    3  A    between atoms: C_8  and  C_17
    4  A    between atoms: C_10  and  N_31
    5  A    between atoms: C_12  and  C_32
    6  A    between atoms: C_13  and  C_14
    7  A    between atoms: C_15  and  C_46
    8  A    between atoms: C_17  and  C_23
    9  A    between atoms: P_35  and  O_43
   10  A    between atoms: O_43  and  C_44
                            x       y       z     vdW  Elec       q    Type
                         _______ _______ _______ _____ _____    ______ ____

>  <TORSDO>
F 10

$$$$
