=
 OpenBabel10222416083D

 26 29  0  0  1  0  0  0  0  0999 V2000
  190.7820  178.5380  143.9440 C   0  0  0  0  0  2  0  0  0  0  0  0
  188.6800  176.9600  147.8810 N   0  0  0  0  0  0  0  0  0  0  0  0
  190.0260  177.5120  141.8230 C   0  0  2  0  0  3  0  0  0  0  0  0
  189.4050  178.3000  144.5830 C   0  0  1  0  0  3  0  0  0  0  0  0
  188.7080  177.0140  142.4160 C   0  0  2  0  0  3  0  0  0  0  0  0
  188.4130  177.6360  146.7440 C   0  0  0  0  0  0  0  0  0  0  0  0
  191.6740  176.4250  145.8690 C   0  0  0  0  0  1  0  0  0  0  0  0
  190.4040  176.7160  140.7420 O   0  0  0  0  0  1  0  0  0  0  0  0
  188.3280  177.7570  143.6750 C   0  0  0  0  0  0  0  0  0  0  0  0
  187.0260  177.8520  144.0120 C   0  0  0  0  0  0  0  0  0  0  0  0
  190.3590  176.8170  146.4490 C   0  0  0  0  0  0  0  0  0  0  0  0
  186.5590  178.4300  145.3070 C   0  0  0  0  0  3  0  0  0  0  0  0
  189.4220  177.5880  145.8590 N   0  0  0  0  0  0  0  0  0  0  0  0
  191.1190  177.5060  142.8780 C   0  0  0  0  0  2  0  0  0  0  0  0
  188.7740  175.6440  142.6850 O   0  0  0  0  0  1  0  0  0  0  0  0
  189.9100  176.4330  147.6950 C   0  0  0  0  0  3  0  0  0  0  0  0
  187.1490  178.3580  146.5100 C   0  0  0  0  0  0  0  0  0  0  0  0
  186.4660  178.9170  147.6270 N   0  0  0  0  0  1  0  0  0  0  0  0
  186.0730  177.4360  143.0640 O   0  0  0  0  0  0  0  0  0  0  0  0
  182.7470  179.0120  143.6750 C   0  0  0  0  0  3  0  0  0  0  0  0
  184.8000  177.9900  142.8620 C   0  0  0  0  0  0  0  0  0  0  0  0
  181.0040  179.5330  142.1360 F   0  0  0  0  0  0  0  0  0  0  0  0
  183.0020  178.5210  141.3190 C   0  0  0  0  0  3  0  0  0  0  0  0
  182.2380  179.0290  142.3730 C   0  0  0  0  0  0  0  0  0  0  0  0
  184.0210  178.4920  143.9180 C   0  0  0  0  0  3  0  0  0  0  0  0
  184.2760  178.0020  141.5650 C   0  0  0  0  0  3  0  0  0  0  0  0
  3  8  1  6  0  0  0
  3  5  1  0  0  0  0
  3 14  1  0  0  0  0
  4  1  1  6  0  0  0
  4 13  1  0  0  0  0
  5 15  1  1  0  0  0
  5  9  1  0  0  0  0
  6  2  2  0  0  0  0
  7 11  1  0  0  0  0
  9 10  2  0  0  0  0
  9  4  1  0  0  0  0
 10 12  1  0  0  0  0
 11 16  2  0  0  0  0
 12 17  2  0  0  0  0
 13 11  1  0  0  0  0
 13  6  1  0  0  0  0
 14  1  1  0  0  0  0
 16  2  1  0  0  0  0
 17  6  1  0  0  0  0
 17 18  1  0  0  0  0
 19 10  1  0  0  0  0
 20 25  1  0  0  0  0
 21 19  1  0  0  0  0
 21 25  2  0  0  0  0
 22 24  1  0  0  0  0
 23 26  2  0  0  0  0
 23 24  1  0  0  0  0
 24 20  2  0  0  0  0
 26 21  1  0  0  0  0
M  END
>  <MODEL>
1

>  <REMARK>
 VINA RESULT:      -9.0      0.000      0.000
  Name = 
  2 active torsions:
  status: ('A' for Active; 'I' for Inactive)
    1  A    between atoms: O_1  and  C_5
    2  A    between atoms: O_1  and  C_15
                            x       y       z     vdW  Elec       q    Type
                         _______ _______ _______ _____ _____    ______ ____

>  <TORSDO>
F 2

$$$$
=
 OpenBabel10222416083D

 26 29  0  0  1  0  0  0  0  0999 V2000
  182.0230  177.4420  139.0100 C   0  0  0  0  0  2  0  0  0  0  0  0
  179.6990  180.5790  141.6880 N   0  0  0  0  0  0  0  0  0  0  0  0
  184.4440  177.8490  138.7140 C   0  0  2  0  0  3  0  0  0  0  0  0
  182.0460  178.1310  140.3830 C   0  0  1  0  0  3  0  0  0  0  0  0
  184.5460  178.7530  139.9430 C   0  0  2  0  0  3  0  0  0  0  0  0
  180.6600  179.6350  141.7670 C   0  0  0  0  0  0  0  0  0  0  0  0
  180.4480  179.8550  138.1930 C   0  0  0  0  0  1  0  0  0  0  0  0
  185.4460  178.1650  137.7950 O   0  0  0  0  0  1  0  0  0  0  0  0
  183.4010  178.5450  140.9050 C   0  0  0  0  0  0  0  0  0  0  0  0
  183.5860  178.8130  142.2130 C   0  0  0  0  0  0  0  0  0  0  0  0
  180.3530  179.9280  139.6780 C   0  0  0  0  0  0  0  0  0  0  0  0
  182.4800  178.7850  143.2160 C   0  0  0  0  0  3  0  0  0  0  0  0
  181.0660  179.2010  140.5630 N   0  0  0  0  0  0  0  0  0  0  0  0
  183.0800  177.9900  138.0630 C   0  0  0  0  0  2  0  0  0  0  0  0
  184.5980  180.0970  139.5640 O   0  0  0  0  0  1  0  0  0  0  0  0
  179.5070  180.7730  140.3650 C   0  0  0  0  0  3  0  0  0  0  0  0
  181.1950  179.1300  143.0450 C   0  0  0  0  0  0  0  0  0  0  0  0
  180.3360  179.1040  144.1800 N   0  0  0  0  0  1  0  0  0  0  0  0
  184.8990  179.0720  142.6470 O   0  0  0  0  0  0  0  0  0  0  0  0
  185.7700  178.5860  146.2420 C   0  0  0  0  0  3  0  0  0  0  0  0
  185.4980  178.5990  143.8240 C   0  0  0  0  0  0  0  0  0  0  0  0
  187.4110  177.1700  147.2330 F   0  0  0  0  0  0  0  0  0  0  0  0
  187.1690  177.1750  144.8610 C   0  0  0  0  0  3  0  0  0  0  0  0
  186.7890  177.6370  146.1240 C   0  0  0  0  0  0  0  0  0  0  0  0
  185.1290  179.0670  145.0970 C   0  0  0  0  0  3  0  0  0  0  0  0
  186.5270  177.6570  143.7170 C   0  0  0  0  0  3  0  0  0  0  0  0
  2  6  2  0  0  0  0
  3  8  1  6  0  0  0
  3  5  1  0  0  0  0
  4  1  1  6  0  0  0
  4 13  1  0  0  0  0
  4  9  1  0  0  0  0
  5 15  1  6  0  0  0
  5  9  1  0  0  0  0
  6 17  1  0  0  0  0
  7 11  1  0  0  0  0
  9 10  2  0  0  0  0
 10 19  1  0  0  0  0
 10 12  1  0  0  0  0
 11 16  2  0  0  0  0
 11 13  1  0  0  0  0
 13  6  1  0  0  0  0
 14  3  1  0  0  0  0
 14  1  1  0  0  0  0
 16  2  1  0  0  0  0
 17 12  2  0  0  0  0
 17 18  1  0  0  0  0
 19 21  1  0  0  0  0
 21 25  1  0  0  0  0
 23 24  2  0  0  0  0
 24 20  1  0  0  0  0
 24 22  1  0  0  0  0
 25 20  2  0  0  0  0
 26 21  2  0  0  0  0
 26 23  1  0  0  0  0
M  END
>  <MODEL>
2

>  <REMARK>
 VINA RESULT:      -8.7      4.352      7.868
  Name = 
  2 active torsions:
  status: ('A' for Active; 'I' for Inactive)
    1  A    between atoms: O_1  and  C_5
    2  A    between atoms: O_1  and  C_15
                            x       y       z     vdW  Elec       q    Type
                         _______ _______ _______ _____ _____    ______ ____

>  <TORSDO>
F 2

$$$$
=
 OpenBabel10222416083D

 26 29  0  0  1  0  0  0  0  0999 V2000
  183.0820  176.9110  138.3990 C   0  0  0  0  0  2  0  0  0  0  0  0
  179.2940  179.2550  140.0010 N   0  0  0  0  0  0  0  0  0  0  0  0
  185.2670  178.0200  138.7350 C   0  0  2  0  0  3  0  0  0  0  0  0
  182.5080  177.6000  139.6470 C   0  0  1  0  0  3  0  0  0  0  0  0
  184.7470  178.9350  139.8440 C   0  0  2  0  0  3  0  0  0  0  0  0
  180.4140  178.6440  140.4370 C   0  0  0  0  0  0  0  0  0  0  0  0
  181.2010  178.7260  136.9380 C   0  0  0  0  0  1  0  0  0  0  0  0
  186.3620  178.6050  138.0970 O   0  0  0  0  0  1  0  0  0  0  0  0
  183.4780  178.4100  140.4740 C   0  0  0  0  0  0  0  0  0  0  0  0
  183.1910  178.7450  141.7480 C   0  0  0  0  0  0  0  0  0  0  0  0
  180.6610  178.7950  138.3250 C   0  0  0  0  0  0  0  0  0  0  0  0
  181.8950  178.4050  142.4080 C   0  0  0  0  0  3  0  0  0  0  0  0
  181.2600  178.3300  139.4410 N   0  0  0  0  0  0  0  0  0  0  0  0
  184.1700  177.7340  137.7250 C   0  0  0  0  0  2  0  0  0  0  0  0
  184.5270  180.2260  139.3570 O   0  0  0  0  0  1  0  0  0  0  0  0
  179.4490  179.3590  138.6620 C   0  0  0  0  0  3  0  0  0  0  0  0
  180.6730  178.3460  141.8580 C   0  0  0  0  0  0  0  0  0  0  0  0
  179.5650  178.0830  142.7110 N   0  0  0  0  0  1  0  0  0  0  0  0
  184.1910  179.3940  142.4940 O   0  0  0  0  0  0  0  0  0  0  0  0
  186.7430  177.4550  144.4040 C   0  0  0  0  0  3  0  0  0  0  0  0
  184.9370  178.8420  143.5470 C   0  0  0  0  0  0  0  0  0  0  0  0
  187.0160  177.2050  146.7580 F   0  0  0  0  0  0  0  0  0  0  0  0
  185.2330  178.5590  145.9400 C   0  0  0  0  0  3  0  0  0  0  0  0
  186.3390  177.7360  145.7130 C   0  0  0  0  0  0  0  0  0  0  0  0
  186.0430  178.0040  143.3260 C   0  0  0  0  0  3  0  0  0  0  0  0
  184.5350  179.1070  144.8610 C   0  0  0  0  0  3  0  0  0  0  0  0
  2  6  2  0  0  0  0
  3  8  1  6  0  0  0
  3  5  1  0  0  0  0
  4  1  1  6  0  0  0
  4  9  1  0  0  0  0
  5 15  1  6  0  0  0
  5  9  1  0  0  0  0
  6 17  1  0  0  0  0
  7 11  1  0  0  0  0
  9 10  2  0  0  0  0
 10 12  1  0  0  0  0
 10 19  1  0  0  0  0
 11 16  2  0  0  0  0
 11 13  1  0  0  0  0
 13  4  1  0  0  0  0
 13  6  1  0  0  0  0
 14  1  1  0  0  0  0
 14  3  1  0  0  0  0
 16  2  1  0  0  0  0
 17 12  2  0  0  0  0
 17 18  1  0  0  0  0
 19 21  1  0  0  0  0
 20 24  1  0  0  0  0
 21 26  2  0  0  0  0
 24 23  2  0  0  0  0
 24 22  1  0  0  0  0
 25 21  1  0  0  0  0
 25 20  2  0  0  0  0
 26 23  1  0  0  0  0
M  END
>  <MODEL>
3

>  <REMARK>
 VINA RESULT:      -8.4      4.716      8.055
  Name = 
  2 active torsions:
  status: ('A' for Active; 'I' for Inactive)
    1  A    between atoms: O_1  and  C_5
    2  A    between atoms: O_1  and  C_15
                            x       y       z     vdW  Elec       q    Type
                         _______ _______ _______ _____ _____    ______ ____

>  <TORSDO>
F 2

$$$$
=
 OpenBabel10222416083D

 26 29  0  0  1  0  0  0  0  0999 V2000
  182.2310  177.0830  139.3150 C   0  0  0  0  0  2  0  0  0  0  0  0
  180.4300  180.1150  142.4730 N   0  0  0  0  0  0  0  0  0  0  0  0
  184.4220  177.6970  138.3460 C   0  0  2  0  0  3  0  0  0  0  0  0
  182.5610  177.8350  140.6130 C   0  0  1  0  0  3  0  0  0  0  0  0
  184.7660  178.6640  139.4790 C   0  0  2  0  0  3  0  0  0  0  0  0
  181.4660  179.2680  142.2990 C   0  0  0  0  0  0  0  0  0  0  0  0
  180.2550  179.2980  138.9230 C   0  0  0  0  0  1  0  0  0  0  0  0
  185.0940  178.0600  137.1780 O   0  0  0  0  0  1  0  0  0  0  0  0
  183.9580  178.3960  140.7270 C   0  0  0  0  0  0  0  0  0  0  0  0
  184.4690  178.7420  141.9260 C   0  0  0  0  0  0  0  0  0  0  0  0
  180.5670  179.4330  140.3730 C   0  0  0  0  0  0  0  0  0  0  0  0
  183.6920  178.6600  143.1990 C   0  0  0  0  0  3  0  0  0  0  0  0
  181.5660  178.8170  141.0380 N   0  0  0  0  0  0  0  0  0  0  0  0
  182.9240  177.6800  138.0990 C   0  0  0  0  0  2  0  0  0  0  0  0
  184.5750  179.9870  139.0750 O   0  0  0  0  0  1  0  0  0  0  0  0
  179.8610  180.2280  141.2520 C   0  0  0  0  0  3  0  0  0  0  0  0
  182.3810  178.8760  143.3870 C   0  0  0  0  0  0  0  0  0  0  0  0
  181.8770  178.8240  144.7160 N   0  0  0  0  0  1  0  0  0  0  0  0
  185.8170  179.1420  141.9710 O   0  0  0  0  0  0  0  0  0  0  0  0
  189.0820  177.3840  141.5610 C   0  0  0  0  0  3  0  0  0  0  0  0
  186.9270  178.3130  142.2000 C   0  0  0  0  0  0  0  0  0  0  0  0
  190.1200  175.7540  142.9560 F   0  0  0  0  0  0  0  0  0  0  0  0
  188.0030  176.6430  143.5960 C   0  0  0  0  0  3  0  0  0  0  0  0
  189.0800  176.5860  142.7080 C   0  0  0  0  0  0  0  0  0  0  0  0
  188.0080  178.2420  141.3060 C   0  0  0  0  0  3  0  0  0  0  0  0
  186.9300  177.5020  143.3390 C   0  0  0  0  0  3  0  0  0  0  0  0
  3  8  1  6  0  0  0
  3  5  1  0  0  0  0
  4  1  1  6  0  0  0
  4  9  1  0  0  0  0
  4 13  1  0  0  0  0
  5 15  1  6  0  0  0
  5  9  1  0  0  0  0
  6  2  2  0  0  0  0
  6 17  1  0  0  0  0
  7 11  1  0  0  0  0
  9 10  2  0  0  0  0
 10 19  1  0  0  0  0
 10 12  1  0  0  0  0
 11 13  1  0  0  0  0
 11 16  2  0  0  0  0
 12 17  2  0  0  0  0
 13  6  1  0  0  0  0
 14  3  1  0  0  0  0
 14  1  1  0  0  0  0
 16  2  1  0  0  0  0
 17 18  1  0  0  0  0
 19 21  1  0  0  0  0
 20 24  1  0  0  0  0
 21 26  2  0  0  0  0
 24 22  1  0  0  0  0
 24 23  2  0  0  0  0
 25 20  2  0  0  0  0
 25 21  1  0  0  0  0
 26 23  1  0  0  0  0
M  END
>  <MODEL>
4

>  <REMARK>
 VINA RESULT:      -8.2      3.953      7.719
  Name = 
  2 active torsions:
  status: ('A' for Active; 'I' for Inactive)
    1  A    between atoms: O_1  and  C_5
    2  A    between atoms: O_1  and  C_15
                            x       y       z     vdW  Elec       q    Type
                         _______ _______ _______ _____ _____    ______ ____

>  <TORSDO>
F 2

$$$$
=
 OpenBabel10222416083D

 26 29  0  0  1  0  0  0  0  0999 V2000
  190.1800  178.4470  144.6260 C   0  0  0  0  0  2  0  0  0  0  0  0
  185.4900  178.0490  144.1190 N   0  0  0  0  0  0  0  0  0  0  0  0
  191.5470  176.7590  143.4430 C   0  0  2  0  0  3  0  0  0  0  0  0
  189.0700  178.3300  143.5700 C   0  0  1  0  0  3  0  0  0  0  0  0
  190.4280  176.3860  142.4710 C   0  0  2  0  0  3  0  0  0  0  0  0
  186.6070  178.3150  143.4100 C   0  0  0  0  0  0  0  0  0  0  0  0
  188.1740  177.1110  146.4030 C   0  0  0  0  0  1  0  0  0  0  0  0
  192.4300  175.6900  143.6000 O   0  0  0  0  0  1  0  0  0  0  0  0
  189.3700  177.4590  142.3740 C   0  0  0  0  0  0  0  0  0  0  0  0
  188.6490  177.5690  141.2400 C   0  0  0  0  0  0  0  0  0  0  0  0
  187.3120  177.5770  145.2810 C   0  0  0  0  0  0  0  0  0  0  0  0
  187.4830  178.4920  141.1000 C   0  0  0  0  0  3  0  0  0  0  0  0
  187.7340  178.0590  144.0940 N   0  0  0  0  0  0  0  0  0  0  0  0
  190.9700  177.1570  144.7900 C   0  0  0  0  0  2  0  0  0  0  0  0
  189.8330  175.1770  142.8430 O   0  0  0  0  0  1  0  0  0  0  0  0
  185.9330  177.5740  145.3040 C   0  0  0  0  0  3  0  0  0  0  0  0
  186.5830  178.8410  142.0320 C   0  0  0  0  0  0  0  0  0  0  0  0
  185.5000  179.6750  141.6390 N   0  0  0  0  0  1  0  0  0  0  0  0
  189.0620  176.8130  140.1270 O   0  0  0  0  0  0  0  0  0  0  0  0
  189.0560  178.6180  136.8620 C   0  0  0  0  0  3  0  0  0  0  0  0
  188.8500  177.1310  138.7770 C   0  0  0  0  0  0  0  0  0  0  0  0
  188.0850  177.9910  134.7780 F   0  0  0  0  0  0  0  0  0  0  0  0
  187.8600  176.5250  136.6440 C   0  0  0  0  0  3  0  0  0  0  0  0
  188.3330  177.7130  136.0800 C   0  0  0  0  0  0  0  0  0  0  0  0
  189.3120  178.3290  138.2060 C   0  0  0  0  0  3  0  0  0  0  0  0
  188.1170  176.2390  137.9880 C   0  0  0  0  0  3  0  0  0  0  0  0
  1 14  1  0  0  0  0
  2 16  1  0  0  0  0
  3  8  1  1  0  0  0
  3 14  1  0  0  0  0
  4 13  1  0  0  0  0
  4  1  1  1  0  0  0
  5 15  1  1  0  0  0
  5  3  1  0  0  0  0
  6 13  1  0  0  0  0
  6  2  2  0  0  0  0
  9  5  1  0  0  0  0
  9  4  1  0  0  0  0
 10  9  2  0  0  0  0
 11 16  2  0  0  0  0
 11  7  1  0  0  0  0
 12 10  1  0  0  0  0
 12 17  2  0  0  0  0
 13 11  1  0  0  0  0
 17  6  1  0  0  0  0
 18 17  1  0  0  0  0
 19 10  1  0  0  0  0
 20 25  1  0  0  0  0
 21 19  1  0  0  0  0
 22 24  1  0  0  0  0
 23 26  2  0  0  0  0
 24 23  1  0  0  0  0
 24 20  2  0  0  0  0
 25 21  2  0  0  0  0
 26 21  1  0  0  0  0
M  END
>  <MODEL>
5

>  <REMARK>
 VINA RESULT:      -8.1      3.637      5.102
  Name = 
  2 active torsions:
  status: ('A' for Active; 'I' for Inactive)
    1  A    between atoms: O_1  and  C_5
    2  A    between atoms: O_1  and  C_15
                            x       y       z     vdW  Elec       q    Type
                         _______ _______ _______ _____ _____    ______ ____

>  <TORSDO>
F 2

$$$$
=
 OpenBabel10222416083D

 26 29  0  0  1  0  0  0  0  0999 V2000
  189.7830  174.7960  137.2190 C   0  0  0  0  0  2  0  0  0  0  0  0
  187.6180  179.0030  137.3720 N   0  0  0  0  0  0  0  0  0  0  0  0
  192.1470  174.7640  137.9450 C   0  0  2  0  0  3  0  0  0  0  0  0
  189.4840  175.9830  138.1470 C   0  0  1  0  0  3  0  0  0  0  0  0
  192.0320  176.0760  138.7200 C   0  0  2  0  0  3  0  0  0  0  0  0
  188.1680  178.0730  138.1800 C   0  0  0  0  0  0  0  0  0  0  0  0
  189.3830  176.8180  135.0460 C   0  0  0  0  0  1  0  0  0  0  0  0
  193.4650  174.5540  137.5380 O   0  0  0  0  0  1  0  0  0  0  0  0
  190.6020  176.4170  139.0640 C   0  0  0  0  0  0  0  0  0  0  0  0
  190.3510  177.1790  140.1480 C   0  0  0  0  0  0  0  0  0  0  0  0
  188.7640  177.5100  136.2120 C   0  0  0  0  0  0  0  0  0  0  0  0
  188.9910  177.6960  140.4850 C   0  0  0  0  0  3  0  0  0  0  0  0
  188.8550  177.1360  137.5050 N   0  0  0  0  0  0  0  0  0  0  0  0
  191.2260  174.7780  136.7380 C   0  0  0  0  0  2  0  0  0  0  0  0
  192.6020  177.1280  137.9970 O   0  0  0  0  0  1  0  0  0  0  0  0
  187.9990  178.6540  136.1240 C   0  0  0  0  0  3  0  0  0  0  0  0
  188.0190  178.0840  139.6470 C   0  0  0  0  0  0  0  0  0  0  0  0
  186.8280  178.6280  140.2060 N   0  0  0  0  0  1  0  0  0  0  0  0
  191.4210  177.4420  141.0230 O   0  0  0  0  0  0  0  0  0  0  0  0
  191.2740  178.4650  144.6080 C   0  0  0  0  0  3  0  0  0  0  0  0
  191.3830  177.3960  142.4250 C   0  0  0  0  0  0  0  0  0  0  0  0
  191.3650  177.1270  146.5780 F   0  0  0  0  0  0  0  0  0  0  0  0
  191.4860  176.0590  144.4490 C   0  0  0  0  0  3  0  0  0  0  0  0
  191.3730  177.2150  145.2260 C   0  0  0  0  0  0  0  0  0  0  0  0
  191.2820  178.5550  143.2130 C   0  0  0  0  0  3  0  0  0  0  0  0
  191.4930  176.1520  143.0550 C   0  0  0  0  0  3  0  0  0  0  0  0
  2  6  2  0  0  0  0
  3  8  1  6  0  0  0
  3  5  1  0  0  0  0
  4  1  1  6  0  0  0
  4  9  1  0  0  0  0
  5 15  1  6  0  0  0
  5  9  1  0  0  0  0
  6 17  1  0  0  0  0
  7 11  1  0  0  0  0
  9 10  2  0  0  0  0
 10 12  1  0  0  0  0
 10 19  1  0  0  0  0
 11 13  1  0  0  0  0
 13  4  1  0  0  0  0
 13  6  1  0  0  0  0
 14  1  1  0  0  0  0
 14  3  1  0  0  0  0
 16 11  2  0  0  0  0
 16  2  1  0  0  0  0
 17 18  1  0  0  0  0
 17 12  2  0  0  0  0
 19 21  1  0  0  0  0
 20 24  1  0  0  0  0
 21 26  2  0  0  0  0
 21 25  1  0  0  0  0
 23 24  2  0  0  0  0
 24 22  1  0  0  0  0
 25 20  2  0  0  0  0
 26 23  1  0  0  0  0
M  END
>  <MODEL>
6

>  <REMARK>
 VINA RESULT:      -7.9      4.989      8.003
  Name = 
  2 active torsions:
  status: ('A' for Active; 'I' for Inactive)
    1  A    between atoms: O_1  and  C_5
    2  A    between atoms: O_1  and  C_15
                            x       y       z     vdW  Elec       q    Type
                         _______ _______ _______ _____ _____    ______ ____

>  <TORSDO>
F 2

$$$$
=
 OpenBabel10222416083D

 26 29  0  0  1  0  0  0  0  0999 V2000
  186.6870  176.7840  145.0690 C   0  0  0  0  0  2  0  0  0  0  0  0
  190.5110  178.4680  142.8430 N   0  0  0  0  0  0  0  0  0  0  0  0
  184.6910  178.2460  145.0550 C   0  0  2  0  0  3  0  0  0  0  0  0
  187.1620  177.3740  143.7320 C   0  0  1  0  0  3  0  0  0  0  0  0
  185.1740  179.0650  143.8590 C   0  0  2  0  0  3  0  0  0  0  0  0
  189.2490  178.0550  142.6020 C   0  0  0  0  0  0  0  0  0  0  0  0
  189.0500  178.2510  146.1780 C   0  0  0  0  0  1  0  0  0  0  0  0
  183.8240  179.0030  145.8440 O   0  0  0  0  0  1  0  0  0  0  0  0
  186.2230  178.3390  143.0500 C   0  0  0  0  0  0  0  0  0  0  0  0
  186.3570  178.6260  141.7400 C   0  0  0  0  0  0  0  0  0  0  0  0
  189.3680  178.2350  144.7230 C   0  0  0  0  0  0  0  0  0  0  0  0
  187.4570  178.0770  140.8930 C   0  0  0  0  0  3  0  0  0  0  0  0
  188.5320  177.8830  143.7240 N   0  0  0  0  0  0  0  0  0  0  0  0
  185.8710  177.7740  145.8870 C   0  0  0  0  0  2  0  0  0  0  0  0
  185.6800  180.2990  144.2770 O   0  0  0  0  0  1  0  0  0  0  0  0
  190.5880  178.5900  144.1870 C   0  0  0  0  0  3  0  0  0  0  0  0
  188.7240  177.8110  141.2460 C   0  0  0  0  0  0  0  0  0  0  0  0
  189.6240  177.3710  140.2350 N   0  0  0  0  0  1  0  0  0  0  0  0
  185.3730  179.4370  141.1450 O   0  0  0  0  0  0  0  0  0  0  0  0
  182.9150  179.1370  138.3550 C   0  0  0  0  0  3  0  0  0  0  0  0
  184.3020  179.0030  140.3490 C   0  0  0  0  0  0  0  0  0  0  0  0
  181.0470  177.6750  138.1220 F   0  0  0  0  0  0  0  0  0  0  0  0
  182.3860  177.5340  140.0890 C   0  0  0  0  0  3  0  0  0  0  0  0
  182.1060  178.1090  138.8470 C   0  0  0  0  0  0  0  0  0  0  0  0
  184.0070  179.5840  139.1040 C   0  0  0  0  0  3  0  0  0  0  0  0
  183.4790  177.9820  140.8360 C   0  0  0  0  0  3  0  0  0  0  0  0
  1 14  1  0  0  0  0
  2 16  1  0  0  0  0
  3  8  1  1  0  0  0
  3 14  1  0  0  0  0
  4  1  1  1  0  0  0
  5 15  1  1  0  0  0
  5  3  1  0  0  0  0
  6  2  2  0  0  0  0
  6 13  1  0  0  0  0
  9  4  1  0  0  0  0
  9  5  1  0  0  0  0
 10  9  2  0  0  0  0
 11  7  1  0  0  0  0
 12 17  2  0  0  0  0
 12 10  1  0  0  0  0
 13  4  1  0  0  0  0
 13 11  1  0  0  0  0
 16 11  2  0  0  0  0
 17  6  1  0  0  0  0
 18 17  1  0  0  0  0
 19 10  1  0  0  0  0
 20 24  2  0  0  0  0
 20 25  1  0  0  0  0
 21 26  1  0  0  0  0
 21 19  1  0  0  0  0
 22 24  1  0  0  0  0
 23 26  2  0  0  0  0
 24 23  1  0  0  0  0
 25 21  2  0  0  0  0
M  END
>  <MODEL>
7

>  <REMARK>
 VINA RESULT:      -7.9      2.642      4.615
  Name = 
  2 active torsions:
  status: ('A' for Active; 'I' for Inactive)
    1  A    between atoms: O_1  and  C_5
    2  A    between atoms: O_1  and  C_15
                            x       y       z     vdW  Elec       q    Type
                         _______ _______ _______ _____ _____    ______ ____

>  <TORSDO>
F 2

$$$$
=
 OpenBabel10222416083D

 26 29  0  0  1  0  0  0  0  0999 V2000
  190.1760  178.2650  144.5560 C   0  0  0  0  0  2  0  0  0  0  0  0
  185.5900  178.1980  143.3820 N   0  0  0  0  0  0  0  0  0  0  0  0
  191.5180  176.3280  143.8020 C   0  0  2  0  0  3  0  0  0  0  0  0
  189.2220  178.1040  143.3620 C   0  0  1  0  0  3  0  0  0  0  0  0
  190.5160  175.9260  142.7190 C   0  0  2  0  0  3  0  0  0  0  0  0
  186.8180  178.2750  142.8270 C   0  0  0  0  0  0  0  0  0  0  0  0
  187.8110  177.3440  146.1460 C   0  0  0  0  0  1  0  0  0  0  0  0
  192.2560  175.2190  144.2170 O   0  0  0  0  0  1  0  0  0  0  0  0
  189.5990  177.0630  142.3360 C   0  0  0  0  0  0  0  0  0  0  0  0
  189.0610  177.0840  141.0990 C   0  0  0  0  0  0  0  0  0  0  0  0
  187.1700  177.7300  144.8580 C   0  0  0  0  0  0  0  0  0  0  0  0
  188.0280  178.0750  140.6750 C   0  0  0  0  0  3  0  0  0  0  0  0
  187.8040  178.0170  143.7010 N   0  0  0  0  0  0  0  0  0  0  0  0
  190.7990  176.9460  144.9880 C   0  0  0  0  0  2  0  0  0  0  0  0
  189.7540  174.8310  143.1340 O   0  0  0  0  0  1  0  0  0  0  0  0
  185.8090  177.8470  144.6680 C   0  0  0  0  0  3  0  0  0  0  0  0
  187.0450  178.6160  141.4100 C   0  0  0  0  0  0  0  0  0  0  0  0
  186.1200  179.4800  140.7600 N   0  0  0  0  0  1  0  0  0  0  0  0
  189.5490  176.1570  140.1590 O   0  0  0  0  0  0  0  0  0  0  0  0
  192.9030  177.1880  138.8930 C   0  0  0  0  0  3  0  0  0  0  0  0
  190.6760  176.3160  139.3390 C   0  0  0  0  0  0  0  0  0  0  0  0
  193.9230  176.7810  136.7770 F   0  0  0  0  0  0  0  0  0  0  0  0
  191.7350  175.9270  137.1890 C   0  0  0  0  0  3  0  0  0  0  0  0
  192.8660  176.6320  137.6110 C   0  0  0  0  0  0  0  0  0  0  0  0
  191.8120  177.0330  139.7520 C   0  0  0  0  0  3  0  0  0  0  0  0
  190.6450  175.7730  138.0500 C   0  0  0  0  0  3  0  0  0  0  0  0
  1 14  1  0  0  0  0
  2 16  1  0  0  0  0
  3  8  1  1  0  0  0
  3 14  1  0  0  0  0
  4 13  1  0  0  0  0
  4  1  1  1  0  0  0
  5 15  1  1  0  0  0
  5  3  1  0  0  0  0
  6  2  2  0  0  0  0
  6 13  1  0  0  0  0
  9  5  1  0  0  0  0
  9  4  1  0  0  0  0
 10  9  2  0  0  0  0
 11  7  1  0  0  0  0
 12 10  1  0  0  0  0
 12 17  2  0  0  0  0
 13 11  1  0  0  0  0
 16 11  2  0  0  0  0
 17  6  1  0  0  0  0
 18 17  1  0  0  0  0
 19 10  1  0  0  0  0
 20 25  1  0  0  0  0
 21 25  2  0  0  0  0
 21 19  1  0  0  0  0
 22 24  1  0  0  0  0
 23 24  1  0  0  0  0
 23 26  2  0  0  0  0
 24 20  2  0  0  0  0
 26 21  1  0  0  0  0
M  END
>  <MODEL>
8

>  <REMARK>
 VINA RESULT:      -7.9      4.012      6.360
  Name = 
  2 active torsions:
  status: ('A' for Active; 'I' for Inactive)
    1  A    between atoms: O_1  and  C_5
    2  A    between atoms: O_1  and  C_15
                            x       y       z     vdW  Elec       q    Type
                         _______ _______ _______ _____ _____    ______ ____

>  <TORSDO>
F 2

$$$$
=
 OpenBabel10222416083D

 26 29  0  0  1  0  0  0  0  0999 V2000
  182.9740  180.0560  138.7200 C   0  0  0  0  0  2  0  0  0  0  0  0
  186.7840  177.3050  138.1460 N   0  0  0  0  0  0  0  0  0  0  0  0
  181.3970  179.3700  140.4970 C   0  0  2  0  0  3  0  0  0  0  0  0
  184.1500  179.4230  139.4790 C   0  0  1  0  0  3  0  0  0  0  0  0
  182.4310  178.5090  141.2230 C   0  0  2  0  0  3  0  0  0  0  0  0
  186.2130  178.1390  139.0400 C   0  0  0  0  0  0  0  0  0  0  0  0
  183.4320  177.8030  136.8000 C   0  0  0  0  0  1  0  0  0  0  0  0
  180.1080  178.9080  140.7650 O   0  0  0  0  0  1  0  0  0  0  0  0
  183.8480  178.8820  140.8560 C   0  0  0  0  0  0  0  0  0  0  0  0
  184.8380  178.6460  141.7400 C   0  0  0  0  0  0  0  0  0  0  0  0
  184.7070  177.7990  137.5700 C   0  0  0  0  0  0  0  0  0  0  0  0
  186.2840  178.8370  141.4160 C   0  0  0  0  0  3  0  0  0  0  0  0
  184.9560  178.4770  138.7100 N   0  0  0  0  0  0  0  0  0  0  0  0
  181.6520  179.3570  139.0010 C   0  0  0  0  0  2  0  0  0  0  0  0
  182.2210  177.1540  140.9560 O   0  0  0  0  0  1  0  0  0  0  0  0
  185.8300  177.0810  137.2160 C   0  0  0  0  0  3  0  0  0  0  0  0
  186.9060  178.6310  140.2450 C   0  0  0  0  0  0  0  0  0  0  0  0
  188.3190  178.7970  140.1990 N   0  0  0  0  0  1  0  0  0  0  0  0
  184.4740  178.2590  143.0420 O   0  0  0  0  0  0  0  0  0  0  0  0
  187.2700  177.5050  145.3940 C   0  0  0  0  0  3  0  0  0  0  0  0
  185.3020  178.2540  144.1750 C   0  0  0  0  0  0  0  0  0  0  0  0
  187.6290  178.2610  147.6250 F   0  0  0  0  0  0  0  0  0  0  0  0
  185.6880  178.9990  146.4540 C   0  0  0  0  0  3  0  0  0  0  0  0
  186.8710  178.2570  146.5020 C   0  0  0  0  0  0  0  0  0  0  0  0
  186.4870  177.5010  144.2360 C   0  0  0  0  0  3  0  0  0  0  0  0
  184.9070  178.9940  145.2950 C   0  0  0  0  0  3  0  0  0  0  0  0
  1 14  1  0  0  0  0
  2  6  2  0  0  0  0
  3  8  1  6  0  0  0
  3  5  1  0  0  0  0
  4  1  1  6  0  0  0
  4  9  1  0  0  0  0
  5 15  1  6  0  0  0
  6 17  1  0  0  0  0
  7 11  1  0  0  0  0
  9  5  1  0  0  0  0
  9 10  2  0  0  0  0
 10 19  1  0  0  0  0
 11 13  1  0  0  0  0
 12 10  1  0  0  0  0
 13  6  1  0  0  0  0
 13  4  1  0  0  0  0
 14  3  1  0  0  0  0
 16 11  2  0  0  0  0
 16  2  1  0  0  0  0
 17 12  2  0  0  0  0
 18 17  1  0  0  0  0
 19 21  1  0  0  0  0
 20 24  1  0  0  0  0
 21 25  1  0  0  0  0
 21 26  2  0  0  0  0
 23 24  2  0  0  0  0
 24 22  1  0  0  0  0
 25 20  2  0  0  0  0
 26 23  1  0  0  0  0
M  END
>  <MODEL>
9

>  <REMARK>
 VINA RESULT:      -7.7      4.092      7.636
  Name = 
  2 active torsions:
  status: ('A' for Active; 'I' for Inactive)
    1  A    between atoms: O_1  and  C_5
    2  A    between atoms: O_1  and  C_15
                            x       y       z     vdW  Elec       q    Type
                         _______ _______ _______ _____ _____    ______ ____

>  <TORSDO>
F 2

$$$$
