=
 OpenBabel10222415423D

 44 47  0  0  1  0  0  0  0  0999 V2000
  190.0720  176.9630  141.7830 C   0  0  0  0  0  3  0  0  0  0  0  0
  189.0700  177.3460  139.1760 C   0  0  0  0  0  0  0  0  0  0  0  0
  190.8620  176.2780  140.6820 C   0  0  0  0  0  3  0  0  0  0  0  0
  188.4340  177.9020  140.2000 C   0  0  0  0  0  3  0  0  0  0  0  0
  190.2610  176.5550  139.3390 C   0  0  2  0  0  3  0  0  0  0  0  0
  188.9660  177.7090  141.5730 C   0  0  0  0  0  0  0  0  0  0  0  0
  190.6740  176.1750  138.1390 C   0  0  0  0  0  0  0  0  0  0  0  0
  189.7210  176.6850  137.1230 C   0  0  0  0  0  0  0  0  0  0  0  0
  188.7720  177.3920  137.7540 C   0  0  0  0  0  0  0  0  0  0  0  0
  191.8140  175.3350  137.9210 N   0  0  0  0  0  2  0  0  0  0  0  0
  193.1630  175.7890  137.7880 C   0  0  0  0  0  0  0  0  0  0  0  0
  193.4930  176.9500  138.1600 O   0  0  0  0  0  0  0  0  0  0  0  0
  195.1790  174.4450  138.3700 C   0  0  0  0  0  2  0  0  0  0  0  0
  195.3770  172.9450  138.2530 C   0  0  0  0  0  2  0  0  0  0  0  0
  193.5680  173.5580  136.7860 C   0  0  0  0  0  2  0  0  0  0  0  0
  194.1980  174.8410  137.2790 C   0  0  0  0  0  3  0  0  0  0  0  0
  194.6150  172.4980  137.0210 C   0  0  0  0  0  2  0  0  0  0  0  0
  190.7580  176.6770  134.9670 O   0  0  0  0  0  0  0  0  0  0  0  0
  189.7720  176.3680  135.6860 C   0  0  0  0  0  3  0  0  0  0  0  0
  187.3400  178.1950  137.0330 S   0  0  0  0  0  0  0  0  0  0  0  0
  186.3140  176.7080  137.2380 C   0  0  0  0  0  2  0  0  0  0  0  0
  185.3990  176.5400  136.0390 C   0  0  0  0  0  2  0  0  0  0  0  0
  183.9960  176.1760  136.4930 C   0  0  0  0  0  2  0  0  0  0  0  0
  182.9430  175.9220  138.6020 O   0  0  0  0  0  1  0  0  0  0  0  0
  183.7020  176.8130  137.8400 C   0  0  2  0  0  3  0  0  0  0  0  0
  182.9790  177.9990  137.6540 O   0  0  0  0  0  0  0  0  0  0  0  0
  182.9410  178.6320  138.9080 C   0  0  1  0  0  3  0  0  0  0  0  0
  184.3220  179.2040  139.2420 C   0  0  1  0  0  3  0  0  0  0  0  0
  184.3750  180.5670  138.9360 O   0  0  0  0  0  1  0  0  0  0  0  0
  183.9330  177.9950  141.4910 C   0  0  0  0  0  1  0  0  0  0  0  0
  184.6720  179.0070  140.6860 C   0  0  0  0  0  0  0  0  0  0  0  0
  185.5730  179.6520  141.2010 O   0  0  0  0  0  0  0  0  0  0  0  0
  181.9230  179.7700  138.8690 C   0  0  0  0  0  2  0  0  0  0  0  0
  180.9590  179.6630  140.0350 C   0  0  0  0  0  1  0  0  0  0  0  0
  188.3150  178.2890  142.7140 N   0  0  0  0  0  2  0  0  0  0  0  0
  189.6880  177.5350  144.5840 C   0  0  0  0  0  3  0  0  0  0  0  0
  188.4290  177.8970  144.0920 C   0  0  0  0  0  0  0  0  0  0  0  0
  189.8540  177.1520  145.9230 C   0  0  0  0  0  0  0  0  0  0  0  0
  187.4820  177.5080  146.2970 C   0  0  0  0  0  3  0  0  0  0  0  0
  188.7410  177.1390  146.7760 C   0  0  0  0  0  3  0  0  0  0  0  0
  187.3280  177.8870  144.9610 C   0  0  0  0  0  3  0  0  0  0  0  0
  192.0050  176.1790  145.6730 O   0  0  0  0  0  0  0  0  0  0  0  0
  191.1840  176.7650  146.4280 C   0  0  0  0  0  0  0  0  0  0  0  0
  191.5570  177.0520  147.7730 N   0  0  0  0  0  1  0  0  0  0  0  0
  2  5  1  0  0  0  0
  2  4  1  0  0  0  0
  3  1  2  0  0  0  0
  4  6  2  0  0  0  0
  5  3  1  6  0  0  0
  6  1  1  0  0  0  0
  6 35  1  0  0  0  0
  7  5  1  0  0  0  0
  8  9  1  0  0  0  0
  8  7  2  0  0  0  0
  9  2  2  0  0  0  0
 10  7  1  0  0  0  0
 11 10  1  0  0  0  0
 11 12  2  0  0  0  0
 14 13  1  0  0  0  0
 15 17  1  0  0  0  0
 15 16  1  0  0  0  0
 16 11  1  0  0  0  0
 16 13  1  0  0  0  0
 17 14  1  0  0  0  0
 18 19  2  0  0  0  0
 19  8  1  0  0  0  0
 20 21  1  0  0  0  0
 20  9  1  0  0  0  0
 22 23  1  0  0  0  0
 22 21  1  0  0  0  0
 23 25  1  0  0  0  0
 25 24  1  1  0  0  0
 26 25  1  0  0  0  0
 26 27  1  0  0  0  0
 27 33  1  6  0  0  0
 27 28  1  0  0  0  0
 28 29  1  1  0  0  0
 28 31  1  0  0  0  0
 31 32  2  0  0  0  0
 31 30  1  0  0  0  0
 33 34  1  0  0  0  0
 35 37  1  0  0  0  0
 36 38  1  0  0  0  0
 37 36  2  0  0  0  0
 37 41  1  0  0  0  0
 38 43  1  0  0  0  0
 38 40  2  0  0  0  0
 39 40  1  0  0  0  0
 41 39  2  0  0  0  0
 42 43  2  0  0  0  0
 43 44  1  0  0  0  0
M  END
>  <MODEL>
1

>  <REMARK>
 VINA RESULT:      -7.7      0.000      0.000
  Name = 
  16 active torsions:
  status: ('A' for Active; 'I' for Inactive)
    1  A    between atoms: N_4  and  C_36
    2  A    between atoms: C_5  and  C_14
    3  A    between atoms: C_5  and  C_23
    4  A    between atoms: C_6  and  N_7
    5  A    between atoms: N_7  and  C_35
    6  A    between atoms: C_8  and  C_29
    7  A    between atoms: C_9  and  C_38
    8  A    between atoms: C_14  and  C_16
    9  A    between atoms: C_14  and  O_31
   10  A    between atoms: C_15  and  C_22
   11  A    between atoms: C_15  and  C_40
   12  A    between atoms: C_17  and  S_18
   13  A    between atoms: C_17  and  C_22
   14  A    between atoms: S_18  and  C_39
   15  A    between atoms: C_21  and  C_37
   16  A    between atoms: O_31  and  C_40
                            x       y       z     vdW  Elec       q    Type
                         _______ _______ _______ _____ _____    ______ ____

>  <TORSDO>
F 16

$$$$
=
 OpenBabel10222415423D

 44 47  0  0  1  0  0  0  0  0999 V2000
  184.7840  178.3820  145.6240 C   0  0  0  0  0  3  0  0  0  0  0  0
  185.7970  178.5200  142.9970 C   0  0  0  0  0  0  0  0  0  0  0  0
  183.7470  178.6500  144.5470 C   0  0  0  0  0  3  0  0  0  0  0  0
  186.6360  178.2970  144.0010 C   0  0  0  0  0  3  0  0  0  0  0  0
  184.3820  178.6880  143.1910 C   0  0  2  0  0  3  0  0  0  0  0  0
  186.1020  178.2150  145.3850 C   0  0  0  0  0  0  0  0  0  0  0  0
  183.8180  178.8550  142.0040 C   0  0  0  0  0  0  0  0  0  0  0  0
  184.8770  178.8390  140.9660 C   0  0  0  0  0  0  0  0  0  0  0  0
  186.0550  178.6280  141.5710 C   0  0  0  0  0  0  0  0  0  0  0  0
  182.4170  179.0950  141.8180 N   0  0  0  0  0  2  0  0  0  0  0  0
  181.5580  178.3480  140.9530 C   0  0  0  0  0  0  0  0  0  0  0  0
  181.9080  177.2160  140.5160 O   0  0  0  0  0  0  0  0  0  0  0  0
  179.7240  179.8590  141.7070 C   0  0  0  0  0  2  0  0  0  0  0  0
  179.1220  181.0450  140.9770 C   0  0  0  0  0  2  0  0  0  0  0  0
  180.2060  179.6550  139.3370 C   0  0  0  0  0  2  0  0  0  0  0  0
  180.2010  178.8880  140.6400 C   0  0  0  0  0  3  0  0  0  0  0  0
  179.1330  180.7030  139.5010 C   0  0  0  0  0  2  0  0  0  0  0  0
  184.3530  180.2620  139.1150 O   0  0  0  0  0  0  0  0  0  0  0  0
  184.6590  179.1160  139.5360 C   0  0  0  0  0  3  0  0  0  0  0  0
  187.6810  178.5630  140.8160 S   0  0  0  0  0  0  0  0  0  0  0  0
  188.1860  177.1610  141.8570 C   0  0  0  0  0  2  0  0  0  0  0  0
  189.5350  176.6370  141.4030 C   0  0  0  0  0  2  0  0  0  0  0  0
  190.1750  177.6050  140.4230 C   0  0  0  0  0  2  0  0  0  0  0  0
  192.3650  177.0540  139.6980 O   0  0  0  0  0  1  0  0  0  0  0  0
  191.0140  176.8430  139.4110 C   0  0  2  0  0  3  0  0  0  0  0  0
  190.7360  177.3110  138.1200 O   0  0  0  0  0  0  0  0  0  0  0  0
  190.2830  176.1980  137.3920 C   0  0  1  0  0  3  0  0  0  0  0  0
  189.2300  176.6380  136.3710 C   0  0  1  0  0  3  0  0  0  0  0  0
  188.8290  175.5550  135.5830 O   0  0  0  0  0  1  0  0  0  0  0  0
  187.6780  178.6620  136.7760 C   0  0  0  0  0  1  0  0  0  0  0  0
  188.0280  177.2390  137.0350 C   0  0  0  0  0  0  0  0  0  0  0  0
  187.3210  176.5640  137.7690 O   0  0  0  0  0  0  0  0  0  0  0  0
  191.4610  175.5630  136.6550 C   0  0  0  0  0  2  0  0  0  0  0  0
  191.6520  174.1250  137.0920 C   0  0  0  0  0  1  0  0  0  0  0  0
  186.9680  177.9780  146.5060 N   0  0  0  0  0  2  0  0  0  0  0  0
  189.1500  177.9970  145.4190 C   0  0  0  0  0  3  0  0  0  0  0  0
  188.3500  177.5880  146.4910 C   0  0  0  0  0  0  0  0  0  0  0  0
  190.5080  177.6490  145.3600 C   0  0  0  0  0  0  0  0  0  0  0  0
  190.2770  176.4780  147.4740 C   0  0  0  0  0  3  0  0  0  0  0  0
  191.0660  176.8850  146.3950 C   0  0  0  0  0  3  0  0  0  0  0  0
  188.9260  176.8300  147.5220 C   0  0  0  0  0  3  0  0  0  0  0  0
  191.9640  177.2300  143.5330 O   0  0  0  0  0  0  0  0  0  0  0  0
  191.3390  178.0800  144.2210 C   0  0  0  0  0  0  0  0  0  0  0  0
  191.4420  179.4610  143.8850 N   0  0  0  0  0  1  0  0  0  0  0  0
  2  5  1  0  0  0  0
  2  4  1  0  0  0  0
  3  1  2  0  0  0  0
  4  6  2  0  0  0  0
  5  3  1  6  0  0  0
  6  1  1  0  0  0  0
  6 35  1  0  0  0  0
  7  5  1  0  0  0  0
  8  9  1  0  0  0  0
  8  7  2  0  0  0  0
  9  2  2  0  0  0  0
 10  7  1  0  0  0  0
 11 10  1  0  0  0  0
 12 11  2  0  0  0  0
 14 13  1  0  0  0  0
 15 17  1  0  0  0  0
 15 16  1  0  0  0  0
 16 11  1  0  0  0  0
 16 13  1  0  0  0  0
 17 14  1  0  0  0  0
 18 19  2  0  0  0  0
 19  8  1  0  0  0  0
 20  9  1  0  0  0  0
 20 21  1  0  0  0  0
 22 21  1  0  0  0  0
 23 22  1  0  0  0  0
 25 24  1  1  0  0  0
 25 23  1  0  0  0  0
 26 25  1  0  0  0  0
 27 33  1  6  0  0  0
 27 26  1  0  0  0  0
 28 29  1  1  0  0  0
 28 31  1  0  0  0  0
 28 27  1  0  0  0  0
 30 31  1  0  0  0  0
 31 32  2  0  0  0  0
 33 34  1  0  0  0  0
 36 37  1  0  0  0  0
 37 35  1  0  0  0  0
 37 41  2  0  0  0  0
 38 36  2  0  0  0  0
 38 40  1  0  0  0  0
 39 41  1  0  0  0  0
 40 39  2  0  0  0  0
 42 43  2  0  0  0  0
 43 38  1  0  0  0  0
 44 43  1  0  0  0  0
M  END
>  <MODEL>
2

>  <REMARK>
 VINA RESULT:      -7.7      2.446      8.558
  Name = 
  16 active torsions:
  status: ('A' for Active; 'I' for Inactive)
    1  A    between atoms: N_4  and  C_36
    2  A    between atoms: C_5  and  C_14
    3  A    between atoms: C_5  and  C_23
    4  A    between atoms: C_6  and  N_7
    5  A    between atoms: N_7  and  C_35
    6  A    between atoms: C_8  and  C_29
    7  A    between atoms: C_9  and  C_38
    8  A    between atoms: C_14  and  C_16
    9  A    between atoms: C_14  and  O_31
   10  A    between atoms: C_15  and  C_22
   11  A    between atoms: C_15  and  C_40
   12  A    between atoms: C_17  and  S_18
   13  A    between atoms: C_17  and  C_22
   14  A    between atoms: S_18  and  C_39
   15  A    between atoms: C_21  and  C_37
   16  A    between atoms: O_31  and  C_40
                            x       y       z     vdW  Elec       q    Type
                         _______ _______ _______ _____ _____    ______ ____

>  <TORSDO>
F 16

$$$$
=
 OpenBabel10222415423D

 44 47  0  0  1  0  0  0  0  0999 V2000
  190.3750  177.1430  141.4920 C   0  0  0  0  0  3  0  0  0  0  0  0
  189.0780  177.5250  139.0180 C   0  0  0  0  0  0  0  0  0  0  0  0
  191.1840  176.7400  140.2720 C   0  0  0  0  0  3  0  0  0  0  0  0
  188.4390  177.8430  140.1380 C   0  0  0  0  0  3  0  0  0  0  0  0
  190.4160  176.9960  139.0120 C   0  0  2  0  0  3  0  0  0  0  0  0
  189.1250  177.6510  141.4410 C   0  0  0  0  0  0  0  0  0  0  0  0
  190.7850  176.8170  137.7520 C   0  0  0  0  0  0  0  0  0  0  0  0
  189.6580  177.1960  136.8660 C   0  0  0  0  0  0  0  0  0  0  0  0
  188.6460  177.6270  137.6350 C   0  0  0  0  0  0  0  0  0  0  0  0
  192.0490  176.2620  137.3670 N   0  0  0  0  0  2  0  0  0  0  0  0
  192.3830  174.8720  137.3930 C   0  0  0  0  0  0  0  0  0  0  0  0
  191.4800  173.9920  137.4670 O   0  0  0  0  0  0  0  0  0  0  0  0
  194.6420  174.8960  138.4450 C   0  0  0  0  0  2  0  0  0  0  0  0
  195.5260  173.7160  138.8050 C   0  0  0  0  0  2  0  0  0  0  0  0
  193.9490  172.9660  137.1450 C   0  0  0  0  0  2  0  0  0  0  0  0
  193.8130  174.4690  137.2450 C   0  0  0  0  0  3  0  0  0  0  0  0
  195.3020  172.6610  137.7400 C   0  0  0  0  0  2  0  0  0  0  0  0
  188.9610  177.7680  134.6510 O   0  0  0  0  0  0  0  0  0  0  0  0
  189.6390  177.0220  135.4050 C   0  0  0  0  0  3  0  0  0  0  0  0
  187.0180  178.1650  137.1070 S   0  0  0  0  0  0  0  0  0  0  0  0
  186.3790  176.4630  137.1040 C   0  0  0  0  0  2  0  0  0  0  0  0
  185.1680  176.3650  136.1960 C   0  0  0  0  0  2  0  0  0  0  0  0
  184.0170  175.6920  136.9230 C   0  0  0  0  0  2  0  0  0  0  0  0
  182.7190  175.7410  138.9080 O   0  0  0  0  0  1  0  0  0  0  0  0
  183.6880  176.4530  138.1970 C   0  0  2  0  0  3  0  0  0  0  0  0
  183.1890  177.7220  137.8740 O   0  0  0  0  0  0  0  0  0  0  0  0
  183.0800  178.4170  139.0890 C   0  0  1  0  0  3  0  0  0  0  0  0
  184.4050  179.1190  139.4060 C   0  0  1  0  0  3  0  0  0  0  0  0
  184.3420  180.4690  139.0470 O   0  0  0  0  0  1  0  0  0  0  0  0
  184.0350  178.0360  141.7210 C   0  0  0  0  0  1  0  0  0  0  0  0
  184.7590  179.0100  140.8580 C   0  0  0  0  0  0  0  0  0  0  0  0
  185.6510  179.6960  141.3340 O   0  0  0  0  0  0  0  0  0  0  0  0
  181.9730  179.4630  138.9760 C   0  0  0  0  0  2  0  0  0  0  0  0
  180.9240  179.2490  140.0490 C   0  0  0  0  0  1  0  0  0  0  0  0
  188.4770  177.9780  142.6810 N   0  0  0  0  0  2  0  0  0  0  0  0
  188.0500  177.9360  145.0810 C   0  0  0  0  0  3  0  0  0  0  0  0
  188.9250  177.6950  144.0160 C   0  0  0  0  0  0  0  0  0  0  0  0
  188.4360  177.6700  146.4040 C   0  0  0  0  0  0  0  0  0  0  0  0
  190.5930  176.9010  145.5960 C   0  0  0  0  0  3  0  0  0  0  0  0
  189.7150  177.1520  146.6540 C   0  0  0  0  0  3  0  0  0  0  0  0
  190.1980  177.1690  144.2830 C   0  0  0  0  0  3  0  0  0  0  0  0
  187.8960  177.8070  148.7100 O   0  0  0  0  0  0  0  0  0  0  0  0
  187.5090  177.9350  147.5190 C   0  0  0  0  0  0  0  0  0  0  0  0
  186.1680  178.3420  147.2610 N   0  0  0  0  0  1  0  0  0  0  0  0
  2  4  1  0  0  0  0
  3  1  2  0  0  0  0
  4  6  2  0  0  0  0
  5  2  1  0  0  0  0
  5  3  1  6  0  0  0
  6  1  1  0  0  0  0
  6 35  1  0  0  0  0
  7  5  1  0  0  0  0
  8  9  1  0  0  0  0
  8  7  2  0  0  0  0
  9  2  2  0  0  0  0
 10 11  1  0  0  0  0
 10  7  1  0  0  0  0
 11 12  2  0  0  0  0
 13 14  1  0  0  0  0
 15 16  1  0  0  0  0
 15 17  1  0  0  0  0
 16 11  1  0  0  0  0
 16 13  1  0  0  0  0
 17 14  1  0  0  0  0
 18 19  2  0  0  0  0
 19  8  1  0  0  0  0
 20  9  1  0  0  0  0
 21 20  1  0  0  0  0
 22 23  1  0  0  0  0
 22 21  1  0  0  0  0
 23 25  1  0  0  0  0
 25 24  1  6  0  0  0
 26 25  1  0  0  0  0
 26 27  1  0  0  0  0
 27 33  1  6  0  0  0
 27 28  1  0  0  0  0
 28 29  1  1  0  0  0
 28 31  1  0  0  0  0
 31 32  2  0  0  0  0
 31 30  1  0  0  0  0
 33 34  1  0  0  0  0
 35 37  1  0  0  0  0
 36 38  1  0  0  0  0
 37 41  1  0  0  0  0
 37 36  2  0  0  0  0
 38 40  2  0  0  0  0
 38 43  1  0  0  0  0
 39 40  1  0  0  0  0
 41 39  2  0  0  0  0
 43 42  2  0  0  0  0
 44 43  1  0  0  0  0
M  END
>  <MODEL>
3

>  <REMARK>
 VINA RESULT:      -7.5      1.445      1.726
  Name = 
  16 active torsions:
  status: ('A' for Active; 'I' for Inactive)
    1  A    between atoms: N_4  and  C_36
    2  A    between atoms: C_5  and  C_14
    3  A    between atoms: C_5  and  C_23
    4  A    between atoms: C_6  and  N_7
    5  A    between atoms: N_7  and  C_35
    6  A    between atoms: C_8  and  C_29
    7  A    between atoms: C_9  and  C_38
    8  A    between atoms: C_14  and  C_16
    9  A    between atoms: C_14  and  O_31
   10  A    between atoms: C_15  and  C_22
   11  A    between atoms: C_15  and  C_40
   12  A    between atoms: C_17  and  S_18
   13  A    between atoms: C_17  and  C_22
   14  A    between atoms: S_18  and  C_39
   15  A    between atoms: C_21  and  C_37
   16  A    between atoms: O_31  and  C_40
                            x       y       z     vdW  Elec       q    Type
                         _______ _______ _______ _____ _____    ______ ____

>  <TORSDO>
F 16

$$$$
=
 OpenBabel10222415423D

 44 47  0  0  1  0  0  0  0  0999 V2000
  187.6120  177.6440  136.7350 C   0  0  0  0  0  3  0  0  0  0  0  0
  187.4700  178.2640  139.4820 C   0  0  0  0  0  0  0  0  0  0  0  0
  186.2130  177.9010  137.2660 C   0  0  0  0  0  3  0  0  0  0  0  0
  188.6550  178.0150  138.9370 C   0  0  0  0  0  3  0  0  0  0  0  0
  186.2470  178.2370  138.7250 C   0  0  0  0  0  0  0  0  0  0  0  0
  188.7320  177.6980  137.4880 C   0  0  0  0  0  0  0  0  0  0  0  0
  185.2510  178.5610  139.5360 C   0  0  0  0  0  0  0  0  0  0  0  0
  185.7950  178.7800  140.8970 C   0  0  0  0  0  0  0  0  0  0  0  0
  187.1250  178.6090  140.8500 C   0  0  1  0  0  3  0  0  0  0  0  0
  183.8760  178.5940  139.1300 N   0  0  0  0  0  2  0  0  0  0  0  0
  183.0930  179.7770  138.9580 C   0  0  0  0  0  0  0  0  0  0  0  0
  183.6460  180.9080  138.8540 O   0  0  0  0  0  0  0  0  0  0  0  0
  180.8810  180.3190  139.9700 C   0  0  0  0  0  2  0  0  0  0  0  0
  179.7330  181.1020  139.3590 C   0  0  0  0  0  2  0  0  0  0  0  0
  181.1240  180.3220  137.5540 C   0  0  0  0  0  2  0  0  0  0  0  0
  181.6110  179.6500  138.8180 C   0  0  0  0  0  3  0  0  0  0  0  0
  179.7240  180.7820  137.8770 C   0  0  0  0  0  2  0  0  0  0  0  0
  184.4930  178.1030  142.7860 O   0  0  0  0  0  0  0  0  0  0  0  0
  184.9840  179.0360  142.0990 C   0  0  0  0  0  3  0  0  0  0  0  0
  188.2920  178.7010  142.2090 S   0  0  0  0  0  0  0  0  0  0  0  0
  188.3430  176.8910  142.3810 C   0  0  0  0  0  2  0  0  0  0  0  0
  187.5800  176.4660  143.6210 C   0  0  0  0  0  2  0  0  0  0  0  0
  187.5400  177.5990  144.6310 C   0  0  0  0  0  2  0  0  0  0  0  0
  188.0610  177.9980  146.9100 O   0  0  0  0  0  1  0  0  0  0  0  0
  188.4990  177.3110  145.7750 C   0  0  2  0  0  3  0  0  0  0  0  0
  189.7850  177.7490  145.4340 O   0  0  0  0  0  0  0  0  0  0  0  0
  190.6430  176.6640  145.6810 C   0  0  1  0  0  3  0  0  0  0  0  0
  191.6830  176.5610  144.5610 C   0  0  1  0  0  3  0  0  0  0  0  0
  191.4580  175.4170  143.7870 O   0  0  0  0  0  1  0  0  0  0  0  0
  191.6990  179.1280  144.2810 C   0  0  0  0  0  1  0  0  0  0  0  0
  191.6690  177.7690  143.6740 C   0  0  0  0  0  0  0  0  0  0  0  0
  191.6550  177.6480  142.4580 O   0  0  0  0  0  0  0  0  0  0  0  0
  191.3590  176.8780  147.0130 C   0  0  0  0  0  2  0  0  0  0  0  0
  192.2430  175.6910  147.3400 C   0  0  0  0  0  1  0  0  0  0  0  0
  189.9890  177.4200  136.8510 N   0  0  0  0  0  2  0  0  0  0  0  0
  192.1180  176.3310  137.3270 C   0  0  0  0  0  3  0  0  0  0  0  0
  190.7790  176.2230  136.9350 C   0  0  0  0  0  0  0  0  0  0  0  0
  192.9310  175.1920  137.4320 C   0  0  0  0  0  0  0  0  0  0  0  0
  191.0490  173.8130  136.7580 C   0  0  0  0  0  3  0  0  0  0  0  0
  192.3870  173.9320  137.1430 C   0  0  0  0  0  3  0  0  0  0  0  0
  190.2490  174.9540  136.6570 C   0  0  0  0  0  3  0  0  0  0  0  0
  194.6360  175.7090  138.9990 O   0  0  0  0  0  0  0  0  0  0  0  0
  194.3420  175.3180  137.8390 C   0  0  0  0  0  0  0  0  0  0  0  0
  195.3880  174.9960  136.9260 N   0  0  0  0  0  1  0  0  0  0  0  0
  1  3  2  0  0  0  0
  1  6  1  0  0  0  0
  2  9  1  0  0  0  0
  3  5  1  0  0  0  0
  4  2  1  0  0  0  0
  5  2  2  0  0  0  0
  5  7  1  0  0  0  0
  6  4  2  0  0  0  0
  7  8  2  0  0  0  0
  8 19  1  0  0  0  0
  9  8  1  0  0  0  0
  9 20  1  1  0  0  0
 10  7  1  0  0  0  0
 11 10  1  0  0  0  0
 12 11  2  0  0  0  0
 14 13  1  0  0  0  0
 15 17  1  0  0  0  0
 15 16  1  0  0  0  0
 16 11  1  0  0  0  0
 16 13  1  0  0  0  0
 17 14  1  0  0  0  0
 19 18  2  0  0  0  0
 20 21  1  0  0  0  0
 21 22  1  0  0  0  0
 22 23  1  0  0  0  0
 23 25  1  0  0  0  0
 25 24  1  1  0  0  0
 26 27  1  0  0  0  0
 26 25  1  0  0  0  0
 27 33  1  1  0  0  0
 28 29  1  6  0  0  0
 28 27  1  0  0  0  0
 31 30  1  0  0  0  0
 31 28  1  0  0  0  0
 32 31  2  0  0  0  0
 33 34  1  0  0  0  0
 35 37  1  0  0  0  0
 35  6  1  0  0  0  0
 36 38  1  0  0  0  0
 37 36  2  0  0  0  0
 38 43  1  0  0  0  0
 39 40  1  0  0  0  0
 40 38  2  0  0  0  0
 41 39  2  0  0  0  0
 41 37  1  0  0  0  0
 43 42  2  0  0  0  0
 44 43  1  0  0  0  0
M  END
>  <MODEL>
4

>  <REMARK>
 VINA RESULT:      -7.4      2.845      9.613
  Name = 
  16 active torsions:
  status: ('A' for Active; 'I' for Inactive)
    1  A    between atoms: N_4  and  C_36
    2  A    between atoms: C_5  and  C_14
    3  A    between atoms: C_5  and  C_23
    4  A    between atoms: C_6  and  N_7
    5  A    between atoms: N_7  and  C_35
    6  A    between atoms: C_8  and  C_29
    7  A    between atoms: C_9  and  C_38
    8  A    between atoms: C_14  and  C_16
    9  A    between atoms: C_14  and  O_31
   10  A    between atoms: C_15  and  C_22
   11  A    between atoms: C_15  and  C_40
   12  A    between atoms: C_17  and  S_18
   13  A    between atoms: C_17  and  C_22
   14  A    between atoms: S_18  and  C_39
   15  A    between atoms: C_21  and  C_37
   16  A    between atoms: O_31  and  C_40
                            x       y       z     vdW  Elec       q    Type
                         _______ _______ _______ _____ _____    ______ ____

>  <TORSDO>
F 16

$$$$
=
 OpenBabel10222415423D

 44 47  0  0  1  0  0  0  0  0999 V2000
  189.8600  177.2190  141.4200 C   0  0  0  0  0  3  0  0  0  0  0  0
  188.9280  177.6830  138.8000 C   0  0  0  0  0  0  0  0  0  0  0  0
  190.7430  176.6680  140.3150 C   0  0  0  0  0  3  0  0  0  0  0  0
  188.2120  178.1240  139.8280 C   0  0  0  0  0  3  0  0  0  0  0  0
  190.1710  176.9790  138.9660 C   0  0  2  0  0  3  0  0  0  0  0  0
  188.7060  177.8890  141.2080 C   0  0  0  0  0  0  0  0  0  0  0  0
  190.6570  176.7080  137.7640 C   0  0  0  0  0  0  0  0  0  0  0  0
  189.7050  177.2030  136.7410 C   0  0  0  0  0  0  0  0  0  0  0  0
  188.6800  177.7930  137.3730 C   0  0  0  0  0  0  0  0  0  0  0  0
  191.8690  175.9740  137.5460 N   0  0  0  0  0  2  0  0  0  0  0  0
  191.9790  174.5490  137.5200 C   0  0  0  0  0  0  0  0  0  0  0  0
  190.9530  173.8250  137.3810 O   0  0  0  0  0  0  0  0  0  0  0  0
  193.7400  173.3490  136.2280 C   0  0  0  0  0  2  0  0  0  0  0  0
  195.1820  173.7620  135.9930 C   0  0  0  0  0  2  0  0  0  0  0  0
  194.3900  174.9490  137.9330 C   0  0  0  0  0  2  0  0  0  0  0  0
  193.3360  173.9270  137.5730 C   0  0  0  0  0  3  0  0  0  0  0  0
  195.6460  174.4640  137.2530 C   0  0  0  0  0  2  0  0  0  0  0  0
  189.7180  175.8370  134.7780 O   0  0  0  0  0  0  0  0  0  0  0  0
  189.8340  176.9800  135.2920 C   0  0  0  0  0  3  0  0  0  0  0  0
  187.2140  178.5250  136.6410 S   0  0  0  0  0  0  0  0  0  0  0  0
  186.2750  176.9770  136.7990 C   0  0  0  0  0  2  0  0  0  0  0  0
  184.8710  177.2700  137.2930 C   0  0  0  0  0  2  0  0  0  0  0  0
  184.9020  178.3340  138.3750 C   0  0  0  0  0  2  0  0  0  0  0  0
  183.6370  180.1890  139.1400 O   0  0  0  0  0  1  0  0  0  0  0  0
  183.5140  178.9180  138.5730 C   0  0  2  0  0  3  0  0  0  0  0  0
  182.7740  178.0960  139.4340 O   0  0  0  0  0  0  0  0  0  0  0  0
  182.6860  178.7890  140.6520 C   0  0  1  0  0  3  0  0  0  0  0  0
  181.2340  178.7950  141.1420 C   0  0  1  0  0  3  0  0  0  0  0  0
  181.1440  179.4000  142.3990 O   0  0  0  0  0  1  0  0  0  0  0  0
  179.2990  178.7320  139.4330 C   0  0  0  0  0  1  0  0  0  0  0  0
  180.3260  179.5050  140.1840 C   0  0  0  0  0  0  0  0  0  0  0  0
  180.4070  180.7150  140.0320 O   0  0  0  0  0  0  0  0  0  0  0  0
  183.5630  178.0960  141.6930 C   0  0  0  0  0  2  0  0  0  0  0  0
  184.6180  179.0490  142.2210 C   0  0  0  0  0  1  0  0  0  0  0  0
  187.9690  178.3440  142.3540 N   0  0  0  0  0  2  0  0  0  0  0  0
  189.3960  177.7350  144.2350 C   0  0  0  0  0  3  0  0  0  0  0  0
  188.1090  177.9250  143.7210 C   0  0  0  0  0  0  0  0  0  0  0  0
  189.5870  177.3330  145.5650 C   0  0  0  0  0  0  0  0  0  0  0  0
  187.1800  177.3200  145.8850 C   0  0  0  0  0  3  0  0  0  0  0  0
  188.4700  177.1250  146.3870 C   0  0  0  0  0  3  0  0  0  0  0  0
  187.0020  177.7210  144.5580 C   0  0  0  0  0  3  0  0  0  0  0  0
  191.9520  177.4770  145.4180 O   0  0  0  0  0  0  0  0  0  0  0  0
  190.9480  177.1290  146.0940 C   0  0  0  0  0  0  0  0  0  0  0  0
  191.1430  176.5400  147.3780 N   0  0  0  0  0  1  0  0  0  0  0  0
  2  5  1  0  0  0  0
  2  4  1  0  0  0  0
  3  1  2  0  0  0  0
  4  6  2  0  0  0  0
  5  3  1  1  0  0  0
  6  1  1  0  0  0  0
  6 35  1  0  0  0  0
  7  5  1  0  0  0  0
  8  9  1  0  0  0  0
  8  7  2  0  0  0  0
  9  2  2  0  0  0  0
 10  7  1  0  0  0  0
 11 10  1  0  0  0  0
 11 16  1  0  0  0  0
 12 11  2  0  0  0  0
 13 16  1  0  0  0  0
 14 13  1  0  0  0  0
 14 17  1  0  0  0  0
 16 15  1  0  0  0  0
 17 15  1  0  0  0  0
 18 19  2  0  0  0  0
 19  8  1  0  0  0  0
 20 21  1  0  0  0  0
 20  9  1  0  0  0  0
 21 22  1  0  0  0  0
 22 23  1  0  0  0  0
 23 25  1  0  0  0  0
 25 24  1  1  0  0  0
 25 26  1  0  0  0  0
 26 27  1  0  0  0  0
 27 28  1  0  0  0  0
 27 33  1  1  0  0  0
 28 29  1  1  0  0  0
 30 31  1  0  0  0  0
 31 28  1  0  0  0  0
 32 31  2  0  0  0  0
 33 34  1  0  0  0  0
 35 37  1  0  0  0  0
 36 38  1  0  0  0  0
 37 36  2  0  0  0  0
 37 41  1  0  0  0  0
 38 43  1  0  0  0  0
 38 40  2  0  0  0  0
 39 40  1  0  0  0  0
 41 39  2  0  0  0  0
 42 43  2  0  0  0  0
 43 44  1  0  0  0  0
M  END
>  <MODEL>
5

>  <REMARK>
 VINA RESULT:      -7.3      1.444      2.337
  Name = 
  16 active torsions:
  status: ('A' for Active; 'I' for Inactive)
    1  A    between atoms: N_4  and  C_36
    2  A    between atoms: C_5  and  C_14
    3  A    between atoms: C_5  and  C_23
    4  A    between atoms: C_6  and  N_7
    5  A    between atoms: N_7  and  C_35
    6  A    between atoms: C_8  and  C_29
    7  A    between atoms: C_9  and  C_38
    8  A    between atoms: C_14  and  C_16
    9  A    between atoms: C_14  and  O_31
   10  A    between atoms: C_15  and  C_22
   11  A    between atoms: C_15  and  C_40
   12  A    between atoms: C_17  and  S_18
   13  A    between atoms: C_17  and  C_22
   14  A    between atoms: S_18  and  C_39
   15  A    between atoms: C_21  and  C_37
   16  A    between atoms: O_31  and  C_40
                            x       y       z     vdW  Elec       q    Type
                         _______ _______ _______ _____ _____    ______ ____

>  <TORSDO>
F 16

$$$$
=
 OpenBabel10222415423D

 44 47  0  0  1  0  0  0  0  0999 V2000
  183.4310  177.3960  139.2860 C   0  0  0  0  0  3  0  0  0  0  0  0
  185.8420  177.4620  137.8270 C   0  0  0  0  0  0  0  0  0  0  0  0
  183.5780  176.3090  138.2360 C   0  0  0  0  0  3  0  0  0  0  0  0
  185.6260  178.3820  138.7600 C   0  0  0  0  0  3  0  0  0  0  0  0
  184.8950  176.4210  137.5310 C   0  0  2  0  0  3  0  0  0  0  0  0
  184.3610  178.3430  139.5360 C   0  0  0  0  0  0  0  0  0  0  0  0
  185.4120  175.6460  136.5890 C   0  0  0  0  0  0  0  0  0  0  0  0
  186.7350  176.1890  136.1970 C   0  0  0  0  0  0  0  0  0  0  0  0
  186.9850  177.2690  136.9520 C   0  0  0  0  0  0  0  0  0  0  0  0
  184.7230  174.5280  136.0150 N   0  0  0  0  0  2  0  0  0  0  0  0
  184.6920  173.2070  136.5610 C   0  0  0  0  0  0  0  0  0  0  0  0
  185.0200  172.9970  137.7620 O   0  0  0  0  0  0  0  0  0  0  0  0
  185.3240  171.2820  135.1100 C   0  0  0  0  0  2  0  0  0  0  0  0
  184.9570  169.8180  135.2750 C   0  0  0  0  0  2  0  0  0  0  0  0
  183.3620  171.1150  136.5310 C   0  0  0  0  0  2  0  0  0  0  0  0
  184.1850  172.0860  135.7140 C   0  0  0  0  0  3  0  0  0  0  0  0
  183.5570  169.7800  135.8540 C   0  0  0  0  0  2  0  0  0  0  0  0
  188.4340  174.7840  135.2710 O   0  0  0  0  0  0  0  0  0  0  0  0
  187.5640  175.6750  135.0940 C   0  0  0  0  0  3  0  0  0  0  0  0
  188.4130  178.3530  136.8770 S   0  0  0  0  0  0  0  0  0  0  0  0
  189.4110  177.2250  137.8950 C   0  0  0  0  0  2  0  0  0  0  0  0
  189.7370  177.8770  139.2260 C   0  0  0  0  0  2  0  0  0  0  0  0
  190.1770  176.8300  140.2330 C   0  0  0  0  0  2  0  0  0  0  0  0
  188.9670  178.2720  141.6760 O   0  0  0  0  0  1  0  0  0  0  0  0
  189.3400  176.9380  141.4970 C   0  0  2  0  0  3  0  0  0  0  0  0
  190.0940  176.5150  142.6000 O   0  0  0  0  0  0  0  0  0  0  0  0
  189.8270  177.4350  143.6280 C   0  0  1  0  0  3  0  0  0  0  0  0
  189.0170  176.7540  144.7360 C   0  0  1  0  0  3  0  0  0  0  0  0
  189.6260  176.9520  145.9800 O   0  0  0  0  0  1  0  0  0  0  0  0
  187.1170  177.9450  146.0150 C   0  0  0  0  0  1  0  0  0  0  0  0
  187.6080  177.2600  144.7880 C   0  0  0  0  0  0  0  0  0  0  0  0
  186.8670  177.1360  143.8250 O   0  0  0  0  0  0  0  0  0  0  0  0
  191.1460  177.9400  144.2090 C   0  0  0  0  0  2  0  0  0  0  0  0
  191.2990  179.4290  143.9690 C   0  0  0  0  0  1  0  0  0  0  0  0
  184.0780  179.3160  140.5530 N   0  0  0  0  0  2  0  0  0  0  0  0
  182.1270  178.8410  141.9370 C   0  0  0  0  0  3  0  0  0  0  0  0
  183.5000  179.0980  141.8510 C   0  0  0  0  0  0  0  0  0  0  0  0
  181.5150  178.6140  143.1790 C   0  0  0  0  0  0  0  0  0  0  0  0
  183.6670  178.8920  144.2670 C   0  0  0  0  0  3  0  0  0  0  0  0
  182.2940  178.6440  144.3440 C   0  0  0  0  0  3  0  0  0  0  0  0
  184.2670  179.1160  143.0250 C   0  0  0  0  0  3  0  0  0  0  0  0
  179.4770  177.7490  142.3230 O   0  0  0  0  0  0  0  0  0  0  0  0
  180.0660  178.3510  143.2590 C   0  0  0  0  0  0  0  0  0  0  0  0
  179.3190  178.7710  144.3970 N   0  0  0  0  0  1  0  0  0  0  0  0
  1  6  1  0  0  0  0
  2  4  1  0  0  0  0
  3  1  2  0  0  0  0
  4  6  2  0  0  0  0
  5  2  1  0  0  0  0
  5  3  1  1  0  0  0
  6 35  1  0  0  0  0
  7  5  1  0  0  0  0
  8  7  2  0  0  0  0
  8  9  1  0  0  0  0
  9  2  2  0  0  0  0
 10 11  1  0  0  0  0
 10  7  1  0  0  0  0
 11 12  2  0  0  0  0
 13 14  1  0  0  0  0
 13 16  1  0  0  0  0
 14 17  1  0  0  0  0
 16 15  1  0  0  0  0
 16 11  1  0  0  0  0
 17 15  1  0  0  0  0
 19 18  2  0  0  0  0
 19  8  1  0  0  0  0
 20  9  1  0  0  0  0
 20 21  1  0  0  0  0
 21 22  1  0  0  0  0
 22 23  1  0  0  0  0
 23 25  1  0  0  0  0
 25 24  1  1  0  0  0
 25 26  1  0  0  0  0
 26 27  1  0  0  0  0
 27 33  1  1  0  0  0
 27 28  1  0  0  0  0
 28 31  1  0  0  0  0
 28 29  1  1  0  0  0
 31 30  1  0  0  0  0
 32 31  2  0  0  0  0
 34 33  1  0  0  0  0
 35 37  1  0  0  0  0
 36 38  1  0  0  0  0
 37 36  2  0  0  0  0
 37 41  1  0  0  0  0
 38 43  1  0  0  0  0
 38 40  2  0  0  0  0
 39 40  1  0  0  0  0
 41 39  2  0  0  0  0
 42 43  2  0  0  0  0
 43 44  1  0  0  0  0
M  END
>  <MODEL>
6

>  <REMARK>
 VINA RESULT:      -7.2      3.668      7.723
  Name = 
  16 active torsions:
  status: ('A' for Active; 'I' for Inactive)
    1  A    between atoms: N_4  and  C_36
    2  A    between atoms: C_5  and  C_14
    3  A    between atoms: C_5  and  C_23
    4  A    between atoms: C_6  and  N_7
    5  A    between atoms: N_7  and  C_35
    6  A    between atoms: C_8  and  C_29
    7  A    between atoms: C_9  and  C_38
    8  A    between atoms: C_14  and  C_16
    9  A    between atoms: C_14  and  O_31
   10  A    between atoms: C_15  and  C_22
   11  A    between atoms: C_15  and  C_40
   12  A    between atoms: C_17  and  S_18
   13  A    between atoms: C_17  and  C_22
   14  A    between atoms: S_18  and  C_39
   15  A    between atoms: C_21  and  C_37
   16  A    between atoms: O_31  and  C_40
                            x       y       z     vdW  Elec       q    Type
                         _______ _______ _______ _____ _____    ______ ____

>  <TORSDO>
F 16

$$$$
=
 OpenBabel10222415423D

 44 47  0  0  1  0  0  0  0  0999 V2000
  189.9700  177.0300  141.5680 C   0  0  0  0  0  3  0  0  0  0  0  0
  189.2350  177.3850  138.8700 C   0  0  0  0  0  0  0  0  0  0  0  0
  190.8540  176.3160  140.5600 C   0  0  0  0  0  3  0  0  0  0  0  0
  188.5110  177.9670  139.8180 C   0  0  0  0  0  3  0  0  0  0  0  0
  190.3910  176.5800  139.1600 C   0  0  2  0  0  3  0  0  0  0  0  0
  188.9030  177.7880  141.2400 C   0  0  0  0  0  0  0  0  0  0  0  0
  190.9140  176.1760  138.0120 C   0  0  0  0  0  0  0  0  0  0  0  0
  190.0730  176.6830  136.9000 C   0  0  0  0  0  0  0  0  0  0  0  0
  189.0780  177.4130  137.4260 C   0  0  0  0  0  0  0  0  0  0  0  0
  192.0570  175.3160  137.9200 N   0  0  0  0  0  2  0  0  0  0  0  0
  193.3810  175.7340  137.5790 C   0  0  0  0  0  0  0  0  0  0  0  0
  193.7070  176.9530  137.6340 O   0  0  0  0  0  0  0  0  0  0  0  0
  195.3630  175.1900  136.1710 C   0  0  0  0  0  2  0  0  0  0  0  0
  196.7550  174.7850  136.6210 C   0  0  0  0  0  2  0  0  0  0  0  0
  195.2440  174.3460  138.4440 C   0  0  0  0  0  2  0  0  0  0  0  0
  194.4010  174.6980  137.2390 C   0  0  0  0  0  3  0  0  0  0  0  0
  196.5850  173.9520  137.8760 C   0  0  0  0  0  2  0  0  0  0  0  0
  189.4020  175.6880  134.8320 O   0  0  0  0  0  0  0  0  0  0  0  0
  190.2600  176.3430  135.4800 C   0  0  0  0  0  3  0  0  0  0  0  0
  187.7360  178.2260  136.5560 S   0  0  0  0  0  0  0  0  0  0  0  0
  186.6770  176.7520  136.6680 C   0  0  0  0  0  2  0  0  0  0  0  0
  185.4150  177.0780  137.4450 C   0  0  0  0  0  2  0  0  0  0  0  0
  185.5530  178.4220  138.1370 C   0  0  0  0  0  2  0  0  0  0  0  0
  184.3380  180.2060  139.1200 O   0  0  0  0  0  1  0  0  0  0  0  0
  184.1820  178.9540  138.5210 C   0  0  2  0  0  3  0  0  0  0  0  0
  183.5740  178.0770  139.4290 O   0  0  0  0  0  0  0  0  0  0  0  0
  182.6360  178.8440  140.1400 C   0  0  1  0  0  3  0  0  0  0  0  0
  181.2190  178.4960  139.6710 C   0  0  1  0  0  3  0  0  0  0  0  0
  180.7280  179.4890  138.8170 O   0  0  0  0  0  1  0  0  0  0  0  0
  181.0410  175.9220  139.7640 C   0  0  0  0  0  1  0  0  0  0  0  0
  181.1750  177.1730  138.9690 C   0  0  0  0  0  0  0  0  0  0  0  0
  181.2250  177.1140  137.7490 O   0  0  0  0  0  0  0  0  0  0  0  0
  182.7590  178.5390  141.6320 C   0  0  0  0  0  2  0  0  0  0  0  0
  184.1980  178.2270  141.9950 C   0  0  0  0  0  1  0  0  0  0  0  0
  188.1520  178.3950  142.3030 N   0  0  0  0  0  2  0  0  0  0  0  0
  189.2700  177.7880  144.3840 C   0  0  0  0  0  3  0  0  0  0  0  0
  188.0770  177.9870  143.6790 C   0  0  0  0  0  0  0  0  0  0  0  0
  189.2520  177.3970  145.7310 C   0  0  0  0  0  0  0  0  0  0  0  0
  186.8250  177.4150  145.6820 C   0  0  0  0  0  3  0  0  0  0  0  0
  188.0210  177.2100  146.3750 C   0  0  0  0  0  3  0  0  0  0  0  0
  186.8540  177.8040  144.3410 C   0  0  0  0  0  3  0  0  0  0  0  0
  190.5060  177.0110  147.7090 O   0  0  0  0  0  0  0  0  0  0  0  0
  190.5150  177.1830  146.4620 C   0  0  0  0  0  0  0  0  0  0  0  0
  191.7580  177.1630  145.7650 N   0  0  0  0  0  1  0  0  0  0  0  0
  2  5  1  0  0  0  0
  2  4  1  0  0  0  0
  3  1  2  0  0  0  0
  4  6  2  0  0  0  0
  5  3  1  6  0  0  0
  6  1  1  0  0  0  0
  6 35  1  0  0  0  0
  7  5  1  0  0  0  0
  8  9  1  0  0  0  0
  8  7  2  0  0  0  0
  9  2  2  0  0  0  0
 10  7  1  0  0  0  0
 11 12  2  0  0  0  0
 11 10  1  0  0  0  0
 13 14  1  0  0  0  0
 13 16  1  0  0  0  0
 14 17  1  0  0  0  0
 16 11  1  0  0  0  0
 16 15  1  0  0  0  0
 17 15  1  0  0  0  0
 18 19  2  0  0  0  0
 19  8  1  0  0  0  0
 20 21  1  0  0  0  0
 20  9  1  0  0  0  0
 21 22  1  0  0  0  0
 22 23  1  0  0  0  0
 23 25  1  0  0  0  0
 25 24  1  1  0  0  0
 25 26  1  0  0  0  0
 26 27  1  0  0  0  0
 27 33  1  1  0  0  0
 28 29  1  6  0  0  0
 28 27  1  0  0  0  0
 31 28  1  0  0  0  0
 31 30  1  0  0  0  0
 32 31  2  0  0  0  0
 33 34  1  0  0  0  0
 35 37  1  0  0  0  0
 36 38  1  0  0  0  0
 37 41  1  0  0  0  0
 37 36  2  0  0  0  0
 38 40  2  0  0  0  0
 38 43  1  0  0  0  0
 39 40  1  0  0  0  0
 41 39  2  0  0  0  0
 43 42  2  0  0  0  0
 44 43  1  0  0  0  0
M  END
>  <MODEL>
7

>  <REMARK>
 VINA RESULT:      -7.2      1.300      2.199
  Name = 
  16 active torsions:
  status: ('A' for Active; 'I' for Inactive)
    1  A    between atoms: N_4  and  C_36
    2  A    between atoms: C_5  and  C_14
    3  A    between atoms: C_5  and  C_23
    4  A    between atoms: C_6  and  N_7
    5  A    between atoms: N_7  and  C_35
    6  A    between atoms: C_8  and  C_29
    7  A    between atoms: C_9  and  C_38
    8  A    between atoms: C_14  and  C_16
    9  A    between atoms: C_14  and  O_31
   10  A    between atoms: C_15  and  C_22
   11  A    between atoms: C_15  and  C_40
   12  A    between atoms: C_17  and  S_18
   13  A    between atoms: C_17  and  C_22
   14  A    between atoms: S_18  and  C_39
   15  A    between atoms: C_21  and  C_37
   16  A    between atoms: O_31  and  C_40
                            x       y       z     vdW  Elec       q    Type
                         _______ _______ _______ _____ _____    ______ ____

>  <TORSDO>
F 16

$$$$
=
 OpenBabel10222415423D

 44 47  0  0  1  0  0  0  0  0999 V2000
  191.7420  177.4950  141.7900 C   0  0  0  0  0  3  0  0  0  0  0  0
  189.0780  178.0560  141.0580 C   0  0  0  0  0  0  0  0  0  0  0  0
  191.3940  177.1910  140.3440 C   0  0  0  0  0  3  0  0  0  0  0  0
  189.4660  178.2850  142.3070 C   0  0  0  0  0  3  0  0  0  0  0  0
  189.9660  177.5380  140.0520 C   0  0  0  0  0  0  0  0  0  0  0  0
  190.8720  177.9980  142.6920 C   0  0  0  0  0  0  0  0  0  0  0  0
  189.2990  177.4580  138.9110 C   0  0  0  0  0  0  0  0  0  0  0  0
  187.9010  177.8970  139.1440 C   0  0  0  0  0  0  0  0  0  0  0  0
  187.7850  178.2620  140.4290 C   0  0  1  0  0  3  0  0  0  0  0  0
  189.8600  176.9410  137.6980 N   0  0  0  0  0  2  0  0  0  0  0  0
  189.9680  175.5560  137.3610 C   0  0  0  0  0  0  0  0  0  0  0  0
  189.2900  174.6870  137.9800 O   0  0  0  0  0  0  0  0  0  0  0  0
  192.3060  175.2450  136.5570 C   0  0  0  0  0  2  0  0  0  0  0  0
  192.9560  173.9840  136.0170 C   0  0  0  0  0  2  0  0  0  0  0  0
  190.5710  173.7210  135.8070 C   0  0  0  0  0  2  0  0  0  0  0  0
  190.8290  175.1560  136.2090 C   0  0  0  0  0  3  0  0  0  0  0  0
  191.8860  173.2340  135.2500 C   0  0  0  0  0  2  0  0  0  0  0  0
  186.9760  177.2780  137.0270 O   0  0  0  0  0  0  0  0  0  0  0  0
  186.8210  177.8340  138.1460 C   0  0  0  0  0  3  0  0  0  0  0  0
  186.3100  178.8280  141.2800 S   0  0  0  0  0  0  0  0  0  0  0  0
  186.6130  177.7220  142.6900 C   0  0  0  0  0  2  0  0  0  0  0  0
  185.5850  177.9730  143.7770 C   0  0  0  0  0  2  0  0  0  0  0  0
  184.9840  179.3590  143.6250 C   0  0  0  0  0  2  0  0  0  0  0  0
  183.4460  179.0020  145.3950 O   0  0  0  0  0  1  0  0  0  0  0  0
  183.5230  179.3420  144.0420 C   0  0  2  0  0  3  0  0  0  0  0  0
  182.8260  178.3910  143.2850 O   0  0  0  0  0  0  0  0  0  0  0  0
  182.2070  179.1020  142.2430 C   0  0  1  0  0  3  0  0  0  0  0  0
  182.1880  178.2470  140.9720 C   0  0  1  0  0  3  0  0  0  0  0  0
  181.0840  177.3880  140.9760 O   0  0  0  0  0  1  0  0  0  0  0  0
  183.4000  179.7540  139.2610 C   0  0  0  0  0  1  0  0  0  0  0  0
  182.1540  179.0910  139.7340 C   0  0  0  0  0  0  0  0  0  0  0  0
  181.1180  179.2210  139.0990 O   0  0  0  0  0  0  0  0  0  0  0  0
  180.7710  179.4370  142.6440 C   0  0  0  0  0  2  0  0  0  0  0  0
  180.3360  178.5930  143.8260 C   0  0  0  0  0  1  0  0  0  0  0  0
  191.3410  178.2260  144.0300 N   0  0  0  0  0  2  0  0  0  0  0  0
  189.7180  177.9560  145.8300 C   0  0  0  0  0  3  0  0  0  0  0  0
  190.9250  177.5690  145.2390 C   0  0  0  0  0  0  0  0  0  0  0  0
  189.2630  177.3410  147.0060 C   0  0  0  0  0  0  0  0  0  0  0  0
  191.2350  175.9240  147.0010 C   0  0  0  0  0  3  0  0  0  0  0  0
  190.0310  176.3230  147.5890 C   0  0  0  0  0  3  0  0  0  0  0  0
  191.6780  176.5430  145.8300 C   0  0  0  0  0  3  0  0  0  0  0  0
  187.8430  177.7010  148.8730 O   0  0  0  0  0  0  0  0  0  0  0  0
  187.9930  177.7620  147.6240 C   0  0  0  0  0  0  0  0  0  0  0  0
  186.9230  178.2450  146.8170 N   0  0  0  0  0  1  0  0  0  0  0  0
  1  6  1  0  0  0  0
  2  4  1  0  0  0  0
  3  1  2  0  0  0  0
  4  6  2  0  0  0  0
  5  3  1  0  0  0  0
  5  2  2  0  0  0  0
  6 35  1  0  0  0  0
  7  8  2  0  0  0  0
  7  5  1  0  0  0  0
  8  9  1  0  0  0  0
  9  2  1  0  0  0  0
  9 20  1  1  0  0  0
 10  7  1  0  0  0  0
 11 10  1  0  0  0  0
 11 12  2  0  0  0  0
 14 13  1  0  0  0  0
 15 16  1  0  0  0  0
 16 13  1  0  0  0  0
 16 11  1  0  0  0  0
 17 15  1  0  0  0  0
 17 14  1  0  0  0  0
 18 19  2  0  0  0  0
 19  8  1  0  0  0  0
 20 21  1  0  0  0  0
 21 22  1  0  0  0  0
 23 22  1  0  0  0  0
 23 25  1  0  0  0  0
 25 24  1  1  0  0  0
 26 25  1  0  0  0  0
 27 33  1  1  0  0  0
 27 26  1  0  0  0  0
 28 29  1  1  0  0  0
 28 27  1  0  0  0  0
 30 31  1  0  0  0  0
 31 28  1  0  0  0  0
 32 31  2  0  0  0  0
 33 34  1  0  0  0  0
 35 37  1  0  0  0  0
 36 38  1  0  0  0  0
 37 36  2  0  0  0  0
 37 41  1  0  0  0  0
 38 40  2  0  0  0  0
 38 43  1  0  0  0  0
 39 40  1  0  0  0  0
 41 39  2  0  0  0  0
 43 42  2  0  0  0  0
 44 43  1  0  0  0  0
M  END
>  <MODEL>
8

>  <REMARK>
 VINA RESULT:      -7.1      2.507      4.072
  Name = 
  16 active torsions:
  status: ('A' for Active; 'I' for Inactive)
    1  A    between atoms: N_4  and  C_36
    2  A    between atoms: C_5  and  C_14
    3  A    between atoms: C_5  and  C_23
    4  A    between atoms: C_6  and  N_7
    5  A    between atoms: N_7  and  C_35
    6  A    between atoms: C_8  and  C_29
    7  A    between atoms: C_9  and  C_38
    8  A    between atoms: C_14  and  C_16
    9  A    between atoms: C_14  and  O_31
   10  A    between atoms: C_15  and  C_22
   11  A    between atoms: C_15  and  C_40
   12  A    between atoms: C_17  and  S_18
   13  A    between atoms: C_17  and  C_22
   14  A    between atoms: S_18  and  C_39
   15  A    between atoms: C_21  and  C_37
   16  A    between atoms: O_31  and  C_40
                            x       y       z     vdW  Elec       q    Type
                         _______ _______ _______ _____ _____    ______ ____

>  <TORSDO>
F 16

$$$$
=
 OpenBabel10222415423D

 44 47  0  0  1  0  0  0  0  0999 V2000
  186.6390  178.2520  139.2260 C   0  0  0  0  0  3  0  0  0  0  0  0
  185.3290  178.7090  141.6800 C   0  0  0  0  0  0  0  0  0  0  0  0
  185.1230  178.2890  139.1500 C   0  0  0  0  0  3  0  0  0  0  0  0
  186.6550  178.6520  141.6570 C   0  0  0  0  0  3  0  0  0  0  0  0
  184.5250  178.5520  140.4980 C   0  0  0  0  0  0  0  0  0  0  0  0
  187.3470  178.4210  140.3640 C   0  0  0  0  0  0  0  0  0  0  0  0
  183.2530  178.6970  140.8390 C   0  0  0  0  0  0  0  0  0  0  0  0
  183.1740  178.9200  142.3030 C   0  0  0  0  0  0  0  0  0  0  0  0
  184.4220  178.9350  142.7930 C   0  0  1  0  0  3  0  0  0  0  0  0
  182.1640  178.5610  139.9160 N   0  0  0  0  0  2  0  0  0  0  0  0
  181.7090  177.3300  139.3500 C   0  0  0  0  0  0  0  0  0  0  0  0
  182.0390  176.2230  139.8610 O   0  0  0  0  0  0  0  0  0  0  0  0
  181.0510  178.5530  137.2800 C   0  0  0  0  0  2  0  0  0  0  0  0
  180.9850  178.0290  135.8570 C   0  0  0  0  0  2  0  0  0  0  0  0
  180.8960  176.1310  137.3380 C   0  0  0  0  0  2  0  0  0  0  0  0
  180.7660  177.3720  138.1930 C   0  0  0  0  0  3  0  0  0  0  0  0
  180.5370  176.5830  135.9440 C   0  0  0  0  0  2  0  0  0  0  0  0
  181.0530  179.8820  142.8480 O   0  0  0  0  0  0  0  0  0  0  0  0
  181.9240  179.0020  143.0760 C   0  0  0  0  0  3  0  0  0  0  0  0
  184.9270  179.1170  144.5050 S   0  0  0  0  0  0  0  0  0  0  0  0
  186.1910  177.8200  144.3440 C   0  0  0  0  0  2  0  0  0  0  0  0
  186.4300  177.1590  145.6890 C   0  0  0  0  0  2  0  0  0  0  0  0
  187.1830  178.0990  146.6130 C   0  0  0  0  0  2  0  0  0  0  0  0
  188.2660  177.4860  148.6320 O   0  0  0  0  0  1  0  0  0  0  0  0
  188.3630  177.3770  147.2420 C   0  0  2  0  0  3  0  0  0  0  0  0
  189.5600  177.9650  146.8130 O   0  0  0  0  0  0  0  0  0  0  0  0
  190.0800  177.1110  145.8260 C   0  0  1  0  0  3  0  0  0  0  0  0
  189.9970  177.7900  144.4560 C   0  0  1  0  0  3  0  0  0  0  0  0
  190.9370  178.8220  144.3630 O   0  0  0  0  0  1  0  0  0  0  0  0
  189.0790  175.9980  142.8390 C   0  0  0  0  0  1  0  0  0  0  0  0
  190.2180  176.8180  143.3370 C   0  0  0  0  0  0  0  0  0  0  0  0
  191.3180  176.7080  142.8170 O   0  0  0  0  0  0  0  0  0  0  0  0
  191.5410  176.8010  146.1450 C   0  0  0  0  0  2  0  0  0  0  0  0
  191.6700  176.2060  147.5340 C   0  0  0  0  0  1  0  0  0  0  0  0
  188.7790  178.3500  140.2850 N   0  0  0  0  0  2  0  0  0  0  0  0
  190.9380  177.4780  139.5600 C   0  0  0  0  0  3  0  0  0  0  0  0
  189.5800  177.6860  139.2940 C   0  0  0  0  0  0  0  0  0  0  0  0
  191.7620  176.8290  138.6290 C   0  0  0  0  0  0  0  0  0  0  0  0
  189.8550  176.5770  137.1490 C   0  0  0  0  0  3  0  0  0  0  0  0
  191.2110  176.3810  137.4200 C   0  0  0  0  0  3  0  0  0  0  0  0
  189.0430  177.2240  138.0830 C   0  0  0  0  0  3  0  0  0  0  0  0
  193.7640  177.2910  139.8180 O   0  0  0  0  0  0  0  0  0  0  0  0
  193.1930  176.6220  138.9170 C   0  0  0  0  0  0  0  0  0  0  0  0
  193.9450  175.6590  138.1830 N   0  0  0  0  0  1  0  0  0  0  0  0
  1  6  1  0  0  0  0
  2  9  1  0  0  0  0
  3  1  2  0  0  0  0
  3  5  1  0  0  0  0
  4  2  1  0  0  0  0
  5  7  1  0  0  0  0
  5  2  2  0  0  0  0
  6  4  2  0  0  0  0
  7  8  2  0  0  0  0
  8  9  1  0  0  0  0
  8 19  1  0  0  0  0
  9 20  1  1  0  0  0
 10  7  1  0  0  0  0
 11 12  2  0  0  0  0
 11 10  1  0  0  0  0
 13 16  1  0  0  0  0
 14 17  1  0  0  0  0
 14 13  1  0  0  0  0
 15 16  1  0  0  0  0
 16 11  1  0  0  0  0
 17 15  1  0  0  0  0
 18 19  2  0  0  0  0
 21 20  1  0  0  0  0
 21 22  1  0  0  0  0
 22 23  1  0  0  0  0
 23 25  1  0  0  0  0
 25 24  1  1  0  0  0
 26 25  1  0  0  0  0
 27 33  1  1  0  0  0
 27 26  1  0  0  0  0
 28 29  1  1  0  0  0
 28 27  1  0  0  0  0
 30 31  1  0  0  0  0
 31 28  1  0  0  0  0
 32 31  2  0  0  0  0
 33 34  1  0  0  0  0
 35  6  1  0  0  0  0
 37 36  1  0  0  0  0
 37 35  1  0  0  0  0
 38 43  1  0  0  0  0
 38 36  2  0  0  0  0
 39 40  2  0  0  0  0
 39 41  1  0  0  0  0
 40 38  1  0  0  0  0
 41 37  2  0  0  0  0
 43 42  2  0  0  0  0
 44 43  1  0  0  0  0
M  END
>  <MODEL>
9

>  <REMARK>
 VINA RESULT:      -7.1      2.983      9.477
  Name = 
  16 active torsions:
  status: ('A' for Active; 'I' for Inactive)
    1  A    between atoms: N_4  and  C_36
    2  A    between atoms: C_5  and  C_14
    3  A    between atoms: C_5  and  C_23
    4  A    between atoms: C_6  and  N_7
    5  A    between atoms: N_7  and  C_35
    6  A    between atoms: C_8  and  C_29
    7  A    between atoms: C_9  and  C_38
    8  A    between atoms: C_14  and  C_16
    9  A    between atoms: C_14  and  O_31
   10  A    between atoms: C_15  and  C_22
   11  A    between atoms: C_15  and  C_40
   12  A    between atoms: C_17  and  S_18
   13  A    between atoms: C_17  and  C_22
   14  A    between atoms: S_18  and  C_39
   15  A    between atoms: C_21  and  C_37
   16  A    between atoms: O_31  and  C_40
                            x       y       z     vdW  Elec       q    Type
                         _______ _______ _______ _____ _____    ______ ____

>  <TORSDO>
F 16

$$$$
