=
 OpenBabel10222417113D

 51 54  0  0  1  0  0  0  0  0999 V2000
  189.9840  177.1170  141.1050 C   0  0  0  0  0  0  0  0  0  0  0  0
  189.0740  177.4930  138.8250 C   0  0  0  0  0  0  0  0  0  0  0  0
  188.5610  177.6870  140.4200 S   0  0  0  0  0  0  0  0  0  0  0  0
  190.8870  176.7600  140.1160 C   0  0  0  0  0  3  0  0  0  0  0  0
  190.1960  176.9940  142.3850 C   0  0  0  0  0  0  0  0  0  0  0  0
  190.3710  176.9800  138.8290 C   0  0  0  0  0  0  0  0  0  0  0  0
  190.4020  176.8690  143.6670 C   0  0  0  0  0  3  0  0  0  0  0  0
  188.3630  177.7780  137.7330 C   0  0  0  0  0  3  0  0  0  0  0  0
  189.8900  177.8940  144.6200 C   0  0  2  0  0  3  0  0  0  0  0  0
  190.8840  178.2330  145.5190 F   0  0  0  0  0  0  0  0  0  0  0  0
  188.6980  177.3470  145.3790 C   0  0  0  0  0  2  0  0  0  0  0  0
  189.1160  176.7980  146.6020 O   0  0  0  0  0  0  0  0  0  0  0  0
  189.2130  178.3250  148.4820 C   0  0  0  0  0  1  0  0  0  0  0  0
  187.3350  178.1100  147.0850 F   0  0  0  0  0  0  0  0  0  0  0  0
  188.3620  177.3750  147.6470 C   0  0  0  0  0  0  0  0  0  0  0  0
  187.7960  176.4040  148.4630 F   0  0  0  0  0  0  0  0  0  0  0  0
  186.9780  178.3270  137.7970 C   0  0  0  0  0  2  0  0  0  0  0  0
  184.9990  176.9500  137.2590 C   0  0  1  0  0  3  0  0  0  0  0  0
  186.2260  176.2420  136.7130 C   0  0  0  0  0  2  0  0  0  0  0  0
  186.1480  177.7510  136.6690 C   0  0  2  0  0  3  0  0  0  0  0  0
  183.8680  176.8360  136.2790 C   0  0  0  0  0  0  0  0  0  0  0  0
  182.5270  177.1440  136.6630 N   0  0  0  0  0  2  0  0  0  0  0  0
  184.1030  176.5110  135.0830 O   0  0  0  0  0  0  0  0  0  0  0  0
  182.1700  177.5570  138.0130 C   0  0  0  0  0  2  0  0  0  0  0  0
  182.3960  179.0490  138.1850 C   0  0  0  0  0  2  0  0  0  0  0  0
  184.2860  178.0350  141.0370 C   0  0  2  0  0  3  0  0  0  0  0  0
  184.9200  179.3510  140.6300 C   0  0  0  0  0  2  0  0  0  0  0  0
  184.2990  179.7880  139.4520 O   0  0  0  0  0  0  0  0  0  0  0  0
  182.9620  179.3700  139.5600 C   0  0  2  0  0  3  0  0  0  0  0  0
  182.9120  178.1290  140.4230 C   0  0  0  0  0  2  0  0  0  0  0  0
  185.4450  178.7390  144.3800 C   0  0  0  0  0  2  0  0  0  0  0  0
  183.4940  179.0790  143.0180 C   0  0  0  0  0  2  0  0  0  0  0  0
  184.2060  177.9150  142.4970 N   0  0  0  0  0  0  0  0  0  0  0  0
  185.5530  178.0400  143.0450 C   0  0  0  0  0  2  0  0  0  0  0  0
  184.1120  179.4420  144.3500 C   0  0  0  0  0  2  0  0  0  0  0  0
  191.1390  176.6360  137.5920 C   0  0  0  0  0  2  0  0  0  0  0  0
  192.1060  175.4960  137.8620 C   0  0  0  0  0  2  0  0  0  0  0  0
  191.4980  174.2320  137.4740 N   0  0  0  0  0  2  0  0  0  0  0  0
  192.0360  173.3630  136.4720 C   0  0  0  0  0  0  0  0  0  0  0  0
  191.2010  173.0430  135.0980 S   0  0  0  0  0  0  0  0  0  0  0  0
  193.3190  172.7550  136.6500 N   0  0  0  0  0  2  0  0  0  0  0  0
  194.5590  173.2710  136.1580 C   0  0  0  0  0  0  0  0  0  0  0  0
  194.6020  174.3520  135.5100 O   0  0  0  0  0  0  0  0  0  0  0  0
  195.8170  172.5060  136.4210 C   0  0  2  0  0  3  0  0  0  0  0  0
  195.5540  171.0210  136.2270 C   0  0  0  0  0  1  0  0  0  0  0  0
  196.3660  172.7960  137.8230 C   0  0  2  0  0  3  0  0  0  0  0  0
  195.3620  172.6350  138.7830 O   0  0  0  0  0  1  0  0  0  0  0  0
  196.5870  174.9010  138.8480 O   0  0  0  0  0  0  0  0  0  0  0  0
  196.9310  174.1820  137.9250 C   0  0  0  0  0  0  0  0  0  0  0  0
  197.8920  174.6940  136.9020 C   0  0  0  0  0  2  0  0  0  0  0  0
  199.1800  174.7260  137.4360 O   0  0  0  0  0  1  0  0  0  0  0  0
  1  5  2  0  0  0  0
  2  6  1  0  0  0  0
  2  3  1  0  0  0  0
  3  1  1  0  0  0  0
  4  1  1  0  0  0  0
  5  7  2  0  0  0  0
  6  4  2  0  0  0  0
  7  9  1  0  0  0  0
  8 17  1  0  0  0  0
  8  2  2  0  0  0  0
  9 11  1  0  0  0  0
  9 10  1  1  0  0  0
 11 12  1  0  0  0  0
 12 15  1  0  0  0  0
 14 15  1  0  0  0  0
 15 16  1  0  0  0  0
 15 13  1  0  0  0  0
 18 21  1  6  0  0  0
 19 18  1  0  0  0  0
 20 19  1  0  0  0  0
 20 18  1  0  0  0  0
 20 17  1  1  0  0  0
 21 22  1  0  0  0  0
 22 24  1  0  0  0  0
 23 21  2  0  0  0  0
 24 25  1  0  0  0  0
 26 30  1  6  0  0  0
 26 33  1  0  0  0  0
 27 26  1  0  0  0  0
 28 29  1  0  0  0  0
 28 27  1  0  0  0  0
 29 25  1  6  0  0  0
 29 30  1  0  0  0  0
 32 35  1  0  0  0  0
 33 32  1  0  0  0  0
 33 34  1  0  0  0  0
 34 31  1  0  0  0  0
 35 31  1  0  0  0  0
 36 37  1  0  0  0  0
 36  6  1  0  0  0  0
 38 37  1  0  0  0  0
 39 41  1  0  0  0  0
 39 38  1  0  0  0  0
 40 39  2  0  0  0  0
 42 44  1  0  0  0  0
 42 41  1  0  0  0  0
 43 42  2  0  0  0  0
 44 45  1  1  0  0  0
 44 46  1  0  0  0  0
 46 49  1  0  0  0  0
 46 47  1  1  0  0  0
 49 48  2  0  0  0  0
 50 51  1  0  0  0  0
 50 49  1  0  0  0  0
M  END
>  <MODEL>
1

>  <REMARK>
 VINA RESULT:      -7.3      0.000      0.000
  Name = 
  20 active torsions:
  status: ('A' for Active; 'I' for Inactive)
    1  A    between atoms: C_1  and  N_30
    2  A    between atoms: C_1  and  C_40
    3  A    between atoms: C_4  and  N_8
    4  A    between atoms: C_4  and  N_30
    5  A    between atoms: C_5  and  C_23
    6  A    between atoms: C_5  and  C_44
    7  A    between atoms: C_6  and  C_9
    8  A    between atoms: N_12  and  C_38
    9  A    between atoms: C_13  and  N_18
   10  A    between atoms: C_14  and  C_15
   11  A    between atoms: C_14  and  C_24
   12  A    between atoms: C_15  and  C_17
   13  A    between atoms: C_17  and  C_25
   14  A    between atoms: C_19  and  C_46
   15  A    between atoms: C_19  and  C_49
   16  A    between atoms: C_23  and  O_35
   17  A    between atoms: C_32  and  C_36
   18  A    between atoms: C_32  and  C_38
   19  A    between atoms: C_33  and  O_35
   20  A    between atoms: C_39  and  C_40
                            x       y       z     vdW  Elec       q    Type
                         _______ _______ _______ _____ _____    ______ ____

>  <TORSDO>
F 20

$$$$
=
 OpenBabel10222417113D

 51 54  0  0  1  0  0  0  0  0999 V2000
  187.7380  177.1730  137.3520 C   0  0  0  0  0  0  0  0  0  0  0  0
  189.3330  177.3580  139.2470 C   0  0  0  0  0  0  0  0  0  0  0  0
  187.6790  177.5540  138.9860 S   0  0  0  0  0  0  0  0  0  0  0  0
  189.0410  176.8880  136.9700 C   0  0  0  0  0  2  0  0  0  0  0  0
  186.7120  177.1780  136.5490 C   0  0  0  0  0  0  0  0  0  0  0  0
  189.9370  176.9880  138.0460 C   0  0  0  0  0  0  0  0  0  0  0  0
  185.6830  177.1880  135.7480 C   0  0  0  0  0  3  0  0  0  0  0  0
  189.9690  177.5280  140.4070 C   0  0  0  0  0  2  0  0  0  0  0  0
  184.3540  176.7040  136.2170 C   0  0  2  0  0  3  0  0  0  0  0  0
  183.6150  177.7660  136.7040 F   0  0  0  0  0  0  0  0  0  0  0  0
  184.5340  175.6770  137.3160 C   0  0  0  0  0  2  0  0  0  0  0  0
  184.1450  174.4070  136.8580 O   0  0  0  0  0  0  0  0  0  0  0  0
  185.8590  173.2360  135.6060 C   0  0  0  0  0  1  0  0  0  0  0  0
  186.2050  174.1260  137.7540 F   0  0  0  0  0  0  0  0  0  0  0  0
  185.2400  173.5230  136.9700 C   0  0  0  0  0  0  0  0  0  0  0  0
  184.8730  172.3330  137.5840 F   0  0  0  0  0  0  0  0  0  0  0  0
  189.2630  177.9240  141.6600 C   0  0  0  0  0  2  0  0  0  0  0  0
  189.8420  178.2440  144.0400 C   0  0  1  0  0  3  0  0  0  0  0  0
  191.1350  178.1570  143.2500 C   0  0  0  0  0  2  0  0  0  0  0  0
  189.9550  177.3000  142.8540 C   0  0  2  0  0  3  0  0  0  0  0  0
  189.9850  177.4950  145.3330 C   0  0  0  0  0  0  0  0  0  0  0  0
  188.8400  176.9830  146.0170 N   0  0  0  0  0  2  0  0  0  0  0  0
  191.1320  177.2690  145.8060 O   0  0  0  0  0  0  0  0  0  0  0  0
  187.4810  177.1700  145.5280 C   0  0  0  0  0  2  0  0  0  0  0  0
  186.7470  178.1860  146.3860 C   0  0  0  0  0  2  0  0  0  0  0  0
  184.2950  178.3590  143.7990 C   0  0  2  0  0  3  0  0  0  0  0  0
  183.6210  179.0220  144.9850 C   0  0  0  0  0  2  0  0  0  0  0  0
  184.4800  178.9210  146.0880 O   0  0  0  0  0  0  0  0  0  0  0  0
  185.7780  179.0140  145.5570 C   0  0  2  0  0  3  0  0  0  0  0  0
  185.7590  178.4900  144.1380 C   0  0  0  0  0  2  0  0  0  0  0  0
  184.8390  179.1010  140.3110 C   0  0  0  0  0  2  0  0  0  0  0  0
  183.1310  178.1900  141.7350 C   0  0  0  0  0  2  0  0  0  0  0  0
  183.9770  179.0590  142.5500 N   0  0  0  0  0  0  0  0  0  0  0  0
  185.2050  179.2010  141.7740 C   0  0  0  0  0  2  0  0  0  0  0  0
  183.4980  178.4140  140.2850 C   0  0  0  0  0  2  0  0  0  0  0  0
  191.4080  176.7680  137.8810 C   0  0  0  0  0  2  0  0  0  0  0  0
  191.7970  175.3760  138.3470 C   0  0  0  0  0  2  0  0  0  0  0  0
  191.0580  174.3770  137.5900 N   0  0  0  0  0  2  0  0  0  0  0  0
  191.6350  173.5690  136.5610 C   0  0  0  0  0  0  0  0  0  0  0  0
  190.7180  172.9810  135.3360 S   0  0  0  0  0  0  0  0  0  0  0  0
  193.0320  173.2560  136.5790 N   0  0  0  0  0  2  0  0  0  0  0  0
  194.0570  173.9860  135.8990 C   0  0  0  0  0  0  0  0  0  0  0  0
  193.7810  175.0070  135.2110 O   0  0  0  0  0  0  0  0  0  0  0  0
  195.4740  173.5210  136.0120 C   0  0  2  0  0  3  0  0  0  0  0  0
  195.4950  172.0150  136.2180 C   0  0  0  0  0  1  0  0  0  0  0  0
  196.2140  174.2490  137.1410 C   0  0  2  0  0  3  0  0  0  0  0  0
  195.3280  175.0490  137.8690 O   0  0  0  0  0  1  0  0  0  0  0  0
  198.2320  175.4350  137.3700 O   0  0  0  0  0  0  0  0  0  0  0  0
  197.3330  175.0990  136.6170 C   0  0  0  0  0  0  0  0  0  0  0  0
  197.3480  175.5520  135.1940 C   0  0  0  0  0  2  0  0  0  0  0  0
  198.5840  175.2590  134.6170 O   0  0  0  0  0  1  0  0  0  0  0  0
  1  3  1  0  0  0  0
  2  8  1  0  0  0  0
  3  2  1  0  0  0  0
  4  1  1  0  0  0  0
  4  6  1  0  0  0  0
  5  1  2  0  0  0  0
  6  2  2  0  0  0  0
  7  9  1  0  0  0  0
  7  5  2  0  0  0  0
  8 17  1  0  0  0  0
  9 10  1  1  0  0  0
  9 11  1  0  0  0  0
 12 15  1  0  0  0  0
 12 11  1  0  0  0  0
 13 15  1  0  0  0  0
 15 16  1  0  0  0  0
 15 14  1  0  0  0  0
 18 21  1  1  0  0  0
 19 18  1  0  0  0  0
 20 17  1  6  0  0  0
 20 19  1  0  0  0  0
 20 18  1  0  0  0  0
 21 23  2  0  0  0  0
 21 22  1  0  0  0  0
 24 22  1  0  0  0  0
 24 25  1  0  0  0  0
 26 33  1  6  0  0  0
 26 30  1  0  0  0  0
 26 27  1  0  0  0  0
 27 28  1  0  0  0  0
 29 28  1  0  0  0  0
 29 25  1  1  0  0  0
 30 29  1  0  0  0  0
 31 34  1  0  0  0  0
 32 33  1  0  0  0  0
 34 33  1  0  0  0  0
 35 31  1  0  0  0  0
 35 32  1  0  0  0  0
 36  6  1  0  0  0  0
 36 37  1  0  0  0  0
 38 37  1  0  0  0  0
 39 41  1  0  0  0  0
 39 38  1  0  0  0  0
 40 39  2  0  0  0  0
 42 44  1  0  0  0  0
 42 41  1  0  0  0  0
 43 42  2  0  0  0  0
 44 45  1  1  0  0  0
 44 46  1  0  0  0  0
 46 47  1  6  0  0  0
 49 46  1  0  0  0  0
 49 48  2  0  0  0  0
 50 49  1  0  0  0  0
 51 50  1  0  0  0  0
M  END
>  <MODEL>
2

>  <REMARK>
 VINA RESULT:      -7.2      3.126      6.607
  Name = 
  20 active torsions:
  status: ('A' for Active; 'I' for Inactive)
    1  A    between atoms: C_1  and  N_30
    2  A    between atoms: C_1  and  C_40
    3  A    between atoms: C_4  and  N_8
    4  A    between atoms: C_4  and  N_30
    5  A    between atoms: C_5  and  C_23
    6  A    between atoms: C_5  and  C_44
    7  A    between atoms: C_6  and  C_9
    8  A    between atoms: N_12  and  C_38
    9  A    between atoms: C_13  and  N_18
   10  A    between atoms: C_14  and  C_15
   11  A    between atoms: C_14  and  C_24
   12  A    between atoms: C_15  and  C_17
   13  A    between atoms: C_17  and  C_25
   14  A    between atoms: C_19  and  C_46
   15  A    between atoms: C_19  and  C_49
   16  A    between atoms: C_23  and  O_35
   17  A    between atoms: C_32  and  C_36
   18  A    between atoms: C_32  and  C_38
   19  A    between atoms: C_33  and  O_35
   20  A    between atoms: C_39  and  C_40
                            x       y       z     vdW  Elec       q    Type
                         _______ _______ _______ _____ _____    ______ ____

>  <TORSDO>
F 20

$$$$
=
 OpenBabel10222417113D

 51 54  0  0  1  0  0  0  0  0999 V2000
  187.4570  177.1920  137.5320 C   0  0  0  0  0  0  0  0  0  0  0  0
  189.2620  177.4740  139.2150 C   0  0  0  0  0  0  0  0  0  0  0  0
  187.5930  177.6980  139.1280 S   0  0  0  0  0  0  0  0  0  0  0  0
  188.7010  176.8420  137.0290 C   0  0  0  0  0  2  0  0  0  0  0  0
  186.3460  177.1670  136.8520 C   0  0  0  0  0  0  0  0  0  0  0  0
  189.7170  176.9970  137.9860 C   0  0  0  0  0  0  0  0  0  0  0  0
  185.2320  177.1470  136.1730 C   0  0  0  0  0  3  0  0  0  0  0  0
  190.0300  177.7130  140.2790 C   0  0  0  0  0  2  0  0  0  0  0  0
  183.9560  176.7380  136.8250 C   0  0  2  0  0  3  0  0  0  0  0  0
  183.7560  175.3810  136.6480 F   0  0  0  0  0  0  0  0  0  0  0  0
  182.7950  177.4960  136.2140 C   0  0  0  0  0  2  0  0  0  0  0  0
  181.8540  177.8160  137.2070 O   0  0  0  0  0  0  0  0  0  0  0  0
  179.8410  179.1540  137.3930 C   0  0  0  0  0  1  0  0  0  0  0  0
  182.0080  180.0430  137.5850 F   0  0  0  0  0  0  0  0  0  0  0  0
  181.2870  179.0750  136.9130 C   0  0  0  0  0  0  0  0  0  0  0  0
  181.3520  179.3590  135.5550 F   0  0  0  0  0  0  0  0  0  0  0  0
  189.4800  178.2230  141.5690 C   0  0  0  0  0  2  0  0  0  0  0  0
  190.0330  178.3340  143.9730 C   0  0  1  0  0  3  0  0  0  0  0  0
  191.3330  178.2240  143.1980 C   0  0  0  0  0  2  0  0  0  0  0  0
  190.1100  177.4730  142.7230 C   0  0  2  0  0  3  0  0  0  0  0  0
  190.1060  177.4870  145.2110 C   0  0  0  0  0  0  0  0  0  0  0  0
  188.9240  176.9460  145.8030 N   0  0  0  0  0  2  0  0  0  0  0  0
  191.2270  177.2040  145.7140 O   0  0  0  0  0  0  0  0  0  0  0  0
  187.5910  177.1960  145.2710 C   0  0  0  0  0  2  0  0  0  0  0  0
  186.7880  178.0490  146.2380 C   0  0  0  0  0  2  0  0  0  0  0  0
  184.2210  178.4010  143.7850 C   0  0  2  0  0  3  0  0  0  0  0  0
  183.6160  179.0100  145.0350 C   0  0  0  0  0  2  0  0  0  0  0  0
  184.5240  178.8350  146.0890 O   0  0  0  0  0  0  0  0  0  0  0  0
  185.7970  178.9360  145.5020 C   0  0  2  0  0  3  0  0  0  0  0  0
  185.7010  178.4910  144.0600 C   0  0  0  0  0  2  0  0  0  0  0  0
  184.3710  179.1000  140.2490 C   0  0  0  0  0  2  0  0  0  0  0  0
  182.7530  178.4930  141.9190 C   0  0  0  0  0  2  0  0  0  0  0  0
  183.8570  179.1730  142.5920 N   0  0  0  0  0  0  0  0  0  0  0  0
  184.9610  179.1010  141.6400 C   0  0  0  0  0  2  0  0  0  0  0  0
  182.9370  178.6740  140.4280 C   0  0  0  0  0  2  0  0  0  0  0  0
  191.1540  176.7220  137.6740 C   0  0  0  0  0  2  0  0  0  0  0  0
  191.6320  175.4780  138.4010 C   0  0  0  0  0  2  0  0  0  0  0  0
  191.1800  174.2890  137.6930 N   0  0  0  0  0  2  0  0  0  0  0  0
  191.8290  173.7580  136.5340 C   0  0  0  0  0  0  0  0  0  0  0  0
  191.1360  173.8740  135.0530 S   0  0  0  0  0  0  0  0  0  0  0  0
  193.1020  173.1120  136.6440 N   0  0  0  0  0  2  0  0  0  0  0  0
  194.3730  173.7660  136.5890 C   0  0  0  0  0  0  0  0  0  0  0  0
  194.4560  175.0160  136.4390 O   0  0  0  0  0  0  0  0  0  0  0  0
  195.6160  172.9430  136.7110 C   0  0  2  0  0  3  0  0  0  0  0  0
  195.2750  171.4790  136.4810 C   0  0  0  0  0  1  0  0  0  0  0  0
  196.2950  173.1510  138.0700 C   0  0  2  0  0  3  0  0  0  0  0  0
  195.3370  173.3450  139.0690 O   0  0  0  0  0  1  0  0  0  0  0  0
  197.3570  175.0060  139.0530 O   0  0  0  0  0  0  0  0  0  0  0  0
  197.2340  174.3210  138.0510 C   0  0  0  0  0  0  0  0  0  0  0  0
  198.0020  174.6660  136.8170 C   0  0  0  0  0  2  0  0  0  0  0  0
  197.6480  175.9430  136.3800 O   0  0  0  0  0  1  0  0  0  0  0  0
  1  3  1  0  0  0  0
  2  8  1  0  0  0  0
  3  2  1  0  0  0  0
  4  1  1  0  0  0  0
  4  6  1  0  0  0  0
  5  1  2  0  0  0  0
  6  2  2  0  0  0  0
  7  9  1  0  0  0  0
  7  5  2  0  0  0  0
  8 17  1  0  0  0  0
  9 10  1  6  0  0  0
 11  9  1  0  0  0  0
 11 12  1  0  0  0  0
 15 12  1  0  0  0  0
 15 13  1  0  0  0  0
 15 14  1  0  0  0  0
 16 15  1  0  0  0  0
 18 21  1  1  0  0  0
 19 18  1  0  0  0  0
 20 17  1  6  0  0  0
 20 19  1  0  0  0  0
 20 18  1  0  0  0  0
 21 23  2  0  0  0  0
 21 22  1  0  0  0  0
 24 22  1  0  0  0  0
 24 25  1  0  0  0  0
 26 33  1  6  0  0  0
 26 30  1  0  0  0  0
 26 27  1  0  0  0  0
 27 28  1  0  0  0  0
 29 28  1  0  0  0  0
 29 25  1  1  0  0  0
 30 29  1  0  0  0  0
 31 35  1  0  0  0  0
 31 34  1  0  0  0  0
 32 33  1  0  0  0  0
 34 33  1  0  0  0  0
 35 32  1  0  0  0  0
 36  6  1  0  0  0  0
 36 37  1  0  0  0  0
 38 37  1  0  0  0  0
 39 41  1  0  0  0  0
 39 38  1  0  0  0  0
 40 39  2  0  0  0  0
 42 41  1  0  0  0  0
 42 44  1  0  0  0  0
 43 42  2  0  0  0  0
 44 45  1  1  0  0  0
 44 46  1  0  0  0  0
 46 47  1  1  0  0  0
 49 46  1  0  0  0  0
 49 48  2  0  0  0  0
 50 49  1  0  0  0  0
 51 50  1  0  0  0  0
M  END
>  <MODEL>
3

>  <REMARK>
 VINA RESULT:      -7.2      3.290      6.824
  Name = 
  20 active torsions:
  status: ('A' for Active; 'I' for Inactive)
    1  A    between atoms: C_1  and  N_30
    2  A    between atoms: C_1  and  C_40
    3  A    between atoms: C_4  and  N_8
    4  A    between atoms: C_4  and  N_30
    5  A    between atoms: C_5  and  C_23
    6  A    between atoms: C_5  and  C_44
    7  A    between atoms: C_6  and  C_9
    8  A    between atoms: N_12  and  C_38
    9  A    between atoms: C_13  and  N_18
   10  A    between atoms: C_14  and  C_15
   11  A    between atoms: C_14  and  C_24
   12  A    between atoms: C_15  and  C_17
   13  A    between atoms: C_17  and  C_25
   14  A    between atoms: C_19  and  C_46
   15  A    between atoms: C_19  and  C_49
   16  A    between atoms: C_23  and  O_35
   17  A    between atoms: C_32  and  C_36
   18  A    between atoms: C_32  and  C_38
   19  A    between atoms: C_33  and  O_35
   20  A    between atoms: C_39  and  C_40
                            x       y       z     vdW  Elec       q    Type
                         _______ _______ _______ _____ _____    ______ ____

>  <TORSDO>
F 20

$$$$
=
 OpenBabel10222417113D

 51 54  0  0  1  0  0  0  0  0999 V2000
  189.1330  177.2840  142.5130 C   0  0  0  0  0  0  0  0  0  0  0  0
  187.0310  178.4020  141.8050 C   0  0  0  0  0  0  0  0  0  0  0  0
  187.7710  177.9350  143.2480 S   0  0  0  0  0  0  0  0  0  0  0  0
  189.0460  177.4100  141.1350 C   0  0  0  0  0  2  0  0  0  0  0  0
  190.1170  176.7100  143.1460 C   0  0  0  0  0  0  0  0  0  0  0  0
  187.8590  178.0480  140.7410 C   0  0  0  0  0  0  0  0  0  0  0  0
  191.0980  176.1330  143.7840 C   0  0  0  0  0  3  0  0  0  0  0  0
  185.8490  179.0080  141.6920 C   0  0  0  0  0  2  0  0  0  0  0  0
  191.5740  176.6730  145.0880 C   0  0  2  0  0  3  0  0  0  0  0  0
  192.0840  175.6460  145.8610 F   0  0  0  0  0  0  0  0  0  0  0  0
  190.4260  177.3300  145.8290 C   0  0  0  0  0  2  0  0  0  0  0  0
  190.0770  176.5620  146.9530 O   0  0  0  0  0  0  0  0  0  0  0  0
  188.0580  177.8690  146.6490 C   0  0  0  0  0  1  0  0  0  0  0  0
  188.3020  176.2350  148.3200 F   0  0  0  0  0  0  0  0  0  0  0  0
  189.0140  177.1980  147.6300 C   0  0  0  0  0  0  0  0  0  0  0  0
  189.4780  178.1280  148.5500 F   0  0  0  0  0  0  0  0  0  0  0  0
  185.0100  179.3630  142.8740 C   0  0  0  0  0  2  0  0  0  0  0  0
  182.5430  179.4260  142.9540 C   0  0  1  0  0  3  0  0  0  0  0  0
  183.0340  178.7050  144.1960 C   0  0  0  0  0  2  0  0  0  0  0  0
  183.7560  178.5140  142.8820 C   0  0  2  0  0  3  0  0  0  0  0  0
  181.3240  178.7360  142.4150 C   0  0  0  0  0  0  0  0  0  0  0  0
  181.1430  178.5520  141.0100 N   0  0  0  0  0  2  0  0  0  0  0  0
  180.4640  178.2650  143.2090 O   0  0  0  0  0  0  0  0  0  0  0  0
  182.1000  179.0350  140.0230 C   0  0  0  0  0  2  0  0  0  0  0  0
  181.8570  178.3650  138.6820 C   0  0  0  0  0  2  0  0  0  0  0  0
  183.1910  175.2720  137.5050 C   0  0  2  0  0  3  0  0  0  0  0  0
  183.7200  176.2950  136.5190 C   0  0  0  0  0  2  0  0  0  0  0  0
  183.1710  177.5420  136.8470 O   0  0  0  0  0  0  0  0  0  0  0  0
  183.0590  177.5400  138.2480 C   0  0  2  0  0  3  0  0  0  0  0  0
  182.8820  176.1130  138.7170 C   0  0  0  0  0  2  0  0  0  0  0  0
  185.1480  172.3500  136.6980 C   0  0  0  0  0  2  0  0  0  0  0  0
  185.4720  174.6750  137.2160 C   0  0  0  0  0  2  0  0  0  0  0  0
  184.2050  174.2570  137.8100 N   0  0  0  0  0  0  0  0  0  0  0  0
  183.8590  173.0290  137.0990 C   0  0  0  0  0  2  0  0  0  0  0  0
  186.1960  173.4330  136.7460 C   0  0  0  0  0  2  0  0  0  0  0  0
  187.5120  178.2660  139.3020 C   0  0  0  0  0  2  0  0  0  0  0  0
  188.2560  177.2820  138.4160 C   0  0  0  0  0  2  0  0  0  0  0  0
  188.2210  177.7390  137.0340 N   0  0  0  0  0  2  0  0  0  0  0  0
  188.1440  176.8610  135.9070 C   0  0  0  0  0  0  0  0  0  0  0  0
  187.1400  177.1880  134.6530 S   0  0  0  0  0  0  0  0  0  0  0  0
  188.9450  175.6770  135.8500 N   0  0  0  0  0  2  0  0  0  0  0  0
  190.2230  175.5670  135.2180 C   0  0  0  0  0  0  0  0  0  0  0  0
  190.7540  176.5590  134.6470 O   0  0  0  0  0  0  0  0  0  0  0  0
  190.9310  174.2500  135.2390 C   0  0  2  0  0  3  0  0  0  0  0  0
  189.9640  173.1650  135.6890 C   0  0  0  0  0  1  0  0  0  0  0  0
  192.1740  174.2960  136.1360 C   0  0  2  0  0  3  0  0  0  0  0  0
  192.6030  173.0010  136.4430 O   0  0  0  0  0  1  0  0  0  0  0  0
  191.1300  174.5900  138.2240 O   0  0  0  0  0  0  0  0  0  0  0  0
  191.9150  175.0460  137.4090 C   0  0  0  0  0  0  0  0  0  0  0  0
  192.5910  176.3510  137.6800 C   0  0  0  0  0  2  0  0  0  0  0  0
  193.9440  176.1370  137.9440 O   0  0  0  0  0  1  0  0  0  0  0  0
  1  5  2  0  0  0  0
  1  3  1  0  0  0  0
  2  3  1  0  0  0  0
  4  1  1  0  0  0  0
  5  7  2  0  0  0  0
  6  4  1  0  0  0  0
  6  2  2  0  0  0  0
  7  9  1  0  0  0  0
  8  2  1  0  0  0  0
  8 17  1  0  0  0  0
  9 11  1  0  0  0  0
  9 10  1  1  0  0  0
 11 12  1  0  0  0  0
 12 15  1  0  0  0  0
 13 15  1  0  0  0  0
 15 14  1  0  0  0  0
 15 16  1  0  0  0  0
 18 21  1  6  0  0  0
 18 19  1  0  0  0  0
 20 17  1  1  0  0  0
 20 18  1  0  0  0  0
 20 19  1  0  0  0  0
 21 23  2  0  0  0  0
 22 21  1  0  0  0  0
 24 22  1  0  0  0  0
 25 24  1  0  0  0  0
 26 27  1  6  0  0  0
 26 33  1  0  0  0  0
 26 30  1  0  0  0  0
 27 28  1  0  0  0  0
 28 29  1  0  0  0  0
 29 25  1  6  0  0  0
 29 30  1  0  0  0  0
 31 35  1  0  0  0  0
 31 34  1  0  0  0  0
 32 33  1  0  0  0  0
 34 33  1  0  0  0  0
 35 32  1  0  0  0  0
 36  6  1  0  0  0  0
 37 36  1  0  0  0  0
 38 37  1  0  0  0  0
 39 38  1  0  0  0  0
 40 39  2  0  0  0  0
 41 39  1  0  0  0  0
 42 44  1  0  0  0  0
 42 41  1  0  0  0  0
 43 42  2  0  0  0  0
 44 45  1  1  0  0  0
 44 46  1  0  0  0  0
 46 47  1  1  0  0  0
 46 49  1  0  0  0  0
 49 50  1  0  0  0  0
 49 48  2  0  0  0  0
 50 51  1  0  0  0  0
M  END
>  <MODEL>
4

>  <REMARK>
 VINA RESULT:      -7.1      2.722      5.039
  Name = 
  20 active torsions:
  status: ('A' for Active; 'I' for Inactive)
    1  A    between atoms: C_1  and  N_30
    2  A    between atoms: C_1  and  C_40
    3  A    between atoms: C_4  and  N_8
    4  A    between atoms: C_4  and  N_30
    5  A    between atoms: C_5  and  C_23
    6  A    between atoms: C_5  and  C_44
    7  A    between atoms: C_6  and  C_9
    8  A    between atoms: N_12  and  C_38
    9  A    between atoms: C_13  and  N_18
   10  A    between atoms: C_14  and  C_15
   11  A    between atoms: C_14  and  C_24
   12  A    between atoms: C_15  and  C_17
   13  A    between atoms: C_17  and  C_25
   14  A    between atoms: C_19  and  C_46
   15  A    between atoms: C_19  and  C_49
   16  A    between atoms: C_23  and  O_35
   17  A    between atoms: C_32  and  C_36
   18  A    between atoms: C_32  and  C_38
   19  A    between atoms: C_33  and  O_35
   20  A    between atoms: C_39  and  C_40
                            x       y       z     vdW  Elec       q    Type
                         _______ _______ _______ _____ _____    ______ ____

>  <TORSDO>
F 20

$$$$
=
 OpenBabel10222417113D

 51 54  0  0  1  0  0  0  0  0999 V2000
  189.5990  177.2940  142.7780 C   0  0  0  0  0  0  0  0  0  0  0  0
  187.6450  178.2620  141.5890 C   0  0  0  0  0  0  0  0  0  0  0  0
  188.0480  177.8100  143.1630 S   0  0  0  0  0  0  0  0  0  0  0  0
  189.8400  177.4570  141.4220 C   0  0  0  0  0  2  0  0  0  0  0  0
  190.4440  176.7810  143.6270 C   0  0  0  0  0  0  0  0  0  0  0  0
  188.7350  178.0110  140.7560 C   0  0  0  0  0  0  0  0  0  0  0  0
  191.2860  176.2640  144.4790 C   0  0  0  0  0  3  0  0  0  0  0  0
  186.4790  178.7750  141.1950 C   0  0  0  0  0  2  0  0  0  0  0  0
  191.3820  176.7980  145.8670 C   0  0  2  0  0  3  0  0  0  0  0  0
  192.4020  176.1570  146.5440 F   0  0  0  0  0  0  0  0  0  0  0  0
  190.0760  176.5700  146.6020 C   0  0  0  0  0  2  0  0  0  0  0  0
  189.9500  177.4910  147.6560 O   0  0  0  0  0  0  0  0  0  0  0  0
  187.7160  178.0560  146.9040 C   0  0  0  0  0  1  0  0  0  0  0  0
  188.1760  176.2840  148.3780 F   0  0  0  0  0  0  0  0  0  0  0  0
  188.5950  177.5580  148.0470 C   0  0  0  0  0  0  0  0  0  0  0  0
  188.4260  178.3680  149.1620 F   0  0  0  0  0  0  0  0  0  0  0  0
  185.3500  179.0230  142.1390 C   0  0  0  0  0  2  0  0  0  0  0  0
  183.1330  178.9670  141.0520 C   0  0  1  0  0  3  0  0  0  0  0  0
  182.9470  178.6080  142.5150 C   0  0  0  0  0  2  0  0  0  0  0  0
  184.1790  178.1350  141.7770 C   0  0  2  0  0  3  0  0  0  0  0  0
  182.2550  178.0970  140.2000 C   0  0  0  0  0  0  0  0  0  0  0  0
  182.5370  177.9020  138.8130 N   0  0  0  0  0  2  0  0  0  0  0  0
  181.2800  177.4870  140.7180 O   0  0  0  0  0  0  0  0  0  0  0  0
  183.6580  178.5410  138.1390 C   0  0  0  0  0  2  0  0  0  0  0  0
  184.8560  177.6060  138.1070 C   0  0  0  0  0  2  0  0  0  0  0  0
  182.9860  175.0610  136.4470 C   0  0  2  0  0  3  0  0  0  0  0  0
  183.3260  176.0420  135.3420 C   0  0  0  0  0  2  0  0  0  0  0  0
  183.9890  177.1350  135.9170 O   0  0  0  0  0  0  0  0  0  0  0  0
  184.7410  176.5970  136.9760 C   0  0  2  0  0  3  0  0  0  0  0  0
  184.0410  175.3550  137.4840 C   0  0  0  0  0  2  0  0  0  0  0  0
  183.8190  171.5770  136.8710 C   0  0  0  0  0  2  0  0  0  0  0  0
  181.8980  172.9490  136.4240 C   0  0  0  0  0  2  0  0  0  0  0  0
  183.0810  173.6760  135.9730 N   0  0  0  0  0  0  0  0  0  0  0  0
  184.1910  173.0270  136.6650 C   0  0  0  0  0  2  0  0  0  0  0  0
  182.3170  171.5310  136.7430 C   0  0  0  0  0  2  0  0  0  0  0  0
  188.7320  178.2460  139.2780 C   0  0  0  0  0  2  0  0  0  0  0  0
  188.9010  176.9380  138.5260 C   0  0  0  0  0  2  0  0  0  0  0  0
  190.1000  176.9930  137.7040 N   0  0  0  0  0  2  0  0  0  0  0  0
  190.8930  175.8490  137.3740 C   0  0  0  0  0  0  0  0  0  0  0  0
  190.2020  174.3800  137.1510 S   0  0  0  0  0  0  0  0  0  0  0  0
  192.3130  175.9660  137.2300 N   0  0  0  0  0  2  0  0  0  0  0  0
  193.0200  176.0270  135.9880 C   0  0  0  0  0  0  0  0  0  0  0  0
  192.4070  175.9870  134.8870 O   0  0  0  0  0  0  0  0  0  0  0  0
  194.5110  176.1390  136.0090 C   0  0  2  0  0  3  0  0  0  0  0  0
  194.9780  176.8910  134.7720 C   0  0  0  0  0  1  0  0  0  0  0  0
  195.1760  174.7600  136.1070 C   0  0  2  0  0  3  0  0  0  0  0  0
  194.2370  173.7490  135.8840 O   0  0  0  0  0  1  0  0  0  0  0  0
  196.9720  174.9200  137.6170 O   0  0  0  0  0  0  0  0  0  0  0  0
  195.8240  174.5470  137.4430 C   0  0  0  0  0  0  0  0  0  0  0  0
  195.0880  173.8680  138.5520 C   0  0  0  0  0  2  0  0  0  0  0  0
  195.5210  172.5470  138.6690 O   0  0  0  0  0  1  0  0  0  0  0  0
  1  3  1  0  0  0  0
  1  5  2  0  0  0  0
  2  3  1  0  0  0  0
  4  1  1  0  0  0  0
  5  7  2  0  0  0  0
  6  4  1  0  0  0  0
  6  2  2  0  0  0  0
  7  9  1  0  0  0  0
  8  2  1  0  0  0  0
  8 17  1  0  0  0  0
  9 10  1  1  0  0  0
  9 11  1  0  0  0  0
 11 12  1  0  0  0  0
 12 15  1  0  0  0  0
 13 15  1  0  0  0  0
 15 14  1  0  0  0  0
 15 16  1  0  0  0  0
 18 21  1  6  0  0  0
 18 20  1  0  0  0  0
 18 19  1  0  0  0  0
 20 17  1  1  0  0  0
 20 19  1  0  0  0  0
 21 23  2  0  0  0  0
 22 21  1  0  0  0  0
 24 22  1  0  0  0  0
 25 24  1  0  0  0  0
 26 27  1  6  0  0  0
 26 30  1  0  0  0  0
 27 28  1  0  0  0  0
 28 29  1  0  0  0  0
 29 30  1  0  0  0  0
 29 25  1  1  0  0  0
 32 35  1  0  0  0  0
 33 32  1  0  0  0  0
 33 26  1  0  0  0  0
 33 34  1  0  0  0  0
 34 31  1  0  0  0  0
 35 31  1  0  0  0  0
 36  6  1  0  0  0  0
 37 36  1  0  0  0  0
 38 37  1  0  0  0  0
 39 38  1  0  0  0  0
 40 39  2  0  0  0  0
 41 39  1  0  0  0  0
 42 44  1  0  0  0  0
 42 41  1  0  0  0  0
 43 42  2  0  0  0  0
 44 45  1  6  0  0  0
 44 46  1  0  0  0  0
 46 47  1  1  0  0  0
 46 49  1  0  0  0  0
 49 48  2  0  0  0  0
 49 50  1  0  0  0  0
 50 51  1  0  0  0  0
M  END
>  <MODEL>
5

>  <REMARK>
 VINA RESULT:      -7.0      2.261      4.528
  Name = 
  20 active torsions:
  status: ('A' for Active; 'I' for Inactive)
    1  A    between atoms: C_1  and  N_30
    2  A    between atoms: C_1  and  C_40
    3  A    between atoms: C_4  and  N_8
    4  A    between atoms: C_4  and  N_30
    5  A    between atoms: C_5  and  C_23
    6  A    between atoms: C_5  and  C_44
    7  A    between atoms: C_6  and  C_9
    8  A    between atoms: N_12  and  C_38
    9  A    between atoms: C_13  and  N_18
   10  A    between atoms: C_14  and  C_15
   11  A    between atoms: C_14  and  C_24
   12  A    between atoms: C_15  and  C_17
   13  A    between atoms: C_17  and  C_25
   14  A    between atoms: C_19  and  C_46
   15  A    between atoms: C_19  and  C_49
   16  A    between atoms: C_23  and  O_35
   17  A    between atoms: C_32  and  C_36
   18  A    between atoms: C_32  and  C_38
   19  A    between atoms: C_33  and  O_35
   20  A    between atoms: C_39  and  C_40
                            x       y       z     vdW  Elec       q    Type
                         _______ _______ _______ _____ _____    ______ ____

>  <TORSDO>
F 20

$$$$
=
 OpenBabel10222417113D

 51 54  0  0  1  0  0  0  0  0999 V2000
  183.9510  178.5960  141.8370 C   0  0  0  0  0  0  0  0  0  0  0  0
  186.4340  178.5370  141.8130 C   0  0  0  0  0  0  0  0  0  0  0  0
  185.1800  178.6800  140.6950 S   0  0  0  0  0  0  0  0  0  0  0  0
  184.4830  178.4510  143.1090 C   0  0  0  0  0  3  0  0  0  0  0  0
  182.6780  178.6260  141.5620 C   0  0  0  0  0  0  0  0  0  0  0  0
  185.8870  178.4250  143.0910 C   0  0  0  0  0  0  0  0  0  0  0  0
  181.4030  178.6530  141.2830 C   0  0  0  0  0  3  0  0  0  0  0  0
  187.7380  178.5280  141.5310 C   0  0  0  0  0  3  0  0  0  0  0  0
  180.8830  179.5460  140.2100 C   0  0  2  0  0  3  0  0  0  0  0  0
  179.6390  179.1040  139.7970 F   0  0  0  0  0  0  0  0  0  0  0  0
  181.8300  179.5430  139.0270 C   0  0  0  0  0  2  0  0  0  0  0  0
  181.5100  178.4870  138.1570 O   0  0  0  0  0  0  0  0  0  0  0  0
  182.5920  177.1060  136.4850 C   0  0  0  0  0  1  0  0  0  0  0  0
  183.7420  178.6600  137.8200 F   0  0  0  0  0  0  0  0  0  0  0  0
  182.6870  177.7690  137.8550 C   0  0  0  0  0  0  0  0  0  0  0  0
  182.9650  176.8150  138.8240 F   0  0  0  0  0  0  0  0  0  0  0  0
  188.2600  178.6550  140.1400 C   0  0  0  0  0  2  0  0  0  0  0  0
  189.6580  177.6060  138.3940 C   0  0  1  0  0  3  0  0  0  0  0  0
  188.5280  176.6490  138.7280 C   0  0  0  0  0  2  0  0  0  0  0  0
  189.1590  177.4780  139.8240 C   0  0  2  0  0  3  0  0  0  0  0  0
  190.9340  176.8390  138.2030 C   0  0  0  0  0  0  0  0  0  0  0  0
  191.2420  176.2230  136.9520 N   0  0  0  0  0  2  0  0  0  0  0  0
  191.7750  176.7730  139.1410 O   0  0  0  0  0  0  0  0  0  0  0  0
  190.3440  176.2750  135.8060 C   0  0  0  0  0  2  0  0  0  0  0  0
  189.9210  174.8730  135.4030 C   0  0  0  0  0  2  0  0  0  0  0  0
  186.4810  174.9080  136.3470 C   0  0  2  0  0  3  0  0  0  0  0  0
  186.5830  176.0060  135.3060 C   0  0  0  0  0  2  0  0  0  0  0  0
  187.9300  176.1320  134.9360 O   0  0  0  0  0  0  0  0  0  0  0  0
  188.4560  174.8300  135.0010 C   0  0  2  0  0  3  0  0  0  0  0  0
  187.6770  174.0450  136.0330 C   0  0  0  0  0  2  0  0  0  0  0  0
  184.6150  171.8690  135.7990 C   0  0  0  0  0  2  0  0  0  0  0  0
  184.8940  173.5560  137.4880 C   0  0  0  0  0  2  0  0  0  0  0  0
  185.2310  174.1540  136.1980 N   0  0  0  0  0  0  0  0  0  0  0  0
  185.4810  173.0120  135.3240 C   0  0  0  0  0  2  0  0  0  0  0  0
  184.2560  172.2110  137.2230 C   0  0  0  0  0  2  0  0  0  0  0  0
  186.6960  178.2360  144.3350 C   0  0  0  0  0  2  0  0  0  0  0  0
  185.8120  177.7960  145.4890 C   0  0  0  0  0  2  0  0  0  0  0  0
  186.3730  178.2640  146.7470 N   0  0  0  0  0  2  0  0  0  0  0  0
  187.5890  177.7650  147.3120 C   0  0  0  0  0  0  0  0  0  0  0  0
  187.8760  177.8730  148.9220 S   0  0  0  0  0  0  0  0  0  0  0  0
  188.5830  177.1580  146.4800 N   0  0  0  0  0  2  0  0  0  0  0  0
  189.9860  177.1140  146.7570 C   0  0  0  0  0  0  0  0  0  0  0  0
  190.4570  177.6270  147.8080 O   0  0  0  0  0  0  0  0  0  0  0  0
  190.8970  176.4470  145.7760 C   0  0  2  0  0  3  0  0  0  0  0  0
  192.0820  175.8470  146.5170 C   0  0  0  0  0  1  0  0  0  0  0  0
  191.3570  177.4230  144.6860 C   0  0  2  0  0  3  0  0  0  0  0  0
  190.5510  178.5650  144.6820 O   0  0  0  0  0  1  0  0  0  0  0  0
  192.0290  177.2510  142.4390 O   0  0  0  0  0  0  0  0  0  0  0  0
  191.3290  176.7910  143.3250 C   0  0  0  0  0  0  0  0  0  0  0  0
  190.4440  175.6220  143.0420 C   0  0  0  0  0  2  0  0  0  0  0  0
  189.1060  176.0050  143.1480 O   0  0  0  0  0  1  0  0  0  0  0  0
  1  4  1  0  0  0  0
  2  6  1  0  0  0  0
  3  2  1  0  0  0  0
  3  1  1  0  0  0  0
  5  1  2  0  0  0  0
  6  4  2  0  0  0  0
  6 36  1  0  0  0  0
  7  5  2  0  0  0  0
  8  2  2  0  0  0  0
  9 10  1  6  0  0  0
  9  7  1  0  0  0  0
 11  9  1  0  0  0  0
 12 11  1  0  0  0  0
 13 15  1  0  0  0  0
 14 15  1  0  0  0  0
 15 12  1  0  0  0  0
 15 16  1  0  0  0  0
 17  8  1  0  0  0  0
 18 21  1  1  0  0  0
 18 19  1  0  0  0  0
 18 20  1  0  0  0  0
 19 20  1  0  0  0  0
 20 17  1  6  0  0  0
 21 23  2  0  0  0  0
 22 21  1  0  0  0  0
 24 22  1  0  0  0  0
 25 24  1  0  0  0  0
 26 27  1  6  0  0  0
 28 29  1  0  0  0  0
 28 27  1  0  0  0  0
 29 25  1  1  0  0  0
 29 30  1  0  0  0  0
 30 26  1  0  0  0  0
 31 35  1  0  0  0  0
 33 26  1  0  0  0  0
 33 32  1  0  0  0  0
 34 31  1  0  0  0  0
 34 33  1  0  0  0  0
 35 32  1  0  0  0  0
 36 37  1  0  0  0  0
 37 38  1  0  0  0  0
 38 39  1  0  0  0  0
 39 40  2  0  0  0  0
 41 42  1  0  0  0  0
 41 39  1  0  0  0  0
 42 43  2  0  0  0  0
 44 45  1  1  0  0  0
 44 42  1  0  0  0  0
 46 47  1  6  0  0  0
 46 44  1  0  0  0  0
 48 49  2  0  0  0  0
 49 46  1  0  0  0  0
 50 51  1  0  0  0  0
 50 49  1  0  0  0  0
M  END
>  <MODEL>
6

>  <REMARK>
 VINA RESULT:      -6.7      4.409      9.278
  Name = 
  20 active torsions:
  status: ('A' for Active; 'I' for Inactive)
    1  A    between atoms: C_1  and  N_30
    2  A    between atoms: C_1  and  C_40
    3  A    between atoms: C_4  and  N_8
    4  A    between atoms: C_4  and  N_30
    5  A    between atoms: C_5  and  C_23
    6  A    between atoms: C_5  and  C_44
    7  A    between atoms: C_6  and  C_9
    8  A    between atoms: N_12  and  C_38
    9  A    between atoms: C_13  and  N_18
   10  A    between atoms: C_14  and  C_15
   11  A    between atoms: C_14  and  C_24
   12  A    between atoms: C_15  and  C_17
   13  A    between atoms: C_17  and  C_25
   14  A    between atoms: C_19  and  C_46
   15  A    between atoms: C_19  and  C_49
   16  A    between atoms: C_23  and  O_35
   17  A    between atoms: C_32  and  C_36
   18  A    between atoms: C_32  and  C_38
   19  A    between atoms: C_33  and  O_35
   20  A    between atoms: C_39  and  C_40
                            x       y       z     vdW  Elec       q    Type
                         _______ _______ _______ _____ _____    ______ ____

>  <TORSDO>
F 20

$$$$
=
 OpenBabel10222417113D

 51 54  0  0  1  0  0  0  0  0999 V2000
  182.9060  178.7840  142.8990 C   0  0  0  0  0  0  0  0  0  0  0  0
  185.3350  178.4880  143.3290 C   0  0  0  0  0  0  0  0  0  0  0  0
  184.2450  178.1900  142.0770 S   0  0  0  0  0  0  0  0  0  0  0  0
  183.2710  179.2230  144.1630 C   0  0  0  0  0  3  0  0  0  0  0  0
  181.6910  178.7970  142.4290 C   0  0  0  0  0  0  0  0  0  0  0  0
  184.6450  179.0590  144.3980 C   0  0  0  0  0  0  0  0  0  0  0  0
  180.4750  178.8060  141.9560 C   0  0  0  0  0  3  0  0  0  0  0  0
  186.6410  178.2220  143.3100 C   0  0  0  0  0  3  0  0  0  0  0  0
  180.2240  179.1140  140.5200 C   0  0  2  0  0  3  0  0  0  0  0  0
  180.5290  178.0100  139.7460 F   0  0  0  0  0  0  0  0  0  0  0  0
  181.0830  180.2820  140.0820 C   0  0  0  0  0  2  0  0  0  0  0  0
  180.3640  181.1030  139.1960 O   0  0  0  0  0  0  0  0  0  0  0  0
  180.3180  181.9080  136.9100 C   0  0  0  0  0  1  0  0  0  0  0  0
  182.0980  182.3140  138.3900 F   0  0  0  0  0  0  0  0  0  0  0  0
  181.1590  181.3570  138.0570 C   0  0  0  0  0  0  0  0  0  0  0  0
  181.8360  180.2180  137.6440 F   0  0  0  0  0  0  0  0  0  0  0  0
  187.3200  177.6100  142.1320 C   0  0  0  0  0  2  0  0  0  0  0  0
  187.4000  177.7060  139.6650 C   0  0  1  0  0  3  0  0  0  0  0  0
  188.4950  178.6070  140.2050 C   0  0  0  0  0  2  0  0  0  0  0  0
  187.1720  178.5180  140.9290 C   0  0  2  0  0  3  0  0  0  0  0  0
  186.7410  178.3580  138.4850 C   0  0  0  0  0  0  0  0  0  0  0  0
  187.2600  178.1890  137.1650 N   0  0  0  0  0  2  0  0  0  0  0  0
  185.6840  179.0280  138.6450 O   0  0  0  0  0  0  0  0  0  0  0  0
  188.4560  177.4070  136.8840 C   0  0  0  0  0  2  0  0  0  0  0  0
  188.0760  176.0090  136.4260 C   0  0  0  0  0  2  0  0  0  0  0  0
  191.3160  174.7700  137.2650 C   0  0  2  0  0  3  0  0  0  0  0  0
  190.5480  173.5300  136.8520 C   0  0  0  0  0  2  0  0  0  0  0  0
  189.2230  173.9050  136.5890 O   0  0  0  0  0  0  0  0  0  0  0  0
  189.3050  175.1980  136.0450 C   0  0  2  0  0  3  0  0  0  0  0  0
  190.5410  175.8750  136.5920 C   0  0  0  0  0  2  0  0  0  0  0  0
  193.9010  175.5330  134.8670 C   0  0  0  0  0  2  0  0  0  0  0  0
  193.3720  175.9570  137.1730 C   0  0  0  0  0  2  0  0  0  0  0  0
  192.6990  174.7220  136.7790 N   0  0  0  0  0  0  0  0  0  0  0  0
  192.6780  174.7690  135.3200 C   0  0  0  0  0  2  0  0  0  0  0  0
  194.3360  176.3320  136.0690 C   0  0  0  0  0  2  0  0  0  0  0  0
  185.2780  179.4200  145.7060 C   0  0  0  0  0  2  0  0  0  0  0  0
  185.1370  178.2820  146.7010 C   0  0  0  0  0  2  0  0  0  0  0  0
  186.2910  177.4010  146.6090 N   0  0  0  0  0  2  0  0  0  0  0  0
  187.6300  177.8060  146.9110 C   0  0  0  0  0  0  0  0  0  0  0  0
  188.0660  178.1950  148.4430 S   0  0  0  0  0  0  0  0  0  0  0  0
  188.6190  177.8780  145.8790 N   0  0  0  0  0  2  0  0  0  0  0  0
  189.8970  177.2370  145.9070 C   0  0  0  0  0  0  0  0  0  0  0  0
  190.2480  176.5270  146.8880 O   0  0  0  0  0  0  0  0  0  0  0  0
  190.8240  177.4210  144.7470 C   0  0  2  0  0  3  0  0  0  0  0  0
  190.3500  178.5950  143.9050 C   0  0  0  0  0  1  0  0  0  0  0  0
  190.9330  176.1410  143.9090 C   0  0  2  0  0  3  0  0  0  0  0  0
  192.0390  175.3870  144.3110 O   0  0  0  0  0  1  0  0  0  0  0  0
  190.1850  176.0370  141.6810 O   0  0  0  0  0  0  0  0  0  0  0  0
  191.0460  176.4430  142.4430 C   0  0  0  0  0  0  0  0  0  0  0  0
  192.2070  177.2160  141.9080 C   0  0  0  0  0  2  0  0  0  0  0  0
  191.8450  177.8510  140.7200 O   0  0  0  0  0  1  0  0  0  0  0  0
  1  4  1  0  0  0  0
  2  6  1  0  0  0  0
  3  1  1  0  0  0  0
  3  2  1  0  0  0  0
  4  6  2  0  0  0  0
  5  1  2  0  0  0  0
  6 36  1  0  0  0  0
  7  5  2  0  0  0  0
  8  2  2  0  0  0  0
  9 10  1  6  0  0  0
  9  7  1  0  0  0  0
 11  9  1  0  0  0  0
 12 11  1  0  0  0  0
 13 15  1  0  0  0  0
 15 14  1  0  0  0  0
 15 12  1  0  0  0  0
 16 15  1  0  0  0  0
 17  8  1  0  0  0  0
 18 21  1  6  0  0  0
 18 19  1  0  0  0  0
 18 20  1  0  0  0  0
 19 20  1  0  0  0  0
 20 17  1  1  0  0  0
 21 23  2  0  0  0  0
 22 21  1  0  0  0  0
 24 22  1  0  0  0  0
 25 24  1  0  0  0  0
 26 30  1  6  0  0  0
 27 26  1  0  0  0  0
 28 27  1  0  0  0  0
 29 25  1  1  0  0  0
 29 28  1  0  0  0  0
 29 30  1  0  0  0  0
 31 34  1  0  0  0  0
 31 35  1  0  0  0  0
 33 32  1  0  0  0  0
 33 26  1  0  0  0  0
 34 33  1  0  0  0  0
 35 32  1  0  0  0  0
 36 37  1  0  0  0  0
 38 37  1  0  0  0  0
 38 39  1  0  0  0  0
 39 40  2  0  0  0  0
 41 42  1  0  0  0  0
 41 39  1  0  0  0  0
 42 43  2  0  0  0  0
 44 45  1  6  0  0  0
 44 42  1  0  0  0  0
 46 47  1  1  0  0  0
 46 44  1  0  0  0  0
 48 49  2  0  0  0  0
 49 46  1  0  0  0  0
 50 49  1  0  0  0  0
 51 50  1  0  0  0  0
M  END
>  <MODEL>
7

>  <REMARK>
 VINA RESULT:      -6.7      4.390      9.652
  Name = 
  20 active torsions:
  status: ('A' for Active; 'I' for Inactive)
    1  A    between atoms: C_1  and  N_30
    2  A    between atoms: C_1  and  C_40
    3  A    between atoms: C_4  and  N_8
    4  A    between atoms: C_4  and  N_30
    5  A    between atoms: C_5  and  C_23
    6  A    between atoms: C_5  and  C_44
    7  A    between atoms: C_6  and  C_9
    8  A    between atoms: N_12  and  C_38
    9  A    between atoms: C_13  and  N_18
   10  A    between atoms: C_14  and  C_15
   11  A    between atoms: C_14  and  C_24
   12  A    between atoms: C_15  and  C_17
   13  A    between atoms: C_17  and  C_25
   14  A    between atoms: C_19  and  C_46
   15  A    between atoms: C_19  and  C_49
   16  A    between atoms: C_23  and  O_35
   17  A    between atoms: C_32  and  C_36
   18  A    between atoms: C_32  and  C_38
   19  A    between atoms: C_33  and  O_35
   20  A    between atoms: C_39  and  C_40
                            x       y       z     vdW  Elec       q    Type
                         _______ _______ _______ _____ _____    ______ ____

>  <TORSDO>
F 20

$$$$
=
 OpenBabel10222417113D

 51 54  0  0  1  0  0  0  0  0999 V2000
  182.3960  178.8270  142.1270 C   0  0  0  0  0  0  0  0  0  0  0  0
  184.8780  178.8210  142.0270 C   0  0  0  0  0  0  0  0  0  0  0  0
  183.5860  178.6730  140.9530 S   0  0  0  0  0  0  0  0  0  0  0  0
  182.9710  178.9930  143.3780 C   0  0  0  0  0  3  0  0  0  0  0  0
  181.1140  178.7640  141.9000 C   0  0  0  0  0  0  0  0  0  0  0  0
  184.3730  178.9950  143.3150 C   0  0  0  0  0  0  0  0  0  0  0  0
  179.8320  178.6970  141.6680 C   0  0  0  0  0  3  0  0  0  0  0  0
  186.1720  178.7770  141.7070 C   0  0  0  0  0  3  0  0  0  0  0  0
  179.2520  179.3050  140.4380 C   0  0  2  0  0  3  0  0  0  0  0  0
  179.3170  178.3990  139.3950 F   0  0  0  0  0  0  0  0  0  0  0  0
  180.0250  180.5530  140.0620 C   0  0  0  0  0  2  0  0  0  0  0  0
  180.7480  180.3330  138.8770 O   0  0  0  0  0  0  0  0  0  0  0  0
  180.6640  181.1130  136.5840 C   0  0  0  0  0  1  0  0  0  0  0  0
  179.4570  182.1120  138.3350 F   0  0  0  0  0  0  0  0  0  0  0  0
  180.6560  181.4830  138.0640 C   0  0  0  0  0  0  0  0  0  0  0  0
  181.6810  182.3810  138.3330 F   0  0  0  0  0  0  0  0  0  0  0  0
  186.6480  178.5890  140.3060 C   0  0  0  0  0  2  0  0  0  0  0  0
  188.6670  177.3250  139.6540 C   0  0  1  0  0  3  0  0  0  0  0  0
  188.7000  177.5170  141.1590 C   0  0  0  0  0  2  0  0  0  0  0  0
  188.1610  178.6170  140.2730 C   0  0  2  0  0  3  0  0  0  0  0  0
  190.0450  177.5070  139.0880 C   0  0  0  0  0  0  0  0  0  0  0  0
  190.2370  177.8660  137.7180 N   0  0  0  0  0  2  0  0  0  0  0  0
  191.0530  177.3910  139.8370 O   0  0  0  0  0  0  0  0  0  0  0  0
  189.1290  178.0520  136.7910 C   0  0  0  0  0  2  0  0  0  0  0  0
  188.8480  176.7610  136.0410 C   0  0  0  0  0  2  0  0  0  0  0  0
  185.9200  175.0470  137.1470 C   0  0  2  0  0  3  0  0  0  0  0  0
  185.5230  176.5100  137.1880 C   0  0  0  0  0  2  0  0  0  0  0  0
  186.6470  177.2770  136.8540 O   0  0  0  0  0  0  0  0  0  0  0  0
  187.3540  176.5090  135.9120 C   0  0  2  0  0  3  0  0  0  0  0  0
  187.0690  175.0460  136.1700 C   0  0  0  0  0  2  0  0  0  0  0  0
  184.5890  172.1790  135.4100 C   0  0  0  0  0  2  0  0  0  0  0  0
  184.6040  173.1260  137.6180 C   0  0  0  0  0  2  0  0  0  0  0  0
  184.8150  174.2120  136.6650 N   0  0  0  0  0  0  0  0  0  0  0  0
  185.2430  173.5410  135.4410 C   0  0  0  0  0  2  0  0  0  0  0  0
  184.1990  171.8950  136.8380 C   0  0  0  0  0  2  0  0  0  0  0  0
  185.2250  179.1190  144.5390 C   0  0  0  0  0  2  0  0  0  0  0  0
  184.5970  178.3780  145.7060 C   0  0  0  0  0  2  0  0  0  0  0  0
  185.6290  177.6860  146.4640 N   0  0  0  0  0  2  0  0  0  0  0  0
  186.7390  178.3440  147.0830 C   0  0  0  0  0  0  0  0  0  0  0  0
  186.5310  179.7360  147.9230 S   0  0  0  0  0  0  0  0  0  0  0  0
  188.0580  177.7970  146.9820 N   0  0  0  0  0  2  0  0  0  0  0  0
  188.7420  177.4960  145.7620 C   0  0  0  0  0  0  0  0  0  0  0  0
  188.2010  177.7110  144.6430 O   0  0  0  0  0  0  0  0  0  0  0  0
  190.1190  176.9160  145.8290 C   0  0  2  0  0  3  0  0  0  0  0  0
  190.5270  176.7520  147.2850 C   0  0  0  0  0  1  0  0  0  0  0  0
  191.1280  177.7790  145.0610 C   0  0  2  0  0  3  0  0  0  0  0  0
  190.5720  179.0250  144.7560 O   0  0  0  0  0  1  0  0  0  0  0  0
  191.9310  177.8030  142.8510 O   0  0  0  0  0  0  0  0  0  0  0  0
  191.5800  177.1150  143.7950 C   0  0  0  0  0  0  0  0  0  0  0  0
  191.5870  175.6260  143.6720 C   0  0  0  0  0  2  0  0  0  0  0  0
  190.5390  175.2140  142.8480 O   0  0  0  0  0  1  0  0  0  0  0  0
  1  4  1  0  0  0  0
  2  6  1  0  0  0  0
  3  2  1  0  0  0  0
  3  1  1  0  0  0  0
  5  1  2  0  0  0  0
  6  4  2  0  0  0  0
  6 36  1  0  0  0  0
  7  5  2  0  0  0  0
  8  2  2  0  0  0  0
  9 10  1  6  0  0  0
  9  7  1  0  0  0  0
 11  9  1  0  0  0  0
 12 11  1  0  0  0  0
 13 15  1  0  0  0  0
 15 16  1  0  0  0  0
 15 14  1  0  0  0  0
 15 12  1  0  0  0  0
 17  8  1  0  0  0  0
 18 21  1  6  0  0  0
 18 20  1  0  0  0  0
 18 19  1  0  0  0  0
 20 17  1  1  0  0  0
 20 19  1  0  0  0  0
 21 23  2  0  0  0  0
 22 21  1  0  0  0  0
 24 22  1  0  0  0  0
 25 24  1  0  0  0  0
 26 30  1  6  0  0  0
 26 27  1  0  0  0  0
 28 27  1  0  0  0  0
 29 25  1  1  0  0  0
 29 30  1  0  0  0  0
 29 28  1  0  0  0  0
 31 34  1  0  0  0  0
 31 35  1  0  0  0  0
 33 26  1  0  0  0  0
 33 32  1  0  0  0  0
 34 33  1  0  0  0  0
 35 32  1  0  0  0  0
 36 37  1  0  0  0  0
 37 38  1  0  0  0  0
 38 39  1  0  0  0  0
 39 40  2  0  0  0  0
 41 39  1  0  0  0  0
 42 44  1  0  0  0  0
 42 41  1  0  0  0  0
 43 42  2  0  0  0  0
 44 45  1  1  0  0  0
 46 47  1  6  0  0  0
 46 44  1  0  0  0  0
 48 49  2  0  0  0  0
 49 46  1  0  0  0  0
 50 49  1  0  0  0  0
 51 50  1  0  0  0  0
M  END
>  <MODEL>
8

>  <REMARK>
 VINA RESULT:      -6.7      5.233      9.608
  Name = 
  20 active torsions:
  status: ('A' for Active; 'I' for Inactive)
    1  A    between atoms: C_1  and  N_30
    2  A    between atoms: C_1  and  C_40
    3  A    between atoms: C_4  and  N_8
    4  A    between atoms: C_4  and  N_30
    5  A    between atoms: C_5  and  C_23
    6  A    between atoms: C_5  and  C_44
    7  A    between atoms: C_6  and  C_9
    8  A    between atoms: N_12  and  C_38
    9  A    between atoms: C_13  and  N_18
   10  A    between atoms: C_14  and  C_15
   11  A    between atoms: C_14  and  C_24
   12  A    between atoms: C_15  and  C_17
   13  A    between atoms: C_17  and  C_25
   14  A    between atoms: C_19  and  C_46
   15  A    between atoms: C_19  and  C_49
   16  A    between atoms: C_23  and  O_35
   17  A    between atoms: C_32  and  C_36
   18  A    between atoms: C_32  and  C_38
   19  A    between atoms: C_33  and  O_35
   20  A    between atoms: C_39  and  C_40
                            x       y       z     vdW  Elec       q    Type
                         _______ _______ _______ _____ _____    ______ ____

>  <TORSDO>
F 20

$$$$
=
 OpenBabel10222417113D

 51 54  0  0  1  0  0  0  0  0999 V2000
  190.0470  176.9990  142.9630 C   0  0  0  0  0  0  0  0  0  0  0  0
  188.1380  177.9130  141.6630 C   0  0  0  0  0  0  0  0  0  0  0  0
  188.4680  177.4860  143.2600 S   0  0  0  0  0  0  0  0  0  0  0  0
  190.3550  177.1530  141.6190 C   0  0  0  0  0  2  0  0  0  0  0  0
  190.8570  176.5120  143.8600 C   0  0  0  0  0  0  0  0  0  0  0  0
  189.2750  177.6760  140.8900 C   0  0  0  0  0  0  0  0  0  0  0  0
  191.6640  176.0220  144.7610 C   0  0  0  0  0  3  0  0  0  0  0  0
  186.9840  178.3970  141.2040 C   0  0  0  0  0  2  0  0  0  0  0  0
  191.6760  176.5730  146.1450 C   0  0  2  0  0  3  0  0  0  0  0  0
  191.8130  175.5410  147.0560 F   0  0  0  0  0  0  0  0  0  0  0  0
  190.3820  177.3120  146.4220 C   0  0  0  0  0  2  0  0  0  0  0  0
  189.8880  176.9600  147.6890 O   0  0  0  0  0  0  0  0  0  0  0  0
  187.8700  177.8800  146.7120 C   0  0  0  0  0  1  0  0  0  0  0  0
  187.9850  177.0590  148.9110 F   0  0  0  0  0  0  0  0  0  0  0  0
  188.7330  177.7250  147.9600 C   0  0  0  0  0  0  0  0  0  0  0  0
  189.0570  178.9750  148.4700 F   0  0  0  0  0  0  0  0  0  0  0  0
  185.8020  178.6300  142.0840 C   0  0  0  0  0  2  0  0  0  0  0  0
  183.8090  177.7920  140.8910 C   0  0  1  0  0  3  0  0  0  0  0  0
  184.7380  178.4190  139.8690 C   0  0  0  0  0  2  0  0  0  0  0  0
  184.6100  179.0340  141.2430 C   0  0  2  0  0  3  0  0  0  0  0  0
  182.3860  178.1480  140.5700 C   0  0  0  0  0  0  0  0  0  0  0  0
  181.6380  177.3970  139.6130 N   0  0  0  0  0  2  0  0  0  0  0  0
  181.8200  179.0920  141.1850 O   0  0  0  0  0  0  0  0  0  0  0  0
  182.2020  176.2720  138.8790 C   0  0  0  0  0  2  0  0  0  0  0  0
  182.5290  176.6830  137.4540 C   0  0  0  0  0  2  0  0  0  0  0  0
  183.7580  173.3350  137.3600 C   0  0  2  0  0  3  0  0  0  0  0  0
  182.6510  173.3450  136.3240 C   0  0  0  0  0  2  0  0  0  0  0  0
  182.0400  174.6060  136.3510 O   0  0  0  0  0  0  0  0  0  0  0  0
  183.0720  175.5120  136.6500 C   0  0  2  0  0  3  0  0  0  0  0  0
  184.1260  174.7940  137.4630 C   0  0  0  0  0  2  0  0  0  0  0  0
  186.6350  172.7470  135.2650 C   0  0  0  0  0  2  0  0  0  0  0  0
  186.0990  173.0030  137.5940 C   0  0  0  0  0  2  0  0  0  0  0  0
  184.8990  172.5320  136.9080 N   0  0  0  0  0  0  0  0  0  0  0  0
  185.1450  172.8300  135.5000 C   0  0  0  0  0  2  0  0  0  0  0  0
  187.2590  172.8890  136.6300 C   0  0  0  0  0  2  0  0  0  0  0  0
  189.3440  177.8970  139.4120 C   0  0  0  0  0  2  0  0  0  0  0  0
  189.7930  176.6310  138.7020 C   0  0  0  0  0  2  0  0  0  0  0  0
  189.4700  176.7200  137.2860 N   0  0  0  0  0  2  0  0  0  0  0  0
  190.0100  175.8480  136.2890 C   0  0  0  0  0  0  0  0  0  0  0  0
  189.3290  175.7440  134.8020 S   0  0  0  0  0  0  0  0  0  0  0  0
  191.1620  175.0460  136.5710 N   0  0  0  0  0  2  0  0  0  0  0  0
  192.4990  175.3340  136.1500 C   0  0  0  0  0  0  0  0  0  0  0  0
  192.7600  176.3670  135.4760 O   0  0  0  0  0  0  0  0  0  0  0  0
  193.5940  174.3860  136.5210 C   0  0  2  0  0  3  0  0  0  0  0  0
  193.1080  172.9560  136.3350 C   0  0  0  0  0  1  0  0  0  0  0  0
  194.0820  174.6260  137.9540 C   0  0  2  0  0  3  0  0  0  0  0  0
  194.0590  175.9910  138.2560 O   0  0  0  0  0  1  0  0  0  0  0  0
  195.6840  173.3350  139.0960 O   0  0  0  0  0  0  0  0  0  0  0  0
  195.4700  174.0960  138.1670 C   0  0  0  0  0  0  0  0  0  0  0  0
  196.5910  174.5040  137.2680 C   0  0  0  0  0  2  0  0  0  0  0  0
  197.8130  174.2600  137.8950 O   0  0  0  0  0  1  0  0  0  0  0  0
  1  3  1  0  0  0  0
  1  5  2  0  0  0  0
  2  3  1  0  0  0  0
  4  1  1  0  0  0  0
  5  7  2  0  0  0  0
  6  4  1  0  0  0  0
  6  2  2  0  0  0  0
  7  9  1  0  0  0  0
  8  2  1  0  0  0  0
  8 17  1  0  0  0  0
  9 11  1  0  0  0  0
  9 10  1  1  0  0  0
 11 12  1  0  0  0  0
 12 15  1  0  0  0  0
 13 15  1  0  0  0  0
 15 16  1  0  0  0  0
 15 14  1  0  0  0  0
 18 21  1  6  0  0  0
 18 20  1  0  0  0  0
 19 18  1  0  0  0  0
 19 20  1  0  0  0  0
 20 17  1  1  0  0  0
 21 23  2  0  0  0  0
 22 21  1  0  0  0  0
 24 22  1  0  0  0  0
 25 24  1  0  0  0  0
 26 27  1  6  0  0  0
 26 30  1  0  0  0  0
 27 28  1  0  0  0  0
 28 29  1  0  0  0  0
 29 25  1  1  0  0  0
 29 30  1  0  0  0  0
 31 34  1  0  0  0  0
 31 35  1  0  0  0  0
 33 26  1  0  0  0  0
 33 32  1  0  0  0  0
 34 33  1  0  0  0  0
 35 32  1  0  0  0  0
 36  6  1  0  0  0  0
 37 36  1  0  0  0  0
 38 37  1  0  0  0  0
 39 41  1  0  0  0  0
 39 38  1  0  0  0  0
 40 39  2  0  0  0  0
 42 44  1  0  0  0  0
 42 41  1  0  0  0  0
 43 42  2  0  0  0  0
 44 45  1  1  0  0  0
 44 46  1  0  0  0  0
 46 49  1  0  0  0  0
 46 47  1  6  0  0  0
 49 48  2  0  0  0  0
 50 51  1  0  0  0  0
 50 49  1  0  0  0  0
M  END
>  <MODEL>
9

>  <REMARK>
 VINA RESULT:      -6.7      2.282      4.459
  Name = 
  20 active torsions:
  status: ('A' for Active; 'I' for Inactive)
    1  A    between atoms: C_1  and  N_30
    2  A    between atoms: C_1  and  C_40
    3  A    between atoms: C_4  and  N_8
    4  A    between atoms: C_4  and  N_30
    5  A    between atoms: C_5  and  C_23
    6  A    between atoms: C_5  and  C_44
    7  A    between atoms: C_6  and  C_9
    8  A    between atoms: N_12  and  C_38
    9  A    between atoms: C_13  and  N_18
   10  A    between atoms: C_14  and  C_15
   11  A    between atoms: C_14  and  C_24
   12  A    between atoms: C_15  and  C_17
   13  A    between atoms: C_17  and  C_25
   14  A    between atoms: C_19  and  C_46
   15  A    between atoms: C_19  and  C_49
   16  A    between atoms: C_23  and  O_35
   17  A    between atoms: C_32  and  C_36
   18  A    between atoms: C_32  and  C_38
   19  A    between atoms: C_33  and  O_35
   20  A    between atoms: C_39  and  C_40
                            x       y       z     vdW  Elec       q    Type
                         _______ _______ _______ _____ _____    ______ ____

>  <TORSDO>
F 20

$$$$
