=
 OpenBabel10222418423D

 41 49  0  0  1  0  0  0  0  0999 V2000
  186.4690  178.5590  138.7250 N   0  0  0  0  0  0  0  0  0  0  0  0
  192.0480  176.3680  137.8990 C   0  0  0  0  0  2  0  0  0  0  0  0
  189.4100  176.6530  137.7480 C   0  0  0  0  0  0  0  0  0  0  0  0
  188.0600  175.0310  136.4810 C   0  0  0  0  0  3  0  0  0  0  0  0
  189.1090  177.8350  139.6950 N   0  0  0  0  0  2  0  0  0  0  0  0
  186.8290  175.2390  136.9490 C   0  0  0  0  0  3  0  0  0  0  0  0
  184.3870  177.8720  137.8800 N   0  0  0  0  0  0  0  0  0  0  0  0
  191.2750  175.4500  138.6440 O   0  0  0  0  0  0  0  0  0  0  0  0
  186.3170  176.5150  137.4890 C   0  0  0  0  0  0  0  0  0  0  0  0
  190.7230  176.7310  138.4480 C   0  0  1  0  0  0  0  0  0  0  0  0
  184.9480  176.7520  137.3590 C   0  0  0  0  0  3  0  0  0  0  0  0
  187.0890  177.4630  138.2070 C   0  0  0  0  0  0  0  0  0  0  0  0
  185.1400  178.7740  138.5550 C   0  0  0  0  0  0  0  0  0  0  0  0
  189.0840  176.1100  136.3800 C   0  0  2  0  0  3  0  0  0  0  0  0
  188.5250  177.2820  138.5150 C   0  0  0  0  0  0  0  0  0  0  0  0
  184.5330  179.9380  139.1020 N   0  0  0  0  0  1  0  0  0  0  0  0
  190.5350  177.5310  139.7400 C   0  0  2  0  0  3  0  0  0  0  0  0
  191.5330  177.4200  143.2850 C   0  0  0  0  0  2  0  0  0  0  0  0
  189.6660  176.6640  141.9440 C   0  0  0  0  0  2  0  0  0  0  0  0
  188.1410  176.5280  144.3580 O   0  0  0  0  0  0  0  0  0  0  0  0
  190.8770  176.7670  141.0270 C   0  0  2  0  0  3  0  0  0  0  0  0
  191.9480  177.5050  141.8290 C   0  0  0  0  0  2  0  0  0  0  0  0
  190.1520  176.9910  143.2690 N   0  0  0  0  0  0  0  0  0  0  0  0
  189.3430  176.9040  144.4460 C   0  0  0  0  0  0  0  0  0  0  0  0
  189.8960  177.2440  145.7190 N   0  0  0  0  0  2  0  0  0  0  0  0
  188.9700  178.1010  149.0850 N   0  0  0  0  0  2  0  0  0  0  0  0
  189.1140  177.1780  146.9420 C   0  0  1  0  0  3  0  0  0  0  0  0
  189.4180  178.3570  147.7780 N   0  0  1  0  0  0  0  0  0  0  0  0
  187.5650  177.9700  149.1170 C   0  0  0  0  0  3  0  0  0  0  0  0
  187.0800  178.0550  147.9320 N   0  0  0  0  0  0  0  0  0  0  0  0
  188.1670  178.3010  146.9820 C   0  0  2  0  0  3  0  0  0  0  0  0
  190.2920  175.6060  135.6060 C   0  0  1  0  0  3  0  0  0  0  0  0
  190.4170  174.1360  135.7520 C   0  0  1  0  0  3  0  0  0  0  0  0
  189.8610  174.7240  134.5990 O   0  0  0  0  0  0  0  0  0  0  0  0
  194.4700  172.9050  135.0250 C   0  0  0  0  0  0  0  0  0  0  0  0
  192.2140  172.3780  135.7320 C   0  0  0  0  0  3  0  0  0  0  0  0
  194.0850  174.2270  134.7830 C   0  0  0  0  0  3  0  0  0  0  0  0
  191.8200  173.6990  135.4760 C   0  0  0  0  0  0  0  0  0  0  0  0
  195.8730  172.4830  134.7810 C   0  0  0  0  0  1  0  0  0  0  0  0
  192.7650  174.6250  135.0120 C   0  0  0  0  0  3  0  0  0  0  0  0
  193.5340  171.9820  135.5020 C   0  0  0  0  0  3  0  0  0  0  0  0
  2  8  1  0  0  0  0
  3 10  1  0  0  0  0
  3 15  2  0  0  0  0
  4  6  2  0  0  0  0
  6  9  1  0  0  0  0
  7 13  1  0  0  0  0
  9 12  2  0  0  0  0
 10  2  1  6  0  0  0
 10  8  1  0  0  0  0
 10 17  1  0  0  0  0
 11  9  1  0  0  0  0
 11  7  2  0  0  0  0
 12 15  1  0  0  0  0
 12  1  1  0  0  0  0
 13  1  2  0  0  0  0
 13 16  1  0  0  0  0
 14  4  1  1  0  0  0
 14  3  1  0  0  0  0
 15  5  1  0  0  0  0
 17  5  1  1  0  0  0
 17 21  1  0  0  0  0
 19 23  1  0  0  0  0
 20 24  2  0  0  0  0
 21 22  1  1  0  0  0
 21 19  1  0  0  0  0
 22 18  1  0  0  0  0
 23 18  1  0  0  0  0
 23 24  1  0  0  0  0
 24 25  1  0  0  0  0
 26 29  1  0  0  0  0
 27 25  1  6  0  0  0
 27 31  1  0  0  0  0
 27 28  1  0  0  0  0
 28 26  1  1  0  0  0
 30 29  2  0  0  0  0
 31 28  1  0  0  0  0
 31 30  1  1  0  0  0
 32 34  1  6  0  0  0
 32 33  1  0  0  0  0
 32 14  1  0  0  0  0
 33 38  1  6  0  0  0
 34 33  1  0  0  0  0
 35 41  1  0  0  0  0
 37 40  1  0  0  0  0
 37 35  2  0  0  0  0
 38 36  1  0  0  0  0
 39 35  1  0  0  0  0
 40 38  2  0  0  0  0
 41 36  2  0  0  0  0
M  END
>  <MODEL>
1

>  <REMARK>
 VINA RESULT:      -8.6      0.000      0.000
  Name = 
  4 active torsions:
  status: ('A' for Active; 'I' for Inactive)
    1  A    between atoms: C_10  and  N_33
    2  A    between atoms: C_14  and  C_31
    3  A    between atoms: C_16  and  C_41
    4  A    between atoms: C_27  and  C_29
                            x       y       z     vdW  Elec       q    Type
                         _______ _______ _______ _____ _____    ______ ____

>  <TORSDO>
F 4

$$$$
=
 OpenBabel10222418423D

 41 49  0  0  1  0  0  0  0  0999 V2000
  190.8630  178.6450  143.0160 N   0  0  0  0  0  0  0  0  0  0  0  0
  187.5640  178.0920  137.9750 C   0  0  0  0  0  2  0  0  0  0  0  0
  188.2710  178.0390  140.5360 C   0  0  0  0  0  0  0  0  0  0  0  0
  186.6920  177.2260  142.2410 C   0  0  0  0  0  3  0  0  0  0  0  0
  190.5430  177.8820  140.2320 N   0  0  0  0  0  2  0  0  0  0  0  0
  187.4850  176.9630  143.2800 C   0  0  0  0  0  3  0  0  0  0  0  0
  190.3330  178.2600  145.2720 N   0  0  0  0  0  0  0  0  0  0  0  0
  187.8130  176.8170  138.5300 O   0  0  0  0  0  0  0  0  0  0  0  0
  188.7670  177.6370  143.5770 C   0  0  0  0  0  0  0  0  0  0  0  0
  188.5320  177.8980  139.0760 C   0  0  1  0  0  0  0  0  0  0  0  0
  189.1440  177.7120  144.9180 C   0  0  0  0  0  3  0  0  0  0  0  0
  189.6760  178.1220  142.6030 C   0  0  0  0  0  0  0  0  0  0  0  0
  191.1880  178.7290  144.3310 C   0  0  0  0  0  0  0  0  0  0  0  0
  186.9740  178.3100  141.2560 C   0  0  2  0  0  3  0  0  0  0  0  0
  189.4510  178.0040  141.1450 C   0  0  0  0  0  0  0  0  0  0  0  0
  192.4340  179.2940  144.7200 N   0  0  0  0  0  1  0  0  0  0  0  0
  190.0450  177.8080  138.8620 C   0  0  2  0  0  3  0  0  0  0  0  0
  191.8680  176.0040  136.2160 C   0  0  0  0  0  2  0  0  0  0  0  0
  191.9400  176.1580  138.6300 C   0  0  0  0  0  2  0  0  0  0  0  0
  194.6070  175.1400  138.4960 O   0  0  0  0  0  0  0  0  0  0  0  0
  190.5270  176.5140  138.1900 C   0  0  2  0  0  3  0  0  0  0  0  0
  190.5900  176.6810  136.6730 C   0  0  0  0  0  2  0  0  0  0  0  0
  192.6460  175.7960  137.4180 N   0  0  0  0  0  0  0  0  0  0  0  0
  193.9840  175.2910  137.4100 C   0  0  0  0  0  0  0  0  0  0  0  0
  194.6130  174.9550  136.1710 N   0  0  0  0  0  2  0  0  0  0  0  0
  197.5880  173.6940  134.5950 N   0  0  0  0  0  2  0  0  0  0  0  0
  195.9720  174.4440  136.1090 C   0  0  1  0  0  3  0  0  0  0  0  0
  196.4570  174.5210  134.7160 N   0  0  1  0  0  0  0  0  0  0  0  0
  198.6490  174.1770  135.3910 C   0  0  0  0  0  3  0  0  0  0  0  0
  198.2740  175.2040  136.0620 N   0  0  0  0  0  0  0  0  0  0  0  0
  196.8870  175.5260  135.7200 C   0  0  2  0  0  3  0  0  0  0  0  0
  185.7790  178.4970  140.3360 C   0  0  1  0  0  3  0  0  0  0  0  0
  184.5730  178.8420  141.1280 C   0  0  1  0  0  3  0  0  0  0  0  0
  185.3170  179.8210  140.4410 O   0  0  0  0  0  0  0  0  0  0  0  0
  180.9640  177.9120  138.9880 C   0  0  0  0  0  0  0  0  0  0  0  0
  182.6690  179.5090  139.6270 C   0  0  0  0  0  3  0  0  0  0  0  0
  181.6120  176.9220  139.7320 C   0  0  0  0  0  3  0  0  0  0  0  0
  183.3310  178.5150  140.3620 C   0  0  0  0  0  0  0  0  0  0  0  0
  179.7120  177.5920  138.2560 C   0  0  0  0  0  1  0  0  0  0  0  0
  182.7900  177.2230  140.4210 C   0  0  0  0  0  3  0  0  0  0  0  0
  181.4910  179.2060  138.9390 C   0  0  0  0  0  3  0  0  0  0  0  0
  1 13  2  0  0  0  0
  2  8  1  0  0  0  0
  3 15  2  0  0  0  0
  3 14  1  0  0  0  0
  4  6  2  0  0  0  0
  5 15  1  0  0  0  0
  6  9  1  0  0  0  0
  8 10  1  0  0  0  0
  9 11  1  0  0  0  0
 10  2  1  6  0  0  0
 10  3  1  0  0  0  0
 11  7  2  0  0  0  0
 12  1  1  0  0  0  0
 12  9  2  0  0  0  0
 13 16  1  0  0  0  0
 13  7  1  0  0  0  0
 14  4  1  1  0  0  0
 15 12  1  0  0  0  0
 17 10  1  0  0  0  0
 17  5  1  1  0  0  0
 18 22  1  0  0  0  0
 18 23  1  0  0  0  0
 21 22  1  6  0  0  0
 21 19  1  0  0  0  0
 21 17  1  0  0  0  0
 23 19  1  0  0  0  0
 24 23  1  0  0  0  0
 24 20  2  0  0  0  0
 25 24  1  0  0  0  0
 26 29  1  0  0  0  0
 27 25  1  6  0  0  0
 28 26  1  1  0  0  0
 28 31  1  0  0  0  0
 28 27  1  0  0  0  0
 29 30  2  0  0  0  0
 31 30  1  1  0  0  0
 31 27  1  0  0  0  0
 32 34  1  6  0  0  0
 32 33  1  0  0  0  0
 32 14  1  0  0  0  0
 33 38  1  6  0  0  0
 34 33  1  0  0  0  0
 35 37  1  0  0  0  0
 36 38  2  0  0  0  0
 37 40  2  0  0  0  0
 38 40  1  0  0  0  0
 39 35  1  0  0  0  0
 41 35  2  0  0  0  0
 41 36  1  0  0  0  0
M  END
>  <MODEL>
2

>  <REMARK>
 VINA RESULT:      -8.5      3.993     10.010
  Name = 
  4 active torsions:
  status: ('A' for Active; 'I' for Inactive)
    1  A    between atoms: C_10  and  N_33
    2  A    between atoms: C_14  and  C_31
    3  A    between atoms: C_16  and  C_41
    4  A    between atoms: C_27  and  C_29
                            x       y       z     vdW  Elec       q    Type
                         _______ _______ _______ _____ _____    ______ ____

>  <TORSDO>
F 4

$$$$
=
 OpenBabel10222418423D

 41 49  0  0  1  0  0  0  0  0999 V2000
  187.5630  178.4210  136.9360 N   0  0  0  0  0  0  0  0  0  0  0  0
  185.6900  179.2390  142.6290 C   0  0  0  0  0  2  0  0  0  0  0  0
  187.1110  178.4020  140.5450 C   0  0  0  0  0  0  0  0  0  0  0  0
  189.0220  176.8870  140.8760 C   0  0  0  0  0  3  0  0  0  0  0  0
  185.4750  178.6150  138.9450 N   0  0  0  0  0  2  0  0  0  0  0  0
  189.2140  176.3790  139.6580 C   0  0  0  0  0  3  0  0  0  0  0  0
  189.3920  177.2370  136.0540 N   0  0  0  0  0  0  0  0  0  0  0  0
  185.5160  177.8880  142.2540 O   0  0  0  0  0  0  0  0  0  0  0  0
  188.8880  177.0530  138.3840 C   0  0  0  0  0  0  0  0  0  0  0  0
  185.8450  178.7940  141.2280 C   0  0  1  0  0  0  0  0  0  0  0  0
  189.6620  176.7110  137.2740 C   0  0  0  0  0  3  0  0  0  0  0  0
  187.7990  177.9380  138.1860 C   0  0  0  0  0  0  0  0  0  0  0  0
  188.3530  178.0910  135.8820 C   0  0  0  0  0  0  0  0  0  0  0  0
  188.5010  178.2650  141.1100 C   0  0  2  0  0  3  0  0  0  0  0  0
  186.8340  178.2960  139.2500 C   0  0  0  0  0  0  0  0  0  0  0  0
  188.0790  178.6270  134.5940 N   0  0  0  0  0  1  0  0  0  0  0  0
  184.7530  178.9530  140.1660 C   0  0  2  0  0  3  0  0  0  0  0  0
  181.4870  177.6340  139.0870 C   0  0  0  0  0  2  0  0  0  0  0  0
  183.6980  176.7530  139.5230 C   0  0  0  0  0  2  0  0  0  0  0  0
  182.9790  174.4870  137.9370 O   0  0  0  0  0  0  0  0  0  0  0  0
  183.5420  178.0260  140.3430 C   0  0  2  0  0  3  0  0  0  0  0  0
  182.2660  178.6970  139.8360 C   0  0  0  0  0  2  0  0  0  0  0  0
  182.4200  176.5500  138.8720 N   0  0  0  0  0  0  0  0  0  0  0  0
  182.1140  175.3930  138.0880 C   0  0  0  0  0  0  0  0  0  0  0  0
  180.8280  175.2640  137.4780 N   0  0  0  0  0  2  0  0  0  0  0  0
  179.1170  172.2060  136.6740 N   0  0  0  0  0  2  0  0  0  0  0  0
  180.4710  174.1120  136.6670 C   0  0  1  0  0  3  0  0  0  0  0  0
  179.2380  173.5020  137.2050 N   0  0  1  0  0  0  0  0  0  0  0  0
  178.9340  172.2530  135.2750 C   0  0  0  0  0  3  0  0  0  0  0  0
  178.9930  173.4640  134.8550 N   0  0  0  0  0  0  0  0  0  0  0  0
  179.1870  174.3620  135.9960 C   0  0  2  0  0  3  0  0  0  0  0  0
  188.6120  178.6160  142.5850 C   0  0  1  0  0  3  0  0  0  0  0  0
  189.2520  177.5050  143.3300 C   0  0  1  0  0  3  0  0  0  0  0  0
  189.9690  178.6570  142.9510 O   0  0  0  0  0  0  0  0  0  0  0  0
  188.2610  177.7850  147.5020 C   0  0  0  0  0  0  0  0  0  0  0  0
  187.5670  177.7190  145.1820 C   0  0  0  0  0  3  0  0  0  0  0  0
  189.5960  177.6600  147.1060 C   0  0  0  0  0  3  0  0  0  0  0  0
  188.9020  177.5770  144.7820 C   0  0  0  0  0  0  0  0  0  0  0  0
  187.9200  177.8900  148.9440 C   0  0  0  0  0  1  0  0  0  0  0  0
  189.9170  177.5600  145.7490 C   0  0  0  0  0  3  0  0  0  0  0  0
  187.2470  177.8180  146.5400 C   0  0  0  0  0  3  0  0  0  0  0  0
  1 12  1  0  0  0  0
  3 14  1  0  0  0  0
  3 10  1  0  0  0  0
  5 15  1  0  0  0  0
  6  4  2  0  0  0  0
  7 11  2  0  0  0  0
  8  2  1  0  0  0  0
  9  6  1  0  0  0  0
 10  8  1  0  0  0  0
 10  2  1  1  0  0  0
 11  9  1  0  0  0  0
 12  9  2  0  0  0  0
 12 15  1  0  0  0  0
 13  7  1  0  0  0  0
 13  1  2  0  0  0  0
 14  4  1  1  0  0  0
 14 32  1  0  0  0  0
 15  3  2  0  0  0  0
 16 13  1  0  0  0  0
 17  5  1  6  0  0  0
 17 21  1  0  0  0  0
 17 10  1  0  0  0  0
 18 22  1  0  0  0  0
 20 24  2  0  0  0  0
 21 19  1  6  0  0  0
 22 21  1  0  0  0  0
 23 18  1  0  0  0  0
 23 19  1  0  0  0  0
 24 23  1  0  0  0  0
 25 24  1  0  0  0  0
 27 28  1  0  0  0  0
 27 25  1  1  0  0  0
 28 26  1  6  0  0  0
 29 26  1  0  0  0  0
 30 29  2  0  0  0  0
 31 30  1  6  0  0  0
 31 27  1  0  0  0  0
 31 28  1  0  0  0  0
 32 34  1  6  0  0  0
 32 33  1  0  0  0  0
 33 38  1  1  0  0  0
 34 33  1  0  0  0  0
 35 39  1  0  0  0  0
 36 41  1  0  0  0  0
 37 35  1  0  0  0  0
 38 36  2  0  0  0  0
 38 40  1  0  0  0  0
 40 37  2  0  0  0  0
 41 35  2  0  0  0  0
M  END
>  <MODEL>
3

>  <REMARK>
 VINA RESULT:      -8.3      4.526     10.003
  Name = 
  4 active torsions:
  status: ('A' for Active; 'I' for Inactive)
    1  A    between atoms: C_10  and  N_33
    2  A    between atoms: C_14  and  C_31
    3  A    between atoms: C_16  and  C_41
    4  A    between atoms: C_27  and  C_29
                            x       y       z     vdW  Elec       q    Type
                         _______ _______ _______ _____ _____    ______ ____

>  <TORSDO>
F 4

$$$$
=
 OpenBabel10222418423D

 41 49  0  0  1  0  0  0  0  0999 V2000
  186.6940  176.9620  137.5960 N   0  0  0  0  0  0  0  0  0  0  0  0
  192.6940  176.2440  137.8810 C   0  0  0  0  0  2  0  0  0  0  0  0
  190.1310  175.8010  137.3340 C   0  0  0  0  0  0  0  0  0  0  0  0
  189.4520  173.7430  136.1660 C   0  0  0  0  0  3  0  0  0  0  0  0
  189.2260  177.0800  139.0130 N   0  0  0  0  0  2  0  0  0  0  0  0
  188.1460  173.6710  136.4260 C   0  0  0  0  0  3  0  0  0  0  0  0
  185.0160  175.6550  136.5970 N   0  0  0  0  0  0  0  0  0  0  0  0
  192.0520  175.2470  138.6490 O   0  0  0  0  0  0  0  0  0  0  0  0
  187.2550  174.8210  136.6860 C   0  0  0  0  0  0  0  0  0  0  0  0
  191.2480  176.3050  138.1830 C   0  0  1  0  0  0  0  0  0  0  0  0
  185.9130  174.6710  136.3370 C   0  0  0  0  0  3  0  0  0  0  0  0
  187.6400  176.0160  137.3440 C   0  0  0  0  0  0  0  0  0  0  0  0
  185.4010  176.7970  137.2180 C   0  0  0  0  0  0  0  0  0  0  0  0
  190.1850  175.0360  136.0360 C   0  0  2  0  0  3  0  0  0  0  0  0
  189.0030  176.2590  137.8660 C   0  0  0  0  0  0  0  0  0  0  0  0
  184.4460  177.8150  137.4890 N   0  0  0  0  0  1  0  0  0  0  0  0
  190.6540  177.1710  139.2970 C   0  0  2  0  0  3  0  0  0  0  0  0
  191.4980  177.7750  142.8320 C   0  0  0  0  0  2  0  0  0  0  0  0
  189.6990  176.7380  141.5910 C   0  0  0  0  0  2  0  0  0  0  0  0
  188.0720  177.0500  143.9210 O   0  0  0  0  0  0  0  0  0  0  0  0
  190.9470  176.6810  140.7220 C   0  0  2  0  0  3  0  0  0  0  0  0
  191.9750  177.5800  141.4060 C   0  0  0  0  0  2  0  0  0  0  0  0
  190.1240  177.3260  142.8450 N   0  0  0  0  0  0  0  0  0  0  0  0
  189.2650  177.4580  143.9810 C   0  0  0  0  0  0  0  0  0  0  0  0
  189.7590  178.0490  145.1850 N   0  0  0  0  0  2  0  0  0  0  0  0
  187.6770  176.9880  147.9170 N   0  0  0  0  0  2  0  0  0  0  0  0
  188.9260  178.2110  146.3640 C   0  0  1  0  0  3  0  0  0  0  0  0
  188.7640  176.9030  147.0290 N   0  0  1  0  0  0  0  0  0  0  0  0
  187.9490  177.9060  148.9540 C   0  0  0  0  0  3  0  0  0  0  0  0
  189.0890  178.4650  148.7710 N   0  0  0  0  0  0  0  0  0  0  0  0
  189.7120  177.9090  147.5680 C   0  0  2  0  0  3  0  0  0  0  0  0
  191.5920  174.7820  135.5200 C   0  0  1  0  0  3  0  0  0  0  0  0
  192.0330  173.4140  135.8840 C   0  0  1  0  0  3  0  0  0  0  0  0
  191.5620  173.7250  134.5940 O   0  0  0  0  0  0  0  0  0  0  0  0
  196.3170  173.0820  135.8410 C   0  0  0  0  0  0  0  0  0  0  0  0
  194.2440  173.6100  134.7050 C   0  0  0  0  0  3  0  0  0  0  0  0
  195.6030  172.7800  137.0040 C   0  0  0  0  0  3  0  0  0  0  0  0
  193.5260  173.3240  135.8740 C   0  0  0  0  0  0  0  0  0  0  0  0
  197.7980  172.9580  135.8250 C   0  0  0  0  0  1  0  0  0  0  0  0
  194.2100  172.8960  137.0200 C   0  0  0  0  0  3  0  0  0  0  0  0
  195.6370  173.4930  134.6910 C   0  0  0  0  0  3  0  0  0  0  0  0
  2  8  1  0  0  0  0
  3 15  2  0  0  0  0
  3 10  1  0  0  0  0
  4  6  2  0  0  0  0
  6  9  1  0  0  0  0
  7 13  1  0  0  0  0
  9 12  2  0  0  0  0
 10  2  1  6  0  0  0
 10  8  1  0  0  0  0
 10 17  1  0  0  0  0
 11  7  2  0  0  0  0
 11  9  1  0  0  0  0
 12  1  1  0  0  0  0
 12 15  1  0  0  0  0
 13 16  1  0  0  0  0
 13  1  2  0  0  0  0
 14  4  1  1  0  0  0
 14  3  1  0  0  0  0
 15  5  1  0  0  0  0
 17  5  1  6  0  0  0
 17 21  1  0  0  0  0
 18 23  1  0  0  0  0
 19 23  1  0  0  0  0
 20 24  2  0  0  0  0
 21 22  1  1  0  0  0
 21 19  1  0  0  0  0
 22 18  1  0  0  0  0
 23 24  1  0  0  0  0
 24 25  1  0  0  0  0
 26 29  1  0  0  0  0
 27 25  1  6  0  0  0
 27 28  1  0  0  0  0
 27 31  1  0  0  0  0
 28 31  1  0  0  0  0
 28 26  1  1  0  0  0
 30 29  2  0  0  0  0
 31 30  1  1  0  0  0
 32 34  1  6  0  0  0
 32 33  1  0  0  0  0
 32 14  1  0  0  0  0
 33 38  1  6  0  0  0
 34 33  1  0  0  0  0
 35 37  1  0  0  0  0
 36 38  2  0  0  0  0
 37 40  2  0  0  0  0
 38 40  1  0  0  0  0
 39 35  1  0  0  0  0
 41 36  1  0  0  0  0
 41 35  2  0  0  0  0
M  END
>  <MODEL>
4

>  <REMARK>
 VINA RESULT:      -8.2      1.183      1.769
  Name = 
  4 active torsions:
  status: ('A' for Active; 'I' for Inactive)
    1  A    between atoms: C_10  and  N_33
    2  A    between atoms: C_14  and  C_31
    3  A    between atoms: C_16  and  C_41
    4  A    between atoms: C_27  and  C_29
                            x       y       z     vdW  Elec       q    Type
                         _______ _______ _______ _____ _____    ______ ____

>  <TORSDO>
F 4

$$$$
=
 OpenBabel10222418423D

 41 49  0  0  1  0  0  0  0  0999 V2000
  183.5630  174.6380  137.9580 N   0  0  0  0  0  0  0  0  0  0  0  0
  181.1270  179.8700  139.7730 C   0  0  0  0  0  2  0  0  0  0  0  0
  182.2000  178.0010  138.2170 C   0  0  0  0  0  0  0  0  0  0  0  0
  182.6270  178.4640  135.8380 C   0  0  0  0  0  3  0  0  0  0  0  0
  183.2950  176.8200  139.8560 N   0  0  0  0  0  2  0  0  0  0  0  0
  183.4980  177.5140  135.5010 C   0  0  0  0  0  3  0  0  0  0  0  0
  184.2630  173.8990  135.8390 N   0  0  0  0  0  0  0  0  0  0  0  0
  182.4700  180.0720  139.3850 O   0  0  0  0  0  0  0  0  0  0  0  0
  183.6020  176.1790  136.1270 C   0  0  0  0  0  0  0  0  0  0  0  0
  182.0390  178.7370  139.5030 C   0  0  1  0  0  0  0  0  0  0  0  0
  184.0800  175.1420  135.3270 C   0  0  0  0  0  3  0  0  0  0  0  0
  183.3440  175.8990  137.4930 C   0  0  0  0  0  0  0  0  0  0  0  0
  184.0020  173.6440  137.1450 C   0  0  0  0  0  0  0  0  0  0  0  0
  181.5710  178.2700  136.8740 C   0  0  2  0  0  3  0  0  0  0  0  0
  182.9400  176.9280  138.4760 C   0  0  0  0  0  0  0  0  0  0  0  0
  184.2060  172.3370  137.6680 N   0  0  0  0  0  1  0  0  0  0  0  0
  182.7530  177.9490  140.6040 C   0  0  2  0  0  3  0  0  0  0  0  0
  184.7770  178.7250  143.5840 C   0  0  0  0  0  2  0  0  0  0  0  0
  185.1640  177.8870  141.3470 C   0  0  0  0  0  2  0  0  0  0  0  0
  187.6510  176.8470  142.2950 O   0  0  0  0  0  0  0  0  0  0  0  0
  183.8830  178.7090  141.3130 C   0  0  2  0  0  3  0  0  0  0  0  0
  183.5220  178.9830  142.7720 C   0  0  0  0  0  2  0  0  0  0  0  0
  185.6690  178.0090  142.6990 N   0  0  0  0  0  0  0  0  0  0  0  0
  186.9250  177.4670  143.1200 C   0  0  0  0  0  0  0  0  0  0  0  0
  187.3550  177.6300  144.4730 N   0  0  0  0  0  2  0  0  0  0  0  0
  190.9010  177.5830  145.0630 N   0  0  0  0  0  2  0  0  0  0  0  0
  188.6180  177.0930  144.9510 C   0  0  1  0  0  3  0  0  0  0  0  0
  189.6270  178.1710  144.9750 N   0  0  1  0  0  0  0  0  0  0  0  0
  191.0530  176.8980  146.2880 C   0  0  0  0  0  3  0  0  0  0  0  0
  189.9630  176.9400  146.9630 N   0  0  0  0  0  0  0  0  0  0  0  0
  188.9690  177.7260  146.2290 C   0  0  2  0  0  3  0  0  0  0  0  0
  180.6100  179.4480  136.8610 C   0  0  1  0  0  3  0  0  0  0  0  0
  180.8980  180.3310  135.7040 C   0  0  1  0  0  3  0  0  0  0  0  0
  179.8390  179.4020  135.6860 O   0  0  0  0  0  0  0  0  0  0  0  0
  179.4300  184.3130  136.3790 C   0  0  0  0  0  0  0  0  0  0  0  0
  179.5020  182.3070  135.0230 C   0  0  0  0  0  3  0  0  0  0  0  0
  180.3050  183.7240  137.2970 C   0  0  0  0  0  3  0  0  0  0  0  0
  180.3660  181.7060  135.9500 C   0  0  0  0  0  0  0  0  0  0  0  0
  178.9310  185.6930  136.6090 C   0  0  0  0  0  1  0  0  0  0  0  0
  180.7750  182.4250  137.0810 C   0  0  0  0  0  3  0  0  0  0  0  0
  179.0320  183.6050  135.2410 C   0  0  0  0  0  3  0  0  0  0  0  0
  3 15  2  0  0  0  0
  3 10  1  0  0  0  0
  6  4  2  0  0  0  0
  6  9  1  0  0  0  0
  7 13  1  0  0  0  0
  8 10  1  0  0  0  0
  8  2  1  0  0  0  0
  9 12  2  0  0  0  0
 10  2  1  1  0  0  0
 10 17  1  0  0  0  0
 11  7  2  0  0  0  0
 11  9  1  0  0  0  0
 12  1  1  0  0  0  0
 12 15  1  0  0  0  0
 13 16  1  0  0  0  0
 13  1  2  0  0  0  0
 14  4  1  6  0  0  0
 14  3  1  0  0  0  0
 15  5  1  0  0  0  0
 17  5  1  6  0  0  0
 17 21  1  0  0  0  0
 19 23  1  0  0  0  0
 20 24  2  0  0  0  0
 21 19  1  1  0  0  0
 21 22  1  0  0  0  0
 22 18  1  0  0  0  0
 23 24  1  0  0  0  0
 23 18  1  0  0  0  0
 24 25  1  0  0  0  0
 26 29  1  0  0  0  0
 27 25  1  6  0  0  0
 27 28  1  0  0  0  0
 27 31  1  0  0  0  0
 28 26  1  1  0  0  0
 28 31  1  0  0  0  0
 29 30  2  0  0  0  0
 31 30  1  1  0  0  0
 32 34  1  6  0  0  0
 32 14  1  0  0  0  0
 33 38  1  1  0  0  0
 33 32  1  0  0  0  0
 34 33  1  0  0  0  0
 35 39  1  0  0  0  0
 35 37  1  0  0  0  0
 36 41  1  0  0  0  0
 36 38  2  0  0  0  0
 38 40  1  0  0  0  0
 40 37  2  0  0  0  0
 41 35  2  0  0  0  0
M  END
>  <MODEL>
5

>  <REMARK>
 VINA RESULT:      -7.9      5.540      9.335
  Name = 
  4 active torsions:
  status: ('A' for Active; 'I' for Inactive)
    1  A    between atoms: C_10  and  N_33
    2  A    between atoms: C_14  and  C_31
    3  A    between atoms: C_16  and  C_41
    4  A    between atoms: C_27  and  C_29
                            x       y       z     vdW  Elec       q    Type
                         _______ _______ _______ _____ _____    ______ ____

>  <TORSDO>
F 4

$$$$
=
 OpenBabel10222418423D

 41 49  0  0  1  0  0  0  0  0999 V2000
  182.8020  174.9400  137.5910 N   0  0  0  0  0  0  0  0  0  0  0  0
  181.3250  180.4290  139.6630 C   0  0  0  0  0  2  0  0  0  0  0  0
  181.8520  178.4290  137.9940 C   0  0  0  0  0  0  0  0  0  0  0  0
  181.7910  178.7960  135.5610 C   0  0  0  0  0  3  0  0  0  0  0  0
  183.1610  177.1770  139.4080 N   0  0  0  0  0  2  0  0  0  0  0  0
  182.4750  177.7550  135.0860 C   0  0  0  0  0  3  0  0  0  0  0  0
  182.9500  174.0900  135.4060 N   0  0  0  0  0  0  0  0  0  0  0  0
  182.5640  180.4860  138.9870 O   0  0  0  0  0  0  0  0  0  0  0  0
  182.5860  176.4310  135.7320 C   0  0  0  0  0  0  0  0  0  0  0  0
  182.0450  179.2040  139.2520 C   0  0  1  0  0  0  0  0  0  0  0  0
  182.7780  175.3330  134.8920 C   0  0  0  0  0  3  0  0  0  0  0  0
  182.6070  176.2070  137.1310 C   0  0  0  0  0  0  0  0  0  0  0  0
  182.9570  173.8900  136.7460 C   0  0  0  0  0  0  0  0  0  0  0  0
  180.9740  178.7320  136.8070 C   0  0  2  0  0  3  0  0  0  0  0  0
  182.5260  177.2920  138.1340 C   0  0  0  0  0  0  0  0  0  0  0  0
  183.1460  172.5800  137.2680 N   0  0  0  0  0  1  0  0  0  0  0  0
  182.9040  178.3710  140.2060 C   0  0  2  0  0  3  0  0  0  0  0  0
  186.3070  178.2180  141.6110 C   0  0  0  0  0  2  0  0  0  0  0  0
  185.2780  178.8960  139.5290 C   0  0  0  0  0  2  0  0  0  0  0  0
  187.8430  178.6030  138.3030 O   0  0  0  0  0  0  0  0  0  0  0  0
  184.2280  179.0280  140.6240 C   0  0  2  0  0  3  0  0  0  0  0  0
  184.8150  178.3350  141.8530 C   0  0  0  0  0  2  0  0  0  0  0  0
  186.4930  178.4880  140.2030 N   0  0  0  0  0  0  0  0  0  0  0  0
  187.7530  178.3580  139.5380 C   0  0  0  0  0  0  0  0  0  0  0  0
  188.9090  177.9500  140.2720 N   0  0  0  0  0  2  0  0  0  0  0  0
  192.4540  177.3640  140.1350 N   0  0  0  0  0  2  0  0  0  0  0  0
  190.2100  177.7970  139.6420 C   0  0  1  0  0  3  0  0  0  0  0  0
  191.1410  177.1620  140.5960 N   0  0  1  0  0  0  0  0  0  0  0  0
  192.6610  176.6990  138.9070 C   0  0  0  0  0  3  0  0  0  0  0  0
  191.5760  176.1440  138.5090 N   0  0  0  0  0  0  0  0  0  0  0  0
  190.5250  176.3690  139.5030 C   0  0  2  0  0  3  0  0  0  0  0  0
  180.1480  180.0000  136.9510 C   0  0  1  0  0  3  0  0  0  0  0  0
  180.6040  181.0210  135.9770 C   0  0  1  0  0  3  0  0  0  0  0  0
  179.4550  180.2400  135.7510 O   0  0  0  0  0  0  0  0  0  0  0  0
  179.5170  184.9520  137.3310 C   0  0  0  0  0  0  0  0  0  0  0  0
  180.8080  183.5240  135.8610 C   0  0  0  0  0  3  0  0  0  0  0  0
  178.9310  183.8240  137.9110 C   0  0  0  0  0  3  0  0  0  0  0  0
  180.2090  182.3910  136.4290 C   0  0  0  0  0  0  0  0  0  0  0  0
  179.1470  186.3100  137.8060 C   0  0  0  0  0  1  0  0  0  0  0  0
  179.2780  182.5460  137.4650 C   0  0  0  0  0  3  0  0  0  0  0  0
  180.4590  184.8010  136.3080 C   0  0  0  0  0  3  0  0  0  0  0  0
  3 15  2  0  0  0  0
  3 10  1  0  0  0  0
  6  4  2  0  0  0  0
  6  9  1  0  0  0  0
  7 13  1  0  0  0  0
  8 10  1  0  0  0  0
  8  2  1  0  0  0  0
  9 12  2  0  0  0  0
 10  2  1  1  0  0  0
 10 17  1  0  0  0  0
 11  7  2  0  0  0  0
 11  9  1  0  0  0  0
 12  1  1  0  0  0  0
 12 15  1  0  0  0  0
 13 16  1  0  0  0  0
 13  1  2  0  0  0  0
 14  4  1  6  0  0  0
 14 32  1  0  0  0  0
 14  3  1  0  0  0  0
 15  5  1  0  0  0  0
 17  5  1  6  0  0  0
 17 21  1  0  0  0  0
 18 22  1  0  0  0  0
 19 23  1  0  0  0  0
 20 24  2  0  0  0  0
 21 19  1  6  0  0  0
 21 22  1  0  0  0  0
 23 18  1  0  0  0  0
 24 23  1  0  0  0  0
 24 25  1  0  0  0  0
 27 25  1  1  0  0  0
 27 28  1  0  0  0  0
 28 26  1  6  0  0  0
 29 26  1  0  0  0  0
 30 29  2  0  0  0  0
 31 30  1  6  0  0  0
 31 27  1  0  0  0  0
 31 28  1  0  0  0  0
 32 34  1  6  0  0  0
 33 38  1  1  0  0  0
 33 32  1  0  0  0  0
 34 33  1  0  0  0  0
 35 39  1  0  0  0  0
 35 37  1  0  0  0  0
 36 41  1  0  0  0  0
 36 38  2  0  0  0  0
 38 40  1  0  0  0  0
 40 37  2  0  0  0  0
 41 35  2  0  0  0  0
M  END
>  <MODEL>
6

>  <REMARK>
 VINA RESULT:      -7.6      4.956     10.249
  Name = 
  4 active torsions:
  status: ('A' for Active; 'I' for Inactive)
    1  A    between atoms: C_10  and  N_33
    2  A    between atoms: C_14  and  C_31
    3  A    between atoms: C_16  and  C_41
    4  A    between atoms: C_27  and  C_29
                            x       y       z     vdW  Elec       q    Type
                         _______ _______ _______ _____ _____    ______ ____

>  <TORSDO>
F 4

$$$$
=
 OpenBabel10222418423D

 41 49  0  0  1  0  0  0  0  0999 V2000
  187.6840  172.7690  136.7400 N   0  0  0  0  0  0  0  0  0  0  0  0
  187.3700  178.3370  139.0850 C   0  0  0  0  0  2  0  0  0  0  0  0
  186.9250  176.2420  137.5110 C   0  0  0  0  0  0  0  0  0  0  0  0
  185.3850  176.4340  135.6000 C   0  0  0  0  0  3  0  0  0  0  0  0
  188.9060  175.1410  137.8860 N   0  0  0  0  0  2  0  0  0  0  0  0
  185.7160  175.3860  134.8450 C   0  0  0  0  0  3  0  0  0  0  0  0
  186.5450  171.7710  134.9430 N   0  0  0  0  0  0  0  0  0  0  0  0
  187.9440  178.3890  137.7960 O   0  0  0  0  0  0  0  0  0  0  0  0
  186.2870  174.1150  135.3390 C   0  0  0  0  0  0  0  0  0  0  0  0
  187.7810  177.1120  138.3670 C   0  0  1  0  0  0  0  0  0  0  0  0
  186.0110  172.9680  134.5940 C   0  0  0  0  0  3  0  0  0  0  0  0
  187.1630  173.9920  136.4470 C   0  0  0  0  0  0  0  0  0  0  0  0
  187.3730  171.6670  136.0110 C   0  0  0  0  0  0  0  0  0  0  0  0
  185.4900  176.4300  137.0880 C   0  0  2  0  0  3  0  0  0  0  0  0
  187.6250  175.1430  137.2540 C   0  0  0  0  0  0  0  0  0  0  0  0
  187.9300  170.4060  136.3580 N   0  0  0  0  0  1  0  0  0  0  0  0
  189.0980  176.3790  138.6340 C   0  0  2  0  0  3  0  0  0  0  0  0
  192.7430  176.9160  138.6050 C   0  0  0  0  0  2  0  0  0  0  0  0
  191.0220  176.3510  137.0010 C   0  0  0  0  0  2  0  0  0  0  0  0
  193.0930  175.3320  135.3150 O   0  0  0  0  0  0  0  0  0  0  0  0
  190.3560  177.1090  138.1410 C   0  0  2  0  0  3  0  0  0  0  0  0
  191.4020  177.2020  139.2500 C   0  0  0  0  0  2  0  0  0  0  0  0
  192.4370  176.3460  137.3110 N   0  0  0  0  0  0  0  0  0  0  0  0
  193.4320  175.8220  136.4280 C   0  0  0  0  0  0  0  0  0  0  0  0
  194.8100  175.8540  136.8060 N   0  0  0  0  0  2  0  0  0  0  0  0
  198.1160  175.6160  135.4130 N   0  0  0  0  0  2  0  0  0  0  0  0
  195.8580  175.3290  135.9470 C   0  0  1  0  0  3  0  0  0  0  0  0
  197.1700  175.7990  136.4360 N   0  0  1  0  0  0  0  0  0  0  0  0
  198.2900  174.2440  135.1310 C   0  0  0  0  0  3  0  0  0  0  0  0
  197.4890  173.5360  135.8390 N   0  0  0  0  0  0  0  0  0  0  0  0
  196.7140  174.4150  136.7170 C   0  0  2  0  0  3  0  0  0  0  0  0
  184.8300  177.6750  137.6570 C   0  0  1  0  0  3  0  0  0  0  0  0
  183.3790  177.4410  137.8560 C   0  0  1  0  0  3  0  0  0  0  0  0
  184.2960  177.3790  138.9230 O   0  0  0  0  0  0  0  0  0  0  0  0
  181.3030  181.2030  137.9220 C   0  0  0  0  0  0  0  0  0  0  0  0
  181.5880  178.9820  136.9990 C   0  0  0  0  0  3  0  0  0  0  0  0
  182.3610  180.9710  138.8050 C   0  0  0  0  0  3  0  0  0  0  0  0
  182.6390  178.7400  137.8940 C   0  0  0  0  0  0  0  0  0  0  0  0
  180.5910  182.5070  137.9390 C   0  0  0  0  0  1  0  0  0  0  0  0
  183.0310  179.7450  138.7890 C   0  0  0  0  0  3  0  0  0  0  0  0
  180.9190  180.2090  137.0160 C   0  0  0  0  0  3  0  0  0  0  0  0
  3 10  1  0  0  0  0
  6  9  1  0  0  0  0
  6  4  2  0  0  0  0
  7 13  1  0  0  0  0
  8 10  1  0  0  0  0
  8  2  1  0  0  0  0
  9 12  2  0  0  0  0
 10 17  1  0  0  0  0
 10  2  1  1  0  0  0
 11  7  2  0  0  0  0
 11  9  1  0  0  0  0
 12  1  1  0  0  0  0
 12 15  1  0  0  0  0
 13 16  1  0  0  0  0
 13  1  2  0  0  0  0
 14  4  1  6  0  0  0
 14  3  1  0  0  0  0
 14 32  1  0  0  0  0
 15  3  2  0  0  0  0
 15  5  1  0  0  0  0
 17  5  1  6  0  0  0
 18 22  1  0  0  0  0
 19 23  1  0  0  0  0
 20 24  2  0  0  0  0
 21 19  1  6  0  0  0
 21 17  1  0  0  0  0
 21 22  1  0  0  0  0
 23 18  1  0  0  0  0
 24 25  1  0  0  0  0
 24 23  1  0  0  0  0
 27 28  1  0  0  0  0
 27 31  1  0  0  0  0
 27 25  1  1  0  0  0
 28 26  1  6  0  0  0
 28 31  1  0  0  0  0
 29 26  1  0  0  0  0
 29 30  2  0  0  0  0
 31 30  1  6  0  0  0
 32 33  1  0  0  0  0
 32 34  1  1  0  0  0
 33 38  1  1  0  0  0
 33 34  1  0  0  0  0
 35 39  1  0  0  0  0
 35 37  1  0  0  0  0
 36 41  1  0  0  0  0
 36 38  2  0  0  0  0
 38 40  1  0  0  0  0
 40 37  2  0  0  0  0
 41 35  2  0  0  0  0
M  END
>  <MODEL>
7

>  <REMARK>
 VINA RESULT:      -7.4      4.967      9.694
  Name = 
  4 active torsions:
  status: ('A' for Active; 'I' for Inactive)
    1  A    between atoms: C_10  and  N_33
    2  A    between atoms: C_14  and  C_31
    3  A    between atoms: C_16  and  C_41
    4  A    between atoms: C_27  and  C_29
                            x       y       z     vdW  Elec       q    Type
                         _______ _______ _______ _____ _____    ______ ____

>  <TORSDO>
F 4

$$$$
=
 OpenBabel10222418423D

 41 49  0  0  1  0  0  0  0  0999 V2000
  184.2410  172.5760  136.5320 N   0  0  0  0  0  0  0  0  0  0  0  0
  185.8160  178.2170  138.0450 C   0  0  0  0  0  2  0  0  0  0  0  0
  184.5540  176.1820  136.8930 C   0  0  0  0  0  0  0  0  0  0  0  0
  182.7660  176.6010  135.2540 C   0  0  0  0  0  3  0  0  0  0  0  0
  186.2260  174.6190  137.0980 N   0  0  0  0  0  2  0  0  0  0  0  0
  182.6650  175.4330  134.6190 C   0  0  0  0  0  3  0  0  0  0  0  0
  182.5550  171.7590  135.1140 N   0  0  0  0  0  0  0  0  0  0  0  0
  186.1180  177.9810  136.6860 O   0  0  0  0  0  0  0  0  0  0  0  0
  182.9820  174.1100  135.1950 C   0  0  0  0  0  0  0  0  0  0  0  0
  185.7540  176.8620  137.4580 C   0  0  1  0  0  0  0  0  0  0  0  0
  182.2830  173.0160  134.6840 C   0  0  0  0  0  3  0  0  0  0  0  0
  183.9990  173.8600  136.1500 C   0  0  0  0  0  0  0  0  0  0  0  0
  183.5240  171.5360  136.0360 C   0  0  0  0  0  0  0  0  0  0  0  0
  183.1590  176.7160  136.6890 C   0  0  2  0  0  3  0  0  0  0  0  0
  184.8880  174.9120  136.6910 C   0  0  0  0  0  0  0  0  0  0  0  0
  183.8010  170.2110  136.4700 N   0  0  0  0  0  1  0  0  0  0  0  0
  186.8690  175.8240  137.6120 C   0  0  2  0  0  3  0  0  0  0  0  0
  190.4130  176.8100  137.4080 C   0  0  0  0  0  2  0  0  0  0  0  0
  189.0620  174.9110  136.7610 C   0  0  0  0  0  2  0  0  0  0  0  0
  191.4720  173.3780  136.6680 O   0  0  0  0  0  0  0  0  0  0  0  0
  188.1470  176.1260  136.8160 C   0  0  2  0  0  3  0  0  0  0  0  0
  188.9590  177.2310  137.4900 C   0  0  0  0  0  2  0  0  0  0  0  0
  190.3910  175.4100  137.0460 N   0  0  0  0  0  0  0  0  0  0  0  0
  191.5650  174.5960  136.9840 C   0  0  0  0  0  0  0  0  0  0  0  0
  192.8430  175.1630  137.2800 N   0  0  0  0  0  2  0  0  0  0  0  0
  196.3800  174.5870  136.9860 N   0  0  0  0  0  2  0  0  0  0  0  0
  194.0650  174.3770  137.2370 C   0  0  1  0  0  3  0  0  0  0  0  0
  195.2270  175.2740  137.4030 N   0  0  1  0  0  0  0  0  0  0  0  0
  196.6350  173.4810  137.8250 C   0  0  0  0  0  3  0  0  0  0  0  0
  195.7080  173.3610  138.7040 N   0  0  0  0  0  0  0  0  0  0  0  0
  194.7430  174.4490  138.5390 C   0  0  2  0  0  3  0  0  0  0  0  0
  182.9620  178.1450  137.1670 C   0  0  1  0  0  3  0  0  0  0  0  0
  181.5230  178.4110  137.4070 C   0  0  1  0  0  3  0  0  0  0  0  0
  182.4130  178.1290  138.4610 O   0  0  0  0  0  0  0  0  0  0  0  0
  180.7920  182.6420  137.2270 C   0  0  0  0  0  0  0  0  0  0  0  0
  180.6180  180.4410  136.2320 C   0  0  0  0  0  3  0  0  0  0  0  0
  181.4320  182.0880  138.3400 C   0  0  0  0  0  3  0  0  0  0  0  0
  181.2440  179.8790  137.3530 C   0  0  0  0  0  0  0  0  0  0  0  0
  180.5470  184.1060  137.1620 C   0  0  0  0  0  1  0  0  0  0  0  0
  181.6620  180.7110  138.4010 C   0  0  0  0  0  3  0  0  0  0  0  0
  180.3880  181.8180  136.1720 C   0  0  0  0  0  3  0  0  0  0  0  0
  3 10  1  0  0  0  0
  6  9  1  0  0  0  0
  6  4  2  0  0  0  0
  7 13  1  0  0  0  0
  8 10  1  0  0  0  0
  8  2  1  0  0  0  0
  9 12  2  0  0  0  0
 10 17  1  0  0  0  0
 10  2  1  1  0  0  0
 11  7  2  0  0  0  0
 11  9  1  0  0  0  0
 12  1  1  0  0  0  0
 12 15  1  0  0  0  0
 13 16  1  0  0  0  0
 13  1  2  0  0  0  0
 14  4  1  6  0  0  0
 14  3  1  0  0  0  0
 14 32  1  0  0  0  0
 15  3  2  0  0  0  0
 15  5  1  0  0  0  0
 17  5  1  6  0  0  0
 18 22  1  0  0  0  0
 19 23  1  0  0  0  0
 20 24  2  0  0  0  0
 21 19  1  1  0  0  0
 21 22  1  0  0  0  0
 21 17  1  0  0  0  0
 23 18  1  0  0  0  0
 24 23  1  0  0  0  0
 24 25  1  0  0  0  0
 26 29  1  0  0  0  0
 27 25  1  1  0  0  0
 27 28  1  0  0  0  0
 27 31  1  0  0  0  0
 28 26  1  6  0  0  0
 28 31  1  0  0  0  0
 29 30  2  0  0  0  0
 31 30  1  6  0  0  0
 32 33  1  0  0  0  0
 32 34  1  1  0  0  0
 33 38  1  1  0  0  0
 33 34  1  0  0  0  0
 35 37  1  0  0  0  0
 36 38  2  0  0  0  0
 37 40  2  0  0  0  0
 38 40  1  0  0  0  0
 39 35  1  0  0  0  0
 41 36  1  0  0  0  0
 41 35  2  0  0  0  0
M  END
>  <MODEL>
8

>  <REMARK>
 VINA RESULT:      -7.4      5.431      9.856
  Name = 
  4 active torsions:
  status: ('A' for Active; 'I' for Inactive)
    1  A    between atoms: C_10  and  N_33
    2  A    between atoms: C_14  and  C_31
    3  A    between atoms: C_16  and  C_41
    4  A    between atoms: C_27  and  C_29
                            x       y       z     vdW  Elec       q    Type
                         _______ _______ _______ _____ _____    ______ ____

>  <TORSDO>
F 4

$$$$
=
 OpenBabel10222418423D

 41 49  0  0  1  0  0  0  0  0999 V2000
  181.8050  174.0770  135.6680 N   0  0  0  0  0  0  0  0  0  0  0  0
  186.0710  178.0280  137.3400 C   0  0  0  0  0  2  0  0  0  0  0  0
  184.7900  175.7370  136.9210 C   0  0  0  0  0  0  0  0  0  0  0  0
  185.8010  173.6060  137.6230 C   0  0  0  0  0  3  0  0  0  0  0  0
  182.6510  176.5760  136.8810 N   0  0  0  0  0  2  0  0  0  0  0  0
  184.7600  172.7730  137.6360 C   0  0  0  0  0  3  0  0  0  0  0  0
  181.7390  171.7300  135.7530 N   0  0  0  0  0  0  0  0  0  0  0  0
  185.5240  177.3980  138.4800 O   0  0  0  0  0  0  0  0  0  0  0  0
  183.5520  172.8910  136.7930 C   0  0  0  0  0  0  0  0  0  0  0  0
  184.8570  177.1880  137.2580 C   0  0  1  0  0  0  0  0  0  0  0  0
  182.8890  171.7060  136.4720 C   0  0  0  0  0  3  0  0  0  0  0  0
  182.9700  174.1120  136.3710 C   0  0  0  0  0  0  0  0  0  0  0  0
  181.2000  172.9060  135.3470 C   0  0  0  0  0  0  0  0  0  0  0  0
  185.9090  174.7570  136.6810 C   0  0  2  0  0  3  0  0  0  0  0  0
  183.5070  175.4420  136.7360 C   0  0  0  0  0  0  0  0  0  0  0  0
  179.9890  172.9120  134.6010 N   0  0  0  0  0  1  0  0  0  0  0  0
  183.4370  177.7590  137.2190 C   0  0  2  0  0  3  0  0  0  0  0  0
  182.8200  177.5700  140.8470 C   0  0  0  0  0  2  0  0  0  0  0  0
  184.1010  178.9600  139.3360 C   0  0  0  0  0  2  0  0  0  0  0  0
  185.6730  179.7530  141.5880 O   0  0  0  0  0  0  0  0  0  0  0  0
  182.9470  178.3630  138.5430 C   0  0  2  0  0  3  0  0  0  0  0  0
  182.3350  177.2880  139.4380 C   0  0  0  0  0  2  0  0  0  0  0  0
  183.9120  178.5070  140.6990 N   0  0  0  0  0  0  0  0  0  0  0  0
  184.7310  178.9380  141.7900 C   0  0  0  0  0  0  0  0  0  0  0  0
  184.4810  178.4460  143.1080 N   0  0  0  0  0  2  0  0  0  0  0  0
  185.2090  179.0550  146.5750 N   0  0  0  0  0  2  0  0  0  0  0  0
  185.2870  178.8480  144.2480 C   0  0  1  0  0  3  0  0  0  0  0  0
  184.6550  178.3560  145.4890 N   0  0  1  0  0  0  0  0  0  0  0  0
  186.5830  178.7630  146.7110 C   0  0  0  0  0  3  0  0  0  0  0  0
  186.9720  177.9870  145.7660 N   0  0  0  0  0  0  0  0  0  0  0  0
  185.8300  177.6550  144.9130 C   0  0  2  0  0  3  0  0  0  0  0  0
  187.3000  175.3660  136.7650 C   0  0  1  0  0  3  0  0  0  0  0  0
  188.2430  174.6090  135.9080 C   0  0  1  0  0  3  0  0  0  0  0  0
  187.6790  175.8310  135.4940 O   0  0  0  0  0  0  0  0  0  0  0  0
  192.2670  175.2460  137.2760 C   0  0  0  0  0  0  0  0  0  0  0  0
  190.4190  173.7460  136.8240 C   0  0  0  0  0  3  0  0  0  0  0  0
  191.4990  176.3260  136.8310 C   0  0  0  0  0  3  0  0  0  0  0  0
  189.6520  174.8240  136.3600 C   0  0  0  0  0  0  0  0  0  0  0  0
  193.6540  175.4690  137.7570 C   0  0  0  0  0  1  0  0  0  0  0  0
  190.1930  176.1170  136.3780 C   0  0  0  0  0  3  0  0  0  0  0  0
  191.7250  173.9570  137.2760 C   0  0  0  0  0  3  0  0  0  0  0  0
  1 12  1  0  0  0  0
  2  8  1  0  0  0  0
  3 10  1  0  0  0  0
  4  6  2  0  0  0  0
  7 11  2  0  0  0  0
  9  6  1  0  0  0  0
 10  2  1  6  0  0  0
 10  8  1  0  0  0  0
 11  9  1  0  0  0  0
 12 15  1  0  0  0  0
 12  9  2  0  0  0  0
 13  1  2  0  0  0  0
 13  7  1  0  0  0  0
 14 32  1  0  0  0  0
 14  3  1  0  0  0  0
 14  4  1  1  0  0  0
 15  5  1  0  0  0  0
 15  3  2  0  0  0  0
 16 13  1  0  0  0  0
 17  5  1  1  0  0  0
 17 10  1  0  0  0  0
 17 21  1  0  0  0  0
 19 23  1  0  0  0  0
 20 24  2  0  0  0  0
 21 19  1  1  0  0  0
 21 22  1  0  0  0  0
 22 18  1  0  0  0  0
 23 18  1  0  0  0  0
 23 24  1  0  0  0  0
 24 25  1  0  0  0  0
 26 29  1  0  0  0  0
 27 25  1  6  0  0  0
 27 31  1  0  0  0  0
 27 28  1  0  0  0  0
 28 26  1  1  0  0  0
 30 29  2  0  0  0  0
 31 28  1  0  0  0  0
 31 30  1  1  0  0  0
 32 34  1  6  0  0  0
 33 38  1  1  0  0  0
 33 32  1  0  0  0  0
 34 33  1  0  0  0  0
 35 41  1  0  0  0  0
 35 39  1  0  0  0  0
 36 41  2  0  0  0  0
 37 35  2  0  0  0  0
 38 40  2  0  0  0  0
 38 36  1  0  0  0  0
 40 37  1  0  0  0  0
M  END
>  <MODEL>
9

>  <REMARK>
 VINA RESULT:      -7.1      3.312      5.593
  Name = 
  4 active torsions:
  status: ('A' for Active; 'I' for Inactive)
    1  A    between atoms: C_10  and  N_33
    2  A    between atoms: C_14  and  C_31
    3  A    between atoms: C_16  and  C_41
    4  A    between atoms: C_27  and  C_29
                            x       y       z     vdW  Elec       q    Type
                         _______ _______ _______ _____ _____    ______ ____

>  <TORSDO>
F 4

$$$$
