=
 OpenBabel10222415443D

 44 48  0  0  1  0  0  0  0  0999 V2000
  186.7280  178.1420  144.6850 C   0  0  1  0  0  3  0  0  0  0  0  0
  187.4170  178.0860  142.2310 N   0  0  0  0  0  0  0  0  0  0  0  0
  184.8830  179.5020  143.6600 C   0  0  0  0  0  2  0  0  0  0  0  0
  187.1310  177.5030  145.9550 N   0  0  0  0  0  0  0  0  0  0  0  0
  185.3780  178.8940  146.7990 O   0  0  0  0  0  0  0  0  0  0  0  0
  186.2460  177.8280  147.0880 C   0  0  0  0  0  2  0  0  0  0  0  0
  185.2990  179.3800  142.1900 C   0  0  1  0  0  3  0  0  0  0  0  0
  184.4960  178.3870  145.8390 C   0  0  0  0  0  2  0  0  0  0  0  0
  187.6810  176.2220  143.6140 O   0  0  0  0  0  0  0  0  0  0  0  0
  187.3200  177.4260  143.5020 C   0  0  0  0  0  0  0  0  0  0  0  0
  186.8200  179.4080  142.0190 C   0  0  0  0  0  2  0  0  0  0  0  0
  185.2050  178.2650  144.4950 C   0  0  2  0  0  3  0  0  0  0  0  0
  189.7010  177.5170  141.4950 C   0  0  0  0  0  2  0  0  0  0  0  0
  187.9230  178.1040  139.8290 C   0  0  0  0  0  3  0  0  0  0  0  0
  190.5100  177.0580  140.3120 C   0  0  0  0  0  3  0  0  0  0  0  0
  190.1080  177.3190  139.0570 C   0  0  0  0  0  0  0  0  0  0  0  0
  188.2060  177.4710  141.1670 C   0  0  2  0  0  3  0  0  0  0  0  0
  188.8110  177.9930  138.8370 C   0  0  0  0  0  3  0  0  0  0  0  0
  190.8750  176.9720  137.9330 O   0  0  0  0  0  0  0  0  0  0  0  0
  191.8870  176.0020  137.8840 C   0  0  0  0  0  0  0  0  0  0  0  0
  193.1370  176.4230  137.7180 C   0  0  0  0  0  2  0  0  0  0  0  0
  191.5750  174.6360  138.0110 O   0  0  0  0  0  0  0  0  0  0  0  0
  189.6570  173.4980  137.3460 O   0  0  0  0  0  0  0  0  0  0  0  0
  190.8400  173.8550  137.1050 C   0  0  0  0  0  0  0  0  0  0  0  0
  191.4920  173.4100  135.8450 C   0  0  0  0  0  2  0  0  0  0  0  0
  192.8740  172.8660  136.1440 C   0  0  0  0  0  1  0  0  0  0  0  0
  184.7300  178.2250  141.5740 O   0  0  0  0  0  0  0  0  0  0  0  0
  183.0350  179.4480  138.4690 C   0  0  0  0  0  3  0  0  0  0  0  0
  183.8860  178.2830  140.4620 C   0  0  0  0  0  0  0  0  0  0  0  0
  183.0220  177.1970  140.2120 C   0  0  0  0  0  3  0  0  0  0  0  0
  181.2970  176.3630  138.6750 N   0  0  0  0  0  0  0  0  0  0  0  0
  182.1990  178.3550  138.2660 C   0  0  0  0  0  0  0  0  0  0  0  0
  180.8780  178.9140  136.1470 C   0  0  0  0  0  1  0  0  0  0  0  0
  183.8870  179.4030  139.5870 C   0  0  0  0  0  2  0  0  0  0  0  0
  182.1910  177.2740  139.0990 C   0  0  0  0  0  0  0  0  0  0  0  0
  180.7300  176.8490  137.5730 N   0  0  0  0  0  0  0  0  0  0  0  0
  181.2640  178.0630  137.3050 C   0  0  0  0  0  0  0  0  0  0  0  0
  188.4440  178.0300  146.2970 C   0  0  0  0  0  2  0  0  0  0  0  0
  189.3620  176.8900  146.6970 C   0  0  0  0  0  2  0  0  0  0  0  0
  190.6130  177.4350  147.3640 C   0  0  0  0  0  2  0  0  0  0  0  0
  191.8020  176.9420  146.6830 N   0  0  0  0  0  0  0  0  0  0  0  0
  192.0620  175.6170  147.2170 C   0  0  0  0  0  1  0  0  0  0  0  0
  191.7190  177.9900  144.5500 N   0  0  0  0  0  1  0  0  0  0  0  0
  191.4590  176.7610  145.2810 C   0  0  0  0  0  2  0  0  0  0  0  0
  1 10  1  6  0  0  0
  1  4  1  0  0  0  0
  2 10  1  0  0  0  0
  4 38  1  0  0  0  0
  4  6  1  0  0  0  0
  5  6  1  0  0  0  0
  7 27  1  1  0  0  0
  7  3  1  0  0  0  0
  8  5  1  0  0  0  0
 10  9  2  0  0  0  0
 11  7  1  0  0  0  0
 11  2  1  0  0  0  0
 12  3  1  6  0  0  0
 12  1  1  0  0  0  0
 12  8  1  0  0  0  0
 15 13  1  0  0  0  0
 16 15  2  0  0  0  0
 17 14  1  6  0  0  0
 17 13  1  0  0  0  0
 17  2  1  0  0  0  0
 18 16  1  0  0  0  0
 18 14  2  0  0  0  0
 19 16  1  0  0  0  0
 20 19  1  0  0  0  0
 20 22  1  0  0  0  0
 21 20  2  0  0  0  0
 24 23  2  0  0  0  0
 24 22  1  0  0  0  0
 25 26  1  0  0  0  0
 25 24  1  0  0  0  0
 28 34  1  0  0  0  0
 29 27  1  0  0  0  0
 30 29  2  0  0  0  0
 31 35  2  0  0  0  0
 32 28  2  0  0  0  0
 32 35  1  0  0  0  0
 33 37  1  0  0  0  0
 34 29  1  0  0  0  0
 35 30  1  0  0  0  0
 36 31  1  0  0  0  0
 37 36  2  0  0  0  0
 37 32  1  0  0  0  0
 38 39  1  0  0  0  0
 39 40  1  0  0  0  0
 41 42  1  0  0  0  0
 41 40  1  0  0  0  0
 43 44  1  0  0  0  0
 44 41  1  0  0  0  0
M  END
>  <MODEL>
1

>  <REMARK>
 VINA RESULT:      -8.2      0.000      0.000
  Name = 
  13 active torsions:
  status: ('A' for Active; 'I' for Inactive)
    1  A    between atoms: O_3  and  C_12
    2  A    between atoms: O_3  and  C_29
    3  A    between atoms: N_6  and  C_30
    4  A    between atoms: C_9  and  C_16
    5  A    between atoms: C_9  and  C_19
    6  A    between atoms: N_13  and  C_16
    7  A    between atoms: N_15  and  C_19
    8  A    between atoms: N_15  and  C_40
    9  A    between atoms: C_17  and  C_22
   10  A    between atoms: C_21  and  O_32
   11  A    between atoms: C_22  and  O_39
   12  A    between atoms: C_31  and  O_32
   13  A    between atoms: C_31  and  O_39
                            x       y       z     vdW  Elec       q    Type
                         _______ _______ _______ _____ _____    ______ ____

>  <TORSDO>
F 13

$$$$
=
 OpenBabel10222415443D

 44 48  0  0  1  0  0  0  0  0999 V2000
  186.7530  178.2420  144.7800 C   0  0  1  0  0  3  0  0  0  0  0  0
  187.3240  178.1460  142.2970 N   0  0  0  0  0  0  0  0  0  0  0  0
  184.8030  179.4920  143.8120 C   0  0  0  0  0  2  0  0  0  0  0  0
  187.2440  177.6570  146.0450 N   0  0  0  0  0  0  0  0  0  0  0  0
  185.4750  178.9950  146.9380 O   0  0  0  0  0  0  0  0  0  0  0  0
  186.4020  177.9760  147.2110 C   0  0  0  0  0  2  0  0  0  0  0  0
  185.1520  179.3460  142.3270 C   0  0  1  0  0  3  0  0  0  0  0  0
  184.5710  178.4240  146.0360 C   0  0  0  0  0  2  0  0  0  0  0  0
  187.7370  176.3340  143.7150 O   0  0  0  0  0  0  0  0  0  0  0  0
  187.3180  177.5180  143.5880 C   0  0  0  0  0  0  0  0  0  0  0  0
  186.6600  179.4340  142.0800 C   0  0  0  0  0  2  0  0  0  0  0  0
  185.2190  178.2940  144.6620 C   0  0  2  0  0  3  0  0  0  0  0  0
  189.5870  177.5330  141.5270 C   0  0  0  0  0  2  0  0  0  0  0  0
  187.8090  178.2060  139.8920 C   0  0  0  0  0  3  0  0  0  0  0  0
  190.3720  177.0810  140.3270 C   0  0  0  0  0  3  0  0  0  0  0  0
  189.9670  177.3820  139.0810 C   0  0  0  0  0  0  0  0  0  0  0  0
  188.0880  177.5340  141.2120 C   0  0  2  0  0  3  0  0  0  0  0  0
  188.6860  178.0940  138.8890 C   0  0  0  0  0  3  0  0  0  0  0  0
  190.7140  177.0410  137.9430 O   0  0  0  0  0  0  0  0  0  0  0  0
  190.4570  175.9760  137.0680 C   0  0  0  0  0  0  0  0  0  0  0  0
  191.4130  175.6400  136.2070 C   0  0  0  0  0  2  0  0  0  0  0  0
  189.2260  175.2950  137.1120 O   0  0  0  0  0  0  0  0  0  0  0  0
  188.0650  176.3460  135.3900 O   0  0  0  0  0  0  0  0  0  0  0  0
  188.0460  175.6490  136.4390 C   0  0  0  0  0  0  0  0  0  0  0  0
  186.7390  175.2180  137.0020 C   0  0  0  0  0  2  0  0  0  0  0  0
  185.7740  176.3870  137.0170 C   0  0  0  0  0  1  0  0  0  0  0  0
  184.6060  178.1510  141.7710 O   0  0  0  0  0  0  0  0  0  0  0  0
  183.3840  179.0680  138.3530 C   0  0  0  0  0  3  0  0  0  0  0  0
  183.9090  178.1140  140.5590 C   0  0  0  0  0  0  0  0  0  0  0  0
  183.0140  177.0500  140.3270 C   0  0  0  0  0  3  0  0  0  0  0  0
  181.4400  176.1210  138.6870 N   0  0  0  0  0  0  0  0  0  0  0  0
  182.5110  178.0010  138.1710 C   0  0  0  0  0  0  0  0  0  0  0  0
  181.4960  178.3610  135.8500 C   0  0  0  0  0  1  0  0  0  0  0  0
  184.0890  179.1170  139.5690 C   0  0  0  0  0  2  0  0  0  0  0  0
  182.3320  177.0310  139.1150 C   0  0  0  0  0  0  0  0  0  0  0  0
  181.0440  176.4960  137.4720 N   0  0  0  0  0  0  0  0  0  0  0  0
  181.6830  177.6400  137.1380 C   0  0  0  0  0  0  0  0  0  0  0  0
  188.5480  178.2490  146.3070 C   0  0  0  0  0  2  0  0  0  0  0  0
  189.1610  177.6060  147.5380 C   0  0  0  0  0  2  0  0  0  0  0  0
  190.0090  176.4120  147.1360 C   0  0  0  0  0  2  0  0  0  0  0  0
  191.3730  176.8360  146.8550 N   0  0  0  0  0  0  0  0  0  0  0  0
  192.2440  175.9360  147.5900 C   0  0  0  0  0  1  0  0  0  0  0  0
  191.7200  177.8570  144.7360 N   0  0  0  0  0  1  0  0  0  0  0  0
  191.6240  176.5920  145.4440 C   0  0  0  0  0  2  0  0  0  0  0  0
  1 10  1  6  0  0  0
  1  4  1  0  0  0  0
  2 10  1  0  0  0  0
  4 38  1  0  0  0  0
  4  6  1  0  0  0  0
  5  6  1  0  0  0  0
  7 27  1  1  0  0  0
  7  3  1  0  0  0  0
  8  5  1  0  0  0  0
 10  9  2  0  0  0  0
 11  2  1  0  0  0  0
 11  7  1  0  0  0  0
 12  3  1  6  0  0  0
 12  1  1  0  0  0  0
 12  8  1  0  0  0  0
 15 13  1  0  0  0  0
 16 15  2  0  0  0  0
 17 14  1  6  0  0  0
 17 13  1  0  0  0  0
 17  2  1  0  0  0  0
 18 16  1  0  0  0  0
 18 14  2  0  0  0  0
 19 16  1  0  0  0  0
 20 22  1  0  0  0  0
 20 19  1  0  0  0  0
 21 20  2  0  0  0  0
 23 24  2  0  0  0  0
 24 25  1  0  0  0  0
 24 22  1  0  0  0  0
 25 26  1  0  0  0  0
 28 34  1  0  0  0  0
 29 27  1  0  0  0  0
 30 29  2  0  0  0  0
 31 35  2  0  0  0  0
 32 28  2  0  0  0  0
 32 35  1  0  0  0  0
 33 37  1  0  0  0  0
 34 29  1  0  0  0  0
 35 30  1  0  0  0  0
 36 31  1  0  0  0  0
 37 36  2  0  0  0  0
 37 32  1  0  0  0  0
 38 39  1  0  0  0  0
 40 39  1  0  0  0  0
 41 40  1  0  0  0  0
 41 42  1  0  0  0  0
 43 44  1  0  0  0  0
 44 41  1  0  0  0  0
M  END
>  <MODEL>
2

>  <REMARK>
 VINA RESULT:      -8.1      1.274      1.773
  Name = 
  13 active torsions:
  status: ('A' for Active; 'I' for Inactive)
    1  A    between atoms: O_3  and  C_12
    2  A    between atoms: O_3  and  C_29
    3  A    between atoms: N_6  and  C_30
    4  A    between atoms: C_9  and  C_16
    5  A    between atoms: C_9  and  C_19
    6  A    between atoms: N_13  and  C_16
    7  A    between atoms: N_15  and  C_19
    8  A    between atoms: N_15  and  C_40
    9  A    between atoms: C_17  and  C_22
   10  A    between atoms: C_21  and  O_32
   11  A    between atoms: C_22  and  O_39
   12  A    between atoms: C_31  and  O_32
   13  A    between atoms: C_31  and  O_39
                            x       y       z     vdW  Elec       q    Type
                         _______ _______ _______ _____ _____    ______ ____

>  <TORSDO>
F 13

$$$$
=
 OpenBabel10222415443D

 44 48  0  0  1  0  0  0  0  0999 V2000
  190.0750  176.7970  145.5490 C   0  0  1  0  0  3  0  0  0  0  0  0
  188.6660  177.3370  143.4940 N   0  0  0  0  0  0  0  0  0  0  0  0
  191.1510  175.2970  143.8490 C   0  0  0  0  0  2  0  0  0  0  0  0
  190.2480  177.3030  146.9270 N   0  0  0  0  0  0  0  0  0  0  0  0
  191.8320  175.5130  147.0050 O   0  0  0  0  0  0  0  0  0  0  0  0
  191.3560  176.6620  147.6570 C   0  0  0  0  0  2  0  0  0  0  0  0
  190.3240  175.7070  142.6260 C   0  0  1  0  0  3  0  0  0  0  0  0
  192.4480  175.9910  145.8430 C   0  0  0  0  0  2  0  0  0  0  0  0
  189.2710  178.9940  145.0270 O   0  0  0  0  0  0  0  0  0  0  0  0
  189.3060  177.7750  144.7020 C   0  0  0  0  0  0  0  0  0  0  0  0
  188.8610  175.9760  142.9860 C   0  0  0  0  0  2  0  0  0  0  0  0
  191.3910  176.4340  144.8390 C   0  0  2  0  0  3  0  0  0  0  0  0
  186.2820  177.8740  143.1560 C   0  0  0  0  0  2  0  0  0  0  0  0
  187.9560  178.2480  141.3280 C   0  0  0  0  0  3  0  0  0  0  0  0
  185.3330  178.6750  142.3070 C   0  0  0  0  0  3  0  0  0  0  0  0
  185.6460  179.0060  141.0430 C   0  0  0  0  0  0  0  0  0  0  0  0
  187.7320  178.2340  142.8180 C   0  0  2  0  0  3  0  0  0  0  0  0
  186.9770  178.6470  140.5100 C   0  0  0  0  0  3  0  0  0  0  0  0
  184.7540  179.6880  140.2000 O   0  0  0  0  0  0  0  0  0  0  0  0
  183.9400  179.1130  139.2140 C   0  0  0  0  0  0  0  0  0  0  0  0
  182.9620  179.8600  138.7100 C   0  0  0  0  0  2  0  0  0  0  0  0
  184.1630  177.7930  138.7810 O   0  0  0  0  0  0  0  0  0  0  0  0
  183.9080  176.6460  136.7730 O   0  0  0  0  0  0  0  0  0  0  0  0
  184.6060  177.3890  137.5120 C   0  0  0  0  0  0  0  0  0  0  0  0
  185.9500  177.8210  137.0460 C   0  0  0  0  0  2  0  0  0  0  0  0
  186.9680  176.7360  137.3320 C   0  0  0  0  0  1  0  0  0  0  0  0
  190.9030  176.8200  141.9460 O   0  0  0  0  0  0  0  0  0  0  0  0
  193.3460  176.9800  139.1140 C   0  0  0  0  0  3  0  0  0  0  0  0
  191.4490  176.7380  140.6610 C   0  0  0  0  0  0  0  0  0  0  0  0
  190.6220  176.3090  139.6030 C   0  0  0  0  0  3  0  0  0  0  0  0
  190.5880  175.8530  137.1890 N   0  0  0  0  0  0  0  0  0  0  0  0
  192.4920  176.5550  138.1020 C   0  0  0  0  0  0  0  0  0  0  0  0
  193.9210  176.5590  135.9800 C   0  0  0  0  0  1  0  0  0  0  0  0
  192.8070  177.0700  140.4100 C   0  0  0  0  0  2  0  0  0  0  0  0
  191.1850  176.2320  138.3330 C   0  0  0  0  0  0  0  0  0  0  0  0
  191.5010  175.9280  136.2230 N   0  0  0  0  0  0  0  0  0  0  0  0
  192.6680  176.3540  136.7560 C   0  0  0  0  0  0  0  0  0  0  0  0
  189.0330  176.9750  147.6560 C   0  0  0  0  0  2  0  0  0  0  0  0
  188.5210  178.2090  148.3770 C   0  0  0  0  0  2  0  0  0  0  0  0
  187.0210  178.3450  148.1800 C   0  0  0  0  0  2  0  0  0  0  0  0
  186.7060  178.4370  146.7620 N   0  0  0  0  0  0  0  0  0  0  0  0
  186.0360  177.1990  146.4070 C   0  0  0  0  0  1  0  0  0  0  0  0
  184.4500  178.9310  146.1950 N   0  0  0  0  0  1  0  0  0  0  0  0
  185.7240  179.4980  146.6020 C   0  0  0  0  0  2  0  0  0  0  0  0
  1 10  1  6  0  0  0
  1  4  1  0  0  0  0
  2 10  1  0  0  0  0
  4 38  1  0  0  0  0
  4  6  1  0  0  0  0
  5  6  1  0  0  0  0
  7 27  1  1  0  0  0
  7 11  1  0  0  0  0
  7  3  1  0  0  0  0
  8  5  1  0  0  0  0
 10  9  2  0  0  0  0
 11  2  1  0  0  0  0
 12  3  1  6  0  0  0
 12  1  1  0  0  0  0
 12  8  1  0  0  0  0
 15 13  1  0  0  0  0
 16 15  2  0  0  0  0
 17 14  1  6  0  0  0
 17 13  1  0  0  0  0
 17  2  1  0  0  0  0
 18 16  1  0  0  0  0
 18 14  2  0  0  0  0
 19 16  1  0  0  0  0
 20 19  1  0  0  0  0
 21 20  2  0  0  0  0
 22 20  1  0  0  0  0
 23 24  2  0  0  0  0
 24 22  1  0  0  0  0
 25 26  1  0  0  0  0
 25 24  1  0  0  0  0
 28 34  1  0  0  0  0
 29 27  1  0  0  0  0
 30 29  2  0  0  0  0
 31 35  2  0  0  0  0
 32 35  1  0  0  0  0
 32 28  2  0  0  0  0
 33 37  1  0  0  0  0
 34 29  1  0  0  0  0
 35 30  1  0  0  0  0
 36 37  2  0  0  0  0
 36 31  1  0  0  0  0
 37 32  1  0  0  0  0
 38 39  1  0  0  0  0
 40 39  1  0  0  0  0
 41 40  1  0  0  0  0
 42 41  1  0  0  0  0
 43 44  1  0  0  0  0
 44 41  1  0  0  0  0
M  END
>  <MODEL>
3

>  <REMARK>
 VINA RESULT:      -7.0      3.002      7.065
  Name = 
  13 active torsions:
  status: ('A' for Active; 'I' for Inactive)
    1  A    between atoms: O_3  and  C_12
    2  A    between atoms: O_3  and  C_29
    3  A    between atoms: N_6  and  C_30
    4  A    between atoms: C_9  and  C_16
    5  A    between atoms: C_9  and  C_19
    6  A    between atoms: N_13  and  C_16
    7  A    between atoms: N_15  and  C_19
    8  A    between atoms: N_15  and  C_40
    9  A    between atoms: C_17  and  C_22
   10  A    between atoms: C_21  and  O_32
   11  A    between atoms: C_22  and  O_39
   12  A    between atoms: C_31  and  O_32
   13  A    between atoms: C_31  and  O_39
                            x       y       z     vdW  Elec       q    Type
                         _______ _______ _______ _____ _____    ______ ____

>  <TORSDO>
F 13

$$$$
=
 OpenBabel10222415443D

 44 48  0  0  1  0  0  0  0  0999 V2000
  190.0340  176.8180  145.4790 C   0  0  1  0  0  3  0  0  0  0  0  0
  188.6550  177.3480  143.4020 N   0  0  0  0  0  0  0  0  0  0  0  0
  191.1420  175.3180  143.7980 C   0  0  0  0  0  2  0  0  0  0  0  0
  190.1860  177.3270  146.8580 N   0  0  0  0  0  0  0  0  0  0  0  0
  191.7740  175.5430  146.9640 O   0  0  0  0  0  0  0  0  0  0  0  0
  191.2850  176.6910  147.6060 C   0  0  0  0  0  2  0  0  0  0  0  0
  190.3320  175.7220  142.5620 C   0  0  1  0  0  3  0  0  0  0  0  0
  192.4060  176.0200  145.8110 C   0  0  0  0  0  2  0  0  0  0  0  0
  189.2310  179.0100  144.9400 O   0  0  0  0  0  0  0  0  0  0  0  0
  189.2760  177.7910  144.6180 C   0  0  0  0  0  0  0  0  0  0  0  0
  188.8630  175.9870  142.9000 C   0  0  0  0  0  2  0  0  0  0  0  0
  191.3630  176.4580  144.7900 C   0  0  2  0  0  3  0  0  0  0  0  0
  186.2760  177.9040  143.0630 C   0  0  0  0  0  2  0  0  0  0  0  0
  187.9450  178.2170  141.2180 C   0  0  0  0  0  3  0  0  0  0  0  0
  185.3320  178.6970  142.2000 C   0  0  0  0  0  3  0  0  0  0  0  0
  185.6430  178.9950  140.9270 C   0  0  0  0  0  0  0  0  0  0  0  0
  187.7280  178.2400  142.7100 C   0  0  2  0  0  3  0  0  0  0  0  0
  186.9670  178.6080  140.3960 C   0  0  0  0  0  3  0  0  0  0  0  0
  184.7540  179.6670  140.0730 O   0  0  0  0  0  0  0  0  0  0  0  0
  183.6520  179.1060  139.4130 C   0  0  0  0  0  0  0  0  0  0  0  0
  183.8940  178.2740  138.4050 C   0  0  0  0  0  2  0  0  0  0  0  0
  182.3410  179.4210  139.8150 O   0  0  0  0  0  0  0  0  0  0  0  0
  180.6390  177.8910  140.2400 O   0  0  0  0  0  0  0  0  0  0  0  0
  181.5250  178.6720  140.6780 C   0  0  0  0  0  0  0  0  0  0  0  0
  181.6890  178.8340  142.1470 C   0  0  0  0  0  2  0  0  0  0  0  0
  180.5350  179.6410  142.7080 C   0  0  0  0  0  1  0  0  0  0  0  0
  190.9170  176.8360  141.8880 O   0  0  0  0  0  0  0  0  0  0  0  0
  193.4170  176.9850  139.1060 C   0  0  0  0  0  3  0  0  0  0  0  0
  191.4890  176.7510  140.6150 C   0  0  0  0  0  0  0  0  0  0  0  0
  190.6810  176.3270  139.5400 C   0  0  0  0  0  3  0  0  0  0  0  0
  190.6930  175.8720  137.1260 N   0  0  0  0  0  0  0  0  0  0  0  0
  192.5810  176.5650  138.0770 C   0  0  0  0  0  0  0  0  0  0  0  0
  194.0530  176.5630  135.9840 C   0  0  0  0  0  1  0  0  0  0  0  0
  192.8530  177.0770  140.3910 C   0  0  0  0  0  2  0  0  0  0  0  0
  191.2690  176.2480  138.2820 C   0  0  0  0  0  0  0  0  0  0  0  0
  191.6250  175.9430  136.1780 N   0  0  0  0  0  0  0  0  0  0  0  0
  192.7840  176.3630  136.7350 C   0  0  0  0  0  0  0  0  0  0  0  0
  188.9600  176.9960  147.5700 C   0  0  0  0  0  2  0  0  0  0  0  0
  188.4720  178.2100  148.3380 C   0  0  0  0  0  2  0  0  0  0  0  0
  186.9820  178.4060  148.1150 C   0  0  0  0  0  2  0  0  0  0  0  0
  186.6890  178.4510  146.6900 N   0  0  0  0  0  0  0  0  0  0  0  0
  186.0450  177.1920  146.3620 C   0  0  0  0  0  1  0  0  0  0  0  0
  184.4130  178.8860  146.1580 N   0  0  0  0  0  1  0  0  0  0  0  0
  185.6940  179.4910  146.4810 C   0  0  0  0  0  2  0  0  0  0  0  0
  1 10  1  6  0  0  0
  1  4  1  0  0  0  0
  2 10  1  0  0  0  0
  4 38  1  0  0  0  0
  4  6  1  0  0  0  0
  5  6  1  0  0  0  0
  7 27  1  1  0  0  0
  7 11  1  0  0  0  0
  7  3  1  0  0  0  0
  8  5  1  0  0  0  0
 10  9  2  0  0  0  0
 11  2  1  0  0  0  0
 12  3  1  6  0  0  0
 12  1  1  0  0  0  0
 12  8  1  0  0  0  0
 15 13  1  0  0  0  0
 16 15  2  0  0  0  0
 17 14  1  6  0  0  0
 17 13  1  0  0  0  0
 17  2  1  0  0  0  0
 18 16  1  0  0  0  0
 18 14  2  0  0  0  0
 19 16  1  0  0  0  0
 20 22  1  0  0  0  0
 20 19  1  0  0  0  0
 21 20  2  0  0  0  0
 22 24  1  0  0  0  0
 23 24  2  0  0  0  0
 24 25  1  0  0  0  0
 25 26  1  0  0  0  0
 28 34  1  0  0  0  0
 29 27  1  0  0  0  0
 30 29  2  0  0  0  0
 31 35  2  0  0  0  0
 32 35  1  0  0  0  0
 32 28  2  0  0  0  0
 33 37  1  0  0  0  0
 34 29  1  0  0  0  0
 35 30  1  0  0  0  0
 36 37  2  0  0  0  0
 36 31  1  0  0  0  0
 37 32  1  0  0  0  0
 38 39  1  0  0  0  0
 40 39  1  0  0  0  0
 41 40  1  0  0  0  0
 42 41  1  0  0  0  0
 43 44  1  0  0  0  0
 44 41  1  0  0  0  0
M  END
>  <MODEL>
4

>  <REMARK>
 VINA RESULT:      -7.0      2.990      7.792
  Name = 
  13 active torsions:
  status: ('A' for Active; 'I' for Inactive)
    1  A    between atoms: O_3  and  C_12
    2  A    between atoms: O_3  and  C_29
    3  A    between atoms: N_6  and  C_30
    4  A    between atoms: C_9  and  C_16
    5  A    between atoms: C_9  and  C_19
    6  A    between atoms: N_13  and  C_16
    7  A    between atoms: N_15  and  C_19
    8  A    between atoms: N_15  and  C_40
    9  A    between atoms: C_17  and  C_22
   10  A    between atoms: C_21  and  O_32
   11  A    between atoms: C_22  and  O_39
   12  A    between atoms: C_31  and  O_32
   13  A    between atoms: C_31  and  O_39
                            x       y       z     vdW  Elec       q    Type
                         _______ _______ _______ _____ _____    ______ ____

>  <TORSDO>
F 13

$$$$
=
 OpenBabel10222415443D

 44 48  0  0  1  0  0  0  0  0999 V2000
  187.1690  178.2950  140.0870 C   0  0  1  0  0  3  0  0  0  0  0  0
  189.1700  177.9560  141.6290 N   0  0  0  0  0  0  0  0  0  0  0  0
  189.0470  178.3660  138.4230 C   0  0  0  0  0  2  0  0  0  0  0  0
  185.6940  178.2460  140.1720 N   0  0  0  0  0  0  0  0  0  0  0  0
  185.8960  178.8450  137.8660 O   0  0  0  0  0  0  0  0  0  0  0  0
  185.0210  178.4000  138.8700 C   0  0  0  0  0  2  0  0  0  0  0  0
  190.2110  178.0880  139.3800 C   0  0  1  0  0  3  0  0  0  0  0  0
  186.7680  177.7730  137.6500 C   0  0  0  0  0  2  0  0  0  0  0  0
  187.1560  176.8230  141.9780 O   0  0  0  0  0  0  0  0  0  0  0  0
  187.8060  177.6600  141.2920 C   0  0  0  0  0  0  0  0  0  0  0  0
  190.0100  178.7630  140.7390 C   0  0  0  0  0  2  0  0  0  0  0  0
  187.7500  177.6600  138.8110 C   0  0  2  0  0  3  0  0  0  0  0  0
  190.7520  178.5060  143.4410 C   0  0  0  0  0  2  0  0  0  0  0  0
  190.2340  176.1210  142.8650 C   0  0  0  0  0  3  0  0  0  0  0  0
  191.4160  177.9540  144.6720 C   0  0  0  0  0  3  0  0  0  0  0  0
  191.6230  176.6340  144.8140 C   0  0  0  0  0  0  0  0  0  0  0  0
  189.6930  177.5270  142.9240 C   0  0  2  0  0  3  0  0  0  0  0  0
  191.1130  175.7070  143.7820 C   0  0  0  0  0  3  0  0  0  0  0  0
  192.3060  176.0920  145.9150 O   0  0  0  0  0  0  0  0  0  0  0  0
  191.8170  175.9800  147.2240 C   0  0  0  0  0  0  0  0  0  0  0  0
  192.7010  175.9980  148.2160 C   0  0  0  0  0  2  0  0  0  0  0  0
  190.4360  175.8570  147.4640 O   0  0  0  0  0  0  0  0  0  0  0  0
  188.6790  176.8980  146.3480 O   0  0  0  0  0  0  0  0  0  0  0  0
  189.4670  176.8630  147.3300 C   0  0  0  0  0  0  0  0  0  0  0  0
  189.3950  177.9360  148.3580 C   0  0  0  0  0  2  0  0  0  0  0  0
  187.9670  178.0900  148.8420 C   0  0  0  0  0  1  0  0  0  0  0  0
  190.4520  176.6890  139.5270 O   0  0  0  0  0  0  0  0  0  0  0  0
  193.6050  175.5770  137.8420 C   0  0  0  0  0  3  0  0  0  0  0  0
  191.3410  175.9730  138.7200 C   0  0  0  0  0  0  0  0  0  0  0  0
  190.8430  174.8930  137.9620 C   0  0  0  0  0  3  0  0  0  0  0  0
  191.4920  173.1390  136.3700 N   0  0  0  0  0  0  0  0  0  0  0  0
  193.0680  174.5230  137.1110 C   0  0  0  0  0  0  0  0  0  0  0  0
  195.0440  173.5340  135.8210 C   0  0  0  0  0  1  0  0  0  0  0  0
  192.7200  176.3080  138.6560 C   0  0  0  0  0  2  0  0  0  0  0  0
  191.7440  174.1920  137.1660 C   0  0  0  0  0  0  0  0  0  0  0  0
  192.6440  172.7880  135.8010 N   0  0  0  0  0  0  0  0  0  0  0  0
  193.6180  173.6180  136.2390 C   0  0  0  0  0  0  0  0  0  0  0  0
  185.2780  179.3790  140.9850 C   0  0  0  0  0  2  0  0  0  0  0  0
  184.3660  178.8980  142.1000 C   0  0  0  0  0  2  0  0  0  0  0  0
  184.9160  179.3320  143.4480 C   0  0  0  0  0  2  0  0  0  0  0  0
  184.7570  178.2630  144.4230 N   0  0  0  0  0  0  0  0  0  0  0  0
  186.0610  178.0580  145.0270 C   0  0  0  0  0  1  0  0  0  0  0  0
  184.5450  178.6190  146.7640 N   0  0  0  0  0  1  0  0  0  0  0  0
  183.8870  178.7610  145.4770 C   0  0  0  0  0  2  0  0  0  0  0  0
  1  4  1  0  0  0  0
  1 10  1  1  0  0  0
  3 12  1  0  0  0  0
  3  7  1  0  0  0  0
  4 38  1  0  0  0  0
  5  6  1  0  0  0  0
  6  4  1  0  0  0  0
  7 27  1  1  0  0  0
  7 11  1  0  0  0  0
  8  5  1  0  0  0  0
 10  2  1  0  0  0  0
 10  9  2  0  0  0  0
 11  2  1  0  0  0  0
 12  8  1  6  0  0  0
 12  1  1  0  0  0  0
 13 15  1  0  0  0  0
 14 17  1  0  0  0  0
 14 18  2  0  0  0  0
 15 16  2  0  0  0  0
 16 19  1  0  0  0  0
 17  2  1  6  0  0  0
 17 13  1  0  0  0  0
 18 16  1  0  0  0  0
 19 20  1  0  0  0  0
 20 22  1  0  0  0  0
 20 21  2  0  0  0  0
 23 24  2  0  0  0  0
 24 22  1  0  0  0  0
 24 25  1  0  0  0  0
 25 26  1  0  0  0  0
 28 34  1  0  0  0  0
 29 27  1  0  0  0  0
 30 29  2  0  0  0  0
 31 35  2  0  0  0  0
 32 35  1  0  0  0  0
 32 28  2  0  0  0  0
 33 37  1  0  0  0  0
 34 29  1  0  0  0  0
 35 30  1  0  0  0  0
 36 37  2  0  0  0  0
 36 31  1  0  0  0  0
 37 32  1  0  0  0  0
 38 39  1  0  0  0  0
 39 40  1  0  0  0  0
 40 41  1  0  0  0  0
 41 42  1  0  0  0  0
 41 44  1  0  0  0  0
 44 43  1  0  0  0  0
M  END
>  <MODEL>
5

>  <REMARK>
 VINA RESULT:      -6.8      2.788      8.501
  Name = 
  13 active torsions:
  status: ('A' for Active; 'I' for Inactive)
    1  A    between atoms: O_3  and  C_12
    2  A    between atoms: O_3  and  C_29
    3  A    between atoms: N_6  and  C_30
    4  A    between atoms: C_9  and  C_16
    5  A    between atoms: C_9  and  C_19
    6  A    between atoms: N_13  and  C_16
    7  A    between atoms: N_15  and  C_19
    8  A    between atoms: N_15  and  C_40
    9  A    between atoms: C_17  and  C_22
   10  A    between atoms: C_21  and  O_32
   11  A    between atoms: C_22  and  O_39
   12  A    between atoms: C_31  and  O_32
   13  A    between atoms: C_31  and  O_39
                            x       y       z     vdW  Elec       q    Type
                         _______ _______ _______ _____ _____    ______ ____

>  <TORSDO>
F 13

$$$$
=
 OpenBabel10222415443D

 44 48  0  0  1  0  0  0  0  0999 V2000
  191.0770  176.6430  138.3620 C   0  0  1  0  0  3  0  0  0  0  0  0
  188.5900  176.6990  137.8090 N   0  0  0  0  0  0  0  0  0  0  0  0
  190.2780  178.3500  140.0190 C   0  0  0  0  0  2  0  0  0  0  0  0
  192.2660  175.8410  138.0030 N   0  0  0  0  0  0  0  0  0  0  0  0
  193.3230  177.4010  139.4750 O   0  0  0  0  0  0  0  0  0  0  0  0
  193.4730  176.1950  138.7710 C   0  0  0  0  0  2  0  0  0  0  0  0
  188.7810  178.2960  139.6990 C   0  0  1  0  0  3  0  0  0  0  0  0
  192.3810  177.1190  140.4700 C   0  0  0  0  0  2  0  0  0  0  0  0
  189.8020  174.7010  137.7720 O   0  0  0  0  0  0  0  0  0  0  0  0
  189.8070  175.9510  137.9470 C   0  0  0  0  0  0  0  0  0  0  0  0
  188.5200  178.1090  138.2020 C   0  0  0  0  0  2  0  0  0  0  0  0
  190.9910  177.0100  139.8540 C   0  0  2  0  0  3  0  0  0  0  0  0
  187.5560  176.1000  135.6500 C   0  0  0  0  0  2  0  0  0  0  0  0
  186.1410  176.6930  137.6330 C   0  0  0  0  0  3  0  0  0  0  0  0
  186.2790  175.6240  135.0140 C   0  0  0  0  0  3  0  0  0  0  0  0
  185.0870  175.8800  135.5800 C   0  0  0  0  0  0  0  0  0  0  0  0
  187.4340  176.0670  137.1770 C   0  0  2  0  0  3  0  0  0  0  0  0
  185.0390  176.5650  136.8880 C   0  0  0  0  0  3  0  0  0  0  0  0
  183.8730  175.5160  134.9750 O   0  0  0  0  0  0  0  0  0  0  0  0
  183.0810  174.4060  135.3030 C   0  0  0  0  0  0  0  0  0  0  0  0
  181.7630  174.5760  135.3340 C   0  0  0  0  0  2  0  0  0  0  0  0
  183.6750  173.1620  135.5840 O   0  0  0  0  0  0  0  0  0  0  0  0
  182.8440  171.6910  137.1840 O   0  0  0  0  0  0  0  0  0  0  0  0
  183.7250  172.5180  136.8300 C   0  0  0  0  0  0  0  0  0  0  0  0
  184.8310  172.8480  137.7680 C   0  0  0  0  0  2  0  0  0  0  0  0
  186.1660  172.6780  137.0720 C   0  0  0  0  0  1  0  0  0  0  0  0
  188.1110  177.2990  140.4690 O   0  0  0  0  0  0  0  0  0  0  0  0
  185.9400  178.3410  143.3350 C   0  0  0  0  0  3  0  0  0  0  0  0
  187.6490  177.5150  141.7710 C   0  0  0  0  0  0  0  0  0  0  0  0
  188.4550  177.0990  142.8500 C   0  0  0  0  0  3  0  0  0  0  0  0
  188.5730  177.0090  145.3020 N   0  0  0  0  0  0  0  0  0  0  0  0
  186.7700  177.9180  144.3670 C   0  0  0  0  0  0  0  0  0  0  0  0
  185.5160  178.5100  146.5170 C   0  0  0  0  0  1  0  0  0  0  0  0
  186.3940  178.1330  142.0200 C   0  0  0  0  0  3  0  0  0  0  0  0
  187.9770  177.3210  144.1380 C   0  0  0  0  0  0  0  0  0  0  0  0
  187.7580  177.4000  146.2800 N   0  0  0  0  0  2  0  0  0  0  0  0
  186.6540  177.9560  145.7330 C   0  0  0  0  0  0  0  0  0  0  0  0
  192.5680  176.1310  136.6090 C   0  0  0  0  0  2  0  0  0  0  0  0
  194.0610  176.3480  136.4460 C   0  0  0  0  0  2  0  0  0  0  0  0
  194.6520  175.2680  135.5560 C   0  0  0  0  0  2  0  0  0  0  0  0
  195.6270  174.4820  136.3000 N   0  0  0  0  0  0  0  0  0  0  0  0
  195.3310  173.0880  136.0230 C   0  0  0  0  0  1  0  0  0  0  0  0
  197.6160  175.7690  136.5010 N   0  0  0  0  0  1  0  0  0  0  0  0
  196.9350  174.7500  135.7220 C   0  0  0  0  0  2  0  0  0  0  0  0
  1 10  1  1  0  0  0
  1 12  1  0  0  0  0
  2 10  1  0  0  0  0
  2 11  1  0  0  0  0
  4  1  1  0  0  0  0
  4  6  1  0  0  0  0
  5  8  1  0  0  0  0
  6  5  1  0  0  0  0
  7  3  1  0  0  0  0
  7 27  1  1  0  0  0
  9 10  2  0  0  0  0
 11  7  1  0  0  0  0
 12  3  1  6  0  0  0
 12  8  1  0  0  0  0
 15 16  2  0  0  0  0
 15 13  1  0  0  0  0
 16 18  1  0  0  0  0
 17 13  1  6  0  0  0
 17 14  1  0  0  0  0
 17  2  1  0  0  0  0
 18 14  2  0  0  0  0
 19 20  1  0  0  0  0
 19 16  1  0  0  0  0
 20 21  2  0  0  0  0
 20 22  1  0  0  0  0
 22 24  1  0  0  0  0
 24 23  2  0  0  0  0
 24 25  1  0  0  0  0
 26 25  1  0  0  0  0
 27 29  1  0  0  0  0
 28 32  1  0  0  0  0
 29 34  1  0  0  0  0
 29 30  2  0  0  0  0
 30 35  1  0  0  0  0
 31 36  1  0  0  0  0
 32 37  2  0  0  0  0
 34 28  2  0  0  0  0
 35 32  1  0  0  0  0
 35 31  2  0  0  0  0
 37 36  1  0  0  0  0
 37 33  1  0  0  0  0
 38  4  1  0  0  0  0
 39 38  1  0  0  0  0
 40 41  1  0  0  0  0
 40 39  1  0  0  0  0
 42 41  1  0  0  0  0
 44 41  1  0  0  0  0
 44 43  1  0  0  0  0
M  END
>  <MODEL>
6

>  <REMARK>
 VINA RESULT:      -6.6      3.991      8.320
  Name = 
  13 active torsions:
  status: ('A' for Active; 'I' for Inactive)
    1  A    between atoms: O_3  and  C_12
    2  A    between atoms: O_3  and  C_29
    3  A    between atoms: N_6  and  C_30
    4  A    between atoms: C_9  and  C_16
    5  A    between atoms: C_9  and  C_19
    6  A    between atoms: N_13  and  C_16
    7  A    between atoms: N_15  and  C_19
    8  A    between atoms: N_15  and  C_40
    9  A    between atoms: C_17  and  C_22
   10  A    between atoms: C_21  and  O_32
   11  A    between atoms: C_22  and  O_39
   12  A    between atoms: C_31  and  O_32
   13  A    between atoms: C_31  and  O_39
                            x       y       z     vdW  Elec       q    Type
                         _______ _______ _______ _____ _____    ______ ____

>  <TORSDO>
F 13

$$$$
=
 OpenBabel10222415443D

 44 48  0  0  1  0  0  0  0  0999 V2000
  190.1670  176.7520  137.8430 C   0  0  1  0  0  3  0  0  0  0  0  0
  188.3840  177.6730  139.4140 N   0  0  0  0  0  0  0  0  0  0  0  0
  191.5850  177.4200  139.8040 C   0  0  0  0  0  2  0  0  0  0  0  0
  190.2310  176.0230  136.5590 N   0  0  0  0  0  0  0  0  0  0  0  0
  192.5790  176.2430  136.9580 O   0  0  0  0  0  0  0  0  0  0  0  0
  191.5950  175.6150  136.1780 C   0  0  0  0  0  2  0  0  0  0  0  0
  190.4700  177.8970  140.7400 C   0  0  1  0  0  3  0  0  0  0  0  0
  192.4260  175.6940  138.2360 C   0  0  0  0  0  2  0  0  0  0  0  0
  187.9820  175.7980  138.0790 O   0  0  0  0  0  0  0  0  0  0  0  0
  188.7800  176.7120  138.4240 C   0  0  0  0  0  0  0  0  0  0  0  0
  189.3510  178.6160  139.9820 C   0  0  0  0  0  2  0  0  0  0  0  0
  191.1750  176.2610  138.8980 C   0  0  2  0  0  3  0  0  0  0  0  0
  186.1290  178.2700  138.6100 C   0  0  0  0  0  2  0  0  0  0  0  0
  186.7820  178.6410  141.0020 C   0  0  0  0  0  3  0  0  0  0  0  0
  184.7220  178.5500  139.0610 C   0  0  0  0  0  3  0  0  0  0  0  0
  184.4710  179.0250  140.2920 C   0  0  0  0  0  0  0  0  0  0  0  0
  186.9740  177.7720  139.7860 C   0  0  2  0  0  3  0  0  0  0  0  0
  185.5890  179.1940  141.2440 C   0  0  0  0  0  3  0  0  0  0  0  0
  183.1780  179.3680  140.7190 O   0  0  0  0  0  0  0  0  0  0  0  0
  182.0600  178.5220  140.7450 C   0  0  0  0  0  0  0  0  0  0  0  0
  181.3350  178.4930  141.8590 C   0  0  0  0  0  2  0  0  0  0  0  0
  181.7280  177.7400  139.6240 O   0  0  0  0  0  0  0  0  0  0  0  0
  180.5810  175.8680  140.3930 O   0  0  0  0  0  0  0  0  0  0  0  0
  181.4340  176.3680  139.6140 C   0  0  0  0  0  0  0  0  0  0  0  0
  182.1780  175.4780  138.6830 C   0  0  0  0  0  2  0  0  0  0  0  0
  181.3800  175.2830  137.4100 C   0  0  0  0  0  1  0  0  0  0  0  0
  189.9540  176.8290  141.5340 O   0  0  0  0  0  0  0  0  0  0  0  0
  188.3810  177.3010  144.8980 C   0  0  0  0  0  3  0  0  0  0  0  0
  189.7900  176.9090  142.9200 C   0  0  0  0  0  0  0  0  0  0  0  0
  190.9060  176.6620  143.7460 C   0  0  0  0  0  3  0  0  0  0  0  0
  191.6370  176.5510  146.0880 N   0  0  0  0  0  0  0  0  0  0  0  0
  189.5100  177.0530  145.6710 C   0  0  0  0  0  0  0  0  0  0  0  0
  188.7250  177.3060  148.0930 C   0  0  0  0  0  1  0  0  0  0  0  0
  188.5340  177.2260  143.5010 C   0  0  0  0  0  3  0  0  0  0  0  0
  190.7220  176.7460  145.1230 C   0  0  0  0  0  0  0  0  0  0  0  0
  191.0240  176.7300  147.2560 N   0  0  0  0  0  2  0  0  0  0  0  0
  189.7260  177.0370  147.0260 C   0  0  0  0  0  0  0  0  0  0  0  0
  189.7760  176.9430  135.5260 C   0  0  0  0  0  2  0  0  0  0  0  0
  188.8150  176.2270  134.5940 C   0  0  0  0  0  2  0  0  0  0  0  0
  187.3880  176.6610  134.8800 C   0  0  0  0  0  2  0  0  0  0  0  0
  186.4650  175.5730  134.5950 N   0  0  0  0  0  0  0  0  0  0  0  0
  187.1990  174.3400  134.8150 C   0  0  0  0  0  1  0  0  0  0  0  0
  184.7870  176.9240  135.6010 N   0  0  0  0  0  1  0  0  0  0  0  0
  185.4170  175.6140  135.6020 C   0  0  0  0  0  2  0  0  0  0  0  0
  1 10  1  1  0  0  0
  1 12  1  0  0  0  0
  2 17  1  0  0  0  0
  2 11  1  0  0  0  0
  3  7  1  0  0  0  0
  4  1  1  0  0  0  0
  5  8  1  0  0  0  0
  6  4  1  0  0  0  0
  6  5  1  0  0  0  0
  7 27  1  6  0  0  0
  9 10  2  0  0  0  0
 10  2  1  0  0  0  0
 11  7  1  0  0  0  0
 12  8  1  6  0  0  0
 12  3  1  0  0  0  0
 13 15  1  0  0  0  0
 14 18  2  0  0  0  0
 15 16  2  0  0  0  0
 16 19  1  0  0  0  0
 16 18  1  0  0  0  0
 17 13  1  6  0  0  0
 17 14  1  0  0  0  0
 19 20  1  0  0  0  0
 20 21  2  0  0  0  0
 22 20  1  0  0  0  0
 24 22  1  0  0  0  0
 24 23  2  0  0  0  0
 25 24  1  0  0  0  0
 26 25  1  0  0  0  0
 27 29  1  0  0  0  0
 28 32  1  0  0  0  0
 29 34  1  0  0  0  0
 29 30  2  0  0  0  0
 30 35  1  0  0  0  0
 31 36  1  0  0  0  0
 32 37  2  0  0  0  0
 34 28  2  0  0  0  0
 35 32  1  0  0  0  0
 35 31  2  0  0  0  0
 37 36  1  0  0  0  0
 37 33  1  0  0  0  0
 38  4  1  0  0  0  0
 39 40  1  0  0  0  0
 39 38  1  0  0  0  0
 41 42  1  0  0  0  0
 41 40  1  0  0  0  0
 41 44  1  0  0  0  0
 43 44  1  0  0  0  0
M  END
>  <MODEL>
7

>  <REMARK>
 VINA RESULT:      -6.5      2.755      9.677
  Name = 
  13 active torsions:
  status: ('A' for Active; 'I' for Inactive)
    1  A    between atoms: O_3  and  C_12
    2  A    between atoms: O_3  and  C_29
    3  A    between atoms: N_6  and  C_30
    4  A    between atoms: C_9  and  C_16
    5  A    between atoms: C_9  and  C_19
    6  A    between atoms: N_13  and  C_16
    7  A    between atoms: N_15  and  C_19
    8  A    between atoms: N_15  and  C_40
    9  A    between atoms: C_17  and  C_22
   10  A    between atoms: C_21  and  O_32
   11  A    between atoms: C_22  and  O_39
   12  A    between atoms: C_31  and  O_32
   13  A    between atoms: C_31  and  O_39
                            x       y       z     vdW  Elec       q    Type
                         _______ _______ _______ _____ _____    ______ ____

>  <TORSDO>
F 13

$$$$
=
 OpenBabel10222415443D

 44 48  0  0  1  0  0  0  0  0999 V2000
  183.0220  177.1100  137.9470 C   0  0  1  0  0  3  0  0  0  0  0  0
  184.3530  178.5260  139.5960 N   0  0  0  0  0  0  0  0  0  0  0  0
  185.1320  177.4740  136.6380 C   0  0  0  0  0  2  0  0  0  0  0  0
  181.7640  176.3350  137.9290 N   0  0  0  0  0  0  0  0  0  0  0  0
  182.4430  175.9580  135.6670 O   0  0  0  0  0  0  0  0  0  0  0  0
  181.5560  175.5720  136.6850 C   0  0  0  0  0  2  0  0  0  0  0  0
  185.9210  178.2620  137.6890 C   0  0  1  0  0  3  0  0  0  0  0  0
  183.6990  175.5240  136.1030 C   0  0  0  0  0  2  0  0  0  0  0  0
  183.0010  176.7630  140.3180 O   0  0  0  0  0  0  0  0  0  0  0  0
  183.4300  177.4540  139.3530 C   0  0  0  0  0  0  0  0  0  0  0  0
  185.0240  179.2120  138.4870 C   0  0  0  0  0  2  0  0  0  0  0  0
  184.1970  176.4220  137.2300 C   0  0  2  0  0  3  0  0  0  0  0  0
  185.8790  178.4960  141.5340 C   0  0  0  0  0  2  0  0  0  0  0  0
  183.3950  178.6220  141.8530 C   0  0  0  0  0  3  0  0  0  0  0  0
  185.9770  178.8290  142.9980 C   0  0  0  0  0  3  0  0  0  0  0  0
  184.8860  178.8290  143.7830 C   0  0  0  0  0  0  0  0  0  0  0  0
  184.5500  179.0010  140.9630 C   0  0  2  0  0  3  0  0  0  0  0  0
  183.5610  178.5800  143.1790 C   0  0  0  0  0  3  0  0  0  0  0  0
  184.9530  179.0610  145.1660 O   0  0  0  0  0  0  0  0  0  0  0  0
  185.9060  178.5370  146.0510 C   0  0  0  0  0  0  0  0  0  0  0  0
  185.9850  179.0780  147.2630 C   0  0  0  0  0  2  0  0  0  0  0  0
  186.7400  177.4740  145.6580 O   0  0  0  0  0  0  0  0  0  0  0  0
  188.7760  177.4770  146.7840 O   0  0  0  0  0  0  0  0  0  0  0  0
  188.1430  177.4490  145.6960 C   0  0  0  0  0  0  0  0  0  0  0  0
  188.8990  177.4260  144.4160 C   0  0  0  0  0  2  0  0  0  0  0  0
  188.3700  176.3200  143.5250 C   0  0  0  0  0  1  0  0  0  0  0  0
  186.6580  177.3980  138.5540 O   0  0  0  0  0  0  0  0  0  0  0  0
  190.0320  176.5480  137.1740 C   0  0  0  0  0  3  0  0  0  0  0  0
  188.0390  177.2090  138.4560 C   0  0  0  0  0  0  0  0  0  0  0  0
  188.8420  177.5060  139.5770 C   0  0  0  0  0  3  0  0  0  0  0  0
  191.1590  177.5270  140.3910 N   0  0  0  0  0  0  0  0  0  0  0  0
  190.7820  176.8520  138.3060 C   0  0  0  0  0  0  0  0  0  0  0  0
  193.2060  176.3600  137.6490 C   0  0  0  0  0  1  0  0  0  0  0  0
  188.6400  176.7330  137.2600 C   0  0  0  0  0  3  0  0  0  0  0  0
  190.2140  177.3110  139.4590 C   0  0  0  0  0  0  0  0  0  0  0  0
  192.3320  177.2110  139.8460 N   0  0  0  0  0  2  0  0  0  0  0  0
  192.1260  176.7970  138.5760 C   0  0  0  0  0  0  0  0  0  0  0  0
  180.6720  177.2950  138.0070 C   0  0  0  0  0  2  0  0  0  0  0  0
  179.8230  177.0030  139.2310 C   0  0  0  0  0  2  0  0  0  0  0  0
  178.9340  178.1930  139.5460 C   0  0  0  0  0  2  0  0  0  0  0  0
  179.1870  178.6670  140.8990 N   0  0  0  0  0  0  0  0  0  0  0  0
  179.7480  177.5450  141.6300 C   0  0  0  0  0  1  0  0  0  0  0  0
  179.7860  180.8990  141.4590 N   0  0  0  0  0  1  0  0  0  0  0  0
  180.2340  179.6730  140.8200 C   0  0  0  0  0  2  0  0  0  0  0  0
  1 10  1  1  0  0  0
  3 12  1  0  0  0  0
  3  7  1  0  0  0  0
  4  1  1  0  0  0  0
  4 38  1  0  0  0  0
  5  8  1  0  0  0  0
  5  6  1  0  0  0  0
  6  4  1  0  0  0  0
  7 11  1  0  0  0  0
  7 27  1  1  0  0  0
 10  2  1  0  0  0  0
 10  9  2  0  0  0  0
 11  2  1  0  0  0  0
 12  8  1  6  0  0  0
 12  1  1  0  0  0  0
 13 15  1  0  0  0  0
 14 18  2  0  0  0  0
 15 16  2  0  0  0  0
 16 19  1  0  0  0  0
 17  2  1  6  0  0  0
 17 13  1  0  0  0  0
 17 14  1  0  0  0  0
 18 16  1  0  0  0  0
 19 20  1  0  0  0  0
 20 21  2  0  0  0  0
 22 24  1  0  0  0  0
 22 20  1  0  0  0  0
 24 23  2  0  0  0  0
 25 24  1  0  0  0  0
 26 25  1  0  0  0  0
 28 34  2  0  0  0  0
 28 32  1  0  0  0  0
 29 27  1  0  0  0  0
 29 30  2  0  0  0  0
 32 37  2  0  0  0  0
 32 35  1  0  0  0  0
 33 37  1  0  0  0  0
 34 29  1  0  0  0  0
 35 30  1  0  0  0  0
 35 31  2  0  0  0  0
 36 31  1  0  0  0  0
 37 36  1  0  0  0  0
 38 39  1  0  0  0  0
 39 40  1  0  0  0  0
 40 41  1  0  0  0  0
 41 42  1  0  0  0  0
 44 41  1  0  0  0  0
 44 43  1  0  0  0  0
M  END
>  <MODEL>
8

>  <REMARK>
 VINA RESULT:      -6.5      2.777      9.260
  Name = 
  13 active torsions:
  status: ('A' for Active; 'I' for Inactive)
    1  A    between atoms: O_3  and  C_12
    2  A    between atoms: O_3  and  C_29
    3  A    between atoms: N_6  and  C_30
    4  A    between atoms: C_9  and  C_16
    5  A    between atoms: C_9  and  C_19
    6  A    between atoms: N_13  and  C_16
    7  A    between atoms: N_15  and  C_19
    8  A    between atoms: N_15  and  C_40
    9  A    between atoms: C_17  and  C_22
   10  A    between atoms: C_21  and  O_32
   11  A    between atoms: C_22  and  O_39
   12  A    between atoms: C_31  and  O_32
   13  A    between atoms: C_31  and  O_39
                            x       y       z     vdW  Elec       q    Type
                         _______ _______ _______ _____ _____    ______ ____

>  <TORSDO>
F 13

$$$$
=
 OpenBabel10222415443D

 44 48  0  0  1  0  0  0  0  0999 V2000
  191.1800  176.4980  138.2100 C   0  0  1  0  0  3  0  0  0  0  0  0
  188.6770  176.9430  138.0180 N   0  0  0  0  0  0  0  0  0  0  0  0
  190.8450  178.0690  140.1380 C   0  0  0  0  0  2  0  0  0  0  0  0
  192.1870  175.6020  137.6040 N   0  0  0  0  0  0  0  0  0  0  0  0
  193.6310  176.8130  139.0760 O   0  0  0  0  0  0  0  0  0  0  0  0
  193.5170  175.6980  138.2310 C   0  0  0  0  0  2  0  0  0  0  0  0
  189.3270  178.2500  140.0250 C   0  0  1  0  0  3  0  0  0  0  0  0
  192.7880  176.5310  140.1560 C   0  0  0  0  0  2  0  0  0  0  0  0
  189.5750  174.8280  137.5950 O   0  0  0  0  0  0  0  0  0  0  0  0
  189.7820  176.0340  137.9030 C   0  0  0  0  0  0  0  0  0  0  0  0
  188.8610  178.2890  138.5680 C   0  0  0  0  0  2  0  0  0  0  0  0
  191.3310  176.6810  139.7310 C   0  0  2  0  0  3  0  0  0  0  0  0
  187.3870  176.5300  135.9560 C   0  0  0  0  0  2  0  0  0  0  0  0
  186.2730  177.4370  138.0110 C   0  0  0  0  0  3  0  0  0  0  0  0
  185.9960  176.3150  135.4250 C   0  0  0  0  0  3  0  0  0  0  0  0
  184.9260  176.8210  136.0620 C   0  0  0  0  0  0  0  0  0  0  0  0
  187.3740  176.5510  137.4870 C   0  0  2  0  0  3  0  0  0  0  0  0
  185.1160  177.5250  137.3480 C   0  0  0  0  0  3  0  0  0  0  0  0
  183.6220  176.7030  135.5550 O   0  0  0  0  0  0  0  0  0  0  0  0
  182.4930  176.2630  136.2600 C   0  0  0  0  0  0  0  0  0  0  0  0
  182.1360  174.9900  136.1190 C   0  0  0  0  0  2  0  0  0  0  0  0
  181.7750  177.1470  137.0860 O   0  0  0  0  0  0  0  0  0  0  0  0
  180.2940  177.1290  138.8810 O   0  0  0  0  0  0  0  0  0  0  0  0
  181.4630  176.9640  138.4420 C   0  0  0  0  0  0  0  0  0  0  0  0
  182.5500  176.5990  139.3890 C   0  0  0  0  0  2  0  0  0  0  0  0
  182.5890  177.5910  140.5340 C   0  0  0  0  0  1  0  0  0  0  0  0
  188.6210  177.2570  140.7680 O   0  0  0  0  0  0  0  0  0  0  0  0
  186.4000  178.1400  143.6500 C   0  0  0  0  0  3  0  0  0  0  0  0
  188.1600  177.4560  142.0740 C   0  0  0  0  0  0  0  0  0  0  0  0
  189.0230  177.1530  143.1470 C   0  0  0  0  0  3  0  0  0  0  0  0
  189.1890  177.1370  145.5970 N   0  0  0  0  0  0  0  0  0  0  0  0
  187.2870  177.8300  144.6750 C   0  0  0  0  0  0  0  0  0  0  0  0
  186.0130  178.3430  146.8340 C   0  0  0  0  0  1  0  0  0  0  0  0
  186.8520  177.9470  142.3320 C   0  0  0  0  0  3  0  0  0  0  0  0
  188.5450  177.3570  144.4380 C   0  0  0  0  0  0  0  0  0  0  0  0
  188.3550  177.4650  146.5810 N   0  0  0  0  0  2  0  0  0  0  0  0
  187.1890  177.8900  146.0430 C   0  0  0  0  0  0  0  0  0  0  0  0
  192.3540  176.0250  136.2220 C   0  0  0  0  0  2  0  0  0  0  0  0
  193.5350  175.2980  135.6050 C   0  0  0  0  0  2  0  0  0  0  0  0
  194.3060  176.2330  134.6900 C   0  0  0  0  0  2  0  0  0  0  0  0
  195.3060  176.9680  135.4500 N   0  0  0  0  0  0  0  0  0  0  0  0
  196.4210  176.0600  135.6510 C   0  0  0  0  0  1  0  0  0  0  0  0
  196.1860  179.1770  135.4210 N   0  0  0  0  0  1  0  0  0  0  0  0
  195.7970  178.0420  134.6010 C   0  0  0  0  0  2  0  0  0  0  0  0
  1 10  1  1  0  0  0
  1 12  1  0  0  0  0
  2 11  1  0  0  0  0
  4  1  1  0  0  0  0
  4  6  1  0  0  0  0
  5  8  1  0  0  0  0
  6  5  1  0  0  0  0
  7  3  1  0  0  0  0
  7 27  1  1  0  0  0
  9 10  2  0  0  0  0
 10  2  1  0  0  0  0
 11  7  1  0  0  0  0
 12  3  1  6  0  0  0
 12  8  1  0  0  0  0
 15 13  1  0  0  0  0
 15 16  2  0  0  0  0
 16 18  1  0  0  0  0
 17 13  1  6  0  0  0
 17 14  1  0  0  0  0
 17  2  1  0  0  0  0
 18 14  2  0  0  0  0
 19 16  1  0  0  0  0
 19 20  1  0  0  0  0
 20 22  1  0  0  0  0
 21 20  2  0  0  0  0
 22 24  1  0  0  0  0
 24 23  2  0  0  0  0
 24 25  1  0  0  0  0
 25 26  1  0  0  0  0
 27 29  1  0  0  0  0
 28 32  1  0  0  0  0
 29 34  1  0  0  0  0
 29 30  2  0  0  0  0
 30 35  1  0  0  0  0
 31 36  1  0  0  0  0
 32 37  2  0  0  0  0
 34 28  2  0  0  0  0
 35 32  1  0  0  0  0
 35 31  2  0  0  0  0
 37 36  1  0  0  0  0
 37 33  1  0  0  0  0
 38  4  1  0  0  0  0
 39 38  1  0  0  0  0
 40 41  1  0  0  0  0
 40 39  1  0  0  0  0
 41 42  1  0  0  0  0
 44 43  1  0  0  0  0
 44 41  1  0  0  0  0
M  END
>  <MODEL>
9

>  <REMARK>
 VINA RESULT:      -6.3      3.596      8.952
  Name = 
  13 active torsions:
  status: ('A' for Active; 'I' for Inactive)
    1  A    between atoms: O_3  and  C_12
    2  A    between atoms: O_3  and  C_29
    3  A    between atoms: N_6  and  C_30
    4  A    between atoms: C_9  and  C_16
    5  A    between atoms: C_9  and  C_19
    6  A    between atoms: N_13  and  C_16
    7  A    between atoms: N_15  and  C_19
    8  A    between atoms: N_15  and  C_40
    9  A    between atoms: C_17  and  C_22
   10  A    between atoms: C_21  and  O_32
   11  A    between atoms: C_22  and  O_39
   12  A    between atoms: C_31  and  O_32
   13  A    between atoms: C_31  and  O_39
                            x       y       z     vdW  Elec       q    Type
                         _______ _______ _______ _____ _____    ______ ____

>  <TORSDO>
F 13

$$$$
