=
 OpenBabel10222419163D

 35 39  0  0  1  0  0  0  0  0999 V2000
  184.9980  179.3600  143.3460 C   0  0  2  0  0  0  0  0  0  0  0  0
  180.7900  178.2750  136.7180 C   0  0  0  0  0  3  0  0  0  0  0  0
  179.7860  177.1050  138.4580 C   0  0  0  0  0  0  0  0  0  0  0  0
  180.3040  179.8870  141.7270 N   0  0  0  0  0  0  0  0  0  0  0  0
  181.2130  178.8500  143.8090 C   0  0  0  0  0  2  0  0  0  0  0  0
  186.2250  178.4590  141.2820 C   0  0  0  0  0  2  0  0  0  0  0  0
  182.6850  178.5660  144.0680 C   0  0  0  0  0  2  0  0  0  0  0  0
  181.2900  177.8660  141.5130 N   0  0  0  0  0  0  0  0  0  0  0  0
  180.9300  178.8640  142.3430 C   0  0  0  0  0  0  0  0  0  0  0  0
  183.0980  177.9400  137.6210 C   0  0  0  0  0  2  0  0  0  0  0  0
  180.8730  178.2990  140.3120 C   0  0  0  0  0  0  0  0  0  0  0  0
  184.2650  178.0520  139.8240 C   0  0  0  0  0  2  0  0  0  0  0  0
  184.9990  178.3420  142.1700 C   0  0  2  0  0  3  0  0  0  0  0  0
  181.6880  178.4010  137.9560 C   0  0  2  0  0  3  0  0  0  0  0  0
  184.8930  179.0180  140.8110 C   0  0  1  0  0  3  0  0  0  0  0  0
  183.5420  179.7510  143.6350 C   0  0  0  0  0  2  0  0  0  0  0  0
  179.6060  177.5470  137.1320 N   0  0  0  0  0  0  0  0  0  0  0  0
  180.2640  179.5330  140.4300 C   0  0  0  0  0  2  0  0  0  0  0  0
  181.0750  177.5200  139.0500 C   0  0  2  0  0  3  0  0  0  0  0  0
  185.6890  180.5310  143.0050 O   0  0  0  0  0  1  0  0  0  0  0  0
  178.9310  176.4020  139.0580 O   0  0  0  0  0  0  0  0  0  0  0  0
  184.1290  178.6930  138.4470 C   0  0  1  0  0  3  0  0  0  0  0  0
  185.6510  178.7810  144.5910 C   0  0  0  0  0  0  0  0  0  0  0  0
  187.2250  177.2610  145.6640 C   0  0  0  0  0  3  0  0  0  0  0  0
  185.9840  178.8450  147.0050 C   0  0  0  0  0  3  0  0  0  0  0  0
  186.9120  177.8040  146.9200 C   0  0  0  0  0  0  0  0  0  0  0  0
  186.6040  177.7500  144.5120 C   0  0  0  0  0  3  0  0  0  0  0  0
  185.3640  179.3340  145.8520 C   0  0  0  0  0  3  0  0  0  0  0  0
  187.5110  177.3340  148.0920 O   0  0  0  0  0  0  0  0  0  0  0  0
  188.4400  178.1050  148.8420 C   0  0  0  0  0  1  0  0  0  0  0  0
  185.4590  178.6530  137.7110 C   0  0  0  0  0  2  0  0  0  0  0  0
  186.0410  177.3240  137.8020 N   0  0  0  0  0  2  0  0  0  0  0  0
  187.3760  177.4100  137.2380 C   0  0  0  0  0  2  0  0  0  0  0  0
  188.2080  178.2800  138.0730 C   0  0  0  0  0  0  0  0  0  0  0  0
  188.8660  178.9640  138.7330 N   0  0  0  0  0  0  0  0  0  0  0  0
  1 20  1  6  0  0  0
  1 16  1  0  0  0  0
  1 23  1  0  0  0  0
  2 17  2  0  0  0  0
  3 21  2  0  0  0  0
  4  9  2  0  0  0  0
  5  7  1  0  0  0  0
  8  9  1  0  0  0  0
  9  5  1  0  0  0  0
 10 14  1  0  0  0  0
 10 22  1  0  0  0  0
 11 18  1  0  0  0  0
 11  8  2  0  0  0  0
 13  6  1  6  0  0  0
 13  1  1  0  0  0  0
 14  2  1  6  0  0  0
 14 19  1  0  0  0  0
 15 12  1  6  0  0  0
 15  6  1  0  0  0  0
 15 13  1  0  0  0  0
 16  7  1  0  0  0  0
 17  3  1  0  0  0  0
 18  4  1  0  0  0  0
 19  3  1  6  0  0  0
 19 11  1  0  0  0  0
 22 31  1  6  0  0  0
 22 12  1  0  0  0  0
 23 28  1  0  0  0  0
 24 26  2  0  0  0  0
 26 25  1  0  0  0  0
 26 29  1  0  0  0  0
 27 23  2  0  0  0  0
 27 24  1  0  0  0  0
 28 25  2  0  0  0  0
 29 30  1  0  0  0  0
 31 32  1  0  0  0  0
 33 32  1  0  0  0  0
 33 34  1  0  0  0  0
 34 35  3  0  0  0  0
M  END
>  <MODEL>
1

>  <REMARK>
 VINA RESULT:      -7.4      0.000      0.000
  Name = 
  6 active torsions:
  status: ('A' for Active; 'I' for Inactive)
    1  A    between atoms: C_1  and  C_10
    2  A    between atoms: O_9  and  C_21
    3  A    between atoms: C_22  and  N_25
    4  A    between atoms: C_22  and  C_34
    5  A    between atoms: N_25  and  C_26
    6  A    between atoms: C_26  and  C_27
                            x       y       z     vdW  Elec       q    Type
                         _______ _______ _______ _____ _____    ______ ____

>  <TORSDO>
F 6

$$$$
=
 OpenBabel10222419163D

 35 39  0  0  1  0  0  0  0  0999 V2000
  185.1070  179.1330  141.7960 C   0  0  2  0  0  0  0  0  0  0  0  0
  191.7370  176.6180  138.2560 C   0  0  0  0  0  3  0  0  0  0  0  0
  189.8980  175.6950  137.1720 C   0  0  0  0  0  0  0  0  0  0  0  0
  187.1470  179.0310  137.2400 N   0  0  0  0  0  0  0  0  0  0  0  0
  184.8500  178.4370  138.0210 C   0  0  0  0  0  2  0  0  0  0  0  0
  186.8780  177.9810  143.2490 C   0  0  0  0  0  2  0  0  0  0  0  0
  184.4330  178.3100  139.4780 C   0  0  0  0  0  2  0  0  0  0  0  0
  186.9220  177.0800  138.3560 N   0  0  0  0  0  0  0  0  0  0  0  0
  186.3130  178.1780  137.8680 C   0  0  0  0  0  0  0  0  0  0  0  0
  190.6160  176.6120  140.4920 C   0  0  0  0  0  2  0  0  0  0  0  0
  188.2090  177.2680  138.0210 C   0  0  0  0  0  0  0  0  0  0  0  0
  188.3860  177.1870  141.4520 C   0  0  0  0  0  2  0  0  0  0  0  0
  186.0800  177.9300  141.9590 C   0  0  2  0  0  3  0  0  0  0  0  0
  190.4770  177.0200  139.0330 C   0  0  2  0  0  3  0  0  0  0  0  0
  187.5410  178.3530  141.9340 C   0  0  1  0  0  3  0  0  0  0  0  0
  185.0050  179.4620  140.3000 C   0  0  0  0  0  2  0  0  0  0  0  0
  191.2920  175.8880  137.0850 N   0  0  0  0  0  0  0  0  0  0  0  0
  188.3600  178.4560  137.3340 C   0  0  0  0  0  2  0  0  0  0  0  0
  189.2940  176.2990  138.3790 C   0  0  2  0  0  3  0  0  0  0  0  0
  185.5980  180.2740  142.4450 O   0  0  0  0  0  1  0  0  0  0  0  0
  189.2500  175.0460  136.3110 O   0  0  0  0  0  0  0  0  0  0  0  0
  189.8610  177.5690  141.4000 C   0  0  1  0  0  3  0  0  0  0  0  0
  183.7330  178.8270  142.3700 C   0  0  0  0  0  0  0  0  0  0  0  0
  182.2160  178.5900  144.2620 C   0  0  0  0  0  3  0  0  0  0  0  0
  181.3660  178.3690  142.0090 C   0  0  0  0  0  3  0  0  0  0  0  0
  181.1440  178.3520  143.3880 C   0  0  0  0  0  0  0  0  0  0  0  0
  183.4960  178.8310  143.7560 C   0  0  0  0  0  3  0  0  0  0  0  0
  182.6460  178.6120  141.5040 C   0  0  0  0  0  3  0  0  0  0  0  0
  179.8530  178.1010  143.8620 O   0  0  0  0  0  0  0  0  0  0  0  0
  179.0210  179.1210  144.3970 C   0  0  0  0  0  1  0  0  0  0  0  0
  190.4750  177.4990  142.7890 C   0  0  0  0  0  2  0  0  0  0  0  0
  190.3470  176.1540  143.3260 N   0  0  0  0  0  2  0  0  0  0  0  0
  191.6070  175.8390  143.9760 C   0  0  0  0  0  2  0  0  0  0  0  0
  191.6590  176.4870  145.2880 C   0  0  0  0  0  0  0  0  0  0  0  0
  191.7030  177.0000  146.3230 N   0  0  0  0  0  0  0  0  0  0  0  0
  1 13  1  0  0  0  0
  1 23  1  0  0  0  0
  1 20  1  1  0  0  0
  4 18  1  0  0  0  0
  4  9  2  0  0  0  0
  5  7  1  0  0  0  0
  7 16  1  0  0  0  0
  9  5  1  0  0  0  0
  9  8  1  0  0  0  0
 10 22  1  0  0  0  0
 11  8  2  0  0  0  0
 11 19  1  0  0  0  0
 13  6  1  1  0  0  0
 14  2  1  6  0  0  0
 14 10  1  0  0  0  0
 15 12  1  6  0  0  0
 15 13  1  0  0  0  0
 15  6  1  0  0  0  0
 16  1  1  0  0  0  0
 17  3  1  0  0  0  0
 17  2  2  0  0  0  0
 18 11  1  0  0  0  0
 19  3  1  6  0  0  0
 19 14  1  0  0  0  0
 21  3  2  0  0  0  0
 22 12  1  0  0  0  0
 22 31  1  1  0  0  0
 23 27  1  0  0  0  0
 25 26  2  0  0  0  0
 26 29  1  0  0  0  0
 26 24  1  0  0  0  0
 27 24  2  0  0  0  0
 28 25  1  0  0  0  0
 28 23  2  0  0  0  0
 29 30  1  0  0  0  0
 31 32  1  0  0  0  0
 32 33  1  0  0  0  0
 33 34  1  0  0  0  0
 34 35  3  0  0  0  0
M  END
>  <MODEL>
2

>  <REMARK>
 VINA RESULT:      -7.1      3.363      7.218
  Name = 
  6 active torsions:
  status: ('A' for Active; 'I' for Inactive)
    1  A    between atoms: C_1  and  C_10
    2  A    between atoms: O_9  and  C_21
    3  A    between atoms: C_22  and  N_25
    4  A    between atoms: C_22  and  C_34
    5  A    between atoms: N_25  and  C_26
    6  A    between atoms: C_26  and  C_27
                            x       y       z     vdW  Elec       q    Type
                         _______ _______ _______ _____ _____    ______ ____

>  <TORSDO>
F 6

$$$$
=
 OpenBabel10222419163D

 35 39  0  0  1  0  0  0  0  0999 V2000
  183.7960  178.2130  139.8460 C   0  0  2  0  0  0  0  0  0  0  0  0
  191.3920  176.7300  141.5540 C   0  0  0  0  0  3  0  0  0  0  0  0
  190.5600  178.2860  143.0690 C   0  0  0  0  0  0  0  0  0  0  0  0
  186.5740  176.7440  143.7260 N   0  0  0  0  0  0  0  0  0  0  0  0
  184.7770  178.4700  143.5570 C   0  0  0  0  0  2  0  0  0  0  0  0
  185.5280  178.5320  137.9810 C   0  0  0  0  0  2  0  0  0  0  0  0
  184.1660  178.9640  142.2550 C   0  0  0  0  0  2  0  0  0  0  0  0
  187.1140  178.6800  142.6950 N   0  0  0  0  0  0  0  0  0  0  0  0
  186.1640  177.9650  143.3290 C   0  0  0  0  0  0  0  0  0  0  0  0
  189.9560  177.5580  139.6810 C   0  0  0  0  0  2  0  0  0  0  0  0
  188.1700  177.8510  142.6900 C   0  0  0  0  0  0  0  0  0  0  0  0
  187.5890  178.2630  139.3280 C   0  0  0  0  0  2  0  0  0  0  0  0
  185.1750  178.8030  139.4330 C   0  0  2  0  0  3  0  0  0  0  0  0
  189.9630  177.0910  141.1290 C   0  0  2  0  0  3  0  0  0  0  0  0
  186.1910  177.7250  139.0840 C   0  0  1  0  0  3  0  0  0  0  0  0
  183.8810  177.7920  141.3190 C   0  0  0  0  0  2  0  0  0  0  0  0
  191.6480  177.4320  142.7980 N   0  0  0  0  0  0  0  0  0  0  0  0
  187.8550  176.6640  143.3210 C   0  0  0  0  0  2  0  0  0  0  0  0
  189.4820  178.2070  142.0610 C   0  0  2  0  0  3  0  0  0  0  0  0
  183.4890  177.0690  139.0980 O   0  0  0  0  0  1  0  0  0  0  0  0
  190.5370  179.0550  144.0650 O   0  0  0  0  0  0  0  0  0  0  0  0
  188.6420  177.2100  139.0010 C   0  0  1  0  0  3  0  0  0  0  0  0
  182.6720  179.2170  139.6420 C   0  0  0  0  0  0  0  0  0  0  0  0
  181.7680  181.2230  138.5960 C   0  0  0  0  0  3  0  0  0  0  0  0
  180.3590  179.8800  140.0300 C   0  0  0  0  0  3  0  0  0  0  0  0
  180.5270  181.0010  139.2150 C   0  0  0  0  0  0  0  0  0  0  0  0
  182.8270  180.3360  138.8040 C   0  0  0  0  0  3  0  0  0  0  0  0
  181.4180  178.9910  140.2370 C   0  0  0  0  0  3  0  0  0  0  0  0
  179.4500  181.8730  139.0320 O   0  0  0  0  0  0  0  0  0  0  0  0
  179.4540  182.9030  138.0530 C   0  0  0  0  0  1  0  0  0  0  0  0
  188.8780  177.1460  137.5010 C   0  0  0  0  0  2  0  0  0  0  0  0
  188.4510  175.8570  136.9820 N   0  0  0  0  0  2  0  0  0  0  0  0
  189.5690  175.3140  136.2320 C   0  0  0  0  0  2  0  0  0  0  0  0
  190.6110  174.8630  137.1570 C   0  0  0  0  0  0  0  0  0  0  0  0
  191.4330  174.5100  137.8890 N   0  0  0  0  0  0  0  0  0  0  0  0
  1 20  1  6  0  0  0
  1 16  1  0  0  0  0
  2 17  2  0  0  0  0
  3 21  2  0  0  0  0
  7  5  1  0  0  0  0
  8  9  1  0  0  0  0
  9  5  1  0  0  0  0
  9  4  2  0  0  0  0
 11  8  2  0  0  0  0
 11 18  1  0  0  0  0
 13  6  1  6  0  0  0
 13  1  1  0  0  0  0
 14 10  1  6  0  0  0
 14  2  1  0  0  0  0
 14 19  1  0  0  0  0
 15  6  1  6  0  0  0
 15 12  1  0  0  0  0
 15 13  1  0  0  0  0
 16  7  1  0  0  0  0
 17  3  1  0  0  0  0
 18  4  1  0  0  0  0
 19 11  1  1  0  0  0
 19  3  1  0  0  0  0
 22 31  1  6  0  0  0
 22 12  1  0  0  0  0
 22 10  1  0  0  0  0
 23  1  1  0  0  0  0
 23 28  1  0  0  0  0
 24 27  1  0  0  0  0
 24 26  2  0  0  0  0
 25 28  2  0  0  0  0
 26 25  1  0  0  0  0
 27 23  2  0  0  0  0
 29 26  1  0  0  0  0
 30 29  1  0  0  0  0
 32 31  1  0  0  0  0
 33 32  1  0  0  0  0
 33 34  1  0  0  0  0
 34 35  3  0  0  0  0
M  END
>  <MODEL>
3

>  <REMARK>
 VINA RESULT:      -6.7      3.437      7.758
  Name = 
  6 active torsions:
  status: ('A' for Active; 'I' for Inactive)
    1  A    between atoms: C_1  and  C_10
    2  A    between atoms: O_9  and  C_21
    3  A    between atoms: C_22  and  N_25
    4  A    between atoms: C_22  and  C_34
    5  A    between atoms: N_25  and  C_26
    6  A    between atoms: C_26  and  C_27
                            x       y       z     vdW  Elec       q    Type
                         _______ _______ _______ _____ _____    ______ ____

>  <TORSDO>
F 6

$$$$
=
 OpenBabel10222419163D

 35 39  0  0  1  0  0  0  0  0999 V2000
  184.6470  178.8830  140.9350 C   0  0  2  0  0  0  0  0  0  0  0  0
  192.4290  177.5020  140.3390 C   0  0  0  0  0  3  0  0  0  0  0  0
  191.3090  176.2590  138.7240 C   0  0  0  0  0  0  0  0  0  0  0  0
  188.2600  179.0680  137.4930 N   0  0  0  0  0  0  0  0  0  0  0  0
  185.9610  178.0970  137.4050 C   0  0  0  0  0  2  0  0  0  0  0  0
  185.8850  178.0760  143.0310 C   0  0  0  0  0  2  0  0  0  0  0  0
  185.0450  177.9210  138.6060 C   0  0  0  0  0  2  0  0  0  0  0  0
  187.9310  177.1250  138.5960 N   0  0  0  0  0  0  0  0  0  0  0  0
  187.3930  178.0930  137.8300 C   0  0  0  0  0  0  0  0  0  0  0  0
  190.5550  177.3350  141.9870 C   0  0  0  0  0  2  0  0  0  0  0  0
  189.2030  177.5270  138.7530 C   0  0  0  0  0  0  0  0  0  0  0  0
  188.0670  177.5290  141.9960 C   0  0  0  0  0  2  0  0  0  0  0  0
  185.6570  177.8690  141.5440 C   0  0  2  0  0  3  0  0  0  0  0  0
  190.9220  177.6910  140.5540 C   0  0  2  0  0  3  0  0  0  0  0  0
  186.9340  178.5380  142.0330 C   0  0  1  0  0  3  0  0  0  0  0  0
  185.0740  179.1670  139.4880 C   0  0  0  0  0  2  0  0  0  0  0  0
  192.5830  176.6880  139.1480 N   0  0  0  0  0  0  0  0  0  0  0  0
  189.4190  178.7140  138.0790 C   0  0  0  0  0  2  0  0  0  0  0  0
  190.2040  176.7670  139.5650 C   0  0  2  0  0  3  0  0  0  0  0  0
  184.6700  180.1010  141.6270 O   0  0  0  0  0  1  0  0  0  0  0  0
  191.1470  175.4950  137.7370 O   0  0  0  0  0  0  0  0  0  0  0  0
  189.3720  178.1600  142.4690 C   0  0  1  0  0  3  0  0  0  0  0  0
  183.2230  178.3520  140.9760 C   0  0  0  0  0  0  0  0  0  0  0  0
  180.9200  178.4820  141.7610 C   0  0  0  0  0  3  0  0  0  0  0  0
  181.5400  176.8010  140.1370 C   0  0  0  0  0  3  0  0  0  0  0  0
  180.5680  177.3950  140.9470 C   0  0  0  0  0  0  0  0  0  0  0  0
  182.2340  178.9580  141.7700 C   0  0  0  0  0  3  0  0  0  0  0  0
  182.8530  177.2790  140.1460 C   0  0  0  0  0  3  0  0  0  0  0  0
  179.2650  176.8900  140.9190 O   0  0  0  0  0  0  0  0  0  0  0  0
  178.9720  175.5390  140.5920 C   0  0  0  0  0  1  0  0  0  0  0  0
  189.4120  178.2180  143.9870 C   0  0  0  0  0  2  0  0  0  0  0  0
  189.0110  176.9390  144.5480 N   0  0  0  0  0  2  0  0  0  0  0  0
  188.9370  177.1140  145.9870 C   0  0  0  0  0  2  0  0  0  0  0  0
  187.6570  177.7310  146.3420 C   0  0  0  0  0  0  0  0  0  0  0  0
  186.6460  178.2190  146.6200 N   0  0  0  0  0  0  0  0  0  0  0  0
  1 23  1  0  0  0  0
  1 13  1  0  0  0  0
  1 20  1  1  0  0  0
  3 17  1  0  0  0  0
  4  9  2  0  0  0  0
  4 18  1  0  0  0  0
  5  9  1  0  0  0  0
  5  7  1  0  0  0  0
  7 16  1  0  0  0  0
  8 11  2  0  0  0  0
  9  8  1  0  0  0  0
 10 22  1  0  0  0  0
 11 19  1  0  0  0  0
 12 22  1  0  0  0  0
 13 15  1  0  0  0  0
 13  6  1  1  0  0  0
 14  2  1  1  0  0  0
 14 10  1  0  0  0  0
 15 12  1  1  0  0  0
 15  6  1  0  0  0  0
 16  1  1  0  0  0  0
 17  2  2  0  0  0  0
 18 11  1  0  0  0  0
 19  3  1  6  0  0  0
 19 14  1  0  0  0  0
 21  3  2  0  0  0  0
 22 31  1  1  0  0  0
 23 27  1  0  0  0  0
 24 27  2  0  0  0  0
 25 28  1  0  0  0  0
 25 26  2  0  0  0  0
 26 24  1  0  0  0  0
 28 23  2  0  0  0  0
 29 26  1  0  0  0  0
 30 29  1  0  0  0  0
 31 32  1  0  0  0  0
 32 33  1  0  0  0  0
 33 34  1  0  0  0  0
 34 35  3  0  0  0  0
M  END
>  <MODEL>
4

>  <REMARK>
 VINA RESULT:      -6.6      3.185      8.152
  Name = 
  6 active torsions:
  status: ('A' for Active; 'I' for Inactive)
    1  A    between atoms: C_1  and  C_10
    2  A    between atoms: O_9  and  C_21
    3  A    between atoms: C_22  and  N_25
    4  A    between atoms: C_22  and  C_34
    5  A    between atoms: N_25  and  C_26
    6  A    between atoms: C_26  and  C_27
                            x       y       z     vdW  Elec       q    Type
                         _______ _______ _______ _____ _____    ______ ____

>  <TORSDO>
F 6

$$$$
=
 OpenBabel10222419163D

 35 39  0  0  1  0  0  0  0  0999 V2000
  189.5690  177.7620  139.7480 C   0  0  2  0  0  0  0  0  0  0  0  0
  186.2350  178.9660  146.8370 C   0  0  0  0  0  3  0  0  0  0  0  0
  187.6540  177.1280  146.9650 C   0  0  0  0  0  0  0  0  0  0  0  0
  190.9460  178.4580  144.4970 N   0  0  0  0  0  0  0  0  0  0  0  0
  191.6900  176.7790  142.8040 C   0  0  0  0  0  2  0  0  0  0  0  0
  187.0090  177.8450  139.8690 C   0  0  0  0  0  2  0  0  0  0  0  0
  191.0220  176.5490  141.4570 C   0  0  0  0  0  2  0  0  0  0  0  0
  189.5140  176.7750  144.0330 N   0  0  0  0  0  0  0  0  0  0  0  0
  190.7130  177.3360  143.7870 C   0  0  0  0  0  0  0  0  0  0  0  0
  185.6120  178.5130  144.4570 C   0  0  0  0  0  2  0  0  0  0  0  0
  188.9670  177.6000  144.9410 C   0  0  0  0  0  0  0  0  0  0  0  0
  186.7460  177.8630  142.3320 C   0  0  0  0  0  2  0  0  0  0  0  0
  188.2820  177.2850  140.4780 C   0  0  2  0  0  3  0  0  0  0  0  0
  186.7710  178.6800  145.4280 C   0  0  2  0  0  3  0  0  0  0  0  0
  187.5440  178.4230  141.1680 C   0  0  1  0  0  3  0  0  0  0  0  0
  190.6900  177.8800  140.7900 C   0  0  0  0  0  2  0  0  0  0  0  0
  186.8920  178.0320  147.7320 N   0  0  0  0  0  0  0  0  0  0  0  0
  189.8360  178.6330  145.2360 C   0  0  0  0  0  2  0  0  0  0  0  0
  187.5990  177.3940  145.5120 C   0  0  2  0  0  3  0  0  0  0  0  0
  189.3890  179.0300  139.1780 O   0  0  0  0  0  1  0  0  0  0  0  0
  188.2930  176.1750  147.4810 O   0  0  0  0  0  0  0  0  0  0  0  0
  185.9980  178.9740  143.0610 C   0  0  1  0  0  3  0  0  0  0  0  0
  189.9730  176.8060  138.6370 C   0  0  0  0  0  0  0  0  0  0  0  0
  189.4100  175.1640  136.9270 C   0  0  0  0  0  3  0  0  0  0  0  0
  191.6930  175.9280  137.1500 C   0  0  0  0  0  3  0  0  0  0  0  0
  190.7500  175.1180  136.5130 C   0  0  0  0  0  0  0  0  0  0  0  0
  189.0260  176.0050  137.9750 C   0  0  0  0  0  3  0  0  0  0  0  0
  191.3080  176.7700  138.1970 C   0  0  0  0  0  3  0  0  0  0  0  0
  191.1680  174.2840  135.4720 O   0  0  0  0  0  0  0  0  0  0  0  0
  191.7260  172.9960  135.6980 C   0  0  0  0  0  1  0  0  0  0  0  0
  184.7290  179.3400  142.3070 C   0  0  0  0  0  2  0  0  0  0  0  0
  184.0250  178.1360  141.8980 N   0  0  0  0  0  2  0  0  0  0  0  0
  183.0760  178.5320  140.8730 C   0  0  0  0  0  2  0  0  0  0  0  0
  183.7460  179.3750  139.8810 C   0  0  0  0  0  0  0  0  0  0  0  0
  184.2740  180.0390  139.0950 N   0  0  0  0  0  0  0  0  0  0  0  0
  1 20  1  6  0  0  0
  1 13  1  0  0  0  0
  1 16  1  0  0  0  0
  2 17  2  0  0  0  0
  3 21  2  0  0  0  0
  3 17  1  0  0  0  0
  4 18  1  0  0  0  0
  5  9  1  0  0  0  0
  7  5  1  0  0  0  0
  8 11  2  0  0  0  0
  9  8  1  0  0  0  0
  9  4  2  0  0  0  0
 11 18  1  0  0  0  0
 12 22  1  0  0  0  0
 13  6  1  6  0  0  0
 13 15  1  0  0  0  0
 14 10  1  6  0  0  0
 14 19  1  0  0  0  0
 14  2  1  0  0  0  0
 15  6  1  6  0  0  0
 15 12  1  0  0  0  0
 16  7  1  0  0  0  0
 19 11  1  1  0  0  0
 19  3  1  0  0  0  0
 22 31  1  6  0  0  0
 22 10  1  0  0  0  0
 23  1  1  0  0  0  0
 24 27  1  0  0  0  0
 25 28  2  0  0  0  0
 26 24  2  0  0  0  0
 26 25  1  0  0  0  0
 27 23  2  0  0  0  0
 28 23  1  0  0  0  0
 29 30  1  0  0  0  0
 29 26  1  0  0  0  0
 32 31  1  0  0  0  0
 33 32  1  0  0  0  0
 34 33  1  0  0  0  0
 35 34  3  0  0  0  0
M  END
>  <MODEL>
5

>  <REMARK>
 VINA RESULT:      -6.6      3.960      8.910
  Name = 
  6 active torsions:
  status: ('A' for Active; 'I' for Inactive)
    1  A    between atoms: C_1  and  C_10
    2  A    between atoms: O_9  and  C_21
    3  A    between atoms: C_22  and  N_25
    4  A    between atoms: C_22  and  C_34
    5  A    between atoms: N_25  and  C_26
    6  A    between atoms: C_26  and  C_27
                            x       y       z     vdW  Elec       q    Type
                         _______ _______ _______ _____ _____    ______ ____

>  <TORSDO>
F 6

$$$$
=
 OpenBabel10222419163D

 35 39  0  0  1  0  0  0  0  0999 V2000
  187.5440  178.4750  140.7880 C   0  0  2  0  0  0  0  0  0  0  0  0
  190.3920  177.3220  148.0940 C   0  0  0  0  0  3  0  0  0  0  0  0
  191.5840  176.0030  146.5950 C   0  0  0  0  0  0  0  0  0  0  0  0
  191.9030  178.6820  143.2150 N   0  0  0  0  0  0  0  0  0  0  0  0
  191.2920  177.6380  141.0310 C   0  0  0  0  0  2  0  0  0  0  0  0
  185.8950  177.7630  142.6180 C   0  0  0  0  0  2  0  0  0  0  0  0
  189.8710  177.4650  140.5170 C   0  0  0  0  0  2  0  0  0  0  0  0
  190.7210  176.7590  143.3000 N   0  0  0  0  0  0  0  0  0  0  0  0
  191.3090  177.6890  142.5230 C   0  0  0  0  0  0  0  0  0  0  0  0
  188.2610  177.1410  146.7970 C   0  0  0  0  0  2  0  0  0  0  0  0
  190.9540  177.2050  144.5450 C   0  0  0  0  0  0  0  0  0  0  0  0
  187.5200  177.2570  144.4170 C   0  0  0  0  0  2  0  0  0  0  0  0
  187.2450  177.5100  141.9700 C   0  0  2  0  0  3  0  0  0  0  0  0
  189.7440  177.4700  146.7110 C   0  0  2  0  0  3  0  0  0  0  0  0
  187.1660  178.2310  143.3070 C   0  0  1  0  0  3  0  0  0  0  0  0
  189.0570  178.7340  140.7580 C   0  0  0  0  0  2  0  0  0  0  0  0
  191.5620  176.4830  147.9200 N   0  0  0  0  0  0  0  0  0  0  0  0
  191.6800  178.3800  144.5070 C   0  0  0  0  0  2  0  0  0  0  0  0
  190.4620  176.4980  145.7690 C   0  0  2  0  0  3  0  0  0  0  0  0
  186.9090  179.7120  140.9680 O   0  0  0  0  0  1  0  0  0  0  0  0
  192.4660  175.2080  146.1780 O   0  0  0  0  0  0  0  0  0  0  0  0
  187.4650  177.9410  145.7780 C   0  0  1  0  0  3  0  0  0  0  0  0
  187.0750  177.9010  139.4600 C   0  0  0  0  0  0  0  0  0  0  0  0
  185.4290  177.7330  137.6720 C   0  0  0  0  0  3  0  0  0  0  0  0
  187.5410  176.5720  137.4700 C   0  0  0  0  0  3  0  0  0  0  0  0
  186.2860  176.8920  136.9450 C   0  0  0  0  0  0  0  0  0  0  0  0
  185.8240  178.2360  138.9140 C   0  0  0  0  0  3  0  0  0  0  0  0
  187.9360  177.0780  138.7120 C   0  0  0  0  0  3  0  0  0  0  0  0
  185.9190  176.3660  135.7030 O   0  0  0  0  0  0  0  0  0  0  0  0
  186.1290  175.0050  135.3540 C   0  0  0  0  0  1  0  0  0  0  0  0
  186.0270  178.0410  146.2620 C   0  0  0  0  0  2  0  0  0  0  0  0
  185.3700  179.1830  145.6480 N   0  0  0  0  0  2  0  0  0  0  0  0
  183.9430  179.0030  145.8430 C   0  0  0  0  0  2  0  0  0  0  0  0
  183.2650  179.0030  144.5460 C   0  0  0  0  0  0  0  0  0  0  0  0
  182.7320  179.0030  143.5190 N   0  0  0  0  0  0  0  0  0  0  0  0
  1 20  1  1  0  0  0
  1 13  1  0  0  0  0
  3 17  1  0  0  0  0
  4 18  1  0  0  0  0
  5  9  1  0  0  0  0
  7 16  1  0  0  0  0
  7  5  1  0  0  0  0
  8 11  2  0  0  0  0
  9  4  2  0  0  0  0
  9  8  1  0  0  0  0
 12 22  1  0  0  0  0
 13  6  1  6  0  0  0
 13 15  1  0  0  0  0
 14 10  1  1  0  0  0
 14  2  1  0  0  0  0
 15  6  1  1  0  0  0
 15 12  1  0  0  0  0
 16  1  1  0  0  0  0
 17  2  2  0  0  0  0
 18 11  1  0  0  0  0
 19 11  1  6  0  0  0
 19  3  1  0  0  0  0
 19 14  1  0  0  0  0
 21  3  2  0  0  0  0
 22 31  1  1  0  0  0
 22 10  1  0  0  0  0
 23  1  1  0  0  0  0
 24 27  2  0  0  0  0
 25 28  1  0  0  0  0
 26 25  2  0  0  0  0
 26 24  1  0  0  0  0
 27 23  1  0  0  0  0
 28 23  2  0  0  0  0
 29 26  1  0  0  0  0
 30 29  1  0  0  0  0
 32 33  1  0  0  0  0
 32 31  1  0  0  0  0
 34 33  1  0  0  0  0
 35 34  3  0  0  0  0
M  END
>  <MODEL>
6

>  <REMARK>
 VINA RESULT:      -6.3      3.692      9.822
  Name = 
  6 active torsions:
  status: ('A' for Active; 'I' for Inactive)
    1  A    between atoms: C_1  and  C_10
    2  A    between atoms: O_9  and  C_21
    3  A    between atoms: C_22  and  N_25
    4  A    between atoms: C_22  and  C_34
    5  A    between atoms: N_25  and  C_26
    6  A    between atoms: C_26  and  C_27
                            x       y       z     vdW  Elec       q    Type
                         _______ _______ _______ _____ _____    ______ ____

>  <TORSDO>
F 6

$$$$
=
 OpenBabel10222419163D

 35 39  0  0  1  0  0  0  0  0999 V2000
  183.8030  178.8540  139.1690 C   0  0  2  0  0  0  0  0  0  0  0  0
  189.5760  177.8960  144.5140 C   0  0  0  0  0  3  0  0  0  0  0  0
  189.9600  176.4740  142.7150 C   0  0  0  0  0  0  0  0  0  0  0  0
  188.7880  179.0010  139.4070 N   0  0  0  0  0  0  0  0  0  0  0  0
  187.2570  177.8920  137.7750 C   0  0  0  0  0  2  0  0  0  0  0  0
  183.1250  178.2760  141.5740 C   0  0  0  0  0  2  0  0  0  0  0  0
  185.7540  177.7500  137.9510 C   0  0  0  0  0  2  0  0  0  0  0  0
  187.7380  177.1270  140.1050 N   0  0  0  0  0  0  0  0  0  0  0  0
  187.9350  178.0030  139.1010 C   0  0  0  0  0  0  0  0  0  0  0  0
  187.0880  177.7390  144.3030 C   0  0  0  0  0  2  0  0  0  0  0  0
  188.5050  177.6140  141.0940 C   0  0  0  0  0  0  0  0  0  0  0  0
  185.3710  177.7850  142.4940 C   0  0  0  0  0  2  0  0  0  0  0  0
  184.0440  177.9490  140.4100 C   0  0  2  0  0  3  0  0  0  0  0  0
  188.3840  178.0110  143.5540 C   0  0  2  0  0  3  0  0  0  0  0  0
  184.5760  178.7250  141.6060 C   0  0  1  0  0  3  0  0  0  0  0  0
  185.1490  179.0560  138.4600 C   0  0  0  0  0  2  0  0  0  0  0  0
  190.5350  177.0080  143.8860 N   0  0  0  0  0  0  0  0  0  0  0  0
  189.1570  178.7600  140.6780 C   0  0  0  0  0  2  0  0  0  0  0  0
  188.5960  176.9760  142.4450 C   0  0  2  0  0  3  0  0  0  0  0  0
  183.3310  180.1180  139.5460 O   0  0  0  0  0  1  0  0  0  0  0  0
  190.5560  175.6320  141.9930 O   0  0  0  0  0  0  0  0  0  0  0  0
  185.9350  178.5260  143.7020 C   0  0  1  0  0  3  0  0  0  0  0  0
  182.7860  178.2430  138.2170 C   0  0  0  0  0  0  0  0  0  0  0  0
  181.1850  178.4450  136.3920 C   0  0  0  0  0  3  0  0  0  0  0  0
  181.6930  176.2640  137.3050 C   0  0  0  0  0  3  0  0  0  0  0  0
  180.9810  177.0560  136.4010 C   0  0  0  0  0  0  0  0  0  0  0  0
  182.0830  179.0300  137.2870 C   0  0  0  0  0  3  0  0  0  0  0  0
  182.5930  176.8500  138.2000 C   0  0  0  0  0  3  0  0  0  0  0  0
  180.0860  176.4400  135.5220 O   0  0  0  0  0  0  0  0  0  0  0  0
  180.0260  175.0300  135.3520 C   0  0  0  0  0  1  0  0  0  0  0  0
  184.8620  178.6960  144.7650 C   0  0  0  0  0  2  0  0  0  0  0  0
  185.4110  179.3780  145.9260 N   0  0  0  0  0  2  0  0  0  0  0  0
  185.3780  178.4300  147.0250 C   0  0  0  0  0  2  0  0  0  0  0  0
  186.7270  178.2560  147.5660 C   0  0  0  0  0  0  0  0  0  0  0  0
  187.7930  178.1160  147.9910 N   0  0  0  0  0  0  0  0  0  0  0  0
  1 20  1  1  0  0  0
  1 13  1  0  0  0  0
  3 17  1  0  0  0  0
  4 18  1  0  0  0  0
  5  7  1  0  0  0  0
  5  9  1  0  0  0  0
  7 16  1  0  0  0  0
  8 11  2  0  0  0  0
  9  4  2  0  0  0  0
  9  8  1  0  0  0  0
 12 22  1  0  0  0  0
 13  6  1  1  0  0  0
 13 15  1  0  0  0  0
 14 10  1  1  0  0  0
 14  2  1  0  0  0  0
 15  6  1  1  0  0  0
 15 12  1  0  0  0  0
 16  1  1  0  0  0  0
 17  2  2  0  0  0  0
 18 11  1  0  0  0  0
 19 11  1  6  0  0  0
 19  3  1  0  0  0  0
 19 14  1  0  0  0  0
 21  3  2  0  0  0  0
 22 10  1  0  0  0  0
 22 31  1  1  0  0  0
 23  1  1  0  0  0  0
 24 26  2  0  0  0  0
 24 27  1  0  0  0  0
 25 28  2  0  0  0  0
 26 25  1  0  0  0  0
 27 23  2  0  0  0  0
 28 23  1  0  0  0  0
 29 26  1  0  0  0  0
 30 29  1  0  0  0  0
 31 32  1  0  0  0  0
 32 33  1  0  0  0  0
 33 34  1  0  0  0  0
 34 35  3  0  0  0  0
M  END
>  <MODEL>
7

>  <REMARK>
 VINA RESULT:      -6.3      3.068      8.947
  Name = 
  6 active torsions:
  status: ('A' for Active; 'I' for Inactive)
    1  A    between atoms: C_1  and  C_10
    2  A    between atoms: O_9  and  C_21
    3  A    between atoms: C_22  and  N_25
    4  A    between atoms: C_22  and  C_34
    5  A    between atoms: N_25  and  C_26
    6  A    between atoms: C_26  and  C_27
                            x       y       z     vdW  Elec       q    Type
                         _______ _______ _______ _____ _____    ______ ____

>  <TORSDO>
F 6

$$$$
=
 OpenBabel10222419163D

 35 39  0  0  1  0  0  0  0  0999 V2000
  190.0270  178.2500  142.7000 C   0  0  2  0  0  0  0  0  0  0  0  0
  191.0720  176.1930  135.1180 C   0  0  0  0  0  3  0  0  0  0  0  0
  188.9190  175.6110  135.7750 C   0  0  0  0  0  0  0  0  0  0  0  0
  187.8750  178.9960  138.2560 N   0  0  0  0  0  0  0  0  0  0  0  0
  186.8960  178.3710  140.4670 C   0  0  0  0  0  2  0  0  0  0  0  0
  192.0140  176.7310  142.1340 C   0  0  0  0  0  2  0  0  0  0  0  0
  187.7020  177.9640  141.6910 C   0  0  0  0  0  2  0  0  0  0  0  0
  188.1950  176.8700  138.9480 N   0  0  0  0  0  0  0  0  0  0  0  0
  187.6550  178.0740  139.2150 C   0  0  0  0  0  0  0  0  0  0  0  0
  192.0410  175.7790  137.3860 C   0  0  0  0  0  2  0  0  0  0  0  0
  188.7920  177.0560  137.7600 C   0  0  0  0  0  0  0  0  0  0  0  0
  191.4640  176.2530  139.7670 C   0  0  0  0  0  2  0  0  0  0  0  0
  190.5310  176.9920  141.9380 C   0  0  2  0  0  3  0  0  0  0  0  0
  190.9370  176.4880  136.6180 C   0  0  2  0  0  3  0  0  0  0  0  0
  191.5170  177.3350  140.8310 C   0  0  1  0  0  3  0  0  0  0  0  0
  188.9030  178.8880  141.8720 C   0  0  0  0  0  2  0  0  0  0  0  0
  189.7700  175.7460  134.6600 N   0  0  0  0  0  0  0  0  0  0  0  0
  188.6010  178.3530  137.3230 C   0  0  0  0  0  2  0  0  0  0  0  0
  189.5590  175.9810  137.0550 C   0  0  2  0  0  3  0  0  0  0  0  0
  191.0450  179.2050  142.8340 O   0  0  0  0  0  1  0  0  0  0  0  0
  187.7370  175.1900  135.6750 O   0  0  0  0  0  0  0  0  0  0  0  0
  192.4310  176.5620  138.6300 C   0  0  1  0  0  3  0  0  0  0  0  0
  189.5300  177.9020  144.0940 C   0  0  0  0  0  0  0  0  0  0  0  0
  187.7190  177.5090  145.6760 C   0  0  0  0  0  3  0  0  0  0  0  0
  190.0100  177.1550  146.3640 C   0  0  0  0  0  3  0  0  0  0  0  0
  188.6460  177.1520  146.6680 C   0  0  0  0  0  0  0  0  0  0  0  0
  188.1580  177.8740  144.4010 C   0  0  0  0  0  3  0  0  0  0  0  0
  190.4480  177.5180  145.0880 C   0  0  0  0  0  3  0  0  0  0  0  0
  188.2410  176.7880  147.9550 O   0  0  0  0  0  0  0  0  0  0  0  0
  187.9110  177.7430  148.9540 C   0  0  0  0  0  1  0  0  0  0  0  0
  193.8480  176.1730  139.0190 C   0  0  0  0  0  2  0  0  0  0  0  0
  194.4500  175.3620  137.9740 N   0  0  0  0  0  2  0  0  0  0  0  0
  195.0820  174.2320  138.6300 C   0  0  0  0  0  2  0  0  0  0  0  0
  196.1500  174.7070  139.5110 C   0  0  0  0  0  0  0  0  0  0  0  0
  196.9910  175.0850  140.2090 N   0  0  0  0  0  0  0  0  0  0  0  0
  1 20  1  1  0  0  0
  1 23  1  0  0  0  0
  4  9  2  0  0  0  0
  5  7  1  0  0  0  0
  7 16  1  0  0  0  0
  8  9  1  0  0  0  0
  9  5  1  0  0  0  0
 10 22  1  0  0  0  0
 11  8  2  0  0  0  0
 13  6  1  1  0  0  0
 13  1  1  0  0  0  0
 14  2  1  6  0  0  0
 14 19  1  0  0  0  0
 14 10  1  0  0  0  0
 15 12  1  6  0  0  0
 15 13  1  0  0  0  0
 15  6  1  0  0  0  0
 16  1  1  0  0  0  0
 17  2  2  0  0  0  0
 17  3  1  0  0  0  0
 18 11  1  0  0  0  0
 18  4  1  0  0  0  0
 19  3  1  6  0  0  0
 19 11  1  0  0  0  0
 21  3  2  0  0  0  0
 22 31  1  1  0  0  0
 22 12  1  0  0  0  0
 23 27  2  0  0  0  0
 23 28  1  0  0  0  0
 24 26  2  0  0  0  0
 25 26  1  0  0  0  0
 26 29  1  0  0  0  0
 27 24  1  0  0  0  0
 28 25  2  0  0  0  0
 29 30  1  0  0  0  0
 32 33  1  0  0  0  0
 32 31  1  0  0  0  0
 33 34  1  0  0  0  0
 34 35  3  0  0  0  0
M  END
>  <MODEL>
8

>  <REMARK>
 VINA RESULT:      -6.2      4.857      7.296
  Name = 
  6 active torsions:
  status: ('A' for Active; 'I' for Inactive)
    1  A    between atoms: C_1  and  C_10
    2  A    between atoms: O_9  and  C_21
    3  A    between atoms: C_22  and  N_25
    4  A    between atoms: C_22  and  C_34
    5  A    between atoms: N_25  and  C_26
    6  A    between atoms: C_26  and  C_27
                            x       y       z     vdW  Elec       q    Type
                         _______ _______ _______ _____ _____    ______ ____

>  <TORSDO>
F 6

$$$$
=
 OpenBabel10222419163D

 35 39  0  0  1  0  0  0  0  0999 V2000
  189.6020  178.1810  144.2170 C   0  0  2  0  0  0  0  0  0  0  0  0
  184.2850  178.8450  138.3770 C   0  0  0  0  0  3  0  0  0  0  0  0
  183.4060  177.5020  140.0590 C   0  0  0  0  0  0  0  0  0  0  0  0
  184.8430  179.5520  143.5840 N   0  0  0  0  0  0  0  0  0  0  0  0
  185.9050  178.0480  145.2720 C   0  0  0  0  0  2  0  0  0  0  0  0
  190.3390  177.5360  141.8470 C   0  0  0  0  0  2  0  0  0  0  0  0
  187.3400  177.5480  145.2100 C   0  0  0  0  0  2  0  0  0  0  0  0
  185.4700  177.5030  142.8720 N   0  0  0  0  0  0  0  0  0  0  0  0
  185.3990  178.3660  143.9030 C   0  0  0  0  0  0  0  0  0  0  0  0
  186.6310  178.0770  138.7800 C   0  0  0  0  0  2  0  0  0  0  0  0
  184.9370  178.1960  141.8520 C   0  0  0  0  0  0  0  0  0  0  0  0
  188.1350  177.6410  140.7220 C   0  0  0  0  0  2  0  0  0  0  0  0
  189.2660  177.4050  142.9120 C   0  0  2  0  0  3  0  0  0  0  0  0
  185.3760  178.6330  139.4350 C   0  0  2  0  0  3  0  0  0  0  0  0
  189.0480  178.3280  141.7220 C   0  0  1  0  0  3  0  0  0  0  0  0
  188.2850  178.6830  144.8240 C   0  0  0  0  0  2  0  0  0  0  0  0
  183.0860  178.1990  138.8760 N   0  0  0  0  0  0  0  0  0  0  0  0
  184.5450  179.4510  142.2760 C   0  0  0  0  0  2  0  0  0  0  0  0
  184.8200  177.6450  140.4650 C   0  0  2  0  0  3  0  0  0  0  0  0
  190.3970  179.3040  143.9490 O   0  0  0  0  0  1  0  0  0  0  0  0
  182.5610  176.8070  140.6820 O   0  0  0  0  0  0  0  0  0  0  0  0
  187.8800  178.5370  139.5150 C   0  0  1  0  0  3  0  0  0  0  0  0
  190.3500  177.3090  145.2130 C   0  0  0  0  0  0  0  0  0  0  0  0
  192.0560  175.6490  145.7340 C   0  0  0  0  0  3  0  0  0  0  0  0
  190.8090  176.6900  147.5260 C   0  0  0  0  0  3  0  0  0  0  0  0
  191.7840  175.7820  147.1050 C   0  0  0  0  0  0  0  0  0  0  0  0
  191.3490  176.4100  144.7990 C   0  0  0  0  0  3  0  0  0  0  0  0
  190.1040  177.4520  146.5900 C   0  0  0  0  0  3  0  0  0  0  0  0
  192.4680  175.0310  148.0650 O   0  0  0  0  0  0  0  0  0  0  0  0
  193.1940  175.6280  149.1310 C   0  0  0  0  0  1  0  0  0  0  0  0
  189.0560  178.4750  138.5530 C   0  0  0  0  0  2  0  0  0  0  0  0
  188.7060  177.6820  137.3860 N   0  0  0  0  0  2  0  0  0  0  0  0
  189.9500  177.1800  136.8310 C   0  0  0  0  0  2  0  0  0  0  0  0
  190.4680  176.1020  137.6760 C   0  0  0  0  0  0  0  0  0  0  0  0
  190.8800  175.2530  138.3440 N   0  0  0  0  0  0  0  0  0  0  0  0
  1 20  1  6  0  0  0
  1 16  1  0  0  0  0
  1 23  1  0  0  0  0
  2 17  2  0  0  0  0
  3 21  2  0  0  0  0
  4  9  2  0  0  0  0
  7  5  1  0  0  0  0
  8  9  1  0  0  0  0
  9  5  1  0  0  0  0
 10 14  1  0  0  0  0
 10 22  1  0  0  0  0
 11 18  1  0  0  0  0
 11  8  2  0  0  0  0
 13  6  1  6  0  0  0
 13  1  1  0  0  0  0
 14  2  1  6  0  0  0
 14 19  1  0  0  0  0
 15 12  1  6  0  0  0
 15  6  1  0  0  0  0
 15 13  1  0  0  0  0
 16  7  1  0  0  0  0
 17  3  1  0  0  0  0
 18  4  1  0  0  0  0
 19  3  1  6  0  0  0
 19 11  1  0  0  0  0
 22 31  1  6  0  0  0
 22 12  1  0  0  0  0
 23 28  1  0  0  0  0
 24 26  2  0  0  0  0
 26 25  1  0  0  0  0
 26 29  1  0  0  0  0
 27 23  2  0  0  0  0
 27 24  1  0  0  0  0
 28 25  2  0  0  0  0
 29 30  1  0  0  0  0
 32 31  1  0  0  0  0
 33 32  1  0  0  0  0
 33 34  1  0  0  0  0
 34 35  3  0  0  0  0
M  END
>  <MODEL>
9

>  <REMARK>
 VINA RESULT:      -5.9      3.135      4.462
  Name = 
  6 active torsions:
  status: ('A' for Active; 'I' for Inactive)
    1  A    between atoms: C_1  and  C_10
    2  A    between atoms: O_9  and  C_21
    3  A    between atoms: C_22  and  N_25
    4  A    between atoms: C_22  and  C_34
    5  A    between atoms: N_25  and  C_26
    6  A    between atoms: C_26  and  C_27
                            x       y       z     vdW  Elec       q    Type
                         _______ _______ _______ _____ _____    ______ ____

>  <TORSDO>
F 6

$$$$
