=
 OpenBabel10222420173D

 27 32  0  0  1  0  0  0  0  0999 V2000
  189.2590  176.8790  145.4730 O   0  0  0  0  0  0  0  0  0  0  0  0
  189.0700  178.0950  147.6470 C   0  0  0  0  0  2  0  0  0  0  0  0
  188.3960  176.7340  147.7260 C   0  0  0  0  0  2  0  0  0  0  0  0
  188.4170  177.4920  146.4150 C   0  0  0  0  0  0  0  0  0  0  0  0
  183.7490  178.5450  142.5700 C   0  0  0  0  0  3  0  0  0  0  0  0
  187.0590  177.9540  145.9790 C   0  0  0  0  0  0  0  0  0  0  0  0
  184.4970  178.7270  145.2360 C   0  0  0  0  0  0  0  0  0  0  0  0
  182.8340  179.0260  143.5130 C   0  0  0  0  0  3  0  0  0  0  0  0
  183.2130  179.1160  144.8540 C   0  0  0  0  0  3  0  0  0  0  0  0
  184.9980  178.1680  142.9560 N   0  0  0  0  0  0  0  0  0  0  0  0
  184.8870  178.8010  146.5360 N   0  0  0  0  0  0  0  0  0  0  0  0
  186.6740  177.8580  144.6370 C   0  0  0  0  0  3  0  0  0  0  0  0
  185.3910  178.2490  144.2570 C   0  0  0  0  0  0  0  0  0  0  0  0
  186.1350  178.4250  146.9240 C   0  0  0  0  0  3  0  0  0  0  0  0
  191.5470  176.9170  145.4080 O   0  0  0  0  0  1  0  0  0  0  0  0
  190.3920  177.6980  145.3440 C   0  0  1  0  0  3  0  0  0  0  0  0
  190.3500  178.4860  144.0350 C   0  0  0  0  0  2  0  0  0  0  0  0
  191.2700  177.3790  141.9550 C   0  0  0  0  0  2  0  0  0  0  0  0
  191.0850  176.9540  139.2910 C   0  0  2  0  0  3  0  0  0  0  0  0
  188.8270  178.2320  142.0460 C   0  0  0  0  0  2  0  0  0  0  0  0
  190.7530  176.6720  140.7230 C   0  0  2  0  0  3  0  0  0  0  0  0
  190.0170  177.6100  142.8370 C   0  0  2  0  0  3  0  0  0  0  0  0
  190.1300  177.8830  140.0190 C   0  0  2  0  0  3  0  0  0  0  0  0
  188.7380  177.7100  140.5920 C   0  0  0  0  0  2  0  0  0  0  0  0
  189.9020  176.7610  137.1330 C   0  0  0  0  0  2  0  0  0  0  0  0
  190.3080  176.0160  138.3870 C   0  0  0  0  0  3  0  0  0  0  0  0
  191.0810  175.8150  137.0990 C   0  0  0  0  0  2  0  0  0  0  0  0
  1  4  1  0  0  0  0
  2  3  1  0  0  0  0
  4  2  1  0  0  0  0
  4  3  1  0  0  0  0
  5 10  2  0  0  0  0
  5  8  1  0  0  0  0
  6  4  1  0  0  0  0
  6 14  1  0  0  0  0
  7 11  1  0  0  0  0
  8  9  2  0  0  0  0
  9  7  1  0  0  0  0
 10 13  1  0  0  0  0
 11 14  2  0  0  0  0
 12  6  2  0  0  0  0
 13 12  1  0  0  0  0
 13  7  2  0  0  0  0
 16 15  1  6  0  0  0
 16  1  1  0  0  0  0
 17 16  1  0  0  0  0
 18 22  1  0  0  0  0
 19 26  1  6  0  0  0
 19 23  1  0  0  0  0
 19 21  1  0  0  0  0
 20 22  1  0  0  0  0
 21 18  1  1  0  0  0
 22 17  1  1  0  0  0
 23 24  1  6  0  0  0
 23 21  1  0  0  0  0
 24 20  1  0  0  0  0
 25 26  1  0  0  0  0
 27 25  1  0  0  0  0
 27 26  1  0  0  0  0
M  END
>  <MODEL>
1

>  <REMARK>
 VINA RESULT:      -9.1      0.000      0.000
  Name = 
  6 active torsions:
  status: ('A' for Active; 'I' for Inactive)
    1  A    between atoms: C_2  and  C_14
    2  A    between atoms: C_2  and  C_23
    3  A    between atoms: C_3  and  C_24
    4  A    between atoms: C_8  and  C_9
    5  A    between atoms: O_16  and  C_23
    6  A    between atoms: O_16  and  C_24
                            x       y       z     vdW  Elec       q    Type
                         _______ _______ _______ _____ _____    ______ ____

>  <TORSDO>
F 6

$$$$
=
 OpenBabel10222420173D

 27 32  0  0  1  0  0  0  0  0999 V2000
  185.0750  177.8110  144.6110 O   0  0  0  0  0  0  0  0  0  0  0  0
  184.7610  179.8270  143.1700 C   0  0  0  0  0  2  0  0  0  0  0  0
  184.1300  178.6000  142.5310 C   0  0  0  0  0  2  0  0  0  0  0  0
  185.3640  178.4520  143.3960 C   0  0  0  0  0  0  0  0  0  0  0  0
  189.4250  178.3880  138.7930 C   0  0  0  0  0  3  0  0  0  0  0  0
  186.5770  178.0240  142.6240 C   0  0  0  0  0  0  0  0  0  0  0  0
  188.8880  177.2780  141.2780 C   0  0  0  0  0  0  0  0  0  0  0  0
  190.3180  177.4620  139.3430 C   0  0  0  0  0  3  0  0  0  0  0  0
  190.0460  176.9050  140.5940 C   0  0  0  0  0  3  0  0  0  0  0  0
  188.3000  178.7430  139.4710 N   0  0  0  0  0  0  0  0  0  0  0  0
  188.6050  176.7520  142.4990 N   0  0  0  0  0  0  0  0  0  0  0  0
  186.8570  178.5870  141.3740 C   0  0  0  0  0  3  0  0  0  0  0  0
  188.0130  178.2120  140.6900 C   0  0  0  0  0  0  0  0  0  0  0  0
  187.4800  177.1060  143.1780 C   0  0  0  0  0  3  0  0  0  0  0  0
  183.5160  179.0590  145.7310 O   0  0  0  0  0  1  0  0  0  0  0  0
  184.8810  178.8200  145.5680 C   0  0  1  0  0  3  0  0  0  0  0  0
  185.5210  178.4370  146.9020 C   0  0  0  0  0  2  0  0  0  0  0  0
  187.5940  177.1680  146.2010 C   0  0  0  0  0  2  0  0  0  0  0  0
  190.0200  176.1660  146.8520 C   0  0  2  0  0  3  0  0  0  0  0  0
  187.6140  178.7180  148.2750 C   0  0  0  0  0  2  0  0  0  0  0  0
  189.0910  177.2460  146.3920 C   0  0  2  0  0  3  0  0  0  0  0  0
  187.0420  178.4630  146.8480 C   0  0  2  0  0  3  0  0  0  0  0  0
  189.1450  176.8660  147.8760 C   0  0  2  0  0  3  0  0  0  0  0  0
  189.0930  178.2830  148.4130 C   0  0  0  0  0  2  0  0  0  0  0  0
  192.2000  175.9330  147.9870 C   0  0  0  0  0  2  0  0  0  0  0  0
  191.4360  176.7010  146.9290 C   0  0  0  0  0  3  0  0  0  0  0  0
  192.4030  175.6060  146.5240 C   0  0  0  0  0  2  0  0  0  0  0  0
  1 16  1  0  0  0  0
  2  4  1  0  0  0  0
  3  2  1  0  0  0  0
  3  4  1  0  0  0  0
  4  1  1  0  0  0  0
  5  8  2  0  0  0  0
  5 10  1  0  0  0  0
  6 14  1  0  0  0  0
  6  4  1  0  0  0  0
  7 11  1  0  0  0  0
  8  9  1  0  0  0  0
  9  7  2  0  0  0  0
 10 13  2  0  0  0  0
 11 14  2  0  0  0  0
 12  6  2  0  0  0  0
 13  7  1  0  0  0  0
 13 12  1  0  0  0  0
 16 15  1  1  0  0  0
 16 17  1  0  0  0  0
 18 22  1  0  0  0  0
 19 26  1  1  0  0  0
 19 23  1  0  0  0  0
 20 24  1  0  0  0  0
 21 18  1  6  0  0  0
 21 19  1  0  0  0  0
 21 23  1  0  0  0  0
 22 17  1  1  0  0  0
 22 20  1  0  0  0  0
 23 24  1  1  0  0  0
 26 25  1  0  0  0  0
 27 26  1  0  0  0  0
 27 25  1  0  0  0  0
M  END
>  <MODEL>
2

>  <REMARK>
 VINA RESULT:      -8.4      2.480      6.706
  Name = 
  6 active torsions:
  status: ('A' for Active; 'I' for Inactive)
    1  A    between atoms: C_2  and  C_14
    2  A    between atoms: C_2  and  C_23
    3  A    between atoms: C_3  and  C_24
    4  A    between atoms: C_8  and  C_9
    5  A    between atoms: O_16  and  C_23
    6  A    between atoms: O_16  and  C_24
                            x       y       z     vdW  Elec       q    Type
                         _______ _______ _______ _____ _____    ______ ____

>  <TORSDO>
F 6

$$$$
=
 OpenBabel10222420173D

 27 32  0  0  1  0  0  0  0  0999 V2000
  189.0970  176.7660  145.5000 O   0  0  0  0  0  0  0  0  0  0  0  0
  189.0010  178.1780  147.5580 C   0  0  0  0  0  2  0  0  0  0  0  0
  188.2730  176.8600  147.7690 C   0  0  0  0  0  2  0  0  0  0  0  0
  188.3000  177.4960  146.3960 C   0  0  0  0  0  0  0  0  0  0  0  0
  183.6460  178.4910  142.5180 C   0  0  0  0  0  3  0  0  0  0  0  0
  186.9530  177.9750  145.9410 C   0  0  0  0  0  0  0  0  0  0  0  0
  184.4120  178.7840  145.1680 C   0  0  0  0  0  0  0  0  0  0  0  0
  182.7500  179.0450  143.4380 C   0  0  0  0  0  3  0  0  0  0  0  0
  183.1370  179.1910  144.7710 C   0  0  0  0  0  3  0  0  0  0  0  0
  184.8860  178.0970  142.9180 N   0  0  0  0  0  0  0  0  0  0  0  0
  184.8090  178.9120  146.4610 N   0  0  0  0  0  0  0  0  0  0  0  0
  186.5590  177.8220  144.6070 C   0  0  0  0  0  3  0  0  0  0  0  0
  185.2860  178.2310  144.2110 C   0  0  0  0  0  0  0  0  0  0  0  0
  186.0480  178.5190  146.8640 C   0  0  0  0  0  3  0  0  0  0  0  0
  190.3010  178.6120  144.8820 O   0  0  0  0  0  1  0  0  0  0  0  0
  189.4150  177.6290  144.4390 C   0  0  1  0  0  3  0  0  0  0  0  0
  190.0150  176.8550  143.2660 C   0  0  0  0  0  2  0  0  0  0  0  0
  188.5160  177.6490  141.3900 C   0  0  0  0  0  2  0  0  0  0  0  0
  188.0320  177.8210  138.7350 C   0  0  2  0  0  3  0  0  0  0  0  0
  191.0000  177.0610  140.9580 C   0  0  0  0  0  2  0  0  0  0  0  0
  188.6470  178.2770  140.0220 C   0  0  2  0  0  3  0  0  0  0  0  0
  189.9560  177.6360  141.9610 C   0  0  2  0  0  3  0  0  0  0  0  0
  189.2340  177.0710  139.2800 C   0  0  2  0  0  3  0  0  0  0  0  0
  190.6890  177.4400  139.4890 C   0  0  0  0  0  2  0  0  0  0  0  0
  188.6550  177.9140  136.3480 C   0  0  0  0  0  2  0  0  0  0  0  0
  188.4610  178.7360  137.6050 C   0  0  0  0  0  3  0  0  0  0  0  0
  187.3940  178.7290  136.5290 C   0  0  0  0  0  2  0  0  0  0  0  0
  1  4  1  0  0  0  0
  2  3  1  0  0  0  0
  4  2  1  0  0  0  0
  4  3  1  0  0  0  0
  5 10  2  0  0  0  0
  5  8  1  0  0  0  0
  6  4  1  0  0  0  0
  6 14  1  0  0  0  0
  7 11  1  0  0  0  0
  8  9  2  0  0  0  0
  9  7  1  0  0  0  0
 10 13  1  0  0  0  0
 11 14  2  0  0  0  0
 12  6  2  0  0  0  0
 13 12  1  0  0  0  0
 13  7  2  0  0  0  0
 16 15  1  1  0  0  0
 16  1  1  0  0  0  0
 17 16  1  0  0  0  0
 18 22  1  0  0  0  0
 19 26  1  6  0  0  0
 19 23  1  0  0  0  0
 19 21  1  0  0  0  0
 20 22  1  0  0  0  0
 21 18  1  1  0  0  0
 22 17  1  1  0  0  0
 23 24  1  6  0  0  0
 23 21  1  0  0  0  0
 24 20  1  0  0  0  0
 25 27  1  0  0  0  0
 25 26  1  0  0  0  0
 27 26  1  0  0  0  0
M  END
>  <MODEL>
3

>  <REMARK>
 VINA RESULT:      -8.2      1.159      1.810
  Name = 
  6 active torsions:
  status: ('A' for Active; 'I' for Inactive)
    1  A    between atoms: C_2  and  C_14
    2  A    between atoms: C_2  and  C_23
    3  A    between atoms: C_3  and  C_24
    4  A    between atoms: C_8  and  C_9
    5  A    between atoms: O_16  and  C_23
    6  A    between atoms: O_16  and  C_24
                            x       y       z     vdW  Elec       q    Type
                         _______ _______ _______ _____ _____    ______ ____

>  <TORSDO>
F 6

$$$$
=
 OpenBabel10222420173D

 27 32  0  0  1  0  0  0  0  0999 V2000
  189.4360  176.4440  143.8950 O   0  0  0  0  0  0  0  0  0  0  0  0
  190.0340  178.0340  145.7260 C   0  0  0  0  0  2  0  0  0  0  0  0
  189.4180  176.7640  146.2900 C   0  0  0  0  0  2  0  0  0  0  0  0
  188.9850  177.2750  144.9330 C   0  0  0  0  0  0  0  0  0  0  0  0
  183.4860  178.6030  142.5480 C   0  0  0  0  0  3  0  0  0  0  0  0
  187.5640  177.7560  144.9090 C   0  0  0  0  0  0  0  0  0  0  0  0
  184.9050  178.5560  144.9320 C   0  0  0  0  0  0  0  0  0  0  0  0
  182.8530  178.9850  143.7360 C   0  0  0  0  0  3  0  0  0  0  0  0
  183.5690  178.9600  144.9340 C   0  0  0  0  0  3  0  0  0  0  0  0
  184.7890  178.2100  142.5600 N   0  0  0  0  0  0  0  0  0  0  0  0
  185.6210  178.5190  146.0860 N   0  0  0  0  0  0  0  0  0  0  0  0
  186.8420  177.7740  143.7110 C   0  0  0  0  0  3  0  0  0  0  0  0
  185.5070  178.1800  143.7140 C   0  0  0  0  0  0  0  0  0  0  0  0
  186.9240  178.1270  146.1000 C   0  0  0  0  0  3  0  0  0  0  0  0
  191.5170  175.5020  143.7540 O   0  0  0  0  0  1  0  0  0  0  0  0
  190.8060  176.7020  143.7300 C   0  0  1  0  0  3  0  0  0  0  0  0
  191.0670  177.4550  142.4260 C   0  0  0  0  0  2  0  0  0  0  0  0
  190.6860  176.9190  139.9840 C   0  0  0  0  0  2  0  0  0  0  0  0
  189.4180  177.4890  137.6650 C   0  0  2  0  0  3  0  0  0  0  0  0
  188.9640  178.3040  141.3330 C   0  0  0  0  0  2  0  0  0  0  0  0
  189.5360  176.8360  139.0070 C   0  0  2  0  0  3  0  0  0  0  0  0
  190.0210  177.1590  141.3620 C   0  0  2  0  0  3  0  0  0  0  0  0
  189.2190  178.3330  138.9110 C   0  0  2  0  0  3  0  0  0  0  0  0
  188.1700  178.3510  140.0050 C   0  0  0  0  0  2  0  0  0  0  0  0
  187.5180  178.3930  136.3720 C   0  0  0  0  0  2  0  0  0  0  0  0
  188.0740  177.1550  137.0450 C   0  0  0  0  0  3  0  0  0  0  0  0
  188.1700  177.3090  135.5410 C   0  0  0  0  0  2  0  0  0  0  0  0
  1  4  1  0  0  0  0
  2  3  1  0  0  0  0
  4  2  1  0  0  0  0
  4  3  1  0  0  0  0
  5 10  2  0  0  0  0
  5  8  1  0  0  0  0
  6  4  1  0  0  0  0
  6 14  1  0  0  0  0
  7  9  1  0  0  0  0
  7 11  1  0  0  0  0
  8  9  2  0  0  0  0
 10 13  1  0  0  0  0
 11 14  2  0  0  0  0
 12 13  1  0  0  0  0
 12  6  2  0  0  0  0
 13  7  2  0  0  0  0
 16 15  1  6  0  0  0
 16  1  1  0  0  0  0
 17 16  1  0  0  0  0
 18 22  1  0  0  0  0
 19 26  1  6  0  0  0
 19 23  1  0  0  0  0
 19 21  1  0  0  0  0
 20 22  1  0  0  0  0
 21 18  1  1  0  0  0
 22 17  1  1  0  0  0
 23 21  1  0  0  0  0
 23 24  1  6  0  0  0
 24 20  1  0  0  0  0
 25 26  1  0  0  0  0
 27 25  1  0  0  0  0
 27 26  1  0  0  0  0
M  END
>  <MODEL>
4

>  <REMARK>
 VINA RESULT:      -8.2      1.285      1.746
  Name = 
  6 active torsions:
  status: ('A' for Active; 'I' for Inactive)
    1  A    between atoms: C_2  and  C_14
    2  A    between atoms: C_2  and  C_23
    3  A    between atoms: C_3  and  C_24
    4  A    between atoms: C_8  and  C_9
    5  A    between atoms: O_16  and  C_23
    6  A    between atoms: O_16  and  C_24
                            x       y       z     vdW  Elec       q    Type
                         _______ _______ _______ _____ _____    ______ ____

>  <TORSDO>
F 6

$$$$
=
 OpenBabel10222420173D

 27 32  0  0  1  0  0  0  0  0999 V2000
  188.9870  178.3310  146.9990 O   0  0  0  0  0  0  0  0  0  0  0  0
  189.8030  175.9920  147.3160 C   0  0  0  0  0  2  0  0  0  0  0  0
  190.9460  176.9870  147.4430 C   0  0  0  0  0  2  0  0  0  0  0  0
  189.7850  177.2820  146.5160 C   0  0  0  0  0  0  0  0  0  0  0  0
  188.9770  177.3220  140.4310 C   0  0  0  0  0  3  0  0  0  0  0  0
  190.1720  177.2760  145.0670 C   0  0  0  0  0  0  0  0  0  0  0  0
  190.9330  177.3700  142.3980 C   0  0  0  0  0  0  0  0  0  0  0  0
  190.3250  177.3890  140.0630 C   0  0  0  0  0  3  0  0  0  0  0  0
  191.3070  177.4140  141.0550 C   0  0  0  0  0  3  0  0  0  0  0  0
  188.6250  177.2800  141.7450 N   0  0  0  0  0  0  0  0  0  0  0  0
  191.8710  177.3980  143.3810 N   0  0  0  0  0  0  0  0  0  0  0  0
  189.1890  177.2600  144.0710 C   0  0  0  0  0  3  0  0  0  0  0  0
  189.5650  177.3020  142.7290 C   0  0  0  0  0  0  0  0  0  0  0  0
  191.5220  177.3570  144.6950 C   0  0  0  0  0  3  0  0  0  0  0  0
  187.8180  177.5180  148.7930 O   0  0  0  0  0  1  0  0  0  0  0  0
  187.7740  177.7610  147.4190 C   0  0  1  0  0  3  0  0  0  0  0  0
  186.5940  178.6690  147.0730 C   0  0  0  0  0  2  0  0  0  0  0  0
  186.4450  178.4140  144.5600 C   0  0  0  0  0  2  0  0  0  0  0  0
  185.0210  178.7470  142.2860 C   0  0  2  0  0  3  0  0  0  0  0  0
  184.3150  178.7020  146.0040 C   0  0  0  0  0  2  0  0  0  0  0  0
  185.4280  178.0040  143.5210 C   0  0  2  0  0  3  0  0  0  0  0  0
  185.7610  178.1270  145.9210 C   0  0  2  0  0  3  0  0  0  0  0  0
  184.4970  179.2170  143.6310 C   0  0  2  0  0  3  0  0  0  0  0  0
  183.5580  178.6140  144.6560 C   0  0  0  0  0  2  0  0  0  0  0  0
  182.9290  178.9510  140.9910 C   0  0  0  0  0  2  0  0  0  0  0  0
  183.9420  177.9750  141.5520 C   0  0  0  0  0  3  0  0  0  0  0  0
  183.9770  178.3480  140.0830 C   0  0  0  0  0  2  0  0  0  0  0  0
  1 16  1  0  0  0  0
  2  3  1  0  0  0  0
  4  1  1  0  0  0  0
  4  2  1  0  0  0  0
  4  3  1  0  0  0  0
  5 10  1  0  0  0  0
  6  4  1  0  0  0  0
  7 13  1  0  0  0  0
  7 11  1  0  0  0  0
  8  5  2  0  0  0  0
  8  9  1  0  0  0  0
  9  7  2  0  0  0  0
 10 13  2  0  0  0  0
 11 14  2  0  0  0  0
 12  6  2  0  0  0  0
 13 12  1  0  0  0  0
 14  6  1  0  0  0  0
 16 15  1  1  0  0  0
 17 16  1  0  0  0  0
 18 22  1  0  0  0  0
 19 26  1  6  0  0  0
 19 21  1  0  0  0  0
 19 23  1  0  0  0  0
 21 23  1  0  0  0  0
 21 18  1  1  0  0  0
 22 20  1  0  0  0  0
 22 17  1  1  0  0  0
 23 24  1  6  0  0  0
 24 20  1  0  0  0  0
 25 26  1  0  0  0  0
 27 25  1  0  0  0  0
 27 26  1  0  0  0  0
M  END
>  <MODEL>
5

>  <REMARK>
 VINA RESULT:      -8.1      2.083      5.862
  Name = 
  6 active torsions:
  status: ('A' for Active; 'I' for Inactive)
    1  A    between atoms: C_2  and  C_14
    2  A    between atoms: C_2  and  C_23
    3  A    between atoms: C_3  and  C_24
    4  A    between atoms: C_8  and  C_9
    5  A    between atoms: O_16  and  C_23
    6  A    between atoms: O_16  and  C_24
                            x       y       z     vdW  Elec       q    Type
                         _______ _______ _______ _____ _____    ______ ____

>  <TORSDO>
F 6

$$$$
=
 OpenBabel10222420173D

 27 32  0  0  1  0  0  0  0  0999 V2000
  186.7880  177.1950  146.0900 O   0  0  0  0  0  0  0  0  0  0  0  0
  185.9190  179.3990  146.8810 C   0  0  0  0  0  2  0  0  0  0  0  0
  184.8500  178.3230  146.9910 C   0  0  0  0  0  2  0  0  0  0  0  0
  185.8850  178.2510  145.8880 C   0  0  0  0  0  0  0  0  0  0  0  0
  185.8110  178.6880  139.7650 C   0  0  0  0  0  3  0  0  0  0  0  0
  185.3040  178.4540  144.5210 C   0  0  0  0  0  0  0  0  0  0  0  0
  184.1690  178.7330  142.0010 C   0  0  0  0  0  0  0  0  0  0  0  0
  184.4310  178.8540  139.6050 C   0  0  0  0  0  3  0  0  0  0  0  0
  183.6070  178.8760  140.7320 C   0  0  0  0  0  3  0  0  0  0  0  0
  186.3460  178.5490  141.0090 N   0  0  0  0  0  0  0  0  0  0  0  0
  183.3860  178.7470  143.1120 N   0  0  0  0  0  0  0  0  0  0  0  0
  186.1260  178.4250  143.3890 C   0  0  0  0  0  3  0  0  0  0  0  0
  185.5640  178.5690  142.1210 C   0  0  0  0  0  0  0  0  0  0  0  0
  183.9190  178.6080  144.3560 C   0  0  0  0  0  3  0  0  0  0  0  0
  187.7190  177.2370  148.1800 O   0  0  0  0  0  1  0  0  0  0  0  0
  187.8400  177.7010  146.8700 C   0  0  1  0  0  3  0  0  0  0  0  0
  189.1950  177.3050  146.2830 C   0  0  0  0  0  2  0  0  0  0  0  0
  189.1270  176.5770  143.8620 C   0  0  0  0  0  2  0  0  0  0  0  0
  190.3460  176.4560  141.4510 C   0  0  2  0  0  3  0  0  0  0  0  0
  190.7530  178.4290  144.6560 C   0  0  0  0  0  2  0  0  0  0  0  0
  189.5110  177.1170  142.5040 C   0  0  2  0  0  3  0  0  0  0  0  0
  189.3590  177.7560  144.8390 C   0  0  2  0  0  3  0  0  0  0  0  0
  191.0340  177.0550  142.6640 C   0  0  2  0  0  3  0  0  0  0  0  0
  191.2050  178.4720  143.1760 C   0  0  0  0  0  2  0  0  0  0  0  0
  191.8780  177.1920  139.6610 C   0  0  0  0  0  2  0  0  0  0  0  0
  190.5000  177.3810  140.2590 C   0  0  0  0  0  3  0  0  0  0  0  0
  190.6770  176.5480  139.0050 C   0  0  0  0  0  2  0  0  0  0  0  0
  1 16  1  0  0  0  0
  2  3  1  0  0  0  0
  4  1  1  0  0  0  0
  4  2  1  0  0  0  0
  4  3  1  0  0  0  0
  5 10  1  0  0  0  0
  6  4  1  0  0  0  0
  7 13  1  0  0  0  0
  7 11  1  0  0  0  0
  8  5  2  0  0  0  0
  8  9  1  0  0  0  0
  9  7  2  0  0  0  0
 10 13  2  0  0  0  0
 11 14  2  0  0  0  0
 12  6  2  0  0  0  0
 13 12  1  0  0  0  0
 14  6  1  0  0  0  0
 16 15  1  1  0  0  0
 17 16  1  0  0  0  0
 18 22  1  0  0  0  0
 19 26  1  6  0  0  0
 19 21  1  0  0  0  0
 19 23  1  0  0  0  0
 20 22  1  0  0  0  0
 21 23  1  0  0  0  0
 21 18  1  1  0  0  0
 22 17  1  1  0  0  0
 23 24  1  6  0  0  0
 24 20  1  0  0  0  0
 25 26  1  0  0  0  0
 27 25  1  0  0  0  0
 27 26  1  0  0  0  0
M  END
>  <MODEL>
6

>  <REMARK>
 VINA RESULT:      -8.1      1.715      3.094
  Name = 
  6 active torsions:
  status: ('A' for Active; 'I' for Inactive)
    1  A    between atoms: C_2  and  C_14
    2  A    between atoms: C_2  and  C_23
    3  A    between atoms: C_3  and  C_24
    4  A    between atoms: C_8  and  C_9
    5  A    between atoms: O_16  and  C_23
    6  A    between atoms: O_16  and  C_24
                            x       y       z     vdW  Elec       q    Type
                         _______ _______ _______ _____ _____    ______ ____

>  <TORSDO>
F 6

$$$$
=
 OpenBabel10222420173D

 27 32  0  0  1  0  0  0  0  0999 V2000
  189.3670  178.5820  144.8470 O   0  0  0  0  0  0  0  0  0  0  0  0
  191.5680  177.4100  144.7200 C   0  0  0  0  0  2  0  0  0  0  0  0
  191.6670  178.8140  144.1440 C   0  0  0  0  0  2  0  0  0  0  0  0
  190.3710  178.0390  144.0300 C   0  0  0  0  0  0  0  0  0  0  0  0
  187.3940  178.2510  138.6660 C   0  0  0  0  0  3  0  0  0  0  0  0
  190.0310  177.6630  142.6190 C   0  0  0  0  0  0  0  0  0  0  0  0
  189.5020  177.0080  139.9730 C   0  0  0  0  0  0  0  0  0  0  0  0
  188.1680  177.3060  137.9840 C   0  0  0  0  0  3  0  0  0  0  0  0
  189.2280  176.6820  138.6440 C   0  0  0  0  0  3  0  0  0  0  0  0
  187.6720  178.5600  139.9620 N   0  0  0  0  0  0  0  0  0  0  0  0
  190.5330  176.4180  140.6340 N   0  0  0  0  0  0  0  0  0  0  0  0
  188.9730  178.2930  141.9530 C   0  0  0  0  0  3  0  0  0  0  0  0
  188.6990  177.9640  140.6260 C   0  0  0  0  0  0  0  0  0  0  0  0
  190.8130  176.7260  141.9290 C   0  0  0  0  0  3  0  0  0  0  0  0
  189.4330  176.7620  146.2330 O   0  0  0  0  0  1  0  0  0  0  0  0
  188.6320  177.5030  145.3640 C   0  0  1  0  0  3  0  0  0  0  0  0
  187.3730  177.9920  146.0800 C   0  0  0  0  0  2  0  0  0  0  0  0
  186.4230  177.8960  143.7380 C   0  0  0  0  0  2  0  0  0  0  0  0
  184.5720  178.7450  141.9600 C   0  0  2  0  0  3  0  0  0  0  0  0
  185.0080  178.7760  145.7190 C   0  0  0  0  0  2  0  0  0  0  0  0
  185.0710  177.8650  143.0630 C   0  0  2  0  0  3  0  0  0  0  0  0
  186.1140  177.7830  145.2520 C   0  0  2  0  0  3  0  0  0  0  0  0
  184.6370  179.3020  143.3710 C   0  0  2  0  0  3  0  0  0  0  0  0
  183.9020  178.9820  144.6560 C   0  0  0  0  0  2  0  0  0  0  0  0
  182.7660  179.0300  140.3000 C   0  0  0  0  0  2  0  0  0  0  0  0
  183.1410  178.3780  141.6150 C   0  0  0  0  0  3  0  0  0  0  0  0
  183.1330  177.5630  140.3370 C   0  0  0  0  0  2  0  0  0  0  0  0
  1 16  1  0  0  0  0
  3  2  1  0  0  0  0
  4  3  1  0  0  0  0
  4  2  1  0  0  0  0
  4  1  1  0  0  0  0
  5 10  1  0  0  0  0
  6  4  1  0  0  0  0
  7 13  1  0  0  0  0
  7 11  1  0  0  0  0
  8  9  1  0  0  0  0
  8  5  2  0  0  0  0
  9  7  2  0  0  0  0
 10 13  2  0  0  0  0
 11 14  2  0  0  0  0
 12  6  2  0  0  0  0
 13 12  1  0  0  0  0
 14  6  1  0  0  0  0
 16 17  1  0  0  0  0
 16 15  1  1  0  0  0
 18 22  1  0  0  0  0
 19 26  1  1  0  0  0
 19 21  1  0  0  0  0
 19 23  1  0  0  0  0
 21 23  1  0  0  0  0
 21 18  1  6  0  0  0
 22 20  1  0  0  0  0
 22 17  1  1  0  0  0
 23 24  1  1  0  0  0
 24 20  1  0  0  0  0
 25 27  1  0  0  0  0
 25 26  1  0  0  0  0
 27 26  1  0  0  0  0
M  END
>  <MODEL>
7

>  <REMARK>
 VINA RESULT:      -8.0      2.051      5.974
  Name = 
  6 active torsions:
  status: ('A' for Active; 'I' for Inactive)
    1  A    between atoms: C_2  and  C_14
    2  A    between atoms: C_2  and  C_23
    3  A    between atoms: C_3  and  C_24
    4  A    between atoms: C_8  and  C_9
    5  A    between atoms: O_16  and  C_23
    6  A    between atoms: O_16  and  C_24
                            x       y       z     vdW  Elec       q    Type
                         _______ _______ _______ _____ _____    ______ ____

>  <TORSDO>
F 6

$$$$
=
 OpenBabel10222420173D

 27 32  0  0  1  0  0  0  0  0999 V2000
  185.1080  177.8670  142.6040 O   0  0  0  0  0  0  0  0  0  0  0  0
  183.5380  178.6330  144.3900 C   0  0  0  0  0  2  0  0  0  0  0  0
  184.4490  179.7660  143.9450 C   0  0  0  0  0  2  0  0  0  0  0  0
  184.9510  178.3390  143.9170 C   0  0  0  0  0  0  0  0  0  0  0  0
  190.5650  176.8890  145.9340 C   0  0  0  0  0  3  0  0  0  0  0  0
  186.0400  178.0770  144.9140 C   0  0  0  0  0  0  0  0  0  0  0  0
  188.0550  177.7050  146.7890 C   0  0  0  0  0  0  0  0  0  0  0  0
  190.3360  177.1020  147.2980 C   0  0  0  0  0  3  0  0  0  0  0  0
  189.0720  177.5120  147.7250 C   0  0  0  0  0  3  0  0  0  0  0  0
  189.5650  177.0800  145.0310 N   0  0  0  0  0  0  0  0  0  0  0  0
  186.8190  178.1100  147.1810 N   0  0  0  0  0  0  0  0  0  0  0  0
  187.3100  177.6730  144.4880 C   0  0  0  0  0  3  0  0  0  0  0  0
  188.3250  177.4790  145.4250 C   0  0  0  0  0  0  0  0  0  0  0  0
  185.8170  178.3020  146.2810 C   0  0  0  0  0  3  0  0  0  0  0  0
  186.6430  178.9980  141.3380 O   0  0  0  0  0  1  0  0  0  0  0  0
  185.3230  178.9900  141.7890 C   0  0  1  0  0  3  0  0  0  0  0  0
  184.3530  179.0020  140.6090 C   0  0  0  0  0  2  0  0  0  0  0  0
  183.3920  176.9960  139.4050 C   0  0  0  0  0  2  0  0  0  0  0  0
  181.2190  175.6850  138.4710 C   0  0  2  0  0  3  0  0  0  0  0  0
  181.9160  178.4640  140.9440 C   0  0  0  0  0  2  0  0  0  0  0  0
  182.2140  176.0570  139.5270 C   0  0  2  0  0  3  0  0  0  0  0  0
  183.3340  177.8740  140.6800 C   0  0  2  0  0  3  0  0  0  0  0  0
  181.1050  177.0420  139.1410 C   0  0  2  0  0  3  0  0  0  0  0  0
  180.7800  177.4880  140.5520 C   0  0  0  0  0  2  0  0  0  0  0  0
  178.9330  174.7910  138.2000 C   0  0  0  0  0  2  0  0  0  0  0  0
  180.1870  174.7350  139.0480 C   0  0  0  0  0  3  0  0  0  0  0  0
  179.9020  173.6400  138.0400 C   0  0  0  0  0  2  0  0  0  0  0  0
  1  4  1  0  0  0  0
  3  2  1  0  0  0  0
  4  3  1  0  0  0  0
  4  2  1  0  0  0  0
  4  6  1  0  0  0  0
  5  8  1  0  0  0  0
  6 14  1  0  0  0  0
  7 11  1  0  0  0  0
  7  9  1  0  0  0  0
  8  9  2  0  0  0  0
 10 13  1  0  0  0  0
 10  5  2  0  0  0  0
 12  6  2  0  0  0  0
 12 13  1  0  0  0  0
 13  7  2  0  0  0  0
 14 11  2  0  0  0  0
 16 15  1  6  0  0  0
 16  1  1  0  0  0  0
 17 16  1  0  0  0  0
 18 22  1  0  0  0  0
 19 26  1  1  0  0  0
 19 23  1  0  0  0  0
 19 21  1  0  0  0  0
 21 18  1  6  0  0  0
 22 17  1  6  0  0  0
 22 20  1  0  0  0  0
 23 21  1  0  0  0  0
 23 24  1  1  0  0  0
 24 20  1  0  0  0  0
 25 26  1  0  0  0  0
 27 25  1  0  0  0  0
 27 26  1  0  0  0  0
M  END
>  <MODEL>
8

>  <REMARK>
 VINA RESULT:      -7.7      3.943      7.066
  Name = 
  6 active torsions:
  status: ('A' for Active; 'I' for Inactive)
    1  A    between atoms: C_2  and  C_14
    2  A    between atoms: C_2  and  C_23
    3  A    between atoms: C_3  and  C_24
    4  A    between atoms: C_8  and  C_9
    5  A    between atoms: O_16  and  C_23
    6  A    between atoms: O_16  and  C_24
                            x       y       z     vdW  Elec       q    Type
                         _______ _______ _______ _____ _____    ______ ____

>  <TORSDO>
F 6

$$$$
=
 OpenBabel10222420173D

 27 32  0  0  1  0  0  0  0  0999 V2000
  189.8430  178.0000  143.6610 O   0  0  0  0  0  0  0  0  0  0  0  0
  189.0430  175.6900  143.1490 C   0  0  0  0  0  2  0  0  0  0  0  0
  190.5160  175.8420  142.8060 C   0  0  0  0  0  2  0  0  0  0  0  0
  189.5850  177.0290  142.6800 C   0  0  0  0  0  0  0  0  0  0  0  0
  190.2380  176.9830  136.5760 C   0  0  0  0  0  3  0  0  0  0  0  0
  189.3800  177.4700  141.2620 C   0  0  0  0  0  0  0  0  0  0  0  0
  188.8910  178.2540  138.6420 C   0  0  0  0  0  0  0  0  0  0  0  0
  189.3300  178.0060  136.2820 C   0  0  0  0  0  3  0  0  0  0  0  0
  188.6540  178.6440  137.3240 C   0  0  0  0  0  3  0  0  0  0  0  0
  190.4600  176.6120  137.8660 N   0  0  0  0  0  0  0  0  0  0  0  0
  188.2410  178.8570  139.6720 N   0  0  0  0  0  0  0  0  0  0  0  0
  190.0510  176.8280  140.2150 C   0  0  0  0  0  3  0  0  0  0  0  0
  189.8140  177.2200  138.8980 C   0  0  0  0  0  0  0  0  0  0  0  0
  188.4610  178.4870  140.9630 C   0  0  0  0  0  3  0  0  0  0  0  0
  191.1410  177.2800  145.4030 O   0  0  0  0  0  1  0  0  0  0  0  0
  189.8410  177.3400  144.9000 C   0  0  1  0  0  3  0  0  0  0  0  0
  188.9140  178.0430  145.8910 C   0  0  0  0  0  2  0  0  0  0  0  0
  186.9550  178.4480  144.3430 C   0  0  0  0  0  2  0  0  0  0  0  0
  184.3830  179.2180  144.0250 C   0  0  2  0  0  3  0  0  0  0  0  0
  186.6020  178.1160  146.8870 C   0  0  0  0  0  2  0  0  0  0  0  0
  185.4610  178.2220  144.3220 C   0  0  2  0  0  3  0  0  0  0  0  0
  187.4450  177.7400  145.6310 C   0  0  2  0  0  3  0  0  0  0  0  0
  185.0660  179.2580  145.3810 C   0  0  2  0  0  3  0  0  0  0  0  0
  185.1010  178.3090  146.5620 C   0  0  0  0  0  2  0  0  0  0  0  0
  181.9450  179.5930  143.9010 C   0  0  0  0  0  2  0  0  0  0  0  0
  183.0230  178.5580  144.1500 C   0  0  0  0  0  3  0  0  0  0  0  0
  182.3190  178.6140  142.8090 C   0  0  0  0  0  2  0  0  0  0  0  0
  1 16  1  0  0  0  0
  3  2  1  0  0  0  0
  4  3  1  0  0  0  0
  4  2  1  0  0  0  0
  4  1  1  0  0  0  0
  5 10  1  0  0  0  0
  6  4  1  0  0  0  0
  7 13  1  0  0  0  0
  7 11  1  0  0  0  0
  8  5  2  0  0  0  0
  8  9  1  0  0  0  0
  9  7  2  0  0  0  0
 10 13  2  0  0  0  0
 11 14  2  0  0  0  0
 12  6  2  0  0  0  0
 13 12  1  0  0  0  0
 14  6  1  0  0  0  0
 16 15  1  1  0  0  0
 16 17  1  0  0  0  0
 18 22  1  0  0  0  0
 19 26  1  1  0  0  0
 19 21  1  0  0  0  0
 19 23  1  0  0  0  0
 21 18  1  6  0  0  0
 21 23  1  0  0  0  0
 22 17  1  1  0  0  0
 22 20  1  0  0  0  0
 23 24  1  1  0  0  0
 24 20  1  0  0  0  0
 25 26  1  0  0  0  0
 27 25  1  0  0  0  0
 27 26  1  0  0  0  0
M  END
>  <MODEL>
9

>  <REMARK>
 VINA RESULT:      -7.6      2.098      6.916
  Name = 
  6 active torsions:
  status: ('A' for Active; 'I' for Inactive)
    1  A    between atoms: C_2  and  C_14
    2  A    between atoms: C_2  and  C_23
    3  A    between atoms: C_3  and  C_24
    4  A    between atoms: C_8  and  C_9
    5  A    between atoms: O_16  and  C_23
    6  A    between atoms: O_16  and  C_24
                            x       y       z     vdW  Elec       q    Type
                         _______ _______ _______ _____ _____    ______ ____

>  <TORSDO>
F 6

$$$$
