=
 OpenBabel10222415313D

 31 35  0  0  1  0  0  0  0  0999 V2000
  186.5290  178.3290  142.2380 C   0  0  0  0  0  3  0  0  0  0  0  0
  189.1390  177.4900  141.5280 C   0  0  0  0  0  0  0  0  0  0  0  0
  186.5290  178.3120  146.9450 C   0  0  0  0  0  2  0  0  0  0  0  0
  187.3970  177.7920  143.1820 C   0  0  0  0  0  0  0  0  0  0  0  0
  187.1950  177.5770  144.6110 C   0  0  2  0  0  3  0  0  0  0  0  0
  188.2750  178.0390  140.5490 C   0  0  0  0  0  0  0  0  0  0  0  0
  190.5070  177.0030  141.1730 C   0  0  0  0  0  1  0  0  0  0  0  0
  190.6580  177.4050  144.4510 C   0  0  0  0  0  3  0  0  0  0  0  0
  186.0480  178.0030  145.5060 C   0  0  2  0  0  3  0  0  0  0  0  0
  189.3470  176.7810  144.0380 C   0  0  2  0  0  3  0  0  0  0  0  0
  188.6800  177.4010  142.8470 C   0  0  0  0  0  0  0  0  0  0  0  0
  188.3070  177.0340  145.0860 C   0  0  1  0  0  3  0  0  0  0  0  0
  188.6540  177.1500  146.4980 C   0  0  0  0  0  0  0  0  0  0  0  0
  186.9680  178.4580  140.9060 C   0  0  0  0  0  0  0  0  0  0  0  0
  190.9330  177.6580  145.7440 C   0  0  0  0  0  3  0  0  0  0  0  0
  187.5340  177.2760  147.4770 C   0  0  0  0  0  2  0  0  0  0  0  0
  189.9150  177.4680  146.8130 C   0  0  0  0  0  3  0  0  0  0  0  0
  188.7200  178.1510  139.1230 C   0  0  0  0  0  2  0  0  0  0  0  0
  188.3180  176.9100  138.3490 C   0  0  0  0  0  1  0  0  0  0  0  0
  185.3190  179.2200  144.9490 C   0  0  0  0  0  2  0  0  0  0  0  0
  183.8160  178.9980  144.9430 C   0  0  0  0  0  2  0  0  0  0  0  0
  183.3100  179.0720  143.5790 N   0  0  0  0  0  2  0  0  0  0  0  0
  180.2420  178.7840  141.5960 C   0  0  0  0  0  2  0  0  0  0  0  0
  181.9340  178.8770  143.2490 C   0  0  0  0  0  0  0  0  0  0  0  0
  181.5410  178.9650  141.9500 N   0  0  0  0  0  0  0  0  0  0  0  0
  180.9840  178.5970  144.2390 C   0  0  0  0  0  2  0  0  0  0  0  0
  179.6570  178.4170  143.8550 C   0  0  0  0  0  3  0  0  0  0  0  0
  179.3090  178.5130  142.5460 N   0  0  0  0  0  0  0  0  0  0  0  0
  186.1260  178.9940  139.9240 O   0  0  0  0  0  0  0  0  0  0  0  0
  184.7210  179.1120  140.0970 C   0  0  0  0  0  2  0  0  0  0  0  0
  184.1960  180.0730  139.1430 N   0  0  0  0  0  1  0  0  0  0  0  0
  1  4  1  0  0  0  0
  2 11  1  0  0  0  0
  3 16  1  0  0  0  0
  5  4  1  1  0  0  0
  5 12  1  0  0  0  0
  5  9  1  0  0  0  0
  6 14  1  0  0  0  0
  6  2  2  0  0  0  0
  7  2  1  0  0  0  0
  8 15  2  0  0  0  0
  9 20  1  6  0  0  0
  9  3  1  0  0  0  0
 10  8  1  1  0  0  0
 10 12  1  0  0  0  0
 11  4  2  0  0  0  0
 11 10  1  0  0  0  0
 12 13  1  1  0  0  0
 13 17  2  0  0  0  0
 13 16  1  0  0  0  0
 14  1  2  0  0  0  0
 15 17  1  0  0  0  0
 18  6  1  0  0  0  0
 19 18  1  0  0  0  0
 21 20  1  0  0  0  0
 22 21  1  0  0  0  0
 23 25  1  0  0  0  0
 23 28  1  0  0  0  0
 24 22  1  0  0  0  0
 24 26  1  0  0  0  0
 25 24  2  0  0  0  0
 27 26  1  0  0  0  0
 28 27  2  0  0  0  0
 29 30  1  0  0  0  0
 29 14  1  0  0  0  0
 31 30  1  0  0  0  0
M  END
>  <MODEL>
1

>  <REMARK>
 VINA RESULT:     -10.4      0.000      0.000
  Name = 
  6 active torsions:
  status: ('A' for Active; 'I' for Inactive)
    1  A    between atoms: N_2  and  C_27
    2  A    between atoms: C_3  and  C_13
    3  A    between atoms: C_6  and  O_30
    4  A    between atoms: C_16  and  C_25
    5  A    between atoms: C_24  and  O_30
    6  A    between atoms: C_25  and  C_27
                            x       y       z     vdW  Elec       q    Type
                         _______ _______ _______ _____ _____    ______ ____

>  <TORSDO>
F 6

$$$$
=
 OpenBabel10222415313D

 31 35  0  0  1  0  0  0  0  0999 V2000
  187.1380  177.8290  142.8240 C   0  0  0  0  0  3  0  0  0  0  0  0
  185.7820  178.2760  145.2710 C   0  0  0  0  0  0  0  0  0  0  0  0
  191.4090  176.3200  144.1070 C   0  0  0  0  0  2  0  0  0  0  0  0
  187.8180  177.8330  144.0380 C   0  0  0  0  0  0  0  0  0  0  0  0
  189.2350  177.6120  144.3070 C   0  0  2  0  0  3  0  0  0  0  0  0
  185.0670  178.2720  144.0490 C   0  0  0  0  0  0  0  0  0  0  0  0
  185.0980  178.5490  146.5720 C   0  0  0  0  0  1  0  0  0  0  0  0
  187.9210  177.0830  147.4750 C   0  0  0  0  0  3  0  0  0  0  0  0
  190.3460  177.1730  143.3720 C   0  0  2  0  0  3  0  0  0  0  0  0
  188.1530  178.0720  146.3590 C   0  0  2  0  0  3  0  0  0  0  0  0
  187.1590  178.0290  145.2370 C   0  0  0  0  0  0  0  0  0  0  0  0
  189.4060  177.7210  145.6170 C   0  0  1  0  0  3  0  0  0  0  0  0
  190.5370  177.0820  146.2810 C   0  0  0  0  0  0  0  0  0  0  0  0
  185.7470  178.0490  142.8250 C   0  0  0  0  0  0  0  0  0  0  0  0
  188.9370  176.3730  147.9990 C   0  0  0  0  0  3  0  0  0  0  0  0
  191.7860  176.8880  145.4860 C   0  0  0  0  0  2  0  0  0  0  0  0
  190.3060  176.4180  147.4190 C   0  0  0  0  0  3  0  0  0  0  0  0
  183.5920  178.5350  144.0330 C   0  0  0  0  0  2  0  0  0  0  0  0
  183.3260  180.0200  143.8650 C   0  0  0  0  0  1  0  0  0  0  0  0
  189.8060  176.3880  142.1830 C   0  0  0  0  0  2  0  0  0  0  0  0
  190.5000  176.8030  140.8970 C   0  0  0  0  0  2  0  0  0  0  0  0
  189.7370  177.8550  140.2400 N   0  0  0  0  0  2  0  0  0  0  0  0
  188.5970  178.9990  136.9500 C   0  0  0  0  0  3  0  0  0  0  0  0
  189.5370  177.9020  138.8260 C   0  0  0  0  0  0  0  0  0  0  0  0
  188.8090  178.9180  138.2900 N   0  0  0  0  0  0  0  0  0  0  0  0
  190.0770  176.9230  137.9840 C   0  0  0  0  0  3  0  0  0  0  0  0
  189.8490  177.0230  136.6140 C   0  0  0  0  0  3  0  0  0  0  0  0
  189.1150  178.0550  136.1210 N   0  0  0  0  0  0  0  0  0  0  0  0
  185.0240  178.0530  141.6250 O   0  0  0  0  0  0  0  0  0  0  0  0
  185.5270  178.6230  140.4250 C   0  0  0  0  0  2  0  0  0  0  0  0
  184.6360  179.6790  139.9800 N   0  0  0  0  0  1  0  0  0  0  0  0
  1 14  2  0  0  0  0
  1  4  1  0  0  0  0
  2  7  1  0  0  0  0
  3 16  1  0  0  0  0
  4 11  2  0  0  0  0
  5  4  1  1  0  0  0
  5 12  1  0  0  0  0
  6  2  2  0  0  0  0
  8 15  2  0  0  0  0
  9 20  1  6  0  0  0
  9  3  1  0  0  0  0
  9  5  1  0  0  0  0
 10  8  1  1  0  0  0
 11  2  1  0  0  0  0
 11 10  1  0  0  0  0
 12 13  1  1  0  0  0
 12 10  1  0  0  0  0
 13 17  2  0  0  0  0
 14  6  1  0  0  0  0
 16 13  1  0  0  0  0
 17 15  1  0  0  0  0
 18  6  1  0  0  0  0
 19 18  1  0  0  0  0
 21 20  1  0  0  0  0
 22 21  1  0  0  0  0
 23 25  1  0  0  0  0
 24 22  1  0  0  0  0
 25 24  2  0  0  0  0
 26 24  1  0  0  0  0
 27 26  2  0  0  0  0
 28 27  1  0  0  0  0
 28 23  2  0  0  0  0
 29 14  1  0  0  0  0
 30 29  1  0  0  0  0
 31 30  1  0  0  0  0
M  END
>  <MODEL>
2

>  <REMARK>
 VINA RESULT:     -10.2      2.167      6.192
  Name = 
  6 active torsions:
  status: ('A' for Active; 'I' for Inactive)
    1  A    between atoms: N_2  and  C_27
    2  A    between atoms: C_3  and  C_13
    3  A    between atoms: C_6  and  O_30
    4  A    between atoms: C_16  and  C_25
    5  A    between atoms: C_24  and  O_30
    6  A    between atoms: C_25  and  C_27
                            x       y       z     vdW  Elec       q    Type
                         _______ _______ _______ _____ _____    ______ ____

>  <TORSDO>
F 6

$$$$
=
 OpenBabel10222415313D

 31 35  0  0  1  0  0  0  0  0999 V2000
  188.3080  177.7020  142.2930 C   0  0  0  0  0  3  0  0  0  0  0  0
  189.3760  177.1680  144.8600 C   0  0  0  0  0  0  0  0  0  0  0  0
  183.9370  179.2350  143.1340 C   0  0  0  0  0  2  0  0  0  0  0  0
  187.4950  177.6740  143.4220 C   0  0  0  0  0  0  0  0  0  0  0  0
  186.0600  177.9080  143.5370 C   0  0  2  0  0  3  0  0  0  0  0  0
  190.2230  177.1960  143.7270 C   0  0  0  0  0  0  0  0  0  0  0  0
  189.9070  176.8500  146.2210 C   0  0  0  0  0  1  0  0  0  0  0  0
  187.0170  178.3290  146.8470 C   0  0  0  0  0  3  0  0  0  0  0  0
  185.0660  178.3880  142.4980 C   0  0  2  0  0  3  0  0  0  0  0  0
  186.9010  177.3750  145.6830 C   0  0  2  0  0  3  0  0  0  0  0  0
  188.0140  177.4360  144.6810 C   0  0  0  0  0  0  0  0  0  0  0  0
  185.7420  177.7640  144.8160 C   0  0  1  0  0  3  0  0  0  0  0  0
  184.5510  178.4000  145.3680 C   0  0  0  0  0  0  0  0  0  0  0  0
  189.6870  177.4630  142.4420 C   0  0  0  0  0  0  0  0  0  0  0  0
  185.9560  179.0390  147.2750 C   0  0  0  0  0  3  0  0  0  0  0  0
  183.4010  178.6340  144.4450 C   0  0  0  0  0  2  0  0  0  0  0  0
  184.6600  179.0290  146.5440 C   0  0  0  0  0  3  0  0  0  0  0  0
  191.6880  176.9120  143.8680 C   0  0  0  0  0  2  0  0  0  0  0  0
  191.9250  175.4170  143.9700 C   0  0  0  0  0  1  0  0  0  0  0  0
  185.7440  179.1990  141.4000 C   0  0  0  0  0  2  0  0  0  0  0  0
  185.3090  178.7210  140.0250 C   0  0  0  0  0  2  0  0  0  0  0  0
  184.5510  179.7680  139.3540 N   0  0  0  0  0  2  0  0  0  0  0  0
  181.1410  180.7740  138.4640 C   0  0  0  0  0  2  0  0  0  0  0  0
  183.1270  179.7440  139.2370 C   0  0  0  0  0  0  0  0  0  0  0  0
  182.4940  180.7620  138.5970 N   0  0  0  0  0  0  0  0  0  0  0  0
  182.3750  178.6900  139.7690 C   0  0  0  0  0  2  0  0  0  0  0  0
  180.9900  178.7210  139.6230 C   0  0  0  0  0  3  0  0  0  0  0  0
  180.3980  179.7580  138.9760 N   0  0  0  0  0  0  0  0  0  0  0  0
  190.5400  177.4820  141.3310 O   0  0  0  0  0  0  0  0  0  0  0  0
  190.0690  177.3540  139.9970 C   0  0  0  0  0  2  0  0  0  0  0  0
  190.6400  176.1630  139.3950 N   0  0  0  0  0  1  0  0  0  0  0  0
  1 14  2  0  0  0  0
  1  4  1  0  0  0  0
  2  7  1  0  0  0  0
  3 16  1  0  0  0  0
  4 11  2  0  0  0  0
  5  4  1  1  0  0  0
  5 12  1  0  0  0  0
  6 18  1  0  0  0  0
  6  2  2  0  0  0  0
  8 15  2  0  0  0  0
  9 20  1  6  0  0  0
  9  3  1  0  0  0  0
  9  5  1  0  0  0  0
 10  8  1  1  0  0  0
 11  2  1  0  0  0  0
 11 10  1  0  0  0  0
 12 13  1  1  0  0  0
 12 10  1  0  0  0  0
 13 17  2  0  0  0  0
 14  6  1  0  0  0  0
 16 13  1  0  0  0  0
 17 15  1  0  0  0  0
 18 19  1  0  0  0  0
 21 20  1  0  0  0  0
 22 21  1  0  0  0  0
 23 25  1  0  0  0  0
 23 28  1  0  0  0  0
 24 22  1  0  0  0  0
 24 26  1  0  0  0  0
 25 24  2  0  0  0  0
 27 26  1  0  0  0  0
 28 27  2  0  0  0  0
 29 14  1  0  0  0  0
 30 29  1  0  0  0  0
 31 30  1  0  0  0  0
M  END
>  <MODEL>
3

>  <REMARK>
 VINA RESULT:      -9.9      2.237      4.415
  Name = 
  6 active torsions:
  status: ('A' for Active; 'I' for Inactive)
    1  A    between atoms: N_2  and  C_27
    2  A    between atoms: C_3  and  C_13
    3  A    between atoms: C_6  and  O_30
    4  A    between atoms: C_16  and  C_25
    5  A    between atoms: C_24  and  O_30
    6  A    between atoms: C_25  and  C_27
                            x       y       z     vdW  Elec       q    Type
                         _______ _______ _______ _____ _____    ______ ____

>  <TORSDO>
F 6

$$$$
=
 OpenBabel10222415313D

 31 35  0  0  1  0  0  0  0  0999 V2000
  189.3260  177.5440  143.6160 C   0  0  0  0  0  3  0  0  0  0  0  0
  188.8530  177.3010  146.3980 C   0  0  0  0  0  0  0  0  0  0  0  0
  185.1790  178.8800  141.8320 C   0  0  0  0  0  2  0  0  0  0  0  0
  188.0350  177.5660  144.1340 C   0  0  0  0  0  0  0  0  0  0  0  0
  186.7610  177.7230  143.4420 C   0  0  2  0  0  3  0  0  0  0  0  0
  190.1760  177.2810  145.8940 C   0  0  0  0  0  0  0  0  0  0  0  0
  188.5730  177.1360  147.8570 C   0  0  0  0  0  1  0  0  0  0  0  0
  185.7930  178.4890  146.6860 C   0  0  0  0  0  3  0  0  0  0  0  0
  186.4760  178.0500  141.9890 C   0  0  2  0  0  3  0  0  0  0  0  0
  186.3220  177.4320  145.7480 C   0  0  2  0  0  3  0  0  0  0  0  0
  187.7990  177.4700  145.4930 C   0  0  0  0  0  0  0  0  0  0  0  0
  185.8070  177.6730  144.3620 C   0  0  1  0  0  3  0  0  0  0  0  0
  184.5030  178.2830  144.1240 C   0  0  0  0  0  0  0  0  0  0  0  0
  190.4110  177.4010  144.5010 C   0  0  0  0  0  0  0  0  0  0  0  0
  184.6650  179.1690  146.4050 C   0  0  0  0  0  3  0  0  0  0  0  0
  184.0260  178.3660  142.7110 C   0  0  0  0  0  2  0  0  0  0  0  0
  183.9630  179.0170  145.1020 C   0  0  0  0  0  3  0  0  0  0  0  0
  191.3380  177.0980  146.8230 C   0  0  0  0  0  2  0  0  0  0  0  0
  191.6880  175.6270  146.9410 C   0  0  0  0  0  1  0  0  0  0  0  0
  187.6340  178.8000  141.3420 C   0  0  0  0  0  2  0  0  0  0  0  0
  187.9380  178.2460  139.9610 C   0  0  0  0  0  2  0  0  0  0  0  0
  189.0630  177.3240  140.0330 N   0  0  0  0  0  2  0  0  0  0  0  0
  191.5040  175.5460  137.9570 C   0  0  0  0  0  3  0  0  0  0  0  0
  189.7670  176.8650  138.8780 C   0  0  0  0  0  0  0  0  0  0  0  0
  190.8100  176.0060  139.0310 N   0  0  0  0  0  0  0  0  0  0  0  0
  189.4020  177.2840  137.5930 C   0  0  0  0  0  3  0  0  0  0  0  0
  190.1270  176.8020  136.5050 C   0  0  0  0  0  3  0  0  0  0  0  0
  191.1620  175.9440  136.7040 N   0  0  0  0  0  0  0  0  0  0  0  0
  191.7260  177.3740  144.0210 O   0  0  0  0  0  0  0  0  0  0  0  0
  192.0720  176.8260  142.7570 C   0  0  0  0  0  2  0  0  0  0  0  0
  192.0590  177.8760  141.7540 N   0  0  0  0  0  1  0  0  0  0  0  0
  1  4  2  0  0  0  0
  1 14  1  0  0  0  0
  2  7  1  0  0  0  0
  3  9  1  0  0  0  0
  3 16  1  0  0  0  0
  4 11  1  0  0  0  0
  5  4  1  1  0  0  0
  5 12  1  0  0  0  0
  6  2  1  0  0  0  0
  6 18  1  0  0  0  0
  9 20  1  1  0  0  0
  9  5  1  0  0  0  0
 10  8  1  1  0  0  0
 11 10  1  0  0  0  0
 11  2  2  0  0  0  0
 12 13  1  1  0  0  0
 12 10  1  0  0  0  0
 13 17  2  0  0  0  0
 14  6  2  0  0  0  0
 15  8  2  0  0  0  0
 16 13  1  0  0  0  0
 17 15  1  0  0  0  0
 18 19  1  0  0  0  0
 21 22  1  0  0  0  0
 21 20  1  0  0  0  0
 23 25  1  0  0  0  0
 24 25  2  0  0  0  0
 24 22  1  0  0  0  0
 26 24  1  0  0  0  0
 27 28  1  0  0  0  0
 27 26  2  0  0  0  0
 28 23  2  0  0  0  0
 29 14  1  0  0  0  0
 30 29  1  0  0  0  0
 31 30  1  0  0  0  0
M  END
>  <MODEL>
4

>  <REMARK>
 VINA RESULT:      -9.9      3.478      7.278
  Name = 
  6 active torsions:
  status: ('A' for Active; 'I' for Inactive)
    1  A    between atoms: N_2  and  C_27
    2  A    between atoms: C_3  and  C_13
    3  A    between atoms: C_6  and  O_30
    4  A    between atoms: C_16  and  C_25
    5  A    between atoms: C_24  and  O_30
    6  A    between atoms: C_25  and  C_27
                            x       y       z     vdW  Elec       q    Type
                         _______ _______ _______ _____ _____    ______ ____

>  <TORSDO>
F 6

$$$$
=
 OpenBabel10222415313D

 31 35  0  0  1  0  0  0  0  0999 V2000
  188.3190  177.6760  142.3440 C   0  0  0  0  0  3  0  0  0  0  0  0
  189.3630  177.1560  144.9250 C   0  0  0  0  0  0  0  0  0  0  0  0
  183.9400  179.2110  143.1370 C   0  0  0  0  0  2  0  0  0  0  0  0
  187.4960  177.6530  143.4660 C   0  0  0  0  0  0  0  0  0  0  0  0
  186.0600  177.8870  143.5670 C   0  0  2  0  0  3  0  0  0  0  0  0
  190.2210  177.1790  143.7990 C   0  0  0  0  0  0  0  0  0  0  0  0
  189.8820  176.8460  146.2930 C   0  0  0  0  0  1  0  0  0  0  0  0
  186.9860  178.3270  146.8830 C   0  0  0  0  0  3  0  0  0  0  0  0
  185.0750  178.3610  142.5160 C   0  0  2  0  0  3  0  0  0  0  0  0
  186.8800  177.3670  145.7230 C   0  0  2  0  0  3  0  0  0  0  0  0
  188.0030  177.4220  144.7310 C   0  0  0  0  0  0  0  0  0  0  0  0
  185.7300  177.7500  144.8440 C   0  0  1  0  0  3  0  0  0  0  0  0
  184.5340  178.3890  145.3810 C   0  0  0  0  0  0  0  0  0  0  0  0
  189.6970  177.4380  142.5080 C   0  0  0  0  0  0  0  0  0  0  0  0
  185.9210  179.0390  147.2970 C   0  0  0  0  0  3  0  0  0  0  0  0
  183.3920  178.6170  144.4460 C   0  0  0  0  0  2  0  0  0  0  0  0
  184.6310  179.0240  146.5540 C   0  0  0  0  0  3  0  0  0  0  0  0
  191.6850  176.8960  143.9550 C   0  0  0  0  0  2  0  0  0  0  0  0
  191.9300  175.3990  143.9760 C   0  0  0  0  0  1  0  0  0  0  0  0
  185.7630  179.1660  141.4200 C   0  0  0  0  0  2  0  0  0  0  0  0
  185.3920  178.6390  140.0440 C   0  0  0  0  0  2  0  0  0  0  0  0
  186.5720  178.6060  139.1920 N   0  0  0  0  0  2  0  0  0  0  0  0
  187.7410  177.5490  135.8830 C   0  0  0  0  0  2  0  0  0  0  0  0
  186.5630  178.0560  137.8730 C   0  0  0  0  0  0  0  0  0  0  0  0
  187.7080  178.0650  137.1400 N   0  0  0  0  0  0  0  0  0  0  0  0
  185.3980  177.5060  137.3250 C   0  0  0  0  0  2  0  0  0  0  0  0
  185.4520  176.9840  136.0350 C   0  0  0  0  0  3  0  0  0  0  0  0
  186.6170  177.0140  135.3380 N   0  0  0  0  0  0  0  0  0  0  0  0
  190.5600  177.4520  141.4050 O   0  0  0  0  0  0  0  0  0  0  0  0
  190.0950  177.4110  140.0630 C   0  0  0  0  0  2  0  0  0  0  0  0
  190.5600  176.1910  139.4270 N   0  0  0  0  0  1  0  0  0  0  0  0
  1 14  2  0  0  0  0
  1  4  1  0  0  0  0
  2  7  1  0  0  0  0
  3 16  1  0  0  0  0
  4 11  2  0  0  0  0
  5  4  1  1  0  0  0
  5 12  1  0  0  0  0
  6 18  1  0  0  0  0
  6  2  2  0  0  0  0
  8 15  2  0  0  0  0
  9 20  1  6  0  0  0
  9  3  1  0  0  0  0
  9  5  1  0  0  0  0
 10  8  1  1  0  0  0
 11  2  1  0  0  0  0
 11 10  1  0  0  0  0
 12 13  1  1  0  0  0
 12 10  1  0  0  0  0
 13 17  2  0  0  0  0
 14  6  1  0  0  0  0
 16 13  1  0  0  0  0
 17 15  1  0  0  0  0
 18 19  1  0  0  0  0
 21 20  1  0  0  0  0
 22 21  1  0  0  0  0
 23 25  1  0  0  0  0
 24 22  1  0  0  0  0
 25 24  2  0  0  0  0
 26 24  1  0  0  0  0
 27 26  1  0  0  0  0
 28 23  1  0  0  0  0
 28 27  2  0  0  0  0
 29 14  1  0  0  0  0
 30 29  1  0  0  0  0
 31 30  1  0  0  0  0
M  END
>  <MODEL>
5

>  <REMARK>
 VINA RESULT:      -9.8      2.726      5.649
  Name = 
  6 active torsions:
  status: ('A' for Active; 'I' for Inactive)
    1  A    between atoms: N_2  and  C_27
    2  A    between atoms: C_3  and  C_13
    3  A    between atoms: C_6  and  O_30
    4  A    between atoms: C_16  and  C_25
    5  A    between atoms: C_24  and  O_30
    6  A    between atoms: C_25  and  C_27
                            x       y       z     vdW  Elec       q    Type
                         _______ _______ _______ _____ _____    ______ ____

>  <TORSDO>
F 6

$$$$
=
 OpenBabel10222415313D

 31 35  0  0  1  0  0  0  0  0999 V2000
  187.4170  178.2250  141.5650 C   0  0  0  0  0  3  0  0  0  0  0  0
  189.9110  177.2540  142.4910 C   0  0  0  0  0  0  0  0  0  0  0  0
  184.8700  178.8360  145.4770 C   0  0  0  0  0  2  0  0  0  0  0  0
  187.5860  177.8040  142.8800 C   0  0  0  0  0  0  0  0  0  0  0  0
  186.6260  177.7850  143.9780 C   0  0  2  0  0  3  0  0  0  0  0  0
  189.7650  177.6820  141.1490 C   0  0  0  0  0  0  0  0  0  0  0  0
  191.2050  176.7000  142.9940 C   0  0  0  0  0  1  0  0  0  0  0  0
  189.5950  177.5340  145.7580 C   0  0  0  0  0  3  0  0  0  0  0  0
  185.2190  178.3470  144.0500 C   0  0  2  0  0  3  0  0  0  0  0  0
  188.6670  176.8830  144.7620 C   0  0  2  0  0  3  0  0  0  0  0  0
  188.8060  177.3500  143.3440 C   0  0  0  0  0  0  0  0  0  0  0  0
  187.2520  177.2910  145.0380 C   0  0  1  0  0  3  0  0  0  0  0  0
  186.7890  177.5890  146.3880 C   0  0  0  0  0  0  0  0  0  0  0  0
  188.5160  178.1670  140.6870 C   0  0  0  0  0  0  0  0  0  0  0  0
  189.1470  177.9520  146.9570 C   0  0  0  0  0  3  0  0  0  0  0  0
  185.3330  177.8630  146.5760 C   0  0  0  0  0  2  0  0  0  0  0  0
  187.7010  177.9240  147.3070 C   0  0  0  0  0  3  0  0  0  0  0  0
  190.9190  177.5960  140.1960 C   0  0  0  0  0  2  0  0  0  0  0  0
  190.7950  176.3520  139.3350 C   0  0  0  0  0  1  0  0  0  0  0  0
  185.0170  179.4910  143.0640 C   0  0  0  0  0  2  0  0  0  0  0  0
  183.7980  179.2460  142.1900 C   0  0  0  0  0  2  0  0  0  0  0  0
  184.1710  179.3310  140.7850 N   0  0  0  0  0  2  0  0  0  0  0  0
  183.8520  177.5820  137.5810 C   0  0  0  0  0  3  0  0  0  0  0  0
  183.7990  178.3450  139.8210 C   0  0  0  0  0  0  0  0  0  0  0  0
  184.1850  178.4990  138.5270 N   0  0  0  0  0  0  0  0  0  0  0  0
  183.0450  177.2230  140.1860 C   0  0  0  0  0  3  0  0  0  0  0  0
  182.7130  176.2950  139.2020 C   0  0  0  0  0  3  0  0  0  0  0  0
  183.1200  176.4890  137.9200 N   0  0  0  0  0  0  0  0  0  0  0  0
  188.3890  178.5820  139.3550 O   0  0  0  0  0  0  0  0  0  0  0  0
  187.5860  177.8910  138.4080 C   0  0  0  0  0  2  0  0  0  0  0  0
  187.4240  178.7130  137.2220 N   0  0  0  0  0  1  0  0  0  0  0  0
  1  4  1  0  0  0  0
  2  7  1  0  0  0  0
  2 11  1  0  0  0  0
  3 16  1  0  0  0  0
  4 11  2  0  0  0  0
  5  4  1  1  0  0  0
  5  9  1  0  0  0  0
  5 12  1  0  0  0  0
  6  2  2  0  0  0  0
  8 15  2  0  0  0  0
  9 20  1  6  0  0  0
  9  3  1  0  0  0  0
 10 12  1  0  0  0  0
 10  8  1  1  0  0  0
 11 10  1  0  0  0  0
 12 13  1  1  0  0  0
 13 16  1  0  0  0  0
 13 17  2  0  0  0  0
 14  6  1  0  0  0  0
 14  1  2  0  0  0  0
 15 17  1  0  0  0  0
 18  6  1  0  0  0  0
 19 18  1  0  0  0  0
 21 20  1  0  0  0  0
 22 21  1  0  0  0  0
 23 28  2  0  0  0  0
 23 25  1  0  0  0  0
 24 26  1  0  0  0  0
 24 22  1  0  0  0  0
 25 24  2  0  0  0  0
 27 26  2  0  0  0  0
 28 27  1  0  0  0  0
 29 14  1  0  0  0  0
 30 29  1  0  0  0  0
 31 30  1  0  0  0  0
M  END
>  <MODEL>
6

>  <REMARK>
 VINA RESULT:      -9.8      2.008      2.989
  Name = 
  6 active torsions:
  status: ('A' for Active; 'I' for Inactive)
    1  A    between atoms: N_2  and  C_27
    2  A    between atoms: C_3  and  C_13
    3  A    between atoms: C_6  and  O_30
    4  A    between atoms: C_16  and  C_25
    5  A    between atoms: C_24  and  O_30
    6  A    between atoms: C_25  and  C_27
                            x       y       z     vdW  Elec       q    Type
                         _______ _______ _______ _____ _____    ______ ____

>  <TORSDO>
F 6

$$$$
=
 OpenBabel10222415313D

 31 35  0  0  1  0  0  0  0  0999 V2000
  187.5590  178.1590  141.4830 C   0  0  0  0  0  3  0  0  0  0  0  0
  190.0170  177.1890  142.5010 C   0  0  0  0  0  0  0  0  0  0  0  0
  184.8900  178.8290  145.3030 C   0  0  0  0  0  2  0  0  0  0  0  0
  187.6830  177.7530  142.8080 C   0  0  0  0  0  0  0  0  0  0  0  0
  186.6880  177.7520  143.8750 C   0  0  2  0  0  3  0  0  0  0  0  0
  189.9170  177.6000  141.1500 C   0  0  0  0  0  0  0  0  0  0  0  0
  191.2920  176.6360  143.0530 C   0  0  0  0  0  1  0  0  0  0  0  0
  189.5970  177.5110  145.7530 C   0  0  0  0  0  3  0  0  0  0  0  0
  185.2820  178.3210  143.8950 C   0  0  2  0  0  3  0  0  0  0  0  0
  188.6990  176.8520  144.7350 C   0  0  2  0  0  3  0  0  0  0  0  0
  188.8860  177.3000  143.3170 C   0  0  0  0  0  0  0  0  0  0  0  0
  187.2770  177.2690  144.9600 C   0  0  1  0  0  3  0  0  0  0  0  0
  186.7730  177.5860  146.2910 C   0  0  0  0  0  0  0  0  0  0  0  0
  188.6850  178.0850  140.6420 C   0  0  0  0  0  0  0  0  0  0  0  0
  189.1130  177.9460  146.9310 C   0  0  0  0  0  3  0  0  0  0  0  0
  185.3130  177.8690  146.4280 C   0  0  0  0  0  2  0  0  0  0  0  0
  187.6560  177.9290  147.2350 C   0  0  0  0  0  3  0  0  0  0  0  0
  191.1000  177.4970  140.2350 C   0  0  0  0  0  2  0  0  0  0  0  0
  190.9070  176.3550  139.2560 C   0  0  0  0  0  1  0  0  0  0  0  0
  185.1170  179.4530  142.8880 C   0  0  0  0  0  2  0  0  0  0  0  0
  184.2530  179.0180  141.7170 C   0  0  0  0  0  2  0  0  0  0  0  0
  182.8530  178.9960  142.1160 N   0  0  0  0  0  2  0  0  0  0  0  0
  179.5830  177.6280  141.1830 C   0  0  0  0  0  2  0  0  0  0  0  0
  181.8510  178.2730  141.3990 C   0  0  0  0  0  0  0  0  0  0  0  0
  180.5640  178.3010  141.8390 N   0  0  0  0  0  0  0  0  0  0  0  0
  182.1700  177.5370  140.2520 C   0  0  0  0  0  2  0  0  0  0  0  0
  181.1500  176.8530  139.5940 C   0  0  0  0  0  3  0  0  0  0  0  0
  179.8790  176.9090  140.0690 N   0  0  0  0  0  0  0  0  0  0  0  0
  188.6030  178.4830  139.3010 O   0  0  0  0  0  0  0  0  0  0  0  0
  187.6730  177.9190  138.3870 C   0  0  0  0  0  2  0  0  0  0  0  0
  187.2670  178.9290  137.4260 N   0  0  0  0  0  1  0  0  0  0  0  0
  1  4  1  0  0  0  0
  2  7  1  0  0  0  0
  2 11  1  0  0  0  0
  3 16  1  0  0  0  0
  4 11  2  0  0  0  0
  5  4  1  1  0  0  0
  5  9  1  0  0  0  0
  5 12  1  0  0  0  0
  6  2  2  0  0  0  0
  8 15  2  0  0  0  0
  9 20  1  6  0  0  0
  9  3  1  0  0  0  0
 10 12  1  0  0  0  0
 10  8  1  1  0  0  0
 11 10  1  0  0  0  0
 12 13  1  1  0  0  0
 13 16  1  0  0  0  0
 13 17  2  0  0  0  0
 14  6  1  0  0  0  0
 14  1  2  0  0  0  0
 15 17  1  0  0  0  0
 18  6  1  0  0  0  0
 19 18  1  0  0  0  0
 21 22  1  0  0  0  0
 21 20  1  0  0  0  0
 23 25  1  0  0  0  0
 24 25  2  0  0  0  0
 24 22  1  0  0  0  0
 26 24  1  0  0  0  0
 27 28  2  0  0  0  0
 27 26  1  0  0  0  0
 28 23  1  0  0  0  0
 29 14  1  0  0  0  0
 30 29  1  0  0  0  0
 31 30  1  0  0  0  0
M  END
>  <MODEL>
7

>  <REMARK>
 VINA RESULT:      -9.4      1.632      2.364
  Name = 
  6 active torsions:
  status: ('A' for Active; 'I' for Inactive)
    1  A    between atoms: N_2  and  C_27
    2  A    between atoms: C_3  and  C_13
    3  A    between atoms: C_6  and  O_30
    4  A    between atoms: C_16  and  C_25
    5  A    between atoms: C_24  and  O_30
    6  A    between atoms: C_25  and  C_27
                            x       y       z     vdW  Elec       q    Type
                         _______ _______ _______ _____ _____    ______ ____

>  <TORSDO>
F 6

$$$$
=
 OpenBabel10222415313D

 31 35  0  0  1  0  0  0  0  0999 V2000
  187.2070  177.9090  142.7110 C   0  0  0  0  0  3  0  0  0  0  0  0
  185.7610  178.2820  145.1170 C   0  0  0  0  0  0  0  0  0  0  0  0
  191.4480  176.4190  144.1100 C   0  0  0  0  0  2  0  0  0  0  0  0
  187.8440  177.8920  143.9480 C   0  0  0  0  0  0  0  0  0  0  0  0
  189.2530  177.6800  144.2620 C   0  0  2  0  0  3  0  0  0  0  0  0
  185.0890  178.2990  143.8700 C   0  0  0  0  0  0  0  0  0  0  0  0
  185.0270  178.5150  146.3990 C   0  0  0  0  0  1  0  0  0  0  0  0
  187.8340  177.0610  147.3680 C   0  0  0  0  0  3  0  0  0  0  0  0
  190.4020  177.2770  143.3580 C   0  0  2  0  0  3  0  0  0  0  0  0
  188.0930  178.0780  146.2840 C   0  0  2  0  0  3  0  0  0  0  0  0
  187.1410  178.0510  145.1270 C   0  0  0  0  0  0  0  0  0  0  0  0
  189.3760  177.7600  145.5800 C   0  0  1  0  0  3  0  0  0  0  0  0
  190.4900  177.1180  146.2680 C   0  0  0  0  0  0  0  0  0  0  0  0
  185.8150  178.1130  142.6670 C   0  0  0  0  0  0  0  0  0  0  0  0
  188.8390  176.3500  147.9110 C   0  0  0  0  0  3  0  0  0  0  0  0
  191.7690  176.9580  145.5150 C   0  0  0  0  0  2  0  0  0  0  0  0
  190.2280  176.4250  147.3810 C   0  0  0  0  0  3  0  0  0  0  0  0
  183.6120  178.5460  143.8080 C   0  0  0  0  0  2  0  0  0  0  0  0
  183.2280  179.6690  144.7520 C   0  0  0  0  0  1  0  0  0  0  0  0
  189.9150  176.5140  142.1320 C   0  0  0  0  0  2  0  0  0  0  0  0
  190.0920  177.3420  140.8700 C   0  0  0  0  0  2  0  0  0  0  0  0
  191.4160  177.1110  140.3090 N   0  0  0  0  0  2  0  0  0  0  0  0
  193.1430  176.2390  137.1960 C   0  0  0  0  0  2  0  0  0  0  0  0
  191.6300  176.7670  138.9390 C   0  0  0  0  0  0  0  0  0  0  0  0
  192.8980  176.5690  138.4910 N   0  0  0  0  0  0  0  0  0  0  0  0
  190.5570  176.6290  138.0500 C   0  0  0  0  0  2  0  0  0  0  0  0
  190.8280  176.2910  136.7260 C   0  0  0  0  0  3  0  0  0  0  0  0
  192.1110  176.1030  136.3220 N   0  0  0  0  0  0  0  0  0  0  0  0
  185.1350  178.1370  141.4430 O   0  0  0  0  0  0  0  0  0  0  0  0
  185.7200  178.6350  140.2480 C   0  0  0  0  0  2  0  0  0  0  0  0
  184.7630  179.4810  139.5570 N   0  0  0  0  0  1  0  0  0  0  0  0
  1  4  1  0  0  0  0
  2 11  1  0  0  0  0
  2  7  1  0  0  0  0
  3 16  1  0  0  0  0
  4 11  2  0  0  0  0
  5  4  1  1  0  0  0
  5 12  1  0  0  0  0
  6  2  2  0  0  0  0
  8 15  2  0  0  0  0
  9 20  1  6  0  0  0
  9  3  1  0  0  0  0
  9  5  1  0  0  0  0
 10  8  1  1  0  0  0
 11 10  1  0  0  0  0
 12 13  1  1  0  0  0
 12 10  1  0  0  0  0
 13 17  2  0  0  0  0
 14  1  2  0  0  0  0
 14  6  1  0  0  0  0
 16 13  1  0  0  0  0
 17 15  1  0  0  0  0
 18  6  1  0  0  0  0
 18 19  1  0  0  0  0
 21 20  1  0  0  0  0
 22 21  1  0  0  0  0
 23 25  1  0  0  0  0
 24 22  1  0  0  0  0
 25 24  2  0  0  0  0
 26 24  1  0  0  0  0
 27 26  1  0  0  0  0
 28 27  2  0  0  0  0
 28 23  1  0  0  0  0
 29 14  1  0  0  0  0
 30 29  1  0  0  0  0
 31 30  1  0  0  0  0
M  END
>  <MODEL>
8

>  <REMARK>
 VINA RESULT:      -8.8      3.170      7.028
  Name = 
  6 active torsions:
  status: ('A' for Active; 'I' for Inactive)
    1  A    between atoms: N_2  and  C_27
    2  A    between atoms: C_3  and  C_13
    3  A    between atoms: C_6  and  O_30
    4  A    between atoms: C_16  and  C_25
    5  A    between atoms: C_24  and  O_30
    6  A    between atoms: C_25  and  C_27
                            x       y       z     vdW  Elec       q    Type
                         _______ _______ _______ _____ _____    ______ ____

>  <TORSDO>
F 6

$$$$
=
 OpenBabel10222415313D

 31 35  0  0  1  0  0  0  0  0999 V2000
  188.0300  178.2530  142.2310 C   0  0  0  0  0  3  0  0  0  0  0  0
  187.3590  178.2340  139.4800 C   0  0  0  0  0  0  0  0  0  0  0  0
  183.8800  178.3750  144.4510 C   0  0  0  0  0  2  0  0  0  0  0  0
  186.7340  178.5190  141.8010 C   0  0  0  0  0  0  0  0  0  0  0  0
  185.5410  178.8170  142.5850 C   0  0  2  0  0  3  0  0  0  0  0  0
  188.6850  177.9560  139.8930 C   0  0  0  0  0  0  0  0  0  0  0  0
  186.9870  178.2700  138.0320 C   0  0  0  0  0  1  0  0  0  0  0  0
  184.0810  177.9140  139.5680 C   0  0  0  0  0  3  0  0  0  0  0  0
  185.3280  178.7840  144.0860 C   0  0  2  0  0  3  0  0  0  0  0  0
  184.9640  178.9010  140.2930 C   0  0  2  0  0  3  0  0  0  0  0  0
  186.3950  178.4900  140.4610 C   0  0  0  0  0  0  0  0  0  0  0  0
  184.5460  179.0040  141.7280 C   0  0  1  0  0  3  0  0  0  0  0  0
  183.1590  178.8170  142.1380 C   0  0  0  0  0  0  0  0  0  0  0  0
  189.0190  177.9660  141.2710 C   0  0  0  0  0  0  0  0  0  0  0  0
  182.8490  177.6180  140.0210 C   0  0  0  0  0  3  0  0  0  0  0  0
  182.8220  179.0640  143.5710 C   0  0  0  0  0  2  0  0  0  0  0  0
  182.3470  178.1350  141.3230 C   0  0  0  0  0  3  0  0  0  0  0  0
  189.7540  177.6800  138.8790 C   0  0  0  0  0  2  0  0  0  0  0  0
  189.7560  176.2090  138.5070 C   0  0  0  0  0  1  0  0  0  0  0  0
  186.3050  177.8380  144.7730 C   0  0  0  0  0  2  0  0  0  0  0  0
  186.7030  178.3660  146.1410 C   0  0  0  0  0  2  0  0  0  0  0  0
  187.6240  177.4380  146.7810 N   0  0  0  0  0  2  0  0  0  0  0  0
  191.1300  176.3690  146.8030 C   0  0  0  0  0  2  0  0  0  0  0  0
  189.0120  177.3640  146.4470 C   0  0  0  0  0  0  0  0  0  0  0  0
  189.8060  176.4700  147.0940 N   0  0  0  0  0  0  0  0  0  0  0  0
  189.5650  178.1940  145.4650 C   0  0  0  0  0  2  0  0  0  0  0  0
  190.9240  178.0760  145.1830 C   0  0  0  0  0  3  0  0  0  0  0  0
  191.6810  177.1690  145.8530 N   0  0  0  0  0  0  0  0  0  0  0  0
  190.3360  177.6930  141.6610 O   0  0  0  0  0  0  0  0  0  0  0  0
  190.7800  176.3900  142.0110 C   0  0  0  0  0  2  0  0  0  0  0  0
  189.7750  175.7410  142.8340 N   0  0  0  0  0  1  0  0  0  0  0  0
  2  6  2  0  0  0  0
  2 11  1  0  0  0  0
  4  1  1  0  0  0  0
  5  4  1  6  0  0  0
  5  9  1  0  0  0  0
  6 14  1  0  0  0  0
  7  2  1  0  0  0  0
  8 15  2  0  0  0  0
  9  3  1  0  0  0  0
  9 20  1  1  0  0  0
 10  8  1  6  0  0  0
 10 11  1  0  0  0  0
 10 12  1  0  0  0  0
 11  4  2  0  0  0  0
 12 13  1  1  0  0  0
 12  5  1  0  0  0  0
 13 16  1  0  0  0  0
 14 29  1  0  0  0  0
 14  1  2  0  0  0  0
 15 17  1  0  0  0  0
 16  3  1  0  0  0  0
 17 13  2  0  0  0  0
 18  6  1  0  0  0  0
 19 18  1  0  0  0  0
 20 21  1  0  0  0  0
 21 22  1  0  0  0  0
 23 25  1  0  0  0  0
 24 22  1  0  0  0  0
 24 25  2  0  0  0  0
 26 24  1  0  0  0  0
 27 26  1  0  0  0  0
 27 28  2  0  0  0  0
 28 23  1  0  0  0  0
 29 30  1  0  0  0  0
 30 31  1  0  0  0  0
M  END
>  <MODEL>
9

>  <REMARK>
 VINA RESULT:      -8.5      3.184      6.622
  Name = 
  6 active torsions:
  status: ('A' for Active; 'I' for Inactive)
    1  A    between atoms: N_2  and  C_27
    2  A    between atoms: C_3  and  C_13
    3  A    between atoms: C_6  and  O_30
    4  A    between atoms: C_16  and  C_25
    5  A    between atoms: C_24  and  O_30
    6  A    between atoms: C_25  and  C_27
                            x       y       z     vdW  Elec       q    Type
                         _______ _______ _______ _____ _____    ______ ____

>  <TORSDO>
F 6

$$$$
