=
 OpenBabel10222418043D

 35 37  0  0  0  0  0  0  0  0999 V2000
  188.8190  178.1570  139.4970 C   0  0  0  0  0  2  0  0  0  0  0  0
  189.5250  177.2080  138.6310 N   0  0  0  0  0  0  0  0  0  0  0  0
  188.7220  177.6400  140.9130 C   0  0  0  0  0  0  0  0  0  0  0  0
  190.7740  176.3600  140.4850 C   0  0  0  0  0  3  0  0  0  0  0  0
  190.6970  176.5510  139.1640 C   0  0  0  0  0  0  0  0  0  0  0  0
  189.7010  176.8280  141.3850 C   0  0  0  0  0  0  0  0  0  0  0  0
  193.9840  176.5390  137.3580 N   0  0  0  0  0  0  0  0  0  0  0  0
  192.9480  176.9310  138.1480 C   0  0  0  0  0  3  0  0  0  0  0  0
  193.9580  175.3580  136.6870 C   0  0  0  0  0  0  0  0  0  0  0  0
  191.7730  174.8970  137.5940 C   0  0  0  0  0  0  0  0  0  0  0  0
  191.8170  176.1160  138.2970 C   0  0  0  0  0  0  0  0  0  0  0  0
  195.3140  174.8930  135.6840 Cl  0  0  0  0  0  0  0  0  0  0  0  0
  190.6830  174.0930  137.6550 F   0  0  0  0  0  0  0  0  0  0  0  0
  192.8480  174.5190  136.7890 C   0  0  0  0  0  3  0  0  0  0  0  0
  188.0000  175.8770  137.2200 C   0  0  0  0  0  3  0  0  0  0  0  0
  187.8990  176.2240  134.8300 C   0  0  0  0  0  3  0  0  0  0  0  0
  189.4020  177.5510  136.1830 C   0  0  0  0  0  3  0  0  0  0  0  0
  187.4550  175.5380  135.9710 C   0  0  0  0  0  0  0  0  0  0  0  0
  188.9680  176.8860  137.3410 C   0  0  0  0  0  0  0  0  0  0  0  0
  188.8680  177.2240  134.9350 C   0  0  0  0  0  3  0  0  0  0  0  0
  185.8100  174.2100  134.5950 C   0  0  0  0  0  1  0  0  0  0  0  0
  186.0650  173.7140  137.0210 C   0  0  0  0  0  1  0  0  0  0  0  0
  186.4580  174.5040  135.8640 N   0  0  0  0  0  0  0  0  0  0  0  0
  187.7250  178.1890  142.9920 O   0  0  0  0  0  0  0  0  0  0  0  0
  187.5930  178.1400  141.7390 C   0  0  0  0  0  0  0  0  0  0  0  0
  186.3820  178.6070  141.1270 N   0  0  0  0  0  2  0  0  0  0  0  0
  184.2340  179.4860  141.1470 O   0  0  0  0  0  0  0  0  0  0  0  0
  185.2090  179.1900  143.2460 N   0  0  0  0  0  2  0  0  0  0  0  0
  185.2320  179.1090  141.8170 C   0  0  0  0  0  0  0  0  0  0  0  0
  184.0520  179.6680  143.9880 C   0  0  0  0  0  2  0  0  0  0  0  0
  183.9350  178.9220  145.3070 C   0  0  0  0  0  2  0  0  0  0  0  0
  185.3120  178.6490  145.8800 C   0  0  0  0  0  2  0  0  0  0  0  0
  185.4840  179.3570  147.0710 O   0  0  0  0  0  1  0  0  0  0  0  0
  189.8020  176.4170  142.8190 C   0  0  0  0  0  2  0  0  0  0  0  0
  191.2560  176.3830  143.2530 C   0  0  0  0  0  1  0  0  0  0  0  0
  1  3  1  0  0  0  0
  2  5  1  0  0  0  0
  2  1  1  0  0  0  0
  3  6  2  0  0  0  0
  3 25  1  0  0  0  0
  4  6  1  0  0  0  0
  5  4  2  0  0  0  0
  6 34  1  0  0  0  0
  7  8  1  0  0  0  0
  8 11  2  0  0  0  0
  9 14  1  0  0  0  0
  9  7  2  0  0  0  0
 10 13  1  0  0  0  0
 10 11  1  0  0  0  0
 11  5  1  0  0  0  0
 12  9  1  0  0  0  0
 14 10  2  0  0  0  0
 15 19  1  0  0  0  0
 16 20  2  0  0  0  0
 16 18  1  0  0  0  0
 17 19  2  0  0  0  0
 18 15  2  0  0  0  0
 19  2  1  0  0  0  0
 20 17  1  0  0  0  0
 21 23  1  0  0  0  0
 23 18  1  0  0  0  0
 23 22  1  0  0  0  0
 25 24  2  0  0  0  0
 26 25  1  0  0  0  0
 26 29  1  0  0  0  0
 27 29  2  0  0  0  0
 28 30  1  0  0  0  0
 29 28  1  0  0  0  0
 30 31  1  0  0  0  0
 31 32  1  0  0  0  0
 32 33  1  0  0  0  0
 34 35  1  0  0  0  0
M  END
>  <MODEL>
1

>  <REMARK>
 VINA RESULT:      -7.3      0.000      0.000
  Name = 
  8 active torsions:
  status: ('A' for Active; 'I' for Inactive)
    1  A    between atoms: C_2  and  C_34
    2  A    between atoms: N_8  and  C_28
    3  A    between atoms: C_11  and  C_14
    4  A    between atoms: C_12  and  C_32
    5  A    between atoms: C_16  and  C_29
    6  A    between atoms: C_23  and  N_27
    7  A    between atoms: N_30  and  C_31
    8  A    between atoms: C_31  and  C_32
                            x       y       z     vdW  Elec       q    Type
                         _______ _______ _______ _____ _____    ______ ____

>  <TORSDO>
F 8

$$$$
=
 OpenBabel10222418043D

 35 37  0  0  0  0  0  0  0  0999 V2000
  188.6980  178.1570  140.0850 C   0  0  0  0  0  2  0  0  0  0  0  0
  189.3770  177.3150  139.0970 N   0  0  0  0  0  0  0  0  0  0  0  0
  188.6610  177.4920  141.4410 C   0  0  0  0  0  0  0  0  0  0  0  0
  190.7040  176.2890  140.8000 C   0  0  0  0  0  3  0  0  0  0  0  0
  190.5740  176.6190  139.5120 C   0  0  0  0  0  0  0  0  0  0  0  0
  189.6640  176.6460  141.7850 C   0  0  0  0  0  0  0  0  0  0  0  0
  193.7980  176.8270  137.6070 N   0  0  0  0  0  0  0  0  0  0  0  0
  192.7910  177.1200  138.4720 C   0  0  0  0  0  3  0  0  0  0  0  0
  193.7460  175.7350  136.8000 C   0  0  0  0  0  0  0  0  0  0  0  0
  191.5910  175.1670  137.7180 C   0  0  0  0  0  0  0  0  0  0  0  0
  191.6620  176.2920  138.5600 C   0  0  0  0  0  0  0  0  0  0  0  0
  195.0660  175.3950  135.7020 Cl  0  0  0  0  0  0  0  0  0  0  0  0
  190.5010  174.3600  137.7190 F   0  0  0  0  0  0  0  0  0  0  0  0
  192.6370  174.8890  136.8370 C   0  0  0  0  0  3  0  0  0  0  0  0
  187.7950  176.1350  137.6160 C   0  0  0  0  0  3  0  0  0  0  0  0
  187.6110  176.7200  135.2770 C   0  0  0  0  0  3  0  0  0  0  0  0
  189.1690  177.9010  136.7010 C   0  0  0  0  0  3  0  0  0  0  0  0
  187.2030  175.9250  136.3590 C   0  0  0  0  0  0  0  0  0  0  0  0
  188.7720  177.1250  137.8010 C   0  0  0  0  0  0  0  0  0  0  0  0
  188.5890  177.7020  135.4460 C   0  0  0  0  0  3  0  0  0  0  0  0
  185.9940  173.8700  137.1830 C   0  0  0  0  0  1  0  0  0  0  0  0
  185.3450  174.8870  135.0060 C   0  0  0  0  0  1  0  0  0  0  0  0
  186.1970  174.9090  136.1850 N   0  0  0  0  0  0  0  0  0  0  0  0
  186.5870  178.5430  141.8970 O   0  0  0  0  0  0  0  0  0  0  0  0
  187.5610  177.8880  142.3570 C   0  0  0  0  0  0  0  0  0  0  0  0
  187.5750  177.4990  143.7380 N   0  0  0  0  0  2  0  0  0  0  0  0
  186.7190  177.4090  145.8930 O   0  0  0  0  0  0  0  0  0  0  0  0
  185.4240  178.5940  144.3550 N   0  0  0  0  0  2  0  0  0  0  0  0
  186.5750  177.8200  144.7110 C   0  0  0  0  0  0  0  0  0  0  0  0
  184.3990  178.9660  145.3180 C   0  0  0  0  0  2  0  0  0  0  0  0
  183.0310  178.9520  144.6550 C   0  0  0  0  0  2  0  0  0  0  0  0
  183.1800  178.8810  143.1470 C   0  0  0  0  0  2  0  0  0  0  0  0
  181.9230  178.9150  142.5410 O   0  0  0  0  0  1  0  0  0  0  0  0
  189.8250  176.0860  143.1620 C   0  0  0  0  0  2  0  0  0  0  0  0
  191.2320  176.3380  143.6700 C   0  0  0  0  0  1  0  0  0  0  0  0
  1  3  1  0  0  0  0
  2  5  1  0  0  0  0
  2  1  1  0  0  0  0
  3  6  2  0  0  0  0
  3 25  1  0  0  0  0
  4  6  1  0  0  0  0
  5  4  2  0  0  0  0
  6 34  1  0  0  0  0
  7  8  1  0  0  0  0
  8 11  2  0  0  0  0
  9 14  1  0  0  0  0
  9  7  2  0  0  0  0
 10 13  1  0  0  0  0
 10 11  1  0  0  0  0
 11  5  1  0  0  0  0
 12  9  1  0  0  0  0
 14 10  2  0  0  0  0
 15 19  1  0  0  0  0
 16 20  2  0  0  0  0
 16 18  1  0  0  0  0
 17 19  2  0  0  0  0
 18 15  2  0  0  0  0
 19  2  1  0  0  0  0
 20 17  1  0  0  0  0
 22 23  1  0  0  0  0
 23 18  1  0  0  0  0
 23 21  1  0  0  0  0
 24 25  2  0  0  0  0
 25 26  1  0  0  0  0
 26 29  1  0  0  0  0
 28 29  1  0  0  0  0
 28 30  1  0  0  0  0
 29 27  2  0  0  0  0
 31 30  1  0  0  0  0
 32 31  1  0  0  0  0
 33 32  1  0  0  0  0
 34 35  1  0  0  0  0
M  END
>  <MODEL>
2

>  <REMARK>
 VINA RESULT:      -7.1      1.124      1.904
  Name = 
  8 active torsions:
  status: ('A' for Active; 'I' for Inactive)
    1  A    between atoms: C_2  and  C_34
    2  A    between atoms: N_8  and  C_28
    3  A    between atoms: C_11  and  C_14
    4  A    between atoms: C_12  and  C_32
    5  A    between atoms: C_16  and  C_29
    6  A    between atoms: C_23  and  N_27
    7  A    between atoms: N_30  and  C_31
    8  A    between atoms: C_31  and  C_32
                            x       y       z     vdW  Elec       q    Type
                         _______ _______ _______ _____ _____    ______ ____

>  <TORSDO>
F 8

$$$$
=
 OpenBabel10222418043D

 35 37  0  0  0  0  0  0  0  0999 V2000
  189.0360  176.4150  141.6610 C   0  0  0  0  0  2  0  0  0  0  0  0
  189.4310  176.7660  143.0270 N   0  0  0  0  0  0  0  0  0  0  0  0
  189.9290  177.0810  140.6420 C   0  0  0  0  0  0  0  0  0  0  0  0
  191.6980  177.0980  142.3460 C   0  0  0  0  0  3  0  0  0  0  0  0
  190.8430  176.8080  143.3310 C   0  0  0  0  0  0  0  0  0  0  0  0
  191.2190  177.3450  140.9720 C   0  0  0  0  0  0  0  0  0  0  0  0
  191.8560  177.2550  146.9140 N   0  0  0  0  0  0  0  0  0  0  0  0
  191.3850  177.5170  145.6660 C   0  0  0  0  0  3  0  0  0  0  0  0
  192.3240  176.0260  147.2550 C   0  0  0  0  0  0  0  0  0  0  0  0
  191.8610  175.2400  145.0230 C   0  0  0  0  0  0  0  0  0  0  0  0
  191.3640  176.5130  144.6870 C   0  0  0  0  0  0  0  0  0  0  0  0
  192.9190  175.7340  148.8740 Cl  0  0  0  0  0  0  0  0  0  0  0  0
  191.9180  174.2440  144.1040 F   0  0  0  0  0  0  0  0  0  0  0  0
  192.3400  174.9980  146.3120 C   0  0  0  0  0  3  0  0  0  0  0  0
  187.1560  177.5830  143.5230 C   0  0  0  0  0  3  0  0  0  0  0  0
  186.4430  177.9680  145.8010 C   0  0  0  0  0  3  0  0  0  0  0  0
  188.6790  177.1620  145.3530 C   0  0  0  0  0  3  0  0  0  0  0  0
  186.1590  177.9850  144.4270 C   0  0  0  0  0  0  0  0  0  0  0  0
  188.4160  177.1620  143.9730 C   0  0  0  0  0  0  0  0  0  0  0  0
  187.6960  177.5590  146.2620 C   0  0  0  0  0  3  0  0  0  0  0  0
  183.8690  178.9510  144.8580 C   0  0  0  0  0  1  0  0  0  0  0  0
  184.5160  178.3130  142.5410 C   0  0  0  0  0  1  0  0  0  0  0  0
  184.8680  178.4100  143.9500 N   0  0  0  0  0  0  0  0  0  0  0  0
  188.7770  178.4170  139.0590 O   0  0  0  0  0  0  0  0  0  0  0  0
  189.3540  177.3200  139.2930 C   0  0  0  0  0  0  0  0  0  0  0  0
  189.4870  176.3430  138.2510 N   0  0  0  0  0  2  0  0  0  0  0  0
  189.1690  175.5200  136.1040 O   0  0  0  0  0  0  0  0  0  0  0  0
  188.2610  177.6320  136.5060 N   0  0  0  0  0  2  0  0  0  0  0  0
  188.9770  176.4620  136.9180 C   0  0  0  0  0  0  0  0  0  0  0  0
  187.7030  177.7820  135.1710 C   0  0  0  0  0  2  0  0  0  0  0  0
  186.2610  177.3010  135.1530 C   0  0  0  0  0  2  0  0  0  0  0  0
  185.6390  177.4540  136.5270 C   0  0  0  0  0  2  0  0  0  0  0  0
  185.1760  176.2180  136.9830 O   0  0  0  0  0  1  0  0  0  0  0  0
  192.2340  177.8240  139.9830 C   0  0  0  0  0  2  0  0  0  0  0  0
  193.5180  177.0290  140.1240 C   0  0  0  0  0  1  0  0  0  0  0  0
  1  2  1  0  0  0  0
  2  5  1  0  0  0  0
  2 19  1  0  0  0  0
  3  6  2  0  0  0  0
  3  1  1  0  0  0  0
  4  5  2  0  0  0  0
  5 11  1  0  0  0  0
  6  4  1  0  0  0  0
  7  9  1  0  0  0  0
  8  7  2  0  0  0  0
  9 12  1  0  0  0  0
 10 14  1  0  0  0  0
 11 10  2  0  0  0  0
 11  8  1  0  0  0  0
 13 10  1  0  0  0  0
 14  9  2  0  0  0  0
 15 19  2  0  0  0  0
 15 18  1  0  0  0  0
 16 20  1  0  0  0  0
 17 20  2  0  0  0  0
 18 16  2  0  0  0  0
 19 17  1  0  0  0  0
 22 23  1  0  0  0  0
 23 18  1  0  0  0  0
 23 21  1  0  0  0  0
 24 25  2  0  0  0  0
 25  3  1  0  0  0  0
 26 25  1  0  0  0  0
 27 29  2  0  0  0  0
 28 29  1  0  0  0  0
 29 26  1  0  0  0  0
 30 28  1  0  0  0  0
 31 30  1  0  0  0  0
 31 32  1  0  0  0  0
 32 33  1  0  0  0  0
 34 35  1  0  0  0  0
 34  6  1  0  0  0  0
M  END
>  <MODEL>
3

>  <REMARK>
 VINA RESULT:      -6.9      3.828      7.868
  Name = 
  8 active torsions:
  status: ('A' for Active; 'I' for Inactive)
    1  A    between atoms: C_2  and  C_34
    2  A    between atoms: N_8  and  C_28
    3  A    between atoms: C_11  and  C_14
    4  A    between atoms: C_12  and  C_32
    5  A    between atoms: C_16  and  C_29
    6  A    between atoms: C_23  and  N_27
    7  A    between atoms: N_30  and  C_31
    8  A    between atoms: C_31  and  C_32
                            x       y       z     vdW  Elec       q    Type
                         _______ _______ _______ _____ _____    ______ ____

>  <TORSDO>
F 8

$$$$
=
 OpenBabel10222418043D

 35 37  0  0  0  0  0  0  0  0999 V2000
  191.5740  177.7770  140.1710 C   0  0  0  0  0  2  0  0  0  0  0  0
  190.5390  177.6250  141.1960 N   0  0  0  0  0  0  0  0  0  0  0  0
  191.4660  176.7010  139.1160 C   0  0  0  0  0  0  0  0  0  0  0  0
  189.0680  176.5710  139.6350 C   0  0  0  0  0  3  0  0  0  0  0  0
  189.2060  177.2740  140.7630 C   0  0  0  0  0  0  0  0  0  0  0  0
  190.2450  176.1800  138.8340 C   0  0  0  0  0  0  0  0  0  0  0  0
  186.1300  179.1800  141.7460 N   0  0  0  0  0  0  0  0  0  0  0  0
  187.2410  178.7880  141.0680 C   0  0  0  0  0  3  0  0  0  0  0  0
  185.7190  178.5370  142.8710 C   0  0  0  0  0  0  0  0  0  0  0  0
  187.5920  177.0310  142.6850 C   0  0  0  0  0  0  0  0  0  0  0  0
  187.9990  177.6950  141.5130 C   0  0  0  0  0  0  0  0  0  0  0  0
  184.2810  179.0740  143.7090 Cl  0  0  0  0  0  0  0  0  0  0  0  0
  188.3150  176.0020  143.1940 F   0  0  0  0  0  0  0  0  0  0  0  0
  186.4480  177.4540  143.3630 C   0  0  0  0  0  3  0  0  0  0  0  0
  191.2910  176.5680  143.2960 C   0  0  0  0  0  3  0  0  0  0  0  0
  191.5990  177.8770  145.3050 C   0  0  0  0  0  3  0  0  0  0  0  0
  190.8660  178.9470  143.2640 C   0  0  0  0  0  3  0  0  0  0  0  0
  191.6420  176.6340  144.6540 C   0  0  0  0  0  0  0  0  0  0  0  0
  190.9090  177.7170  142.5880 C   0  0  0  0  0  0  0  0  0  0  0  0
  191.2120  179.0270  144.6140 C   0  0  0  0  0  3  0  0  0  0  0  0
  192.2510  174.1860  144.6710 C   0  0  0  0  0  1  0  0  0  0  0  0
  192.2390  175.4640  146.8070 C   0  0  0  0  0  1  0  0  0  0  0  0
  192.0370  175.4460  145.3660 N   0  0  0  0  0  0  0  0  0  0  0  0
  193.8190  176.7140  138.8470 O   0  0  0  0  0  0  0  0  0  0  0  0
  192.7070  176.3490  138.3800 C   0  0  0  0  0  0  0  0  0  0  0  0
  192.6550  175.5670  137.1780 N   0  0  0  0  0  2  0  0  0  0  0  0
  193.5840  174.4790  135.3510 O   0  0  0  0  0  0  0  0  0  0  0  0
  195.1110  175.5380  136.7620 N   0  0  0  0  0  2  0  0  0  0  0  0
  193.7800  175.1680  136.3870 C   0  0  0  0  0  0  0  0  0  0  0  0
  196.2790  175.1770  135.9730 C   0  0  0  0  0  2  0  0  0  0  0  0
  196.9110  176.4250  135.3770 C   0  0  0  0  0  2  0  0  0  0  0  0
  195.8520  177.2820  134.7100 C   0  0  0  0  0  2  0  0  0  0  0  0
  195.8130  178.5440  135.3070 O   0  0  0  0  0  1  0  0  0  0  0  0
  189.9970  175.2550  137.6850 C   0  0  0  0  0  2  0  0  0  0  0  0
  188.9720  175.8540  136.7410 C   0  0  0  0  0  1  0  0  0  0  0  0
  1  2  1  0  0  0  0
  2 19  1  0  0  0  0
  3  1  1  0  0  0  0
  4  5  2  0  0  0  0
  5  2  1  0  0  0  0
  5 11  1  0  0  0  0
  6  3  2  0  0  0  0
  6  4  1  0  0  0  0
  7  9  1  0  0  0  0
  8 11  1  0  0  0  0
  8  7  2  0  0  0  0
  9 14  2  0  0  0  0
  9 12  1  0  0  0  0
 10 13  1  0  0  0  0
 10 14  1  0  0  0  0
 11 10  2  0  0  0  0
 15 18  1  0  0  0  0
 17 20  2  0  0  0  0
 18 16  2  0  0  0  0
 18 23  1  0  0  0  0
 19 17  1  0  0  0  0
 19 15  2  0  0  0  0
 20 16  1  0  0  0  0
 21 23  1  0  0  0  0
 23 22  1  0  0  0  0
 25 24  2  0  0  0  0
 25  3  1  0  0  0  0
 26 25  1  0  0  0  0
 27 29  2  0  0  0  0
 29 28  1  0  0  0  0
 29 26  1  0  0  0  0
 30 28  1  0  0  0  0
 31 30  1  0  0  0  0
 32 33  1  0  0  0  0
 32 31  1  0  0  0  0
 34  6  1  0  0  0  0
 35 34  1  0  0  0  0
M  END
>  <MODEL>
4

>  <REMARK>
 VINA RESULT:      -6.8      4.469      9.575
  Name = 
  8 active torsions:
  status: ('A' for Active; 'I' for Inactive)
    1  A    between atoms: C_2  and  C_34
    2  A    between atoms: N_8  and  C_28
    3  A    between atoms: C_11  and  C_14
    4  A    between atoms: C_12  and  C_32
    5  A    between atoms: C_16  and  C_29
    6  A    between atoms: C_23  and  N_27
    7  A    between atoms: N_30  and  C_31
    8  A    between atoms: C_31  and  C_32
                            x       y       z     vdW  Elec       q    Type
                         _______ _______ _______ _____ _____    ______ ____

>  <TORSDO>
F 8

$$$$
=
 OpenBabel10222418043D

 35 37  0  0  0  0  0  0  0  0999 V2000
  191.4210  176.7100  137.7860 C   0  0  0  0  0  2  0  0  0  0  0  0
  189.9850  176.5640  138.0360 N   0  0  0  0  0  0  0  0  0  0  0  0
  192.0330  175.4100  137.3210 C   0  0  0  0  0  0  0  0  0  0  0  0
  189.8270  174.8030  136.4280 C   0  0  0  0  0  3  0  0  0  0  0  0
  189.2120  175.7830  137.0980 C   0  0  0  0  0  0  0  0  0  0  0  0
  191.2660  174.5370  136.6200 C   0  0  0  0  0  0  0  0  0  0  0  0
  185.4830  175.3900  137.0410 N   0  0  0  0  0  0  0  0  0  0  0  0
  186.8020  175.1460  137.2680 C   0  0  0  0  0  3  0  0  0  0  0  0
  185.0690  176.5100  136.3940 C   0  0  0  0  0  0  0  0  0  0  0  0
  187.3620  177.2130  136.1550 C   0  0  0  0  0  0  0  0  0  0  0  0
  187.7790  176.0560  136.8400 C   0  0  0  0  0  0  0  0  0  0  0  0
  183.3610  176.7840  136.1260 Cl  0  0  0  0  0  0  0  0  0  0  0  0
  188.2630  178.1030  135.6690 F   0  0  0  0  0  0  0  0  0  0  0  0
  186.0020  177.4390  135.9340 C   0  0  0  0  0  3  0  0  0  0  0  0
  189.9210  176.6940  140.5000 C   0  0  0  0  0  3  0  0  0  0  0  0
  188.3220  178.1150  141.6270 C   0  0  0  0  0  3  0  0  0  0  0  0
  188.3600  178.0160  139.2110 C   0  0  0  0  0  3  0  0  0  0  0  0
  189.3800  177.1960  141.6950 C   0  0  0  0  0  0  0  0  0  0  0  0
  189.4250  177.1020  139.2520 C   0  0  0  0  0  0  0  0  0  0  0  0
  187.8140  178.5220  140.3920 C   0  0  0  0  0  3  0  0  0  0  0  0
  190.7750  175.6120  143.0780 C   0  0  0  0  0  1  0  0  0  0  0  0
  189.5810  177.4900  144.1930 C   0  0  0  0  0  1  0  0  0  0  0  0
  189.9040  176.7720  142.9690 N   0  0  0  0  0  0  0  0  0  0  0  0
  194.2720  176.1790  137.4090 O   0  0  0  0  0  0  0  0  0  0  0  0
  193.4810  175.2130  137.5840 C   0  0  0  0  0  0  0  0  0  0  0  0
  193.9790  173.9590  138.0730 N   0  0  0  0  0  2  0  0  0  0  0  0
  195.6410  172.5040  138.7860 O   0  0  0  0  0  0  0  0  0  0  0  0
  196.3750  174.6330  138.1750 N   0  0  0  0  0  2  0  0  0  0  0  0
  195.3480  173.6530  138.3610 C   0  0  0  0  0  0  0  0  0  0  0  0
  197.7810  174.3570  138.4290 C   0  0  0  0  0  2  0  0  0  0  0  0
  198.3220  175.3230  139.4700 C   0  0  0  0  0  2  0  0  0  0  0  0
  197.4340  175.3220  140.6990 C   0  0  0  0  0  2  0  0  0  0  0  0
  196.9910  176.6180  140.9700 O   0  0  0  0  0  1  0  0  0  0  0  0
  191.8170  173.3170  135.9540 C   0  0  0  0  0  2  0  0  0  0  0  0
  190.7910  172.7310  135.0020 C   0  0  0  0  0  1  0  0  0  0  0  0
  1  2  1  0  0  0  0
  2 19  1  0  0  0  0
  3 25  1  0  0  0  0
  3  1  1  0  0  0  0
  4  6  1  0  0  0  0
  4  5  2  0  0  0  0
  5  2  1  0  0  0  0
  6  3  2  0  0  0  0
  7  8  1  0  0  0  0
  9  7  2  0  0  0  0
 10 11  1  0  0  0  0
 11  5  1  0  0  0  0
 11  8  2  0  0  0  0
 12  9  1  0  0  0  0
 13 10  1  0  0  0  0
 14 10  2  0  0  0  0
 14  9  1  0  0  0  0
 15 18  1  0  0  0  0
 16 18  2  0  0  0  0
 17 19  1  0  0  0  0
 17 20  2  0  0  0  0
 18 23  1  0  0  0  0
 19 15  2  0  0  0  0
 20 16  1  0  0  0  0
 23 21  1  0  0  0  0
 23 22  1  0  0  0  0
 24 25  2  0  0  0  0
 25 26  1  0  0  0  0
 26 29  1  0  0  0  0
 28 29  1  0  0  0  0
 28 30  1  0  0  0  0
 29 27  2  0  0  0  0
 30 31  1  0  0  0  0
 31 32  1  0  0  0  0
 32 33  1  0  0  0  0
 34  6  1  0  0  0  0
 35 34  1  0  0  0  0
M  END
>  <MODEL>
5

>  <REMARK>
 VINA RESULT:      -6.6      4.603      8.778
  Name = 
  8 active torsions:
  status: ('A' for Active; 'I' for Inactive)
    1  A    between atoms: C_2  and  C_34
    2  A    between atoms: N_8  and  C_28
    3  A    between atoms: C_11  and  C_14
    4  A    between atoms: C_12  and  C_32
    5  A    between atoms: C_16  and  C_29
    6  A    between atoms: C_23  and  N_27
    7  A    between atoms: N_30  and  C_31
    8  A    between atoms: C_31  and  C_32
                            x       y       z     vdW  Elec       q    Type
                         _______ _______ _______ _____ _____    ______ ____

>  <TORSDO>
F 8

$$$$
=
 OpenBabel10222418043D

 35 37  0  0  0  0  0  0  0  0999 V2000
  185.7790  178.8980  141.4940 C   0  0  0  0  0  2  0  0  0  0  0  0
  186.3930  178.2500  142.6550 N   0  0  0  0  0  0  0  0  0  0  0  0
  184.2920  178.6390  141.4420 C   0  0  0  0  0  0  0  0  0  0  0  0
  184.3480  178.3900  143.8850 C   0  0  0  0  0  3  0  0  0  0  0  0
  185.6810  178.3020  143.9120 C   0  0  0  0  0  0  0  0  0  0  0  0
  183.6160  178.4570  142.6050 C   0  0  0  0  0  0  0  0  0  0  0  0
  188.4350  178.1120  146.4500 N   0  0  0  0  0  0  0  0  0  0  0  0
  187.7770  178.1190  145.2600 C   0  0  0  0  0  3  0  0  0  0  0  0
  187.7750  178.2630  147.6280 C   0  0  0  0  0  0  0  0  0  0  0  0
  185.6900  178.4320  146.4300 C   0  0  0  0  0  0  0  0  0  0  0  0
  186.3860  178.2900  145.2150 C   0  0  0  0  0  0  0  0  0  0  0  0
  188.6630  178.2500  149.1360 Cl  0  0  0  0  0  0  0  0  0  0  0  0
  184.3390  178.5460  146.4540 F   0  0  0  0  0  0  0  0  0  0  0  0
  186.3890  178.4200  147.6390 C   0  0  0  0  0  3  0  0  0  0  0  0
  188.5170  177.8480  141.4660 C   0  0  0  0  0  3  0  0  0  0  0  0
  189.9690  176.0210  142.0990 C   0  0  0  0  0  3  0  0  0  0  0  0
  187.8970  176.3880  143.2900 C   0  0  0  0  0  3  0  0  0  0  0  0
  189.7020  177.1200  141.2680 C   0  0  0  0  0  0  0  0  0  0  0  0
  187.6110  177.4970  142.4780 C   0  0  0  0  0  0  0  0  0  0  0  0
  189.0710  175.6560  143.1040 C   0  0  0  0  0  3  0  0  0  0  0  0
  190.1570  177.8810  138.9060 C   0  0  0  0  0  1  0  0  0  0  0  0
  192.0620  177.5030  140.4640 C   0  0  0  0  0  1  0  0  0  0  0  0
  190.6260  177.4950  140.2290 N   0  0  0  0  0  0  0  0  0  0  0  0
  183.2340  179.8070  139.6730 O   0  0  0  0  0  0  0  0  0  0  0  0
  183.6420  178.6960  140.1080 C   0  0  0  0  0  0  0  0  0  0  0  0
  183.5160  177.5190  139.2970 N   0  0  0  0  0  2  0  0  0  0  0  0
  182.8700  176.3460  137.4020 O   0  0  0  0  0  0  0  0  0  0  0  0
  182.3630  178.6230  137.3840 N   0  0  0  0  0  2  0  0  0  0  0  0
  182.9110  177.4530  138.0000 C   0  0  0  0  0  0  0  0  0  0  0  0
  181.7160  178.5960  136.0810 C   0  0  0  0  0  2  0  0  0  0  0  0
  180.6550  179.6810  136.0040 C   0  0  0  0  0  2  0  0  0  0  0  0
  180.7900  180.6310  137.1780 C   0  0  0  0  0  2  0  0  0  0  0  0
  180.8420  181.9500  136.7220 O   0  0  0  0  0  1  0  0  0  0  0  0
  182.1240  178.3840  142.6800 C   0  0  0  0  0  2  0  0  0  0  0  0
  181.6350  178.9920  143.9810 C   0  0  0  0  0  1  0  0  0  0  0  0
  1  2  1  0  0  0  0
  2  5  1  0  0  0  0
  3  1  1  0  0  0  0
  3  6  2  0  0  0  0
  4  5  2  0  0  0  0
  5 11  1  0  0  0  0
  6 34  1  0  0  0  0
  6  4  1  0  0  0  0
  7  9  1  0  0  0  0
  8  7  2  0  0  0  0
  9 14  2  0  0  0  0
  9 12  1  0  0  0  0
 10 13  1  0  0  0  0
 10 14  1  0  0  0  0
 11  8  1  0  0  0  0
 11 10  2  0  0  0  0
 15 19  1  0  0  0  0
 16 20  2  0  0  0  0
 18 15  2  0  0  0  0
 18 16  1  0  0  0  0
 19  2  1  0  0  0  0
 19 17  2  0  0  0  0
 20 17  1  0  0  0  0
 21 23  1  0  0  0  0
 23 22  1  0  0  0  0
 23 18  1  0  0  0  0
 24 25  2  0  0  0  0
 25  3  1  0  0  0  0
 26 25  1  0  0  0  0
 27 29  2  0  0  0  0
 28 29  1  0  0  0  0
 29 26  1  0  0  0  0
 30 28  1  0  0  0  0
 31 30  1  0  0  0  0
 31 32  1  0  0  0  0
 33 32  1  0  0  0  0
 34 35  1  0  0  0  0
M  END
>  <MODEL>
6

>  <REMARK>
 VINA RESULT:      -6.4      4.666      8.413
  Name = 
  8 active torsions:
  status: ('A' for Active; 'I' for Inactive)
    1  A    between atoms: C_2  and  C_34
    2  A    between atoms: N_8  and  C_28
    3  A    between atoms: C_11  and  C_14
    4  A    between atoms: C_12  and  C_32
    5  A    between atoms: C_16  and  C_29
    6  A    between atoms: C_23  and  N_27
    7  A    between atoms: N_30  and  C_31
    8  A    between atoms: C_31  and  C_32
                            x       y       z     vdW  Elec       q    Type
                         _______ _______ _______ _____ _____    ______ ____

>  <TORSDO>
F 8

$$$$
=
 OpenBabel10222418043D

 35 37  0  0  0  0  0  0  0  0999 V2000
  186.8920  177.2700  142.0810 C   0  0  0  0  0  2  0  0  0  0  0  0
  186.2670  177.9940  140.9710 N   0  0  0  0  0  0  0  0  0  0  0  0
  186.7010  178.0000  143.3900 C   0  0  0  0  0  0  0  0  0  0  0  0
  184.6520  178.9650  142.4410 C   0  0  0  0  0  3  0  0  0  0  0  0
  184.9700  178.5880  141.1990 C   0  0  0  0  0  0  0  0  0  0  0  0
  185.5890  178.7590  143.5620 C   0  0  0  0  0  0  0  0  0  0  0  0
  182.9570  180.1710  138.4580 N   0  0  0  0  0  0  0  0  0  0  0  0
  183.8560  180.0020  139.4650 C   0  0  0  0  0  3  0  0  0  0  0  0
  182.1530  179.1560  138.0460 C   0  0  0  0  0  0  0  0  0  0  0  0
  183.1440  177.7080  139.6990 C   0  0  0  0  0  0  0  0  0  0  0  0
  183.9830  178.7620  140.1070 C   0  0  0  0  0  0  0  0  0  0  0  0
  181.0120  179.4180  136.7450 Cl  0  0  0  0  0  0  0  0  0  0  0  0
  183.1820  176.5020  140.3190 F   0  0  0  0  0  0  0  0  0  0  0  0
  182.2290  177.9080  138.6640 C   0  0  0  0  0  3  0  0  0  0  0  0
  186.4170  177.8830  138.5100 C   0  0  0  0  0  3  0  0  0  0  0  0
  188.4500  178.5060  137.3610 C   0  0  0  0  0  3  0  0  0  0  0  0
  188.3380  178.6320  139.7730 C   0  0  0  0  0  3  0  0  0  0  0  0
  187.1260  178.0450  137.3090 C   0  0  0  0  0  0  0  0  0  0  0  0
  187.0080  178.1800  139.7480 C   0  0  0  0  0  0  0  0  0  0  0  0
  189.0540  178.7970  138.5860 C   0  0  0  0  0  3  0  0  0  0  0  0
  187.1710  178.0340  134.7870 C   0  0  0  0  0  1  0  0  0  0  0  0
  185.1850  177.1280  135.9840 C   0  0  0  0  0  1  0  0  0  0  0  0
  186.5040  177.7410  136.0460 N   0  0  0  0  0  0  0  0  0  0  0  0
  187.3260  177.3330  145.5760 O   0  0  0  0  0  0  0  0  0  0  0  0
  187.7100  177.7570  144.4520 C   0  0  0  0  0  0  0  0  0  0  0  0
  189.1080  177.9560  144.2020 N   0  0  0  0  0  2  0  0  0  0  0  0
  191.3550  177.9700  144.7830 O   0  0  0  0  0  0  0  0  0  0  0  0
  189.8920  177.3120  146.4770 N   0  0  0  0  0  2  0  0  0  0  0  0
  190.1680  177.7540  145.1440 C   0  0  0  0  0  0  0  0  0  0  0  0
  190.9350  177.1220  147.4740 C   0  0  0  0  0  2  0  0  0  0  0  0
  191.5320  175.7310  147.3430 C   0  0  0  0  0  2  0  0  0  0  0  0
  192.8060  175.6280  148.1600 C   0  0  0  0  0  2  0  0  0  0  0  0
  192.9990  176.8000  148.8940 O   0  0  0  0  0  1  0  0  0  0  0  0
  185.2090  179.3660  144.8750 C   0  0  0  0  0  2  0  0  0  0  0  0
  183.7790  179.0020  145.2250 C   0  0  0  0  0  1  0  0  0  0  0  0
  1  3  1  0  0  0  0
  2  5  1  0  0  0  0
  2  1  1  0  0  0  0
  3  6  2  0  0  0  0
  3 25  1  0  0  0  0
  4  6  1  0  0  0  0
  5  4  2  0  0  0  0
  6 34  1  0  0  0  0
  7  8  1  0  0  0  0
  8 11  2  0  0  0  0
  9  7  2  0  0  0  0
  9 14  1  0  0  0  0
 10 11  1  0  0  0  0
 10 13  1  0  0  0  0
 11  5  1  0  0  0  0
 12  9  1  0  0  0  0
 14 10  2  0  0  0  0
 15 19  1  0  0  0  0
 16 20  2  0  0  0  0
 18 16  1  0  0  0  0
 18 15  2  0  0  0  0
 19 17  2  0  0  0  0
 19  2  1  0  0  0  0
 20 17  1  0  0  0  0
 21 23  1  0  0  0  0
 22 23  1  0  0  0  0
 23 18  1  0  0  0  0
 25 24  2  0  0  0  0
 26 25  1  0  0  0  0
 26 29  1  0  0  0  0
 27 29  2  0  0  0  0
 28 30  1  0  0  0  0
 29 28  1  0  0  0  0
 31 30  1  0  0  0  0
 31 32  1  0  0  0  0
 32 33  1  0  0  0  0
 34 35  1  0  0  0  0
M  END
>  <MODEL>
7

>  <REMARK>
 VINA RESULT:      -6.3      4.387      7.128
  Name = 
  8 active torsions:
  status: ('A' for Active; 'I' for Inactive)
    1  A    between atoms: C_2  and  C_34
    2  A    between atoms: N_8  and  C_28
    3  A    between atoms: C_11  and  C_14
    4  A    between atoms: C_12  and  C_32
    5  A    between atoms: C_16  and  C_29
    6  A    between atoms: C_23  and  N_27
    7  A    between atoms: N_30  and  C_31
    8  A    between atoms: C_31  and  C_32
                            x       y       z     vdW  Elec       q    Type
                         _______ _______ _______ _____ _____    ______ ____

>  <TORSDO>
F 8

$$$$
=
 OpenBabel10222418043D

 35 37  0  0  0  0  0  0  0  0999 V2000
  187.3690  178.6340  139.1390 C   0  0  0  0  0  2  0  0  0  0  0  0
  186.0420  178.4600  139.7360 N   0  0  0  0  0  0  0  0  0  0  0  0
  187.6090  177.6340  138.0330 C   0  0  0  0  0  0  0  0  0  0  0  0
  185.1780  177.5720  137.6920 C   0  0  0  0  0  3  0  0  0  0  0  0
  184.9330  178.1950  138.8490 C   0  0  0  0  0  0  0  0  0  0  0  0
  186.5510  177.1840  137.3130 C   0  0  0  0  0  0  0  0  0  0  0  0
  181.8460  180.3070  139.1300 N   0  0  0  0  0  0  0  0  0  0  0  0
  183.1150  179.9100  138.8420 C   0  0  0  0  0  3  0  0  0  0  0  0
  180.9640  179.4770  139.7450 C   0  0  0  0  0  0  0  0  0  0  0  0
  182.6490  177.7550  139.8240 C   0  0  0  0  0  0  0  0  0  0  0  0
  183.5500  178.6180  139.1720 C   0  0  0  0  0  0  0  0  0  0  0  0
  179.3410  180.0290  140.0940 Cl  0  0  0  0  0  0  0  0  0  0  0  0
  183.0290  176.5130  140.2170 F   0  0  0  0  0  0  0  0  0  0  0  0
  181.3530  178.1870  140.1090 C   0  0  0  0  0  3  0  0  0  0  0  0
  186.9180  177.8730  141.9670 C   0  0  0  0  0  3  0  0  0  0  0  0
  185.6620  178.3840  143.9690 C   0  0  0  0  0  3  0  0  0  0  0  0
  184.7740  178.9780  141.7990 C   0  0  0  0  0  3  0  0  0  0  0  0
  186.8060  177.8390  143.3670 C   0  0  0  0  0  0  0  0  0  0  0  0
  185.9140  178.4470  141.1730 C   0  0  0  0  0  0  0  0  0  0  0  0
  184.6500  178.9500  143.1890 C   0  0  0  0  0  3  0  0  0  0  0  0
  187.9320  177.5060  145.6000 C   0  0  0  0  0  1  0  0  0  0  0  0
  188.8540  176.3810  143.5790 C   0  0  0  0  0  1  0  0  0  0  0  0
  187.8480  177.2520  144.1700 N   0  0  0  0  0  0  0  0  0  0  0  0
  189.8050  178.1720  137.3240 O   0  0  0  0  0  0  0  0  0  0  0  0
  189.0210  177.2770  137.7400 C   0  0  0  0  0  0  0  0  0  0  0  0
  189.5080  175.9470  137.9670 N   0  0  0  0  0  2  0  0  0  0  0  0
  191.1300  174.2870  137.9680 O   0  0  0  0  0  0  0  0  0  0  0  0
  191.8430  176.3750  137.2100 N   0  0  0  0  0  2  0  0  0  0  0  0
  190.8430  175.4880  137.7220 C   0  0  0  0  0  0  0  0  0  0  0  0
  193.2020  175.9440  136.9210 C   0  0  0  0  0  2  0  0  0  0  0  0
  193.5490  176.2490  135.4730 C   0  0  0  0  0  2  0  0  0  0  0  0
  195.0310  176.5450  135.3400 C   0  0  0  0  0  2  0  0  0  0  0  0
  195.2850  177.8750  135.6800 O   0  0  0  0  0  1  0  0  0  0  0  0
  186.6950  176.3460  136.0840 C   0  0  0  0  0  2  0  0  0  0  0  0
  186.5070  177.1990  134.8430 C   0  0  0  0  0  1  0  0  0  0  0  0
  1  2  1  0  0  0  0
  2 19  1  0  0  0  0
  3  1  1  0  0  0  0
  4  5  2  0  0  0  0
  5 11  1  0  0  0  0
  5  2  1  0  0  0  0
  6  4  1  0  0  0  0
  6  3  2  0  0  0  0
  7  9  1  0  0  0  0
  8  7  2  0  0  0  0
  8 11  1  0  0  0  0
  9 12  1  0  0  0  0
  9 14  2  0  0  0  0
 10 14  1  0  0  0  0
 10 13  1  0  0  0  0
 11 10  2  0  0  0  0
 15 18  1  0  0  0  0
 17 20  2  0  0  0  0
 18 16  2  0  0  0  0
 18 23  1  0  0  0  0
 19 17  1  0  0  0  0
 19 15  2  0  0  0  0
 20 16  1  0  0  0  0
 22 23  1  0  0  0  0
 23 21  1  0  0  0  0
 24 25  2  0  0  0  0
 25 26  1  0  0  0  0
 25  3  1  0  0  0  0
 28 29  1  0  0  0  0
 29 26  1  0  0  0  0
 29 27  2  0  0  0  0
 30 28  1  0  0  0  0
 31 30  1  0  0  0  0
 32 31  1  0  0  0  0
 32 33  1  0  0  0  0
 34  6  1  0  0  0  0
 35 34  1  0  0  0  0
M  END
>  <MODEL>
8

>  <REMARK>
 VINA RESULT:      -6.3      4.663      9.514
  Name = 
  8 active torsions:
  status: ('A' for Active; 'I' for Inactive)
    1  A    between atoms: C_2  and  C_34
    2  A    between atoms: N_8  and  C_28
    3  A    between atoms: C_11  and  C_14
    4  A    between atoms: C_12  and  C_32
    5  A    between atoms: C_16  and  C_29
    6  A    between atoms: C_23  and  N_27
    7  A    between atoms: N_30  and  C_31
    8  A    between atoms: C_31  and  C_32
                            x       y       z     vdW  Elec       q    Type
                         _______ _______ _______ _____ _____    ______ ____

>  <TORSDO>
F 8

$$$$
=
 OpenBabel10222418043D

 35 37  0  0  0  0  0  0  0  0999 V2000
  184.2840  179.2650  141.8020 C   0  0  0  0  0  2  0  0  0  0  0  0
  183.2200  179.0370  140.8210 N   0  0  0  0  0  0  0  0  0  0  0  0
  185.5980  178.6870  141.3320 C   0  0  0  0  0  0  0  0  0  0  0  0
  184.8020  179.0030  139.0300 C   0  0  0  0  0  3  0  0  0  0  0  0
  183.5420  179.2120  139.4230 C   0  0  0  0  0  0  0  0  0  0  0  0
  185.8490  178.6270  140.0000 C   0  0  0  0  0  0  0  0  0  0  0  0
  181.0910  181.3510  137.5590 N   0  0  0  0  0  0  0  0  0  0  0  0
  182.0170  180.9460  138.4680 C   0  0  0  0  0  3  0  0  0  0  0  0
  180.6280  180.5140  136.5940 C   0  0  0  0  0  0  0  0  0  0  0  0
  182.0450  178.7600  137.4450 C   0  0  0  0  0  0  0  0  0  0  0  0
  182.5290  179.6410  138.4300 C   0  0  0  0  0  0  0  0  0  0  0  0
  179.4370  181.0800  135.4430 Cl  0  0  0  0  0  0  0  0  0  0  0  0
  182.4610  177.4700  137.3920 F   0  0  0  0  0  0  0  0  0  0  0  0
  181.0930  179.2010  136.5240 C   0  0  0  0  0  3  0  0  0  0  0  0
  181.3090  177.4920  140.5920 C   0  0  0  0  0  3  0  0  0  0  0  0
  179.4370  177.5960  142.1180 C   0  0  0  0  0  3  0  0  0  0  0  0
  181.2950  179.1230  142.3760 C   0  0  0  0  0  3  0  0  0  0  0  0
  180.0580  177.0060  141.0070 C   0  0  0  0  0  0  0  0  0  0  0  0
  181.9410  178.5440  141.2720 C   0  0  0  0  0  0  0  0  0  0  0  0
  180.0510  178.6500  142.7980 C   0  0  0  0  0  3  0  0  0  0  0  0
  179.1740  174.6440  140.9510 C   0  0  0  0  0  1  0  0  0  0  0  0
  179.0090  176.0660  138.9150 C   0  0  0  0  0  1  0  0  0  0  0  0
  179.4240  175.9220  140.3020 N   0  0  0  0  0  0  0  0  0  0  0  0
  187.8040  178.2490  142.0770 O   0  0  0  0  0  0  0  0  0  0  0  0
  186.5810  178.3070  142.3780 C   0  0  0  0  0  0  0  0  0  0  0  0
  186.1620  178.0500  143.7260 N   0  0  0  0  0  2  0  0  0  0  0  0
  186.5070  177.4820  145.9500 O   0  0  0  0  0  0  0  0  0  0  0  0
  188.4260  177.5310  144.6250 N   0  0  0  0  0  2  0  0  0  0  0  0
  187.0150  177.6780  144.8150 C   0  0  0  0  0  0  0  0  0  0  0  0
  189.3250  177.1270  145.6960 C   0  0  0  0  0  2  0  0  0  0  0  0
  190.7630  177.1470  145.2040 C   0  0  0  0  0  2  0  0  0  0  0  0
  191.6800  176.5230  146.2390 C   0  0  0  0  0  2  0  0  0  0  0  0
  191.0010  176.3690  147.4490 O   0  0  0  0  0  1  0  0  0  0  0  0
  187.1830  178.2530  139.4370 C   0  0  0  0  0  2  0  0  0  0  0  0
  187.0470  177.8780  137.9730 C   0  0  0  0  0  1  0  0  0  0  0  0
  2 19  1  0  0  0  0
  2  1  1  0  0  0  0
  3  1  1  0  0  0  0
  3 25  1  0  0  0  0
  4  5  2  0  0  0  0
  4  6  1  0  0  0  0
  5  2  1  0  0  0  0
  6  3  2  0  0  0  0
  7  8  1  0  0  0  0
  9  7  2  0  0  0  0
 10 11  1  0  0  0  0
 11  8  2  0  0  0  0
 11  5  1  0  0  0  0
 12  9  1  0  0  0  0
 13 10  1  0  0  0  0
 14  9  1  0  0  0  0
 14 10  2  0  0  0  0
 15 18  2  0  0  0  0
 15 19  1  0  0  0  0
 16 20  2  0  0  0  0
 17 20  1  0  0  0  0
 18 16  1  0  0  0  0
 19 17  2  0  0  0  0
 22 23  1  0  0  0  0
 23 21  1  0  0  0  0
 23 18  1  0  0  0  0
 24 25  2  0  0  0  0
 25 26  1  0  0  0  0
 26 29  1  0  0  0  0
 28 29  1  0  0  0  0
 28 30  1  0  0  0  0
 29 27  2  0  0  0  0
 31 30  1  0  0  0  0
 31 32  1  0  0  0  0
 32 33  1  0  0  0  0
 34  6  1  0  0  0  0
 35 34  1  0  0  0  0
M  END
>  <MODEL>
9

>  <REMARK>
 VINA RESULT:      -6.3      5.348      8.597
  Name = 
  8 active torsions:
  status: ('A' for Active; 'I' for Inactive)
    1  A    between atoms: C_2  and  C_34
    2  A    between atoms: N_8  and  C_28
    3  A    between atoms: C_11  and  C_14
    4  A    between atoms: C_12  and  C_32
    5  A    between atoms: C_16  and  C_29
    6  A    between atoms: C_23  and  N_27
    7  A    between atoms: N_30  and  C_31
    8  A    between atoms: C_31  and  C_32
                            x       y       z     vdW  Elec       q    Type
                         _______ _______ _______ _____ _____    ______ ____

>  <TORSDO>
F 8

$$$$
