=
 OpenBabel10222415113D

 34 35  0  0  1  0  0  0  0  0999 V2000
  190.4910  178.6730  143.9870 C   0  0  0  0  0  1  0  0  0  0  0  0
  189.4150  177.9700  143.1800 C   0  0  1  0  0  3  0  0  0  0  0  0
  189.0610  177.9680  140.6980 C   0  0  0  0  0  0  0  0  0  0  0  0
  191.0690  177.1000  139.6360 C   0  0  0  0  0  2  0  0  0  0  0  0
  191.5170  177.3160  141.3870 S   0  0  0  0  0  0  0  0  0  0  0  0
  189.6920  177.7040  139.3710 C   0  0  1  0  0  3  0  0  0  0  0  0
  189.8420  177.7710  141.7540 C   0  0  1  0  0  3  0  0  0  0  0  0
  187.7170  178.4470  140.8320 N   0  0  0  0  0  0  0  0  0  0  0  0
  187.0130  178.7040  139.8340 O   0  0  0  0  0  1  0  0  0  0  0  0
  188.8420  176.7240  138.5680 C   0  0  0  0  0  2  0  0  0  0  0  0
  188.7370  177.1300  137.1000 C   0  0  2  0  0  3  0  0  0  0  0  0
  189.0450  178.6080  136.9460 C   0  0  0  0  0  1  0  0  0  0  0  0
  187.3740  176.7770  136.4980 C   0  0  0  0  0  2  0  0  0  0  0  0
  186.7460  175.5340  137.1180 C   0  0  0  0  0  2  0  0  0  0  0  0
  187.2820  174.3360  136.4950 N   0  0  0  0  0  2  0  0  0  0  0  0
  187.5840  171.8960  136.3810 N   0  0  0  0  0  1  0  0  0  0  0  0
  186.9640  173.0290  136.9720 C   0  0  0  0  0  0  0  0  0  0  0  0
  186.1400  172.8710  137.9120 O   0  0  0  0  0  0  0  0  0  0  0  0
  189.0690  176.7020  143.8000 N   0  0  0  0  0  2  0  0  0  0  0  0
  187.6140  176.6440  143.8620 C   0  0  0  0  0  2  0  0  0  0  0  0
  187.0570  177.7220  144.7900 C   0  0  1  0  0  3  0  0  0  0  0  0
  183.1930  178.9990  143.6220 N   0  0  0  0  0  0  0  0  0  0  0  0
  185.6840  178.1510  144.3770 C   0  0  0  0  0  0  0  0  0  0  0  0
  184.0730  178.5520  142.6900 C   0  0  0  0  0  0  0  0  0  0  0  0
  185.3100  178.1390  143.0680 N   0  0  0  0  0  0  0  0  0  0  0  0
  183.5300  179.0370  144.9380 C   0  0  0  0  0  3  0  0  0  0  0  0
  184.7940  178.6170  145.3450 C   0  0  0  0  0  3  0  0  0  0  0  0
  183.7040  178.5320  141.3170 N   0  0  0  0  0  1  0  0  0  0  0  0
  187.1060  177.3100  146.2570 C   0  0  0  0  0  2  0  0  0  0  0  0
  187.8470  178.3530  147.0770 C   0  0  0  0  0  2  0  0  0  0  0  0
  188.7900  177.6600  148.0400 C   0  0  0  0  0  2  0  0  0  0  0  0
  189.6900  176.6910  147.2900 C   0  0  0  0  0  2  0  0  0  0  0  0
  191.0230  176.9010  147.6500 O   0  0  0  0  0  0  0  0  0  0  0  0
  191.7560  176.3500  146.6000 C   0  0  0  0  0  1  0  0  0  0  0  0
  2 19  1  0  0  0  0
  2  1  1  1  0  0  0
  3  8  2  0  0  0  0
  3  7  1  0  0  0  0
  4  5  1  0  0  0  0
  5  7  1  0  0  0  0
  6 10  1  6  0  0  0
  6  4  1  0  0  0  0
  6  3  1  0  0  0  0
  7  2  1  6  0  0  0
  9  8  1  0  0  0  0
 11 12  1  1  0  0  0
 11 10  1  0  0  0  0
 13 11  1  0  0  0  0
 13 14  1  0  0  0  0
 15 17  1  0  0  0  0
 15 14  1  0  0  0  0
 16 17  1  0  0  0  0
 17 18  2  0  0  0  0
 19 20  1  0  0  0  0
 21 20  1  6  0  0  0
 21 29  1  0  0  0  0
 22 26  1  0  0  0  0
 23 21  1  0  0  0  0
 23 27  1  0  0  0  0
 24 25  1  0  0  0  0
 24 22  2  0  0  0  0
 25 23  2  0  0  0  0
 26 27  2  0  0  0  0
 28 24  1  0  0  0  0
 29 30  1  0  0  0  0
 30 31  1  0  0  0  0
 32 33  1  0  0  0  0
 32 31  1  0  0  0  0
 34 33  1  0  0  0  0
M  END
>  <MODEL>
1

>  <REMARK>
 VINA RESULT:      -7.1      0.000      0.000
  Name = 
  16 active torsions:
  status: ('A' for Active; 'I' for Inactive)
    1  A    between atoms: C_1  and  C_9
    2  A    between atoms: C_1  and  C_21
    3  A    between atoms: C_2  and  C_3
    4  A    between atoms: C_2  and  N_4
    5  A    between atoms: C_3  and  C_29
    6  A    between atoms: C_6  and  C_15
    7  A    between atoms: C_6  and  C_29
    8  A    between atoms: C_7  and  N_12
    9  A    between atoms: O_8  and  C_27
   10  A    between atoms: C_9  and  C_31
   11  A    between atoms: C_13  and  C_21
   12  A    between atoms: C_21  and  C_32
   13  A    between atoms: C_23  and  C_25
   14  A    between atoms: C_23  and  N_33
   15  A    between atoms: C_27  and  C_31
   16  A    between atoms: C_32  and  N_33
                            x       y       z     vdW  Elec       q    Type
                         _______ _______ _______ _____ _____    ______ ____

>  <TORSDO>
F 16

$$$$
=
 OpenBabel10222415113D

 34 35  0  0  1  0  0  0  0  0999 V2000
  190.4100  178.6750  143.7230 C   0  0  0  0  0  1  0  0  0  0  0  0
  189.2910  177.9700  142.9780 C   0  0  1  0  0  3  0  0  0  0  0  0
  188.8130  178.1720  140.5250 C   0  0  0  0  0  0  0  0  0  0  0  0
  190.6400  177.1360  139.2990 C   0  0  0  0  0  2  0  0  0  0  0  0
  191.2000  177.1830  141.0300 S   0  0  0  0  0  0  0  0  0  0  0  0
  189.3380  177.9190  139.1510 C   0  0  1  0  0  3  0  0  0  0  0  0
  189.6150  177.8130  141.5210 C   0  0  0  0  0  0  0  0  0  0  0  0
  187.5480  178.8010  140.7650 N   0  0  0  0  0  2  0  0  0  0  0  0
  186.5760  178.6260  140.0020 O   0  0  0  0  0  1  0  0  0  0  0  0
  188.3320  177.1040  138.3430 C   0  0  0  0  0  2  0  0  0  0  0  0
  188.4770  177.3430  136.8420 C   0  0  2  0  0  3  0  0  0  0  0  0
  187.5270  178.4400  136.3970 C   0  0  0  0  0  1  0  0  0  0  0  0
  188.2730  176.0620  136.0290 C   0  0  0  0  0  2  0  0  0  0  0  0
  189.5010  175.6580  135.2220 C   0  0  0  0  0  2  0  0  0  0  0  0
  190.6730  175.6140  136.0810 N   0  0  0  0  0  2  0  0  0  0  0  0
  192.2380  174.4240  137.5610 N   0  0  0  0  0  1  0  0  0  0  0  0
  191.1400  174.3960  136.6590 C   0  0  0  0  0  0  0  0  0  0  0  0
  190.5880  173.2980  136.3800 O   0  0  0  0  0  0  0  0  0  0  0  0
  189.0120  176.6820  143.5890 N   0  0  0  0  0  2  0  0  0  0  0  0
  187.5690  176.6050  143.7770 C   0  0  0  0  0  2  0  0  0  0  0  0
  187.0780  177.6880  144.7350 C   0  0  1  0  0  3  0  0  0  0  0  0
  183.1600  178.9910  143.7980 N   0  0  0  0  0  0  0  0  0  0  0  0
  185.6850  178.1260  144.4050 C   0  0  0  0  0  0  0  0  0  0  0  0
  183.9570  178.4790  142.8260 C   0  0  0  0  0  0  0  0  0  0  0  0
  185.2120  178.0580  143.1300 N   0  0  0  0  0  0  0  0  0  0  0  0
  183.5970  179.0870  145.0800 C   0  0  0  0  0  3  0  0  0  0  0  0
  184.8800  178.6590  145.4120 C   0  0  0  0  0  3  0  0  0  0  0  0
  183.4850  178.4000  141.4880 N   0  0  0  0  0  1  0  0  0  0  0  0
  187.2120  177.2780  146.1980 C   0  0  0  0  0  2  0  0  0  0  0  0
  188.3080  178.0830  146.8750 C   0  0  0  0  0  2  0  0  0  0  0  0
  189.1570  177.1610  147.7270 C   0  0  0  0  0  2  0  0  0  0  0  0
  190.3860  176.7120  146.9530 C   0  0  0  0  0  2  0  0  0  0  0  0
  191.5380  176.9450  147.7080 O   0  0  0  0  0  0  0  0  0  0  0  0
  192.3230  175.8110  147.5010 C   0  0  0  0  0  1  0  0  0  0  0  0
  2 19  1  0  0  0  0
  2  1  1  1  0  0  0
  3  8  1  0  0  0  0
  3  7  2  0  0  0  0
  4  5  1  0  0  0  0
  5  7  1  0  0  0  0
  6 10  1  6  0  0  0
  6  4  1  0  0  0  0
  6  3  1  0  0  0  0
  7  2  1  0  0  0  0
  9  8  1  0  0  0  0
 11 12  1  6  0  0  0
 11 10  1  0  0  0  0
 13 11  1  0  0  0  0
 14 13  1  0  0  0  0
 14 15  1  0  0  0  0
 15 17  1  0  0  0  0
 17 16  1  0  0  0  0
 18 17  2  0  0  0  0
 19 20  1  0  0  0  0
 21 20  1  6  0  0  0
 21 29  1  0  0  0  0
 22 26  1  0  0  0  0
 23 21  1  0  0  0  0
 23 27  1  0  0  0  0
 24 25  1  0  0  0  0
 24 22  2  0  0  0  0
 25 23  2  0  0  0  0
 26 27  2  0  0  0  0
 28 24  1  0  0  0  0
 29 30  1  0  0  0  0
 30 31  1  0  0  0  0
 32 33  1  0  0  0  0
 32 31  1  0  0  0  0
 34 33  1  0  0  0  0
M  END
>  <MODEL>
2

>  <REMARK>
 VINA RESULT:      -7.0      1.634      1.761
  Name = 
  16 active torsions:
  status: ('A' for Active; 'I' for Inactive)
    1  A    between atoms: C_1  and  C_9
    2  A    between atoms: C_1  and  C_21
    3  A    between atoms: C_2  and  C_3
    4  A    between atoms: C_2  and  N_4
    5  A    between atoms: C_3  and  C_29
    6  A    between atoms: C_6  and  C_15
    7  A    between atoms: C_6  and  C_29
    8  A    between atoms: C_7  and  N_12
    9  A    between atoms: O_8  and  C_27
   10  A    between atoms: C_9  and  C_31
   11  A    between atoms: C_13  and  C_21
   12  A    between atoms: C_21  and  C_32
   13  A    between atoms: C_23  and  C_25
   14  A    between atoms: C_23  and  N_33
   15  A    between atoms: C_27  and  C_31
   16  A    between atoms: C_32  and  N_33
                            x       y       z     vdW  Elec       q    Type
                         _______ _______ _______ _____ _____    ______ ____

>  <TORSDO>
F 16

$$$$
=
 OpenBabel10222415113D

 34 35  0  0  1  0  0  0  0  0999 V2000
  190.6410  178.5410  143.5370 C   0  0  0  0  0  1  0  0  0  0  0  0
  189.6150  177.8070  142.6930 C   0  0  1  0  0  3  0  0  0  0  0  0
  189.3630  177.6020  140.2070 C   0  0  0  0  0  0  0  0  0  0  0  0
  191.5010  176.9200  139.2710 C   0  0  0  0  0  2  0  0  0  0  0  0
  191.8500  177.3020  141.0170 S   0  0  0  0  0  0  0  0  0  0  0  0
  190.0740  177.3330  138.9230 C   0  0  1  0  0  3  0  0  0  0  0  0
  190.1190  177.5700  141.2990 C   0  0  0  0  0  0  0  0  0  0  0  0
  187.9670  177.9210  140.2650 N   0  0  0  0  0  2  0  0  0  0  0  0
  187.5710  179.0710  140.5430 O   0  0  0  0  0  1  0  0  0  0  0  0
  189.3800  176.2070  138.1610 C   0  0  0  0  0  2  0  0  0  0  0  0
  188.8390  176.6780  136.8140 C   0  0  2  0  0  3  0  0  0  0  0  0
  189.6050  176.0140  135.6850 C   0  0  0  0  0  1  0  0  0  0  0  0
  188.8600  178.2040  136.6830 C   0  0  0  0  0  2  0  0  0  0  0  0
  187.4740  178.8130  136.5090 C   0  0  0  0  0  2  0  0  0  0  0  0
  186.4510  177.8050  136.7340 N   0  0  0  0  0  2  0  0  0  0  0  0
  184.4870  176.9320  137.9330 N   0  0  0  0  0  1  0  0  0  0  0  0
  185.4090  177.9860  137.6920 C   0  0  0  0  0  0  0  0  0  0  0  0
  185.3000  179.0690  138.3260 O   0  0  0  0  0  0  0  0  0  0  0  0
  189.2430  176.5550  143.3300 N   0  0  0  0  0  2  0  0  0  0  0  0
  187.7900  176.5470  143.4330 C   0  0  0  0  0  2  0  0  0  0  0  0
  187.2980  177.6350  144.3850 C   0  0  1  0  0  3  0  0  0  0  0  0
  183.3610  178.8970  143.4700 N   0  0  0  0  0  0  0  0  0  0  0  0
  185.8980  178.0590  144.0630 C   0  0  0  0  0  0  0  0  0  0  0  0
  184.1560  178.3880  142.4950 C   0  0  0  0  0  0  0  0  0  0  0  0
  185.4170  177.9790  142.7920 N   0  0  0  0  0  0  0  0  0  0  0  0
  183.8070  179.0030  144.7490 C   0  0  0  0  0  3  0  0  0  0  0  0
  185.0960  178.5890  145.0740 C   0  0  0  0  0  3  0  0  0  0  0  0
  183.6750  178.2980  141.1610 N   0  0  0  0  0  1  0  0  0  0  0  0
  187.4480  177.2400  145.8500 C   0  0  0  0  0  2  0  0  0  0  0  0
  188.5380  178.0640  146.5130 C   0  0  0  0  0  2  0  0  0  0  0  0
  188.9550  177.3990  147.8090 C   0  0  0  0  0  2  0  0  0  0  0  0
  190.2560  176.6380  147.6160 C   0  0  0  0  0  2  0  0  0  0  0  0
  190.7410  176.8390  146.3210 O   0  0  0  0  0  0  0  0  0  0  0  0
  191.9690  176.1790  146.3040 C   0  0  0  0  0  1  0  0  0  0  0  0
  2 19  1  0  0  0  0
  2  1  1  1  0  0  0
  3  8  1  0  0  0  0
  3  7  2  0  0  0  0
  4  5  1  0  0  0  0
  5  7  1  0  0  0  0
  6 10  1  1  0  0  0
  6  4  1  0  0  0  0
  6  3  1  0  0  0  0
  7  2  1  0  0  0  0
  8  9  1  0  0  0  0
 11 12  1  6  0  0  0
 11 10  1  0  0  0  0
 13 11  1  0  0  0  0
 14 13  1  0  0  0  0
 14 15  1  0  0  0  0
 15 17  1  0  0  0  0
 17 16  1  0  0  0  0
 17 18  2  0  0  0  0
 19 20  1  0  0  0  0
 21 20  1  6  0  0  0
 21 29  1  0  0  0  0
 22 26  1  0  0  0  0
 23 21  1  0  0  0  0
 23 27  1  0  0  0  0
 24 25  1  0  0  0  0
 24 22  2  0  0  0  0
 25 23  2  0  0  0  0
 26 27  2  0  0  0  0
 28 24  1  0  0  0  0
 29 30  1  0  0  0  0
 30 31  1  0  0  0  0
 32 31  1  0  0  0  0
 33 32  1  0  0  0  0
 34 33  1  0  0  0  0
M  END
>  <MODEL>
3

>  <REMARK>
 VINA RESULT:      -6.9      1.909      2.113
  Name = 
  16 active torsions:
  status: ('A' for Active; 'I' for Inactive)
    1  A    between atoms: C_1  and  C_9
    2  A    between atoms: C_1  and  C_21
    3  A    between atoms: C_2  and  C_3
    4  A    between atoms: C_2  and  N_4
    5  A    between atoms: C_3  and  C_29
    6  A    between atoms: C_6  and  C_15
    7  A    between atoms: C_6  and  C_29
    8  A    between atoms: C_7  and  N_12
    9  A    between atoms: O_8  and  C_27
   10  A    between atoms: C_9  and  C_31
   11  A    between atoms: C_13  and  C_21
   12  A    between atoms: C_21  and  C_32
   13  A    between atoms: C_23  and  C_25
   14  A    between atoms: C_23  and  N_33
   15  A    between atoms: C_27  and  C_31
   16  A    between atoms: C_32  and  N_33
                            x       y       z     vdW  Elec       q    Type
                         _______ _______ _______ _____ _____    ______ ____

>  <TORSDO>
F 16

$$$$
=
 OpenBabel10222415113D

 34 35  0  0  1  0  0  0  0  0999 V2000
  191.3120  177.2650  141.1120 C   0  0  0  0  0  1  0  0  0  0  0  0
  190.0480  177.6240  140.3520 C   0  0  1  0  0  3  0  0  0  0  0  0
  189.5310  177.8370  137.9080 C   0  0  0  0  0  0  0  0  0  0  0  0
  190.5280  175.9490  136.7440 C   0  0  0  0  0  2  0  0  0  0  0  0
  191.1790  175.8540  138.4420 S   0  0  0  0  0  0  0  0  0  0  0  0
  189.7570  177.2520  136.5530 C   0  0  1  0  0  3  0  0  0  0  0  0
  190.1390  177.2130  138.9110 C   0  0  0  0  0  0  0  0  0  0  0  0
  188.7490  179.0190  138.1180 N   0  0  0  0  0  2  0  0  0  0  0  0
  188.9010  180.0360  137.4110 O   0  0  0  0  0  1  0  0  0  0  0  0
  188.4220  176.9690  135.8710 C   0  0  0  0  0  2  0  0  0  0  0  0
  187.7890  175.6720  136.3700 C   0  0  2  0  0  3  0  0  0  0  0  0
  187.6190  174.6990  135.2180 C   0  0  0  0  0  1  0  0  0  0  0  0
  186.4630  175.9170  137.0960 C   0  0  0  0  0  2  0  0  0  0  0  0
  185.8910  177.3080  136.8520 C   0  0  0  0  0  2  0  0  0  0  0  0
  184.5810  177.4280  137.4690 N   0  0  0  0  0  2  0  0  0  0  0  0
  183.0390  178.3980  139.1240 N   0  0  0  0  0  1  0  0  0  0  0  0
  184.3130  178.3840  138.4940 C   0  0  0  0  0  0  0  0  0  0  0  0
  185.1940  179.2130  138.8470 O   0  0  0  0  0  0  0  0  0  0  0  0
  188.8890  177.0240  140.9910 N   0  0  0  0  0  2  0  0  0  0  0  0
  188.0750  178.1160  141.5060 C   0  0  0  0  0  2  0  0  0  0  0  0
  187.7610  177.9200  142.9870 C   0  0  1  0  0  3  0  0  0  0  0  0
  183.6810  178.6670  143.8390 N   0  0  0  0  0  0  0  0  0  0  0  0
  186.3230  178.2080  143.2900 C   0  0  0  0  0  0  0  0  0  0  0  0
  184.5900  178.6260  144.8460 C   0  0  0  0  0  0  0  0  0  0  0  0
  185.8990  178.3910  144.5700 N   0  0  0  0  0  0  0  0  0  0  0  0
  184.0610  178.4790  142.5480 C   0  0  0  0  0  3  0  0  0  0  0  0
  185.3990  178.2380  142.2450 C   0  0  0  0  0  3  0  0  0  0  0  0
  184.1690  178.8130  146.1910 N   0  0  0  0  0  1  0  0  0  0  0  0
  188.1850  176.5480  143.4980 C   0  0  0  0  0  2  0  0  0  0  0  0
  189.4750  176.6530  144.2930 C   0  0  0  0  0  2  0  0  0  0  0  0
  189.3420  177.7550  145.3240 C   0  0  0  0  0  2  0  0  0  0  0  0
  188.7940  177.1950  146.6270 C   0  0  0  0  0  2  0  0  0  0  0  0
  189.4310  177.7990  147.7130 O   0  0  0  0  0  0  0  0  0  0  0  0
  188.4000  178.0770  148.6090 C   0  0  0  0  0  1  0  0  0  0  0  0
  2 19  1  0  0  0  0
  2  1  1  1  0  0  0
  3  8  1  0  0  0  0
  3  7  2  0  0  0  0
  4  5  1  0  0  0  0
  5  7  1  0  0  0  0
  6 10  1  1  0  0  0
  6  4  1  0  0  0  0
  6  3  1  0  0  0  0
  7  2  1  0  0  0  0
  9  8  1  0  0  0  0
 10 11  1  0  0  0  0
 11 12  1  6  0  0  0
 11 13  1  0  0  0  0
 14 13  1  0  0  0  0
 14 15  1  0  0  0  0
 15 17  1  0  0  0  0
 17 18  2  0  0  0  0
 17 16  1  0  0  0  0
 19 20  1  0  0  0  0
 21 20  1  6  0  0  0
 21 23  1  0  0  0  0
 21 29  1  0  0  0  0
 22 24  2  0  0  0  0
 23 25  2  0  0  0  0
 24 28  1  0  0  0  0
 25 24  1  0  0  0  0
 26 22  1  0  0  0  0
 27 26  2  0  0  0  0
 27 23  1  0  0  0  0
 29 30  1  0  0  0  0
 30 31  1  0  0  0  0
 31 32  1  0  0  0  0
 32 33  1  0  0  0  0
 33 34  1  0  0  0  0
M  END
>  <MODEL>
4

>  <REMARK>
 VINA RESULT:      -6.8      2.352      3.488
  Name = 
  16 active torsions:
  status: ('A' for Active; 'I' for Inactive)
    1  A    between atoms: C_1  and  C_9
    2  A    between atoms: C_1  and  C_21
    3  A    between atoms: C_2  and  C_3
    4  A    between atoms: C_2  and  N_4
    5  A    between atoms: C_3  and  C_29
    6  A    between atoms: C_6  and  C_15
    7  A    between atoms: C_6  and  C_29
    8  A    between atoms: C_7  and  N_12
    9  A    between atoms: O_8  and  C_27
   10  A    between atoms: C_9  and  C_31
   11  A    between atoms: C_13  and  C_21
   12  A    between atoms: C_21  and  C_32
   13  A    between atoms: C_23  and  C_25
   14  A    between atoms: C_23  and  N_33
   15  A    between atoms: C_27  and  C_31
   16  A    between atoms: C_32  and  N_33
                            x       y       z     vdW  Elec       q    Type
                         _______ _______ _______ _____ _____    ______ ____

>  <TORSDO>
F 16

$$$$
=
 OpenBabel10222415113D

 34 35  0  0  1  0  0  0  0  0999 V2000
  191.3910  177.3910  141.3700 C   0  0  0  0  0  1  0  0  0  0  0  0
  190.1160  177.6870  140.6020 C   0  0  1  0  0  3  0  0  0  0  0  0
  189.5750  177.7760  138.1550 C   0  0  0  0  0  0  0  0  0  0  0  0
  190.6240  175.8710  137.0670 C   0  0  0  0  0  2  0  0  0  0  0  0
  191.2890  175.8710  138.7620 S   0  0  0  0  0  0  0  0  0  0  0  0
  189.8110  177.1400  136.8260 C   0  0  1  0  0  3  0  0  0  0  0  0
  190.2100  177.2160  139.1790 C   0  0  0  0  0  0  0  0  0  0  0  0
  188.7590  178.9420  138.3200 N   0  0  0  0  0  2  0  0  0  0  0  0
  188.7790  179.8750  137.4920 O   0  0  0  0  0  1  0  0  0  0  0  0
  188.4810  176.7860  136.1670 C   0  0  0  0  0  2  0  0  0  0  0  0
  187.6590  175.8240  137.0220 C   0  0  2  0  0  3  0  0  0  0  0  0
  187.9390  174.3910  136.6070 C   0  0  0  0  0  1  0  0  0  0  0  0
  186.1620  176.1390  136.9700 C   0  0  0  0  0  2  0  0  0  0  0  0
  185.8590  177.6320  137.0170 C   0  0  0  0  0  2  0  0  0  0  0  0
  184.6440  177.8740  137.7780 N   0  0  0  0  0  2  0  0  0  0  0  0
  183.4620  178.6410  139.7950 N   0  0  0  0  0  1  0  0  0  0  0  0
  184.6680  178.5080  139.0570 C   0  0  0  0  0  0  0  0  0  0  0  0
  185.7460  178.9490  139.5360 O   0  0  0  0  0  0  0  0  0  0  0  0
  188.9740  177.0890  141.2720 N   0  0  0  0  0  2  0  0  0  0  0  0
  188.7970  177.8030  142.5290 C   0  0  0  0  0  2  0  0  0  0  0  0
  188.1440  176.9130  143.5840 C   0  0  1  0  0  3  0  0  0  0  0  0
  189.9610  177.3090  147.3880 N   0  0  0  0  0  0  0  0  0  0  0  0
  188.7950  177.0740  144.9230 C   0  0  0  0  0  0  0  0  0  0  0  0
  190.6950  176.8960  146.3230 C   0  0  0  0  0  0  0  0  0  0  0  0
  190.1110  176.7740  145.1030 N   0  0  0  0  0  0  0  0  0  0  0  0
  188.6430  177.6080  147.2530 C   0  0  0  0  0  3  0  0  0  0  0  0
  188.0260  177.4900  146.0100 C   0  0  0  0  0  3  0  0  0  0  0  0
  192.0700  176.5760  146.4890 N   0  0  0  0  0  1  0  0  0  0  0  0
  186.6340  177.1080  143.6600 C   0  0  0  0  0  2  0  0  0  0  0  0
  186.2140  178.3150  142.8390 C   0  0  0  0  0  2  0  0  0  0  0  0
  184.8830  178.8320  143.3480 C   0  0  0  0  0  2  0  0  0  0  0  0
  184.9800  179.1670  144.8280 C   0  0  0  0  0  2  0  0  0  0  0  0
  183.7070  179.1700  145.4020 O   0  0  0  0  0  0  0  0  0  0  0  0
  182.8540  178.8190  144.3570 C   0  0  0  0  0  1  0  0  0  0  0  0
  2 19  1  0  0  0  0
  2  1  1  1  0  0  0
  3  8  1  0  0  0  0
  3  7  2  0  0  0  0
  4  5  1  0  0  0  0
  5  7  1  0  0  0  0
  6 10  1  1  0  0  0
  6  4  1  0  0  0  0
  6  3  1  0  0  0  0
  7  2  1  0  0  0  0
  9  8  1  0  0  0  0
 10 11  1  0  0  0  0
 11 12  1  6  0  0  0
 13 14  1  0  0  0  0
 13 11  1  0  0  0  0
 14 15  1  0  0  0  0
 15 17  1  0  0  0  0
 17 18  2  0  0  0  0
 17 16  1  0  0  0  0
 19 20  1  0  0  0  0
 21 20  1  6  0  0  0
 21 29  1  0  0  0  0
 21 23  1  0  0  0  0
 23 25  2  0  0  0  0
 23 27  1  0  0  0  0
 24 28  1  0  0  0  0
 24 22  2  0  0  0  0
 25 24  1  0  0  0  0
 26 22  1  0  0  0  0
 27 26  2  0  0  0  0
 30 31  1  0  0  0  0
 30 29  1  0  0  0  0
 31 32  1  0  0  0  0
 32 33  1  0  0  0  0
 34 33  1  0  0  0  0
M  END
>  <MODEL>
5

>  <REMARK>
 VINA RESULT:      -6.6      2.731      5.030
  Name = 
  16 active torsions:
  status: ('A' for Active; 'I' for Inactive)
    1  A    between atoms: C_1  and  C_9
    2  A    between atoms: C_1  and  C_21
    3  A    between atoms: C_2  and  C_3
    4  A    between atoms: C_2  and  N_4
    5  A    between atoms: C_3  and  C_29
    6  A    between atoms: C_6  and  C_15
    7  A    between atoms: C_6  and  C_29
    8  A    between atoms: C_7  and  N_12
    9  A    between atoms: O_8  and  C_27
   10  A    between atoms: C_9  and  C_31
   11  A    between atoms: C_13  and  C_21
   12  A    between atoms: C_21  and  C_32
   13  A    between atoms: C_23  and  C_25
   14  A    between atoms: C_23  and  N_33
   15  A    between atoms: C_27  and  C_31
   16  A    between atoms: C_32  and  N_33
                            x       y       z     vdW  Elec       q    Type
                         _______ _______ _______ _____ _____    ______ ____

>  <TORSDO>
F 16

$$$$
=
 OpenBabel10222415113D

 34 35  0  0  1  0  0  0  0  0999 V2000
  183.3980  178.7270  143.6160 C   0  0  0  0  0  1  0  0  0  0  0  0
  184.7660  179.2910  143.2810 C   0  0  1  0  0  3  0  0  0  0  0  0
  186.1240  178.3270  145.1560 C   0  0  0  0  0  0  0  0  0  0  0  0
  187.9410  177.0260  144.1970 C   0  0  0  0  0  2  0  0  0  0  0  0
  186.8710  177.4510  142.7880 S   0  0  0  0  0  0  0  0  0  0  0  0
  187.2680  177.4350  145.5050 C   0  0  1  0  0  3  0  0  0  0  0  0
  185.8650  178.4460  143.8580 C   0  0  0  0  0  0  0  0  0  0  0  0
  185.3230  178.9800  146.1480 N   0  0  0  0  0  2  0  0  0  0  0  0
  184.6200  178.3320  146.9490 O   0  0  0  0  0  1  0  0  0  0  0  0
  188.2650  178.1770  146.3910 C   0  0  0  0  0  2  0  0  0  0  0  0
  188.6950  177.3390  147.5920 C   0  0  2  0  0  3  0  0  0  0  0  0
  188.9450  178.2370  148.7900 C   0  0  0  0  0  1  0  0  0  0  0  0
  189.9150  176.4670  147.2830 C   0  0  0  0  0  2  0  0  0  0  0  0
  191.0380  177.2270  146.5870 C   0  0  0  0  0  2  0  0  0  0  0  0
  191.2960  176.6540  145.2770 N   0  0  0  0  0  2  0  0  0  0  0  0
  191.7550  176.8610  142.8680 N   0  0  0  0  0  1  0  0  0  0  0  0
  191.5970  177.4670  144.1430 C   0  0  0  0  0  0  0  0  0  0  0  0
  191.7240  178.7150  144.2610 O   0  0  0  0  0  0  0  0  0  0  0  0
  184.9170  179.4260  141.8420 N   0  0  0  0  0  2  0  0  0  0  0  0
  183.7430  178.8150  141.2330 C   0  0  0  0  0  2  0  0  0  0  0  0
  183.5570  179.2910  139.7940 C   0  0  1  0  0  3  0  0  0  0  0  0
  185.9310  177.1140  137.0460 N   0  0  0  0  0  0  0  0  0  0  0  0
  184.4080  178.5110  138.8400 C   0  0  0  0  0  0  0  0  0  0  0  0
  186.4050  178.2620  137.5940 C   0  0  0  0  0  0  0  0  0  0  0  0
  185.6430  178.9560  138.4790 N   0  0  0  0  0  0  0  0  0  0  0  0
  184.6990  176.6420  137.3710 C   0  0  0  0  0  3  0  0  0  0  0  0
  183.9040  177.3390  138.2780 C   0  0  0  0  0  3  0  0  0  0  0  0
  187.6900  178.7450  137.2300 N   0  0  0  0  0  1  0  0  0  0  0  0
  182.0930  179.3030  139.3690 C   0  0  0  0  0  2  0  0  0  0  0  0
  181.8850  180.2610  138.2070 C   0  0  0  0  0  2  0  0  0  0  0  0
  181.1520  181.4940  138.6960 C   0  0  0  0  0  2  0  0  0  0  0  0
  180.7140  182.3470  137.5170 C   0  0  0  0  0  2  0  0  0  0  0  0
  179.9650  183.4370  137.9680 O   0  0  0  0  0  0  0  0  0  0  0  0
  178.9380  183.5620  137.0330 C   0  0  0  0  0  1  0  0  0  0  0  0
  2  1  1  6  0  0  0
  2  7  1  0  0  0  0
  3  6  1  0  0  0  0
  3  8  1  0  0  0  0
  4  6  1  0  0  0  0
  5  7  1  0  0  0  0
  5  4  1  0  0  0  0
  6 10  1  1  0  0  0
  7  3  2  0  0  0  0
  8  9  1  0  0  0  0
 10 11  1  0  0  0  0
 11 12  1  1  0  0  0
 13 11  1  0  0  0  0
 14 13  1  0  0  0  0
 15 14  1  0  0  0  0
 16 17  1  0  0  0  0
 17 18  2  0  0  0  0
 17 15  1  0  0  0  0
 19  2  1  0  0  0  0
 20 19  1  0  0  0  0
 21 29  1  6  0  0  0
 21 20  1  0  0  0  0
 22 26  1  0  0  0  0
 22 24  2  0  0  0  0
 23 21  1  0  0  0  0
 24 25  1  0  0  0  0
 25 23  2  0  0  0  0
 26 27  2  0  0  0  0
 27 23  1  0  0  0  0
 28 24  1  0  0  0  0
 30 31  1  0  0  0  0
 30 29  1  0  0  0  0
 32 33  1  0  0  0  0
 32 31  1  0  0  0  0
 34 33  1  0  0  0  0
M  END
>  <MODEL>
6

>  <REMARK>
 VINA RESULT:      -6.5      3.801      9.000
  Name = 
  16 active torsions:
  status: ('A' for Active; 'I' for Inactive)
    1  A    between atoms: C_1  and  C_9
    2  A    between atoms: C_1  and  C_21
    3  A    between atoms: C_2  and  C_3
    4  A    between atoms: C_2  and  N_4
    5  A    between atoms: C_3  and  C_29
    6  A    between atoms: C_6  and  C_15
    7  A    between atoms: C_6  and  C_29
    8  A    between atoms: C_7  and  N_12
    9  A    between atoms: O_8  and  C_27
   10  A    between atoms: C_9  and  C_31
   11  A    between atoms: C_13  and  C_21
   12  A    between atoms: C_21  and  C_32
   13  A    between atoms: C_23  and  C_25
   14  A    between atoms: C_23  and  N_33
   15  A    between atoms: C_27  and  C_31
   16  A    between atoms: C_32  and  N_33
                            x       y       z     vdW  Elec       q    Type
                         _______ _______ _______ _____ _____    ______ ____

>  <TORSDO>
F 16

$$$$
=
 OpenBabel10222415113D

 34 35  0  0  1  0  0  0  0  0999 V2000
  188.2720  178.2610  139.8360 C   0  0  0  0  0  1  0  0  0  0  0  0
  189.1470  177.1960  140.4700 C   0  0  1  0  0  3  0  0  0  0  0  0
  190.4430  176.4500  138.4570 C   0  0  0  0  0  0  0  0  0  0  0  0
  192.8140  176.6890  138.9380 C   0  0  0  0  0  2  0  0  0  0  0  0
  191.9660  177.4990  140.3300 S   0  0  0  0  0  0  0  0  0  0  0  0
  191.8030  176.3160  137.8570 C   0  0  1  0  0  3  0  0  0  0  0  0
  190.4030  176.9740  139.6770 C   0  0  0  0  0  0  0  0  0  0  0  0
  189.2490  176.0840  137.7540 N   0  0  0  0  0  2  0  0  0  0  0  0
  188.9520  176.6030  136.6580 O   0  0  0  0  0  1  0  0  0  0  0  0
  192.0390  174.8800  137.4000 C   0  0  0  0  0  2  0  0  0  0  0  0
  192.5210  174.8130  135.9530 C   0  0  2  0  0  3  0  0  0  0  0  0
  192.2430  173.4380  135.3750 C   0  0  0  0  0  1  0  0  0  0  0  0
  193.9990  175.1900  135.8170 C   0  0  0  0  0  2  0  0  0  0  0  0
  194.9370  174.2040  136.5050 C   0  0  0  0  0  2  0  0  0  0  0  0
  195.6830  174.8740  137.5580 N   0  0  0  0  0  2  0  0  0  0  0  0
  196.5170  175.0260  139.8680 N   0  0  0  0  0  1  0  0  0  0  0  0
  195.8540  174.2910  138.8490 C   0  0  0  0  0  0  0  0  0  0  0  0
  195.4230  173.1330  139.0950 O   0  0  0  0  0  0  0  0  0  0  0  0
  189.4570  177.5510  141.8440 N   0  0  0  0  0  2  0  0  0  0  0  0
  188.9090  176.4980  142.6890 C   0  0  0  0  0  2  0  0  0  0  0  0
  188.0030  177.0750  143.7730 C   0  0  1  0  0  3  0  0  0  0  0  0
  189.9770  177.2810  147.5130 N   0  0  0  0  0  0  0  0  0  0  0  0
  188.7080  177.1700  145.0900 C   0  0  0  0  0  0  0  0  0  0  0  0
  190.6750  176.9650  146.3920 C   0  0  0  0  0  0  0  0  0  0  0  0
  190.0400  176.9040  145.1930 N   0  0  0  0  0  0  0  0  0  0  0  0
  188.6460  177.5420  147.4560 C   0  0  0  0  0  3  0  0  0  0  0  0
  187.9770  177.4860  146.2350 C   0  0  0  0  0  3  0  0  0  0  0  0
  192.0650  176.6820  146.4760 N   0  0  0  0  0  1  0  0  0  0  0  0
  187.3800  178.4060  143.3660 C   0  0  0  0  0  2  0  0  0  0  0  0
  186.0140  178.1830  142.7390 C   0  0  0  0  0  2  0  0  0  0  0  0
  184.9760  178.0350  143.8320 C   0  0  0  0  0  2  0  0  0  0  0  0
  184.8020  179.3500  144.5740 C   0  0  0  0  0  2  0  0  0  0  0  0
  183.8870  179.1930  145.6190 O   0  0  0  0  0  0  0  0  0  0  0  0
  184.6290  178.6080  146.6440 C   0  0  0  0  0  1  0  0  0  0  0  0
  2  1  1  6  0  0  0
  2 19  1  0  0  0  0
  3  7  2  0  0  0  0
  4  5  1  0  0  0  0
  6 10  1  1  0  0  0
  6  3  1  0  0  0  0
  6  4  1  0  0  0  0
  7  5  1  0  0  0  0
  7  2  1  0  0  0  0
  8  3  1  0  0  0  0
  9  8  1  0  0  0  0
 11 12  1  1  0  0  0
 11 10  1  0  0  0  0
 13 11  1  0  0  0  0
 13 14  1  0  0  0  0
 14 15  1  0  0  0  0
 15 17  1  0  0  0  0
 17 18  2  0  0  0  0
 17 16  1  0  0  0  0
 19 20  1  0  0  0  0
 21 20  1  6  0  0  0
 21 23  1  0  0  0  0
 23 25  2  0  0  0  0
 23 27  1  0  0  0  0
 24 28  1  0  0  0  0
 24 22  2  0  0  0  0
 25 24  1  0  0  0  0
 26 22  1  0  0  0  0
 27 26  2  0  0  0  0
 29 21  1  0  0  0  0
 30 29  1  0  0  0  0
 30 31  1  0  0  0  0
 31 32  1  0  0  0  0
 32 33  1  0  0  0  0
 33 34  1  0  0  0  0
M  END
>  <MODEL>
7

>  <REMARK>
 VINA RESULT:      -6.4      3.934      5.866
  Name = 
  16 active torsions:
  status: ('A' for Active; 'I' for Inactive)
    1  A    between atoms: C_1  and  C_9
    2  A    between atoms: C_1  and  C_21
    3  A    between atoms: C_2  and  C_3
    4  A    between atoms: C_2  and  N_4
    5  A    between atoms: C_3  and  C_29
    6  A    between atoms: C_6  and  C_15
    7  A    between atoms: C_6  and  C_29
    8  A    between atoms: C_7  and  N_12
    9  A    between atoms: O_8  and  C_27
   10  A    between atoms: C_9  and  C_31
   11  A    between atoms: C_13  and  C_21
   12  A    between atoms: C_21  and  C_32
   13  A    between atoms: C_23  and  C_25
   14  A    between atoms: C_23  and  N_33
   15  A    between atoms: C_27  and  C_31
   16  A    between atoms: C_32  and  N_33
                            x       y       z     vdW  Elec       q    Type
                         _______ _______ _______ _____ _____    ______ ____

>  <TORSDO>
F 16

$$$$
=
 OpenBabel10222415113D

 34 35  0  0  1  0  0  0  0  0999 V2000
  183.5470  178.7350  143.4460 C   0  0  0  0  0  1  0  0  0  0  0  0
  184.9140  179.3770  143.2970 C   0  0  1  0  0  3  0  0  0  0  0  0
  186.2320  178.3860  145.1860 C   0  0  0  0  0  0  0  0  0  0  0  0
  188.0450  177.0640  144.2480 C   0  0  0  0  0  2  0  0  0  0  0  0
  187.0000  177.5090  142.8250 S   0  0  0  0  0  0  0  0  0  0  0  0
  187.3590  177.4760  145.5480 C   0  0  1  0  0  3  0  0  0  0  0  0
  185.9930  178.5140  143.8860 C   0  0  0  0  0  0  0  0  0  0  0  0
  185.4260  179.0460  146.1700 N   0  0  0  0  0  2  0  0  0  0  0  0
  184.5990  178.4190  146.8630 O   0  0  0  0  0  1  0  0  0  0  0  0
  188.3530  178.2010  146.4500 C   0  0  0  0  0  2  0  0  0  0  0  0
  188.7470  177.3560  147.6600 C   0  0  2  0  0  3  0  0  0  0  0  0
  189.0540  178.2550  148.8440 C   0  0  0  0  0  1  0  0  0  0  0  0
  189.9150  176.4150  147.3530 C   0  0  0  0  0  2  0  0  0  0  0  0
  191.1040  177.1210  146.7110 C   0  0  0  0  0  2  0  0  0  0  0  0
  191.3710  176.5600  145.3970 N   0  0  0  0  0  2  0  0  0  0  0  0
  191.6950  176.7770  142.9670 N   0  0  0  0  0  1  0  0  0  0  0  0
  191.5220  177.3830  144.2410 C   0  0  0  0  0  0  0  0  0  0  0  0
  191.5030  178.6390  144.3380 O   0  0  0  0  0  0  0  0  0  0  0  0
  185.1860  179.6650  141.8990 N   0  0  0  0  0  2  0  0  0  0  0  0
  184.5320  178.6260  141.1160 C   0  0  0  0  0  2  0  0  0  0  0  0
  184.4600  179.0090  139.6400 C   0  0  1  0  0  3  0  0  0  0  0  0
  187.7980  177.6040  137.4470 N   0  0  0  0  0  0  0  0  0  0  0  0
  185.6400  178.4930  138.8770 C   0  0  0  0  0  0  0  0  0  0  0  0
  187.9770  178.1810  138.6630 C   0  0  0  0  0  0  0  0  0  0  0  0
  186.9040  178.6270  139.3660 N   0  0  0  0  0  0  0  0  0  0  0  0
  186.5550  177.4610  136.9180 C   0  0  0  0  0  3  0  0  0  0  0  0
  185.4420  177.9110  137.6250 C   0  0  0  0  0  3  0  0  0  0  0  0
  189.2870  178.3330  139.1910 N   0  0  0  0  0  1  0  0  0  0  0  0
  183.1420  178.5970  138.9930 C   0  0  0  0  0  2  0  0  0  0  0  0
  182.4040  177.6060  139.8760 C   0  0  0  0  0  2  0  0  0  0  0  0
  182.3920  176.2460  139.2060 C   0  0  0  0  0  2  0  0  0  0  0  0
  182.1130  176.3950  137.7200 C   0  0  0  0  0  2  0  0  0  0  0  0
  182.8210  175.4290  137.0010 O   0  0  0  0  0  0  0  0  0  0  0  0
  181.8500  174.7830  136.2380 C   0  0  0  0  0  1  0  0  0  0  0  0
  2  1  1  6  0  0  0
  2  7  1  0  0  0  0
  3  6  1  0  0  0  0
  3  8  1  0  0  0  0
  4  6  1  0  0  0  0
  5  7  1  0  0  0  0
  5  4  1  0  0  0  0
  6 10  1  1  0  0  0
  7  3  2  0  0  0  0
  8  9  1  0  0  0  0
 10 11  1  0  0  0  0
 11 12  1  1  0  0  0
 13 11  1  0  0  0  0
 14 13  1  0  0  0  0
 15 14  1  0  0  0  0
 16 17  1  0  0  0  0
 17 18  2  0  0  0  0
 17 15  1  0  0  0  0
 19  2  1  0  0  0  0
 20 19  1  0  0  0  0
 21 29  1  6  0  0  0
 21 20  1  0  0  0  0
 22 24  2  0  0  0  0
 23 25  2  0  0  0  0
 23 21  1  0  0  0  0
 24 28  1  0  0  0  0
 24 25  1  0  0  0  0
 26 22  1  0  0  0  0
 26 27  2  0  0  0  0
 27 23  1  0  0  0  0
 29 30  1  0  0  0  0
 31 30  1  0  0  0  0
 32 31  1  0  0  0  0
 33 32  1  0  0  0  0
 34 33  1  0  0  0  0
M  END
>  <MODEL>
8

>  <REMARK>
 VINA RESULT:      -6.4      2.914      8.489
  Name = 
  16 active torsions:
  status: ('A' for Active; 'I' for Inactive)
    1  A    between atoms: C_1  and  C_9
    2  A    between atoms: C_1  and  C_21
    3  A    between atoms: C_2  and  C_3
    4  A    between atoms: C_2  and  N_4
    5  A    between atoms: C_3  and  C_29
    6  A    between atoms: C_6  and  C_15
    7  A    between atoms: C_6  and  C_29
    8  A    between atoms: C_7  and  N_12
    9  A    between atoms: O_8  and  C_27
   10  A    between atoms: C_9  and  C_31
   11  A    between atoms: C_13  and  C_21
   12  A    between atoms: C_21  and  C_32
   13  A    between atoms: C_23  and  C_25
   14  A    between atoms: C_23  and  N_33
   15  A    between atoms: C_27  and  C_31
   16  A    between atoms: C_32  and  N_33
                            x       y       z     vdW  Elec       q    Type
                         _______ _______ _______ _____ _____    ______ ____

>  <TORSDO>
F 16

$$$$
=
 OpenBabel10222415113D

 34 35  0  0  1  0  0  0  0  0999 V2000
  190.0810  178.7550  144.1250 C   0  0  0  0  0  1  0  0  0  0  0  0
  188.9290  177.9790  143.5120 C   0  0  1  0  0  3  0  0  0  0  0  0
  190.0840  176.9270  141.5510 C   0  0  0  0  0  0  0  0  0  0  0  0
  189.1450  177.8650  139.5130 C   0  0  0  0  0  2  0  0  0  0  0  0
  188.0730  178.4760  140.8510 S   0  0  0  0  0  0  0  0  0  0  0  0
  190.1280  176.8340  140.0620 C   0  0  1  0  0  3  0  0  0  0  0  0
  189.1510  177.7310  142.0480 C   0  0  0  0  0  0  0  0  0  0  0  0
  190.9550  176.1670  142.3980 N   0  0  0  0  0  2  0  0  0  0  0  0
  190.6240  175.0460  142.8360 O   0  0  0  0  0  1  0  0  0  0  0  0
  191.5350  177.1380  139.5550 C   0  0  0  0  0  2  0  0  0  0  0  0
  191.7700  176.5800  138.1540 C   0  0  2  0  0  3  0  0  0  0  0  0
  190.9330  175.3320  137.9440 C   0  0  0  0  0  1  0  0  0  0  0  0
  193.2520  176.3130  137.8780 C   0  0  0  0  0  2  0  0  0  0  0  0
  193.5550  176.0550  136.4070 C   0  0  0  0  0  2  0  0  0  0  0  0
  194.9060  176.4860  136.0880 N   0  0  0  0  0  2  0  0  0  0  0  0
  197.3150  176.0600  135.8240 N   0  0  0  0  0  1  0  0  0  0  0  0
  196.0010  175.5720  136.0540 C   0  0  0  0  0  0  0  0  0  0  0  0
  195.8150  174.3370  136.2270 O   0  0  0  0  0  0  0  0  0  0  0  0
  188.7280  176.7290  144.2250 N   0  0  0  0  0  2  0  0  0  0  0  0
  187.3350  176.7020  144.6490 C   0  0  0  0  0  2  0  0  0  0  0  0
  186.8440  178.0980  145.0260 C   0  0  1  0  0  3  0  0  0  0  0  0
  183.0010  178.9390  143.4600 N   0  0  0  0  0  0  0  0  0  0  0  0
  185.4800  178.3720  144.4730 C   0  0  0  0  0  0  0  0  0  0  0  0
  183.9920  178.5090  142.6380 C   0  0  0  0  0  0  0  0  0  0  0  0
  185.2230  178.2360  143.1430 N   0  0  0  0  0  0  0  0  0  0  0  0
  183.2200  179.0980  144.7920 C   0  0  0  0  0  3  0  0  0  0  0  0
  184.4750  178.8210  145.3290 C   0  0  0  0  0  3  0  0  0  0  0  0
  183.7460  178.3620  141.2460 N   0  0  0  0  0  1  0  0  0  0  0  0
  186.9100  178.3540  146.5280 C   0  0  0  0  0  2  0  0  0  0  0  0
  187.7150  177.2650  147.2170 C   0  0  0  0  0  2  0  0  0  0  0  0
  189.1070  177.7840  147.5200 C   0  0  0  0  0  2  0  0  0  0  0  0
  190.1110  176.6440  147.4900 C   0  0  0  0  0  2  0  0  0  0  0  0
  191.3870  177.1370  147.2050 O   0  0  0  0  0  0  0  0  0  0  0  0
  191.8730  176.2880  146.2120 C   0  0  0  0  0  1  0  0  0  0  0  0
  2  1  1  1  0  0  0
  2 19  1  0  0  0  0
  3  7  2  0  0  0  0
  3  8  1  0  0  0  0
  4  6  1  0  0  0  0
  4  5  1  0  0  0  0
  5  7  1  0  0  0  0
  6 10  1  6  0  0  0
  6  3  1  0  0  0  0
  7  2  1  0  0  0  0
  8  9  1  0  0  0  0
 11 12  1  1  0  0  0
 11 10  1  0  0  0  0
 13 11  1  0  0  0  0
 14 13  1  0  0  0  0
 15 14  1  0  0  0  0
 16 17  1  0  0  0  0
 17 15  1  0  0  0  0
 17 18  2  0  0  0  0
 19 20  1  0  0  0  0
 21 20  1  1  0  0  0
 21 29  1  0  0  0  0
 22 26  1  0  0  0  0
 23 21  1  0  0  0  0
 23 27  1  0  0  0  0
 24 25  1  0  0  0  0
 24 22  2  0  0  0  0
 25 23  2  0  0  0  0
 26 27  2  0  0  0  0
 28 24  1  0  0  0  0
 29 30  1  0  0  0  0
 30 31  1  0  0  0  0
 32 31  1  0  0  0  0
 33 32  1  0  0  0  0
 34 33  1  0  0  0  0
M  END
>  <MODEL>
9

>  <REMARK>
 VINA RESULT:      -6.4      3.409      4.069
  Name = 
  16 active torsions:
  status: ('A' for Active; 'I' for Inactive)
    1  A    between atoms: C_1  and  C_9
    2  A    between atoms: C_1  and  C_21
    3  A    between atoms: C_2  and  C_3
    4  A    between atoms: C_2  and  N_4
    5  A    between atoms: C_3  and  C_29
    6  A    between atoms: C_6  and  C_15
    7  A    between atoms: C_6  and  C_29
    8  A    between atoms: C_7  and  N_12
    9  A    between atoms: O_8  and  C_27
   10  A    between atoms: C_9  and  C_31
   11  A    between atoms: C_13  and  C_21
   12  A    between atoms: C_21  and  C_32
   13  A    between atoms: C_23  and  C_25
   14  A    between atoms: C_23  and  N_33
   15  A    between atoms: C_27  and  C_31
   16  A    between atoms: C_32  and  N_33
                            x       y       z     vdW  Elec       q    Type
                         _______ _______ _______ _____ _____    ______ ____

>  <TORSDO>
F 16

$$$$
