=
 OpenBabel10222416573D

 28 31  0  0  1  0  0  0  0  0999 V2000
  189.3690  176.8550  144.9890 N   0  0  0  0  0  0  0  0  0  0  0  0
  186.1960  178.3910  146.1300 C   0  0  0  0  0  3  0  0  0  0  0  0
  190.6390  176.5660  145.6300 C   0  0  0  0  0  3  0  0  0  0  0  0
  189.0600  176.6380  143.6600 C   0  0  0  0  0  0  0  0  0  0  0  0
  183.5030  178.6160  142.9600 C   0  0  0  0  0  3  0  0  0  0  0  0
  189.0660  177.5770  147.2310 C   0  0  0  0  0  3  0  0  0  0  0  0
  186.8940  177.5790  144.0720 C   0  0  0  0  0  0  0  0  0  0  0  0
  183.9270  179.0690  145.3270 C   0  0  0  0  0  3  0  0  0  0  0  0
  187.2520  177.8000  145.4490 C   0  0  1  0  0  3  0  0  0  0  0  0
  187.7830  177.0000  143.1740 C   0  0  0  0  0  3  0  0  0  0  0  0
  188.5140  177.4190  145.8710 C   0  0  0  0  0  0  0  0  0  0  0  0
  185.2000  178.5270  145.1630 C   0  0  0  0  0  0  0  0  0  0  0  0
  190.4780  177.0050  147.0920 C   0  0  0  0  0  3  0  0  0  0  0  0
  183.0740  179.1100  144.2090 C   0  0  0  0  0  3  0  0  0  0  0  0
  184.7900  178.0730  142.8080 C   0  0  0  0  0  3  0  0  0  0  0  0
  185.6140  178.0430  143.9310 C   0  0  0  0  0  0  0  0  0  0  0  0
  190.4440  176.5940  141.5110 N   0  0  0  0  0  2  0  0  0  0  0  0
  190.0270  175.9880  142.7410 C   0  0  0  0  0  0  0  0  0  0  0  0
  190.4950  174.8570  143.0380 O   0  0  0  0  0  0  0  0  0  0  0  0
  190.1550  177.9680  141.1360 C   0  0  0  0  0  2  0  0  0  0  0  0
  189.1010  177.9910  139.6570 S   0  0  0  0  0  0  0  0  0  0  0  0
  189.8490  176.4790  138.9850 C   0  0  0  0  0  2  0  0  0  0  0  0
  190.6480  176.8110  137.7370 C   0  0  0  0  0  2  0  0  0  0  0  0
  191.7420  174.6600  137.4500 C   0  0  0  0  0  2  0  0  0  0  0  0
  191.8740  175.9630  137.6680 C   0  0  0  0  0  0  0  0  0  0  0  0
  193.2050  176.5480  137.9000 C   0  0  0  0  0  0  0  0  0  0  0  0
  193.5260  176.9590  139.0480 O   0  0  0  0  0  1  0  0  0  0  0  0
  194.1200  176.6540  136.8590 O   0  0  0  0  0  0  0  0  0  0  0  0
  1  3  1  0  0  0  0
  1 11  1  0  0  0  0
  3 13  2  0  0  0  0
  4  1  1  0  0  0  0
  5 14  1  0  0  0  0
  7  9  1  0  0  0  0
  9 11  1  0  0  0  0
  9  2  1  6  0  0  0
 10  4  2  0  0  0  0
 10  7  1  0  0  0  0
 11  6  2  0  0  0  0
 12  8  1  0  0  0  0
 12  2  2  0  0  0  0
 13  6  1  0  0  0  0
 14  8  2  0  0  0  0
 15  5  2  0  0  0  0
 15 16  1  0  0  0  0
 16  7  2  0  0  0  0
 16 12  1  0  0  0  0
 17 18  1  0  0  0  0
 18 19  2  0  0  0  0
 18  4  1  0  0  0  0
 20 17  1  0  0  0  0
 21 20  1  0  0  0  0
 22 21  1  0  0  0  0
 23 22  1  0  0  0  0
 24 25  2  0  0  0  0
 25 23  1  0  0  0  0
 25 26  1  0  0  0  0
 26 27  1  0  0  0  0
 28 26  2  0  0  0  0
M  END
>  <MODEL>
1

>  <REMARK>
 VINA RESULT:      -9.3      0.000      0.000
  Name = 
  7 active torsions:
  status: ('A' for Active; 'I' for Inactive)
    1  A    between atoms: C_4  and  C_18
    2  A    between atoms: C_4  and  S_25
    3  A    between atoms: C_5  and  C_23
    4  A    between atoms: C_12  and  C_27
    5  A    between atoms: N_17  and  C_26
    6  A    between atoms: C_18  and  C_27
    7  A    between atoms: S_25  and  C_26
                            x       y       z     vdW  Elec       q    Type
                         _______ _______ _______ _____ _____    ______ ____

>  <TORSDO>
F 7

$$$$
=
 OpenBabel10222416573D

 28 31  0  0  1  0  0  0  0  0999 V2000
  189.4070  177.0180  145.2800 N   0  0  0  0  0  0  0  0  0  0  0  0
  186.0630  178.3960  146.0860 C   0  0  0  0  0  3  0  0  0  0  0  0
  190.6060  176.7610  146.0560 C   0  0  0  0  0  3  0  0  0  0  0  0
  189.2590  176.8250  143.9200 C   0  0  0  0  0  0  0  0  0  0  0  0
  183.7400  178.6020  142.6340 C   0  0  0  0  0  3  0  0  0  0  0  0
  188.8210  177.6650  147.4890 C   0  0  0  0  0  3  0  0  0  0  0  0
  187.0230  177.6690  144.1030 C   0  0  0  0  0  0  0  0  0  0  0  0
  183.8720  179.0060  145.0440 C   0  0  0  0  0  3  0  0  0  0  0  0
  187.2130  177.8660  145.5170 C   0  0  1  0  0  3  0  0  0  0  0  0
  188.0310  177.1500  143.3000 C   0  0  0  0  0  3  0  0  0  0  0  0
  188.4340  177.5230  146.0710 C   0  0  0  0  0  0  0  0  0  0  0  0
  185.1780  178.5200  145.0150 C   0  0  0  0  0  0  0  0  0  0  0  0
  190.2620  177.1530  147.4990 C   0  0  0  0  0  3  0  0  0  0  0  0
  183.1510  179.0450  143.8370 C   0  0  0  0  0  3  0  0  0  0  0  0
  185.0570  178.1150  142.6190 C   0  0  0  0  0  3  0  0  0  0  0  0
  185.7490  178.0860  143.8270 C   0  0  0  0  0  0  0  0  0  0  0  0
  190.4680  176.4750  141.6950 N   0  0  0  0  0  2  0  0  0  0  0  0
  190.3510  176.2390  143.1040 C   0  0  0  0  0  0  0  0  0  0  0  0
  191.2030  175.4950  143.6570 O   0  0  0  0  0  0  0  0  0  0  0  0
  189.6920  177.4630  140.9630 C   0  0  0  0  0  2  0  0  0  0  0  0
  190.0100  177.2970  139.1830 S   0  0  0  0  0  0  0  0  0  0  0  0
  188.7650  178.5460  138.7480 C   0  0  0  0  0  2  0  0  0  0  0  0
  187.4600  178.2440  139.4630 C   0  0  0  0  0  2  0  0  0  0  0  0
  186.5630  178.0240  137.2160 C   0  0  0  0  0  2  0  0  0  0  0  0
  186.3230  178.2720  138.4980 C   0  0  0  0  0  0  0  0  0  0  0  0
  184.9670  178.6310  138.9460 C   0  0  0  0  0  0  0  0  0  0  0  0
  184.1150  177.7310  139.1740 O   0  0  0  0  0  1  0  0  0  0  0  0
  184.6120  179.9650  139.1190 O   0  0  0  0  0  0  0  0  0  0  0  0
  1  3  1  0  0  0  0
  1 11  1  0  0  0  0
  3 13  2  0  0  0  0
  4  1  1  0  0  0  0
  5 14  1  0  0  0  0
  6 13  1  0  0  0  0
  7  9  1  0  0  0  0
  9 11  1  0  0  0  0
  9  2  1  6  0  0  0
 10  4  2  0  0  0  0
 10  7  1  0  0  0  0
 11  6  2  0  0  0  0
 12  8  1  0  0  0  0
 12  2  2  0  0  0  0
 14  8  2  0  0  0  0
 15  5  2  0  0  0  0
 15 16  1  0  0  0  0
 16  7  2  0  0  0  0
 16 12  1  0  0  0  0
 17 18  1  0  0  0  0
 18 19  2  0  0  0  0
 18  4  1  0  0  0  0
 20 17  1  0  0  0  0
 21 20  1  0  0  0  0
 22 21  1  0  0  0  0
 22 23  1  0  0  0  0
 24 25  2  0  0  0  0
 25 26  1  0  0  0  0
 25 23  1  0  0  0  0
 26 28  2  0  0  0  0
 26 27  1  0  0  0  0
M  END
>  <MODEL>
2

>  <REMARK>
 VINA RESULT:      -9.3      2.721      3.635
  Name = 
  7 active torsions:
  status: ('A' for Active; 'I' for Inactive)
    1  A    between atoms: C_4  and  C_18
    2  A    between atoms: C_4  and  S_25
    3  A    between atoms: C_5  and  C_23
    4  A    between atoms: C_12  and  C_27
    5  A    between atoms: N_17  and  C_26
    6  A    between atoms: C_18  and  C_27
    7  A    between atoms: S_25  and  C_26
                            x       y       z     vdW  Elec       q    Type
                         _______ _______ _______ _____ _____    ______ ____

>  <TORSDO>
F 7

$$$$
=
 OpenBabel10222416573D

 28 31  0  0  1  0  0  0  0  0999 V2000
  189.1760  176.9490  144.8520 N   0  0  0  0  0  0  0  0  0  0  0  0
  185.9590  178.3780  146.0090 C   0  0  0  0  0  3  0  0  0  0  0  0
  190.4450  176.6640  145.4980 C   0  0  0  0  0  3  0  0  0  0  0  0
  188.8870  176.7720  143.5130 C   0  0  0  0  0  0  0  0  0  0  0  0
  183.2970  178.6580  142.8160 C   0  0  0  0  0  3  0  0  0  0  0  0
  188.8320  177.5850  147.1140 C   0  0  0  0  0  3  0  0  0  0  0  0
  186.6970  177.6540  143.9310 C   0  0  0  0  0  0  0  0  0  0  0  0
  183.6840  179.0360  145.2020 C   0  0  0  0  0  3  0  0  0  0  0  0
  187.0340  177.8330  145.3200 C   0  0  1  0  0  3  0  0  0  0  0  0
  187.6080  177.1250  143.0250 C   0  0  0  0  0  3  0  0  0  0  0  0
  188.2990  177.4630  145.7430 C   0  0  0  0  0  0  0  0  0  0  0  0
  184.9710  178.5270  145.0350 C   0  0  0  0  0  0  0  0  0  0  0  0
  190.2580  177.0470  146.9720 C   0  0  0  0  0  3  0  0  0  0  0  0
  182.8440  179.0990  144.0760 C   0  0  0  0  0  3  0  0  0  0  0  0
  184.5970  178.1480  142.6610 C   0  0  0  0  0  3  0  0  0  0  0  0
  185.4090  178.0950  143.7920 C   0  0  0  0  0  0  0  0  0  0  0  0
  190.1390  176.7220  141.2850 N   0  0  0  0  0  2  0  0  0  0  0  0
  189.8780  176.1750  142.5830 C   0  0  0  0  0  0  0  0  0  0  0  0
  190.5090  175.1440  142.9350 O   0  0  0  0  0  0  0  0  0  0  0  0
  189.6470  178.0110  140.8240 C   0  0  0  0  0  2  0  0  0  0  0  0
  188.4190  177.7640  139.5090 S   0  0  0  0  0  0  0  0  0  0  0  0
  189.5170  178.4390  138.2280 C   0  0  0  0  0  2  0  0  0  0  0  0
  189.6410  177.4510  137.0830 C   0  0  0  0  0  2  0  0  0  0  0  0
  191.6850  176.4560  137.9420 C   0  0  0  0  0  2  0  0  0  0  0  0
  190.4460  176.2670  137.5070 C   0  0  0  0  0  0  0  0  0  0  0  0
  189.8980  174.9050  137.3850 C   0  0  0  0  0  0  0  0  0  0  0  0
  190.6470  173.9040  137.5460 O   0  0  0  0  0  1  0  0  0  0  0  0
  188.5540  174.7100  137.0890 O   0  0  0  0  0  0  0  0  0  0  0  0
  1  3  1  0  0  0  0
  1 11  1  0  0  0  0
  3 13  2  0  0  0  0
  4  1  1  0  0  0  0
  5 14  1  0  0  0  0
  7  9  1  0  0  0  0
  9 11  1  0  0  0  0
  9  2  1  6  0  0  0
 10  4  2  0  0  0  0
 10  7  1  0  0  0  0
 11  6  2  0  0  0  0
 12  8  1  0  0  0  0
 12  2  2  0  0  0  0
 13  6  1  0  0  0  0
 14  8  2  0  0  0  0
 15  5  2  0  0  0  0
 15 16  1  0  0  0  0
 16  7  2  0  0  0  0
 16 12  1  0  0  0  0
 17 18  1  0  0  0  0
 18 19  2  0  0  0  0
 18  4  1  0  0  0  0
 20 17  1  0  0  0  0
 21 20  1  0  0  0  0
 22 21  1  0  0  0  0
 23 25  1  0  0  0  0
 23 22  1  0  0  0  0
 25 24  2  0  0  0  0
 26 25  1  0  0  0  0
 26 27  1  0  0  0  0
 28 26  2  0  0  0  0
M  END
>  <MODEL>
3

>  <REMARK>
 VINA RESULT:      -9.1      1.536      1.721
  Name = 
  7 active torsions:
  status: ('A' for Active; 'I' for Inactive)
    1  A    between atoms: C_4  and  C_18
    2  A    between atoms: C_4  and  S_25
    3  A    between atoms: C_5  and  C_23
    4  A    between atoms: C_12  and  C_27
    5  A    between atoms: N_17  and  C_26
    6  A    between atoms: C_18  and  C_27
    7  A    between atoms: S_25  and  C_26
                            x       y       z     vdW  Elec       q    Type
                         _______ _______ _______ _____ _____    ______ ____

>  <TORSDO>
F 7

$$$$
=
 OpenBabel10222416573D

 28 31  0  0  1  0  0  0  0  0999 V2000
  189.4030  176.8440  145.0630 N   0  0  0  0  0  0  0  0  0  0  0  0
  186.2490  178.4050  146.2230 C   0  0  0  0  0  3  0  0  0  0  0  0
  190.6780  176.5550  145.6940 C   0  0  0  0  0  3  0  0  0  0  0  0
  189.0790  176.6170  143.7390 C   0  0  0  0  0  0  0  0  0  0  0  0
  183.5250  178.6150  143.0770 C   0  0  0  0  0  3  0  0  0  0  0  0
  189.1250  177.5870  147.3010 C   0  0  0  0  0  3  0  0  0  0  0  0
  186.9220  177.5720  144.1640 C   0  0  0  0  0  0  0  0  0  0  0  0
  183.9740  179.0860  145.4360 C   0  0  0  0  0  3  0  0  0  0  0  0
  187.2950  177.8030  145.5360 C   0  0  1  0  0  3  0  0  0  0  0  0
  187.7990  176.9810  143.2630 C   0  0  0  0  0  3  0  0  0  0  0  0
  188.5590  177.4190  145.9480 C   0  0  0  0  0  0  0  0  0  0  0  0
  185.2440  178.5370  145.2650 C   0  0  0  0  0  0  0  0  0  0  0  0
  190.5330  177.0070  147.1530 C   0  0  0  0  0  3  0  0  0  0  0  0
  183.1110  179.1220  144.3260 C   0  0  0  0  0  3  0  0  0  0  0  0
  184.8080  178.0640  142.9180 C   0  0  0  0  0  3  0  0  0  0  0  0
  185.6430  178.0400  144.0320 C   0  0  0  0  0  0  0  0  0  0  0  0
  190.4560  176.5560  141.5860 N   0  0  0  0  0  2  0  0  0  0  0  0
  190.0350  175.9540  142.8160 C   0  0  0  0  0  0  0  0  0  0  0  0
  190.4870  174.8170  143.1100 O   0  0  0  0  0  0  0  0  0  0  0  0
  190.1850  177.9350  141.2130 C   0  0  0  0  0  2  0  0  0  0  0  0
  188.8540  177.9860  139.9780 S   0  0  0  0  0  0  0  0  0  0  0  0
  189.9570  177.4680  138.6310 C   0  0  0  0  0  2  0  0  0  0  0  0
  189.1910  176.6080  137.6400 C   0  0  0  0  0  2  0  0  0  0  0  0
  189.2620  177.5190  135.3890 C   0  0  0  0  0  2  0  0  0  0  0  0
  188.6240  177.4560  136.5510 C   0  0  0  0  0  0  0  0  0  0  0  0
  187.4120  178.2610  136.7800 C   0  0  0  0  0  0  0  0  0  0  0  0
  186.2950  177.6970  136.9260 O   0  0  0  0  0  1  0  0  0  0  0  0
  187.4880  179.6480  136.8370 O   0  0  0  0  0  0  0  0  0  0  0  0
  1  3  1  0  0  0  0
  1 11  1  0  0  0  0
  3 13  2  0  0  0  0
  4  1  1  0  0  0  0
  5 14  1  0  0  0  0
  7  9  1  0  0  0  0
  9 11  1  0  0  0  0
  9  2  1  6  0  0  0
 10  4  2  0  0  0  0
 10  7  1  0  0  0  0
 11  6  2  0  0  0  0
 12  8  1  0  0  0  0
 12  2  2  0  0  0  0
 13  6  1  0  0  0  0
 14  8  2  0  0  0  0
 15  5  2  0  0  0  0
 15 16  1  0  0  0  0
 16  7  2  0  0  0  0
 16 12  1  0  0  0  0
 17 18  1  0  0  0  0
 18 19  2  0  0  0  0
 18  4  1  0  0  0  0
 20 17  1  0  0  0  0
 21 20  1  0  0  0  0
 22 21  1  0  0  0  0
 23 22  1  0  0  0  0
 24 25  2  0  0  0  0
 25 26  1  0  0  0  0
 25 23  1  0  0  0  0
 26 28  2  0  0  0  0
 26 27  1  0  0  0  0
M  END
>  <MODEL>
4

>  <REMARK>
 VINA RESULT:      -8.9      2.211      2.565
  Name = 
  7 active torsions:
  status: ('A' for Active; 'I' for Inactive)
    1  A    between atoms: C_4  and  C_18
    2  A    between atoms: C_4  and  S_25
    3  A    between atoms: C_5  and  C_23
    4  A    between atoms: C_12  and  C_27
    5  A    between atoms: N_17  and  C_26
    6  A    between atoms: C_18  and  C_27
    7  A    between atoms: S_25  and  C_26
                            x       y       z     vdW  Elec       q    Type
                         _______ _______ _______ _____ _____    ______ ____

>  <TORSDO>
F 7

$$$$
=
 OpenBabel10222416573D

 28 31  0  0  1  0  0  0  0  0999 V2000
  186.2950  178.4110  139.7400 N   0  0  0  0  0  0  0  0  0  0  0  0
  183.8310  178.5690  142.5030 C   0  0  0  0  0  3  0  0  0  0  0  0
  186.1870  178.3390  138.2940 C   0  0  0  0  0  3  0  0  0  0  0  0
  187.4670  178.3830  140.4720 C   0  0  0  0  0  0  0  0  0  0  0  0
  185.8070  178.6020  146.1710 C   0  0  0  0  0  3  0  0  0  0  0  0
  183.9570  178.4620  139.3280 C   0  0  0  0  0  3  0  0  0  0  0  0
  186.1500  178.4920  142.4720 C   0  0  0  0  0  0  0  0  0  0  0  0
  183.6600  178.6420  144.9970 C   0  0  0  0  0  3  0  0  0  0  0  0
  184.9470  178.5110  141.6800 C   0  0  0  0  0  0  0  0  0  0  0  0
  187.4070  178.4320  141.8830 C   0  0  0  0  0  3  0  0  0  0  0  0
  185.0670  178.4680  140.3010 C   0  0  0  0  0  0  0  0  0  0  0  0
  184.3600  178.5870  143.7940 C   0  0  1  0  0  3  0  0  0  0  0  0
  184.6850  178.3870  137.9850 C   0  0  0  0  0  3  0  0  0  0  0  0
  184.3970  178.6490  146.1950 C   0  0  0  0  0  3  0  0  0  0  0  0
  186.5000  178.5460  144.9500 C   0  0  0  0  0  3  0  0  0  0  0  0
  185.7460  178.5410  143.7790 C   0  0  0  0  0  0  0  0  0  0  0  0
  189.8880  177.5790  140.3090 N   0  0  0  0  0  2  0  0  0  0  0  0
  188.7910  178.3500  139.8030 C   0  0  0  0  0  0  0  0  0  0  0  0
  188.9710  179.0300  138.7590 O   0  0  0  0  0  0  0  0  0  0  0  0
  189.7740  176.5940  141.3730 C   0  0  0  0  0  2  0  0  0  0  0  0
  191.0090  176.9370  142.6600 S   0  0  0  0  0  0  0  0  0  0  0  0
  189.8070  176.7190  144.0040 C   0  0  0  0  0  2  0  0  0  0  0  0
  190.0590  177.7470  145.0930 C   0  0  0  0  0  2  0  0  0  0  0  0
  189.0950  176.9990  147.1940 C   0  0  0  0  0  2  0  0  0  0  0  0
  190.1720  177.0760  146.4210 C   0  0  0  0  0  0  0  0  0  0  0  0
  191.4680  176.5650  146.8960 C   0  0  0  0  0  0  0  0  0  0  0  0
  191.9720  177.0070  147.9630 O   0  0  0  0  0  1  0  0  0  0  0  0
  192.1490  175.5920  146.1720 O   0  0  0  0  0  0  0  0  0  0  0  0
  1 11  1  0  0  0  0
  1  4  1  0  0  0  0
  3  1  1  0  0  0  0
  4 10  2  0  0  0  0
  5 14  1  0  0  0  0
  6 11  2  0  0  0  0
  7 16  2  0  0  0  0
  8 14  2  0  0  0  0
  9  7  1  0  0  0  0
  9  2  2  0  0  0  0
 10  7  1  0  0  0  0
 11  9  1  0  0  0  0
 12  2  1  1  0  0  0
 12  8  1  0  0  0  0
 13  3  2  0  0  0  0
 13  6  1  0  0  0  0
 15  5  2  0  0  0  0
 16 12  1  0  0  0  0
 16 15  1  0  0  0  0
 17 20  1  0  0  0  0
 18 17  1  0  0  0  0
 18  4  1  0  0  0  0
 19 18  2  0  0  0  0
 20 21  1  0  0  0  0
 21 22  1  0  0  0  0
 22 23  1  0  0  0  0
 23 25  1  0  0  0  0
 25 26  1  0  0  0  0
 25 24  2  0  0  0  0
 26 27  1  0  0  0  0
 28 26  2  0  0  0  0
M  END
>  <MODEL>
5

>  <REMARK>
 VINA RESULT:      -8.8      2.772      6.157
  Name = 
  7 active torsions:
  status: ('A' for Active; 'I' for Inactive)
    1  A    between atoms: C_4  and  C_18
    2  A    between atoms: C_4  and  S_25
    3  A    between atoms: C_5  and  C_23
    4  A    between atoms: C_12  and  C_27
    5  A    between atoms: N_17  and  C_26
    6  A    between atoms: C_18  and  C_27
    7  A    between atoms: S_25  and  C_26
                            x       y       z     vdW  Elec       q    Type
                         _______ _______ _______ _____ _____    ______ ____

>  <TORSDO>
F 7

$$$$
=
 OpenBabel10222416573D

 28 31  0  0  0  0  0  0  0  0999 V2000
  183.9260  178.6610  142.6760 N   0  0  0  0  0  0  0  0  0  0  0  0
  184.8080  178.5340  146.2730 C   0  0  0  0  0  3  0  0  0  0  0  0
  182.6880  178.8680  141.9470 C   0  0  0  0  0  3  0  0  0  0  0  0
  185.1620  178.3910  142.1220 C   0  0  0  0  0  0  0  0  0  0  0  0
  188.8670  177.7060  146.7140 C   0  0  0  0  0  3  0  0  0  0  0  0
  182.3010  179.0030  144.3740 C   0  0  0  0  0  3  0  0  0  0  0  0
  186.0600  178.2500  144.3400 C   0  0  0  0  0  0  0  0  0  0  0  0
  186.7340  178.1600  147.8240 C   0  0  0  0  0  3  0  0  0  0  0  0
  184.7560  178.5260  144.8860 C   0  0  0  0  0  0  0  0  0  0  0  0
  186.2750  178.1830  142.9690 C   0  0  0  0  0  3  0  0  0  0  0  0
  183.7050  178.7270  144.0080 C   0  0  0  0  0  0  0  0  0  0  0  0
  186.1450  178.2640  146.5660 C   0  0  0  0  0  0  0  0  0  0  0  0
  181.6110  179.1110  143.0130 C   0  0  0  0  0  3  0  0  0  0  0  0
  188.1110  177.8780  147.8920 C   0  0  0  0  0  3  0  0  0  0  0  0
  188.2600  177.8130  145.4510 C   0  0  0  0  0  2  0  0  0  0  0  0
  186.8970  178.0940  145.4120 C   0  0  0  0  0  0  0  0  0  0  0  0
  186.6220  178.6290  140.0370 N   0  0  0  0  0  2  0  0  0  0  0  0
  185.3560  178.3590  140.6510 C   0  0  0  0  0  0  0  0  0  0  0  0
  184.3740  178.0990  139.9060 O   0  0  0  0  0  0  0  0  0  0  0  0
  187.8770  178.7400  140.7630 C   0  0  0  0  0  2  0  0  0  0  0  0
  189.0590  177.5110  140.1370 S   0  0  0  0  0  0  0  0  0  0  0  0
  189.5420  176.9860  141.8070 C   0  0  0  0  0  2  0  0  0  0  0  0
  191.0310  177.2050  142.0050 C   0  0  0  0  0  2  0  0  0  0  0  0
  191.3060  178.7860  143.8290 C   0  0  0  0  0  2  0  0  0  0  0  0
  191.3220  177.5190  143.4350 C   0  0  0  0  0  0  0  0  0  0  0  0
  191.6820  176.4490  144.3800 C   0  0  0  0  0  0  0  0  0  0  0  0
  191.8240  175.2650  143.9740 O   0  0  0  0  0  0  0  0  0  0  0  0
  191.8660  176.7330  145.7290 O   0  0  0  0  0  1  0  0  0  0  0  0
  1 11  1  0  0  0  0
  2 12  1  0  0  0  0
  3  1  1  0  0  0  0
  3 13  2  0  0  0  0
  4  1  1  0  0  0  0
  4 10  2  0  0  0  0
  5 14  2  0  0  0  0
  7  9  1  0  0  0  0
  7 16  2  0  0  0  0
  8 14  1  0  0  0  0
  9  2  2  0  0  0  0
 10  7  1  0  0  0  0
 11  6  2  0  0  0  0
 11  9  1  0  0  0  0
 12  8  2  0  0  0  0
 13  6  1  0  0  0  0
 15  5  1  0  0  0  0
 16 15  1  0  0  0  0
 16 12  1  0  0  0  0
 17 18  1  0  0  0  0
 17 20  1  0  0  0  0
 18  4  1  0  0  0  0
 19 18  2  0  0  0  0
 21 20  1  0  0  0  0
 21 22  1  0  0  0  0
 22 23  1  0  0  0  0
 23 25  1  0  0  0  0
 25 24  2  0  0  0  0
 25 26  1  0  0  0  0
 26 28  1  0  0  0  0
 27 26  2  0  0  0  0
M  END
>  <MODEL>
6

>  <REMARK>
 VINA RESULT:      -8.8      3.095      5.541
  Name = 
  7 active torsions:
  status: ('A' for Active; 'I' for Inactive)
    1  A    between atoms: C_4  and  C_18
    2  A    between atoms: C_4  and  S_25
    3  A    between atoms: C_5  and  C_23
    4  A    between atoms: C_12  and  C_27
    5  A    between atoms: N_17  and  C_26
    6  A    between atoms: C_18  and  C_27
    7  A    between atoms: S_25  and  C_26
                            x       y       z     vdW  Elec       q    Type
                         _______ _______ _______ _____ _____    ______ ____

>  <TORSDO>
F 7

$$$$
=
 OpenBabel10222416573D

 28 31  0  0  0  0  0  0  0  0999 V2000
  185.5840  178.4200  143.8920 N   0  0  0  0  0  0  0  0  0  0  0  0
  187.9110  177.5610  146.6440 C   0  0  0  0  0  3  0  0  0  0  0  0
  184.1880  178.8150  143.8370 C   0  0  0  0  0  3  0  0  0  0  0  0
  186.4150  178.2120  142.8080 C   0  0  0  0  0  0  0  0  0  0  0  0
  191.6260  176.4980  145.0860 C   0  0  0  0  0  3  0  0  0  0  0  0
  184.9090  178.4920  146.1680 C   0  0  0  0  0  3  0  0  0  0  0  0
  188.1590  177.6070  144.3380 C   0  0  0  0  0  0  0  0  0  0  0  0
  190.2570  176.8150  147.0900 C   0  0  0  0  0  3  0  0  0  0  0  0
  187.2640  177.8240  145.4450 C   0  0  0  0  0  0  0  0  0  0  0  0
  187.7490  177.7990  143.0240 C   0  0  0  0  0  3  0  0  0  0  0  0
  185.9700  178.2350  145.1740 C   0  0  0  0  0  0  0  0  0  0  0  0
  189.1990  177.1850  146.2610 C   0  0  0  0  0  0  0  0  0  0  0  0
  183.7170  178.8900  145.2950 C   0  0  0  0  0  3  0  0  0  0  0  0
  191.4810  176.4690  146.4890 C   0  0  0  0  0  3  0  0  0  0  0  0
  190.5510  176.8720  144.2630 C   0  0  0  0  0  2  0  0  0  0  0  0
  189.3510  177.2110  144.8830 C   0  0  0  0  0  0  0  0  0  0  0  0
  186.8520  178.5740  140.3150 N   0  0  0  0  0  2  0  0  0  0  0  0
  185.9480  178.4590  141.4210 C   0  0  0  0  0  0  0  0  0  0  0  0
  184.7150  178.5850  141.2000 O   0  0  0  0  0  0  0  0  0  0  0  0
  188.2680  178.2510  140.3780 C   0  0  0  0  0  2  0  0  0  0  0  0
  189.0310  178.5200  138.7520 S   0  0  0  0  0  0  0  0  0  0  0  0
  189.5020  176.7740  138.5800 C   0  0  0  0  0  2  0  0  0  0  0  0
  190.8300  176.5270  139.2720 C   0  0  0  0  0  2  0  0  0  0  0  0
  191.4330  175.1670  137.3510 C   0  0  0  0  0  2  0  0  0  0  0  0
  191.8330  176.0090  138.2960 C   0  0  0  0  0  0  0  0  0  0  0  0
  193.2550  176.3740  138.4160 C   0  0  0  0  0  0  0  0  0  0  0  0
  193.6290  177.1850  139.3040 O   0  0  0  0  0  1  0  0  0  0  0  0
  194.1970  175.8290  137.5500 O   0  0  0  0  0  0  0  0  0  0  0  0
  1 11  1  0  0  0  0
  3  1  1  0  0  0  0
  3 13  2  0  0  0  0
  4 10  2  0  0  0  0
  4  1  1  0  0  0  0
  5 14  2  0  0  0  0
  7 16  2  0  0  0  0
  7  9  1  0  0  0  0
  9  2  2  0  0  0  0
 10  7  1  0  0  0  0
 11  9  1  0  0  0  0
 11  6  2  0  0  0  0
 12  2  1  0  0  0  0
 12  8  2  0  0  0  0
 13  6  1  0  0  0  0
 14  8  1  0  0  0  0
 15 16  1  0  0  0  0
 15  5  1  0  0  0  0
 16 12  1  0  0  0  0
 17 20  1  0  0  0  0
 17 18  1  0  0  0  0
 18  4  1  0  0  0  0
 19 18  2  0  0  0  0
 21 20  1  0  0  0  0
 22 21  1  0  0  0  0
 22 23  1  0  0  0  0
 24 25  2  0  0  0  0
 25 26  1  0  0  0  0
 25 23  1  0  0  0  0
 26 27  1  0  0  0  0
 28 26  2  0  0  0  0
M  END
>  <MODEL>
7

>  <REMARK>
 VINA RESULT:      -8.6      2.026      4.412
  Name = 
  7 active torsions:
  status: ('A' for Active; 'I' for Inactive)
    1  A    between atoms: C_4  and  C_18
    2  A    between atoms: C_4  and  S_25
    3  A    between atoms: C_5  and  C_23
    4  A    between atoms: C_12  and  C_27
    5  A    between atoms: N_17  and  C_26
    6  A    between atoms: C_18  and  C_27
    7  A    between atoms: S_25  and  C_26
                            x       y       z     vdW  Elec       q    Type
                         _______ _______ _______ _____ _____    ______ ____

>  <TORSDO>
F 7

$$$$
=
 OpenBabel10222416573D

 28 31  0  0  0  0  0  0  0  0999 V2000
  183.5550  178.8010  142.2920 N   0  0  0  0  0  0  0  0  0  0  0  0
  185.6410  178.0590  145.2640 C   0  0  0  0  0  3  0  0  0  0  0  0
  182.1430  179.0770  142.0940 C   0  0  0  0  0  3  0  0  0  0  0  0
  184.5120  178.6980  141.3020 C   0  0  0  0  0  0  0  0  0  0  0  0
  189.5800  177.3660  144.0980 C   0  0  0  0  0  3  0  0  0  0  0  0
  182.6370  178.7450  144.4820 C   0  0  0  0  0  3  0  0  0  0  0  0
  186.1290  178.1970  142.9990 C   0  0  0  0  0  0  0  0  0  0  0  0
  187.9820  177.5030  145.9460 C   0  0  0  0  0  3  0  0  0  0  0  0
  185.1050  178.3030  144.0070 C   0  0  0  0  0  0  0  0  0  0  0  0
  185.8470  178.3940  141.6530 C   0  0  0  0  0  3  0  0  0  0  0  0
  183.8160  178.6100  143.6050 C   0  0  0  0  0  0  0  0  0  0  0  0
  186.9900  177.8070  145.0160 C   0  0  0  0  0  0  0  0  0  0  0  0
  181.5150  179.0660  143.4930 C   0  0  0  0  0  3  0  0  0  0  0  0
  189.2890  177.2810  145.4750 C   0  0  0  0  0  3  0  0  0  0  0  0
  188.5710  177.6720  143.1700 C   0  0  0  0  0  2  0  0  0  0  0  0
  187.2860  177.8880  143.6630 C   0  0  0  0  0  0  0  0  0  0  0  0
  183.6060  177.9360  139.0360 N   0  0  0  0  0  2  0  0  0  0  0  0
  184.1750  178.9460  139.8780 C   0  0  0  0  0  0  0  0  0  0  0  0
  184.4060  180.0790  139.3790 O   0  0  0  0  0  0  0  0  0  0  0  0
  183.0980  176.6610  139.5160 C   0  0  0  0  0  2  0  0  0  0  0  0
  183.1210  175.4450  138.1670 S   0  0  0  0  0  0  0  0  0  0  0  0
  184.1230  176.5140  137.0940 C   0  0  0  0  0  2  0  0  0  0  0  0
  185.5340  175.9640  136.9910 C   0  0  0  0  0  2  0  0  0  0  0  0
  186.5740  177.6730  135.6120 C   0  0  0  0  0  2  0  0  0  0  0  0
  186.5100  177.0770  136.7960 C   0  0  0  0  0  0  0  0  0  0  0  0
  187.4300  177.4660  137.8780 C   0  0  0  0  0  0  0  0  0  0  0  0
  187.3450  178.6080  138.4030 O   0  0  0  0  0  1  0  0  0  0  0  0
  188.4020  176.5800  138.3290 O   0  0  0  0  0  0  0  0  0  0  0  0
  1 11  1  0  0  0  0
  3  1  1  0  0  0  0
  3 13  2  0  0  0  0
  4 10  2  0  0  0  0
  4  1  1  0  0  0  0
  5 14  2  0  0  0  0
  7 16  2  0  0  0  0
  7  9  1  0  0  0  0
  9  2  2  0  0  0  0
 10  7  1  0  0  0  0
 11  9  1  0  0  0  0
 11  6  2  0  0  0  0
 12  2  1  0  0  0  0
 12  8  2  0  0  0  0
 13  6  1  0  0  0  0
 14  8  1  0  0  0  0
 15 16  1  0  0  0  0
 15  5  1  0  0  0  0
 16 12  1  0  0  0  0
 17 20  1  0  0  0  0
 17 18  1  0  0  0  0
 18  4  1  0  0  0  0
 19 18  2  0  0  0  0
 21 20  1  0  0  0  0
 22 21  1  0  0  0  0
 23 22  1  0  0  0  0
 24 25  2  0  0  0  0
 25 23  1  0  0  0  0
 25 26  1  0  0  0  0
 26 28  2  0  0  0  0
 26 27  1  0  0  0  0
M  END
>  <MODEL>
8

>  <REMARK>
 VINA RESULT:      -8.5      3.954      6.009
  Name = 
  7 active torsions:
  status: ('A' for Active; 'I' for Inactive)
    1  A    between atoms: C_4  and  C_18
    2  A    between atoms: C_4  and  S_25
    3  A    between atoms: C_5  and  C_23
    4  A    between atoms: C_12  and  C_27
    5  A    between atoms: N_17  and  C_26
    6  A    between atoms: C_18  and  C_27
    7  A    between atoms: S_25  and  C_26
                            x       y       z     vdW  Elec       q    Type
                         _______ _______ _______ _____ _____    ______ ____

>  <TORSDO>
F 7

$$$$
=
 OpenBabel10222416573D

 28 31  0  0  0  0  0  0  0  0999 V2000
  185.4610  178.6250  143.1970 N   0  0  0  0  0  0  0  0  0  0  0  0
  186.9270  177.7530  146.4870 C   0  0  0  0  0  3  0  0  0  0  0  0
  184.1280  178.9880  142.7500 C   0  0  0  0  0  3  0  0  0  0  0  0
  186.5740  178.4660  142.3940 C   0  0  0  0  0  0  0  0  0  0  0  0
  190.9630  176.8220  146.0430 C   0  0  0  0  0  3  0  0  0  0  0  0
  184.1600  178.6220  145.1840 C   0  0  0  0  0  3  0  0  0  0  0  0
  187.8240  177.8640  144.3490 C   0  0  0  0  0  0  0  0  0  0  0  0
  189.0680  177.0530  147.5730 C   0  0  0  0  0  3  0  0  0  0  0  0
  186.6420  178.0310  145.1560 C   0  0  0  0  0  0  0  0  0  0  0  0
  187.8020  178.0800  142.9770 C   0  0  0  0  0  3  0  0  0  0  0  0
  185.4680  178.4170  144.5330 C   0  0  0  0  0  0  0  0  0  0  0  0
  188.2810  177.4190  146.4830 C   0  0  0  0  0  0  0  0  0  0  0  0
  183.2570  179.0130  144.0130 C   0  0  0  0  0  3  0  0  0  0  0  0
  190.4230  176.7530  147.3440 C   0  0  0  0  0  3  0  0  0  0  0  0
  190.1580  177.1910  144.9520 C   0  0  0  0  0  2  0  0  0  0  0  0
  188.8210  177.4840  145.2070 C   0  0  0  0  0  0  0  0  0  0  0  0
  187.5700  178.3570  140.0430 N   0  0  0  0  0  2  0  0  0  0  0  0
  186.5160  178.7370  140.9360 C   0  0  0  0  0  0  0  0  0  0  0  0
  185.5150  179.3330  140.4590 O   0  0  0  0  0  0  0  0  0  0  0  0
  188.6800  177.4920  140.4060 C   0  0  0  0  0  2  0  0  0  0  0  0
  189.9960  177.6260  139.1610 S   0  0  0  0  0  0  0  0  0  0  0  0
  188.9690  178.6280  138.0470 C   0  0  0  0  0  2  0  0  0  0  0  0
  189.0090  178.0460  136.6460 C   0  0  0  0  0  2  0  0  0  0  0  0
  187.1430  178.2530  135.1040 C   0  0  0  0  0  2  0  0  0  0  0  0
  187.6330  177.6830  136.1970 C   0  0  0  0  0  0  0  0  0  0  0  0
  186.8060  176.7560  136.9880 C   0  0  0  0  0  0  0  0  0  0  0  0
  185.6980  177.1350  137.4550 O   0  0  0  0  0  1  0  0  0  0  0  0
  187.2390  175.4570  137.2310 O   0  0  0  0  0  0  0  0  0  0  0  0
  1 11  1  0  0  0  0
  3  1  1  0  0  0  0
  3 13  2  0  0  0  0
  4 10  2  0  0  0  0
  4  1  1  0  0  0  0
  5 14  2  0  0  0  0
  7  9  1  0  0  0  0
  7 16  2  0  0  0  0
  9  2  2  0  0  0  0
 10  7  1  0  0  0  0
 11  9  1  0  0  0  0
 11  6  2  0  0  0  0
 12  2  1  0  0  0  0
 12  8  2  0  0  0  0
 13  6  1  0  0  0  0
 14  8  1  0  0  0  0
 15 16  1  0  0  0  0
 15  5  1  0  0  0  0
 16 12  1  0  0  0  0
 17 20  1  0  0  0  0
 17 18  1  0  0  0  0
 18  4  1  0  0  0  0
 19 18  2  0  0  0  0
 21 20  1  0  0  0  0
 22 21  1  0  0  0  0
 23 22  1  0  0  0  0
 24 25  2  0  0  0  0
 25 23  1  0  0  0  0
 25 26  1  0  0  0  0
 26 28  2  0  0  0  0
 26 27  1  0  0  0  0
M  END
>  <MODEL>
9

>  <REMARK>
 VINA RESULT:      -8.4      3.116      5.188
  Name = 
  7 active torsions:
  status: ('A' for Active; 'I' for Inactive)
    1  A    between atoms: C_4  and  C_18
    2  A    between atoms: C_4  and  S_25
    3  A    between atoms: C_5  and  C_23
    4  A    between atoms: C_12  and  C_27
    5  A    between atoms: N_17  and  C_26
    6  A    between atoms: C_18  and  C_27
    7  A    between atoms: S_25  and  C_26
                            x       y       z     vdW  Elec       q    Type
                         _______ _______ _______ _____ _____    ______ ____

>  <TORSDO>
F 7

$$$$
