=
 OpenBabel10222418473D

 29 33  0  0  1  0  0  0  0  0999 V2000
  185.3020  179.6370  142.1610 O   0  0  0  0  0  1  0  0  0  0  0  0
  187.8660  178.2080  139.2050 N   0  0  0  0  0  0  0  0  0  0  0  0
  188.8140  178.1820  138.1000 C   0  0  1  0  0  3  0  0  0  0  0  0
  189.1050  174.6430  136.5780 C   0  0  0  0  0  1  0  0  0  0  0  0
  189.3650  176.7640  137.9010 C   0  0  1  0  0  3  0  0  0  0  0  0
  188.7970  176.1280  136.6190 C   0  0  2  0  0  3  0  0  0  0  0  0
  185.8930  177.8780  137.6030 C   0  0  1  0  0  3  0  0  0  0  0  0
  185.5860  178.6280  140.0280 C   0  0  0  0  0  0  0  0  0  0  0  0
  187.5430  178.8690  141.4820 C   0  0  0  0  0  3  0  0  0  0  0  0
  183.5790  176.9030  138.3080 C   0  0  0  0  0  0  0  0  0  0  0  0
  183.3940  177.5800  139.6310 C   0  0  0  0  0  2  0  0  0  0  0  0
  187.0020  177.6850  136.5320 C   0  0  1  0  0  0  0  0  0  0  0  0
  184.6870  176.9480  137.4390 C   0  0  0  0  0  0  0  0  0  0  0  0
  186.1060  179.0290  141.2020 C   0  0  0  0  0  0  0  0  0  0  0  0
  186.4420  177.8300  139.0590 C   0  0  2  0  0  3  0  0  0  0  0  0
  186.4710  178.0520  135.1560 C   0  0  0  0  0  1  0  0  0  0  0  0
  184.1450  178.8910  139.7270 C   0  0  0  0  0  2  0  0  0  0  0  0
  188.1280  178.6790  136.8430 C   0  0  0  0  0  2  0  0  0  0  0  0
  182.4730  175.7770  137.7330 S   0  0  0  0  0  0  0  0  0  0  0  0
  183.3480  175.3600  136.3710 C   0  0  0  0  0  0  0  0  0  0  0  0
  188.3760  178.4930  140.5130 C   0  0  0  0  0  3  0  0  0  0  0  0
  184.5300  176.0790  136.3400 C   0  0  0  0  0  3  0  0  0  0  0  0
  187.3990  176.3100  136.5360 O   0  0  0  0  0  0  0  0  0  0  0  0
  191.1400  176.6250  140.1350 O   0  0  0  0  0  1  0  0  0  0  0  0
  190.8180  176.8290  137.8290 N   0  0  0  0  0  2  0  0  0  0  0  0
  193.0290  176.7530  138.8450 O   0  0  0  0  0  0  0  0  0  0  0  0
  191.6490  176.7270  138.9860 C   0  0  0  0  0  0  0  0  0  0  0  0
  182.9380  174.3990  135.3870 C   0  0  0  0  0  0  0  0  0  0  0  0
  182.6070  173.6250  134.5940 N   0  0  0  0  0  0  0  0  0  0  0  0
  2 21  1  0  0  0  0
  3 18  1  6  0  0  0
  3  2  1  0  0  0  0
  5 25  1  6  0  0  0
  5  3  1  0  0  0  0
  6  4  1  1  0  0  0
  6  5  1  0  0  0  0
  7 13  1  1  0  0  0
  7 15  1  0  0  0  0
  8 14  2  0  0  0  0
 10 11  1  0  0  0  0
 11 17  1  0  0  0  0
 12 16  1  6  0  0  0
 12 23  1  0  0  0  0
 12 18  1  0  0  0  0
 12  7  1  0  0  0  0
 13 10  2  0  0  0  0
 14  9  1  0  0  0  0
 14  1  1  0  0  0  0
 15  2  1  0  0  0  0
 15  8  1  1  0  0  0
 17  8  1  0  0  0  0
 19 10  1  0  0  0  0
 20 19  1  0  0  0  0
 21  9  2  0  0  0  0
 22 20  2  0  0  0  0
 22 13  1  0  0  0  0
 23  6  1  0  0  0  0
 25 27  1  0  0  0  0
 26 27  2  0  0  0  0
 27 24  1  0  0  0  0
 28 20  1  0  0  0  0
 29 28  3  0  0  0  0
M  END
>  <MODEL>
1

>  <REMARK>
 VINA RESULT:      -6.0      0.000      0.000
  Name = 
  2 active torsions:
  status: ('A' for Active; 'I' for Inactive)
    1  A    between atoms: C_6  and  N_16
    2  A    between atoms: C_23  and  C_26
                            x       y       z     vdW  Elec       q    Type
                         _______ _______ _______ _____ _____    ______ ____

>  <TORSDO>
F 2

$$$$
=
 OpenBabel10222418473D

 29 33  0  0  1  0  0  0  0  0999 V2000
  189.7830  178.1110  142.9070 O   0  0  0  0  0  1  0  0  0  0  0  0
  189.5750  177.0730  138.8790 N   0  0  0  0  0  0  0  0  0  0  0  0
  189.8100  177.0800  137.4400 C   0  0  1  0  0  3  0  0  0  0  0  0
  187.2340  174.8800  135.5830 C   0  0  0  0  0  1  0  0  0  0  0  0
  189.2260  175.8160  136.7970 C   0  0  1  0  0  3  0  0  0  0  0  0
  187.9700  176.1490  135.9710 C   0  0  2  0  0  3  0  0  0  0  0  0
  187.4290  178.4450  138.5980 C   0  0  1  0  0  3  0  0  0  0  0  0
  188.5690  178.1200  140.8630 C   0  0  0  0  0  0  0  0  0  0  0  0
  190.5960  176.7530  141.0190 C   0  0  0  0  0  3  0  0  0  0  0  0
  185.4800  178.4880  140.3310 C   0  0  0  0  0  0  0  0  0  0  0  0
  186.2590  178.5260  141.6100 C   0  0  0  0  0  2  0  0  0  0  0  0
  187.6810  178.2330  137.0800 C   0  0  1  0  0  0  0  0  0  0  0  0
  185.9550  178.3730  139.0100 C   0  0  0  0  0  0  0  0  0  0  0  0
  189.6050  177.6770  141.5970 C   0  0  0  0  0  0  0  0  0  0  0  0
  188.3050  177.5200  139.4930 C   0  0  2  0  0  3  0  0  0  0  0  0
  187.0460  179.3590  136.2810 C   0  0  0  0  0  1  0  0  0  0  0  0
  187.6340  179.1360  141.4390 C   0  0  0  0  0  2  0  0  0  0  0  0
  189.1940  178.3290  136.8420 C   0  0  0  0  0  2  0  0  0  0  0  0
  183.8030  178.3950  140.3240 S   0  0  0  0  0  0  0  0  0  0  0  0
  183.6480  178.2470  138.6660 C   0  0  0  0  0  0  0  0  0  0  0  0
  190.5810  176.4870  139.7130 C   0  0  0  0  0  3  0  0  0  0  0  0
  184.9010  178.2530  138.0800 C   0  0  0  0  0  3  0  0  0  0  0  0
  187.0920  176.9870  136.6940 O   0  0  0  0  0  0  0  0  0  0  0  0
  191.0340  173.7530  137.5940 O   0  0  0  0  0  1  0  0  0  0  0  0
  190.2410  175.2090  135.9470 N   0  0  0  0  0  2  0  0  0  0  0  0
  192.0140  173.5940  135.5300 O   0  0  0  0  0  0  0  0  0  0  0  0
  191.0960  174.1610  136.4030 C   0  0  0  0  0  0  0  0  0  0  0  0
  182.4050  178.1280  137.9590 C   0  0  0  0  0  0  0  0  0  0  0  0
  181.4030  178.0310  137.3890 N   0  0  0  0  0  0  0  0  0  0  0  0
  2 15  1  0  0  0  0
  2 21  1  0  0  0  0
  3 18  1  6  0  0  0
  3  2  1  0  0  0  0
  5 25  1  6  0  0  0
  5  3  1  0  0  0  0
  6  4  1  1  0  0  0
  6 23  1  0  0  0  0
  6  5  1  0  0  0  0
  7 13  1  6  0  0  0
  7 15  1  0  0  0  0
  8 17  1  0  0  0  0
  8 14  2  0  0  0  0
  9 14  1  0  0  0  0
 10 11  1  0  0  0  0
 12 16  1  6  0  0  0
 12  7  1  0  0  0  0
 13 10  2  0  0  0  0
 14  1  1  0  0  0  0
 15  8  1  1  0  0  0
 17 11  1  0  0  0  0
 18 12  1  0  0  0  0
 19 10  1  0  0  0  0
 20 19  1  0  0  0  0
 21  9  2  0  0  0  0
 22 20  2  0  0  0  0
 22 13  1  0  0  0  0
 23 12  1  0  0  0  0
 25 27  1  0  0  0  0
 26 27  2  0  0  0  0
 27 24  1  0  0  0  0
 28 20  1  0  0  0  0
 29 28  3  0  0  0  0
M  END
>  <MODEL>
2

>  <REMARK>
 VINA RESULT:      -5.7      2.343      3.144
  Name = 
  2 active torsions:
  status: ('A' for Active; 'I' for Inactive)
    1  A    between atoms: C_6  and  N_16
    2  A    between atoms: C_23  and  C_26
                            x       y       z     vdW  Elec       q    Type
                         _______ _______ _______ _____ _____    ______ ____

>  <TORSDO>
F 2

$$$$
=
 OpenBabel10222418473D

 29 33  0  0  1  0  0  0  0  0999 V2000
  182.5500  179.0340  144.6020 O   0  0  0  0  0  1  0  0  0  0  0  0
  184.3770  178.9320  140.8600 N   0  0  0  0  0  0  0  0  0  0  0  0
  184.9590  179.3720  139.5990 C   0  0  1  0  0  3  0  0  0  0  0  0
  185.4340  176.4150  137.1590 C   0  0  0  0  0  1  0  0  0  0  0  0
  185.6750  178.2070  138.9050 C   0  0  1  0  0  3  0  0  0  0  0  0
  184.8900  177.7370  137.6670 C   0  0  2  0  0  3  0  0  0  0  0  0
  182.1220  178.4750  139.7310 C   0  0  1  0  0  3  0  0  0  0  0  0
  182.3900  178.5980  142.2710 C   0  0  0  0  0  0  0  0  0  0  0  0
  184.6040  178.9980  143.2410 C   0  0  0  0  0  3  0  0  0  0  0  0
  180.3190  176.8380  140.6650 C   0  0  0  0  0  0  0  0  0  0  0  0
  180.4010  177.1550  142.1270 C   0  0  0  0  0  2  0  0  0  0  0  0
  182.8950  178.7890  138.4210 C   0  0  1  0  0  0  0  0  0  0  0  0
  181.1060  177.3350  139.6080 C   0  0  0  0  0  0  0  0  0  0  0  0
  183.1420  178.8570  143.3560 C   0  0  0  0  0  0  0  0  0  0  0  0
  183.0620  178.2570  140.9520 C   0  0  2  0  0  3  0  0  0  0  0  0
  181.9360  179.2980  137.3560 C   0  0  0  0  0  1  0  0  0  0  0  0
  180.9000  178.5590  142.3940 C   0  0  0  0  0  2  0  0  0  0  0  0
  183.8650  179.9400  138.7170 C   0  0  0  0  0  2  0  0  0  0  0  0
  179.3160  175.6240  140.0820 S   0  0  0  0  0  0  0  0  0  0  0  0
  179.8260  175.7310  138.4940 C   0  0  0  0  0  0  0  0  0  0  0  0
  185.1790  179.0510  142.0400 C   0  0  0  0  0  3  0  0  0  0  0  0
  180.8010  176.7060  138.3830 C   0  0  0  0  0  3  0  0  0  0  0  0
  183.5170  177.5850  137.9630 O   0  0  0  0  0  0  0  0  0  0  0  0
  188.0810  177.6270  140.3330 O   0  0  0  0  0  1  0  0  0  0  0  0
  187.0110  178.6390  138.5180 N   0  0  0  0  0  2  0  0  0  0  0  0
  189.4270  178.6970  138.8200 O   0  0  0  0  0  0  0  0  0  0  0  0
  188.1770  178.2900  139.2660 C   0  0  0  0  0  0  0  0  0  0  0  0
  179.3320  174.9290  137.4110 C   0  0  0  0  0  0  0  0  0  0  0  0
  178.9350  174.2820  136.5380 N   0  0  0  0  0  0  0  0  0  0  0  0
  2 15  1  0  0  0  0
  2 21  1  0  0  0  0
  3 18  1  6  0  0  0
  3  2  1  0  0  0  0
  5 25  1  6  0  0  0
  5  3  1  0  0  0  0
  6  4  1  1  0  0  0
  6 23  1  0  0  0  0
  6  5  1  0  0  0  0
  7 13  1  6  0  0  0
  7 15  1  0  0  0  0
  8 17  1  0  0  0  0
  8 14  2  0  0  0  0
  9 14  1  0  0  0  0
 10 11  1  0  0  0  0
 11 17  1  0  0  0  0
 12 16  1  6  0  0  0
 12 18  1  0  0  0  0
 12  7  1  0  0  0  0
 13 10  2  0  0  0  0
 14  1  1  0  0  0  0
 15  8  1  1  0  0  0
 19 10  1  0  0  0  0
 20 19  1  0  0  0  0
 21  9  2  0  0  0  0
 22 20  2  0  0  0  0
 22 13  1  0  0  0  0
 23 12  1  0  0  0  0
 25 27  1  0  0  0  0
 26 27  2  0  0  0  0
 27 24  1  0  0  0  0
 28 20  1  0  0  0  0
 29 28  3  0  0  0  0
M  END
>  <MODEL>
3

>  <REMARK>
 VINA RESULT:      -5.6      2.901      4.118
  Name = 
  2 active torsions:
  status: ('A' for Active; 'I' for Inactive)
    1  A    between atoms: C_6  and  N_16
    2  A    between atoms: C_23  and  C_26
                            x       y       z     vdW  Elec       q    Type
                         _______ _______ _______ _____ _____    ______ ____

>  <TORSDO>
F 2

$$$$
=
 OpenBabel10222418473D

 29 33  0  0  1  0  0  0  0  0999 V2000
  185.3090  179.1770  139.9100 O   0  0  0  0  0  1  0  0  0  0  0  0
  188.4290  178.0130  142.4120 N   0  0  0  0  0  0  0  0  0  0  0  0
  189.5690  178.0840  143.3170 C   0  0  1  0  0  3  0  0  0  0  0  0
  191.2850  174.6440  143.6930 C   0  0  0  0  0  1  0  0  0  0  0  0
  189.8630  176.7040  143.9170 C   0  0  1  0  0  3  0  0  0  0  0  0
  191.1550  176.1100  143.3260 C   0  0  2  0  0  3  0  0  0  0  0  0
  189.9730  177.6800  140.3930 C   0  0  1  0  0  3  0  0  0  0  0  0
  187.5020  178.2910  140.1510 C   0  0  0  0  0  0  0  0  0  0  0  0
  186.1110  178.5420  142.1520 C   0  0  0  0  0  3  0  0  0  0  0  0
  189.2350  176.5720  138.1500 C   0  0  0  0  0  0  0  0  0  0  0  0
  187.8720  177.1720  137.9900 C   0  0  0  0  0  2  0  0  0  0  0  0
  191.0930  177.5900  141.4660 C   0  0  1  0  0  0  0  0  0  0  0  0
  190.1410  176.7090  139.2210 C   0  0  0  0  0  0  0  0  0  0  0  0
  186.3290  178.6540  140.6990 C   0  0  0  0  0  0  0  0  0  0  0  0
  188.5420  177.5820  141.0000 C   0  0  2  0  0  3  0  0  0  0  0  0
  192.4270  178.0040  140.8670 C   0  0  0  0  0  1  0  0  0  0  0  0
  187.7360  178.5070  138.6900 C   0  0  0  0  0  2  0  0  0  0  0  0
  190.7720  178.6150  142.5620 C   0  0  0  0  0  2  0  0  0  0  0  0
  189.8280  175.4300  137.0700 S   0  0  0  0  0  0  0  0  0  0  0  0
  191.2410  175.1220  137.9070 C   0  0  0  0  0  0  0  0  0  0  0  0
  187.1290  178.2530  142.9610 C   0  0  0  0  0  3  0  0  0  0  0  0
  191.2780  175.8910  139.0560 C   0  0  0  0  0  3  0  0  0  0  0  0
  191.1760  176.2360  141.9190 O   0  0  0  0  0  0  0  0  0  0  0  0
  187.6980  177.1470  145.7270 O   0  0  0  0  0  0  0  0  0  0  0  0
  189.9850  176.8350  145.3620 N   0  0  0  0  0  2  0  0  0  0  0  0
  189.0340  177.1040  147.5870 O   0  0  0  0  0  1  0  0  0  0  0  0
  188.8550  177.0300  146.2130 C   0  0  0  0  0  0  0  0  0  0  0  0
  192.2590  174.1960  137.4990 C   0  0  0  0  0  0  0  0  0  0  0  0
  193.0790  173.4490  137.1700 N   0  0  0  0  0  0  0  0  0  0  0  0
  1 14  1  0  0  0  0
  2 21  1  0  0  0  0
  2  3  1  0  0  0  0
  3 18  1  6  0  0  0
  3  5  1  0  0  0  0
  5 25  1  1  0  0  0
  6  4  1  6  0  0  0
  6  5  1  0  0  0  0
  7 13  1  6  0  0  0
  7 15  1  0  0  0  0
  7 12  1  0  0  0  0
  8 14  2  0  0  0  0
  9 21  2  0  0  0  0
 10 13  2  0  0  0  0
 11 10  1  0  0  0  0
 11 17  1  0  0  0  0
 12 16  1  6  0  0  0
 12 23  1  0  0  0  0
 12 18  1  0  0  0  0
 14  9  1  0  0  0  0
 15  8  1  6  0  0  0
 15  2  1  0  0  0  0
 17  8  1  0  0  0  0
 19 20  1  0  0  0  0
 19 10  1  0  0  0  0
 20 22  2  0  0  0  0
 22 13  1  0  0  0  0
 23  6  1  0  0  0  0
 24 27  2  0  0  0  0
 25 27  1  0  0  0  0
 27 26  1  0  0  0  0
 28 20  1  0  0  0  0
 29 28  3  0  0  0  0
M  END
>  <MODEL>
4

>  <REMARK>
 VINA RESULT:      -5.6      3.744      6.327
  Name = 
  2 active torsions:
  status: ('A' for Active; 'I' for Inactive)
    1  A    between atoms: C_6  and  N_16
    2  A    between atoms: C_23  and  C_26
                            x       y       z     vdW  Elec       q    Type
                         _______ _______ _______ _____ _____    ______ ____

>  <TORSDO>
F 2

$$$$
=
 OpenBabel10222418473D

 29 33  0  0  1  0  0  0  0  0999 V2000
  187.9930  176.4690  135.2940 O   0  0  0  0  0  1  0  0  0  0  0  0
  183.9970  176.4120  136.4660 N   0  0  0  0  0  0  0  0  0  0  0  0
  182.5630  176.6740  136.4870 C   0  0  1  0  0  3  0  0  0  0  0  0
  180.9880  175.6170  139.8520 C   0  0  0  0  0  1  0  0  0  0  0  0
  181.8670  175.7590  137.5020 C   0  0  1  0  0  3  0  0  0  0  0  0
  181.4050  176.5560  138.7360 C   0  0  2  0  0  3  0  0  0  0  0  0
  184.4280  178.2880  138.1580 C   0  0  1  0  0  3  0  0  0  0  0  0
  186.2990  177.2150  136.7860 C   0  0  0  0  0  0  0  0  0  0  0  0
  185.7750  175.3990  135.2280 C   0  0  0  0  0  3  0  0  0  0  0  0
  186.5330  178.4230  139.6920 C   0  0  0  0  0  0  0  0  0  0  0  0
  187.5960  177.9930  138.7280 C   0  0  0  0  0  2  0  0  0  0  0  0
  182.8780  178.3560  138.2380 C   0  0  1  0  0  0  0  0  0  0  0  0
  185.1380  178.4860  139.5010 C   0  0  0  0  0  0  0  0  0  0  0  0
  186.7020  176.3860  135.8060 C   0  0  0  0  0  0  0  0  0  0  0  0
  184.9430  177.0080  137.4370 C   0  0  2  0  0  3  0  0  0  0  0  0
  182.4350  179.7480  138.6580 C   0  0  0  0  0  1  0  0  0  0  0  0
  187.2260  178.2750  137.2880 C   0  0  0  0  0  2  0  0  0  0  0  0
  182.3290  178.1340  136.8220 C   0  0  0  0  0  2  0  0  0  0  0  0
  186.8820  178.7410  141.3040 S   0  0  0  0  0  0  0  0  0  0  0  0
  185.2990  178.9980  141.7740 C   0  0  0  0  0  0  0  0  0  0  0  0
  184.4800  175.4340  135.5380 C   0  0  0  0  0  3  0  0  0  0  0  0
  184.4590  178.8280  140.6880 C   0  0  0  0  0  3  0  0  0  0  0  0
  182.4330  177.4030  139.2080 O   0  0  0  0  0  0  0  0  0  0  0  0
  181.7390  173.0260  136.6810 O   0  0  0  0  0  1  0  0  0  0  0  0
  180.7250  175.1250  136.8580 N   0  0  0  0  0  2  0  0  0  0  0  0
  179.5830  173.1880  135.9250 O   0  0  0  0  0  0  0  0  0  0  0  0
  180.7190  173.7430  136.4960 C   0  0  0  0  0  0  0  0  0  0  0  0
  184.8750  179.3380  143.1020 C   0  0  0  0  0  0  0  0  0  0  0  0
  184.5330  179.6130  144.1730 N   0  0  0  0  0  0  0  0  0  0  0  0
  1 14  1  0  0  0  0
  2  3  1  0  0  0  0
  2 15  1  0  0  0  0
  3 18  1  1  0  0  0
  3  5  1  0  0  0  0
  5 25  1  6  0  0  0
  5  6  1  0  0  0  0
  6 23  1  0  0  0  0
  6  4  1  1  0  0  0
  7 12  1  0  0  0  0
  7 13  1  1  0  0  0
  8 17  1  0  0  0  0
  9 21  2  0  0  0  0
  9 14  1  0  0  0  0
 10 19  1  0  0  0  0
 11 10  1  0  0  0  0
 12 16  1  1  0  0  0
 12 23  1  0  0  0  0
 13 10  2  0  0  0  0
 13 22  1  0  0  0  0
 14  8  2  0  0  0  0
 15  8  1  6  0  0  0
 15  7  1  0  0  0  0
 17 11  1  0  0  0  0
 18 12  1  0  0  0  0
 19 20  1  0  0  0  0
 20 28  1  0  0  0  0
 21  2  1  0  0  0  0
 22 20  2  0  0  0  0
 26 27  2  0  0  0  0
 27 24  1  0  0  0  0
 27 25  1  0  0  0  0
 28 29  3  0  0  0  0
M  END
>  <MODEL>
5

>  <REMARK>
 VINA RESULT:      -5.4      3.224      7.313
  Name = 
  2 active torsions:
  status: ('A' for Active; 'I' for Inactive)
    1  A    between atoms: C_6  and  N_16
    2  A    between atoms: C_23  and  C_26
                            x       y       z     vdW  Elec       q    Type
                         _______ _______ _______ _____ _____    ______ ____

>  <TORSDO>
F 2

$$$$
=
 OpenBabel10222418473D

 29 33  0  0  1  0  0  0  0  0999 V2000
  187.1960  178.3730  139.0340 O   0  0  0  0  0  1  0  0  0  0  0  0
  183.3690  177.3580  137.7410 N   0  0  0  0  0  0  0  0  0  0  0  0
  182.1240  177.3620  136.9830 C   0  0  1  0  0  3  0  0  0  0  0  0
  179.4010  175.2550  138.7340 C   0  0  0  0  0  1  0  0  0  0  0  0
  181.2890  176.1210  137.3180 C   0  0  1  0  0  3  0  0  0  0  0  0
  180.0560  176.4970  138.1610 C   0  0  2  0  0  3  0  0  0  0  0  0
  182.3240  178.8000  139.5840 C   0  0  1  0  0  3  0  0  0  0  0  0
  184.8460  178.4300  139.3890 C   0  0  0  0  0  0  0  0  0  0  0  0
  185.7300  176.9960  137.6110 C   0  0  0  0  0  3  0  0  0  0  0  0
  183.1970  178.9020  142.0390 C   0  0  0  0  0  0  0  0  0  0  0  0
  184.6760  178.9090  141.7980 C   0  0  0  0  0  2  0  0  0  0  0  0
  181.0080  178.5850  138.7850 C   0  0  1  0  0  0  0  0  0  0  0  0
  182.1500  178.7750  141.1050 C   0  0  0  0  0  0  0  0  0  0  0  0
  185.9080  177.9500  138.7190 C   0  0  0  0  0  0  0  0  0  0  0  0
  183.4680  177.8440  139.1360 C   0  0  2  0  0  3  0  0  0  0  0  0
  180.0470  179.7350  139.0390 C   0  0  0  0  0  1  0  0  0  0  0  0
  185.0440  179.4730  140.4420 C   0  0  0  0  0  2  0  0  0  0  0  0
  181.3580  178.6320  137.2920 C   0  0  0  0  0  2  0  0  0  0  0  0
  182.5590  178.8640  143.5920 S   0  0  0  0  0  0  0  0  0  0  0  0
  180.9630  178.7280  143.1160 C   0  0  0  0  0  0  0  0  0  0  0  0
  184.5110  176.7350  137.1410 C   0  0  0  0  0  3  0  0  0  0  0  0
  180.8910  178.6940  141.7350 C   0  0  0  0  0  3  0  0  0  0  0  0
  180.4100  177.3610  139.2210 O   0  0  0  0  0  0  0  0  0  0  0  0
  181.8600  173.4230  136.5710 O   0  0  0  0  0  1  0  0  0  0  0  0
  180.8730  175.4830  136.0770 N   0  0  0  0  0  2  0  0  0  0  0  0
  180.7080  173.5570  134.5960 O   0  0  0  0  0  0  0  0  0  0  0  0
  181.1710  174.1190  135.7780 C   0  0  0  0  0  0  0  0  0  0  0  0
  179.8380  178.6520  144.0050 C   0  0  0  0  0  0  0  0  0  0  0  0
  178.9310  178.5910  144.7210 N   0  0  0  0  0  0  0  0  0  0  0  0
  2 15  1  0  0  0  0
  3 18  1  1  0  0  0
  3  5  1  0  0  0  0
  3  2  1  0  0  0  0
  5 25  1  6  0  0  0
  5  6  1  0  0  0  0
  6  4  1  1  0  0  0
  6 23  1  0  0  0  0
  7 13  1  1  0  0  0
  8 17  1  0  0  0  0
  9 14  1  0  0  0  0
 10 19  1  0  0  0  0
 11 10  1  0  0  0  0
 12 16  1  1  0  0  0
 12 23  1  0  0  0  0
 12  7  1  0  0  0  0
 13 22  1  0  0  0  0
 13 10  2  0  0  0  0
 14  1  1  0  0  0  0
 14  8  2  0  0  0  0
 15  8  1  6  0  0  0
 15  7  1  0  0  0  0
 17 11  1  0  0  0  0
 18 12  1  0  0  0  0
 20 19  1  0  0  0  0
 20 28  1  0  0  0  0
 21  9  2  0  0  0  0
 21  2  1  0  0  0  0
 22 20  2  0  0  0  0
 26 27  2  0  0  0  0
 27 25  1  0  0  0  0
 27 24  1  0  0  0  0
 28 29  3  0  0  0  0
M  END
>  <MODEL>
6

>  <REMARK>
 VINA RESULT:      -5.1      4.121      7.400
  Name = 
  2 active torsions:
  status: ('A' for Active; 'I' for Inactive)
    1  A    between atoms: C_6  and  N_16
    2  A    between atoms: C_23  and  C_26
                            x       y       z     vdW  Elec       q    Type
                         _______ _______ _______ _____ _____    ______ ____

>  <TORSDO>
F 2

$$$$
=
 OpenBabel10222418473D

 29 33  0  0  1  0  0  0  0  0999 V2000
  183.6470  179.2970  138.7980 O   0  0  0  0  0  1  0  0  0  0  0  0
  186.9350  178.4760  141.2180 N   0  0  0  0  0  0  0  0  0  0  0  0
  188.1420  178.6640  142.0130 C   0  0  1  0  0  3  0  0  0  0  0  0
  189.8360  175.2870  142.8200 C   0  0  0  0  0  1  0  0  0  0  0  0
  188.4630  177.3920  142.8080 C   0  0  1  0  0  3  0  0  0  0  0  0
  189.6980  176.6770  142.2280 C   0  0  2  0  0  3  0  0  0  0  0  0
  188.3130  177.7790  139.1730 C   0  0  1  0  0  3  0  0  0  0  0  0
  185.8400  178.4060  139.0180 C   0  0  0  0  0  0  0  0  0  0  0  0
  184.6100  179.0150  141.0480 C   0  0  0  0  0  3  0  0  0  0  0  0
  187.3900  176.3400  137.2040 C   0  0  0  0  0  0  0  0  0  0  0  0
  186.0270  176.9410  137.0480 C   0  0  0  0  0  2  0  0  0  0  0  0
  189.5120  177.8360  140.1600 C   0  0  1  0  0  0  0  0  0  0  0  0
  188.3780  176.6260  138.1670 C   0  0  0  0  0  0  0  0  0  0  0  0
  184.7170  178.8830  139.5850 C   0  0  0  0  0  0  0  0  0  0  0  0
  186.9330  177.8170  139.8920 C   0  0  2  0  0  3  0  0  0  0  0  0
  190.8010  178.1130  139.4040 C   0  0  0  0  0  1  0  0  0  0  0  0
  185.9620  178.3760  137.5270 C   0  0  0  0  0  2  0  0  0  0  0  0
  189.2900  179.0330  141.0940 C   0  0  0  0  0  2  0  0  0  0  0  0
  187.8820  175.0230  136.2850 S   0  0  0  0  0  0  0  0  0  0  0  0
  189.3510  174.8190  137.0540 C   0  0  0  0  0  0  0  0  0  0  0  0
  185.6840  178.8350  141.8160 C   0  0  0  0  0  3  0  0  0  0  0  0
  189.4870  175.7630  138.0550 C   0  0  0  0  0  3  0  0  0  0  0  0
  189.6120  176.5720  140.8220 O   0  0  0  0  0  0  0  0  0  0  0  0
  186.5520  177.1750  144.9200 O   0  0  0  0  0  0  0  0  0  0  0  0
  188.6990  177.7530  144.1990 N   0  0  0  0  0  2  0  0  0  0  0  0
  188.0050  177.9170  146.5270 O   0  0  0  0  0  1  0  0  0  0  0  0
  187.7040  177.5940  145.2110 C   0  0  0  0  0  0  0  0  0  0  0  0
  190.3220  173.8130  136.7290 C   0  0  0  0  0  0  0  0  0  0  0  0
  191.1050  173.0020  136.4670 N   0  0  0  0  0  0  0  0  0  0  0  0
  1 14  1  0  0  0  0
  2 21  1  0  0  0  0
  2  3  1  0  0  0  0
  3 18  1  6  0  0  0
  3  5  1  0  0  0  0
  5 25  1  1  0  0  0
  6  5  1  0  0  0  0
  6  4  1  1  0  0  0
  7 13  1  1  0  0  0
  7 15  1  0  0  0  0
  7 12  1  0  0  0  0
  8 14  2  0  0  0  0
  9 21  2  0  0  0  0
 10 13  2  0  0  0  0
 11 10  1  0  0  0  0
 11 17  1  0  0  0  0
 12 16  1  6  0  0  0
 12 23  1  0  0  0  0
 12 18  1  0  0  0  0
 14  9  1  0  0  0  0
 15  8  1  6  0  0  0
 15  2  1  0  0  0  0
 17  8  1  0  0  0  0
 19 20  1  0  0  0  0
 19 10  1  0  0  0  0
 20 22  2  0  0  0  0
 22 13  1  0  0  0  0
 23  6  1  0  0  0  0
 24 27  2  0  0  0  0
 25 27  1  0  0  0  0
 27 26  1  0  0  0  0
 28 20  1  0  0  0  0
 29 28  3  0  0  0  0
M  END
>  <MODEL>
7

>  <REMARK>
 VINA RESULT:      -4.9      2.966      5.178
  Name = 
  2 active torsions:
  status: ('A' for Active; 'I' for Inactive)
    1  A    between atoms: C_6  and  N_16
    2  A    between atoms: C_23  and  C_26
                            x       y       z     vdW  Elec       q    Type
                         _______ _______ _______ _____ _____    ______ ____

>  <TORSDO>
F 2

$$$$
=
 OpenBabel10222418473D

 29 33  0  0  1  0  0  0  0  0999 V2000
  189.2080  178.4830  143.7070 O   0  0  0  0  0  1  0  0  0  0  0  0
  189.7480  176.9240  139.8830 N   0  0  0  0  0  0  0  0  0  0  0  0
  190.2560  176.7380  138.5300 C   0  0  1  0  0  3  0  0  0  0  0  0
  188.0170  174.3300  136.5030 C   0  0  0  0  0  1  0  0  0  0  0  0
  189.7660  175.4050  137.9530 C   0  0  1  0  0  3  0  0  0  0  0  0
  188.7050  175.6330  136.8610 C   0  0  2  0  0  3  0  0  0  0  0  0
  187.7410  178.2600  139.0150 C   0  0  1  0  0  3  0  0  0  0  0  0
  188.4120  178.2310  141.4810 C   0  0  0  0  0  0  0  0  0  0  0  0
  190.3250  176.8820  142.2050 C   0  0  0  0  0  3  0  0  0  0  0  0
  185.4970  178.5450  140.3130 C   0  0  0  0  0  0  0  0  0  0  0  0
  186.0150  178.7470  141.7040 C   0  0  0  0  0  2  0  0  0  0  0  0
  188.2750  177.8470  137.6150 C   0  0  1  0  0  0  0  0  0  0  0  0
  186.2140  178.2530  139.1360 C   0  0  0  0  0  0  0  0  0  0  0  0
  189.2720  177.8810  142.4550 C   0  0  0  0  0  0  0  0  0  0  0  0
  188.3980  177.4560  140.1750 C   0  0  2  0  0  3  0  0  0  0  0  0
  187.8430  178.8630  136.5690 C   0  0  0  0  0  1  0  0  0  0  0  0
  187.4160  179.3190  141.7280 C   0  0  0  0  0  2  0  0  0  0  0  0
  189.8070  177.9010  137.6670 C   0  0  0  0  0  2  0  0  0  0  0  0
  183.8510  178.4630  139.9900 S   0  0  0  0  0  0  0  0  0  0  0  0
  184.0140  178.0990  138.3670 C   0  0  0  0  0  0  0  0  0  0  0  0
  190.5540  176.4460  140.9660 C   0  0  0  0  0  3  0  0  0  0  0  0
  185.3560  178.0180  138.0410 C   0  0  0  0  0  3  0  0  0  0  0  0
  187.7320  176.5660  137.2850 O   0  0  0  0  0  0  0  0  0  0  0  0
  191.0630  176.0020  135.4780 O   0  0  0  0  0  0  0  0  0  0  0  0
  190.9060  174.6830  137.4020 N   0  0  0  0  0  2  0  0  0  0  0  0
  192.6330  174.3510  135.7180 O   0  0  0  0  0  1  0  0  0  0  0  0
  191.5230  175.0530  136.1680 C   0  0  0  0  0  0  0  0  0  0  0  0
  182.9280  177.8950  137.4510 C   0  0  0  0  0  0  0  0  0  0  0  0
  182.0520  177.7310  136.7130 N   0  0  0  0  0  0  0  0  0  0  0  0
  2 15  1  0  0  0  0
  2 21  1  0  0  0  0
  3 18  1  6  0  0  0
  3  2  1  0  0  0  0
  5 25  1  6  0  0  0
  5  3  1  0  0  0  0
  6  4  1  1  0  0  0
  6 23  1  0  0  0  0
  6  5  1  0  0  0  0
  7 13  1  6  0  0  0
  7 15  1  0  0  0  0
  8 17  1  0  0  0  0
  8 14  2  0  0  0  0
  9 14  1  0  0  0  0
 10 11  1  0  0  0  0
 11 17  1  0  0  0  0
 12 16  1  6  0  0  0
 12 18  1  0  0  0  0
 12  7  1  0  0  0  0
 13 10  2  0  0  0  0
 14  1  1  0  0  0  0
 15  8  1  1  0  0  0
 19 10  1  0  0  0  0
 20 19  1  0  0  0  0
 21  9  2  0  0  0  0
 22 20  2  0  0  0  0
 22 13  1  0  0  0  0
 23 12  1  0  0  0  0
 24 27  2  0  0  0  0
 26 27  1  0  0  0  0
 27 25  1  0  0  0  0
 28 20  1  0  0  0  0
 29 28  3  0  0  0  0
M  END
>  <MODEL>
8

>  <REMARK>
 VINA RESULT:      -4.9      2.317      3.050
  Name = 
  2 active torsions:
  status: ('A' for Active; 'I' for Inactive)
    1  A    between atoms: C_6  and  N_16
    2  A    between atoms: C_23  and  C_26
                            x       y       z     vdW  Elec       q    Type
                         _______ _______ _______ _____ _____    ______ ____

>  <TORSDO>
F 2

$$$$
=
 OpenBabel10222418473D

 29 33  0  0  1  0  0  0  0  0999 V2000
  189.7870  176.8140  136.3950 O   0  0  0  0  0  1  0  0  0  0  0  0
  185.6460  176.6800  136.8180 N   0  0  0  0  0  0  0  0  0  0  0  0
  184.2310  176.9590  136.6140 C   0  0  1  0  0  3  0  0  0  0  0  0
  182.0840  175.5330  139.4920 C   0  0  0  0  0  1  0  0  0  0  0  0
  183.3690  175.9400  137.3710 C   0  0  1  0  0  3  0  0  0  0  0  0
  182.6890  176.5910  138.5890 C   0  0  2  0  0  3  0  0  0  0  0  0
  185.7550  178.3330  138.7730 C   0  0  1  0  0  3  0  0  0  0  0  0
  187.8490  177.4020  137.6390 C   0  0  0  0  0  0  0  0  0  0  0  0
  187.6240  175.7930  135.8050 C   0  0  0  0  0  3  0  0  0  0  0  0
  187.5500  178.2510  140.6640 C   0  0  0  0  0  0  0  0  0  0  0  0
  188.7710  177.9230  139.8610 C   0  0  0  0  0  2  0  0  0  0  0  0
  184.2160  178.4150  138.5820 C   0  0  1  0  0  0  0  0  0  0  0  0
  186.2120  178.3580  140.2350 C   0  0  0  0  0  0  0  0  0  0  0  0
  188.4260  176.6900  136.6550 C   0  0  0  0  0  0  0  0  0  0  0  0
  186.3990  177.1400  138.0070 C   0  0  2  0  0  3  0  0  0  0  0  0
  183.6960  179.7540  139.0800 C   0  0  0  0  0  1  0  0  0  0  0  0
  188.6650  178.3810  138.4220 C   0  0  0  0  0  2  0  0  0  0  0  0
  183.9310  178.3720  137.0750 C   0  0  0  0  0  2  0  0  0  0  0  0
  187.6030  178.3690  142.3390 S   0  0  0  0  0  0  0  0  0  0  0  0
  185.9590  178.5930  142.5450 C   0  0  0  0  0  0  0  0  0  0  0  0
  186.2940  175.8120  135.8810 C   0  0  0  0  0  3  0  0  0  0  0  0
  185.3280  178.5670  141.3140 C   0  0  0  0  0  3  0  0  0  0  0  0
  183.6100  177.3600  139.3360 O   0  0  0  0  0  0  0  0  0  0  0  0
  183.4210  173.3370  136.1960 O   0  0  0  0  0  1  0  0  0  0  0  0
  182.3650  175.4050  136.4620 N   0  0  0  0  0  2  0  0  0  0  0  0
  181.4280  173.6150  135.1020 O   0  0  0  0  0  0  0  0  0  0  0  0
  182.4400  174.0820  135.9300 C   0  0  0  0  0  0  0  0  0  0  0  0
  185.3020  178.7790  143.8070 C   0  0  0  0  0  0  0  0  0  0  0  0
  184.7720  178.9280  144.8250 N   0  0  0  0  0  0  0  0  0  0  0  0
  1 14  1  0  0  0  0
  2 15  1  0  0  0  0
  3  2  1  0  0  0  0
  3 18  1  1  0  0  0
  3  5  1  0  0  0  0
  5 25  1  6  0  0  0
  5  6  1  0  0  0  0
  6 23  1  0  0  0  0
  6  4  1  1  0  0  0
  7 13  1  1  0  0  0
  8 17  1  0  0  0  0
  9 21  2  0  0  0  0
  9 14  1  0  0  0  0
 10 19  1  0  0  0  0
 11 10  1  0  0  0  0
 12  7  1  0  0  0  0
 12 16  1  1  0  0  0
 12 23  1  0  0  0  0
 13 10  2  0  0  0  0
 13 22  1  0  0  0  0
 14  8  2  0  0  0  0
 15  8  1  6  0  0  0
 15  7  1  0  0  0  0
 17 11  1  0  0  0  0
 18 12  1  0  0  0  0
 19 20  1  0  0  0  0
 20 28  1  0  0  0  0
 21  2  1  0  0  0  0
 22 20  2  0  0  0  0
 26 27  2  0  0  0  0
 27 24  1  0  0  0  0
 27 25  1  0  0  0  0
 28 29  3  0  0  0  0
M  END
>  <MODEL>
9

>  <REMARK>
 VINA RESULT:      -4.9      2.904      6.744
  Name = 
  2 active torsions:
  status: ('A' for Active; 'I' for Inactive)
    1  A    between atoms: C_6  and  N_16
    2  A    between atoms: C_23  and  C_26
                            x       y       z     vdW  Elec       q    Type
                         _______ _______ _______ _____ _____    ______ ____

>  <TORSDO>
F 2

$$$$
