=
 OpenBabel10222417393D

 30 34  0  0  1  0  0  0  0  0999 V2000
  190.3710  177.0340  146.7770 C   0  0  0  0  0  2  0  0  0  0  0  0
  189.0800  177.7460  143.5520 C   0  0  1  0  0  3  0  0  0  0  0  0
  189.4480  178.2410  148.6000 O   0  0  0  0  0  0  0  0  0  0  0  0
  190.6300  177.6250  145.3920 C   0  0  0  0  0  2  0  0  0  0  0  0
  188.3620  177.2040  144.7410 N   0  0  0  0  0  0  0  0  0  0  0  0
  187.8100  177.6500  147.0220 C   0  0  0  0  0  3  0  0  0  0  0  0
  189.7690  176.8930  144.3840 C   0  0  1  0  0  3  0  0  0  0  0  0
  189.2150  177.6860  147.4940 C   0  0  0  0  0  0  0  0  0  0  0  0
  187.4030  177.3820  145.7750 C   0  0  0  0  0  0  0  0  0  0  0  0
  185.6710  178.8250  144.7560 C   0  0  2  0  0  3  0  0  0  0  0  0
  185.9520  177.4870  145.4290 C   0  0  2  0  0  3  0  0  0  0  0  0
  185.3020  178.6110  146.2100 C   0  0  0  0  0  2  0  0  0  0  0  0
  183.3840  178.5070  141.7270 C   0  0  0  0  0  0  0  0  0  0  0  0
  184.5350  178.5310  142.5180 C   0  0  0  0  0  3  0  0  0  0  0  0
  183.1870  178.9910  144.4760 C   0  0  0  0  0  3  0  0  0  0  0  0
  182.1290  178.7300  142.3130 C   0  0  0  0  0  0  0  0  0  0  0  0
  180.8910  178.7070  141.4880 C   0  0  0  0  0  1  0  0  0  0  0  0
  184.4420  178.7560  143.9010 C   0  0  0  0  0  0  0  0  0  0  0  0
  183.4950  178.2690  140.3960 F   0  0  0  0  0  0  0  0  0  0  0  0
  182.0340  178.9750  143.6860 C   0  0  0  0  0  3  0  0  0  0  0  0
  188.6430  177.0270  142.3650 N   0  0  0  0  0  2  0  0  0  0  0  0
  188.8600  178.0930  138.7570 C   0  0  0  0  0  0  0  0  0  0  0  0
  188.0460  178.7400  137.6920 C   0  0  0  0  0  1  0  0  0  0  0  0
  187.0730  178.3270  140.3130 F   0  0  0  0  0  0  0  0  0  0  0  0
  190.9370  177.0590  139.4430 C   0  0  0  0  0  0  0  0  0  0  0  0
  188.3350  177.9010  140.0440 C   0  0  0  0  0  0  0  0  0  0  0  0
  190.4200  176.8630  140.7230 C   0  0  0  0  0  3  0  0  0  0  0  0
  192.3180  176.6150  139.1240 C   0  0  0  0  0  1  0  0  0  0  0  0
  190.1580  177.6710  138.4610 C   0  0  0  0  0  3  0  0  0  0  0  0
  189.1210  177.2720  141.0370 C   0  0  0  0  0  0  0  0  0  0  0  0
  1  8  1  0  0  0  0
  2 21  1  6  0  0  0
  2  7  1  0  0  0  0
  2  5  1  0  0  0  0
  4  1  1  0  0  0  0
  5  9  1  0  0  0  0
  6  8  1  0  0  0  0
  7  5  1  0  0  0  0
  7  4  1  1  0  0  0
  8  3  2  0  0  0  0
  9  6  2  0  0  0  0
 10 18  1  6  0  0  0
 10 11  1  0  0  0  0
 10 12  1  0  0  0  0
 11  9  1  1  0  0  0
 11 12  1  0  0  0  0
 13 16  2  0  0  0  0
 13 14  1  0  0  0  0
 14 18  2  0  0  0  0
 16 20  1  0  0  0  0
 17 16  1  0  0  0  0
 18 15  1  0  0  0  0
 19 13  1  0  0  0  0
 20 15  2  0  0  0  0
 22 26  1  0  0  0  0
 23 22  1  0  0  0  0
 25 27  2  0  0  0  0
 26 24  1  0  0  0  0
 26 30  2  0  0  0  0
 27 30  1  0  0  0  0
 28 25  1  0  0  0  0
 29 22  2  0  0  0  0
 29 25  1  0  0  0  0
 30 21  1  0  0  0  0
M  END
>  <MODEL>
1

>  <REMARK>
 VINA RESULT:     -10.5      0.000      0.000
  Name = 
  4 active torsions:
  status: ('A' for Active; 'I' for Inactive)
    1  A    between atoms: C_3  and  N_23
    2  A    between atoms: C_13  and  C_16
    3  A    between atoms: C_22  and  C_24
    4  A    between atoms: N_23  and  C_30
                            x       y       z     vdW  Elec       q    Type
                         _______ _______ _______ _____ _____    ______ ____

>  <TORSDO>
F 4

$$$$
=
 OpenBabel10222417393D

 30 34  0  0  1  0  0  0  0  0999 V2000
  182.0680  179.2280  142.0610 C   0  0  0  0  0  2  0  0  0  0  0  0
  185.4640  178.3450  141.5480 C   0  0  1  0  0  3  0  0  0  0  0  0
  180.9820  178.2900  143.9510 O   0  0  0  0  0  0  0  0  0  0  0  0
  183.0850  178.4890  141.1930 C   0  0  0  0  0  2  0  0  0  0  0  0
  184.8550  179.0620  142.7050 N   0  0  0  0  0  0  0  0  0  0  0  0
  183.2060  178.8860  144.4240 C   0  0  0  0  0  3  0  0  0  0  0  0
  184.4180  179.2030  141.2940 C   0  0  1  0  0  3  0  0  0  0  0  0
  182.0580  178.7600  143.4940 C   0  0  0  0  0  0  0  0  0  0  0  0
  184.4850  179.0740  144.0780 C   0  0  0  0  0  0  0  0  0  0  0  0
  185.8260  177.6520  145.5940 C   0  0  2  0  0  3  0  0  0  0  0  0
  185.5460  179.0760  145.1310 C   0  0  2  0  0  3  0  0  0  0  0  0
  184.9860  178.5810  146.4480 C   0  0  0  0  0  2  0  0  0  0  0  0
  188.7550  177.8010  148.0230 C   0  0  0  0  0  0  0  0  0  0  0  0
  187.4600  177.8840  147.5070 C   0  0  0  0  0  3  0  0  0  0  0  0
  188.2620  177.1220  145.3540 C   0  0  0  0  0  3  0  0  0  0  0  0
  189.8100  177.3790  147.2000 C   0  0  0  0  0  0  0  0  0  0  0  0
  191.1960  177.2820  147.7310 C   0  0  0  0  0  1  0  0  0  0  0  0
  187.2020  177.5290  146.1740 C   0  0  0  0  0  0  0  0  0  0  0  0
  188.9780  178.1310  149.3210 F   0  0  0  0  0  0  0  0  0  0  0  0
  189.5610  177.0440  145.8660 C   0  0  0  0  0  3  0  0  0  0  0  0
  186.7210  178.9890  141.1990 N   0  0  0  0  0  2  0  0  0  0  0  0
  189.3710  177.3200  139.1040 C   0  0  0  0  0  0  0  0  0  0  0  0
  189.6920  176.9980  137.6870 C   0  0  0  0  0  1  0  0  0  0  0  0
  187.3600  178.4070  138.4390 F   0  0  0  0  0  0  0  0  0  0  0  0
  189.9700  177.2030  141.4450 C   0  0  0  0  0  0  0  0  0  0  0  0
  188.1980  178.0160  139.4340 C   0  0  0  0  0  0  0  0  0  0  0  0
  188.8050  177.8920  141.7800 C   0  0  0  0  0  3  0  0  0  0  0  0
  190.9110  176.7740  142.5110 C   0  0  0  0  0  1  0  0  0  0  0  0
  190.2520  176.9150  140.1100 C   0  0  0  0  0  3  0  0  0  0  0  0
  187.9080  178.2990  140.7880 C   0  0  0  0  0  0  0  0  0  0  0  0
  1  8  1  0  0  0  0
  2 21  1  6  0  0  0
  2  5  1  0  0  0  0
  4  1  1  0  0  0  0
  5  9  1  0  0  0  0
  7  4  1  1  0  0  0
  7  2  1  0  0  0  0
  7  5  1  0  0  0  0
  8  3  2  0  0  0  0
  8  6  1  0  0  0  0
  9  6  2  0  0  0  0
 10 18  1  1  0  0  0
 10 12  1  0  0  0  0
 11  9  1  6  0  0  0
 11 10  1  0  0  0  0
 11 12  1  0  0  0  0
 13 19  1  0  0  0  0
 14 13  1  0  0  0  0
 15 20  2  0  0  0  0
 15 18  1  0  0  0  0
 16 17  1  0  0  0  0
 16 13  2  0  0  0  0
 18 14  2  0  0  0  0
 20 16  1  0  0  0  0
 22 26  2  0  0  0  0
 22 29  1  0  0  0  0
 23 22  1  0  0  0  0
 24 26  1  0  0  0  0
 25 27  1  0  0  0  0
 25 28  1  0  0  0  0
 26 30  1  0  0  0  0
 29 25  2  0  0  0  0
 30 21  1  0  0  0  0
 30 27  2  0  0  0  0
M  END
>  <MODEL>
2

>  <REMARK>
 VINA RESULT:     -10.5      2.764      5.959
  Name = 
  4 active torsions:
  status: ('A' for Active; 'I' for Inactive)
    1  A    between atoms: C_3  and  N_23
    2  A    between atoms: C_13  and  C_16
    3  A    between atoms: C_22  and  C_24
    4  A    between atoms: N_23  and  C_30
                            x       y       z     vdW  Elec       q    Type
                         _______ _______ _______ _____ _____    ______ ____

>  <TORSDO>
F 4

$$$$
=
 OpenBabel10222417393D

 30 34  0  0  1  0  0  0  0  0999 V2000
  182.0450  179.2000  142.3280 C   0  0  0  0  0  2  0  0  0  0  0  0
  185.4150  178.3480  141.6290 C   0  0  1  0  0  3  0  0  0  0  0  0
  181.0720  178.2500  144.2730 O   0  0  0  0  0  0  0  0  0  0  0  0
  183.0200  178.4710  141.4050 C   0  0  0  0  0  2  0  0  0  0  0  0
  184.8640  179.0580  142.8190 N   0  0  0  0  0  0  0  0  0  0  0  0
  183.3130  178.8650  144.6250 C   0  0  0  0  0  3  0  0  0  0  0  0
  184.3490  179.1960  141.4330 C   0  0  1  0  0  3  0  0  0  0  0  0
  182.1170  178.7300  143.7590 C   0  0  0  0  0  0  0  0  0  0  0  0
  184.5700  179.0650  144.2090 C   0  0  0  0  0  0  0  0  0  0  0  0
  185.9660  177.6600  145.6910 C   0  0  2  0  0  3  0  0  0  0  0  0
  185.6870  179.0760  145.2030 C   0  0  2  0  0  3  0  0  0  0  0  0
  185.1910  178.6280  146.5620 C   0  0  0  0  0  2  0  0  0  0  0  0
  189.7080  176.9720  145.8420 C   0  0  0  0  0  0  0  0  0  0  0  0
  188.4120  177.1300  145.3460 C   0  0  0  0  0  3  0  0  0  0  0  0
  187.6330  177.7290  147.5600 C   0  0  0  0  0  3  0  0  0  0  0  0
  189.9680  177.1900  147.2030 C   0  0  0  0  0  0  0  0  0  0  0  0
  191.3430  177.0290  147.7490 C   0  0  0  0  0  1  0  0  0  0  0  0
  187.3690  177.5260  146.1990 C   0  0  0  0  0  0  0  0  0  0  0  0
  190.7050  176.6070  144.9960 F   0  0  0  0  0  0  0  0  0  0  0  0
  188.9280  177.5650  148.0590 C   0  0  0  0  0  3  0  0  0  0  0  0
  186.6460  179.0030  141.2130 N   0  0  0  0  0  2  0  0  0  0  0  0
  190.0680  177.4450  140.9710 C   0  0  0  0  0  0  0  0  0  0  0  0
  191.2920  177.2090  141.7850 C   0  0  0  0  0  1  0  0  0  0  0  0
  189.0020  178.5060  142.8160 F   0  0  0  0  0  0  0  0  0  0  0  0
  188.9060  177.2250  138.8600 C   0  0  0  0  0  0  0  0  0  0  0  0
  188.9560  178.1000  141.5210 C   0  0  0  0  0  0  0  0  0  0  0  0
  187.7980  177.8770  139.4000 C   0  0  0  0  0  3  0  0  0  0  0  0
  188.8790  176.7590  137.4500 C   0  0  0  0  0  1  0  0  0  0  0  0
  190.0400  177.0110  139.6430 C   0  0  0  0  0  3  0  0  0  0  0  0
  187.8100  178.3250  140.7240 C   0  0  0  0  0  0  0  0  0  0  0  0
  1  8  1  0  0  0  0
  2 21  1  6  0  0  0
  2  5  1  0  0  0  0
  4  1  1  0  0  0  0
  5  9  1  0  0  0  0
  7  4  1  1  0  0  0
  7  2  1  0  0  0  0
  7  5  1  0  0  0  0
  8  3  2  0  0  0  0
  8  6  1  0  0  0  0
  9  6  2  0  0  0  0
 10 18  1  1  0  0  0
 10 12  1  0  0  0  0
 11  9  1  6  0  0  0
 11 10  1  0  0  0  0
 11 12  1  0  0  0  0
 13 16  1  0  0  0  0
 14 13  2  0  0  0  0
 14 18  1  0  0  0  0
 15 20  1  0  0  0  0
 16 17  1  0  0  0  0
 16 20  2  0  0  0  0
 18 15  2  0  0  0  0
 19 13  1  0  0  0  0
 22 26  1  0  0  0  0
 22 23  1  0  0  0  0
 25 27  2  0  0  0  0
 25 29  1  0  0  0  0
 26 24  1  0  0  0  0
 27 30  1  0  0  0  0
 28 25  1  0  0  0  0
 29 22  2  0  0  0  0
 30 21  1  0  0  0  0
 30 26  2  0  0  0  0
M  END
>  <MODEL>
3

>  <REMARK>
 VINA RESULT:     -10.5      2.531      5.929
  Name = 
  4 active torsions:
  status: ('A' for Active; 'I' for Inactive)
    1  A    between atoms: C_3  and  N_23
    2  A    between atoms: C_13  and  C_16
    3  A    between atoms: C_22  and  C_24
    4  A    between atoms: N_23  and  C_30
                            x       y       z     vdW  Elec       q    Type
                         _______ _______ _______ _____ _____    ______ ____

>  <TORSDO>
F 4

$$$$
=
 OpenBabel10222417393D

 30 34  0  0  1  0  0  0  0  0999 V2000
  190.3400  177.0420  147.0240 C   0  0  0  0  0  2  0  0  0  0  0  0
  189.1050  177.7370  143.7730 C   0  0  1  0  0  3  0  0  0  0  0  0
  189.3880  178.2600  148.8240 O   0  0  0  0  0  0  0  0  0  0  0  0
  190.6240  177.6240  145.6400 C   0  0  0  0  0  2  0  0  0  0  0  0
  188.3660  177.2030  144.9530 N   0  0  0  0  0  0  0  0  0  0  0  0
  187.7760  177.6620  147.2210 C   0  0  0  0  0  3  0  0  0  0  0  0
  189.7790  176.8870  144.6210 C   0  0  1  0  0  3  0  0  0  0  0  0
  189.1730  177.6990  147.7170 C   0  0  0  0  0  0  0  0  0  0  0  0
  187.3900  177.3870  145.9690 C   0  0  0  0  0  0  0  0  0  0  0  0
  185.6740  178.8330  144.9270 C   0  0  2  0  0  3  0  0  0  0  0  0
  185.9450  177.4920  145.5980 C   0  0  2  0  0  3  0  0  0  0  0  0
  185.2800  178.6110  146.3730 C   0  0  0  0  0  2  0  0  0  0  0  0
  183.4420  178.5380  141.8550 C   0  0  0  0  0  0  0  0  0  0  0  0
  184.5790  178.5590  142.6660 C   0  0  0  0  0  3  0  0  0  0  0  0
  183.1940  178.9860  144.6060 C   0  0  0  0  0  3  0  0  0  0  0  0
  182.1750  178.7450  142.4210 C   0  0  0  0  0  0  0  0  0  0  0  0
  180.9520  178.7240  141.5750 C   0  0  0  0  0  1  0  0  0  0  0  0
  184.4610  178.7660  144.0500 C   0  0  0  0  0  0  0  0  0  0  0  0
  183.5780  178.3180  140.5230 F   0  0  0  0  0  0  0  0  0  0  0  0
  182.0550  178.9710  143.7960 C   0  0  0  0  0  3  0  0  0  0  0  0
  188.6880  177.0120  142.5830 N   0  0  0  0  0  2  0  0  0  0  0  0
  191.0830  177.2050  139.6800 C   0  0  0  0  0  0  0  0  0  0  0  0
  192.5200  176.9990  139.3510 C   0  0  0  0  0  1  0  0  0  0  0  0
  191.4730  176.5660  141.9410 F   0  0  0  0  0  0  0  0  0  0  0  0
  188.8590  177.8290  138.9630 C   0  0  0  0  0  0  0  0  0  0  0  0
  190.6060  176.9840  140.9820 C   0  0  0  0  0  0  0  0  0  0  0  0
  188.3790  177.6150  140.2540 C   0  0  0  0  0  3  0  0  0  0  0  0
  187.9320  178.2760  137.8910 C   0  0  0  0  0  1  0  0  0  0  0  0
  190.2080  177.6270  138.6760 C   0  0  0  0  0  3  0  0  0  0  0  0
  189.2400  177.1990  141.2740 C   0  0  0  0  0  0  0  0  0  0  0  0
  1  8  1  0  0  0  0
  2 21  1  6  0  0  0
  2  7  1  0  0  0  0
  2  5  1  0  0  0  0
  4  1  1  0  0  0  0
  5  9  1  0  0  0  0
  6  8  1  0  0  0  0
  7  5  1  0  0  0  0
  7  4  1  1  0  0  0
  8  3  2  0  0  0  0
  9  6  2  0  0  0  0
 10 18  1  6  0  0  0
 10 11  1  0  0  0  0
 10 12  1  0  0  0  0
 11  9  1  1  0  0  0
 11 12  1  0  0  0  0
 13 16  2  0  0  0  0
 13 14  1  0  0  0  0
 14 18  2  0  0  0  0
 16 20  1  0  0  0  0
 17 16  1  0  0  0  0
 18 15  1  0  0  0  0
 19 13  1  0  0  0  0
 20 15  2  0  0  0  0
 22 26  1  0  0  0  0
 23 22  1  0  0  0  0
 25 27  2  0  0  0  0
 26 30  2  0  0  0  0
 26 24  1  0  0  0  0
 27 30  1  0  0  0  0
 28 25  1  0  0  0  0
 29 25  1  0  0  0  0
 29 22  2  0  0  0  0
 30 21  1  0  0  0  0
M  END
>  <MODEL>
4

>  <REMARK>
 VINA RESULT:     -10.3      0.948      1.815
  Name = 
  4 active torsions:
  status: ('A' for Active; 'I' for Inactive)
    1  A    between atoms: C_3  and  N_23
    2  A    between atoms: C_13  and  C_16
    3  A    between atoms: C_22  and  C_24
    4  A    between atoms: N_23  and  C_30
                            x       y       z     vdW  Elec       q    Type
                         _______ _______ _______ _____ _____    ______ ____

>  <TORSDO>
F 4

$$$$
=
 OpenBabel10222417393D

 30 34  0  0  1  0  0  0  0  0999 V2000
  190.2620  177.0330  146.5300 C   0  0  0  0  0  2  0  0  0  0  0  0
  188.8770  177.8460  143.3690 C   0  0  1  0  0  3  0  0  0  0  0  0
  189.4280  178.2140  148.4110 O   0  0  0  0  0  0  0  0  0  0  0  0
  190.4860  177.6500  145.1510 C   0  0  0  0  0  2  0  0  0  0  0  0
  188.1890  177.2910  144.5690 N   0  0  0  0  0  0  0  0  0  0  0  0
  187.7240  177.6940  146.8770 C   0  0  0  0  0  3  0  0  0  0  0  0
  189.5760  176.9590  144.1560 C   0  0  1  0  0  3  0  0  0  0  0  0
  189.1450  177.6900  147.3010 C   0  0  0  0  0  0  0  0  0  0  0  0
  187.2690  177.4640  145.6390 C   0  0  0  0  0  0  0  0  0  0  0  0
  185.5450  178.9330  144.6470 C   0  0  2  0  0  3  0  0  0  0  0  0
  185.8100  177.6060  145.3460 C   0  0  2  0  0  3  0  0  0  0  0  0
  185.2270  178.7710  146.1200 C   0  0  0  0  0  2  0  0  0  0  0  0
  181.8570  178.8040  143.7050 C   0  0  0  0  0  0  0  0  0  0  0  0
  183.0250  178.8930  144.4660 C   0  0  0  0  0  3  0  0  0  0  0  0
  184.3570  178.7440  142.4490 C   0  0  0  0  0  3  0  0  0  0  0  0
  181.9390  178.6810  142.3100 C   0  0  0  0  0  0  0  0  0  0  0  0
  180.7060  178.5880  141.4820 C   0  0  0  0  0  1  0  0  0  0  0  0
  184.2820  178.8810  143.8420 C   0  0  0  0  0  0  0  0  0  0  0  0
  180.6520  178.8370  144.3280 F   0  0  0  0  0  0  0  0  0  0  0  0
  183.1890  178.6480  141.6860 C   0  0  0  0  0  3  0  0  0  0  0  0
  188.3850  177.1640  142.1810 N   0  0  0  0  0  2  0  0  0  0  0  0
  190.7510  177.1130  139.2490 C   0  0  0  0  0  0  0  0  0  0  0  0
  192.1500  176.7430  138.8980 C   0  0  0  0  0  1  0  0  0  0  0  0
  191.0890  176.3990  141.4950 F   0  0  0  0  0  0  0  0  0  0  0  0
  188.6090  178.0090  138.5700 C   0  0  0  0  0  0  0  0  0  0  0  0
  190.2670  176.9320  140.5540 C   0  0  0  0  0  0  0  0  0  0  0  0
  188.1230  177.8340  139.8650 C   0  0  0  0  0  3  0  0  0  0  0  0
  187.7290  178.5790  137.5180 C   0  0  0  0  0  1  0  0  0  0  0  0
  189.9220  177.6520  138.2630 C   0  0  0  0  0  3  0  0  0  0  0  0
  188.9400  177.3030  140.8680 C   0  0  0  0  0  0  0  0  0  0  0  0
  1  8  1  0  0  0  0
  2 21  1  6  0  0  0
  2  7  1  0  0  0  0
  2  5  1  0  0  0  0
  4  1  1  0  0  0  0
  5  9  1  0  0  0  0
  6  8  1  0  0  0  0
  7  5  1  0  0  0  0
  7  4  1  1  0  0  0
  8  3  2  0  0  0  0
  9  6  2  0  0  0  0
 10 18  1  6  0  0  0
 10 11  1  0  0  0  0
 10 12  1  0  0  0  0
 11  9  1  1  0  0  0
 11 12  1  0  0  0  0
 13 19  1  0  0  0  0
 13 14  1  0  0  0  0
 15 18  1  0  0  0  0
 16 13  2  0  0  0  0
 17 16  1  0  0  0  0
 18 14  2  0  0  0  0
 20 16  1  0  0  0  0
 20 15  2  0  0  0  0
 22 26  1  0  0  0  0
 23 22  1  0  0  0  0
 25 27  2  0  0  0  0
 26 30  2  0  0  0  0
 26 24  1  0  0  0  0
 27 30  1  0  0  0  0
 28 25  1  0  0  0  0
 29 25  1  0  0  0  0
 29 22  2  0  0  0  0
 30 21  1  0  0  0  0
M  END
>  <MODEL>
5

>  <REMARK>
 VINA RESULT:     -10.2      1.252      2.185
  Name = 
  4 active torsions:
  status: ('A' for Active; 'I' for Inactive)
    1  A    between atoms: C_3  and  N_23
    2  A    between atoms: C_13  and  C_16
    3  A    between atoms: C_22  and  C_24
    4  A    between atoms: N_23  and  C_30
                            x       y       z     vdW  Elec       q    Type
                         _______ _______ _______ _____ _____    ______ ____

>  <TORSDO>
F 4

$$$$
=
 OpenBabel10222417393D

 30 34  0  0  1  0  0  0  0  0999 V2000
  189.3610  177.3040  147.9550 C   0  0  0  0  0  2  0  0  0  0  0  0
  186.9490  177.8880  145.4220 C   0  0  1  0  0  3  0  0  0  0  0  0
  191.1550  175.8450  147.4230 O   0  0  0  0  0  0  0  0  0  0  0  0
  187.9200  177.1100  147.4850 C   0  0  0  0  0  2  0  0  0  0  0  0
  188.4080  178.1970  145.4050 N   0  0  0  0  0  0  0  0  0  0  0  0
  190.5810  177.2260  145.6090 C   0  0  0  0  0  3  0  0  0  0  0  0
  187.5360  178.2810  146.6030 C   0  0  1  0  0  3  0  0  0  0  0  0
  190.3800  176.7420  146.9960 C   0  0  0  0  0  0  0  0  0  0  0  0
  189.7050  177.9360  144.8860 C   0  0  0  0  0  0  0  0  0  0  0  0
  189.9360  177.0020  142.6080 C   0  0  2  0  0  3  0  0  0  0  0  0
  190.0130  178.2630  143.4600 C   0  0  2  0  0  3  0  0  0  0  0  0
  191.2830  177.5630  143.0200 C   0  0  0  0  0  2  0  0  0  0  0  0
  190.3470  177.3860  138.8410 C   0  0  0  0  0  0  0  0  0  0  0  0
  190.5990  177.0370  140.1700 C   0  0  0  0  0  3  0  0  0  0  0  0
  188.4840  178.0110  140.8330 C   0  0  0  0  0  3  0  0  0  0  0  0
  189.1590  178.0530  138.5070 C   0  0  0  0  0  0  0  0  0  0  0  0
  188.8700  178.4310  137.0970 C   0  0  0  0  0  1  0  0  0  0  0  0
  189.6620  177.3320  141.1720 C   0  0  0  0  0  0  0  0  0  0  0  0
  191.2580  177.0740  137.8860 F   0  0  0  0  0  0  0  0  0  0  0  0
  188.2320  178.3670  139.5060 C   0  0  0  0  0  3  0  0  0  0  0  0
  186.2200  179.0050  144.8410 N   0  0  0  0  0  2  0  0  0  0  0  0
  182.7200  178.7120  143.4780 C   0  0  0  0  0  0  0  0  0  0  0  0
  181.3030  178.6650  143.9310 C   0  0  0  0  0  1  0  0  0  0  0  0
  183.4660  178.9630  145.7250 F   0  0  0  0  0  0  0  0  0  0  0  0
  184.3230  178.6430  141.6680 C   0  0  0  0  0  0  0  0  0  0  0  0
  183.7650  178.8540  144.4040 C   0  0  0  0  0  0  0  0  0  0  0  0
  185.3660  178.7820  142.5830 C   0  0  0  0  0  3  0  0  0  0  0  0
  184.6190  178.5340  140.2160 C   0  0  0  0  0  1  0  0  0  0  0  0
  183.0030  178.6060  142.1140 C   0  0  0  0  0  3  0  0  0  0  0  0
  185.1040  178.8820  143.9520 C   0  0  0  0  0  0  0  0  0  0  0  0
  2 21  1  6  0  0  0
  2  7  1  0  0  0  0
  4  1  1  0  0  0  0
  5  2  1  0  0  0  0
  5  7  1  0  0  0  0
  6  8  1  0  0  0  0
  7  4  1  1  0  0  0
  8  3  2  0  0  0  0
  8  1  1  0  0  0  0
  9  5  1  0  0  0  0
  9  6  2  0  0  0  0
 10 18  1  6  0  0  0
 10 12  1  0  0  0  0
 10 11  1  0  0  0  0
 11  9  1  1  0  0  0
 12 11  1  0  0  0  0
 13 14  1  0  0  0  0
 14 18  2  0  0  0  0
 15 18  1  0  0  0  0
 16 13  2  0  0  0  0
 16 20  1  0  0  0  0
 17 16  1  0  0  0  0
 19 13  1  0  0  0  0
 20 15  2  0  0  0  0
 22 23  1  0  0  0  0
 22 26  1  0  0  0  0
 25 29  1  0  0  0  0
 25 27  2  0  0  0  0
 26 24  1  0  0  0  0
 27 30  1  0  0  0  0
 28 25  1  0  0  0  0
 29 22  2  0  0  0  0
 30 26  2  0  0  0  0
 30 21  1  0  0  0  0
M  END
>  <MODEL>
6

>  <REMARK>
 VINA RESULT:      -9.9      1.844      6.047
  Name = 
  4 active torsions:
  status: ('A' for Active; 'I' for Inactive)
    1  A    between atoms: C_3  and  N_23
    2  A    between atoms: C_13  and  C_16
    3  A    between atoms: C_22  and  C_24
    4  A    between atoms: N_23  and  C_30
                            x       y       z     vdW  Elec       q    Type
                         _______ _______ _______ _____ _____    ______ ____

>  <TORSDO>
F 4

$$$$
=
 OpenBabel10222417393D

 30 34  0  0  1  0  0  0  0  0999 V2000
  182.8950  178.5590  138.4680 C   0  0  0  0  0  2  0  0  0  0  0  0
  186.3400  177.8960  138.9850 C   0  0  1  0  0  3  0  0  0  0  0  0
  181.3870  177.8030  140.1370 O   0  0  0  0  0  0  0  0  0  0  0  0
  184.1370  177.7950  138.0140 C   0  0  0  0  0  2  0  0  0  0  0  0
  185.4150  178.7120  139.8230 N   0  0  0  0  0  0  0  0  0  0  0  0
  183.3780  178.6380  141.0680 C   0  0  0  0  0  3  0  0  0  0  0  0
  185.3630  178.6220  138.3420 C   0  0  1  0  0  3  0  0  0  0  0  0
  182.5240  178.2920  139.9050 C   0  0  0  0  0  0  0  0  0  0  0  0
  184.6940  178.8810  141.0360 C   0  0  0  0  0  0  0  0  0  0  0  0
  185.1200  178.0070  143.3110 C   0  0  2  0  0  3  0  0  0  0  0  0
  185.4360  179.1150  142.3130 C   0  0  2  0  0  3  0  0  0  0  0  0
  184.4670  179.3680  143.4490 C   0  0  0  0  0  2  0  0  0  0  0  0
  188.4310  177.0860  144.9510 C   0  0  0  0  0  0  0  0  0  0  0  0
  187.4340  177.2520  143.9860 C   0  0  0  0  0  3  0  0  0  0  0  0
  185.9910  178.2660  145.6450 C   0  0  0  0  0  3  0  0  0  0  0  0
  188.2060  177.5080  146.2690 C   0  0  0  0  0  0  0  0  0  0  0  0
  189.2560  177.3420  147.3100 C   0  0  0  0  0  1  0  0  0  0  0  0
  186.2140  177.8590  144.3230 C   0  0  0  0  0  0  0  0  0  0  0  0
  189.6100  176.5150  144.5980 F   0  0  0  0  0  0  0  0  0  0  0  0
  186.9840  178.0940  146.6140 C   0  0  0  0  0  3  0  0  0  0  0  0
  187.6160  178.5860  138.8760 N   0  0  0  0  0  2  0  0  0  0  0  0
  190.7800  177.3570  140.5110 C   0  0  0  0  0  0  0  0  0  0  0  0
  191.4590  177.3220  141.8350 C   0  0  0  0  0  1  0  0  0  0  0  0
  188.9090  178.4810  141.4610 F   0  0  0  0  0  0  0  0  0  0  0  0
  190.8030  176.8210  138.1510 C   0  0  0  0  0  0  0  0  0  0  0  0
  189.5160  177.9490  140.3680 C   0  0  0  0  0  0  0  0  0  0  0  0
  189.5480  177.4100  138.0030 C   0  0  0  0  0  3  0  0  0  0  0  0
  191.4860  176.2200  136.9770 C   0  0  0  0  0  1  0  0  0  0  0  0
  191.4190  176.7960  139.4020 C   0  0  0  0  0  3  0  0  0  0  0  0
  188.8960  177.9820  139.0980 C   0  0  0  0  0  0  0  0  0  0  0  0
  1  8  1  0  0  0  0
  2 21  1  6  0  0  0
  2  5  1  0  0  0  0
  4  1  1  0  0  0  0
  5  9  1  0  0  0  0
  7  4  1  1  0  0  0
  7  2  1  0  0  0  0
  7  5  1  0  0  0  0
  8  3  2  0  0  0  0
  8  6  1  0  0  0  0
  9  6  2  0  0  0  0
 10 12  1  0  0  0  0
 10 18  1  1  0  0  0
 11  9  1  6  0  0  0
 11 10  1  0  0  0  0
 11 12  1  0  0  0  0
 13 16  1  0  0  0  0
 14 18  1  0  0  0  0
 14 13  2  0  0  0  0
 15 20  1  0  0  0  0
 16 20  2  0  0  0  0
 16 17  1  0  0  0  0
 18 15  2  0  0  0  0
 19 13  1  0  0  0  0
 21 30  1  0  0  0  0
 22 23  1  0  0  0  0
 25 29  1  0  0  0  0
 26 22  1  0  0  0  0
 26 24  1  0  0  0  0
 27 25  2  0  0  0  0
 27 30  1  0  0  0  0
 28 25  1  0  0  0  0
 29 22  2  0  0  0  0
 30 26  2  0  0  0  0
M  END
>  <MODEL>
7

>  <REMARK>
 VINA RESULT:      -9.6      3.023      6.048
  Name = 
  4 active torsions:
  status: ('A' for Active; 'I' for Inactive)
    1  A    between atoms: C_3  and  N_23
    2  A    between atoms: C_13  and  C_16
    3  A    between atoms: C_22  and  C_24
    4  A    between atoms: N_23  and  C_30
                            x       y       z     vdW  Elec       q    Type
                         _______ _______ _______ _____ _____    ______ ____

>  <TORSDO>
F 4

$$$$
=
 OpenBabel10222417393D

 30 34  0  0  1  0  0  0  0  0999 V2000
  192.0860  176.3670  144.2480 C   0  0  0  0  0  2  0  0  0  0  0  0
  189.7430  177.6410  141.9100 C   0  0  1  0  0  3  0  0  0  0  0  0
  191.9150  177.1460  146.4820 O   0  0  0  0  0  0  0  0  0  0  0  0
  191.8470  177.2300  143.0100 C   0  0  0  0  0  2  0  0  0  0  0  0
  189.4850  176.8430  143.1430 N   0  0  0  0  0  0  0  0  0  0  0  0
  189.8020  176.8040  145.5100 C   0  0  0  0  0  3  0  0  0  0  0  0
  190.6600  176.6730  142.2520 C   0  0  1  0  0  3  0  0  0  0  0  0
  191.2840  176.8100  145.4460 C   0  0  0  0  0  0  0  0  0  0  0  0
  188.9670  176.7690  144.4640 C   0  0  0  0  0  0  0  0  0  0  0  0
  187.0890  178.3360  144.8350 C   0  0  2  0  0  3  0  0  0  0  0  0
  187.4930  176.8740  144.6890 C   0  0  2  0  0  3  0  0  0  0  0  0
  187.2060  177.4510  146.0600 C   0  0  0  0  0  2  0  0  0  0  0  0
  183.9070  179.0290  142.8620 C   0  0  0  0  0  0  0  0  0  0  0  0
  185.2510  178.8030  143.1660 C   0  0  0  0  0  3  0  0  0  0  0  0
  184.6830  178.5380  145.5050 C   0  0  0  0  0  3  0  0  0  0  0  0
  182.9460  179.0130  143.8840 C   0  0  0  0  0  0  0  0  0  0  0  0
  181.5090  179.2490  143.5800 C   0  0  0  0  0  1  0  0  0  0  0  0
  185.6460  178.5390  144.4870 C   0  0  0  0  0  0  0  0  0  0  0  0
  183.5450  179.2630  141.5750 F   0  0  0  0  0  0  0  0  0  0  0  0
  183.3380  178.7710  145.2040 C   0  0  0  0  0  3  0  0  0  0  0  0
  188.8880  177.1520  140.8400 N   0  0  0  0  0  2  0  0  0  0  0  0
  188.4950  178.2570  137.2590 C   0  0  0  0  0  0  0  0  0  0  0  0
  187.5560  179.0000  136.3750 C   0  0  0  0  0  1  0  0  0  0  0  0
  187.0820  178.6370  139.1370 F   0  0  0  0  0  0  0  0  0  0  0  0
  190.5530  177.0120  137.5210 C   0  0  0  0  0  0  0  0  0  0  0  0
  188.2170  178.0940  138.6250 C   0  0  0  0  0  0  0  0  0  0  0  0
  190.2820  176.8450  138.8790 C   0  0  0  0  0  3  0  0  0  0  0  0
  191.7930  176.4400  136.9360 C   0  0  0  0  0  1  0  0  0  0  0  0
  189.6610  177.7150  136.7120 C   0  0  0  0  0  3  0  0  0  0  0  0
  189.1170  177.3730  139.4430 C   0  0  0  0  0  0  0  0  0  0  0  0
  1  8  1  0  0  0  0
  2 21  1  6  0  0  0
  2  7  1  0  0  0  0
  2  5  1  0  0  0  0
  4  1  1  0  0  0  0
  5  9  1  0  0  0  0
  7  4  1  1  0  0  0
  7  5  1  0  0  0  0
  8  6  1  0  0  0  0
  8  3  2  0  0  0  0
  9  6  2  0  0  0  0
 10 18  1  6  0  0  0
 10 12  1  0  0  0  0
 11  9  1  1  0  0  0
 11 10  1  0  0  0  0
 11 12  1  0  0  0  0
 13 14  2  0  0  0  0
 13 16  1  0  0  0  0
 14 18  1  0  0  0  0
 16 20  2  0  0  0  0
 17 16  1  0  0  0  0
 18 15  2  0  0  0  0
 19 13  1  0  0  0  0
 20 15  1  0  0  0  0
 22 26  1  0  0  0  0
 23 22  1  0  0  0  0
 25 27  2  0  0  0  0
 26 24  1  0  0  0  0
 26 30  2  0  0  0  0
 27 30  1  0  0  0  0
 28 25  1  0  0  0  0
 29 22  2  0  0  0  0
 29 25  1  0  0  0  0
 30 21  1  0  0  0  0
M  END
>  <MODEL>
8

>  <REMARK>
 VINA RESULT:      -9.1      1.413      2.034
  Name = 
  4 active torsions:
  status: ('A' for Active; 'I' for Inactive)
    1  A    between atoms: C_3  and  N_23
    2  A    between atoms: C_13  and  C_16
    3  A    between atoms: C_22  and  C_24
    4  A    between atoms: N_23  and  C_30
                            x       y       z     vdW  Elec       q    Type
                         _______ _______ _______ _____ _____    ______ ____

>  <TORSDO>
F 4

$$$$
=
 OpenBabel10222417393D

 30 34  0  0  1  0  0  0  0  0999 V2000
  181.7110  179.0650  139.5520 C   0  0  0  0  0  2  0  0  0  0  0  0
  185.0920  178.1170  139.0590 C   0  0  1  0  0  3  0  0  0  0  0  0
  180.6410  178.2700  141.5150 O   0  0  0  0  0  0  0  0  0  0  0  0
  182.7100  178.2590  138.7250 C   0  0  0  0  0  2  0  0  0  0  0  0
  184.5040  178.9170  140.1720 N   0  0  0  0  0  0  0  0  0  0  0  0
  182.8770  178.8750  141.9190 C   0  0  0  0  0  3  0  0  0  0  0  0
  184.0500  178.9650  138.7590 C   0  0  1  0  0  3  0  0  0  0  0  0
  181.7150  178.6970  141.0140 C   0  0  0  0  0  0  0  0  0  0  0  0
  184.1530  179.0260  141.5450 C   0  0  0  0  0  0  0  0  0  0  0  0
  185.2600  177.7940  143.3810 C   0  0  2  0  0  3  0  0  0  0  0  0
  185.2280  179.0910  142.5820 C   0  0  2  0  0  3  0  0  0  0  0  0
  184.6260  179.0380  143.9710 C   0  0  0  0  0  2  0  0  0  0  0  0
  188.1450  177.7630  145.8670 C   0  0  0  0  0  0  0  0  0  0  0  0
  186.8720  177.9440  145.3210 C   0  0  0  0  0  3  0  0  0  0  0  0
  187.6420  177.0370  143.2120 C   0  0  0  0  0  3  0  0  0  0  0  0
  189.1720  177.2180  145.0820 C   0  0  0  0  0  0  0  0  0  0  0  0
  190.5330  177.0150  145.6460 C   0  0  0  0  0  1  0  0  0  0  0  0
  186.6080  177.5670  143.9950 C   0  0  0  0  0  0  0  0  0  0  0  0
  188.3730  178.1160  147.1580 F   0  0  0  0  0  0  0  0  0  0  0  0
  188.9180  176.8600  143.7540 C   0  0  0  0  0  3  0  0  0  0  0  0
  186.3500  178.7220  138.6510 N   0  0  0  0  0  2  0  0  0  0  0  0
  189.0950  176.6610  137.0960 C   0  0  0  0  0  0  0  0  0  0  0  0
  189.4370  175.9600  135.8290 C   0  0  0  0  0  1  0  0  0  0  0  0
  187.0300  177.4020  136.1690 F   0  0  0  0  0  0  0  0  0  0  0  0
  189.6900  177.2590  139.3640 C   0  0  0  0  0  0  0  0  0  0  0  0
  187.8840  177.3600  137.2250 C   0  0  0  0  0  0  0  0  0  0  0  0
  188.4880  177.9530  139.4990 C   0  0  0  0  0  3  0  0  0  0  0  0
  190.6480  177.2070  140.4970 C   0  0  0  0  0  1  0  0  0  0  0  0
  189.9920  176.6120  138.1660 C   0  0  0  0  0  3  0  0  0  0  0  0
  187.5740  178.0070  138.4430 C   0  0  0  0  0  0  0  0  0  0  0  0
  1  8  1  0  0  0  0
  2 21  1  6  0  0  0
  2  5  1  0  0  0  0
  4  1  1  0  0  0  0
  5  9  1  0  0  0  0
  7  4  1  1  0  0  0
  7  2  1  0  0  0  0
  7  5  1  0  0  0  0
  8  3  2  0  0  0  0
  8  6  1  0  0  0  0
  9  6  2  0  0  0  0
 10 12  1  0  0  0  0
 10 18  1  1  0  0  0
 11  9  1  6  0  0  0
 11 10  1  0  0  0  0
 11 12  1  0  0  0  0
 13 19  1  0  0  0  0
 14 13  1  0  0  0  0
 15 20  2  0  0  0  0
 15 18  1  0  0  0  0
 16 17  1  0  0  0  0
 16 13  2  0  0  0  0
 18 14  2  0  0  0  0
 20 16  1  0  0  0  0
 22 26  2  0  0  0  0
 22 29  1  0  0  0  0
 23 22  1  0  0  0  0
 24 26  1  0  0  0  0
 25 27  1  0  0  0  0
 25 28  1  0  0  0  0
 26 30  1  0  0  0  0
 29 25  2  0  0  0  0
 30 21  1  0  0  0  0
 30 27  2  0  0  0  0
M  END
>  <MODEL>
9

>  <REMARK>
 VINA RESULT:      -9.0      3.216      6.278
  Name = 
  4 active torsions:
  status: ('A' for Active; 'I' for Inactive)
    1  A    between atoms: C_3  and  N_23
    2  A    between atoms: C_13  and  C_16
    3  A    between atoms: C_22  and  C_24
    4  A    between atoms: N_23  and  C_30
                            x       y       z     vdW  Elec       q    Type
                         _______ _______ _______ _____ _____    ______ ____

>  <TORSDO>
F 4

$$$$
