=
 OpenBabel10222418083D

 25 28  0  0  1  0  0  0  0  0999 V2000
  191.1600  176.0270  146.1950 N   0  0  0  0  0  2  0  0  0  0  0  0
  191.7070  177.1540  145.5610 N   0  0  0  0  0  2  0  0  0  0  0  0
  188.7710  178.0070  146.1520 C   0  0  2  0  0  3  0  0  0  0  0  0
  190.9050  178.0860  144.8280 C   0  0  0  0  0  0  0  0  0  0  0  0
  191.6270  179.3480  144.0870 S   0  0  0  0  0  0  0  0  0  0  0  0
  189.4150  177.9600  144.7530 C   0  0  1  0  0  3  0  0  0  0  0  0
  188.9480  176.7120  146.9560 C   0  0  0  0  0  2  0  0  0  0  0  0
  186.7910  177.8090  143.7230 C   0  0  1  0  0  3  0  0  0  0  0  0
  188.9990  176.7070  143.9720 C   0  0  0  0  0  2  0  0  0  0  0  0
  186.4660  177.5090  145.1800 C   0  0  0  0  0  2  0  0  0  0  0  0
  187.2950  178.4300  146.0680 C   0  0  1  0  0  3  0  0  0  0  0  0
  190.4000  176.4890  147.3470 C   0  0  0  0  0  2  0  0  0  0  0  0
  187.7780  176.8730  143.1690 N   0  0  0  0  0  2  0  0  0  0  0  0
  186.6970  178.5140  147.3920 N   0  0  0  0  0  2  0  0  0  0  0  0
  185.5750  179.2640  147.2750 O   0  0  0  0  0  1  0  0  0  0  0  0
  185.5140  177.7540  142.9010 C   0  0  0  0  0  2  0  0  0  0  0  0
  185.3240  179.0280  142.0880 C   0  0  0  0  0  2  0  0  0  0  0  0
  184.6300  178.7990  139.5530 C   0  0  0  0  0  2  0  0  0  0  0  0
  185.4660  178.5620  138.3870 N   0  0  0  0  0  0  0  0  0  0  0  0
  186.6830  178.4390  138.8040 C   0  0  0  0  0  0  0  0  0  0  0  0
  185.6400  178.8080  140.6460 C   0  0  0  0  0  0  0  0  0  0  0  0
  186.8330  178.5950  140.2080 N   0  0  0  0  0  0  0  0  0  0  0  0
  189.1120  178.0450  138.6750 C   0  0  0  0  0  2  0  0  0  0  0  0
  187.8350  178.2340  137.8780 C   0  0  0  0  0  3  0  0  0  0  0  0
  188.4140  176.8450  138.0770 C   0  0  0  0  0  2  0  0  0  0  0  0
  1 12  1  0  0  0  0
  2  1  1  0  0  0  0
  3  7  1  6  0  0  0
  4  2  1  0  0  0  0
  5  4  2  0  0  0  0
  6  9  1  1  0  0  0
  6  4  1  0  0  0  0
  6  3  1  0  0  0  0
  7 12  1  0  0  0  0
  8 16  1  6  0  0  0
  8 10  1  0  0  0  0
 10 11  1  0  0  0  0
 11  3  1  0  0  0  0
 11 14  1  1  0  0  0
 13  8  1  0  0  0  0
 13  9  1  0  0  0  0
 15 14  1  0  0  0  0
 17 16  1  0  0  0  0
 18 21  1  0  0  0  0
 19 20  2  0  0  0  0
 19 18  1  0  0  0  0
 20 22  1  0  0  0  0
 21 17  1  0  0  0  0
 22 21  2  0  0  0  0
 24 25  1  0  0  0  0
 24 23  1  0  0  0  0
 24 20  1  0  0  0  0
 25 23  1  0  0  0  0
M  END
>  <MODEL>
1

>  <REMARK>
 VINA RESULT:      -7.6      0.000      0.000
  Name = 
  5 active torsions:
  status: ('A' for Active; 'I' for Inactive)
    1  A    between atoms: C_1  and  C_18
    2  A    between atoms: C_1  and  C_23
    3  A    between atoms: C_10  and  C_16
    4  A    between atoms: N_11  and  C_19
    5  A    between atoms: C_14  and  C_18
                            x       y       z     vdW  Elec       q    Type
                         _______ _______ _______ _____ _____    ______ ____

>  <TORSDO>
F 5

$$$$
=
 OpenBabel10222418083D

 25 28  0  0  1  0  0  0  0  0999 V2000
  191.1720  176.2300  146.5340 N   0  0  0  0  0  2  0  0  0  0  0  0
  191.6990  177.3050  145.8020 N   0  0  0  0  0  2  0  0  0  0  0  0
  188.7390  178.1420  146.2900 C   0  0  2  0  0  3  0  0  0  0  0  0
  190.8840  178.1470  144.9790 C   0  0  0  0  0  0  0  0  0  0  0  0
  191.5850  179.3510  144.1300 S   0  0  0  0  0  0  0  0  0  0  0  0
  189.3980  177.9800  144.9060 C   0  0  1  0  0  3  0  0  0  0  0  0
  188.9370  176.9310  147.2130 C   0  0  0  0  0  2  0  0  0  0  0  0
  186.7870  177.6740  143.8750 C   0  0  1  0  0  3  0  0  0  0  0  0
  189.0160  176.6510  144.2420 C   0  0  0  0  0  2  0  0  0  0  0  0
  186.4550  177.5030  145.3520 C   0  0  0  0  0  2  0  0  0  0  0  0
  187.2550  178.5220  146.1560 C   0  0  1  0  0  3  0  0  0  0  0  0
  190.3910  176.7790  147.6330 C   0  0  0  0  0  2  0  0  0  0  0  0
  187.8000  176.7130  143.4180 N   0  0  0  0  0  2  0  0  0  0  0  0
  186.6440  178.7140  147.4620 N   0  0  0  0  0  2  0  0  0  0  0  0
  185.4060  179.2230  147.2510 O   0  0  0  0  0  1  0  0  0  0  0  0
  185.5190  177.5140  143.0540 C   0  0  0  0  0  2  0  0  0  0  0  0
  184.9700  178.8650  142.6140 C   0  0  0  0  0  2  0  0  0  0  0  0
  183.1730  178.7420  140.6870 C   0  0  0  0  0  2  0  0  0  0  0  0
  181.7280  178.6010  140.7820 N   0  0  0  0  0  0  0  0  0  0  0  0
  181.4260  178.5740  142.0380 C   0  0  0  0  0  0  0  0  0  0  0  0
  183.5650  178.7510  142.1230 C   0  0  0  0  0  0  0  0  0  0  0  0
  182.5470  178.6570  142.9070 N   0  0  0  0  0  0  0  0  0  0  0  0
  179.9750  178.5760  144.0310 C   0  0  0  0  0  2  0  0  0  0  0  0
  180.0270  178.3900  142.5260 C   0  0  0  0  0  3  0  0  0  0  0  0
  179.5140  179.6890  143.1180 C   0  0  0  0  0  2  0  0  0  0  0  0
  1 12  1  0  0  0  0
  2  1  1  0  0  0  0
  3  7  1  6  0  0  0
  4  2  1  0  0  0  0
  5  4  2  0  0  0  0
  6  9  1  1  0  0  0
  6  4  1  0  0  0  0
  6  3  1  0  0  0  0
  7 12  1  0  0  0  0
  8 16  1  6  0  0  0
  8 10  1  0  0  0  0
 10 11  1  0  0  0  0
 11  3  1  0  0  0  0
 11 14  1  1  0  0  0
 13  8  1  0  0  0  0
 13  9  1  0  0  0  0
 15 14  1  0  0  0  0
 17 16  1  0  0  0  0
 18 19  1  0  0  0  0
 18 21  1  0  0  0  0
 19 20  2  0  0  0  0
 20 24  1  0  0  0  0
 20 22  1  0  0  0  0
 21 17  1  0  0  0  0
 21 22  2  0  0  0  0
 24 25  1  0  0  0  0
 24 23  1  0  0  0  0
 25 23  1  0  0  0  0
M  END
>  <MODEL>
2

>  <REMARK>
 VINA RESULT:      -7.2      2.571      4.013
  Name = 
  5 active torsions:
  status: ('A' for Active; 'I' for Inactive)
    1  A    between atoms: C_1  and  C_18
    2  A    between atoms: C_1  and  C_23
    3  A    between atoms: C_10  and  C_16
    4  A    between atoms: N_11  and  C_19
    5  A    between atoms: C_14  and  C_18
                            x       y       z     vdW  Elec       q    Type
                         _______ _______ _______ _____ _____    ______ ____

>  <TORSDO>
F 5

$$$$
=
 OpenBabel10222418083D

 25 28  0  0  1  0  0  0  0  0999 V2000
  189.9620  177.0340  135.0520 N   0  0  0  0  0  2  0  0  0  0  0  0
  189.7460  175.6700  135.3050 N   0  0  0  0  0  2  0  0  0  0  0  0
  188.1050  177.0900  137.5390 C   0  0  2  0  0  3  0  0  0  0  0  0
  189.4360  175.1710  136.6110 C   0  0  0  0  0  0  0  0  0  0  0  0
  189.2400  173.5650  136.8240 S   0  0  0  0  0  0  0  0  0  0  0  0
  189.2480  176.0850  137.7820 C   0  0  1  0  0  3  0  0  0  0  0  0
  188.4780  178.2260  136.5760 C   0  0  0  0  0  2  0  0  0  0  0  0
  189.4880  177.2200  140.3550 C   0  0  1  0  0  3  0  0  0  0  0  0
  190.5580  176.7860  138.1600 C   0  0  0  0  0  2  0  0  0  0  0  0
  188.6140  178.2990  139.7270 C   0  0  0  0  0  2  0  0  0  0  0  0
  187.5480  177.6270  138.8680 C   0  0  1  0  0  3  0  0  0  0  0  0
  188.6800  177.7150  135.1580 C   0  0  0  0  0  2  0  0  0  0  0  0
  190.7320  177.0050  139.6040 N   0  0  0  0  0  2  0  0  0  0  0  0
  186.4430  178.5450  138.6400 N   0  0  0  0  0  2  0  0  0  0  0  0
  185.9510  178.8850  139.8550 O   0  0  0  0  0  1  0  0  0  0  0  0
  189.8140  177.6100  141.7870 C   0  0  0  0  0  2  0  0  0  0  0  0
  189.5600  176.4540  142.7470 C   0  0  0  0  0  2  0  0  0  0  0  0
  189.5670  177.3930  145.2120 C   0  0  0  0  0  2  0  0  0  0  0  0
  188.4440  177.7160  146.0770 N   0  0  0  0  0  0  0  0  0  0  0  0
  187.3640  177.4270  145.4310 C   0  0  0  0  0  0  0  0  0  0  0  0
  188.8690  176.9140  143.9870 C   0  0  0  0  0  0  0  0  0  0  0  0
  187.5880  176.9310  144.1180 N   0  0  0  0  0  0  0  0  0  0  0  0
  186.0550  178.7870  147.0160 C   0  0  0  0  0  2  0  0  0  0  0  0
  186.0010  177.6730  145.9880 C   0  0  0  0  0  3  0  0  0  0  0  0
  185.5410  179.0720  145.6240 C   0  0  0  0  0  2  0  0  0  0  0  0
  1 12  1  0  0  0  0
  1  2  1  0  0  0  0
  2  4  1  0  0  0  0
  3  7  1  6  0  0  0
  3  6  1  0  0  0  0
  3 11  1  0  0  0  0
  4  5  2  0  0  0  0
  4  6  1  0  0  0  0
  6  9  1  6  0  0  0
  8 16  1  1  0  0  0
  9 13  1  0  0  0  0
 10  8  1  0  0  0  0
 11 14  1  6  0  0  0
 11 10  1  0  0  0  0
 12  7  1  0  0  0  0
 13  8  1  0  0  0  0
 14 15  1  0  0  0  0
 16 17  1  0  0  0  0
 17 21  1  0  0  0  0
 18 19  1  0  0  0  0
 20 24  1  0  0  0  0
 20 19  2  0  0  0  0
 21 22  2  0  0  0  0
 21 18  1  0  0  0  0
 22 20  1  0  0  0  0
 24 23  1  0  0  0  0
 25 24  1  0  0  0  0
 25 23  1  0  0  0  0
M  END
>  <MODEL>
3

>  <REMARK>
 VINA RESULT:      -7.2      3.393      7.938
  Name = 
  5 active torsions:
  status: ('A' for Active; 'I' for Inactive)
    1  A    between atoms: C_1  and  C_18
    2  A    between atoms: C_1  and  C_23
    3  A    between atoms: C_10  and  C_16
    4  A    between atoms: N_11  and  C_19
    5  A    between atoms: C_14  and  C_18
                            x       y       z     vdW  Elec       q    Type
                         _______ _______ _______ _____ _____    ______ ____

>  <TORSDO>
F 5

$$$$
=
 OpenBabel10222418083D

 25 28  0  0  1  0  0  0  0  0999 V2000
  189.8090  177.1260  135.1550 N   0  0  0  0  0  2  0  0  0  0  0  0
  189.5800  175.7570  135.3680 N   0  0  0  0  0  2  0  0  0  0  0  0
  188.2970  177.1040  137.8670 C   0  0  2  0  0  3  0  0  0  0  0  0
  189.4280  175.2000  136.6780 C   0  0  0  0  0  0  0  0  0  0  0  0
  189.2050  173.5910  136.8390 S   0  0  0  0  0  0  0  0  0  0  0  0
  189.4260  176.0560  137.9060 C   0  0  1  0  0  3  0  0  0  0  0  0
  188.5800  178.2780  136.9180 C   0  0  0  0  0  2  0  0  0  0  0  0
  190.0420  177.0490  140.4770 C   0  0  1  0  0  3  0  0  0  0  0  0
  190.7980  176.7000  138.1410 C   0  0  0  0  0  2  0  0  0  0  0  0
  189.1310  178.1820  140.0230 C   0  0  0  0  0  2  0  0  0  0  0  0
  187.9390  177.5870  139.2820 C   0  0  1  0  0  3  0  0  0  0  0  0
  188.5760  177.8360  135.4630 C   0  0  0  0  0  2  0  0  0  0  0  0
  191.1680  176.8380  139.5580 N   0  0  0  0  0  2  0  0  0  0  0  0
  186.8460  178.5460  139.2470 N   0  0  0  0  0  2  0  0  0  0  0  0
  186.5030  178.8060  140.5310 O   0  0  0  0  0  1  0  0  0  0  0  0
  190.5650  177.3530  141.8700 C   0  0  0  0  0  2  0  0  0  0  0  0
  189.4830  177.9730  142.7460 C   0  0  0  0  0  2  0  0  0  0  0  0
  191.0280  177.4520  144.8200 C   0  0  0  0  0  2  0  0  0  0  0  0
  190.6570  177.1850  146.2000 N   0  0  0  0  0  0  0  0  0  0  0  0
  189.3670  177.2110  146.2640 C   0  0  0  0  0  0  0  0  0  0  0  0
  189.6950  177.6520  144.1870 C   0  0  0  0  0  0  0  0  0  0  0  0
  188.7300  177.5080  145.0290 N   0  0  0  0  0  0  0  0  0  0  0  0
  188.9070  178.1840  148.4820 C   0  0  0  0  0  2  0  0  0  0  0  0
  188.6200  177.0270  147.5430 C   0  0  0  0  0  3  0  0  0  0  0  0
  187.6070  178.1440  147.7130 C   0  0  0  0  0  2  0  0  0  0  0  0
  1  2  1  0  0  0  0
  1 12  1  0  0  0  0
  2  4  1  0  0  0  0
  3  7  1  6  0  0  0
  3  6  1  0  0  0  0
  3 11  1  0  0  0  0
  4  5  2  0  0  0  0
  4  6  1  0  0  0  0
  6  9  1  6  0  0  0
  8 16  1  1  0  0  0
  9 13  1  0  0  0  0
 10  8  1  0  0  0  0
 11 14  1  6  0  0  0
 11 10  1  0  0  0  0
 12  7  1  0  0  0  0
 13  8  1  0  0  0  0
 14 15  1  0  0  0  0
 16 17  1  0  0  0  0
 17 21  1  0  0  0  0
 18 19  1  0  0  0  0
 19 20  2  0  0  0  0
 20 24  1  0  0  0  0
 21 18  1  0  0  0  0
 21 22  2  0  0  0  0
 22 20  1  0  0  0  0
 24 25  1  0  0  0  0
 24 23  1  0  0  0  0
 25 23  1  0  0  0  0
M  END
>  <MODEL>
4

>  <REMARK>
 VINA RESULT:      -7.1      3.362      8.166
  Name = 
  5 active torsions:
  status: ('A' for Active; 'I' for Inactive)
    1  A    between atoms: C_1  and  C_18
    2  A    between atoms: C_1  and  C_23
    3  A    between atoms: C_10  and  C_16
    4  A    between atoms: N_11  and  C_19
    5  A    between atoms: C_14  and  C_18
                            x       y       z     vdW  Elec       q    Type
                         _______ _______ _______ _____ _____    ______ ____

>  <TORSDO>
F 5

$$$$
=
 OpenBabel10222418083D

 25 28  0  0  1  0  0  0  0  0999 V2000
  181.6240  177.6830  137.3790 N   0  0  0  0  0  2  0  0  0  0  0  0
  181.2800  179.0440  137.4130 N   0  0  0  0  0  2  0  0  0  0  0  0
  184.0240  178.9510  138.8850 C   0  0  2  0  0  3  0  0  0  0  0  0
  181.7530  179.9290  138.4350 C   0  0  0  0  0  0  0  0  0  0  0  0
  181.2730  181.4890  138.4230 S   0  0  0  0  0  0  0  0  0  0  0  0
  182.7090  179.4750  139.4940 C   0  0  1  0  0  3  0  0  0  0  0  0
  183.8970  177.5580  138.2510 C   0  0  0  0  0  2  0  0  0  0  0  0
  183.8780  179.0070  142.0210 C   0  0  1  0  0  3  0  0  0  0  0  0
  182.0610  178.4470  140.4290 C   0  0  0  0  0  2  0  0  0  0  0  0
  184.8730  178.2210  141.1760 C   0  0  0  0  0  2  0  0  0  0  0  0
  185.1710  179.0110  139.9070 C   0  0  1  0  0  3  0  0  0  0  0  0
  183.0270  177.5870  137.0040 C   0  0  0  0  0  2  0  0  0  0  0  0
  182.4980  178.5430  141.8300 N   0  0  0  0  0  2  0  0  0  0  0  0
  186.4210  178.5540  139.3200 N   0  0  0  0  0  2  0  0  0  0  0  0
  187.3600  178.6020  140.2950 O   0  0  0  0  0  1  0  0  0  0  0  0
  184.2610  178.8910  143.4870 C   0  0  0  0  0  2  0  0  0  0  0  0
  185.6280  178.2390  143.6510 C   0  0  0  0  0  2  0  0  0  0  0  0
  185.4030  179.0010  146.1670 C   0  0  0  0  0  2  0  0  0  0  0  0
  186.1960  178.6110  147.3220 N   0  0  0  0  0  0  0  0  0  0  0  0
  187.1130  177.8030  146.9040 C   0  0  0  0  0  0  0  0  0  0  0  0
  186.0580  178.2220  145.0800 C   0  0  0  0  0  0  0  0  0  0  0  0
  187.0550  177.5280  145.5110 N   0  0  0  0  0  0  0  0  0  0  0  0
  189.4620  177.1070  147.1700 C   0  0  0  0  0  2  0  0  0  0  0  0
  188.0930  177.1530  147.8230 C   0  0  0  0  0  3  0  0  0  0  0  0
  189.1650  178.1520  148.2210 C   0  0  0  0  0  2  0  0  0  0  0  0
  1  2  1  0  0  0  0
  2  4  1  0  0  0  0
  3  7  1  1  0  0  0
  3  6  1  0  0  0  0
  3 11  1  0  0  0  0
  4  6  1  0  0  0  0
  5  4  2  0  0  0  0
  6  9  1  6  0  0  0
  8 16  1  1  0  0  0
  9 13  1  0  0  0  0
 10  8  1  0  0  0  0
 11 14  1  6  0  0  0
 11 10  1  0  0  0  0
 12  1  1  0  0  0  0
 12  7  1  0  0  0  0
 13  8  1  0  0  0  0
 14 15  1  0  0  0  0
 16 17  1  0  0  0  0
 17 21  1  0  0  0  0
 18 19  1  0  0  0  0
 20 19  2  0  0  0  0
 20 24  1  0  0  0  0
 21 22  2  0  0  0  0
 21 18  1  0  0  0  0
 22 20  1  0  0  0  0
 23 24  1  0  0  0  0
 23 25  1  0  0  0  0
 24 25  1  0  0  0  0
M  END
>  <MODEL>
5

>  <REMARK>
 VINA RESULT:      -7.1      3.667      8.606
  Name = 
  5 active torsions:
  status: ('A' for Active; 'I' for Inactive)
    1  A    between atoms: C_1  and  C_18
    2  A    between atoms: C_1  and  C_23
    3  A    between atoms: C_10  and  C_16
    4  A    between atoms: N_11  and  C_19
    5  A    between atoms: C_14  and  C_18
                            x       y       z     vdW  Elec       q    Type
                         _______ _______ _______ _____ _____    ______ ____

>  <TORSDO>
F 5

$$$$
=
 OpenBabel10222418083D

 25 28  0  0  1  0  0  0  0  0999 V2000
  191.2030  176.0440  146.2020 N   0  0  0  0  0  2  0  0  0  0  0  0
  191.7500  177.1900  145.6040 N   0  0  0  0  0  2  0  0  0  0  0  0
  188.7940  178.0010  146.1560 C   0  0  2  0  0  3  0  0  0  0  0  0
  190.9530  178.1300  144.8750 C   0  0  0  0  0  0  0  0  0  0  0  0
  191.6760  179.4150  144.1770 S   0  0  0  0  0  0  0  0  0  0  0  0
  189.4660  177.9900  144.7690 C   0  0  1  0  0  3  0  0  0  0  0  0
  188.9690  176.6890  146.9350 C   0  0  0  0  0  2  0  0  0  0  0  0
  186.8640  177.8360  143.6850 C   0  0  1  0  0  3  0  0  0  0  0  0
  189.0780  176.7510  143.9530 C   0  0  0  0  0  2  0  0  0  0  0  0
  186.5130  177.5010  145.1290 C   0  0  0  0  0  2  0  0  0  0  0  0
  187.3160  178.4100  146.0530 C   0  0  1  0  0  3  0  0  0  0  0  0
  190.4160  176.4720  147.3490 C   0  0  0  0  0  2  0  0  0  0  0  0
  187.8710  176.9220  143.1300 N   0  0  0  0  0  2  0  0  0  0  0  0
  186.6920  178.4590  147.3660 N   0  0  0  0  0  2  0  0  0  0  0  0
  185.6050  179.2600  147.2610 O   0  0  0  0  0  1  0  0  0  0  0  0
  185.6030  177.7870  142.8380 C   0  0  0  0  0  2  0  0  0  0  0  0
  185.5300  178.9720  141.8840 C   0  0  0  0  0  2  0  0  0  0  0  0
  182.9550  178.4550  141.6350 C   0  0  0  0  0  2  0  0  0  0  0  0
  182.0670  178.7200  140.5140 N   0  0  0  0  0  0  0  0  0  0  0  0
  182.7770  179.2560  139.5780 C   0  0  0  0  0  0  0  0  0  0  0  0
  184.2490  178.9810  141.1190 C   0  0  0  0  0  0  0  0  0  0  0  0
  184.1440  179.4430  139.9200 N   0  0  0  0  0  0  0  0  0  0  0  0
  180.7320  180.0780  138.4750 C   0  0  0  0  0  2  0  0  0  0  0  0
  182.1910  179.7120  138.2830 C   0  0  0  0  0  3  0  0  0  0  0  0
  181.7750  181.1670  138.3910 C   0  0  0  0  0  2  0  0  0  0  0  0
  1 12  1  0  0  0  0
  2  1  1  0  0  0  0
  3  7  1  6  0  0  0
  4  2  1  0  0  0  0
  5  4  2  0  0  0  0
  6  9  1  1  0  0  0
  6  4  1  0  0  0  0
  6  3  1  0  0  0  0
  7 12  1  0  0  0  0
  8 16  1  6  0  0  0
  8 10  1  0  0  0  0
 10 11  1  0  0  0  0
 11  3  1  0  0  0  0
 11 14  1  1  0  0  0
 13  8  1  0  0  0  0
 13  9  1  0  0  0  0
 15 14  1  0  0  0  0
 17 16  1  0  0  0  0
 19 18  1  0  0  0  0
 20 22  1  0  0  0  0
 20 19  2  0  0  0  0
 21 18  1  0  0  0  0
 21 17  1  0  0  0  0
 22 21  2  0  0  0  0
 24 25  1  0  0  0  0
 24 23  1  0  0  0  0
 24 20  1  0  0  0  0
 25 23  1  0  0  0  0
M  END
>  <MODEL>
6

>  <REMARK>
 VINA RESULT:      -7.1      2.016      2.978
  Name = 
  5 active torsions:
  status: ('A' for Active; 'I' for Inactive)
    1  A    between atoms: C_1  and  C_18
    2  A    between atoms: C_1  and  C_23
    3  A    between atoms: C_10  and  C_16
    4  A    between atoms: N_11  and  C_19
    5  A    between atoms: C_14  and  C_18
                            x       y       z     vdW  Elec       q    Type
                         _______ _______ _______ _____ _____    ______ ____

>  <TORSDO>
F 5

$$$$
=
 OpenBabel10222418083D

 25 28  0  0  1  0  0  0  0  0999 V2000
  191.6290  175.9220  145.1700 N   0  0  0  0  0  2  0  0  0  0  0  0
  191.8840  177.1590  144.5570 N   0  0  0  0  0  2  0  0  0  0  0  0
  189.7100  177.8360  146.6830 C   0  0  2  0  0  3  0  0  0  0  0  0
  190.9060  178.2040  144.5030 C   0  0  0  0  0  0  0  0  0  0  0  0
  191.2710  179.5970  143.7350 S   0  0  0  0  0  0  0  0  0  0  0  0
  189.5710  178.0720  145.1660 C   0  0  1  0  0  3  0  0  0  0  0  0
  190.1520  176.4110  147.0470 C   0  0  0  0  0  2  0  0  0  0  0  0
  186.7790  178.0850  145.5860 C   0  0  1  0  0  3  0  0  0  0  0  0
  188.7170  176.9890  144.4940 C   0  0  0  0  0  2  0  0  0  0  0  0
  187.1940  177.5010  146.9310 C   0  0  0  0  0  2  0  0  0  0  0  0
  188.4290  178.2450  147.4280 C   0  0  1  0  0  3  0  0  0  0  0  0
  191.5820  176.1390  146.6090 C   0  0  0  0  0  2  0  0  0  0  0  0
  187.2780  177.2890  144.4560 N   0  0  0  0  0  2  0  0  0  0  0  0
  188.5750  178.0600  148.8630 N   0  0  0  0  0  2  0  0  0  0  0  0
  187.3270  178.0130  149.3880 O   0  0  0  0  0  1  0  0  0  0  0  0
  185.2630  178.1720  145.5230 C   0  0  0  0  0  2  0  0  0  0  0  0
  184.8100  179.4220  144.7790 C   0  0  0  0  0  2  0  0  0  0  0  0
  182.5020  178.9870  143.5780 C   0  0  0  0  0  2  0  0  0  0  0  0
  182.2370  178.6450  142.1890 N   0  0  0  0  0  0  0  0  0  0  0  0
  183.3780  178.5480  141.5920 C   0  0  0  0  0  0  0  0  0  0  0  0
  183.9880  179.0790  143.5820 C   0  0  0  0  0  0  0  0  0  0  0  0
  184.4960  178.8200  142.4260 N   0  0  0  0  0  0  0  0  0  0  0  0
  182.7760  179.3190  139.3290 C   0  0  0  0  0  2  0  0  0  0  0  0
  183.5010  178.2560  140.1330 C   0  0  0  0  0  3  0  0  0  0  0  0
  184.2820  179.3640  139.4510 C   0  0  0  0  0  2  0  0  0  0  0  0
  1 12  1  0  0  0  0
  2  1  1  0  0  0  0
  3  7  1  6  0  0  0
  3 11  1  0  0  0  0
  4  2  1  0  0  0  0
  4  6  1  0  0  0  0
  5  4  2  0  0  0  0
  6  9  1  6  0  0  0
  6  3  1  0  0  0  0
  8 16  1  1  0  0  0
  8 10  1  0  0  0  0
 10 11  1  0  0  0  0
 11 14  1  1  0  0  0
 12  7  1  0  0  0  0
 13  9  1  0  0  0  0
 13  8  1  0  0  0  0
 14 15  1  0  0  0  0
 17 16  1  0  0  0  0
 18 21  1  0  0  0  0
 19 18  1  0  0  0  0
 20 19  2  0  0  0  0
 20 22  1  0  0  0  0
 21 17  1  0  0  0  0
 22 21  2  0  0  0  0
 23 25  1  0  0  0  0
 23 24  1  0  0  0  0
 24 20  1  0  0  0  0
 25 24  1  0  0  0  0
M  END
>  <MODEL>
7

>  <REMARK>
 VINA RESULT:      -6.9      2.391      3.020
  Name = 
  5 active torsions:
  status: ('A' for Active; 'I' for Inactive)
    1  A    between atoms: C_1  and  C_18
    2  A    between atoms: C_1  and  C_23
    3  A    between atoms: C_10  and  C_16
    4  A    between atoms: N_11  and  C_19
    5  A    between atoms: C_14  and  C_18
                            x       y       z     vdW  Elec       q    Type
                         _______ _______ _______ _____ _____    ______ ____

>  <TORSDO>
F 5

$$$$
=
 OpenBabel10222418083D

 25 28  0  0  1  0  0  0  0  0999 V2000
  179.7880  177.0030  140.9590 N   0  0  0  0  0  2  0  0  0  0  0  0
  179.2660  178.3050  141.0250 N   0  0  0  0  0  2  0  0  0  0  0  0
  182.3460  178.7610  140.9390 C   0  0  2  0  0  3  0  0  0  0  0  0
  180.0020  179.3990  141.5840 C   0  0  0  0  0  0  0  0  0  0  0  0
  179.3040  180.8720  141.6580 S   0  0  0  0  0  0  0  0  0  0  0  0
  181.4100  179.2400  142.0660 C   0  0  1  0  0  3  0  0  0  0  0  0
  182.1830  177.2740  140.5920 C   0  0  0  0  0  2  0  0  0  0  0  0
  183.7040  179.3450  143.7090 C   0  0  1  0  0  3  0  0  0  0  0  0
  181.4810  178.3260  143.2960 C   0  0  0  0  0  2  0  0  0  0  0  0
  184.2980  178.5350  142.5640 C   0  0  0  0  0  2  0  0  0  0  0  0
  183.8100  179.1200  141.2430 C   0  0  1  0  0  3  0  0  0  0  0  0
  180.8340  176.9930  139.9480 C   0  0  0  0  0  2  0  0  0  0  0  0
  182.5070  178.7100  144.2770 N   0  0  0  0  0  2  0  0  0  0  0  0
  184.6870  178.7030  140.1610 N   0  0  0  0  0  2  0  0  0  0  0  0
  184.7780  179.7450  139.2990 O   0  0  0  0  0  1  0  0  0  0  0  0
  184.7530  179.5260  144.7930 C   0  0  0  0  0  2  0  0  0  0  0  0
  184.9860  178.2300  145.5600 C   0  0  0  0  0  2  0  0  0  0  0  0
  187.1060  177.8820  147.0910 C   0  0  0  0  0  2  0  0  0  0  0  0
  188.4810  177.6050  146.7100 N   0  0  0  0  0  0  0  0  0  0  0  0
  188.5260  177.5840  145.4190 C   0  0  0  0  0  0  0  0  0  0  0  0
  186.4410  177.9680  145.7620 C   0  0  0  0  0  0  0  0  0  0  0  0
  187.2700  177.7980  144.7910 N   0  0  0  0  0  0  0  0  0  0  0  0
  189.6960  177.8770  143.2690 C   0  0  0  0  0  2  0  0  0  0  0  0
  189.7760  177.2780  144.6610 C   0  0  0  0  0  3  0  0  0  0  0  0
  190.5100  178.5670  144.3400 C   0  0  0  0  0  2  0  0  0  0  0  0
  1  2  1  0  0  0  0
  2  4  1  0  0  0  0
  3  7  1  1  0  0  0
  3 11  1  0  0  0  0
  3  6  1  0  0  0  0
  4  5  2  0  0  0  0
  4  6  1  0  0  0  0
  6  9  1  1  0  0  0
  8 13  1  0  0  0  0
  8 16  1  1  0  0  0
  9 13  1  0  0  0  0
 10  8  1  0  0  0  0
 11 14  1  6  0  0  0
 11 10  1  0  0  0  0
 12  7  1  0  0  0  0
 12  1  1  0  0  0  0
 15 14  1  0  0  0  0
 16 17  1  0  0  0  0
 17 21  1  0  0  0  0
 19 18  1  0  0  0  0
 20 19  2  0  0  0  0
 21 18  1  0  0  0  0
 22 20  1  0  0  0  0
 22 21  2  0  0  0  0
 23 25  1  0  0  0  0
 23 24  1  0  0  0  0
 24 20  1  0  0  0  0
 25 24  1  0  0  0  0
M  END
>  <MODEL>
8

>  <REMARK>
 VINA RESULT:      -6.9      4.332      8.132
  Name = 
  5 active torsions:
  status: ('A' for Active; 'I' for Inactive)
    1  A    between atoms: C_1  and  C_18
    2  A    between atoms: C_1  and  C_23
    3  A    between atoms: C_10  and  C_16
    4  A    between atoms: N_11  and  C_19
    5  A    between atoms: C_14  and  C_18
                            x       y       z     vdW  Elec       q    Type
                         _______ _______ _______ _____ _____    ______ ____

>  <TORSDO>
F 5

$$$$
=
 OpenBabel10222418083D

 25 28  0  0  1  0  0  0  0  0999 V2000
  180.8400  179.5290  140.4840 N   0  0  0  0  0  2  0  0  0  0  0  0
  180.9710  178.2250  139.9810 N   0  0  0  0  0  2  0  0  0  0  0  0
  182.9360  178.2710  142.3970 C   0  0  2  0  0  3  0  0  0  0  0  0
  182.1660  177.4550  140.1480 C   0  0  0  0  0  0  0  0  0  0  0  0
  182.2490  175.9610  139.4960 S   0  0  0  0  0  0  0  0  0  0  0  0
  183.3300  177.9640  140.9390 C   0  0  1  0  0  3  0  0  0  0  0  0
  182.1240  179.5650  142.5560 C   0  0  0  0  0  2  0  0  0  0  0  0
  185.9630  178.6770  141.6690 C   0  0  1  0  0  3  0  0  0  0  0  0
  183.9850  179.1710  140.2570 C   0  0  0  0  0  2  0  0  0  0  0  0
  185.2440  179.2380  142.8890 C   0  0  0  0  0  2  0  0  0  0  0  0
  184.1650  178.2510  143.3200 C   0  0  1  0  0  3  0  0  0  0  0  0
  180.7420  179.4390  141.9340 C   0  0  0  0  0  2  0  0  0  0  0  0
  185.4470  179.2360  140.4130 N   0  0  0  0  0  2  0  0  0  0  0  0
  183.7870  178.5010  144.7020 N   0  0  0  0  0  2  0  0  0  0  0  0
  184.7560  179.2750  145.2460 O   0  0  0  0  0  1  0  0  0  0  0  0
  187.4510  178.9650  141.7860 C   0  0  0  0  0  2  0  0  0  0  0  0
  188.2310  177.7070  142.1460 C   0  0  0  0  0  2  0  0  0  0  0  0
  189.9500  178.1620  144.0950 C   0  0  0  0  0  2  0  0  0  0  0  0
  189.7950  177.9570  145.5260 N   0  0  0  0  0  0  0  0  0  0  0  0
  188.6210  177.4550  145.7180 C   0  0  0  0  0  0  0  0  0  0  0  0
  188.6290  177.7030  143.5840 C   0  0  0  0  0  0  0  0  0  0  0  0
  187.8590  177.2890  144.5300 N   0  0  0  0  0  0  0  0  0  0  0  0
  188.6480  178.1400  148.0860 C   0  0  0  0  0  2  0  0  0  0  0  0
  188.0860  177.1540  147.0790 C   0  0  0  0  0  3  0  0  0  0  0  0
  187.2400  178.3160  147.5670 C   0  0  0  0  0  2  0  0  0  0  0  0
  1 12  1  0  0  0  0
  2  4  1  0  0  0  0
  2  1  1  0  0  0  0
  3  7  1  6  0  0  0
  3 11  1  0  0  0  0
  4  6  1  0  0  0  0
  5  4  2  0  0  0  0
  6  9  1  6  0  0  0
  6  3  1  0  0  0  0
  8 16  1  1  0  0  0
  8 10  1  0  0  0  0
  9 13  1  0  0  0  0
 10 11  1  0  0  0  0
 11 14  1  1  0  0  0
 12  7  1  0  0  0  0
 13  8  1  0  0  0  0
 14 15  1  0  0  0  0
 16 17  1  0  0  0  0
 17 21  1  0  0  0  0
 18 19  1  0  0  0  0
 19 20  2  0  0  0  0
 20 24  1  0  0  0  0
 21 18  1  0  0  0  0
 21 22  2  0  0  0  0
 22 20  1  0  0  0  0
 24 25  1  0  0  0  0
 24 23  1  0  0  0  0
 25 23  1  0  0  0  0
M  END
>  <MODEL>
9

>  <REMARK>
 VINA RESULT:      -6.9      3.306      7.582
  Name = 
  5 active torsions:
  status: ('A' for Active; 'I' for Inactive)
    1  A    between atoms: C_1  and  C_18
    2  A    between atoms: C_1  and  C_23
    3  A    between atoms: C_10  and  C_16
    4  A    between atoms: N_11  and  C_19
    5  A    between atoms: C_14  and  C_18
                            x       y       z     vdW  Elec       q    Type
                         _______ _______ _______ _____ _____    ______ ____

>  <TORSDO>
F 5

$$$$
