=
 OpenBabel10222416343D

 32 33  0  0  1  0  0  0  0  0999 V2000
  188.7080  177.4490  140.0530 C   0  0  1  0  0  3  0  0  0  0  0  0
  189.5520  177.0800  141.1790 N   0  0  0  0  0  0  0  0  0  0  0  0
  190.8430  177.1090  141.0890 C   0  0  0  0  0  3  0  0  0  0  0  0
  191.7870  175.7560  144.2870 O   0  0  0  0  0  0  0  0  0  0  0  0
  191.6730  176.7610  142.2020 N   0  0  0  0  0  2  0  0  0  0  0  0
  191.2400  176.6300  143.5630 C   0  0  0  0  0  0  0  0  0  0  0  0
  190.4620  178.7990  144.3820 C   0  0  0  0  0  2  0  0  0  0  0  0
  190.2100  177.5140  144.1560 C   0  0  0  0  0  0  0  0  0  0  0  0
  188.9490  176.9290  144.7150 C   0  0  0  0  0  2  0  0  0  0  0  0
  187.8900  177.8790  146.6300 O   0  0  0  0  0  0  0  0  0  0  0  0
  188.8420  177.1910  146.1800 C   0  0  0  0  0  0  0  0  0  0  0  0
  189.8110  176.7030  147.0460 O   0  0  0  0  0  1  0  0  0  0  0  0
  188.0150  179.2580  141.4360 O   0  0  0  0  0  0  0  0  0  0  0  0
  186.4530  178.5810  139.8410 N   0  0  0  0  0  2  0  0  0  0  0  0
  187.7220  178.4800  140.4880 C   0  0  0  0  0  0  0  0  0  0  0  0
  185.5130  179.5370  140.2390 N   0  0  0  0  0  2  0  0  0  0  0  0
  181.3070  178.5140  142.9500 N   0  0  0  0  0  0  0  0  0  0  0  0
  181.9690  178.8290  140.6660 C   0  0  0  0  0  3  0  0  0  0  0  0
  184.1330  178.8750  145.1600 C   0  0  0  0  0  0  0  0  0  0  0  0
  183.3010  179.0540  141.0220 C   0  0  0  0  0  0  0  0  0  0  0  0
  185.1780  179.1480  144.2710 C   0  0  0  0  0  3  0  0  0  0  0  0
  182.8690  178.6690  144.7030 N   0  0  0  0  0  0  0  0  0  0  0  0
  184.3970  178.8090  146.5560 N   0  0  0  0  0  1  0  0  0  0  0  0
  184.1470  179.2920  140.0570 N   0  0  0  0  0  0  0  0  0  0  0  0
  182.5760  178.7220  143.3790 C   0  0  0  0  0  0  0  0  0  0  0  0
  184.9370  179.2150  142.8980 C   0  0  0  0  0  3  0  0  0  0  0  0
  183.6490  179.0090  142.3950 C   0  0  1  0  0  3  0  0  0  0  0  0
  180.9910  178.5640  141.6300 C   0  0  0  0  0  3  0  0  0  0  0  0
  189.5480  178.0030  138.9090 C   0  0  0  0  0  2  0  0  0  0  0  0
  189.2650  177.2570  137.6200 C   0  0  0  0  0  2  0  0  0  0  0  0
  187.6410  178.4240  136.4260 C   0  0  0  0  0  1  0  0  0  0  0  0
  189.0710  178.2110  136.5430 N   0  0  0  0  0  2  0  0  0  0  0  0
  1 29  1  6  0  0  0
  1 15  1  0  0  0  0
  1  2  1  0  0  0  0
  3  2  2  0  0  0  0
  3  5  1  0  0  0  0
  5  6  1  0  0  0  0
  6  8  1  0  0  0  0
  6  4  2  0  0  0  0
  8  7  2  0  0  0  0
  8  9  1  0  0  0  0
  9 11  1  0  0  0  0
 11 10  2  0  0  0  0
 11 12  1  0  0  0  0
 14 16  1  0  0  0  0
 14 15  1  0  0  0  0
 15 13  2  0  0  0  0
 17 25  2  0  0  0  0
 18 20  1  0  0  0  0
 18 28  2  0  0  0  0
 19 23  1  0  0  0  0
 20 27  1  0  0  0  0
 21 19  1  0  0  0  0
 22 19  2  0  0  0  0
 24 16  1  0  0  0  0
 24 20  2  0  0  0  0
 25 22  1  0  0  0  0
 26 21  2  0  0  0  0
 27 26  1  6  0  0  0
 27 25  1  0  0  0  0
 28 17  1  0  0  0  0
 30 29  1  0  0  0  0
 31 32  1  0  0  0  0
 32 30  1  0  0  0  0
M  END
>  <MODEL>
1

>  <REMARK>
 VINA RESULT:      -7.8      0.000      0.000
  Name = 
  10 active torsions:
  status: ('A' for Active; 'I' for Inactive)
    1  A    between atoms: N_1  and  C_5
    2  A    between atoms: C_4  and  N_18
    3  A    between atoms: C_4  and  C_30
    4  A    between atoms: C_5  and  C_28
    5  A    between atoms: C_5  and  C_30
    6  A    between atoms: N_6  and  N_17
    7  A    between atoms: N_6  and  N_23
    8  A    between atoms: C_20  and  C_24
    9  A    between atoms: C_20  and  C_31
   10  A    between atoms: C_22  and  C_24
                            x       y       z     vdW  Elec       q    Type
                         _______ _______ _______ _____ _____    ______ ____

>  <TORSDO>
F 10

$$$$
=
 OpenBabel10222416343D

 32 33  0  0  1  0  0  0  0  0999 V2000
  190.0800  177.8890  139.5010 C   0  0  1  0  0  3  0  0  0  0  0  0
  189.2450  177.9060  138.3090 N   0  0  0  0  0  0  0  0  0  0  0  0
  189.7280  177.6050  137.1460 C   0  0  0  0  0  3  0  0  0  0  0  0
  186.8930  178.2690  135.0310 O   0  0  0  0  0  0  0  0  0  0  0  0
  188.9030  177.6070  135.9770 N   0  0  0  0  0  2  0  0  0  0  0  0
  187.4680  177.6440  135.9620 C   0  0  0  0  0  0  0  0  0  0  0  0
  186.6440  175.6110  137.0410 C   0  0  0  0  0  2  0  0  0  0  0  0
  186.6460  176.9380  136.9710 C   0  0  0  0  0  0  0  0  0  0  0  0
  185.6360  177.6930  137.7790 C   0  0  0  0  0  2  0  0  0  0  0  0
  183.4940  176.7830  138.3030 O   0  0  0  0  0  1  0  0  0  0  0  0
  184.2480  177.2760  137.4250 C   0  0  0  0  0  0  0  0  0  0  0  0
  183.7970  177.4020  136.1190 O   0  0  0  0  0  0  0  0  0  0  0  0
  188.1570  178.3530  140.8250 O   0  0  0  0  0  0  0  0  0  0  0  0
  189.6100  176.7600  141.7170 N   0  0  0  0  0  2  0  0  0  0  0  0
  189.2230  177.6900  140.7050 C   0  0  0  0  0  0  0  0  0  0  0  0
  188.8220  176.5640  142.8560 N   0  0  0  0  0  2  0  0  0  0  0  0
  187.7190  178.0450  147.6190 N   0  0  0  0  0  0  0  0  0  0  0  0
  189.5380  177.0800  146.3880 C   0  0  0  0  0  3  0  0  0  0  0  0
  184.8870  178.6310  145.4650 C   0  0  0  0  0  0  0  0  0  0  0  0
  188.8110  177.0880  145.1940 C   0  0  0  0  0  0  0  0  0  0  0  0
  185.3520  178.1780  144.2260 C   0  0  0  0  0  2  0  0  0  0  0  0
  185.6830  178.5790  146.5660 N   0  0  0  0  0  0  0  0  0  0  0  0
  183.5700  179.1560  145.5720 N   0  0  0  0  0  1  0  0  0  0  0  0
  189.4050  176.6270  144.1280 N   0  0  0  0  0  0  0  0  0  0  0  0
  186.9470  178.0870  146.5060 C   0  0  0  0  0  0  0  0  0  0  0  0
  186.6430  177.6620  144.1030 C   0  0  0  0  0  3  0  0  0  0  0  0
  187.4860  177.5930  145.2150 C   0  0  0  0  0  0  0  0  0  0  0  0
  188.9850  177.5560  147.5810 C   0  0  0  0  0  3  0  0  0  0  0  0
  191.1090  176.7680  139.4210 C   0  0  0  0  0  2  0  0  0  0  0  0
  192.4600  177.2370  139.9270 C   0  0  0  0  0  2  0  0  0  0  0  0
  192.8920  176.0260  137.9850 C   0  0  0  0  0  1  0  0  0  0  0  0
  193.4700  176.9740  138.9180 N   0  0  0  0  0  2  0  0  0  0  0  0
  1 29  1  6  0  0  0
  1 15  1  0  0  0  0
  2  1  1  0  0  0  0
  3  2  2  0  0  0  0
  4  6  2  0  0  0  0
  5  3  1  0  0  0  0
  6  5  1  0  0  0  0
  6  8  1  0  0  0  0
  8  7  2  0  0  0  0
  8  9  1  0  0  0  0
 11  9  1  0  0  0  0
 11 10  1  0  0  0  0
 12 11  2  0  0  0  0
 14 16  1  0  0  0  0
 15 13  2  0  0  0  0
 15 14  1  0  0  0  0
 16 24  1  0  0  0  0
 18 28  2  0  0  0  0
 19 23  1  0  0  0  0
 19 22  2  0  0  0  0
 20 27  1  0  0  0  0
 20 18  1  0  0  0  0
 21 19  1  0  0  0  0
 24 20  2  0  0  0  0
 25 22  1  0  0  0  0
 25 17  2  0  0  0  0
 26 21  1  0  0  0  0
 26 27  2  0  0  0  0
 27 25  1  0  0  0  0
 28 17  1  0  0  0  0
 29 30  1  0  0  0  0
 31 32  1  0  0  0  0
 32 30  1  0  0  0  0
M  END
>  <MODEL>
2

>  <REMARK>
 VINA RESULT:      -7.4      3.070      6.557
  Name = 
  10 active torsions:
  status: ('A' for Active; 'I' for Inactive)
    1  A    between atoms: N_1  and  C_5
    2  A    between atoms: C_4  and  N_18
    3  A    between atoms: C_4  and  C_30
    4  A    between atoms: C_5  and  C_28
    5  A    between atoms: C_5  and  C_30
    6  A    between atoms: N_6  and  N_17
    7  A    between atoms: N_6  and  N_23
    8  A    between atoms: C_20  and  C_24
    9  A    between atoms: C_20  and  C_31
   10  A    between atoms: C_22  and  C_24
                            x       y       z     vdW  Elec       q    Type
                         _______ _______ _______ _____ _____    ______ ____

>  <TORSDO>
F 10

$$$$
=
 OpenBabel10222416343D

 32 33  0  0  1  0  0  0  0  0999 V2000
  190.3000  177.4370  139.5010 C   0  0  1  0  0  3  0  0  0  0  0  0
  189.3190  177.6160  138.4420 N   0  0  0  0  0  0  0  0  0  0  0  0
  188.9030  178.7940  138.1040 C   0  0  0  0  0  3  0  0  0  0  0  0
  186.3750  177.9640  135.6810 O   0  0  0  0  0  0  0  0  0  0  0  0
  187.9490  178.9720  137.0510 N   0  0  0  0  0  2  0  0  0  0  0  0
  187.5670  177.9780  136.0890 C   0  0  0  0  0  0  0  0  0  0  0  0
  189.6740  177.4140  134.9840 C   0  0  0  0  0  2  0  0  0  0  0  0
  188.5320  177.0050  135.5280 C   0  0  0  0  0  0  0  0  0  0  0  0
  188.1410  175.5690  135.3620 C   0  0  0  0  0  2  0  0  0  0  0  0
  189.1130  174.3670  137.1800 O   0  0  0  0  0  0  0  0  0  0  0  0
  188.0760  174.8770  136.6830 C   0  0  0  0  0  0  0  0  0  0  0  0
  186.8640  174.7680  137.3500 O   0  0  0  0  0  1  0  0  0  0  0  0
  190.0650  176.2160  141.5310 O   0  0  0  0  0  0  0  0  0  0  0  0
  188.4070  177.8090  141.1390 N   0  0  0  0  0  0  0  0  0  0  0  0
  189.6000  177.1130  140.7780 C   0  0  0  0  0  0  0  0  0  0  0  0
  187.7320  177.5150  142.3290 N   0  0  0  0  0  0  0  0  0  0  0  0
  184.5020  178.8270  146.0610 N   0  0  0  0  0  0  0  0  0  0  0  0
  184.5390  178.6360  143.6700 C   0  0  0  0  0  3  0  0  0  0  0  0
  187.6950  177.9200  147.4670 C   0  0  0  0  0  0  0  0  0  0  0  0
  185.8710  178.2120  143.6670 C   0  0  0  0  0  0  0  0  0  0  0  0
  188.4440  177.5960  146.3300 C   0  0  0  0  0  3  0  0  0  0  0  0
  186.4010  178.3210  147.3540 N   0  0  0  0  0  0  0  0  0  0  0  0
  188.2940  177.8240  148.7530 N   0  0  0  0  0  1  0  0  0  0  0  0
  186.4130  177.9500  142.5100 N   0  0  0  0  0  0  0  0  0  0  0  0
  185.7930  178.4240  146.1450 C   0  0  0  0  0  0  0  0  0  0  0  0
  187.8710  177.6830  145.0600 C   0  0  0  0  0  3  0  0  0  0  0  0
  186.5440  178.0930  144.9090 C   0  0  1  0  0  3  0  0  0  0  0  0
  183.8730  178.9380  144.8620 C   0  0  0  0  0  3  0  0  0  0  0  0
  191.2660  176.3100  139.1540 C   0  0  0  0  0  2  0  0  0  0  0  0
  191.9230  176.5560  137.8100 C   0  0  0  0  0  2  0  0  0  0  0  0
  193.8810  175.3420  137.4680 C   0  0  0  0  0  1  0  0  0  0  0  0
  193.3640  176.5980  137.9780 N   0  0  0  0  0  2  0  0  0  0  0  0
  1 29  1  6  0  0  0
  1 15  1  0  0  0  0
  2  1  1  0  0  0  0
  3  2  2  0  0  0  0
  4  6  2  0  0  0  0
  5  3  1  0  0  0  0
  6  5  1  0  0  0  0
  7  8  2  0  0  0  0
  8  6  1  0  0  0  0
  9  8  1  0  0  0  0
  9 11  1  0  0  0  0
 11 10  2  0  0  0  0
 11 12  1  0  0  0  0
 14 16  2  0  0  0  0
 15 14  1  0  0  0  0
 15 13  2  0  0  0  0
 16 24  1  0  0  0  0
 17 25  2  0  0  0  0
 18 28  2  0  0  0  0
 19 23  1  0  0  0  0
 20 18  1  0  0  0  0
 20 27  1  0  0  0  0
 21 19  1  0  0  0  0
 22 19  2  0  0  0  0
 24 20  2  0  0  0  0
 25 22  1  0  0  0  0
 26 21  2  0  0  0  0
 27 26  1  1  0  0  0
 27 25  1  0  0  0  0
 28 17  1  0  0  0  0
 30 32  1  0  0  0  0
 30 29  1  0  0  0  0
 31 32  1  0  0  0  0
M  END
>  <MODEL>
3

>  <REMARK>
 VINA RESULT:      -7.4      2.971      5.988
  Name = 
  10 active torsions:
  status: ('A' for Active; 'I' for Inactive)
    1  A    between atoms: N_1  and  C_5
    2  A    between atoms: C_4  and  N_18
    3  A    between atoms: C_4  and  C_30
    4  A    between atoms: C_5  and  C_28
    5  A    between atoms: C_5  and  C_30
    6  A    between atoms: N_6  and  N_17
    7  A    between atoms: N_6  and  N_23
    8  A    between atoms: C_20  and  C_24
    9  A    between atoms: C_20  and  C_31
   10  A    between atoms: C_22  and  C_24
                            x       y       z     vdW  Elec       q    Type
                         _______ _______ _______ _____ _____    ______ ____

>  <TORSDO>
F 10

$$$$
=
 OpenBabel10222416343D

 32 33  0  0  1  0  0  0  0  0999 V2000
  188.5960  177.1730  145.3720 C   0  0  1  0  0  3  0  0  0  0  0  0
  187.2320  177.6730  145.4600 N   0  0  0  0  0  0  0  0  0  0  0  0
  186.8610  178.4460  146.4290 C   0  0  0  0  0  3  0  0  0  0  0  0
  183.3420  178.7610  145.7500 O   0  0  0  0  0  0  0  0  0  0  0  0
  185.5240  178.9500  146.5070 N   0  0  0  0  0  2  0  0  0  0  0  0
  184.5540  178.9230  145.4490 C   0  0  0  0  0  0  0  0  0  0  0  0
  185.3030  180.3190  143.5870 C   0  0  0  0  0  2  0  0  0  0  0  0
  184.9240  179.1250  144.0290 C   0  0  0  0  0  0  0  0  0  0  0  0
  184.6630  178.0460  143.0240 C   0  0  0  0  0  2  0  0  0  0  0  0
  184.1360  178.6730  140.7840 O   0  0  0  0  0  0  0  0  0  0  0  0
  183.7260  178.5170  141.9630 C   0  0  0  0  0  0  0  0  0  0  0  0
  182.4090  178.8170  142.2830 O   0  0  0  0  0  1  0  0  0  0  0  0
  190.4210  177.4760  143.8730 O   0  0  0  0  0  0  0  0  0  0  0  0
  188.3210  177.9620  142.9820 N   0  0  0  0  0  2  0  0  0  0  0  0
  189.1740  177.5380  144.0460 C   0  0  0  0  0  0  0  0  0  0  0  0
  188.8440  178.3150  141.7340 N   0  0  0  0  0  2  0  0  0  0  0  0
  189.1200  177.0720  136.7870 N   0  0  0  0  0  0  0  0  0  0  0  0
  187.5060  177.8550  138.3800 C   0  0  0  0  0  3  0  0  0  0  0  0
  192.3400  176.6250  138.3450 C   0  0  0  0  0  0  0  0  0  0  0  0
  188.4450  177.8630  139.4150 C   0  0  0  0  0  0  0  0  0  0  0  0
  192.0900  177.0020  139.6680 C   0  0  0  0  0  3  0  0  0  0  0  0
  191.3490  176.6580  137.4150 N   0  0  0  0  0  0  0  0  0  0  0  0
  193.6470  176.2090  137.9680 N   0  0  0  0  0  1  0  0  0  0  0  0
  188.0360  178.2480  140.5920 N   0  0  0  0  0  2  0  0  0  0  0  0
  190.0890  177.0500  137.7340 C   0  0  0  0  0  0  0  0  0  0  0  0
  190.8140  177.4150  140.0550 C   0  0  0  0  0  3  0  0  0  0  0  0
  189.7720  177.4590  139.1250 C   0  0  2  0  0  3  0  0  0  0  0  0
  187.8530  177.4610  137.0840 C   0  0  0  0  0  2  0  0  0  0  0  0
  189.4590  177.7650  146.4800 C   0  0  0  0  0  2  0  0  0  0  0  0
  190.2240  176.6780  147.2090 C   0  0  0  0  0  2  0  0  0  0  0  0
  192.3230  175.8140  147.7300 C   0  0  0  0  0  1  0  0  0  0  0  0
  191.6410  176.8150  146.9300 N   0  0  0  0  0  2  0  0  0  0  0  0
  1  2  1  0  0  0  0
  1 29  1  1  0  0  0
  2  3  2  0  0  0  0
  3  5  1  0  0  0  0
  6  4  2  0  0  0  0
  6  5  1  0  0  0  0
  7  8  2  0  0  0  0
  8  6  1  0  0  0  0
  9  8  1  0  0  0  0
 10 11  2  0  0  0  0
 11 12  1  0  0  0  0
 11  9  1  0  0  0  0
 13 15  2  0  0  0  0
 14 15  1  0  0  0  0
 15  1  1  0  0  0  0
 16 14  1  0  0  0  0
 17 28  1  0  0  0  0
 17 25  2  0  0  0  0
 18 20  2  0  0  0  0
 19 21  1  0  0  0  0
 20 24  1  0  0  0  0
 21 26  2  0  0  0  0
 22 25  1  0  0  0  0
 22 19  2  0  0  0  0
 23 19  1  0  0  0  0
 24 16  1  0  0  0  0
 25 27  1  0  0  0  0
 27 20  1  0  0  0  0
 27 26  1  1  0  0  0
 28 18  1  0  0  0  0
 29 30  1  0  0  0  0
 32 30  1  0  0  0  0
 32 31  1  0  0  0  0
M  END
>  <MODEL>
4

>  <REMARK>
 VINA RESULT:      -7.4      2.537      7.839
  Name = 
  10 active torsions:
  status: ('A' for Active; 'I' for Inactive)
    1  A    between atoms: N_1  and  C_5
    2  A    between atoms: C_4  and  N_18
    3  A    between atoms: C_4  and  C_30
    4  A    between atoms: C_5  and  C_28
    5  A    between atoms: C_5  and  C_30
    6  A    between atoms: N_6  and  N_17
    7  A    between atoms: N_6  and  N_23
    8  A    between atoms: C_20  and  C_24
    9  A    between atoms: C_20  and  C_31
   10  A    between atoms: C_22  and  C_24
                            x       y       z     vdW  Elec       q    Type
                         _______ _______ _______ _____ _____    ______ ____

>  <TORSDO>
F 10

$$$$
=
 OpenBabel10222416343D

 32 33  0  0  1  0  0  0  0  0999 V2000
  190.2070  177.7180  139.5680 C   0  0  1  0  0  3  0  0  0  0  0  0
  189.3060  177.8370  138.4310 N   0  0  0  0  0  0  0  0  0  0  0  0
  189.6990  177.5600  137.2300 C   0  0  0  0  0  3  0  0  0  0  0  0
  186.7920  178.4860  135.3220 O   0  0  0  0  0  0  0  0  0  0  0  0
  188.8080  177.6630  136.1140 N   0  0  0  0  0  2  0  0  0  0  0  0
  187.3800  177.7870  136.1900 C   0  0  0  0  0  0  0  0  0  0  0  0
  186.4960  175.7610  137.2350 C   0  0  0  0  0  2  0  0  0  0  0  0
  186.5760  177.0870  137.2180 C   0  0  0  0  0  0  0  0  0  0  0  0
  185.6640  177.8650  138.1160 C   0  0  0  0  0  2  0  0  0  0  0  0
  183.5430  177.0780  138.8740 O   0  0  0  0  0  1  0  0  0  0  0  0
  184.2410  177.4710  137.9030 C   0  0  0  0  0  0  0  0  0  0  0  0
  183.6930  177.5070  136.6290 O   0  0  0  0  0  0  0  0  0  0  0  0
  189.8370  176.2270  141.3860 O   0  0  0  0  0  0  0  0  0  0  0  0
  188.2700  177.9430  141.1820 N   0  0  0  0  0  0  0  0  0  0  0  0
  189.4430  177.2470  140.7590 C   0  0  0  0  0  0  0  0  0  0  0  0
  187.5370  177.5130  142.2930 N   0  0  0  0  0  0  0  0  0  0  0  0
  184.3670  178.8750  146.0590 N   0  0  0  0  0  0  0  0  0  0  0  0
  184.3800  178.6920  143.6680 C   0  0  0  0  0  3  0  0  0  0  0  0
  187.5550  177.8990  147.4330 C   0  0  0  0  0  0  0  0  0  0  0  0
  185.7030  178.2420  143.6500 C   0  0  0  0  0  0  0  0  0  0  0  0
  188.2860  177.5650  146.2880 C   0  0  0  0  0  3  0  0  0  0  0  0
  186.2680  178.3260  147.3330 N   0  0  0  0  0  0  0  0  0  0  0  0
  188.1630  177.7870  148.7130 N   0  0  0  0  0  1  0  0  0  0  0  0
  186.2290  177.9730  142.4880 N   0  0  0  0  0  0  0  0  0  0  0  0
  185.6510  178.4460  146.1300 C   0  0  0  0  0  0  0  0  0  0  0  0
  187.7040  177.6680  145.0240 C   0  0  0  0  0  3  0  0  0  0  0  0
  186.3840  178.1040  144.8860 C   0  0  2  0  0  3  0  0  0  0  0  0
  183.7310  179.0030  144.8670 C   0  0  0  0  0  3  0  0  0  0  0  0
  191.3290  176.7320  139.2640 C   0  0  0  0  0  2  0  0  0  0  0  0
  192.6650  177.2700  139.7370 C   0  0  0  0  0  2  0  0  0  0  0  0
  193.0900  176.2610  137.6810 C   0  0  0  0  0  1  0  0  0  0  0  0
  193.7230  176.7430  138.8950 N   0  0  0  0  0  2  0  0  0  0  0  0
  1 29  1  6  0  0  0
  1 15  1  0  0  0  0
  2  1  1  0  0  0  0
  3  2  2  0  0  0  0
  4  6  2  0  0  0  0
  5  6  1  0  0  0  0
  5  3  1  0  0  0  0
  6  8  1  0  0  0  0
  8  7  2  0  0  0  0
  8  9  1  0  0  0  0
 11  9  1  0  0  0  0
 11 10  1  0  0  0  0
 12 11  2  0  0  0  0
 14 16  2  0  0  0  0
 15 14  1  0  0  0  0
 15 13  2  0  0  0  0
 16 24  1  0  0  0  0
 17 25  2  0  0  0  0
 18 28  2  0  0  0  0
 19 23  1  0  0  0  0
 20 18  1  0  0  0  0
 20 27  1  0  0  0  0
 21 19  1  0  0  0  0
 22 19  2  0  0  0  0
 24 20  2  0  0  0  0
 25 22  1  0  0  0  0
 26 21  2  0  0  0  0
 27 26  1  6  0  0  0
 27 25  1  0  0  0  0
 28 17  1  0  0  0  0
 29 30  1  0  0  0  0
 31 32  1  0  0  0  0
 32 30  1  0  0  0  0
M  END
>  <MODEL>
5

>  <REMARK>
 VINA RESULT:      -7.3      2.868      5.817
  Name = 
  10 active torsions:
  status: ('A' for Active; 'I' for Inactive)
    1  A    between atoms: N_1  and  C_5
    2  A    between atoms: C_4  and  N_18
    3  A    between atoms: C_4  and  C_30
    4  A    between atoms: C_5  and  C_28
    5  A    between atoms: C_5  and  C_30
    6  A    between atoms: N_6  and  N_17
    7  A    between atoms: N_6  and  N_23
    8  A    between atoms: C_20  and  C_24
    9  A    between atoms: C_20  and  C_31
   10  A    between atoms: C_22  and  C_24
                            x       y       z     vdW  Elec       q    Type
                         _______ _______ _______ _____ _____    ______ ____

>  <TORSDO>
F 10

$$$$
=
 OpenBabel10222416343D

 32 33  0  0  1  0  0  0  0  0999 V2000
  190.7740  177.3160  138.7590 C   0  0  1  0  0  3  0  0  0  0  0  0
  189.4190  177.5000  138.2620 N   0  0  0  0  0  0  0  0  0  0  0  0
  189.0180  178.6440  137.8110 C   0  0  0  0  0  3  0  0  0  0  0  0
  185.5430  177.9570  137.1780 O   0  0  0  0  0  0  0  0  0  0  0  0
  187.6890  178.8200  137.3080 N   0  0  0  0  0  2  0  0  0  0  0  0
  186.7720  177.7680  136.9750 C   0  0  0  0  0  0  0  0  0  0  0  0
  187.6030  176.4490  135.0910 C   0  0  0  0  0  2  0  0  0  0  0  0
  187.2140  176.4950  136.3610 C   0  0  0  0  0  0  0  0  0  0  0  0
  187.0200  175.2020  137.0910 C   0  0  0  0  0  2  0  0  0  0  0  0
  184.7010  174.7760  136.7260 O   0  0  0  0  0  1  0  0  0  0  0  0
  185.8890  174.4230  136.5070 C   0  0  0  0  0  0  0  0  0  0  0  0
  186.1450  173.2890  135.7500 O   0  0  0  0  0  0  0  0  0  0  0  0
  191.8010  177.5150  140.8970 O   0  0  0  0  0  0  0  0  0  0  0  0
  189.5530  176.8930  140.9360 N   0  0  0  0  0  2  0  0  0  0  0  0
  190.7520  177.2530  140.2490 C   0  0  0  0  0  0  0  0  0  0  0  0
  189.5150  176.8220  142.3320 N   0  0  0  0  0  2  0  0  0  0  0  0
  187.8120  177.5740  147.0890 N   0  0  0  0  0  0  0  0  0  0  0  0
  186.9910  177.6100  144.8350 C   0  0  0  0  0  3  0  0  0  0  0  0
  191.3190  176.7430  147.1600 C   0  0  0  0  0  0  0  0  0  0  0  0
  188.2430  177.2730  144.3120 C   0  0  0  0  0  0  0  0  0  0  0  0
  191.6170  176.5750  145.8030 C   0  0  0  0  0  3  0  0  0  0  0  0
  190.0620  177.0700  147.5590 N   0  0  0  0  0  0  0  0  0  0  0  0
  192.3430  176.5660  148.1300 N   0  0  0  0  0  1  0  0  0  0  0  0
  188.3390  177.1540  143.0170 N   0  0  0  0  0  0  0  0  0  0  0  0
  189.0570  177.2470  146.6640 C   0  0  0  0  0  0  0  0  0  0  0  0
  190.6230  176.7430  144.8370 C   0  0  0  0  0  3  0  0  0  0  0  0
  189.3210  177.0810  145.2130 C   0  0  1  0  0  3  0  0  0  0  0  0
  186.7920  177.7560  146.2110 C   0  0  0  0  0  3  0  0  0  0  0  0
  191.3800  176.0310  138.2080 C   0  0  0  0  0  2  0  0  0  0  0  0
  192.6310  176.3250  137.4030 C   0  0  0  0  0  2  0  0  0  0  0  0
  194.3490  174.8570  137.9640 C   0  0  0  0  0  1  0  0  0  0  0  0
  193.7990  176.1680  138.2510 N   0  0  0  0  0  2  0  0  0  0  0  0
  1 29  1  6  0  0  0
  1 15  1  0  0  0  0
  2  1  1  0  0  0  0
  3  2  2  0  0  0  0
  5  3  1  0  0  0  0
  6  4  2  0  0  0  0
  6  5  1  0  0  0  0
  7  8  2  0  0  0  0
  8  6  1  0  0  0  0
  8  9  1  0  0  0  0
 11 10  1  0  0  0  0
 11  9  1  0  0  0  0
 12 11  2  0  0  0  0
 14 16  1  0  0  0  0
 15 13  2  0  0  0  0
 15 14  1  0  0  0  0
 16 24  1  0  0  0  0
 18 28  2  0  0  0  0
 19 22  2  0  0  0  0
 19 23  1  0  0  0  0
 20 18  1  0  0  0  0
 20 27  1  0  0  0  0
 21 19  1  0  0  0  0
 24 20  2  0  0  0  0
 25 17  2  0  0  0  0
 25 22  1  0  0  0  0
 26 21  2  0  0  0  0
 27 26  1  1  0  0  0
 27 25  1  0  0  0  0
 28 17  1  0  0  0  0
 30 29  1  0  0  0  0
 30 32  1  0  0  0  0
 31 32  1  0  0  0  0
M  END
>  <MODEL>
6

>  <REMARK>
 VINA RESULT:      -7.3      3.871      7.166
  Name = 
  10 active torsions:
  status: ('A' for Active; 'I' for Inactive)
    1  A    between atoms: N_1  and  C_5
    2  A    between atoms: C_4  and  N_18
    3  A    between atoms: C_4  and  C_30
    4  A    between atoms: C_5  and  C_28
    5  A    between atoms: C_5  and  C_30
    6  A    between atoms: N_6  and  N_17
    7  A    between atoms: N_6  and  N_23
    8  A    between atoms: C_20  and  C_24
    9  A    between atoms: C_20  and  C_31
   10  A    between atoms: C_22  and  C_24
                            x       y       z     vdW  Elec       q    Type
                         _______ _______ _______ _____ _____    ______ ____

>  <TORSDO>
F 10

$$$$
=
 OpenBabel10222416343D

 32 33  0  0  1  0  0  0  0  0999 V2000
  188.6990  177.6410  139.1510 C   0  0  1  0  0  3  0  0  0  0  0  0
  187.4030  178.3030  139.1530 N   0  0  0  0  0  0  0  0  0  0  0  0
  186.6320  178.2740  138.1140 C   0  0  0  0  0  3  0  0  0  0  0  0
  183.9520  180.4230  139.1850 O   0  0  0  0  0  0  0  0  0  0  0  0
  185.3510  178.9120  138.1220 N   0  0  0  0  0  2  0  0  0  0  0  0
  184.6550  179.3830  139.2860 C   0  0  0  0  0  0  0  0  0  0  0  0
  183.9660  177.5730  140.7800 C   0  0  0  0  0  2  0  0  0  0  0  0
  184.6990  178.6650  140.5810 C   0  0  0  0  0  0  0  0  0  0  0  0
  185.3920  179.2780  141.7580 C   0  0  0  0  0  2  0  0  0  0  0  0
  183.7740  179.9030  143.3950 O   0  0  0  0  0  0  0  0  0  0  0  0
  184.6180  179.0520  143.0130 C   0  0  0  0  0  0  0  0  0  0  0  0
  184.8510  177.9170  143.7770 O   0  0  0  0  0  1  0  0  0  0  0  0
  189.9410  176.4380  140.7880 O   0  0  0  0  0  0  0  0  0  0  0  0
  188.5860  178.1400  141.6300 N   0  0  0  0  0  2  0  0  0  0  0  0
  189.1180  177.3650  140.5560 C   0  0  0  0  0  0  0  0  0  0  0  0
  188.9610  177.8920  142.9540 N   0  0  0  0  0  2  0  0  0  0  0  0
  188.5200  177.2100  147.9970 N   0  0  0  0  0  0  0  0  0  0  0  0
  187.2160  178.0030  146.1470 C   0  0  0  0  0  3  0  0  0  0  0  0
  191.8000  176.1870  146.9040 C   0  0  0  0  0  0  0  0  0  0  0  0
  188.2540  177.7720  145.2400 C   0  0  0  0  0  0  0  0  0  0  0  0
  191.7510  176.4370  145.5280 C   0  0  0  0  0  2  0  0  0  0  0  0
  190.7260  176.4480  147.6950 N   0  0  0  0  0  0  0  0  0  0  0  0
  192.9860  175.6520  147.4790 N   0  0  0  0  0  1  0  0  0  0  0  0
  188.0320  178.0620  143.9880 N   0  0  0  0  0  0  0  0  0  0  0  0
  189.5760  176.9580  147.1850 C   0  0  0  0  0  0  0  0  0  0  0  0
  190.5950  176.9610  144.9480 C   0  0  0  0  0  3  0  0  0  0  0  0
  189.4730  177.2410  145.7320 C   0  0  0  0  0  0  0  0  0  0  0  0
  187.3600  177.7200  147.5080 C   0  0  0  0  0  3  0  0  0  0  0  0
  188.6330  176.3310  138.3760 C   0  0  0  0  0  2  0  0  0  0  0  0
  189.7240  176.2670  137.3250 C   0  0  0  0  0  2  0  0  0  0  0  0
  189.2510  177.3880  135.3400 C   0  0  0  0  0  1  0  0  0  0  0  0
  189.8290  177.5530  136.6600 N   0  0  0  0  0  2  0  0  0  0  0  0
  1 29  1  6  0  0  0
  1  2  1  0  0  0  0
  1 15  1  0  0  0  0
  3  5  1  0  0  0  0
  3  2  2  0  0  0  0
  4  6  2  0  0  0  0
  5  6  1  0  0  0  0
  6  8  1  0  0  0  0
  8  7  2  0  0  0  0
  8  9  1  0  0  0  0
  9 11  1  0  0  0  0
 11 10  2  0  0  0  0
 11 12  1  0  0  0  0
 14 16  1  0  0  0  0
 15 13  2  0  0  0  0
 15 14  1  0  0  0  0
 16 24  1  0  0  0  0
 18 28  2  0  0  0  0
 19 23  1  0  0  0  0
 19 22  2  0  0  0  0
 20 27  1  0  0  0  0
 20 18  1  0  0  0  0
 21 19  1  0  0  0  0
 24 20  2  0  0  0  0
 25 22  1  0  0  0  0
 25 17  2  0  0  0  0
 26 21  1  0  0  0  0
 26 27  2  0  0  0  0
 27 25  1  0  0  0  0
 28 17  1  0  0  0  0
 30 29  1  0  0  0  0
 31 32  1  0  0  0  0
 32 30  1  0  0  0  0
M  END
>  <MODEL>
7

>  <REMARK>
 VINA RESULT:      -7.2      2.782      6.348
  Name = 
  10 active torsions:
  status: ('A' for Active; 'I' for Inactive)
    1  A    between atoms: N_1  and  C_5
    2  A    between atoms: C_4  and  N_18
    3  A    between atoms: C_4  and  C_30
    4  A    between atoms: C_5  and  C_28
    5  A    between atoms: C_5  and  C_30
    6  A    between atoms: N_6  and  N_17
    7  A    between atoms: N_6  and  N_23
    8  A    between atoms: C_20  and  C_24
    9  A    between atoms: C_20  and  C_31
   10  A    between atoms: C_22  and  C_24
                            x       y       z     vdW  Elec       q    Type
                         _______ _______ _______ _____ _____    ______ ____

>  <TORSDO>
F 10

$$$$
=
 OpenBabel10222416343D

 32 33  0  0  1  0  0  0  0  0999 V2000
  190.1190  177.9400  140.0470 C   0  0  1  0  0  3  0  0  0  0  0  0
  189.1830  177.9110  138.9330 N   0  0  0  0  0  0  0  0  0  0  0  0
  189.0580  178.9220  138.1350 C   0  0  0  0  0  3  0  0  0  0  0  0
  186.3430  177.8170  136.0460 O   0  0  0  0  0  0  0  0  0  0  0  0
  188.1490  178.8870  137.0290 N   0  0  0  0  0  2  0  0  0  0  0  0
  187.5130  177.7130  136.5030 C   0  0  0  0  0  0  0  0  0  0  0  0
  189.1820  176.1910  135.5660 C   0  0  0  0  0  2  0  0  0  0  0  0
  188.1980  176.4020  136.4350 C   0  0  0  0  0  0  0  0  0  0  0  0
  187.6500  175.2280  137.1860 C   0  0  0  0  0  2  0  0  0  0  0  0
  186.2160  174.3270  135.5050 O   0  0  0  0  0  0  0  0  0  0  0  0
  187.2150  174.1500  136.2490 C   0  0  0  0  0  0  0  0  0  0  0  0
  187.8920  172.9390  136.2210 O   0  0  0  0  0  1  0  0  0  0  0  0
  188.4910  178.4400  141.7110 O   0  0  0  0  0  0  0  0  0  0  0  0
  189.7110  176.4850  142.0780 N   0  0  0  0  0  2  0  0  0  0  0  0
  189.3890  177.6490  141.3150 C   0  0  0  0  0  0  0  0  0  0  0  0
  189.0430  176.1990  143.2730 N   0  0  0  0  0  2  0  0  0  0  0  0
  188.0640  178.2720  147.8370 N   0  0  0  0  0  0  0  0  0  0  0  0
  189.8680  177.2010  146.6740 C   0  0  0  0  0  3  0  0  0  0  0  0
  185.1400  178.4900  145.7400 C   0  0  0  0  0  0  0  0  0  0  0  0
  189.0990  177.0290  145.5200 C   0  0  0  0  0  0  0  0  0  0  0  0
  185.5740  177.8870  144.5540 C   0  0  0  0  0  2  0  0  0  0  0  0
  185.9760  178.6060  146.8050 N   0  0  0  0  0  0  0  0  0  0  0  0
  183.8110  178.9880  145.8290 N   0  0  0  0  0  1  0  0  0  0  0  0
  189.6680  176.4470  144.5010 N   0  0  0  0  0  0  0  0  0  0  0  0
  187.2520  178.1440  146.7600 C   0  0  0  0  0  0  0  0  0  0  0  0
  186.8750  177.3940  144.4490 C   0  0  0  0  0  3  0  0  0  0  0  0
  187.7600  177.4970  145.5260 C   0  0  0  0  0  0  0  0  0  0  0  0
  189.3440  177.8170  147.8140 C   0  0  0  0  0  3  0  0  0  0  0  0
  191.2230  176.9090  139.8500 C   0  0  0  0  0  2  0  0  0  0  0  0
  192.5710  177.4780  140.2450 C   0  0  0  0  0  2  0  0  0  0  0  0
  192.8660  176.3410  138.2340 C   0  0  0  0  0  1  0  0  0  0  0  0
  193.5540  177.1370  139.2330 N   0  0  0  0  0  2  0  0  0  0  0  0
  1 29  1  6  0  0  0
  1 15  1  0  0  0  0
  2  1  1  0  0  0  0
  3  2  2  0  0  0  0
  4  6  2  0  0  0  0
  5  3  1  0  0  0  0
  6  5  1  0  0  0  0
  7  8  2  0  0  0  0
  8  6  1  0  0  0  0
  8  9  1  0  0  0  0
 10 11  2  0  0  0  0
 11  9  1  0  0  0  0
 12 11  1  0  0  0  0
 14 16  1  0  0  0  0
 15 13  2  0  0  0  0
 15 14  1  0  0  0  0
 16 24  1  0  0  0  0
 18 28  2  0  0  0  0
 19 23  1  0  0  0  0
 19 22  2  0  0  0  0
 20 27  1  0  0  0  0
 20 18  1  0  0  0  0
 21 19  1  0  0  0  0
 24 20  2  0  0  0  0
 25 22  1  0  0  0  0
 25 17  2  0  0  0  0
 26 21  1  0  0  0  0
 26 27  2  0  0  0  0
 27 25  1  0  0  0  0
 28 17  1  0  0  0  0
 29 30  1  0  0  0  0
 31 32  1  0  0  0  0
 32 30  1  0  0  0  0
M  END
>  <MODEL>
8

>  <REMARK>
 VINA RESULT:      -7.2      3.060      6.757
  Name = 
  10 active torsions:
  status: ('A' for Active; 'I' for Inactive)
    1  A    between atoms: N_1  and  C_5
    2  A    between atoms: C_4  and  N_18
    3  A    between atoms: C_4  and  C_30
    4  A    between atoms: C_5  and  C_28
    5  A    between atoms: C_5  and  C_30
    6  A    between atoms: N_6  and  N_17
    7  A    between atoms: N_6  and  N_23
    8  A    between atoms: C_20  and  C_24
    9  A    between atoms: C_20  and  C_31
   10  A    between atoms: C_22  and  C_24
                            x       y       z     vdW  Elec       q    Type
                         _______ _______ _______ _____ _____    ______ ____

>  <TORSDO>
F 10

$$$$
=
 OpenBabel10222416343D

 32 33  0  0  1  0  0  0  0  0999 V2000
  189.3280  176.8540  138.4320 C   0  0  1  0  0  3  0  0  0  0  0  0
  190.1670  175.8250  137.8360 N   0  0  0  0  0  0  0  0  0  0  0  0
  189.6530  174.7570  137.3160 C   0  0  0  0  0  3  0  0  0  0  0  0
  192.6200  172.9060  136.4690 O   0  0  0  0  0  0  0  0  0  0  0  0
  190.4770  173.7520  136.7160 N   0  0  0  0  0  2  0  0  0  0  0  0
  191.8590  173.9040  136.3590 C   0  0  0  0  0  0  0  0  0  0  0  0
  191.7680  175.8400  134.8680 C   0  0  0  0  0  2  0  0  0  0  0  0
  192.4050  175.1720  135.8240 C   0  0  0  0  0  0  0  0  0  0  0  0
  193.7910  175.6070  136.1910 C   0  0  0  0  0  2  0  0  0  0  0  0
  193.2160  176.9450  138.0810 O   0  0  0  0  0  0  0  0  0  0  0  0
  193.8730  175.9680  137.6360 C   0  0  0  0  0  0  0  0  0  0  0  0
  194.6990  175.2460  138.4860 O   0  0  0  0  0  1  0  0  0  0  0  0
  190.6280  176.3770  140.3690 O   0  0  0  0  0  0  0  0  0  0  0  0
  188.6770  177.5940  140.7640 N   0  0  0  0  0  2  0  0  0  0  0  0
  189.5940  176.9220  139.8990 C   0  0  0  0  0  0  0  0  0  0  0  0
  188.9050  177.6630  142.1430 N   0  0  0  0  0  2  0  0  0  0  0  0
  187.8150  177.3520  147.1230 N   0  0  0  0  0  0  0  0  0  0  0  0
  186.7210  177.8550  145.0480 C   0  0  0  0  0  3  0  0  0  0  0  0
  191.2950  176.5810  146.5790 C   0  0  0  0  0  0  0  0  0  0  0  0
  187.8940  177.6580  144.3150 C   0  0  0  0  0  0  0  0  0  0  0  0
  191.4190  176.7110  145.1920 C   0  0  0  0  0  3  0  0  0  0  0  0
  190.1000  176.7950  147.1920 N   0  0  0  0  0  0  0  0  0  0  0  0
  192.4290  176.2160  147.3550 N   0  0  0  0  0  1  0  0  0  0  0  0
  187.8270  177.8210  143.0220 N   0  0  0  0  0  0  0  0  0  0  0  0
  188.9930  177.1430  146.4870 C   0  0  0  0  0  0  0  0  0  0  0  0
  190.3160  177.0670  144.4150 C   0  0  0  0  0  3  0  0  0  0  0  0
  189.0730  177.2950  145.0130 C   0  0  1  0  0  3  0  0  0  0  0  0
  186.6960  177.7010  146.4380 C   0  0  0  0  0  3  0  0  0  0  0  0
  189.6130  178.2120  137.8030 C   0  0  0  0  0  2  0  0  0  0  0  0
  188.4770  178.6360  136.8940 C   0  0  0  0  0  2  0  0  0  0  0  0
  186.2870  177.8430  136.8680 C   0  0  0  0  0  1  0  0  0  0  0  0
  187.2320  178.6280  137.6410 N   0  0  0  0  0  2  0  0  0  0  0  0
  1 29  1  6  0  0  0
  1 15  1  0  0  0  0
  2  1  1  0  0  0  0
  3  2  2  0  0  0  0
  5  3  1  0  0  0  0
  6  4  2  0  0  0  0
  6  5  1  0  0  0  0
  7  8  2  0  0  0  0
  8  9  1  0  0  0  0
  8  6  1  0  0  0  0
  9 11  1  0  0  0  0
 11 10  2  0  0  0  0
 11 12  1  0  0  0  0
 14 16  1  0  0  0  0
 15 13  2  0  0  0  0
 15 14  1  0  0  0  0
 16 24  1  0  0  0  0
 18 28  2  0  0  0  0
 19 22  2  0  0  0  0
 19 23  1  0  0  0  0
 20 27  1  0  0  0  0
 20 18  1  0  0  0  0
 21 19  1  0  0  0  0
 24 20  2  0  0  0  0
 25 17  2  0  0  0  0
 25 22  1  0  0  0  0
 26 21  2  0  0  0  0
 27 26  1  6  0  0  0
 27 25  1  0  0  0  0
 28 17  1  0  0  0  0
 30 32  1  0  0  0  0
 30 29  1  0  0  0  0
 31 32  1  0  0  0  0
M  END
>  <MODEL>
9

>  <REMARK>
 VINA RESULT:      -7.1      3.730      6.691
  Name = 
  10 active torsions:
  status: ('A' for Active; 'I' for Inactive)
    1  A    between atoms: N_1  and  C_5
    2  A    between atoms: C_4  and  N_18
    3  A    between atoms: C_4  and  C_30
    4  A    between atoms: C_5  and  C_28
    5  A    between atoms: C_5  and  C_30
    6  A    between atoms: N_6  and  N_17
    7  A    between atoms: N_6  and  N_23
    8  A    between atoms: C_20  and  C_24
    9  A    between atoms: C_20  and  C_31
   10  A    between atoms: C_22  and  C_24
                            x       y       z     vdW  Elec       q    Type
                         _______ _______ _______ _____ _____    ______ ____

>  <TORSDO>
F 10

$$$$
