=
 OpenBabel10222415503D

 47 51  0  0  1  0  0  0  0  0999 V2000
  190.0480  176.1440  138.8020 C   0  0  2  0  0  3  0  0  0  0  0  0
  192.1650  176.5140  137.5240 C   0  0  0  0  0  3  0  0  0  0  0  0
  191.9390  174.0340  136.2500 C   0  0  0  0  0  3  0  0  0  0  0  0
  191.0740  175.6840  137.8090 C   0  0  0  0  0  0  0  0  0  0  0  0
  190.9660  174.4400  137.1680 C   0  0  0  0  0  3  0  0  0  0  0  0
  193.9900  174.4680  135.0560 O   0  0  0  0  0  1  0  0  0  0  0  0
  193.1370  176.1090  136.6060 C   0  0  0  0  0  3  0  0  0  0  0  0
  193.0240  174.8690  135.9690 C   0  0  0  0  0  0  0  0  0  0  0  0
  188.8870  178.2670  138.0070 C   0  0  0  0  0  2  0  0  0  0  0  0
  188.9370  176.8980  138.1420 C   0  0  0  0  0  0  0  0  0  0  0  0
  187.7490  178.5700  137.3540 N   0  0  0  0  0  0  0  0  0  0  0  0
  187.1560  177.3820  137.1260 C   0  0  0  0  0  0  0  0  0  0  0  0
  187.8530  176.3260  137.5860 N   0  0  0  0  0  0  0  0  0  0  0  0
  185.8740  177.2460  136.3760 C   0  0  0  0  0  2  0  0  0  0  0  0
  184.3560  175.4830  137.3970 C   0  0  0  0  0  0  0  0  0  0  0  0
  184.1560  177.7860  138.1000 C   0  0  0  0  0  3  0  0  0  0  0  0
  183.3610  175.1500  138.2660 N   0  0  0  0  0  0  0  0  0  0  0  0
  182.7500  176.0790  139.0490 C   0  0  0  0  0  0  0  0  0  0  0  0
  183.1390  177.4170  138.9800 C   0  0  0  0  0  3  0  0  0  0  0  0
  184.7710  176.8240  137.2950 C   0  0  0  0  0  0  0  0  0  0  0  0
  181.7670  175.7040  139.9010 F   0  0  0  0  0  0  0  0  0  0  0  0
  184.9920  174.4140  136.5660 C   0  0  0  0  0  3  0  0  0  0  0  0
  185.7980  173.6040  137.3650 O   0  0  0  0  0  1  0  0  0  0  0  0
  184.0100  173.6370  135.9490 O   0  0  0  0  0  1  0  0  0  0  0  0
  190.6630  176.9620  139.9300 C   0  0  0  0  0  2  0  0  0  0  0  0
  190.5760  176.2250  141.1790 N   0  0  0  0  0  2  0  0  0  0  0  0
  189.0850  176.1740  143.0840 C   0  0  0  0  0  2  0  0  0  0  0  0
  189.8320  177.0570  142.1060 C   0  0  1  0  0  3  0  0  0  0  0  0
  190.3750  176.8450  143.5030 C   0  0  1  0  0  3  0  0  0  0  0  0
  190.0580  178.0650  144.3470 C   0  0  0  0  0  2  0  0  0  0  0  0
  190.3920  177.7930  145.8120 C   0  0  2  0  0  3  0  0  0  0  0  0
  191.6780  177.2330  145.9960 O   0  0  0  0  0  0  0  0  0  0  0  0
  191.6300  176.3030  147.0490 C   0  0  0  0  0  1  0  0  0  0  0  0
  189.2750  177.0070  146.5130 C   0  0  0  0  0  2  0  0  0  0  0  0
  188.0340  177.8480  146.8210 C   0  0  2  0  0  3  0  0  0  0  0  0
  189.1680  178.3510  148.8810 F   0  0  0  0  0  0  0  0  0  0  0  0
  187.9200  178.1970  148.3050 C   0  0  0  0  0  2  0  0  0  0  0  0
  186.7540  177.2270  146.2640 C   0  0  0  0  0  2  0  0  0  0  0  0
  186.3920  177.8200  144.9110 C   0  0  0  0  0  2  0  0  0  0  0  0
  184.0410  178.5680  144.7510 C   0  0  1  0  0  3  0  0  0  0  0  0
  185.4500  179.0090  145.0810 C   0  0  2  0  0  3  0  0  0  0  0  0
  183.1390  179.2990  145.5220 O   0  0  0  0  0  1  0  0  0  0  0  0
  184.7630  179.5070  143.8000 C   0  0  1  0  0  3  0  0  0  0  0  0
  185.1660  178.8000  142.5310 C   0  0  0  0  0  0  0  0  0  0  0  0
  184.4810  177.8870  142.0910 O   0  0  0  0  0  0  0  0  0  0  0  0
  186.3490  178.7350  140.4840 O   0  0  0  0  0  1  0  0  0  0  0  0
  186.3830  179.2390  141.7830 C   0  0  0  0  0  2  0  0  0  0  0  0
  1 25  1  1  0  0  0
  2  4  1  0  0  0  0
  3  5  1  0  0  0  0
  4  1  1  0  0  0  0
  5  4  2  0  0  0  0
  6  8  1  0  0  0  0
  7  2  2  0  0  0  0
  8  3  2  0  0  0  0
  8  7  1  0  0  0  0
  9 10  1  0  0  0  0
 10  1  1  0  0  0  0
 11  9  1  0  0  0  0
 12 11  2  0  0  0  0
 12 13  1  0  0  0  0
 13 10  2  0  0  0  0
 14 12  1  0  0  0  0
 14 20  1  0  0  0  0
 15 17  1  0  0  0  0
 16 19  2  0  0  0  0
 17 18  2  0  0  0  0
 18 21  1  0  0  0  0
 19 18  1  0  0  0  0
 20 15  2  0  0  0  0
 20 16  1  0  0  0  0
 22 23  1  0  0  0  0
 22 15  1  0  0  0  0
 24 22  1  0  0  0  0
 25 26  1  0  0  0  0
 27 29  1  0  0  0  0
 28 26  1  6  0  0  0
 28 27  1  0  0  0  0
 28 29  1  0  0  0  0
 29 30  1  1  0  0  0
 31 30  1  6  0  0  0
 31 32  1  0  0  0  0
 31 34  1  0  0  0  0
 32 33  1  0  0  0  0
 34 35  1  0  0  0  0
 35 38  1  1  0  0  0
 35 37  1  0  0  0  0
 37 36  1  0  0  0  0
 39 38  1  0  0  0  0
 40 41  1  0  0  0  0
 40 42  1  1  0  0  0
 41 39  1  6  0  0  0
 43 44  1  6  0  0  0
 43 40  1  0  0  0  0
 43 41  1  0  0  0  0
 45 44  2  0  0  0  0
 46 47  1  0  0  0  0
 47 44  1  0  0  0  0
M  END
>  <MODEL>
1

>  <REMARK>
 VINA RESULT:      -8.0      0.000      0.000
  Name = 
  19 active torsions:
  status: ('A' for Active; 'I' for Inactive)
    1  A    between atoms: C_2  and  C_40
    2  A    between atoms: C_2  and  C_47
    3  A    between atoms: C_7  and  CA_12
    4  A    between atoms: O_9  and  C_26
    5  A    between atoms: C_10  and  C_26
    6  A    between atoms: C_10  and  C_41
    7  A    between atoms: C_11  and  C_24
    8  A    between atoms: C_14  and  C_41
    9  A    between atoms: C_15  and  C_45
   10  A    between atoms: C_16  and  C_45
   11  A    between atoms: N_20  and  C_33
   12  A    between atoms: N_20  and  C_44
   13  A    between atoms: C_22  and  C_26
   14  A    between atoms: C_22  and  C_38
   15  A    between atoms: C_24  and  C_35
   16  A    between atoms: C_30  and  C_36
   17  A    between atoms: C_35  and  C_41
   18  A    between atoms: C_36  and  C_37
   19  A    between atoms: C_44  and  C_45
                            x       y       z     vdW  Elec       q    Type
                         _______ _______ _______ _____ _____    ______ ____

>  <TORSDO>
F 19

$$$$
=
 OpenBabel10222415503D

 47 51  0  0  1  0  0  0  0  0999 V2000
  190.1960  176.4890  139.2980 C   0  0  2  0  0  3  0  0  0  0  0  0
  192.5430  176.4820  138.4330 C   0  0  0  0  0  3  0  0  0  0  0  0
  191.9420  174.5000  136.5520 C   0  0  0  0  0  3  0  0  0  0  0  0
  191.2430  175.9670  138.3580 C   0  0  0  0  0  0  0  0  0  0  0  0
  190.9460  174.9710  137.4130 C   0  0  0  0  0  3  0  0  0  0  0  0
  194.2260  174.5540  135.7760 O   0  0  0  0  0  1  0  0  0  0  0  0
  193.5370  176.0100  137.5720 C   0  0  0  0  0  3  0  0  0  0  0  0
  193.2370  175.0200  136.6320 C   0  0  0  0  0  0  0  0  0  0  0  0
  189.2790  178.5960  138.1990 C   0  0  0  0  0  2  0  0  0  0  0  0
  189.1500  177.2790  138.5780 C   0  0  0  0  0  0  0  0  0  0  0  0
  188.1430  178.9520  137.5700 N   0  0  0  0  0  0  0  0  0  0  0  0
  187.3730  177.8470  137.5970 C   0  0  0  0  0  0  0  0  0  0  0  0
  187.9540  176.7920  138.2000 N   0  0  0  0  0  0  0  0  0  0  0  0
  186.0260  177.7810  136.9610 C   0  0  0  0  0  2  0  0  0  0  0  0
  183.9890  176.7200  138.0480 C   0  0  0  0  0  0  0  0  0  0  0  0
  184.9310  178.7370  138.9870 C   0  0  0  0  0  3  0  0  0  0  0  0
  183.0490  176.7220  139.0340 N   0  0  0  0  0  0  0  0  0  0  0  0
  183.0110  177.6890  139.9900 C   0  0  0  0  0  0  0  0  0  0  0  0
  183.9560  178.7150  139.9830 C   0  0  0  0  0  3  0  0  0  0  0  0
  184.9550  177.7430  138.0060 C   0  0  0  0  0  0  0  0  0  0  0  0
  182.0600  177.6510  140.9530 F   0  0  0  0  0  0  0  0  0  0  0  0
  183.9800  175.6260  137.0270 C   0  0  0  0  0  3  0  0  0  0  0  0
  184.6930  174.5250  137.5020 O   0  0  0  0  0  1  0  0  0  0  0  0
  182.6670  175.2480  136.7410 O   0  0  0  0  0  1  0  0  0  0  0  0
  190.7990  177.3000  140.4380 C   0  0  0  0  0  2  0  0  0  0  0  0
  190.1410  176.9590  141.6880 N   0  0  0  0  0  2  0  0  0  0  0  0
  190.3890  178.3900  143.6240 C   0  0  0  0  0  2  0  0  0  0  0  0
  191.0480  177.3380  142.7560 C   0  0  1  0  0  3  0  0  0  0  0  0
  190.4340  176.9490  144.0840 C   0  0  1  0  0  3  0  0  0  0  0  0
  191.5390  176.7810  145.1090 C   0  0  0  0  0  2  0  0  0  0  0  0
  191.0400  177.1920  146.4920 C   0  0  2  0  0  3  0  0  0  0  0  0
  191.9590  176.8990  147.5270 O   0  0  0  0  0  0  0  0  0  0  0  0
  192.2840  175.5330  147.4830 C   0  0  0  0  0  1  0  0  0  0  0  0
  189.6240  176.6680  146.7640 C   0  0  0  0  0  2  0  0  0  0  0  0
  188.5950  177.7750  147.0040 C   0  0  2  0  0  3  0  0  0  0  0  0
  187.6910  177.4660  149.2100 F   0  0  0  0  0  0  0  0  0  0  0  0
  188.5620  178.2360  148.4610 C   0  0  0  0  0  2  0  0  0  0  0  0
  187.2090  177.4100  146.4720 C   0  0  0  0  0  2  0  0  0  0  0  0
  186.7650  178.3660  145.3750 C   0  0  0  0  0  2  0  0  0  0  0  0
  186.5350  178.5270  142.9180 C   0  0  1  0  0  3  0  0  0  0  0  0
  186.4110  177.5960  144.1050 C   0  0  2  0  0  3  0  0  0  0  0  0
  186.9220  177.7930  141.7990 O   0  0  0  0  0  1  0  0  0  0  0  0
  185.1540  178.0750  143.3610 C   0  0  1  0  0  3  0  0  0  0  0  0
  184.3960  179.1960  144.0240 C   0  0  0  0  0  0  0  0  0  0  0  0
  184.7500  180.3560  143.8660 O   0  0  0  0  0  0  0  0  0  0  0  0
  182.1250  178.5340  144.0140 O   0  0  0  0  0  1  0  0  0  0  0  0
  183.1840  178.8970  144.8450 C   0  0  0  0  0  2  0  0  0  0  0  0
  1 25  1  1  0  0  0
  3  8  2  0  0  0  0
  3  5  1  0  0  0  0
  4  2  1  0  0  0  0
  4  1  1  0  0  0  0
  5  4  2  0  0  0  0
  6  8  1  0  0  0  0
  7  2  2  0  0  0  0
  8  7  1  0  0  0  0
  9 10  1  0  0  0  0
 10  1  1  0  0  0  0
 11 12  2  0  0  0  0
 11  9  1  0  0  0  0
 12 13  1  0  0  0  0
 13 10  2  0  0  0  0
 14 12  1  0  0  0  0
 14 20  1  0  0  0  0
 15 17  1  0  0  0  0
 16 19  2  0  0  0  0
 17 18  2  0  0  0  0
 18 21  1  0  0  0  0
 19 18  1  0  0  0  0
 20 15  2  0  0  0  0
 20 16  1  0  0  0  0
 22 23  1  0  0  0  0
 22 15  1  0  0  0  0
 24 22  1  0  0  0  0
 25 26  1  0  0  0  0
 27 29  1  0  0  0  0
 28 26  1  6  0  0  0
 28 27  1  0  0  0  0
 28 29  1  0  0  0  0
 29 30  1  1  0  0  0
 31 30  1  6  0  0  0
 31 34  1  0  0  0  0
 31 32  1  0  0  0  0
 33 32  1  0  0  0  0
 34 35  1  0  0  0  0
 35 38  1  1  0  0  0
 35 37  1  0  0  0  0
 37 36  1  0  0  0  0
 39 38  1  0  0  0  0
 40 42  1  6  0  0  0
 40 43  1  0  0  0  0
 40 41  1  0  0  0  0
 41 39  1  1  0  0  0
 43 44  1  1  0  0  0
 43 41  1  0  0  0  0
 44 47  1  0  0  0  0
 45 44  2  0  0  0  0
 46 47  1  0  0  0  0
M  END
>  <MODEL>
2

>  <REMARK>
 VINA RESULT:      -7.9      1.198      1.912
  Name = 
  19 active torsions:
  status: ('A' for Active; 'I' for Inactive)
    1  A    between atoms: C_2  and  C_40
    2  A    between atoms: C_2  and  C_47
    3  A    between atoms: C_7  and  CA_12
    4  A    between atoms: O_9  and  C_26
    5  A    between atoms: C_10  and  C_26
    6  A    between atoms: C_10  and  C_41
    7  A    between atoms: C_11  and  C_24
    8  A    between atoms: C_14  and  C_41
    9  A    between atoms: C_15  and  C_45
   10  A    between atoms: C_16  and  C_45
   11  A    between atoms: N_20  and  C_33
   12  A    between atoms: N_20  and  C_44
   13  A    between atoms: C_22  and  C_26
   14  A    between atoms: C_22  and  C_38
   15  A    between atoms: C_24  and  C_35
   16  A    between atoms: C_30  and  C_36
   17  A    between atoms: C_35  and  C_41
   18  A    between atoms: C_36  and  C_37
   19  A    between atoms: C_44  and  C_45
                            x       y       z     vdW  Elec       q    Type
                         _______ _______ _______ _____ _____    ______ ____

>  <TORSDO>
F 19

$$$$
=
 OpenBabel10222415503D

 47 51  0  0  1  0  0  0  0  0999 V2000
  188.7920  177.1270  139.4310 C   0  0  2  0  0  3  0  0  0  0  0  0
  191.2350  177.4280  139.8710 C   0  0  0  0  0  3  0  0  0  0  0  0
  191.9190  175.7500  137.7400 C   0  0  0  0  0  3  0  0  0  0  0  0
  190.2270  176.8430  139.0960 C   0  0  0  0  0  0  0  0  0  0  0  0
  190.5750  176.0000  138.0280 C   0  0  0  0  0  3  0  0  0  0  0  0
  194.2570  176.0920  138.2310 O   0  0  0  0  0  1  0  0  0  0  0  0
  192.5790  177.1780  139.5810 C   0  0  0  0  0  3  0  0  0  0  0  0
  192.9210  176.3390  138.5170 C   0  0  0  0  0  0  0  0  0  0  0  0
  188.2160  178.4910  137.3590 C   0  0  0  0  0  2  0  0  0  0  0  0
  187.9870  177.4320  138.2080 C   0  0  0  0  0  0  0  0  0  0  0  0
  187.3000  178.4290  136.3740 N   0  0  0  0  0  0  0  0  0  0  0  0
  186.5530  177.3460  136.6660 C   0  0  0  0  0  0  0  0  0  0  0  0
  186.9430  176.6980  137.7810 N   0  0  0  0  0  0  0  0  0  0  0  0
  185.4360  176.8730  135.7990 C   0  0  0  0  0  2  0  0  0  0  0  0
  183.8180  175.3830  137.0690 C   0  0  0  0  0  0  0  0  0  0  0  0
  185.6340  174.3870  135.8260 C   0  0  0  0  0  3  0  0  0  0  0  0
  183.4090  174.1360  137.4360 N   0  0  0  0  0  0  0  0  0  0  0  0
  184.0680  173.0160  137.0330 C   0  0  0  0  0  0  0  0  0  0  0  0
  185.1950  173.1240  136.2170 C   0  0  0  0  0  3  0  0  0  0  0  0
  184.9540  175.5310  136.2520 C   0  0  0  0  0  0  0  0  0  0  0  0
  183.6260  171.7960  137.4190 F   0  0  0  0  0  0  0  0  0  0  0  0
  183.0480  176.5750  137.5420 C   0  0  0  0  0  3  0  0  0  0  0  0
  181.7170  176.2250  137.7700 O   0  0  0  0  0  1  0  0  0  0  0  0
  183.6100  177.0750  138.7180 O   0  0  0  0  0  1  0  0  0  0  0  0
  188.6500  178.2370  140.4650 C   0  0  0  0  0  2  0  0  0  0  0  0
  187.8450  177.7730  141.5820 N   0  0  0  0  0  2  0  0  0  0  0  0
  185.7070  178.7640  141.0310 C   0  0  0  0  0  2  0  0  0  0  0  0
  186.9330  178.8500  141.9170 C   0  0  1  0  0  3  0  0  0  0  0  0
  185.6480  178.2570  142.4550 C   0  0  1  0  0  3  0  0  0  0  0  0
  184.9560  179.2870  143.3280 C   0  0  0  0  0  2  0  0  0  0  0  0
  184.6850  178.7060  144.7130 C   0  0  2  0  0  3  0  0  0  0  0  0
  183.4280  179.0820  145.2410 O   0  0  0  0  0  0  0  0  0  0  0  0
  182.4490  178.9500  144.2420 C   0  0  0  0  0  1  0  0  0  0  0  0
  185.8540  178.9600  145.6750 C   0  0  0  0  0  2  0  0  0  0  0  0
  186.5970  177.6870  146.0880 C   0  0  2  0  0  3  0  0  0  0  0  0
  187.2610  179.0560  147.9500 F   0  0  0  0  0  0  0  0  0  0  0  0
  187.1010  177.7480  147.5300 C   0  0  0  0  0  2  0  0  0  0  0  0
  187.6950  177.3030  145.0980 C   0  0  0  0  0  2  0  0  0  0  0  0
  189.0290  177.0950  145.8010 C   0  0  0  0  0  2  0  0  0  0  0  0
  190.4940  177.9940  144.0240 C   0  0  1  0  0  3  0  0  0  0  0  0
  190.0050  178.2110  145.4390 C   0  0  2  0  0  3  0  0  0  0  0  0
  190.7590  179.2290  143.4360 O   0  0  0  0  0  1  0  0  0  0  0  0
  191.4560  177.7730  145.1800 C   0  0  1  0  0  3  0  0  0  0  0  0
  191.7370  176.3060  145.3860 C   0  0  0  0  0  0  0  0  0  0  0  0
  191.7170  175.5350  144.4370 O   0  0  0  0  0  0  0  0  0  0  0  0
  192.0780  176.8460  147.6640 O   0  0  0  0  0  1  0  0  0  0  0  0
  192.0810  175.7950  146.7480 C   0  0  0  0  0  2  0  0  0  0  0  0
  1 25  1  1  0  0  0
  3  5  2  0  0  0  0
  3  8  1  0  0  0  0
  4  1  1  0  0  0  0
  4  2  2  0  0  0  0
  5  4  1  0  0  0  0
  6  8  1  0  0  0  0
  7  2  1  0  0  0  0
  8  7  2  0  0  0  0
  9 10  1  0  0  0  0
 10  1  1  0  0  0  0
 11 12  2  0  0  0  0
 11  9  1  0  0  0  0
 12 13  1  0  0  0  0
 13 10  2  0  0  0  0
 14 20  1  0  0  0  0
 14 12  1  0  0  0  0
 15 17  1  0  0  0  0
 15 22  1  0  0  0  0
 16 19  2  0  0  0  0
 16 20  1  0  0  0  0
 18 21  1  0  0  0  0
 18 17  2  0  0  0  0
 19 18  1  0  0  0  0
 20 15  2  0  0  0  0
 22 23  1  0  0  0  0
 22 24  1  0  0  0  0
 25 26  1  0  0  0  0
 27 28  1  0  0  0  0
 27 29  1  0  0  0  0
 28 26  1  6  0  0  0
 28 29  1  0  0  0  0
 29 30  1  1  0  0  0
 31 30  1  6  0  0  0
 31 32  1  0  0  0  0
 31 34  1  0  0  0  0
 33 32  1  0  0  0  0
 34 35  1  0  0  0  0
 35 38  1  6  0  0  0
 35 37  1  0  0  0  0
 37 36  1  0  0  0  0
 38 39  1  0  0  0  0
 40 42  1  6  0  0  0
 40 43  1  0  0  0  0
 40 41  1  0  0  0  0
 41 39  1  1  0  0  0
 43 44  1  1  0  0  0
 43 41  1  0  0  0  0
 44 47  1  0  0  0  0
 45 44  2  0  0  0  0
 47 46  1  0  0  0  0
M  END
>  <MODEL>
3

>  <REMARK>
 VINA RESULT:      -7.4      1.931      4.627
  Name = 
  19 active torsions:
  status: ('A' for Active; 'I' for Inactive)
    1  A    between atoms: C_2  and  C_40
    2  A    between atoms: C_2  and  C_47
    3  A    between atoms: C_7  and  CA_12
    4  A    between atoms: O_9  and  C_26
    5  A    between atoms: C_10  and  C_26
    6  A    between atoms: C_10  and  C_41
    7  A    between atoms: C_11  and  C_24
    8  A    between atoms: C_14  and  C_41
    9  A    between atoms: C_15  and  C_45
   10  A    between atoms: C_16  and  C_45
   11  A    between atoms: N_20  and  C_33
   12  A    between atoms: N_20  and  C_44
   13  A    between atoms: C_22  and  C_26
   14  A    between atoms: C_22  and  C_38
   15  A    between atoms: C_24  and  C_35
   16  A    between atoms: C_30  and  C_36
   17  A    between atoms: C_35  and  C_41
   18  A    between atoms: C_36  and  C_37
   19  A    between atoms: C_44  and  C_45
                            x       y       z     vdW  Elec       q    Type
                         _______ _______ _______ _____ _____    ______ ____

>  <TORSDO>
F 19

$$$$
=
 OpenBabel10222415503D

 47 51  0  0  1  0  0  0  0  0999 V2000
  189.3670  176.7950  138.8680 C   0  0  2  0  0  3  0  0  0  0  0  0
  191.7920  176.3740  138.4330 C   0  0  0  0  0  3  0  0  0  0  0  0
  191.2230  174.0630  136.9620 C   0  0  0  0  0  3  0  0  0  0  0  0
  190.4630  175.9730  138.2560 C   0  0  0  0  0  0  0  0  0  0  0  0
  190.1820  174.8120  137.5180 C   0  0  0  0  0  3  0  0  0  0  0  0
  193.5820  173.7280  136.5880 O   0  0  0  0  0  1  0  0  0  0  0  0
  192.8330  175.6240  137.8760 C   0  0  0  0  0  3  0  0  0  0  0  0
  192.5480  174.4700  137.1410 C   0  0  0  0  0  0  0  0  0  0  0  0
  188.6050  178.1760  136.8690 C   0  0  0  0  0  2  0  0  0  0  0  0
  188.3680  177.2360  137.8460 C   0  0  0  0  0  0  0  0  0  0  0  0
  187.4800  178.2960  136.1380 N   0  0  0  0  0  0  0  0  0  0  0  0
  186.6100  177.4350  136.7010 C   0  0  0  0  0  0  0  0  0  0  0  0
  187.1140  176.7560  137.7490 N   0  0  0  0  0  0  0  0  0  0  0  0
  185.2350  177.2080  136.1710 C   0  0  0  0  0  2  0  0  0  0  0  0
  183.8090  175.5900  137.5140 C   0  0  0  0  0  0  0  0  0  0  0  0
  185.2660  174.7460  135.7820 C   0  0  0  0  0  3  0  0  0  0  0  0
  183.3990  174.3160  137.7660 N   0  0  0  0  0  0  0  0  0  0  0  0
  183.8860  173.2530  137.0700 C   0  0  0  0  0  0  0  0  0  0  0  0
  184.8300  173.4510  136.0620 C   0  0  0  0  0  3  0  0  0  0  0  0
  184.7650  175.8280  136.5080 C   0  0  0  0  0  0  0  0  0  0  0  0
  183.4500  172.0030  137.3520 F   0  0  0  0  0  0  0  0  0  0  0  0
  183.2320  176.7170  138.3120 C   0  0  0  0  0  3  0  0  0  0  0  0
  182.0960  177.2180  137.6770 O   0  0  0  0  0  1  0  0  0  0  0  0
  182.8990  176.2770  139.5940 O   0  0  0  0  0  1  0  0  0  0  0  0
  189.9060  177.9870  139.6480 C   0  0  0  0  0  2  0  0  0  0  0  0
  189.2490  178.0700  140.9410 N   0  0  0  0  0  2  0  0  0  0  0  0
  191.1450  178.0510  142.4460 C   0  0  0  0  0  2  0  0  0  0  0  0
  190.0120  177.2380  141.8530 C   0  0  1  0  0  3  0  0  0  0  0  0
  189.8900  177.8020  143.2530 C   0  0  1  0  0  3  0  0  0  0  0  0
  190.1480  176.6940  144.2560 C   0  0  0  0  0  2  0  0  0  0  0  0
  190.4410  177.2880  145.6320 C   0  0  2  0  0  3  0  0  0  0  0  0
  191.7560  177.0280  146.0830 O   0  0  0  0  0  0  0  0  0  0  0  0
  191.6990  176.2340  147.2410 C   0  0  0  0  0  1  0  0  0  0  0  0
  189.3580  176.9170  146.6540 C   0  0  0  0  0  2  0  0  0  0  0  0
  188.1190  177.8140  146.5880 C   0  0  2  0  0  3  0  0  0  0  0  0
  186.5820  179.1340  147.8820 F   0  0  0  0  0  0  0  0  0  0  0  0
  187.7680  178.4250  147.9450 C   0  0  0  0  0  2  0  0  0  0  0  0
  186.9280  177.1170  145.9320 C   0  0  0  0  0  2  0  0  0  0  0  0
  186.5230  177.8080  144.6380 C   0  0  0  0  0  2  0  0  0  0  0  0
  184.1600  178.5160  144.8020 C   0  0  1  0  0  3  0  0  0  0  0  0
  185.5930  178.9840  144.9270 C   0  0  2  0  0  3  0  0  0  0  0  0
  183.3620  179.2420  145.6840 O   0  0  0  0  0  1  0  0  0  0  0  0
  184.7250  179.4540  143.7490 C   0  0  1  0  0  3  0  0  0  0  0  0
  184.9590  178.7370  142.4440 C   0  0  0  0  0  0  0  0  0  0  0  0
  184.3450  177.7110  142.1860 O   0  0  0  0  0  0  0  0  0  0  0  0
  185.2890  179.4070  140.1990 O   0  0  0  0  0  1  0  0  0  0  0  0
  185.9130  179.3000  141.4410 C   0  0  0  0  0  2  0  0  0  0  0  0
  1 25  1  6  0  0  0
  3  8  2  0  0  0  0
  3  5  1  0  0  0  0
  4  2  1  0  0  0  0
  4  1  1  0  0  0  0
  5  4  2  0  0  0  0
  6  8  1  0  0  0  0
  7  2  2  0  0  0  0
  8  7  1  0  0  0  0
  9 10  1  0  0  0  0
 10  1  1  0  0  0  0
 11 12  2  0  0  0  0
 11  9  1  0  0  0  0
 12 13  1  0  0  0  0
 13 10  2  0  0  0  0
 14 20  1  0  0  0  0
 14 12  1  0  0  0  0
 15 17  1  0  0  0  0
 15 22  1  0  0  0  0
 16 19  2  0  0  0  0
 16 20  1  0  0  0  0
 18 21  1  0  0  0  0
 18 17  2  0  0  0  0
 19 18  1  0  0  0  0
 20 15  2  0  0  0  0
 22 24  1  0  0  0  0
 23 22  1  0  0  0  0
 25 26  1  0  0  0  0
 27 29  1  0  0  0  0
 28 26  1  6  0  0  0
 28 27  1  0  0  0  0
 28 29  1  0  0  0  0
 29 30  1  1  0  0  0
 31 30  1  6  0  0  0
 31 32  1  0  0  0  0
 31 34  1  0  0  0  0
 32 33  1  0  0  0  0
 35 38  1  1  0  0  0
 35 34  1  0  0  0  0
 35 37  1  0  0  0  0
 36 37  1  0  0  0  0
 39 38  1  0  0  0  0
 40 41  1  0  0  0  0
 40 42  1  1  0  0  0
 41 39  1  6  0  0  0
 43 44  1  6  0  0  0
 43 40  1  0  0  0  0
 43 41  1  0  0  0  0
 45 44  2  0  0  0  0
 46 47  1  0  0  0  0
 47 44  1  0  0  0  0
M  END
>  <MODEL>
4

>  <REMARK>
 VINA RESULT:      -7.2      1.526      2.001
  Name = 
  19 active torsions:
  status: ('A' for Active; 'I' for Inactive)
    1  A    between atoms: C_2  and  C_40
    2  A    between atoms: C_2  and  C_47
    3  A    between atoms: C_7  and  CA_12
    4  A    between atoms: O_9  and  C_26
    5  A    between atoms: C_10  and  C_26
    6  A    between atoms: C_10  and  C_41
    7  A    between atoms: C_11  and  C_24
    8  A    between atoms: C_14  and  C_41
    9  A    between atoms: C_15  and  C_45
   10  A    between atoms: C_16  and  C_45
   11  A    between atoms: N_20  and  C_33
   12  A    between atoms: N_20  and  C_44
   13  A    between atoms: C_22  and  C_26
   14  A    between atoms: C_22  and  C_38
   15  A    between atoms: C_24  and  C_35
   16  A    between atoms: C_30  and  C_36
   17  A    between atoms: C_35  and  C_41
   18  A    between atoms: C_36  and  C_37
   19  A    between atoms: C_44  and  C_45
                            x       y       z     vdW  Elec       q    Type
                         _______ _______ _______ _____ _____    ______ ____

>  <TORSDO>
F 19

$$$$
=
 OpenBabel10222415503D

 47 51  0  0  1  0  0  0  0  0999 V2000
  182.6710  179.3260  139.5120 C   0  0  2  0  0  3  0  0  0  0  0  0
  181.8020  181.5120  138.6640 C   0  0  0  0  0  3  0  0  0  0  0  0
  180.3370  180.2500  136.6410 C   0  0  0  0  0  3  0  0  0  0  0  0
  181.8380  180.1180  138.5470 C   0  0  0  0  0  0  0  0  0  0  0  0
  181.1020  179.4890  137.5290 C   0  0  0  0  0  3  0  0  0  0  0  0
  179.5440  182.4000  135.8850 O   0  0  0  0  0  1  0  0  0  0  0  0
  181.0360  182.2730  137.7760 C   0  0  0  0  0  3  0  0  0  0  0  0
  180.3040  181.6430  136.7650 C   0  0  0  0  0  0  0  0  0  0  0  0
  183.8030  177.2970  138.4700 C   0  0  0  0  0  2  0  0  0  0  0  0
  183.8000  178.6270  138.8240 C   0  0  0  0  0  0  0  0  0  0  0  0
  184.9780  177.0380  137.8660 N   0  0  0  0  0  0  0  0  0  0  0  0
  185.6390  178.2120  137.8840 C   0  0  0  0  0  0  0  0  0  0  0  0
  184.9520  179.2180  138.4560 N   0  0  0  0  0  0  0  0  0  0  0  0
  186.9850  178.3940  137.2680 C   0  0  0  0  0  2  0  0  0  0  0  0
  188.9190  176.8030  137.6980 C   0  0  0  0  0  0  0  0  0  0  0  0
  188.1970  178.3080  139.4450 C   0  0  0  0  0  3  0  0  0  0  0  0
  189.8820  176.3240  138.5340 N   0  0  0  0  0  0  0  0  0  0  0  0
  190.0330  176.7930  139.8010 C   0  0  0  0  0  0  0  0  0  0  0  0
  189.1910  177.7980  140.2790 C   0  0  0  0  0  3  0  0  0  0  0  0
  188.0470  177.8130  138.1480 C   0  0  0  0  0  0  0  0  0  0  0  0
  191.0050  176.2900  140.5970 F   0  0  0  0  0  0  0  0  0  0  0  0
  188.8060  176.2480  136.3130 C   0  0  0  0  0  3  0  0  0  0  0  0
  190.0740  175.9490  135.8140 O   0  0  0  0  0  1  0  0  0  0  0  0
  188.0210  175.0950  136.3200 O   0  0  0  0  0  1  0  0  0  0  0  0
  181.8370  178.3430  140.3220 C   0  0  0  0  0  2  0  0  0  0  0  0
  180.6860  179.0230  140.8920 N   0  0  0  0  0  2  0  0  0  0  0  0
  180.2150  178.8910  143.2620 C   0  0  0  0  0  2  0  0  0  0  0  0
  181.0920  179.5150  142.1950 C   0  0  1  0  0  3  0  0  0  0  0  0
  181.6090  178.3550  143.0190 C   0  0  1  0  0  3  0  0  0  0  0  0
  182.5470  178.8860  144.0870 C   0  0  0  0  0  2  0  0  0  0  0  0
  183.9260  179.1530  143.4890 C   0  0  2  0  0  3  0  0  0  0  0  0
  184.2980  178.2120  142.5010 O   0  0  0  0  0  0  0  0  0  0  0  0
  185.5460  178.5730  141.9660 C   0  0  0  0  0  1  0  0  0  0  0  0
  184.9890  179.3500  144.5790 C   0  0  0  0  0  2  0  0  0  0  0  0
  185.0720  178.1890  145.5730 C   0  0  2  0  0  3  0  0  0  0  0  0
  185.9090  179.8630  147.0830 F   0  0  0  0  0  0  0  0  0  0  0  0
  185.2160  178.6670  147.0180 C   0  0  0  0  0  2  0  0  0  0  0  0
  186.1350  177.1630  145.1850 C   0  0  0  0  0  2  0  0  0  0  0  0
  187.5270  177.7780  145.1830 C   0  0  0  0  0  2  0  0  0  0  0  0
  189.4480  178.0900  146.7070 C   0  0  1  0  0  3  0  0  0  0  0  0
  188.4160  177.0960  146.2200 C   0  0  2  0  0  3  0  0  0  0  0  0
  189.7640  177.8070  148.0350 O   0  0  0  0  0  1  0  0  0  0  0  0
  189.8940  176.9320  145.8290 C   0  0  1  0  0  3  0  0  0  0  0  0
  190.2540  177.4030  144.4430 C   0  0  0  0  0  0  0  0  0  0  0  0
  190.2480  176.6180  143.5050 O   0  0  0  0  0  0  0  0  0  0  0  0
  191.9630  179.0300  144.2640 O   0  0  0  0  0  1  0  0  0  0  0  0
  190.5820  178.8410  144.2030 C   0  0  0  0  0  2  0  0  0  0  0  0
  1 25  1  6  0  0  0
  3  8  2  0  0  0  0
  3  5  1  0  0  0  0
  4  2  1  0  0  0  0
  4  1  1  0  0  0  0
  5  4  2  0  0  0  0
  6  8  1  0  0  0  0
  7  2  2  0  0  0  0
  8  7  1  0  0  0  0
  9 10  1  0  0  0  0
 10  1  1  0  0  0  0
 11 12  2  0  0  0  0
 11  9  1  0  0  0  0
 12 13  1  0  0  0  0
 13 10  2  0  0  0  0
 14 12  1  0  0  0  0
 14 20  1  0  0  0  0
 15 20  2  0  0  0  0
 15 17  1  0  0  0  0
 16 19  2  0  0  0  0
 17 18  2  0  0  0  0
 18 19  1  0  0  0  0
 18 21  1  0  0  0  0
 20 16  1  0  0  0  0
 22 24  1  0  0  0  0
 22 15  1  0  0  0  0
 23 22  1  0  0  0  0
 25 26  1  0  0  0  0
 28 26  1  6  0  0  0
 28 29  1  0  0  0  0
 28 27  1  0  0  0  0
 29 27  1  0  0  0  0
 29 30  1  1  0  0  0
 31 30  1  1  0  0  0
 31 34  1  0  0  0  0
 32 31  1  0  0  0  0
 33 32  1  0  0  0  0
 35 34  1  6  0  0  0
 35 37  1  0  0  0  0
 37 36  1  0  0  0  0
 38 35  1  0  0  0  0
 39 38  1  0  0  0  0
 40 42  1  1  0  0  0
 41 39  1  6  0  0  0
 41 40  1  0  0  0  0
 43 44  1  6  0  0  0
 43 41  1  0  0  0  0
 43 40  1  0  0  0  0
 45 44  2  0  0  0  0
 47 46  1  0  0  0  0
 47 44  1  0  0  0  0
M  END
>  <MODEL>
5

>  <REMARK>
 VINA RESULT:      -7.0      3.181      7.598
  Name = 
  19 active torsions:
  status: ('A' for Active; 'I' for Inactive)
    1  A    between atoms: C_2  and  C_40
    2  A    between atoms: C_2  and  C_47
    3  A    between atoms: C_7  and  CA_12
    4  A    between atoms: O_9  and  C_26
    5  A    between atoms: C_10  and  C_26
    6  A    between atoms: C_10  and  C_41
    7  A    between atoms: C_11  and  C_24
    8  A    between atoms: C_14  and  C_41
    9  A    between atoms: C_15  and  C_45
   10  A    between atoms: C_16  and  C_45
   11  A    between atoms: N_20  and  C_33
   12  A    between atoms: N_20  and  C_44
   13  A    between atoms: C_22  and  C_26
   14  A    between atoms: C_22  and  C_38
   15  A    between atoms: C_24  and  C_35
   16  A    between atoms: C_30  and  C_36
   17  A    between atoms: C_35  and  C_41
   18  A    between atoms: C_36  and  C_37
   19  A    between atoms: C_44  and  C_45
                            x       y       z     vdW  Elec       q    Type
                         _______ _______ _______ _____ _____    ______ ____

>  <TORSDO>
F 19

$$$$
=
 OpenBabel10222415503D

 47 51  0  0  1  0  0  0  0  0999 V2000
  189.9370  177.7500  140.3630 C   0  0  2  0  0  3  0  0  0  0  0  0
  192.4070  177.5020  140.0700 C   0  0  0  0  0  3  0  0  0  0  0  0
  192.0690  175.8000  137.8750 C   0  0  0  0  0  3  0  0  0  0  0  0
  191.1170  177.1780  139.6340 C   0  0  0  0  0  0  0  0  0  0  0  0
  190.9520  176.3230  138.5330 C   0  0  0  0  0  3  0  0  0  0  0  0
  194.4640  175.6130  137.6600 O   0  0  0  0  0  1  0  0  0  0  0  0
  193.5240  176.9800  139.4100 C   0  0  0  0  0  3  0  0  0  0  0  0
  193.3550  176.1300  138.3140 C   0  0  0  0  0  0  0  0  0  0  0  0
  190.0830  176.0100  142.2170 C   0  0  0  0  0  2  0  0  0  0  0  0
  189.8990  177.3060  141.7910 C   0  0  0  0  0  0  0  0  0  0  0  0
  189.9890  176.0060  143.5600 N   0  0  0  0  0  0  0  0  0  0  0  0
  189.7480  177.2890  143.8930 C   0  0  0  0  0  0  0  0  0  0  0  0
  189.6910  178.1250  142.8390 N   0  0  0  0  0  0  0  0  0  0  0  0
  189.6180  177.7510  145.3050 C   0  0  0  0  0  2  0  0  0  0  0  0
  187.7720  178.1130  147.0120 C   0  0  0  0  0  0  0  0  0  0  0  0
  187.2030  177.7930  144.6860 C   0  0  0  0  0  3  0  0  0  0  0  0
  186.4470  178.2430  147.3000 N   0  0  0  0  0  0  0  0  0  0  0  0
  185.4900  178.1540  146.3370 C   0  0  0  0  0  0  0  0  0  0  0  0
  185.8540  177.9280  145.0090 C   0  0  0  0  0  3  0  0  0  0  0  0
  188.1770  177.8780  145.6840 C   0  0  0  0  0  0  0  0  0  0  0  0
  184.1850  178.2910  146.6670 F   0  0  0  0  0  0  0  0  0  0  0  0
  188.7770  178.2250  148.1150 C   0  0  0  0  0  3  0  0  0  0  0  0
  188.1690  177.9600  149.3420 O   0  0  0  0  0  1  0  0  0  0  0  0
  189.8230  177.3250  147.9050 O   0  0  0  0  0  1  0  0  0  0  0  0
  188.6200  177.4390  139.6630 C   0  0  0  0  0  2  0  0  0  0  0  0
  188.2620  178.5320  138.7750 N   0  0  0  0  0  2  0  0  0  0  0  0
  187.5080  178.9550  136.5150 C   0  0  0  0  0  2  0  0  0  0  0  0
  187.5800  177.9410  137.6390 C   0  0  1  0  0  3  0  0  0  0  0  0
  188.5460  177.8540  136.4760 C   0  0  1  0  0  3  0  0  0  0  0  0
  188.0850  176.7600  135.5320 C   0  0  0  0  0  2  0  0  0  0  0  0
  187.4700  175.6080  136.3230 C   0  0  2  0  0  3  0  0  0  0  0  0
  188.2710  174.4420  136.3250 O   0  0  0  0  0  0  0  0  0  0  0  0
  189.0750  174.4320  135.1730 C   0  0  0  0  0  1  0  0  0  0  0  0
  186.0140  175.3510  135.9120 C   0  0  0  0  0  2  0  0  0  0  0  0
  185.0610  175.1880  137.0980 C   0  0  2  0  0  3  0  0  0  0  0  0
  184.8530  172.9750  138.0140 F   0  0  0  0  0  0  0  0  0  0  0  0
  184.3270  173.8480  137.0780 C   0  0  0  0  0  2  0  0  0  0  0  0
  184.1110  176.3750  137.2510 C   0  0  0  0  0  2  0  0  0  0  0  0
  183.8060  176.6580  138.7150 C   0  0  0  0  0  2  0  0  0  0  0  0
  182.6620  178.7060  137.9330 C   0  0  1  0  0  3  0  0  0  0  0  0
  182.5420  177.5050  138.8450 C   0  0  2  0  0  3  0  0  0  0  0  0
  181.3940  179.0680  137.4820 O   0  0  0  0  0  1  0  0  0  0  0  0
  182.7360  178.9100  139.4370 C   0  0  1  0  0  3  0  0  0  0  0  0
  184.1400  179.2400  139.8780 C   0  0  0  0  0  0  0  0  0  0  0  0
  184.9280  179.7490  139.0940 O   0  0  0  0  0  0  0  0  0  0  0  0
  185.9140  179.2840  141.4420 O   0  0  0  0  0  1  0  0  0  0  0  0
  184.5610  178.9810  141.2880 C   0  0  0  0  0  2  0  0  0  0  0  0
  1 25  1  6  0  0  0
  1 10  1  0  0  0  0
  3  8  2  0  0  0  0
  3  5  1  0  0  0  0
  4  2  1  0  0  0  0
  4  1  1  0  0  0  0
  5  4  2  0  0  0  0
  6  8  1  0  0  0  0
  7  2  2  0  0  0  0
  8  7  1  0  0  0  0
  9 11  1  0  0  0  0
 10  9  1  0  0  0  0
 10 13  2  0  0  0  0
 11 12  2  0  0  0  0
 12 14  1  0  0  0  0
 13 12  1  0  0  0  0
 14 20  1  0  0  0  0
 15 17  1  0  0  0  0
 15 22  1  0  0  0  0
 16 19  2  0  0  0  0
 16 20  1  0  0  0  0
 18 21  1  0  0  0  0
 18 17  2  0  0  0  0
 19 18  1  0  0  0  0
 20 15  2  0  0  0  0
 22 23  1  0  0  0  0
 24 22  1  0  0  0  0
 26 25  1  0  0  0  0
 27 28  1  0  0  0  0
 28 26  1  1  0  0  0
 29 30  1  6  0  0  0
 29 27  1  0  0  0  0
 29 28  1  0  0  0  0
 31 30  1  6  0  0  0
 31 32  1  0  0  0  0
 33 32  1  0  0  0  0
 34 31  1  0  0  0  0
 35 34  1  6  0  0  0
 35 38  1  0  0  0  0
 37 35  1  0  0  0  0
 37 36  1  0  0  0  0
 38 39  1  0  0  0  0
 40 42  1  1  0  0  0
 40 41  1  0  0  0  0
 40 43  1  0  0  0  0
 41 39  1  6  0  0  0
 41 43  1  0  0  0  0
 43 44  1  6  0  0  0
 44 47  1  0  0  0  0
 45 44  2  0  0  0  0
 47 46  1  0  0  0  0
M  END
>  <MODEL>
6

>  <REMARK>
 VINA RESULT:      -6.9      2.424      7.819
  Name = 
  19 active torsions:
  status: ('A' for Active; 'I' for Inactive)
    1  A    between atoms: C_2  and  C_40
    2  A    between atoms: C_2  and  C_47
    3  A    between atoms: C_7  and  CA_12
    4  A    between atoms: O_9  and  C_26
    5  A    between atoms: C_10  and  C_26
    6  A    between atoms: C_10  and  C_41
    7  A    between atoms: C_11  and  C_24
    8  A    between atoms: C_14  and  C_41
    9  A    between atoms: C_15  and  C_45
   10  A    between atoms: C_16  and  C_45
   11  A    between atoms: N_20  and  C_33
   12  A    between atoms: N_20  and  C_44
   13  A    between atoms: C_22  and  C_26
   14  A    between atoms: C_22  and  C_38
   15  A    between atoms: C_24  and  C_35
   16  A    between atoms: C_30  and  C_36
   17  A    between atoms: C_35  and  C_41
   18  A    between atoms: C_36  and  C_37
   19  A    between atoms: C_44  and  C_45
                            x       y       z     vdW  Elec       q    Type
                         _______ _______ _______ _____ _____    ______ ____

>  <TORSDO>
F 19

$$$$
=
 OpenBabel10222415503D

 47 51  0  0  1  0  0  0  0  0999 V2000
  187.1970  177.3570  143.5870 C   0  0  2  0  0  3  0  0  0  0  0  0
  188.8370  177.6820  145.4460 C   0  0  0  0  0  3  0  0  0  0  0  0
  186.7900  177.8740  147.3430 C   0  0  0  0  0  3  0  0  0  0  0  0
  187.5020  177.5710  145.0410 C   0  0  0  0  0  0  0  0  0  0  0  0
  186.4780  177.6700  145.9960 C   0  0  0  0  0  3  0  0  0  0  0  0
  188.4370  178.1830  149.0790 O   0  0  0  0  0  1  0  0  0  0  0  0
  189.1490  177.8860  146.7940 C   0  0  0  0  0  3  0  0  0  0  0  0
  188.1260  177.9820  147.7420 C   0  0  0  0  0  0  0  0  0  0  0  0
  189.1710  175.8660  142.9780 C   0  0  0  0  0  3  0  0  0  0  0  0
  188.4270  177.0120  142.8090 C   0  0  0  0  0  0  0  0  0  0  0  0
  190.1870  175.9060  142.0960 N   0  0  0  0  0  0  0  0  0  0  0  0
  190.0240  177.0690  141.4350 C   0  0  0  0  0  0  0  0  0  0  0  0
  188.9520  177.7790  141.8350 N   0  0  0  0  0  2  0  0  0  0  0  0
  190.9150  177.5000  140.3200 C   0  0  0  0  0  2  0  0  0  0  0  0
  189.5310  177.5020  138.1890 C   0  0  0  0  0  0  0  0  0  0  0  0
  191.0420  175.6690  138.6320 C   0  0  0  0  0  3  0  0  0  0  0  0
  189.1820  176.9070  137.0150 N   0  0  0  0  0  0  0  0  0  0  0  0
  189.7220  175.7220  136.6210 C   0  0  0  0  0  0  0  0  0  0  0  0
  190.6650  175.0820  137.4260 C   0  0  0  0  0  3  0  0  0  0  0  0
  190.4760  176.8830  139.0300 C   0  0  0  0  0  0  0  0  0  0  0  0
  189.3480  175.1660  135.4450 F   0  0  0  0  0  0  0  0  0  0  0  0
  188.9050  178.8080  138.5640 C   0  0  0  0  0  3  0  0  0  0  0  0
  189.0560  179.7250  137.5250 O   0  0  0  0  0  1  0  0  0  0  0  0
  187.5490  178.6290  138.8400 O   0  0  0  0  0  1  0  0  0  0  0  0
  186.4790  178.5480  142.9670 C   0  0  0  0  0  2  0  0  0  0  0  0
  185.3760  178.9590  143.8200 N   0  0  0  0  0  2  0  0  0  0  0  0
  183.0040  178.6560  144.1910 C   0  0  0  0  0  2  0  0  0  0  0  0
  184.1990  178.2530  143.3510 C   0  0  1  0  0  3  0  0  0  0  0  0
  183.2010  179.2600  142.8170 C   0  0  1  0  0  3  0  0  0  0  0  0
  182.2830  178.5680  141.8270 C   0  0  0  0  0  2  0  0  0  0  0  0
  180.9860  179.3580  141.6740 C   0  0  2  0  0  3  0  0  0  0  0  0
  179.9610  178.9240  142.5470 O   0  0  0  0  0  0  0  0  0  0  0  0
  179.3530  180.0440  143.1390 C   0  0  0  0  0  1  0  0  0  0  0  0
  180.5440  179.4460  140.2060 C   0  0  0  0  0  2  0  0  0  0  0  0
  181.0590  180.6930  139.4840 C   0  0  2  0  0  3  0  0  0  0  0  0
  180.3700  182.6730  138.3080 F   0  0  0  0  0  0  0  0  0  0  0  0
  179.9570  181.4150  138.7080 C   0  0  0  0  0  2  0  0  0  0  0  0
  182.2890  180.4030  138.6240 C   0  0  0  0  0  2  0  0  0  0  0  0
  182.2360  179.0030  138.0310 C   0  0  0  0  0  2  0  0  0  0  0  0
  183.8630  177.3870  137.1080 C   0  0  1  0  0  3  0  0  0  0  0  0
  183.5400  178.2560  138.3030 C   0  0  2  0  0  3  0  0  0  0  0  0
  185.2470  177.2780  136.9820 O   0  0  0  0  0  1  0  0  0  0  0  0
  183.4250  176.7270  138.4040 C   0  0  1  0  0  3  0  0  0  0  0  0
  182.0280  176.1720  138.2920 C   0  0  0  0  0  0  0  0  0  0  0  0
  181.5340  175.9640  137.1930 O   0  0  0  0  0  0  0  0  0  0  0  0
  180.2510  174.9180  139.2220 O   0  0  0  0  0  1  0  0  0  0  0  0
  181.2550  175.8370  139.5260 C   0  0  0  0  0  2  0  0  0  0  0  0
  1 25  1  6  0  0  0
  1  4  1  0  0  0  0
  2  7  1  0  0  0  0
  3  8  1  0  0  0  0
  4  2  2  0  0  0  0
  4  5  1  0  0  0  0
  5  3  2  0  0  0  0
  7  8  2  0  0  0  0
  8  6  1  0  0  0  0
 10  9  2  0  0  0  0
 10  1  1  0  0  0  0
 11  9  1  0  0  0  0
 12 13  1  0  0  0  0
 12 11  2  0  0  0  0
 13 10  1  0  0  0  0
 14 12  1  0  0  0  0
 15 22  1  0  0  0  0
 15 20  1  0  0  0  0
 16 20  2  0  0  0  0
 17 15  2  0  0  0  0
 18 17  1  0  0  0  0
 18 19  2  0  0  0  0
 19 16  1  0  0  0  0
 20 14  1  0  0  0  0
 21 18  1  0  0  0  0
 22 24  1  0  0  0  0
 23 22  1  0  0  0  0
 25 26  1  0  0  0  0
 28 26  1  1  0  0  0
 28 27  1  0  0  0  0
 29 30  1  6  0  0  0
 29 28  1  0  0  0  0
 29 27  1  0  0  0  0
 31 34  1  6  0  0  0
 31 30  1  0  0  0  0
 31 32  1  0  0  0  0
 32 33  1  0  0  0  0
 35 38  1  6  0  0  0
 35 34  1  0  0  0  0
 36 37  1  0  0  0  0
 37 35  1  0  0  0  0
 39 38  1  0  0  0  0
 40 42  1  1  0  0  0
 40 41  1  0  0  0  0
 40 43  1  0  0  0  0
 41 39  1  6  0  0  0
 41 43  1  0  0  0  0
 43 44  1  6  0  0  0
 44 47  1  0  0  0  0
 45 44  2  0  0  0  0
 46 47  1  0  0  0  0
M  END
>  <MODEL>
7

>  <REMARK>
 VINA RESULT:      -6.7      3.353      8.658
  Name = 
  19 active torsions:
  status: ('A' for Active; 'I' for Inactive)
    1  A    between atoms: C_2  and  C_40
    2  A    between atoms: C_2  and  C_47
    3  A    between atoms: C_7  and  CA_12
    4  A    between atoms: O_9  and  C_26
    5  A    between atoms: C_10  and  C_26
    6  A    between atoms: C_10  and  C_41
    7  A    between atoms: C_11  and  C_24
    8  A    between atoms: C_14  and  C_41
    9  A    between atoms: C_15  and  C_45
   10  A    between atoms: C_16  and  C_45
   11  A    between atoms: N_20  and  C_33
   12  A    between atoms: N_20  and  C_44
   13  A    between atoms: C_22  and  C_26
   14  A    between atoms: C_22  and  C_38
   15  A    between atoms: C_24  and  C_35
   16  A    between atoms: C_30  and  C_36
   17  A    between atoms: C_35  and  C_41
   18  A    between atoms: C_36  and  C_37
   19  A    between atoms: C_44  and  C_45
                            x       y       z     vdW  Elec       q    Type
                         _______ _______ _______ _____ _____    ______ ____

>  <TORSDO>
F 19

$$$$
=
 OpenBabel10222415503D

 47 51  0  0  1  0  0  0  0  0999 V2000
  187.2740  177.2500  143.5700 C   0  0  2  0  0  3  0  0  0  0  0  0
  189.0210  177.5270  145.3370 C   0  0  0  0  0  3  0  0  0  0  0  0
  187.0880  177.9770  147.3090 C   0  0  0  0  0  3  0  0  0  0  0  0
  187.6640  177.5070  144.9960 C   0  0  0  0  0  0  0  0  0  0  0  0
  186.6970  177.7350  145.9890 C   0  0  0  0  0  3  0  0  0  0  0  0
  188.8350  178.2320  148.9530 O   0  0  0  0  0  1  0  0  0  0  0  0
  189.4110  177.7680  146.6570 C   0  0  0  0  0  3  0  0  0  0  0  0
  188.4460  177.9930  147.6430 C   0  0  0  0  0  0  0  0  0  0  0  0
  189.3210  175.9120  142.8600 C   0  0  0  0  0  2  0  0  0  0  0  0
  188.4670  176.9810  142.7100 C   0  0  0  0  0  0  0  0  0  0  0  0
  190.2600  176.0030  141.9000 N   0  0  0  0  0  0  0  0  0  0  0  0
  189.9450  177.1190  141.2140 C   0  0  0  0  0  0  0  0  0  0  0  0
  188.8460  177.7490  141.6720 N   0  0  0  0  0  0  0  0  0  0  0  0
  190.7070  177.5790  140.0180 C   0  0  0  0  0  2  0  0  0  0  0  0
  189.2050  177.3590  137.9810 C   0  0  0  0  0  0  0  0  0  0  0  0
  190.8750  175.6700  138.4220 C   0  0  0  0  0  3  0  0  0  0  0  0
  188.8340  176.6740  136.8630 N   0  0  0  0  0  0  0  0  0  0  0  0
  189.4390  175.5120  136.4980 C   0  0  0  0  0  0  0  0  0  0  0  0
  190.4740  174.9890  137.2740 C   0  0  0  0  0  3  0  0  0  0  0  0
  190.2420  176.8590  138.7910 C   0  0  0  0  0  0  0  0  0  0  0  0
  189.0410  174.8650  135.3780 F   0  0  0  0  0  0  0  0  0  0  0  0
  188.5040  178.6340  138.3260 C   0  0  0  0  0  3  0  0  0  0  0  0
  189.0440  179.6900  137.5910 O   0  0  0  0  0  1  0  0  0  0  0  0
  187.1390  178.5210  138.0530 O   0  0  0  0  0  1  0  0  0  0  0  0
  186.4300  178.3780  142.9900 C   0  0  0  0  0  2  0  0  0  0  0  0
  185.6210  177.8760  141.8930 N   0  0  0  0  0  2  0  0  0  0  0  0
  184.2290  179.1000  140.3370 C   0  0  0  0  0  2  0  0  0  0  0  0
  184.4660  178.7480  141.7910 C   0  0  1  0  0  3  0  0  0  0  0  0
  183.3810  178.0400  141.0070 C   0  0  1  0  0  3  0  0  0  0  0  0
  182.0360  178.6320  141.3800 C   0  0  0  0  0  2  0  0  0  0  0  0
  180.9920  178.2700  140.3250 C   0  0  2  0  0  3  0  0  0  0  0  0
  179.7840  178.9920  140.4640 O   0  0  0  0  0  0  0  0  0  0  0  0
  179.3550  178.9230  141.8000 C   0  0  0  0  0  1  0  0  0  0  0  0
  180.7900  176.7520  140.2240 C   0  0  0  0  0  2  0  0  0  0  0  0
  180.5240  176.2610  138.7990 C   0  0  2  0  0  3  0  0  0  0  0  0
  180.0630  174.3000  137.4870 F   0  0  0  0  0  0  0  0  0  0  0  0
  179.9960  174.8270  138.7640 C   0  0  0  0  0  2  0  0  0  0  0  0
  181.7250  176.4670  137.8770 C   0  0  0  0  0  2  0  0  0  0  0  0
  182.9600  175.7520  138.4030 C   0  0  0  0  0  2  0  0  0  0  0  0
  183.8090  176.2510  136.1360 C   0  0  1  0  0  3  0  0  0  0  0  0
  184.1940  176.1470  137.5950 C   0  0  2  0  0  3  0  0  0  0  0  0
  184.5960  177.2250  135.5230 O   0  0  0  0  0  1  0  0  0  0  0  0
  184.6950  175.1020  136.5860 C   0  0  1  0  0  3  0  0  0  0  0  0
  183.9440  173.7950  136.5780 C   0  0  0  0  0  0  0  0  0  0  0  0
  182.8770  173.7010  135.9870 O   0  0  0  0  0  0  0  0  0  0  0  0
  185.4310  172.9980  138.2360 O   0  0  0  0  0  1  0  0  0  0  0  0
  184.5200  172.5960  137.2600 C   0  0  0  0  0  2  0  0  0  0  0  0
  1 25  1  6  0  0  0
  1  4  1  0  0  0  0
  2  7  1  0  0  0  0
  3  8  1  0  0  0  0
  4  2  2  0  0  0  0
  4  5  1  0  0  0  0
  5  3  2  0  0  0  0
  7  8  2  0  0  0  0
  8  6  1  0  0  0  0
 10  9  1  0  0  0  0
 10  1  1  0  0  0  0
 11  9  1  0  0  0  0
 12 13  1  0  0  0  0
 12 11  2  0  0  0  0
 13 10  2  0  0  0  0
 14 12  1  0  0  0  0
 15 22  1  0  0  0  0
 15 20  1  0  0  0  0
 16 20  2  0  0  0  0
 17 15  2  0  0  0  0
 18 17  1  0  0  0  0
 18 19  2  0  0  0  0
 19 16  1  0  0  0  0
 20 14  1  0  0  0  0
 21 18  1  0  0  0  0
 23 22  1  0  0  0  0
 24 22  1  0  0  0  0
 26 25  1  0  0  0  0
 27 29  1  0  0  0  0
 27 28  1  0  0  0  0
 28 26  1  6  0  0  0
 29 30  1  1  0  0  0
 29 28  1  0  0  0  0
 31 34  1  1  0  0  0
 31 32  1  0  0  0  0
 31 30  1  0  0  0  0
 32 33  1  0  0  0  0
 35 38  1  6  0  0  0
 35 34  1  0  0  0  0
 36 37  1  0  0  0  0
 37 35  1  0  0  0  0
 38 39  1  0  0  0  0
 40 42  1  6  0  0  0
 40 43  1  0  0  0  0
 40 41  1  0  0  0  0
 41 39  1  1  0  0  0
 43 44  1  1  0  0  0
 43 41  1  0  0  0  0
 44 47  1  0  0  0  0
 45 44  2  0  0  0  0
 47 46  1  0  0  0  0
M  END
>  <MODEL>
8

>  <REMARK>
 VINA RESULT:      -6.7      3.158      8.805
  Name = 
  19 active torsions:
  status: ('A' for Active; 'I' for Inactive)
    1  A    between atoms: C_2  and  C_40
    2  A    between atoms: C_2  and  C_47
    3  A    between atoms: C_7  and  CA_12
    4  A    between atoms: O_9  and  C_26
    5  A    between atoms: C_10  and  C_26
    6  A    between atoms: C_10  and  C_41
    7  A    between atoms: C_11  and  C_24
    8  A    between atoms: C_14  and  C_41
    9  A    between atoms: C_15  and  C_45
   10  A    between atoms: C_16  and  C_45
   11  A    between atoms: N_20  and  C_33
   12  A    between atoms: N_20  and  C_44
   13  A    between atoms: C_22  and  C_26
   14  A    between atoms: C_22  and  C_38
   15  A    between atoms: C_24  and  C_35
   16  A    between atoms: C_30  and  C_36
   17  A    between atoms: C_35  and  C_41
   18  A    between atoms: C_36  and  C_37
   19  A    between atoms: C_44  and  C_45
                            x       y       z     vdW  Elec       q    Type
                         _______ _______ _______ _____ _____    ______ ____

>  <TORSDO>
F 19

$$$$
=
 OpenBabel10222415503D

 47 51  0  0  1  0  0  0  0  0999 V2000
  187.1620  177.2480  143.6910 C   0  0  2  0  0  3  0  0  0  0  0  0
  186.5000  178.0130  145.9780 C   0  0  0  0  0  3  0  0  0  0  0  0
  189.0460  177.4650  146.9990 C   0  0  0  0  0  3  0  0  0  0  0  0
  187.4910  177.5000  145.1340 C   0  0  0  0  0  0  0  0  0  0  0  0
  188.7680  177.2250  145.6510 C   0  0  0  0  0  3  0  0  0  0  0  0
  188.3280  178.2190  149.1760 O   0  0  0  0  0  1  0  0  0  0  0  0
  186.7800  178.2530  147.3270 C   0  0  0  0  0  3  0  0  0  0  0  0
  188.0520  177.9790  147.8370 C   0  0  0  0  0  0  0  0  0  0  0  0
  189.1900  175.8750  142.9940 C   0  0  0  0  0  2  0  0  0  0  0  0
  188.3910  176.9900  142.8800 C   0  0  0  0  0  0  0  0  0  0  0  0
  190.1860  175.9930  142.0960 N   0  0  0  0  0  0  0  0  0  0  0  0
  189.9570  177.1710  141.4820 C   0  0  0  0  0  0  0  0  0  0  0  0
  188.8610  177.8140  141.9260 N   0  0  0  0  0  0  0  0  0  0  0  0
  190.8060  177.6830  140.3680 C   0  0  0  0  0  2  0  0  0  0  0  0
  190.4950  176.6980  138.0460 C   0  0  0  0  0  0  0  0  0  0  0  0
  188.9350  178.3520  138.8630 C   0  0  0  0  0  3  0  0  0  0  0  0
  189.7840  176.6260  136.8860 N   0  0  0  0  0  0  0  0  0  0  0  0
  188.6730  177.3810  136.6770 C   0  0  0  0  0  0  0  0  0  0  0  0
  188.2270  178.2590  137.6650 C   0  0  0  0  0  3  0  0  0  0  0  0
  190.0790  177.5770  139.0640 C   0  0  0  0  0  0  0  0  0  0  0  0
  187.9950  177.2760  135.5090 F   0  0  0  0  0  0  0  0  0  0  0  0
  191.7070  175.8380  138.2190 C   0  0  0  0  0  3  0  0  0  0  0  0
  191.3850  174.5040  137.9690 O   0  0  0  0  0  1  0  0  0  0  0  0
  192.7160  176.2490  137.3460 O   0  0  0  0  0  1  0  0  0  0  0  0
  186.3380  178.3760  143.0840 C   0  0  0  0  0  2  0  0  0  0  0  0
  185.5860  177.8800  141.9430 N   0  0  0  0  0  2  0  0  0  0  0  0
  184.1470  178.9380  140.3110 C   0  0  0  0  0  2  0  0  0  0  0  0
  184.4380  178.7540  141.7860 C   0  0  1  0  0  3  0  0  0  0  0  0
  183.3150  177.9770  141.1320 C   0  0  1  0  0  3  0  0  0  0  0  0
  181.9920  178.6310  141.4850 C   0  0  0  0  0  2  0  0  0  0  0  0
  180.8790  178.0730  140.6010 C   0  0  2  0  0  3  0  0  0  0  0  0
  179.5840  178.2990  141.1250 O   0  0  0  0  0  0  0  0  0  0  0  0
  179.1020  179.5300  140.6490 C   0  0  0  0  0  1  0  0  0  0  0  0
  181.1370  176.6110  140.2160 C   0  0  0  0  0  2  0  0  0  0  0  0
  180.7450  176.2760  138.7750 C   0  0  2  0  0  3  0  0  0  0  0  0
  179.6870  174.4250  139.8870 F   0  0  0  0  0  0  0  0  0  0  0  0
  180.0940  174.8980  138.6520 C   0  0  0  0  0  2  0  0  0  0  0  0
  181.9010  176.4690  137.7950 C   0  0  0  0  0  2  0  0  0  0  0  0
  183.1400  175.7070  138.2400 C   0  0  0  0  0  2  0  0  0  0  0  0
  184.3110  176.0890  136.0960 C   0  0  1  0  0  3  0  0  0  0  0  0
  184.3920  176.2950  137.5930 C   0  0  2  0  0  3  0  0  0  0  0  0
  184.9630  177.1390  135.4530 O   0  0  0  0  0  1  0  0  0  0  0  0
  185.3210  175.2860  136.8980 C   0  0  1  0  0  3  0  0  0  0  0  0
  184.9090  173.8410  137.0090 C   0  0  0  0  0  0  0  0  0  0  0  0
  185.2680  173.1700  137.9660 O   0  0  0  0  0  0  0  0  0  0  0  0
  184.8000  172.6620  134.9610 O   0  0  0  0  0  1  0  0  0  0  0  0
  184.0250  173.2320  135.9700 C   0  0  0  0  0  2  0  0  0  0  0  0
  1 25  1  6  0  0  0
  1  4  1  0  0  0  0
  2  7  1  0  0  0  0
  3  8  1  0  0  0  0
  4  5  1  0  0  0  0
  4  2  2  0  0  0  0
  5  3  2  0  0  0  0
  7  8  2  0  0  0  0
  8  6  1  0  0  0  0
 10  9  1  0  0  0  0
 10  1  1  0  0  0  0
 11  9  1  0  0  0  0
 12 13  1  0  0  0  0
 12 11  2  0  0  0  0
 13 10  2  0  0  0  0
 14 12  1  0  0  0  0
 15 22  1  0  0  0  0
 15 20  1  0  0  0  0
 16 20  2  0  0  0  0
 17 15  2  0  0  0  0
 18 17  1  0  0  0  0
 18 19  2  0  0  0  0
 19 16  1  0  0  0  0
 20 14  1  0  0  0  0
 21 18  1  0  0  0  0
 23 22  1  0  0  0  0
 24 22  1  0  0  0  0
 26 25  1  0  0  0  0
 27 29  1  0  0  0  0
 27 28  1  0  0  0  0
 28 26  1  6  0  0  0
 29 30  1  1  0  0  0
 29 28  1  0  0  0  0
 31 34  1  1  0  0  0
 31 32  1  0  0  0  0
 31 30  1  0  0  0  0
 33 32  1  0  0  0  0
 35 38  1  6  0  0  0
 35 34  1  0  0  0  0
 37 35  1  0  0  0  0
 37 36  1  0  0  0  0
 38 39  1  0  0  0  0
 40 42  1  6  0  0  0
 40 43  1  0  0  0  0
 40 41  1  0  0  0  0
 41 39  1  1  0  0  0
 43 44  1  1  0  0  0
 43 41  1  0  0  0  0
 44 45  2  0  0  0  0
 46 47  1  0  0  0  0
 47 44  1  0  0  0  0
M  END
>  <MODEL>
9

>  <REMARK>
 VINA RESULT:      -6.6      3.044      8.847
  Name = 
  19 active torsions:
  status: ('A' for Active; 'I' for Inactive)
    1  A    between atoms: C_2  and  C_40
    2  A    between atoms: C_2  and  C_47
    3  A    between atoms: C_7  and  CA_12
    4  A    between atoms: O_9  and  C_26
    5  A    between atoms: C_10  and  C_26
    6  A    between atoms: C_10  and  C_41
    7  A    between atoms: C_11  and  C_24
    8  A    between atoms: C_14  and  C_41
    9  A    between atoms: C_15  and  C_45
   10  A    between atoms: C_16  and  C_45
   11  A    between atoms: N_20  and  C_33
   12  A    between atoms: N_20  and  C_44
   13  A    between atoms: C_22  and  C_26
   14  A    between atoms: C_22  and  C_38
   15  A    between atoms: C_24  and  C_35
   16  A    between atoms: C_30  and  C_36
   17  A    between atoms: C_35  and  C_41
   18  A    between atoms: C_36  and  C_37
   19  A    between atoms: C_44  and  C_45
                            x       y       z     vdW  Elec       q    Type
                         _______ _______ _______ _____ _____    ______ ____

>  <TORSDO>
F 19

$$$$
