=
 OpenBabel10222421073D

 29 31  0  0  1  0  0  0  0  0999 V2000
  186.7670  178.7580  140.8210 C   0  0  0  0  0  3  0  0  0  0  0  0
  186.5530  177.7810  144.4470 C   0  0  0  0  0  3  0  0  0  0  0  0
  185.1420  179.2610  142.5900 N   0  0  0  0  0  2  0  0  0  0  0  0
  184.6700  179.1750  143.8630 C   0  0  0  0  0  0  0  0  0  0  0  0
  185.3710  178.4240  144.8200 C   0  0  0  0  0  0  0  0  0  0  0  0
  188.2350  177.2350  142.7080 N   0  0  0  0  0  0  0  0  0  0  0  0
  186.2880  178.6360  142.2060 C   0  0  0  0  0  0  0  0  0  0  0  0
  187.8960  178.1600  140.4350 C   0  0  0  0  0  0  0  0  0  0  0  0
  188.6580  177.3870  141.3750 N   0  0  0  0  0  2  0  0  0  0  0  0
  187.0210  177.8790  143.1320 C   0  0  0  0  0  0  0  0  0  0  0  0
  183.6050  179.7740  144.1710 O   0  0  0  0  0  0  0  0  0  0  0  0
  189.3720  177.1450  144.9130 C   0  0  0  0  0  2  0  0  0  0  0  0
  191.3700  176.7130  142.7290 C   0  0  0  0  0  2  0  0  0  0  0  0
  191.3340  177.9010  143.5990 N   0  0  0  0  0  2  0  0  0  0  0  0
  188.9960  176.3910  143.6310 C   0  0  2  0  0  3  0  0  0  0  0  0
  190.1980  175.7440  142.9430 C   0  0  0  0  0  2  0  0  0  0  0  0
  190.8330  177.6070  144.9470 C   0  0  2  0  0  3  0  0  0  0  0  0
  191.7160  176.6050  145.6900 C   0  0  0  0  0  2  0  0  0  0  0  0
  191.3740  176.5630  147.1710 C   0  0  0  0  0  2  0  0  0  0  0  0
  192.4230  175.7850  147.9430 C   0  0  0  0  0  1  0  0  0  0  0  0
  184.9040  178.3330  146.2350 C   0  0  0  0  0  2  0  0  0  0  0  0
  185.6120  179.3060  147.0470 N   0  0  0  0  0  1  0  0  0  0  0  0
  189.8240  177.9230  138.8950 C   0  0  0  0  0  1  0  0  0  0  0  0
  188.3600  178.3060  139.0220 C   0  0  1  0  0  3  0  0  0  0  0  0
  187.5140  177.5030  138.0880 C   0  0  0  0  0  0  0  0  0  0  0  0
  187.8070  176.2950  137.8760 O   0  0  0  0  0  0  0  0  0  0  0  0
  186.4340  178.0990  137.4330 O   0  0  0  0  0  0  0  0  0  0  0  0
  185.1810  177.4440  137.3110 C   0  0  0  0  0  2  0  0  0  0  0  0
  184.1970  178.0510  138.2900 C   0  0  0  0  0  1  0  0  0  0  0  0
  1  7  1  0  0  0  0
  2  5  2  0  0  0  0
  3  4  1  0  0  0  0
  4 11  2  0  0  0  0
  4  5  1  0  0  0  0
  5 21  1  0  0  0  0
  6 10  1  0  0  0  0
  7  3  1  0  0  0  0
  7 10  2  0  0  0  0
  8  1  2  0  0  0  0
  8  9  1  0  0  0  0
  9  6  1  0  0  0  0
 10  2  1  0  0  0  0
 12 17  1  0  0  0  0
 13 16  1  0  0  0  0
 13 14  1  0  0  0  0
 14 17  1  0  0  0  0
 15  6  1  6  0  0  0
 15 12  1  0  0  0  0
 16 15  1  0  0  0  0
 17 18  1  6  0  0  0
 18 19  1  0  0  0  0
 19 20  1  0  0  0  0
 21 22  1  0  0  0  0
 24 23  1  1  0  0  0
 24  8  1  0  0  0  0
 25 24  1  0  0  0  0
 26 25  2  0  0  0  0
 27 25  1  0  0  0  0
 28 27  1  0  0  0  0
 28 29  1  0  0  0  0
M  END
>  <MODEL>
1

>  <REMARK>
 VINA RESULT:      -8.6      0.000      0.000
  Name = 
  8 active torsions:
  status: ('A' for Active; 'I' for Inactive)
    1  A    between atoms: C_1  and  C_5
    2  A    between atoms: C_1  and  C_25
    3  A    between atoms: C_6  and  C_15
    4  A    between atoms: O_9  and  C_10
    5  A    between atoms: O_9  and  C_16
    6  A    between atoms: C_10  and  C_18
    7  A    between atoms: C_14  and  N_19
    8  A    between atoms: C_18  and  C_21
                            x       y       z     vdW  Elec       q    Type
                         _______ _______ _______ _____ _____    ______ ____

>  <TORSDO>
F 8

$$$$
=
 OpenBabel10222421073D

 29 31  0  0  1  0  0  0  0  0999 V2000
  186.4170  178.4660  140.6790 C   0  0  0  0  0  3  0  0  0  0  0  0
  186.5190  177.9350  144.4010 C   0  0  0  0  0  3  0  0  0  0  0  0
  184.9270  179.1560  142.5020 N   0  0  0  0  0  2  0  0  0  0  0  0
  184.5610  179.2190  143.8120 C   0  0  0  0  0  0  0  0  0  0  0  0
  185.3550  178.6000  144.7900 C   0  0  0  0  0  0  0  0  0  0  0  0
  188.0700  177.2070  142.6080 N   0  0  0  0  0  0  0  0  0  0  0  0
  186.0540  178.5070  142.1030 C   0  0  0  0  0  0  0  0  0  0  0  0
  187.5270  177.8430  140.2760 C   0  0  0  0  0  0  0  0  0  0  0  0
  188.3810  177.2020  141.2350 N   0  0  0  0  0  2  0  0  0  0  0  0
  186.8780  177.8800  143.0500 C   0  0  0  0  0  0  0  0  0  0  0  0
  183.5100  179.8340  144.1320 O   0  0  0  0  0  0  0  0  0  0  0  0
  189.3000  177.3740  144.7570 C   0  0  0  0  0  2  0  0  0  0  0  0
  191.2310  176.8920  142.5250 C   0  0  0  0  0  2  0  0  0  0  0  0
  191.1510  178.1430  143.2970 N   0  0  0  0  0  2  0  0  0  0  0  0
  188.9230  176.4940  143.5590 C   0  0  2  0  0  3  0  0  0  0  0  0
  190.1370  175.8700  142.8700 C   0  0  0  0  0  2  0  0  0  0  0  0
  190.7260  177.9300  144.6870 C   0  0  2  0  0  3  0  0  0  0  0  0
  191.7050  177.0530  145.4650 C   0  0  0  0  0  2  0  0  0  0  0  0
  191.1650  176.7220  146.8480 C   0  0  0  0  0  2  0  0  0  0  0  0
  192.0550  175.7090  147.5440 C   0  0  0  0  0  1  0  0  0  0  0  0
  185.0060  178.6750  146.2400 C   0  0  0  0  0  2  0  0  0  0  0  0
  186.2110  178.5640  147.0410 N   0  0  0  0  0  1  0  0  0  0  0  0
  186.7270  178.3770  137.9900 C   0  0  0  0  0  1  0  0  0  0  0  0
  187.8720  177.8240  138.8210 C   0  0  1  0  0  3  0  0  0  0  0  0
  189.1370  178.5720  138.5550 C   0  0  0  0  0  0  0  0  0  0  0  0
  189.0780  179.7060  138.0060 O   0  0  0  0  0  0  0  0  0  0  0  0
  190.3700  178.0010  138.8790 O   0  0  0  0  0  0  0  0  0  0  0  0
  190.6830  176.6590  138.5410 C   0  0  0  0  0  2  0  0  0  0  0  0
  192.1820  176.5110  138.3940 C   0  0  0  0  0  1  0  0  0  0  0  0
  1  7  1  0  0  0  0
  2  5  2  0  0  0  0
  3  4  1  0  0  0  0
  4 11  2  0  0  0  0
  4  5  1  0  0  0  0
  5 21  1  0  0  0  0
  6 10  1  0  0  0  0
  7  3  1  0  0  0  0
  7 10  2  0  0  0  0
  8  1  2  0  0  0  0
  8  9  1  0  0  0  0
  9  6  1  0  0  0  0
 10  2  1  0  0  0  0
 13 16  1  0  0  0  0
 13 14  1  0  0  0  0
 14 17  1  0  0  0  0
 15  6  1  6  0  0  0
 15 12  1  0  0  0  0
 16 15  1  0  0  0  0
 17 12  1  0  0  0  0
 17 18  1  6  0  0  0
 18 19  1  0  0  0  0
 19 20  1  0  0  0  0
 21 22  1  0  0  0  0
 24 23  1  6  0  0  0
 24  8  1  0  0  0  0
 25 24  1  0  0  0  0
 25 27  1  0  0  0  0
 26 25  2  0  0  0  0
 28 27  1  0  0  0  0
 29 28  1  0  0  0  0
M  END
>  <MODEL>
2

>  <REMARK>
 VINA RESULT:      -8.1      1.125      2.257
  Name = 
  8 active torsions:
  status: ('A' for Active; 'I' for Inactive)
    1  A    between atoms: C_1  and  C_5
    2  A    between atoms: C_1  and  C_25
    3  A    between atoms: C_6  and  C_15
    4  A    between atoms: O_9  and  C_10
    5  A    between atoms: O_9  and  C_16
    6  A    between atoms: C_10  and  C_18
    7  A    between atoms: C_14  and  N_19
    8  A    between atoms: C_18  and  C_21
                            x       y       z     vdW  Elec       q    Type
                         _______ _______ _______ _____ _____    ______ ____

>  <TORSDO>
F 8

$$$$
=
 OpenBabel10222421073D

 29 31  0  0  1  0  0  0  0  0999 V2000
  187.6010  178.3240  139.8930 C   0  0  0  0  0  3  0  0  0  0  0  0
  190.9470  176.6210  139.6590 C   0  0  0  0  0  3  0  0  0  0  0  0
  188.9990  177.6490  137.9920 N   0  0  0  0  0  2  0  0  0  0  0  0
  190.1120  177.0910  137.4430 C   0  0  0  0  0  0  0  0  0  0  0  0
  191.1150  176.5670  138.2740 C   0  0  0  0  0  0  0  0  0  0  0  0
  189.5840  177.2730  141.6250 N   0  0  0  0  0  0  0  0  0  0  0  0
  188.8210  177.7170  139.3390 C   0  0  0  0  0  0  0  0  0  0  0  0
  187.4090  178.3850  141.2120 C   0  0  0  0  0  0  0  0  0  0  0  0
  188.3980  177.8560  142.1090 N   0  0  0  0  0  2  0  0  0  0  0  0
  189.7970  177.2010  140.2050 C   0  0  0  0  0  0  0  0  0  0  0  0
  190.2300  177.0500  136.1900 O   0  0  0  0  0  0  0  0  0  0  0  0
  189.9840  176.2610  143.8560 C   0  0  0  0  0  2  0  0  0  0  0  0
  191.2250  178.9800  143.7460 C   0  0  0  0  0  2  0  0  0  0  0  0
  190.0680  178.6280  144.5870 N   0  0  0  0  0  2  0  0  0  0  0  0
  190.6050  176.7970  142.5600 C   0  0  2  0  0  3  0  0  0  0  0  0
  191.6820  177.8540  142.8060 C   0  0  0  0  0  2  0  0  0  0  0  0
  190.0930  177.2310  145.0370 C   0  0  2  0  0  3  0  0  0  0  0  0
  191.3130  176.9200  145.9020 C   0  0  0  0  0  2  0  0  0  0  0  0
  190.9060  176.5960  147.3300 C   0  0  0  0  0  2  0  0  0  0  0  0
  189.4360  176.9010  147.5530 C   0  0  0  0  0  1  0  0  0  0  0  0
  192.3340  175.9160  137.7100 C   0  0  0  0  0  2  0  0  0  0  0  0
  193.4990  176.7380  137.9830 N   0  0  0  0  0  1  0  0  0  0  0  0
  185.0550  178.9720  140.7000 C   0  0  0  0  0  1  0  0  0  0  0  0
  186.1570  179.0040  141.7450 C   0  0  1  0  0  3  0  0  0  0  0  0
  185.7170  178.3360  143.0070 C   0  0  0  0  0  0  0  0  0  0  0  0
  184.5450  177.8770  143.0840 O   0  0  0  0  0  0  0  0  0  0  0  0
  186.5870  178.2550  144.0970 O   0  0  0  0  0  0  0  0  0  0  0  0
  186.2630  177.5040  145.2560 C   0  0  0  0  0  2  0  0  0  0  0  0
  185.5620  178.3980  146.2570 C   0  0  0  0  0  1  0  0  0  0  0  0
  1  8  2  0  0  0  0
  2 10  1  0  0  0  0
  3  7  1  0  0  0  0
  4  3  1  0  0  0  0
  4  5  1  0  0  0  0
  5  2  2  0  0  0  0
  6  9  1  0  0  0  0
  7  1  1  0  0  0  0
  7 10  2  0  0  0  0
  8 24  1  0  0  0  0
  8  9  1  0  0  0  0
 10  6  1  0  0  0  0
 11  4  2  0  0  0  0
 12 17  1  0  0  0  0
 13 14  1  0  0  0  0
 14 17  1  0  0  0  0
 15  6  1  6  0  0  0
 15 16  1  0  0  0  0
 15 12  1  0  0  0  0
 16 13  1  0  0  0  0
 17 18  1  6  0  0  0
 18 19  1  0  0  0  0
 19 20  1  0  0  0  0
 21 22  1  0  0  0  0
 21  5  1  0  0  0  0
 24 23  1  6  0  0  0
 24 25  1  0  0  0  0
 25 26  2  0  0  0  0
 25 27  1  0  0  0  0
 27 28  1  0  0  0  0
 28 29  1  0  0  0  0
M  END
>  <MODEL>
3

>  <REMARK>
 VINA RESULT:      -7.9      2.045      5.846
  Name = 
  8 active torsions:
  status: ('A' for Active; 'I' for Inactive)
    1  A    between atoms: C_1  and  C_5
    2  A    between atoms: C_1  and  C_25
    3  A    between atoms: C_6  and  C_15
    4  A    between atoms: O_9  and  C_10
    5  A    between atoms: O_9  and  C_16
    6  A    between atoms: C_10  and  C_18
    7  A    between atoms: C_14  and  N_19
    8  A    between atoms: C_18  and  C_21
                            x       y       z     vdW  Elec       q    Type
                         _______ _______ _______ _____ _____    ______ ____

>  <TORSDO>
F 8

$$$$
=
 OpenBabel10222421073D

 29 31  0  0  1  0  0  0  0  0999 V2000
  189.0560  177.9670  139.5930 C   0  0  0  0  0  3  0  0  0  0  0  0
  187.0980  177.7010  142.7940 C   0  0  0  0  0  3  0  0  0  0  0  0
  186.8250  178.7480  140.2520 N   0  0  0  0  0  2  0  0  0  0  0  0
  185.8050  178.8940  141.1400 C   0  0  0  0  0  0  0  0  0  0  0  0
  185.9230  178.3640  142.4350 C   0  0  0  0  0  0  0  0  0  0  0  0
  189.3620  176.8860  142.1960 N   0  0  0  0  0  0  0  0  0  0  0  0
  187.9750  178.0990  140.5810 C   0  0  0  0  0  0  0  0  0  0  0  0
  190.1940  177.3430  139.9080 C   0  0  0  0  0  0  0  0  0  0  0  0
  190.3730  176.7910  141.2210 N   0  0  0  0  0  2  0  0  0  0  0  0
  188.1350  177.5600  141.8660 C   0  0  0  0  0  0  0  0  0  0  0  0
  184.7610  179.5050  140.7890 O   0  0  0  0  0  0  0  0  0  0  0  0
  188.6250  176.8840  144.5660 C   0  0  0  0  0  2  0  0  0  0  0  0
  191.5220  177.6110  144.4120 C   0  0  0  0  0  2  0  0  0  0  0  0
  190.4550  178.5360  144.8270 N   0  0  0  0  0  2  0  0  0  0  0  0
  189.5430  176.2610  143.5070 C   0  0  2  0  0  3  0  0  0  0  0  0
  191.0140  176.2450  143.9260 C   0  0  0  0  0  2  0  0  0  0  0  0
  189.3430  177.8580  145.5060 C   0  0  2  0  0  3  0  0  0  0  0  0
  189.7840  177.1670  146.7950 C   0  0  0  0  0  2  0  0  0  0  0  0
  189.2230  177.8750  148.0180 C   0  0  0  0  0  2  0  0  0  0  0  0
  187.7250  178.0820  147.8800 C   0  0  0  0  0  1  0  0  0  0  0  0
  184.8400  178.5330  143.4480 C   0  0  0  0  0  2  0  0  0  0  0  0
  185.4190  178.6040  144.7770 N   0  0  0  0  0  1  0  0  0  0  0  0
  192.6320  177.0740  139.5520 C   0  0  0  0  0  1  0  0  0  0  0  0
  191.2770  177.2290  138.8840 C   0  0  1  0  0  3  0  0  0  0  0  0
  191.0140  176.1010  137.9400 C   0  0  0  0  0  0  0  0  0  0  0  0
  190.9810  174.9220  138.3840 O   0  0  0  0  0  0  0  0  0  0  0  0
  190.8430  176.3550  136.5770 O   0  0  0  0  0  0  0  0  0  0  0  0
  189.6990  177.0340  136.0820 C   0  0  0  0  0  2  0  0  0  0  0  0
  188.4690  176.1820  136.3090 C   0  0  0  0  0  1  0  0  0  0  0  0
  1  8  2  0  0  0  0
  1  7  1  0  0  0  0
  3  7  1  0  0  0  0
  3  4  1  0  0  0  0
  4  5  1  0  0  0  0
  5  2  2  0  0  0  0
  5 21  1  0  0  0  0
  7 10  2  0  0  0  0
  8  9  1  0  0  0  0
  9  6  1  0  0  0  0
 10  6  1  0  0  0  0
 10  2  1  0  0  0  0
 11  4  2  0  0  0  0
 12 17  1  0  0  0  0
 13 14  1  0  0  0  0
 14 17  1  0  0  0  0
 15  6  1  6  0  0  0
 15 16  1  0  0  0  0
 15 12  1  0  0  0  0
 16 13  1  0  0  0  0
 17 18  1  1  0  0  0
 18 19  1  0  0  0  0
 20 19  1  0  0  0  0
 21 22  1  0  0  0  0
 24 23  1  1  0  0  0
 24  8  1  0  0  0  0
 25 26  2  0  0  0  0
 25 24  1  0  0  0  0
 27 25  1  0  0  0  0
 28 29  1  0  0  0  0
 28 27  1  0  0  0  0
M  END
>  <MODEL>
4

>  <REMARK>
 VINA RESULT:      -7.9      2.067      2.923
  Name = 
  8 active torsions:
  status: ('A' for Active; 'I' for Inactive)
    1  A    between atoms: C_1  and  C_5
    2  A    between atoms: C_1  and  C_25
    3  A    between atoms: C_6  and  C_15
    4  A    between atoms: O_9  and  C_10
    5  A    between atoms: O_9  and  C_16
    6  A    between atoms: C_10  and  C_18
    7  A    between atoms: C_14  and  N_19
    8  A    between atoms: C_18  and  C_21
                            x       y       z     vdW  Elec       q    Type
                         _______ _______ _______ _____ _____    ______ ____

>  <TORSDO>
F 8

$$$$
=
 OpenBabel10222421073D

 29 31  0  0  1  0  0  0  0  0999 V2000
  186.6330  178.4310  146.4700 C   0  0  0  0  0  3  0  0  0  0  0  0
  185.2340  177.9680  143.0090 C   0  0  0  0  0  3  0  0  0  0  0  0
  184.4650  178.9810  145.4620 N   0  0  0  0  0  2  0  0  0  0  0  0
  183.5850  179.0210  144.4250 C   0  0  0  0  0  0  0  0  0  0  0  0
  183.9600  178.5150  143.1690 C   0  0  0  0  0  0  0  0  0  0  0  0
  187.4460  177.3830  143.9650 N   0  0  0  0  0  0  0  0  0  0  0  0
  185.7140  178.4590  145.3230 C   0  0  0  0  0  0  0  0  0  0  0  0
  187.8560  177.9100  146.3510 C   0  0  0  0  0  0  0  0  0  0  0  0
  188.2890  177.3690  145.0930 N   0  0  0  0  0  2  0  0  0  0  0  0
  186.1260  177.9390  144.0870 C   0  0  0  0  0  0  0  0  0  0  0  0
  182.4390  179.5120  144.6030 O   0  0  0  0  0  0  0  0  0  0  0  0
  189.2980  176.1990  142.8110 C   0  0  0  0  0  2  0  0  0  0  0  0
  189.0580  178.9810  141.7410 C   0  0  0  0  0  2  0  0  0  0  0  0
  190.1970  178.4930  142.5370 N   0  0  0  0  0  2  0  0  0  0  0  0
  187.9310  176.8820  142.6780 C   0  0  2  0  0  3  0  0  0  0  0  0
  187.9090  177.9710  141.6050 C   0  0  0  0  0  2  0  0  0  0  0  0
  190.4670  177.0650  142.3300 C   0  0  2  0  0  3  0  0  0  0  0  0
  190.8370  176.7460  140.8830 C   0  0  0  0  0  2  0  0  0  0  0  0
  192.0870  177.5000  140.4560 C   0  0  0  0  0  2  0  0  0  0  0  0
  192.5690  177.0170  139.1010 C   0  0  0  0  0  1  0  0  0  0  0  0
  183.0120  178.5090  142.0170 C   0  0  0  0  0  2  0  0  0  0  0  0
  183.7300  178.2030  140.7930 N   0  0  0  0  0  1  0  0  0  0  0  0
  187.9690  177.7730  148.8240 C   0  0  0  0  0  1  0  0  0  0  0  0
  188.7670  177.8910  147.5360 C   0  0  1  0  0  3  0  0  0  0  0  0
  189.7740  176.7930  147.4280 C   0  0  0  0  0  0  0  0  0  0  0  0
  189.4340  175.6150  147.7180 O   0  0  0  0  0  0  0  0  0  0  0  0
  191.0860  177.0820  147.0440 O   0  0  0  0  0  0  0  0  0  0  0  0
  192.0320  176.0550  146.7900 C   0  0  0  0  0  2  0  0  0  0  0  0
  192.6760  175.6300  148.0930 C   0  0  0  0  0  1  0  0  0  0  0  0
  2  5  2  0  0  0  0
  2 10  1  0  0  0  0
  4 11  2  0  0  0  0
  4  3  1  0  0  0  0
  5  4  1  0  0  0  0
  6 10  1  0  0  0  0
  6  9  1  0  0  0  0
  7  3  1  0  0  0  0
  7  1  1  0  0  0  0
  8  1  2  0  0  0  0
  8 24  1  0  0  0  0
  9  8  1  0  0  0  0
 10  7  2  0  0  0  0
 13 14  1  0  0  0  0
 15 16  1  6  0  0  0
 15 12  1  0  0  0  0
 15  6  1  0  0  0  0
 16 13  1  0  0  0  0
 17 18  1  6  0  0  0
 17 14  1  0  0  0  0
 17 12  1  0  0  0  0
 19 18  1  0  0  0  0
 20 19  1  0  0  0  0
 21  5  1  0  0  0  0
 22 21  1  0  0  0  0
 24 23  1  1  0  0  0
 25 24  1  0  0  0  0
 25 26  2  0  0  0  0
 27 25  1  0  0  0  0
 28 27  1  0  0  0  0
 28 29  1  0  0  0  0
M  END
>  <MODEL>
5

>  <REMARK>
 VINA RESULT:      -7.3      3.066      6.345
  Name = 
  8 active torsions:
  status: ('A' for Active; 'I' for Inactive)
    1  A    between atoms: C_1  and  C_5
    2  A    between atoms: C_1  and  C_25
    3  A    between atoms: C_6  and  C_15
    4  A    between atoms: O_9  and  C_10
    5  A    between atoms: O_9  and  C_16
    6  A    between atoms: C_10  and  C_18
    7  A    between atoms: C_14  and  N_19
    8  A    between atoms: C_18  and  C_21
                            x       y       z     vdW  Elec       q    Type
                         _______ _______ _______ _____ _____    ______ ____

>  <TORSDO>
F 8

$$$$
=
 OpenBabel10222421073D

 29 31  0  0  1  0  0  0  0  0999 V2000
  190.4490  177.7570  144.9440 C   0  0  0  0  0  3  0  0  0  0  0  0
  188.1360  177.4930  141.9900 C   0  0  0  0  0  3  0  0  0  0  0  0
  190.8420  177.6400  142.5250 N   0  0  0  0  0  2  0  0  0  0  0  0
  190.4280  177.5510  141.2320 C   0  0  0  0  0  0  0  0  0  0  0  0
  189.0570  177.4710  140.9410 C   0  0  0  0  0  0  0  0  0  0  0  0
  187.6670  177.6100  144.4220 N   0  0  0  0  0  0  0  0  0  0  0  0
  189.9610  177.6560  143.5610 C   0  0  0  0  0  0  0  0  0  0  0  0
  189.5940  177.7860  145.9690 C   0  0  0  0  0  0  0  0  0  0  0  0
  188.1800  177.7170  145.7280 N   0  0  0  0  0  2  0  0  0  0  0  0
  188.5820  177.5820  143.3130 C   0  0  0  0  0  0  0  0  0  0  0  0
  191.2830  177.5430  140.3070 O   0  0  0  0  0  0  0  0  0  0  0  0
  185.6430  178.7010  143.4860 C   0  0  0  0  0  2  0  0  0  0  0  0
  185.3240  178.3500  146.4390 C   0  0  0  0  0  2  0  0  0  0  0  0
  185.4630  179.6530  145.7680 N   0  0  0  0  0  2  0  0  0  0  0  0
  186.2250  177.4790  144.2060 C   0  0  2  0  0  3  0  0  0  0  0  0
  185.4880  177.1420  145.5030 C   0  0  0  0  0  2  0  0  0  0  0  0
  184.8940  179.6620  144.4150 C   0  0  2  0  0  3  0  0  0  0  0  0
  183.3930  179.3810  144.4130 C   0  0  0  0  0  2  0  0  0  0  0  0
  182.9380  178.8290  143.0710 C   0  0  0  0  0  2  0  0  0  0  0  0
  181.4500  179.0520  142.8740 C   0  0  0  0  0  1  0  0  0  0  0  0
  188.5610  177.4070  139.5340 C   0  0  0  0  0  2  0  0  0  0  0  0
  188.4190  178.7500  139.0030 N   0  0  0  0  0  1  0  0  0  0  0  0
  188.9800  177.9430  148.3660 C   0  0  0  0  0  1  0  0  0  0  0  0
  190.1210  177.8950  147.3640 C   0  0  1  0  0  3  0  0  0  0  0  0
  191.0610  176.7770  147.6760 C   0  0  0  0  0  0  0  0  0  0  0  0
  190.6700  175.5870  147.5380 O   0  0  0  0  0  0  0  0  0  0  0  0
  192.3450  177.0540  148.1520 O   0  0  0  0  0  0  0  0  0  0  0  0
  193.0550  176.1310  148.9630 C   0  0  0  0  0  2  0  0  0  0  0  0
  193.8070  176.8820  150.0410 C   0  0  0  0  0  1  0  0  0  0  0  0
  1  8  2  0  0  0  0
  2 10  1  0  0  0  0
  3  7  1  0  0  0  0
  4  3  1  0  0  0  0
  5  4  1  0  0  0  0
  5  2  2  0  0  0  0
  6  9  1  0  0  0  0
  7  1  1  0  0  0  0
  8 24  1  0  0  0  0
  9  8  1  0  0  0  0
 10  7  2  0  0  0  0
 10  6  1  0  0  0  0
 11  4  2  0  0  0  0
 12 17  1  0  0  0  0
 14 13  1  0  0  0  0
 15 12  1  1  0  0  0
 15  6  1  0  0  0  0
 15 16  1  0  0  0  0
 16 13  1  0  0  0  0
 17 18  1  1  0  0  0
 17 14  1  0  0  0  0
 19 18  1  0  0  0  0
 20 19  1  0  0  0  0
 21  5  1  0  0  0  0
 22 21  1  0  0  0  0
 24 25  1  0  0  0  0
 24 23  1  1  0  0  0
 25 27  1  0  0  0  0
 26 25  2  0  0  0  0
 27 28  1  0  0  0  0
 28 29  1  0  0  0  0
M  END
>  <MODEL>
6

>  <REMARK>
 VINA RESULT:      -7.1      3.110      8.111
  Name = 
  8 active torsions:
  status: ('A' for Active; 'I' for Inactive)
    1  A    between atoms: C_1  and  C_5
    2  A    between atoms: C_1  and  C_25
    3  A    between atoms: C_6  and  C_15
    4  A    between atoms: O_9  and  C_10
    5  A    between atoms: O_9  and  C_16
    6  A    between atoms: C_10  and  C_18
    7  A    between atoms: C_14  and  N_19
    8  A    between atoms: C_18  and  C_21
                            x       y       z     vdW  Elec       q    Type
                         _______ _______ _______ _____ _____    ______ ____

>  <TORSDO>
F 8

$$$$
=
 OpenBabel10222421073D

 29 31  0  0  1  0  0  0  0  0999 V2000
  185.9290  178.4960  139.7350 C   0  0  0  0  0  3  0  0  0  0  0  0
  185.5880  178.5100  143.4810 C   0  0  0  0  0  3  0  0  0  0  0  0
  184.0020  178.7520  141.2320 N   0  0  0  0  0  2  0  0  0  0  0  0
  183.4220  178.8230  142.4610 C   0  0  0  0  0  0  0  0  0  0  0  0
  184.2120  178.6980  143.6150 C   0  0  0  0  0  0  0  0  0  0  0  0
  187.5790  178.2480  142.0260 N   0  0  0  0  0  0  0  0  0  0  0  0
  185.3410  178.5620  141.0800 C   0  0  0  0  0  0  0  0  0  0  0  0
  187.2430  178.3230  139.5730 C   0  0  0  0  0  0  0  0  0  0  0  0
  188.0990  178.1990  140.7190 N   0  0  0  0  0  2  0  0  0  0  0  0
  186.1660  178.4380  142.2080 C   0  0  0  0  0  0  0  0  0  0  0  0
  182.1780  179.0020  142.5500 O   0  0  0  0  0  0  0  0  0  0  0  0
  189.8940  178.5210  142.8790 C   0  0  0  0  0  2  0  0  0  0  0  0
  189.1710  175.6190  142.8400 C   0  0  0  0  0  2  0  0  0  0  0  0
  190.1840  176.2340  141.9660 N   0  0  0  0  0  2  0  0  0  0  0  0
  188.4630  178.0570  143.1770 C   0  0  2  0  0  3  0  0  0  0  0  0
  188.3980  176.6240  143.7080 C   0  0  0  0  0  2  0  0  0  0  0  0
  190.8670  177.3710  142.5960 C   0  0  2  0  0  3  0  0  0  0  0  0
  191.6310  176.9660  143.8550 C   0  0  0  0  0  2  0  0  0  0  0  0
  191.3240  177.9050  145.0110 C   0  0  0  0  0  2  0  0  0  0  0  0
  190.9900  177.1220  146.2670 C   0  0  0  0  0  1  0  0  0  0  0  0
  183.6180  178.8040  144.9810 C   0  0  0  0  0  2  0  0  0  0  0  0
  184.6720  178.9990  145.9600 N   0  0  0  0  0  1  0  0  0  0  0  0
  189.1510  178.9800  138.1330 C   0  0  0  0  0  1  0  0  0  0  0  0
  187.8120  178.2650  138.1920 C   0  0  1  0  0  3  0  0  0  0  0  0
  187.9380  176.8540  137.7170 C   0  0  0  0  0  0  0  0  0  0  0  0
  188.8150  176.1080  138.2300 O   0  0  0  0  0  0  0  0  0  0  0  0
  187.1140  176.3840  136.6920 O   0  0  0  0  0  0  0  0  0  0  0  0
  185.8040  175.9010  136.9480 C   0  0  0  0  0  2  0  0  0  0  0  0
  184.7890  176.8920  136.4180 C   0  0  0  0  0  1  0  0  0  0  0  0
  1  7  1  0  0  0  0
  2  5  2  0  0  0  0
  3  4  1  0  0  0  0
  4 11  2  0  0  0  0
  4  5  1  0  0  0  0
  5 21  1  0  0  0  0
  6 10  1  0  0  0  0
  7  3  1  0  0  0  0
  7 10  2  0  0  0  0
  8  1  2  0  0  0  0
  8  9  1  0  0  0  0
  9  6  1  0  0  0  0
 10  2  1  0  0  0  0
 12 15  1  0  0  0  0
 13 16  1  0  0  0  0
 14 17  1  0  0  0  0
 14 13  1  0  0  0  0
 15  6  1  6  0  0  0
 15 16  1  0  0  0  0
 17 12  1  0  0  0  0
 17 18  1  1  0  0  0
 18 19  1  0  0  0  0
 19 20  1  0  0  0  0
 21 22  1  0  0  0  0
 24 23  1  1  0  0  0
 24  8  1  0  0  0  0
 25 24  1  0  0  0  0
 25 26  2  0  0  0  0
 27 28  1  0  0  0  0
 27 25  1  0  0  0  0
 29 28  1  0  0  0  0
M  END
>  <MODEL>
7

>  <REMARK>
 VINA RESULT:      -7.1      1.484      1.857
  Name = 
  8 active torsions:
  status: ('A' for Active; 'I' for Inactive)
    1  A    between atoms: C_1  and  C_5
    2  A    between atoms: C_1  and  C_25
    3  A    between atoms: C_6  and  C_15
    4  A    between atoms: O_9  and  C_10
    5  A    between atoms: O_9  and  C_16
    6  A    between atoms: C_10  and  C_18
    7  A    between atoms: C_14  and  N_19
    8  A    between atoms: C_18  and  C_21
                            x       y       z     vdW  Elec       q    Type
                         _______ _______ _______ _____ _____    ______ ____

>  <TORSDO>
F 8

$$$$
=
 OpenBabel10222421073D

 29 31  0  0  1  0  0  0  0  0999 V2000
  188.7310  177.9330  141.1190 C   0  0  0  0  0  3  0  0  0  0  0  0
  185.8210  178.2270  143.4850 C   0  0  0  0  0  3  0  0  0  0  0  0
  188.5050  177.5740  143.5360 N   0  0  0  0  0  2  0  0  0  0  0  0
  187.7950  177.5450  144.6970 C   0  0  0  0  0  0  0  0  0  0  0  0
  186.4310  177.8780  144.6910 C   0  0  0  0  0  0  0  0  0  0  0  0
  185.9780  178.6040  141.0390 N   0  0  0  0  0  0  0  0  0  0  0  0
  187.9300  177.9180  142.3520 C   0  0  0  0  0  0  0  0  0  0  0  0
  188.1750  178.2570  139.9490 C   0  0  0  0  0  0  0  0  0  0  0  0
  186.7820  178.5960  139.8840 N   0  0  0  0  0  2  0  0  0  0  0  0
  186.5680  178.2530  142.3020 C   0  0  0  0  0  0  0  0  0  0  0  0
  188.3720  177.2180  145.7680 O   0  0  0  0  0  0  0  0  0  0  0  0
  183.6270  177.8890  141.3900 C   0  0  0  0  0  2  0  0  0  0  0  0
  184.0710  178.5090  138.4980 C   0  0  0  0  0  2  0  0  0  0  0  0
  183.8080  177.1600  139.0270 N   0  0  0  0  0  2  0  0  0  0  0  0
  184.5750  179.0140  140.9570 C   0  0  2  0  0  3  0  0  0  0  0  0
  184.2340  179.5870  139.5810 C   0  0  0  0  0  2  0  0  0  0  0  0
  182.9490  177.1710  140.2180 C   0  0  2  0  0  3  0  0  0  0  0  0
  181.5670  177.7550  139.9330 C   0  0  0  0  0  2  0  0  0  0  0  0
  180.9530  178.3540  141.1880 C   0  0  0  0  0  2  0  0  0  0  0  0
  180.4300  179.7520  140.9170 C   0  0  0  0  0  1  0  0  0  0  0  0
  185.6110  177.8250  145.9370 C   0  0  0  0  0  2  0  0  0  0  0  0
  185.4910  179.1570  146.5020 N   0  0  0  0  0  1  0  0  0  0  0  0
  189.9850  177.0900  138.7210 C   0  0  0  0  0  1  0  0  0  0  0  0
  189.0140  178.2580  138.7120 C   0  0  1  0  0  3  0  0  0  0  0  0
  188.1660  178.2390  137.4820 C   0  0  0  0  0  0  0  0  0  0  0  0
  187.6570  179.3160  137.0690 O   0  0  0  0  0  0  0  0  0  0  0  0
  187.9140  177.0330  136.8240 O   0  0  0  0  0  0  0  0  0  0  0  0
  186.6840  176.3420  136.9770 C   0  0  0  0  0  2  0  0  0  0  0  0
  185.8070  176.6000  135.7700 C   0  0  0  0  0  1  0  0  0  0  0  0
  1  7  1  0  0  0  0
  2  5  2  0  0  0  0
  3  4  1  0  0  0  0
  4 11  2  0  0  0  0
  5  4  1  0  0  0  0
  5 21  1  0  0  0  0
  6 10  1  0  0  0  0
  7  3  1  0  0  0  0
  8  1  2  0  0  0  0
  9  8  1  0  0  0  0
  9  6  1  0  0  0  0
 10  7  2  0  0  0  0
 10  2  1  0  0  0  0
 13 14  1  0  0  0  0
 13 16  1  0  0  0  0
 14 17  1  0  0  0  0
 15 16  1  6  0  0  0
 15  6  1  0  0  0  0
 15 12  1  0  0  0  0
 17 18  1  6  0  0  0
 17 12  1  0  0  0  0
 18 19  1  0  0  0  0
 20 19  1  0  0  0  0
 21 22  1  0  0  0  0
 24 23  1  1  0  0  0
 24  8  1  0  0  0  0
 25 24  1  0  0  0  0
 26 25  2  0  0  0  0
 27 28  1  0  0  0  0
 27 25  1  0  0  0  0
 29 28  1  0  0  0  0
M  END
>  <MODEL>
8

>  <REMARK>
 VINA RESULT:      -7.1      2.482      5.853
  Name = 
  8 active torsions:
  status: ('A' for Active; 'I' for Inactive)
    1  A    between atoms: C_1  and  C_5
    2  A    between atoms: C_1  and  C_25
    3  A    between atoms: C_6  and  C_15
    4  A    between atoms: O_9  and  C_10
    5  A    between atoms: O_9  and  C_16
    6  A    between atoms: C_10  and  C_18
    7  A    between atoms: C_14  and  N_19
    8  A    between atoms: C_18  and  C_21
                            x       y       z     vdW  Elec       q    Type
                         _______ _______ _______ _____ _____    ______ ____

>  <TORSDO>
F 8

$$$$
=
 OpenBabel10222421073D

 29 31  0  0  1  0  0  0  0  0999 V2000
  189.9340  175.8370  137.5740 C   0  0  0  0  0  3  0  0  0  0  0  0
  187.5970  178.0200  139.5550 C   0  0  0  0  0  3  0  0  0  0  0  0
  187.6820  176.7040  137.1280 N   0  0  0  0  0  2  0  0  0  0  0  0
  186.5720  177.4190  137.4530 C   0  0  0  0  0  0  0  0  0  0  0  0
  186.5080  178.0910  138.6850 C   0  0  0  0  0  0  0  0  0  0  0  0
  189.8730  177.1810  140.0690 N   0  0  0  0  0  0  0  0  0  0  0  0
  188.7510  176.6170  137.9650 C   0  0  0  0  0  0  0  0  0  0  0  0
  190.9940  175.7550  138.3810 C   0  0  0  0  0  0  0  0  0  0  0  0
  190.9870  176.4300  139.6490 N   0  0  0  0  0  2  0  0  0  0  0  0
  188.7300  177.2770  139.2030 C   0  0  0  0  0  0  0  0  0  0  0  0
  185.6090  177.4720  136.6430 O   0  0  0  0  0  0  0  0  0  0  0  0
  191.2390  177.7240  142.0700 C   0  0  0  0  0  2  0  0  0  0  0  0
  189.0180  175.8730  142.8380 C   0  0  0  0  0  2  0  0  0  0  0  0
  190.4450  175.5070  142.8470 N   0  0  0  0  0  2  0  0  0  0  0  0
  189.8660  177.8080  141.3920 C   0  0  2  0  0  3  0  0  0  0  0  0
  188.7330  177.2710  142.2660 C   0  0  0  0  0  2  0  0  0  0  0  0
  191.3230  176.6430  143.1530 C   0  0  2  0  0  3  0  0  0  0  0  0
  191.0600  177.2250  144.5410 C   0  0  0  0  0  2  0  0  0  0  0  0
  191.7150  176.3820  145.6240 C   0  0  0  0  0  2  0  0  0  0  0  0
  191.0460  176.6160  146.9660 C   0  0  0  0  0  1  0  0  0  0  0  0
  185.3220  178.9140  139.0640 C   0  0  0  0  0  2  0  0  0  0  0  0
  185.4170  179.2960  140.4610 N   0  0  0  0  0  1  0  0  0  0  0  0
  191.9620  174.3600  136.5750 C   0  0  0  0  0  1  0  0  0  0  0  0
  192.1840  174.9580  137.9530 C   0  0  1  0  0  3  0  0  0  0  0  0
  193.4280  175.7850  137.9840 C   0  0  0  0  0  0  0  0  0  0  0  0
  193.4730  176.8540  137.3170 O   0  0  0  0  0  0  0  0  0  0  0  0
  194.5380  175.3550  138.7150 O   0  0  0  0  0  0  0  0  0  0  0  0
  195.5350  174.5260  138.1400 C   0  0  0  0  0  2  0  0  0  0  0  0
  195.2170  173.0750  138.4350 C   0  0  0  0  0  1  0  0  0  0  0  0
  1  7  1  0  0  0  0
  1  8  2  0  0  0  0
  3  4  1  0  0  0  0
  3  7  1  0  0  0  0
  4  5  1  0  0  0  0
  5 21  1  0  0  0  0
  5  2  2  0  0  0  0
  7 10  2  0  0  0  0
  8  9  1  0  0  0  0
  9  6  1  0  0  0  0
 10  2  1  0  0  0  0
 10  6  1  0  0  0  0
 11  4  2  0  0  0  0
 12 17  1  0  0  0  0
 13 14  1  0  0  0  0
 14 17  1  0  0  0  0
 15  6  1  6  0  0  0
 15 12  1  0  0  0  0
 15 16  1  0  0  0  0
 16 13  1  0  0  0  0
 17 18  1  1  0  0  0
 18 19  1  0  0  0  0
 19 20  1  0  0  0  0
 21 22  1  0  0  0  0
 24 23  1  6  0  0  0
 24 25  1  0  0  0  0
 24  8  1  0  0  0  0
 25 27  1  0  0  0  0
 26 25  2  0  0  0  0
 28 29  1  0  0  0  0
 28 27  1  0  0  0  0
M  END
>  <MODEL>
9

>  <REMARK>
 VINA RESULT:      -7.0      3.239      5.690
  Name = 
  8 active torsions:
  status: ('A' for Active; 'I' for Inactive)
    1  A    between atoms: C_1  and  C_5
    2  A    between atoms: C_1  and  C_25
    3  A    between atoms: C_6  and  C_15
    4  A    between atoms: O_9  and  C_10
    5  A    between atoms: O_9  and  C_16
    6  A    between atoms: C_10  and  C_18
    7  A    between atoms: C_14  and  N_19
    8  A    between atoms: C_18  and  C_21
                            x       y       z     vdW  Elec       q    Type
                         _______ _______ _______ _____ _____    ______ ____

>  <TORSDO>
F 8

$$$$
