=
 OpenBabel10222415543D

 29 32  0  0  1  0  0  0  0  0999 V2000
  189.9170  177.6970  142.2910 N   0  0  0  0  0  0  0  0  0  0  0  0
  187.6650  178.2680  141.5700 C   0  0  0  0  0  3  0  0  0  0  0  0
  188.8440  178.6310  142.0630 C   0  0  0  0  0  2  0  0  0  0  0  0
  186.6470  179.2440  141.3690 N   0  0  0  0  0  0  0  0  0  0  0  0
  184.8720  179.6600  139.9150 O   0  0  0  0  0  1  0  0  0  0  0  0
  185.3120  178.8460  140.9590 C   0  0  2  0  0  3  0  0  0  0  0  0
  184.3760  178.9530  142.1150 C   0  0  0  0  0  0  0  0  0  0  0  0
  184.8000  179.5610  143.2890 O   0  0  0  0  0  1  0  0  0  0  0  0
  183.2010  178.5090  142.0280 O   0  0  0  0  0  0  0  0  0  0  0  0
  191.1230  177.7390  141.5040 C   0  0  0  0  0  3  0  0  0  0  0  0
  191.2610  177.3070  140.2440 C   0  0  0  0  0  3  0  0  0  0  0  0
  190.1700  176.7350  139.4040 C   0  0  0  0  0  2  0  0  0  0  0  0
  189.0580  179.0770  137.2460 C   0  0  2  0  0  3  0  0  0  0  0  0
  189.6260  177.8110  137.1050 N   0  0  0  0  0  2  0  0  0  0  0  0
  189.6920  177.7610  138.4380 C   0  0  1  0  0  0  0  0  0  0  0  0
  189.0950  179.0650  138.5940 O   0  0  0  0  0  0  0  0  0  0  0  0
  189.7870  176.6000  143.2170 C   0  0  0  0  0  0  0  0  0  0  0  0
  189.5150  175.3810  142.7520 C   0  0  0  0  0  2  0  0  0  0  0  0
  188.0660  177.9210  147.7050 C   0  0  0  0  0  0  0  0  0  0  0  0
  190.3560  177.2910  147.3710 N   0  0  0  0  0  0  0  0  0  0  0  0
  186.5720  177.8770  145.8130 C   0  0  0  0  0  3  0  0  0  0  0  0
  186.7910  178.1100  147.1710 C   0  0  0  0  0  3  0  0  0  0  0  0
  191.1440  176.6580  145.2450 N   0  0  0  0  0  0  0  0  0  0  0  0
  191.3660  176.8710  146.5680 C   0  0  0  0  0  3  0  0  0  0  0  0
  188.2880  178.1510  149.0930 N   0  0  0  0  0  1  0  0  0  0  0  0
  187.5970  177.4710  145.0150 N   0  0  0  0  0  0  0  0  0  0  0  0
  188.8560  177.2830  145.5010 C   0  0  0  0  0  0  0  0  0  0  0  0
  189.1110  177.5000  146.8720 C   0  0  0  0  0  0  0  0  0  0  0  0
  189.9210  176.8550  144.6780 C   0  0  0  0  0  0  0  0  0  0  0  0
  1 17  1  0  0  0  0
  2  3  1  0  0  0  0
  3  1  1  0  0  0  0
  4  2  2  0  0  0  0
  6  5  1  6  0  0  0
  6  4  1  0  0  0  0
  6  7  1  0  0  0  0
  7  8  1  0  0  0  0
  9  7  2  0  0  0  0
 10  1  1  0  0  0  0
 11 10  2  0  0  0  0
 12 11  1  0  0  0  0
 13 14  1  1  0  0  0
 13 15  1  0  0  0  0
 13 16  1  0  0  0  0
 14 15  1  0  0  0  0
 15 16  1  0  0  0  0
 15 12  1  6  0  0  0
 17 29  1  0  0  0  0
 18 17  2  0  0  0  0
 19 25  1  0  0  0  0
 21 22  2  0  0  0  0
 22 19  1  0  0  0  0
 23 24  1  0  0  0  0
 24 20  2  0  0  0  0
 26 27  2  0  0  0  0
 26 21  1  0  0  0  0
 27 28  1  0  0  0  0
 28 20  1  0  0  0  0
 28 19  2  0  0  0  0
 29 23  2  0  0  0  0
 29 27  1  0  0  0  0
M  END
>  <MODEL>
1

>  <REMARK>
 VINA RESULT:      -7.5      0.000      0.000
  Name = 
  9 active torsions:
  status: ('A' for Active; 'I' for Inactive)
    1  A    between atoms: C_1  and  N_17
    2  A    between atoms: N_2  and  C_9
    3  A    between atoms: N_2  and  C_24
    4  A    between atoms: N_2  and  C_28
    5  A    between atoms: C_4  and  C_25
    6  A    between atoms: C_10  and  C_12
    7  A    between atoms: C_10  and  C_23
    8  A    between atoms: N_17  and  C_25
    9  A    between atoms: C_24  and  C_26
                            x       y       z     vdW  Elec       q    Type
                         _______ _______ _______ _____ _____    ______ ____

>  <TORSDO>
F 9

$$$$
=
 OpenBabel10222415543D

 29 31  0  0  1  0  0  0  0  0999 V2000
  189.4510  177.9390  142.1950 N   0  0  0  0  0  0  0  0  0  0  0  0
  189.1890  178.0660  139.7800 C   0  0  0  0  0  3  0  0  0  0  0  0
  189.8910  177.6960  140.8450 C   0  0  0  0  0  2  0  0  0  0  0  0
  189.6820  177.7920  138.4730 N   0  0  0  0  0  0  0  0  0  0  0  0
  189.0630  179.7140  137.3060 O   0  0  0  0  0  1  0  0  0  0  0  0
  189.0050  178.3200  137.3010 C   0  0  2  0  0  3  0  0  0  0  0  0
  187.5830  177.8710  137.2960 C   0  0  0  0  0  0  0  0  0  0  0  0
  187.2870  176.5270  137.1190 O   0  0  0  0  0  0  0  0  0  0  0  0
  186.6510  178.7020  137.4640 O   0  0  0  0  0  1  0  0  0  0  0  0
  190.1050  178.9160  143.0290 C   0  0  0  0  0  3  0  0  0  0  0  0
  191.0700  178.6740  143.9240 C   0  0  0  0  0  3  0  0  0  0  0  0
  191.6800  177.3400  144.1960 C   0  0  0  0  0  2  0  0  0  0  0  0
  191.0180  176.4660  147.3870 C   0  0  0  0  0  2  0  0  0  0  0  0
  192.1240  176.3340  146.5470 N   0  0  0  0  0  0  0  0  0  0  0  0
  191.4020  176.9400  145.6020 C   0  0  0  0  0  0  0  0  0  0  0  0
  190.2570  177.0920  146.4670 O   0  0  0  0  0  0  0  0  0  0  0  0
  188.4330  177.1340  142.8200 C   0  0  0  0  0  0  0  0  0  0  0  0
  188.7230  175.8870  143.1940 C   0  0  0  0  0  2  0  0  0  0  0  0
  184.5660  178.6900  145.5540 C   0  0  0  0  0  0  0  0  0  0  0  0
  184.5100  178.7300  143.1560 N   0  0  0  0  0  0  0  0  0  0  0  0
  186.5660  177.9010  146.6450 C   0  0  0  0  0  3  0  0  0  0  0  0
  185.2700  178.4130  146.7260 C   0  0  0  0  0  3  0  0  0  0  0  0
  186.3520  178.0030  141.8860 N   0  0  0  0  0  0  0  0  0  0  0  0
  185.0950  178.5120  141.9520 C   0  0  0  0  0  3  0  0  0  0  0  0
  183.2460  179.2200  145.6350 N   0  0  0  0  0  1  0  0  0  0  0  0
  187.1360  177.6720  145.4320 N   0  0  0  0  0  0  0  0  0  0  0  0
  186.4750  177.9240  144.2670 C   0  0  0  0  0  0  0  0  0  0  0  0
  185.1670  178.4520  144.3110 C   0  0  0  0  0  0  0  0  0  0  0  0
  187.0660  177.6940  143.0040 C   0  0  0  0  0  0  0  0  0  0  0  0
  1 17  1  0  0  0  0
  1 10  1  0  0  0  0
  2  3  1  0  0  0  0
  3  1  1  0  0  0  0
  4  2  2  0  0  0  0
  6  5  1  1  0  0  0
  6  4  1  0  0  0  0
  7  6  1  0  0  0  0
  7  9  1  0  0  0  0
  8  7  2  0  0  0  0
 10 11  2  0  0  0  0
 11 12  1  0  0  0  0
 12 15  1  0  0  0  0
 14 13  1  0  0  0  0
 15 16  1  0  0  0  0
 15 14  2  0  0  0  0
 16 13  1  0  0  0  0
 17 29  1  0  0  0  0
 17 18  2  0  0  0  0
 19 25  1  0  0  0  0
 19 22  1  0  0  0  0
 20 28  1  0  0  0  0
 21 22  2  0  0  0  0
 23 24  1  0  0  0  0
 23 29  2  0  0  0  0
 24 20  2  0  0  0  0
 26 21  1  0  0  0  0
 27 28  1  0  0  0  0
 27 26  2  0  0  0  0
 28 19  2  0  0  0  0
 29 27  1  0  0  0  0
M  END
>  <MODEL>
2

>  <REMARK>
 VINA RESULT:      -7.5      2.273      5.380
  Name = 
  9 active torsions:
  status: ('A' for Active; 'I' for Inactive)
    1  A    between atoms: C_1  and  N_17
    2  A    between atoms: N_2  and  C_9
    3  A    between atoms: N_2  and  C_24
    4  A    between atoms: N_2  and  C_28
    5  A    between atoms: C_4  and  C_25
    6  A    between atoms: C_10  and  C_12
    7  A    between atoms: C_10  and  C_23
    8  A    between atoms: N_17  and  C_25
    9  A    between atoms: C_24  and  C_26
                            x       y       z     vdW  Elec       q    Type
                         _______ _______ _______ _____ _____    ______ ____

>  <TORSDO>
F 9

$$$$
=
 OpenBabel10222415543D

 29 32  0  0  1  0  0  0  0  0999 V2000
  189.5010  177.9440  142.6890 N   0  0  0  0  0  0  0  0  0  0  0  0
  188.5730  178.5700  140.5290 C   0  0  0  0  0  3  0  0  0  0  0  0
  189.5610  178.0580  141.2540 C   0  0  0  0  0  3  0  0  0  0  0  0
  188.6980  178.6520  139.1130 N   0  0  0  0  0  2  0  0  0  0  0  0
  189.0090  177.1590  137.3480 O   0  0  0  0  0  1  0  0  0  0  0  0
  188.0750  177.6570  138.2580 C   0  0  2  0  0  3  0  0  0  0  0  0
  186.9290  178.2680  137.5250 C   0  0  0  0  0  0  0  0  0  0  0  0
  185.8380  178.7530  138.2340 O   0  0  0  0  0  1  0  0  0  0  0  0
  186.9510  178.3600  136.2690 O   0  0  0  0  0  0  0  0  0  0  0  0
  190.3900  178.6980  143.5360 C   0  0  0  0  0  3  0  0  0  0  0  0
  191.3430  178.1950  144.3300 C   0  0  0  0  0  3  0  0  0  0  0  0
  191.6880  176.7500  144.4540 C   0  0  0  0  0  2  0  0  0  0  0  0
  192.0600  175.9020  147.6980 C   0  0  2  0  0  3  0  0  0  0  0  0
  191.5280  177.0060  147.0330 N   0  0  0  0  0  2  0  0  0  0  0  0
  191.8520  176.3950  145.8900 C   0  0  1  0  0  0  0  0  0  0  0  0
  192.3930  175.2440  146.5700 O   0  0  0  0  0  0  0  0  0  0  0  0
  188.6490  176.9820  143.3410 C   0  0  0  0  0  0  0  0  0  0  0  0
  188.7810  175.6880  143.0480 C   0  0  0  0  0  2  0  0  0  0  0  0
  184.1640  178.7900  144.5520 C   0  0  0  0  0  0  0  0  0  0  0  0
  185.8170  178.3010  146.2210 N   0  0  0  0  0  0  0  0  0  0  0  0
  184.6990  178.3590  142.2420 C   0  0  0  0  0  3  0  0  0  0  0  0
  183.7940  178.8000  143.2070 C   0  0  0  0  0  3  0  0  0  0  0  0
  187.9230  177.4350  145.6270 N   0  0  0  0  0  0  0  0  0  0  0  0
  187.0460  177.8520  146.5770 C   0  0  0  0  0  3  0  0  0  0  0  0
  183.2380  179.2330  145.5400 N   0  0  0  0  0  1  0  0  0  0  0  0
  185.9350  177.9250  142.6100 N   0  0  0  0  0  0  0  0  0  0  0  0
  186.3320  177.9080  143.9130 C   0  0  0  0  0  0  0  0  0  0  0  0
  185.4390  178.3380  144.9170 C   0  0  0  0  0  0  0  0  0  0  0  0
  187.6120  177.4520  144.3010 C   0  0  0  0  0  0  0  0  0  0  0  0
  1 17  1  0  0  0  0
  1 10  1  0  0  0  0
  2  3  2  0  0  0  0
  3  1  1  0  0  0  0
  4  2  1  0  0  0  0
  6  5  1  6  0  0  0
  6  4  1  0  0  0  0
  7  8  1  0  0  0  0
  7  6  1  0  0  0  0
  9  7  2  0  0  0  0
 10 11  2  0  0  0  0
 11 12  1  0  0  0  0
 13 16  1  6  0  0  0
 14 13  1  0  0  0  0
 15 12  1  1  0  0  0
 15 16  1  0  0  0  0
 15 14  1  0  0  0  0
 15 13  1  0  0  0  0
 17 29  1  0  0  0  0
 18 17  2  0  0  0  0
 19 28  1  0  0  0  0
 19 25  1  0  0  0  0
 20 24  1  0  0  0  0
 21 26  2  0  0  0  0
 21 22  1  0  0  0  0
 22 19  2  0  0  0  0
 23 24  2  0  0  0  0
 26 27  1  0  0  0  0
 27 29  2  0  0  0  0
 27 28  1  0  0  0  0
 28 20  2  0  0  0  0
 29 23  1  0  0  0  0
M  END
>  <MODEL>
3

>  <REMARK>
 VINA RESULT:      -7.5      2.581      5.253
  Name = 
  9 active torsions:
  status: ('A' for Active; 'I' for Inactive)
    1  A    between atoms: C_1  and  N_17
    2  A    between atoms: N_2  and  C_9
    3  A    between atoms: N_2  and  C_24
    4  A    between atoms: N_2  and  C_28
    5  A    between atoms: C_4  and  C_25
    6  A    between atoms: C_10  and  C_12
    7  A    between atoms: C_10  and  C_23
    8  A    between atoms: N_17  and  C_25
    9  A    between atoms: C_24  and  C_26
                            x       y       z     vdW  Elec       q    Type
                         _______ _______ _______ _____ _____    ______ ____

>  <TORSDO>
F 9

$$$$
=
 OpenBabel10222415543D

 29 31  0  0  1  0  0  0  0  0999 V2000
  189.5700  177.8530  142.1700 N   0  0  0  0  0  0  0  0  0  0  0  0
  189.6150  177.7700  139.7380 C   0  0  0  0  0  3  0  0  0  0  0  0
  190.1590  177.4690  140.9120 C   0  0  0  0  0  3  0  0  0  0  0  0
  190.2510  177.3580  138.5330 N   0  0  0  0  0  2  0  0  0  0  0  0
  192.3580  176.4690  138.0790 O   0  0  0  0  0  1  0  0  0  0  0  0
  191.0660  176.1560  138.5010 C   0  0  2  0  0  3  0  0  0  0  0  0
  190.4570  175.1590  137.5740 C   0  0  0  0  0  0  0  0  0  0  0  0
  189.4860  175.5640  136.6690 O   0  0  0  0  0  0  0  0  0  0  0  0
  190.8290  173.9560  137.5990 O   0  0  0  0  0  1  0  0  0  0  0  0
  190.1450  178.9000  142.9750 C   0  0  0  0  0  3  0  0  0  0  0  0
  191.0920  178.7520  143.9080 C   0  0  0  0  0  3  0  0  0  0  0  0
  191.7610  177.4670  144.2610 C   0  0  0  0  0  2  0  0  0  0  0  0
  190.9580  176.5450  147.4050 C   0  0  0  0  0  2  0  0  0  0  0  0
  190.2470  177.0870  146.3340 N   0  0  0  0  0  0  0  0  0  0  0  0
  191.3910  177.0730  145.6480 C   0  0  0  0  0  0  0  0  0  0  0  0
  192.1330  176.5030  146.7450 O   0  0  0  0  0  0  0  0  0  0  0  0
  188.4660  177.1270  142.7450 C   0  0  0  0  0  0  0  0  0  0  0  0
  188.6490  175.8690  143.1480 C   0  0  0  0  0  2  0  0  0  0  0  0
  184.4600  178.7640  145.2210 C   0  0  0  0  0  0  0  0  0  0  0  0
  184.6570  179.0080  142.8420 N   0  0  0  0  0  0  0  0  0  0  0  0
  186.2720  177.7240  146.4240 C   0  0  0  0  0  3  0  0  0  0  0  0
  185.0160  178.3330  146.4250 C   0  0  0  0  0  3  0  0  0  0  0  0
  186.5630  178.2400  141.6960 N   0  0  0  0  0  0  0  0  0  0  0  0
  185.3460  178.8430  141.6860 C   0  0  0  0  0  3  0  0  0  0  0  0
  183.1820  179.3920  145.2210 N   0  0  0  0  0  1  0  0  0  0  0  0
  186.9470  177.5510  145.2560 N   0  0  0  0  0  0  0  0  0  0  0  0
  186.4310  177.9530  144.0610 C   0  0  0  0  0  0  0  0  0  0  0  0
  185.1680  178.5810  144.0250 C   0  0  0  0  0  0  0  0  0  0  0  0
  187.1320  177.7810  142.8450 C   0  0  0  0  0  0  0  0  0  0  0  0
  1 17  1  0  0  0  0
  1 10  1  0  0  0  0
  2  3  2  0  0  0  0
  3  1  1  0  0  0  0
  4  2  1  0  0  0  0
  6  5  1  6  0  0  0
  6  4  1  0  0  0  0
  7  9  1  0  0  0  0
  7  6  1  0  0  0  0
  8  7  2  0  0  0  0
 10 11  2  0  0  0  0
 11 12  1  0  0  0  0
 12 15  1  0  0  0  0
 14 13  1  0  0  0  0
 15 14  2  0  0  0  0
 15 16  1  0  0  0  0
 16 13  1  0  0  0  0
 17 29  1  0  0  0  0
 17 18  2  0  0  0  0
 19 25  1  0  0  0  0
 19 22  1  0  0  0  0
 20 28  1  0  0  0  0
 21 22  2  0  0  0  0
 23 29  2  0  0  0  0
 24 23  1  0  0  0  0
 24 20  2  0  0  0  0
 26 21  1  0  0  0  0
 27 26  2  0  0  0  0
 28 27  1  0  0  0  0
 28 19  2  0  0  0  0
 29 27  1  0  0  0  0
M  END
>  <MODEL>
4

>  <REMARK>
 VINA RESULT:      -7.3      3.120      6.046
  Name = 
  9 active torsions:
  status: ('A' for Active; 'I' for Inactive)
    1  A    between atoms: C_1  and  N_17
    2  A    between atoms: N_2  and  C_9
    3  A    between atoms: N_2  and  C_24
    4  A    between atoms: N_2  and  C_28
    5  A    between atoms: C_4  and  C_25
    6  A    between atoms: C_10  and  C_12
    7  A    between atoms: C_10  and  C_23
    8  A    between atoms: N_17  and  C_25
    9  A    between atoms: C_24  and  C_26
                            x       y       z     vdW  Elec       q    Type
                         _______ _______ _______ _____ _____    ______ ____

>  <TORSDO>
F 9

$$$$
=
 OpenBabel10222415543D

 29 32  0  0  1  0  0  0  0  0999 V2000
  189.2980  176.9540  142.1760 N   0  0  0  0  0  0  0  0  0  0  0  0
  187.4070  176.7760  143.6970 C   0  0  0  0  0  3  0  0  0  0  0  0
  188.3050  177.5160  143.0560 C   0  0  0  0  0  3  0  0  0  0  0  0
  186.4530  177.3980  144.5510 N   0  0  0  0  0  2  0  0  0  0  0  0
  187.6060  177.5050  146.5760 O   0  0  0  0  0  1  0  0  0  0  0  0
  186.8850  178.2520  145.6440 C   0  0  2  0  0  3  0  0  0  0  0  0
  185.6970  178.8710  146.3000 C   0  0  0  0  0  0  0  0  0  0  0  0
  185.8760  179.7340  147.3730 O   0  0  0  0  0  1  0  0  0  0  0  0
  184.5360  178.6280  145.8770 O   0  0  0  0  0  0  0  0  0  0  0  0
  190.1600  175.8850  142.6100 C   0  0  0  0  0  3  0  0  0  0  0  0
  191.0420  175.9370  143.6160 C   0  0  0  0  0  3  0  0  0  0  0  0
  191.2660  177.1130  144.5050 C   0  0  0  0  0  2  0  0  0  0  0  0
  192.0500  176.0100  147.5960 C   0  0  2  0  0  3  0  0  0  0  0  0
  191.3760  177.1250  147.0990 N   0  0  0  0  0  2  0  0  0  0  0  0
  191.6110  176.6450  145.8760 C   0  0  1  0  0  0  0  0  0  0  0  0
  192.2990  175.4820  146.3800 O   0  0  0  0  0  0  0  0  0  0  0  0
  189.5680  177.5150  140.8760 C   0  0  0  0  0  0  0  0  0  0  0  0
  188.6410  178.2690  140.2840 C   0  0  0  0  0  2  0  0  0  0  0  0
  192.3880  175.4330  137.3320 C   0  0  0  0  0  0  0  0  0  0  0  0
  193.3480  176.7470  139.0940 N   0  0  0  0  0  0  0  0  0  0  0  0
  189.9940  175.1530  137.2790 C   0  0  0  0  0  3  0  0  0  0  0  0
  191.2490  174.9040  136.7230 C   0  0  0  0  0  3  0  0  0  0  0  0
  191.9960  177.7320  140.7500 N   0  0  0  0  0  0  0  0  0  0  0  0
  193.2220  177.5060  140.2110 C   0  0  0  0  0  3  0  0  0  0  0  0
  193.6690  175.1870  136.7610 N   0  0  0  0  0  1  0  0  0  0  0  0
  189.8820  175.9030  138.4080 N   0  0  0  0  0  0  0  0  0  0  0  0
  190.9730  176.4280  139.0330 C   0  0  0  0  0  0  0  0  0  0  0  0
  192.2570  176.2060  138.4930 C   0  0  0  0  0  0  0  0  0  0  0  0
  190.8610  177.2140  140.2030 C   0  0  0  0  0  0  0  0  0  0  0  0
  1 10  1  0  0  0  0
  1  3  1  0  0  0  0
  2  4  1  0  0  0  0
  3  2  2  0  0  0  0
  4  6  1  0  0  0  0
  6  7  1  0  0  0  0
  6  5  1  1  0  0  0
  7  8  1  0  0  0  0
  9  7  2  0  0  0  0
 10 11  2  0  0  0  0
 11 12  1  0  0  0  0
 13 16  1  1  0  0  0
 14 13  1  0  0  0  0
 15 12  1  6  0  0  0
 15 16  1  0  0  0  0
 15 14  1  0  0  0  0
 15 13  1  0  0  0  0
 17  1  1  0  0  0  0
 18 17  2  0  0  0  0
 19 28  1  0  0  0  0
 20 24  1  0  0  0  0
 21 26  2  0  0  0  0
 22 21  1  0  0  0  0
 22 19  2  0  0  0  0
 24 23  2  0  0  0  0
 25 19  1  0  0  0  0
 26 27  1  0  0  0  0
 27 29  2  0  0  0  0
 28 27  1  0  0  0  0
 28 20  2  0  0  0  0
 29 23  1  0  0  0  0
 29 17  1  0  0  0  0
M  END
>  <MODEL>
5

>  <REMARK>
 VINA RESULT:      -7.0      2.949      7.188
  Name = 
  9 active torsions:
  status: ('A' for Active; 'I' for Inactive)
    1  A    between atoms: C_1  and  N_17
    2  A    between atoms: N_2  and  C_9
    3  A    between atoms: N_2  and  C_24
    4  A    between atoms: N_2  and  C_28
    5  A    between atoms: C_4  and  C_25
    6  A    between atoms: C_10  and  C_12
    7  A    between atoms: C_10  and  C_23
    8  A    between atoms: N_17  and  C_25
    9  A    between atoms: C_24  and  C_26
                            x       y       z     vdW  Elec       q    Type
                         _______ _______ _______ _____ _____    ______ ____

>  <TORSDO>
F 9

$$$$
=
 OpenBabel10222415543D

 29 31  0  0  1  0  0  0  0  0999 V2000
  188.8040  176.9620  142.7340 N   0  0  0  0  0  0  0  0  0  0  0  0
  187.6550  177.4370  144.8250 C   0  0  0  0  0  3  0  0  0  0  0  0
  187.6260  177.0300  143.5610 C   0  0  0  0  0  3  0  0  0  0  0  0
  186.4530  177.4790  145.5870 N   0  0  0  0  0  2  0  0  0  0  0  0
  185.3690  178.7300  147.2300 O   0  0  0  0  0  1  0  0  0  0  0  0
  185.8280  178.7490  145.9120 C   0  0  2  0  0  3  0  0  0  0  0  0
  184.6900  179.0050  144.9830 C   0  0  0  0  0  0  0  0  0  0  0  0
  183.3900  179.0000  145.4690 O   0  0  0  0  0  1  0  0  0  0  0  0
  184.9030  179.2390  143.7630 O   0  0  0  0  0  0  0  0  0  0  0  0
  189.7580  175.8920  142.8800 C   0  0  0  0  0  3  0  0  0  0  0  0
  190.8260  175.8880  143.6880 C   0  0  0  0  0  3  0  0  0  0  0  0
  191.2030  176.9850  144.6240 C   0  0  0  0  0  2  0  0  0  0  0  0
  192.3090  175.6290  147.5080 C   0  0  0  0  0  2  0  0  0  0  0  0
  191.6860  176.8300  147.1690 N   0  0  0  0  0  0  0  0  0  0  0  0
  191.6930  176.4050  145.9040 C   0  0  0  0  0  0  0  0  0  0  0  0
  192.3260  175.1550  146.2450 O   0  0  0  0  0  0  0  0  0  0  0  0
  189.1540  178.0200  141.8210 C   0  0  0  0  0  0  0  0  0  0  0  0
  189.7490  179.1170  142.2890 C   0  0  0  0  0  2  0  0  0  0  0  0
  190.1280  176.8040  137.0860 C   0  0  0  0  0  0  0  0  0  0  0  0
  188.0100  177.7190  137.7400 N   0  0  0  0  0  0  0  0  0  0  0  0
  191.8010  176.4450  138.7850 C   0  0  0  0  0  3  0  0  0  0  0  0
  191.4040  176.3700  137.4490 C   0  0  0  0  0  3  0  0  0  0  0  0
  187.5670  178.2730  139.9840 N   0  0  0  0  0  0  0  0  0  0  0  0
  187.1650  178.1950  138.6880 C   0  0  0  0  0  3  0  0  0  0  0  0
  189.7190  176.7210  135.7240 N   0  0  0  0  0  1  0  0  0  0  0  0
  190.9500  176.9400  139.7240 N   0  0  0  0  0  0  0  0  0  0  0  0
  189.7010  177.3780  139.4040 C   0  0  0  0  0  0  0  0  0  0  0  0
  189.2620  177.3080  138.0650 C   0  0  0  0  0  0  0  0  0  0  0  0
  188.8110  177.8860  140.3780 C   0  0  0  0  0  0  0  0  0  0  0  0
  1 10  1  0  0  0  0
  1  3  1  0  0  0  0
  2  4  1  0  0  0  0
  3  2  2  0  0  0  0
  4  6  1  0  0  0  0
  6  5  1  1  0  0  0
  7  8  1  0  0  0  0
  7  6  1  0  0  0  0
  9  7  2  0  0  0  0
 10 11  2  0  0  0  0
 11 12  1  0  0  0  0
 12 15  1  0  0  0  0
 14 13  1  0  0  0  0
 15 16  1  0  0  0  0
 15 14  2  0  0  0  0
 16 13  1  0  0  0  0
 17 18  2  0  0  0  0
 17  1  1  0  0  0  0
 19 22  2  0  0  0  0
 19 28  1  0  0  0  0
 20 28  2  0  0  0  0
 20 24  1  0  0  0  0
 21 26  2  0  0  0  0
 22 21  1  0  0  0  0
 23 29  1  0  0  0  0
 24 23  2  0  0  0  0
 25 19  1  0  0  0  0
 27 26  1  0  0  0  0
 27 29  2  0  0  0  0
 28 27  1  0  0  0  0
 29 17  1  0  0  0  0
M  END
>  <MODEL>
6

>  <REMARK>
 VINA RESULT:      -6.9      2.472      7.162
  Name = 
  9 active torsions:
  status: ('A' for Active; 'I' for Inactive)
    1  A    between atoms: C_1  and  N_17
    2  A    between atoms: N_2  and  C_9
    3  A    between atoms: N_2  and  C_24
    4  A    between atoms: N_2  and  C_28
    5  A    between atoms: C_4  and  C_25
    6  A    between atoms: C_10  and  C_12
    7  A    between atoms: C_10  and  C_23
    8  A    between atoms: N_17  and  C_25
    9  A    between atoms: C_24  and  C_26
                            x       y       z     vdW  Elec       q    Type
                         _______ _______ _______ _____ _____    ______ ____

>  <TORSDO>
F 9

$$$$
=
 OpenBabel10222415543D

 29 32  0  0  1  0  0  0  0  0999 V2000
  189.0340  176.8240  142.8530 N   0  0  0  0  0  0  0  0  0  0  0  0
  187.5960  177.6100  144.6510 C   0  0  0  0  0  3  0  0  0  0  0  0
  187.8690  176.7280  143.6960 C   0  0  0  0  0  3  0  0  0  0  0  0
  186.4260  177.4540  145.4480 N   0  0  0  0  0  2  0  0  0  0  0  0
  184.9990  178.3670  147.0520 O   0  0  0  0  0  1  0  0  0  0  0  0
  185.6360  178.6110  145.8350 C   0  0  2  0  0  3  0  0  0  0  0  0
  184.6230  178.9040  144.7810 C   0  0  0  0  0  0  0  0  0  0  0  0
  183.3680  179.3750  145.1450 O   0  0  0  0  0  1  0  0  0  0  0  0
  184.9020  178.7410  143.5640 O   0  0  0  0  0  0  0  0  0  0  0  0
  190.1160  175.8790  142.9670 C   0  0  0  0  0  3  0  0  0  0  0  0
  191.1590  175.9660  143.8020 C   0  0  0  0  0  3  0  0  0  0  0  0
  191.3700  177.0470  144.8080 C   0  0  0  0  0  2  0  0  0  0  0  0
  192.3020  175.6490  147.7330 C   0  0  2  0  0  3  0  0  0  0  0  0
  191.6660  176.8380  147.3780 N   0  0  0  0  0  2  0  0  0  0  0  0
  191.7820  176.4480  146.1070 C   0  0  1  0  0  0  0  0  0  0  0  0
  192.4310  175.2110  146.4640 O   0  0  0  0  0  0  0  0  0  0  0  0
  189.2360  177.9340  141.9570 C   0  0  0  0  0  0  0  0  0  0  0  0
  189.5320  179.1330  142.4590 C   0  0  0  0  0  2  0  0  0  0  0  0
  186.6430  177.9480  137.6990 C   0  0  0  0  0  0  0  0  0  0  0  0
  188.9490  177.2890  137.7670 N   0  0  0  0  0  0  0  0  0  0  0  0
  185.5850  178.6450  139.7500 C   0  0  0  0  0  3  0  0  0  0  0  0
  185.5150  178.4120  138.3760 C   0  0  0  0  0  3  0  0  0  0  0  0
  190.1570  177.3030  139.7870 N   0  0  0  0  0  0  0  0  0  0  0  0
  190.1040  177.0820  138.4470 C   0  0  0  0  0  3  0  0  0  0  0  0
  186.5760  177.7160  136.2960 N   0  0  0  0  0  1  0  0  0  0  0  0
  186.7450  178.4200  140.4240 N   0  0  0  0  0  0  0  0  0  0  0  0
  187.8640  177.9600  139.7960 C   0  0  0  0  0  0  0  0  0  0  0  0
  187.8320  177.7230  138.4060 C   0  0  0  0  0  0  0  0  0  0  0  0
  189.0730  177.7310  140.4910 C   0  0  0  0  0  0  0  0  0  0  0  0
  1 10  1  0  0  0  0
  1  3  1  0  0  0  0
  2  4  1  0  0  0  0
  3  2  2  0  0  0  0
  4  6  1  0  0  0  0
  6  5  1  1  0  0  0
  7  8  1  0  0  0  0
  7  6  1  0  0  0  0
  9  7  2  0  0  0  0
 10 11  2  0  0  0  0
 11 12  1  0  0  0  0
 13 16  1  1  0  0  0
 14 13  1  0  0  0  0
 15 12  1  6  0  0  0
 15 16  1  0  0  0  0
 15 14  1  0  0  0  0
 15 13  1  0  0  0  0
 17 18  2  0  0  0  0
 17  1  1  0  0  0  0
 19 22  2  0  0  0  0
 19 28  1  0  0  0  0
 20 28  2  0  0  0  0
 20 24  1  0  0  0  0
 21 26  2  0  0  0  0
 22 21  1  0  0  0  0
 23 29  1  0  0  0  0
 24 23  2  0  0  0  0
 25 19  1  0  0  0  0
 27 26  1  0  0  0  0
 27 29  2  0  0  0  0
 28 27  1  0  0  0  0
 29 17  1  0  0  0  0
M  END
>  <MODEL>
7

>  <REMARK>
 VINA RESULT:      -6.8      2.527      6.765
  Name = 
  9 active torsions:
  status: ('A' for Active; 'I' for Inactive)
    1  A    between atoms: C_1  and  N_17
    2  A    between atoms: N_2  and  C_9
    3  A    between atoms: N_2  and  C_24
    4  A    between atoms: N_2  and  C_28
    5  A    between atoms: C_4  and  C_25
    6  A    between atoms: C_10  and  C_12
    7  A    between atoms: C_10  and  C_23
    8  A    between atoms: N_17  and  C_25
    9  A    between atoms: C_24  and  C_26
                            x       y       z     vdW  Elec       q    Type
                         _______ _______ _______ _____ _____    ______ ____

>  <TORSDO>
F 9

$$$$
=
 OpenBabel10222415543D

 29 32  0  0  1  0  0  0  0  0999 V2000
  188.8930  177.9240  142.2090 N   0  0  0  0  0  0  0  0  0  0  0  0
  186.6780  178.4380  141.3430 C   0  0  0  0  0  3  0  0  0  0  0  0
  187.9140  178.8190  141.6450 C   0  0  0  0  0  3  0  0  0  0  0  0
  185.7620  179.3750  140.7860 N   0  0  0  0  0  2  0  0  0  0  0  0
  184.2350  180.0590  139.1610 O   0  0  0  0  0  1  0  0  0  0  0  0
  184.7650  178.9490  139.8180 C   0  0  2  0  0  3  0  0  0  0  0  0
  183.6770  178.2000  140.5100 C   0  0  0  0  0  0  0  0  0  0  0  0
  183.1940  178.6580  141.7290 O   0  0  0  0  0  1  0  0  0  0  0  0
  183.1840  177.1650  139.9900 O   0  0  0  0  0  0  0  0  0  0  0  0
  190.2530  177.9100  141.7350 C   0  0  0  0  0  3  0  0  0  0  0  0
  190.6840  177.3850  140.5820 C   0  0  0  0  0  3  0  0  0  0  0  0
  189.8190  176.7480  139.5470 C   0  0  0  0  0  2  0  0  0  0  0  0
  189.0600  179.0170  137.1690 C   0  0  2  0  0  3  0  0  0  0  0  0
  189.4750  177.6860  137.1510 N   0  0  0  0  0  2  0  0  0  0  0  0
  189.4960  177.7390  138.4850 C   0  0  1  0  0  0  0  0  0  0  0  0
  189.0560  179.1130  138.5140 O   0  0  0  0  0  0  0  0  0  0  0  0
  188.5330  176.9140  143.1730 C   0  0  0  0  0  0  0  0  0  0  0  0
  188.6560  175.6270  142.8470 C   0  0  0  0  0  2  0  0  0  0  0  0
  188.9030  177.8320  148.0590 C   0  0  0  0  0  0  0  0  0  0  0  0
  186.8310  178.1030  146.8800 N   0  0  0  0  0  0  0  0  0  0  0  0
  190.8470  177.1260  146.8200 C   0  0  0  0  0  3  0  0  0  0  0  0
  190.2590  177.5060  148.0270 C   0  0  0  0  0  3  0  0  0  0  0  0
  186.6830  177.6760  144.5700 N   0  0  0  0  0  0  0  0  0  0  0  0
  186.1020  178.0580  145.7370 C   0  0  0  0  0  3  0  0  0  0  0  0
  188.3030  178.2270  149.2880 N   0  0  0  0  0  1  0  0  0  0  0  0
  190.1020  177.0710  145.6840 N   0  0  0  0  0  0  0  0  0  0  0  0
  188.7740  177.3750  145.6790 C   0  0  0  0  0  0  0  0  0  0  0  0
  188.1480  177.7730  146.8790 C   0  0  0  0  0  0  0  0  0  0  0  0
  187.9970  177.3260  144.4990 C   0  0  0  0  0  0  0  0  0  0  0  0
  1 17  1  0  0  0  0
  2  3  2  0  0  0  0
  3  1  1  0  0  0  0
  4  2  1  0  0  0  0
  6  5  1  1  0  0  0
  6  7  1  0  0  0  0
  6  4  1  0  0  0  0
  7  8  1  0  0  0  0
  9  7  2  0  0  0  0
 10  1  1  0  0  0  0
 11 10  2  0  0  0  0
 12 11  1  0  0  0  0
 13 14  1  1  0  0  0
 13 15  1  0  0  0  0
 13 16  1  0  0  0  0
 14 15  1  0  0  0  0
 15 16  1  0  0  0  0
 15 12  1  6  0  0  0
 17 29  1  0  0  0  0
 18 17  2  0  0  0  0
 19 25  1  0  0  0  0
 21 22  2  0  0  0  0
 22 19  1  0  0  0  0
 23 24  1  0  0  0  0
 24 20  2  0  0  0  0
 26 21  1  0  0  0  0
 27 26  2  0  0  0  0
 27 28  1  0  0  0  0
 28 20  1  0  0  0  0
 28 19  2  0  0  0  0
 29 23  2  0  0  0  0
 29 27  1  0  0  0  0
M  END
>  <MODEL>
8

>  <REMARK>
 VINA RESULT:      -6.7      1.074      2.172
  Name = 
  9 active torsions:
  status: ('A' for Active; 'I' for Inactive)
    1  A    between atoms: C_1  and  N_17
    2  A    between atoms: N_2  and  C_9
    3  A    between atoms: N_2  and  C_24
    4  A    between atoms: N_2  and  C_28
    5  A    between atoms: C_4  and  C_25
    6  A    between atoms: C_10  and  C_12
    7  A    between atoms: C_10  and  C_23
    8  A    between atoms: N_17  and  C_25
    9  A    between atoms: C_24  and  C_26
                            x       y       z     vdW  Elec       q    Type
                         _______ _______ _______ _____ _____    ______ ____

>  <TORSDO>
F 9

$$$$
=
 OpenBabel10222415543D

 29 32  0  0  1  0  0  0  0  0999 V2000
  189.8890  177.8230  142.3480 N   0  0  0  0  0  0  0  0  0  0  0  0
  188.0710  178.1150  140.7570 C   0  0  0  0  0  3  0  0  0  0  0  0
  188.9200  178.6240  141.6440 C   0  0  0  0  0  2  0  0  0  0  0  0
  187.1390  178.9640  140.0960 N   0  0  0  0  0  0  0  0  0  0  0  0
  186.3290  178.6280  137.9350 O   0  0  0  0  0  1  0  0  0  0  0  0
  186.0710  178.4020  139.2880 C   0  0  2  0  0  3  0  0  0  0  0  0
  184.7700  179.0240  139.6670 C   0  0  0  0  0  0  0  0  0  0  0  0
  183.9580  178.4020  140.6060 O   0  0  0  0  0  1  0  0  0  0  0  0
  184.4110  180.1160  139.1520 O   0  0  0  0  0  0  0  0  0  0  0  0
  191.2920  177.8970  142.0280 C   0  0  0  0  0  3  0  0  0  0  0  0
  191.8670  177.4900  140.8900 C   0  0  0  0  0  3  0  0  0  0  0  0
  191.1470  176.9180  139.7170 C   0  0  0  0  0  2  0  0  0  0  0  0
  193.3590  176.3970  137.2230 C   0  0  2  0  0  3  0  0  0  0  0  0
  191.9670  176.3760  137.3140 N   0  0  0  0  0  2  0  0  0  0  0  0
  192.1090  176.6770  138.6070 C   0  0  1  0  0  0  0  0  0  0  0  0
  193.5490  176.7130  138.5210 O   0  0  0  0  0  0  0  0  0  0  0  0
  189.4960  176.8210  143.3050 C   0  0  0  0  0  0  0  0  0  0  0  0
  189.6480  175.5320  143.0010 C   0  0  0  0  0  2  0  0  0  0  0  0
  185.7930  178.5370  146.1690 C   0  0  0  0  0  0  0  0  0  0  0  0
  187.9430  177.9910  147.0830 N   0  0  0  0  0  0  0  0  0  0  0  0
  185.4310  178.2090  143.8080 C   0  0  0  0  0  3  0  0  0  0  0  0
  184.9510  178.6010  145.0580 C   0  0  0  0  0  3  0  0  0  0  0  0
  189.6720  177.1700  145.7150 N   0  0  0  0  0  0  0  0  0  0  0  0
  189.2130  177.5380  146.9390 C   0  0  0  0  0  3  0  0  0  0  0  0
  185.3030  178.9290  147.4470 N   0  0  0  0  0  1  0  0  0  0  0  0
  186.7110  177.7710  143.6730 N   0  0  0  0  0  0  0  0  0  0  0  0
  187.5630  177.7020  144.7340 C   0  0  0  0  0  0  0  0  0  0  0  0
  187.1090  178.0800  146.0150 C   0  0  0  0  0  0  0  0  0  0  0  0
  188.8930  177.2410  144.6000 C   0  0  0  0  0  0  0  0  0  0  0  0
  1 17  1  0  0  0  0
  2  3  1  0  0  0  0
  3  1  1  0  0  0  0
  4  2  2  0  0  0  0
  6  5  1  6  0  0  0
  6  7  1  0  0  0  0
  6  4  1  0  0  0  0
  7  8  1  0  0  0  0
  9  7  2  0  0  0  0
 10  1  1  0  0  0  0
 11 10  2  0  0  0  0
 12 11  1  0  0  0  0
 13 14  1  6  0  0  0
 13 16  1  0  0  0  0
 13 15  1  0  0  0  0
 14 15  1  0  0  0  0
 15 12  1  1  0  0  0
 16 15  1  0  0  0  0
 17 29  1  0  0  0  0
 18 17  2  0  0  0  0
 19 25  1  0  0  0  0
 21 22  1  0  0  0  0
 22 19  2  0  0  0  0
 23 24  2  0  0  0  0
 24 20  1  0  0  0  0
 26 21  2  0  0  0  0
 26 27  1  0  0  0  0
 27 28  1  0  0  0  0
 28 19  1  0  0  0  0
 28 20  2  0  0  0  0
 29 27  2  0  0  0  0
 29 23  1  0  0  0  0
M  END
>  <MODEL>
9

>  <REMARK>
 VINA RESULT:      -6.7      1.919      2.413
  Name = 
  9 active torsions:
  status: ('A' for Active; 'I' for Inactive)
    1  A    between atoms: C_1  and  N_17
    2  A    between atoms: N_2  and  C_9
    3  A    between atoms: N_2  and  C_24
    4  A    between atoms: N_2  and  C_28
    5  A    between atoms: C_4  and  C_25
    6  A    between atoms: C_10  and  C_12
    7  A    between atoms: C_10  and  C_23
    8  A    between atoms: N_17  and  C_25
    9  A    between atoms: C_24  and  C_26
                            x       y       z     vdW  Elec       q    Type
                         _______ _______ _______ _____ _____    ______ ____

>  <TORSDO>
F 9

$$$$
