=
 OpenBabel10222415583D

 63 69  0  0  1  0  0  0  0  0999 V2000
  184.7370  178.2100  144.4800 C   0  0  1  0  0  3  0  0  0  0  0  0
  186.3560  178.3510  142.3670 S   0  0  0  0  0  0  0  0  0  0  0  0
  186.9330  177.4190  143.8120 C   0  0  2  0  0  3  0  0  0  0  0  0
  184.7260  178.8230  143.1200 C   0  0  1  0  0  3  0  0  0  0  0  0
  186.1040  177.9010  144.9910 C   0  0  0  0  0  2  0  0  0  0  0  0
  184.5450  178.8790  146.6450 C   0  0  0  0  0  1  0  0  0  0  0  0
  183.8820  178.8180  145.3610 O   0  0  0  0  0  0  0  0  0  0  0  0
  183.3650  178.7390  142.3110 C   0  0  2  0  0  3  0  0  0  0  0  0
  182.2650  178.6190  143.2710 N   0  0  0  0  0  2  0  0  0  0  0  0
  181.1490  179.4790  143.1190 C   0  0  2  0  0  3  0  0  0  0  0  0
  180.0260  178.9750  143.9730 C   0  0  0  0  0  2  0  0  0  0  0  0
  180.0440  178.7640  142.4650 N   0  0  0  0  0  0  0  0  0  0  0  0
  178.9410  179.5690  141.8000 C   0  0  0  0  0  2  0  0  0  0  0  0
  179.4490  180.6940  139.4980 C   0  0  0  0  0  0  0  0  0  0  0  0
  179.0510  179.4450  140.2780 C   0  0  1  0  0  3  0  0  0  0  0  0
  180.8150  179.3590  138.0280 C   0  0  0  0  0  2  0  0  0  0  0  0
  180.0450  178.4380  140.0960 O   0  0  0  0  0  0  0  0  0  0  0  0
  179.9480  180.5270  138.2160 N   0  0  0  0  0  0  0  0  0  0  0  0
  179.3520  181.8830  139.9760 O   0  0  0  0  0  0  0  0  0  0  0  0
  180.1670  178.1660  138.7300 C   0  0  0  0  0  2  0  0  0  0  0  0
  179.3730  181.2500  137.0700 C   0  0  0  0  0  2  0  0  0  0  0  0
  181.2600  182.6190  137.4080 F   0  0  0  0  0  0  0  0  0  0  0  0
  180.3980  182.1990  136.4310 C   0  0  0  0  0  0  0  0  0  0  0  0
  179.7770  183.2830  135.8590 F   0  0  0  0  0  0  0  0  0  0  0  0
  181.1140  181.5380  135.4680 F   0  0  0  0  0  0  0  0  0  0  0  0
  183.3530  177.5510  141.4220 C   0  0  0  0  0  2  0  0  0  0  0  0
  183.7800  177.8710  139.9660 C   0  0  2  0  0  3  0  0  0  0  0  0
  185.4960  179.1570  138.8710 N   0  0  0  0  0  0  0  0  0  0  0  0
  185.7240  178.2110  138.0240 C   0  0  0  0  0  0  0  0  0  0  0  0
  184.9960  176.6120  136.6490 N   0  0  0  0  0  0  0  0  0  0  0  0
  184.8410  177.1130  137.9350 N   0  0  0  0  0  0  0  0  0  0  0  0
  186.2910  176.8700  134.5950 C   0  0  0  0  0  1  0  0  0  0  0  0
  183.5840  177.0890  138.6610 C   0  0  1  0  0  3  0  0  0  0  0  0
  185.8980  177.2810  136.0170 C   0  0  0  0  0  0  0  0  0  0  0  0
  183.0930  175.6560  138.8120 C   0  0  0  0  0  1  0  0  0  0  0  0
  186.5020  178.3650  136.7930 N   0  0  0  0  0  2  0  0  0  0  0  0
  184.5570  178.9680  139.9410 C   0  0  0  0  0  2  0  0  0  0  0  0
  188.4160  177.5340  144.2700 C   0  0  0  0  0  2  0  0  0  0  0  0
  190.4050  176.4060  144.7520 F   0  0  0  0  0  0  0  0  0  0  0  0
  189.1970  175.5550  143.0390 F   0  0  0  0  0  0  0  0  0  0  0  0
  189.5850  176.7280  143.7170 C   0  0  0  0  0  0  0  0  0  0  0  0
  190.1940  177.7440  142.7770 C   0  0  0  0  0  2  0  0  0  0  0  0
  191.5840  177.1960  140.8720 O   0  0  0  0  0  0  0  0  0  0  0  0
  190.4610  177.4370  141.3090 C   0  0  0  0  0  0  0  0  0  0  0  0
  189.3050  177.1690  140.4030 C   0  0  0  0  0  2  0  0  0  0  0  0
  190.6220  176.4700  136.8260 C   0  0  2  0  0  3  0  0  0  0  0  0
  190.3640  175.1300  136.1010 C   0  0  1  0  0  3  0  0  0  0  0  0
  192.0310  176.5430  137.4420 C   0  0  0  0  0  2  0  0  0  0  0  0
  193.0260  175.8240  136.5930 C   0  0  2  0  0  3  0  0  0  0  0  0
  189.3800  178.6940  138.5590 O   0  0  0  0  0  0  0  0  0  0  0  0
  192.7400  174.3120  136.8830 C   0  0  1  0  0  3  0  0  0  0  0  0
  189.6180  176.4980  137.8530 N   0  0  0  0  0  0  0  0  0  0  0  0
  194.3070  176.2860  136.9280 O   0  0  0  0  0  1  0  0  0  0  0  0
  189.4650  177.4830  138.9210 C   0  0  0  0  0  0  0  0  0  0  0  0
  191.3610  173.9450  136.2970 C   0  0  0  0  0  2  0  0  0  0  0  0
  188.1320  174.1200  135.7380 O   0  0  0  0  0  0  0  0  0  0  0  0
  188.5950  175.5300  137.6240 N   0  0  0  0  0  2  0  0  0  0  0  0
  188.9540  174.8260  136.4510 C   0  0  0  0  0  0  0  0  0  0  0  0
  193.7430  173.4790  136.3280 O   0  0  0  0  0  0  0  0  0  0  0  0
  194.4290  172.6650  137.3020 C   0  0  1  0  0  3  0  0  0  0  0  0
  194.6420  171.2260  136.8540 C   0  0  0  0  0  1  0  0  0  0  0  0
  195.6810  173.2270  137.8420 N   0  0  0  0  0  2  0  0  0  0  0  0
  195.5490  173.5360  139.1580 O   0  0  0  0  0  1  0  0  0  0  0  0
  1  5  1  0  0  0  0
  1  7  1  1  0  0  0
  2  4  1  0  0  0  0
  2  3  1  0  0  0  0
  3 38  1  1  0  0  0
  3  5  1  0  0  0  0
  4  8  1  6  0  0  0
  4  1  1  0  0  0  0
  7  6  1  0  0  0  0
  8 26  1  6  0  0  0
  8  9  1  0  0  0  0
 10  9  1  1  0  0  0
 10 11  1  0  0  0  0
 12 10  1  0  0  0  0
 12 11  1  0  0  0  0
 13 12  1  0  0  0  0
 14 19  2  0  0  0  0
 14 15  1  0  0  0  0
 15 13  1  1  0  0  0
 16 18  1  0  0  0  0
 16 20  1  0  0  0  0
 17 15  1  0  0  0  0
 18 14  1  0  0  0  0
 20 17  1  0  0  0  0
 21 18  1  0  0  0  0
 23 21  1  0  0  0  0
 23 22  1  0  0  0  0
 24 23  1  0  0  0  0
 25 23  1  0  0  0  0
 27 26  1  1  0  0  0
 28 37  1  0  0  0  0
 29 28  2  0  0  0  0
 30 31  1  0  0  0  0
 31 29  1  0  0  0  0
 31 33  1  0  0  0  0
 32 34  1  0  0  0  0
 33 35  1  1  0  0  0
 33 27  1  0  0  0  0
 34 30  2  0  0  0  0
 34 36  1  0  0  0  0
 36 29  1  0  0  0  0
 37 27  1  0  0  0  0
 40 41  1  0  0  0  0
 41 38  1  0  0  0  0
 41 39  1  0  0  0  0
 42 41  1  0  0  0  0
 43 44  2  0  0  0  0
 44 42  1  0  0  0  0
 45 44  1  0  0  0  0
 46 48  1  1  0  0  0
 46 52  1  0  0  0  0
 47 55  1  1  0  0  0
 47 58  1  0  0  0  0
 47 46  1  0  0  0  0
 49 51  1  0  0  0  0
 49 53  1  1  0  0  0
 49 48  1  0  0  0  0
 50 54  2  0  0  0  0
 51 59  1  6  0  0  0
 52 54  1  0  0  0  0
 54 45  1  0  0  0  0
 55 51  1  0  0  0  0
 56 58  2  0  0  0  0
 57 52  1  0  0  0  0
 58 57  1  0  0  0  0
 59 60  1  0  0  0  0
 60 61  1  6  0  0  0
 60 62  1  0  0  0  0
 62 63  1  0  0  0  0
M  END
>  <MODEL>
1

>  <REMARK>
 VINA RESULT:      -7.8      0.000      0.000
  Name = 
  19 active torsions:
  status: ('A' for Active; 'I' for Inactive)
    1  A    between atoms: N_1  and  C_2
    2  A    between atoms: C_2  and  O_29
    3  A    between atoms: C_3  and  O_36
    4  A    between atoms: C_4  and  C_55
    5  A    between atoms: C_7  and  C_35
    6  A    between atoms: C_7  and  N_44
    7  A    between atoms: N_9  and  C_23
    8  A    between atoms: N_9  and  C_37
    9  A    between atoms: C_22  and  O_29
   10  A    between atoms: C_24  and  C_39
   11  A    between atoms: C_30  and  C_48
   12  A    between atoms: C_32  and  C_62
   13  A    between atoms: C_37  and  C_54
   14  A    between atoms: C_37  and  C_55
   15  A    between atoms: C_39  and  N_45
   16  A    between atoms: C_48  and  C_63
   17  A    between atoms: C_52  and  C_53
   18  A    between atoms: C_52  and  C_62
   19  A    between atoms: C_53  and  C_63
                            x       y       z     vdW  Elec       q    Type
                         _______ _______ _______ _____ _____    ______ ____

>  <TORSDO>
F 19

$$$$
=
 OpenBabel10222415583D

 63 69  0  0  1  0  0  0  0  0999 V2000
  190.5930  177.7200  142.0430 C   0  0  1  0  0  3  0  0  0  0  0  0
  187.9880  177.7770  141.4820 S   0  0  0  0  0  0  0  0  0  0  0  0
  188.5390  178.5770  143.0140 C   0  0  2  0  0  3  0  0  0  0  0  0
  189.6860  177.2320  140.9650 C   0  0  1  0  0  3  0  0  0  0  0  0
  189.9020  177.9880  143.3380 C   0  0  0  0  0  2  0  0  0  0  0  0
  191.7800  176.2980  143.3630 C   0  0  0  0  0  1  0  0  0  0  0  0
  191.7760  177.0320  142.1160 O   0  0  0  0  0  0  0  0  0  0  0  0
  190.2030  177.3840  139.4730 C   0  0  2  0  0  3  0  0  0  0  0  0
  189.2410  178.2030  138.7330 N   0  0  0  0  0  2  0  0  0  0  0  0
  189.2530  178.1340  137.3170 C   0  0  2  0  0  3  0  0  0  0  0  0
  188.4010  179.2370  136.7680 C   0  0  0  0  0  2  0  0  0  0  0  0
  187.9140  177.7950  136.8160 N   0  0  0  0  0  0  0  0  0  0  0  0
  187.7790  177.2310  135.4120 C   0  0  0  0  0  2  0  0  0  0  0  0
  186.3460  175.1340  136.0270 C   0  0  0  0  0  0  0  0  0  0  0  0
  186.4610  176.4630  135.2850 C   0  0  1  0  0  3  0  0  0  0  0  0
  184.0610  175.6360  136.6050 C   0  0  0  0  0  2  0  0  0  0  0  0
  185.4910  177.3750  135.7980 O   0  0  0  0  0  0  0  0  0  0  0  0
  185.0780  174.6330  136.2700 N   0  0  0  0  0  0  0  0  0  0  0  0
  187.3660  174.4710  136.4420 O   0  0  0  0  0  0  0  0  0  0  0  0
  184.2190  176.8140  135.6450 C   0  0  0  0  0  2  0  0  0  0  0  0
  184.7070  173.2650  135.8770 C   0  0  0  0  0  2  0  0  0  0  0  0
  184.2780  171.1280  136.7710 F   0  0  0  0  0  0  0  0  0  0  0  0
  184.1770  172.4590  137.0730 C   0  0  0  0  0  0  0  0  0  0  0  0
  182.8680  172.7790  137.3420 F   0  0  0  0  0  0  0  0  0  0  0  0
  184.9350  172.7170  138.1850 F   0  0  0  0  0  0  0  0  0  0  0  0
  190.3070  176.0600  138.8140 C   0  0  0  0  0  2  0  0  0  0  0  0
  191.6570  175.8440  138.0810 C   0  0  2  0  0  3  0  0  0  0  0  0
  193.9890  176.2520  138.5200 N   0  0  0  0  0  0  0  0  0  0  0  0
  194.3200  175.0890  138.0700 C   0  0  0  0  0  0  0  0  0  0  0  0
  194.1170  173.4530  136.5660 N   0  0  0  0  0  0  0  0  0  0  0  0
  193.3750  174.3030  137.3760 N   0  0  0  0  0  0  0  0  0  0  0  0
  196.3980  172.7760  136.0180 C   0  0  0  0  0  1  0  0  0  0  0  0
  192.0730  174.8300  137.0080 C   0  0  1  0  0  3  0  0  0  0  0  0
  195.3770  173.6460  136.7560 C   0  0  0  0  0  0  0  0  0  0  0  0
  191.0970  173.6880  136.7580 C   0  0  0  0  0  1  0  0  0  0  0  0
  195.6890  174.6820  137.7420 N   0  0  0  0  0  2  0  0  0  0  0  0
  192.6070  176.6290  138.6190 C   0  0  0  0  0  2  0  0  0  0  0  0
  187.7000  178.4260  144.3150 C   0  0  0  0  0  2  0  0  0  0  0  0
  187.1150  176.1630  144.2890 F   0  0  0  0  0  0  0  0  0  0  0  0
  188.7120  176.7370  145.7860 F   0  0  0  0  0  0  0  0  0  0  0  0
  187.5350  177.1470  145.1270 C   0  0  0  0  0  0  0  0  0  0  0  0
  186.4670  177.5830  146.1060 C   0  0  0  0  0  2  0  0  0  0  0  0
  184.6030  179.1170  146.2920 O   0  0  0  0  0  0  0  0  0  0  0  0
  185.1630  178.2280  145.6540 C   0  0  0  0  0  0  0  0  0  0  0  0
  184.6650  177.9640  144.2720 C   0  0  0  0  0  2  0  0  0  0  0  0
  181.7770  179.2130  142.0080 C   0  0  2  0  0  3  0  0  0  0  0  0
  180.3080  178.7930  142.2420 C   0  0  1  0  0  3  0  0  0  0  0  0
  182.4480  178.4040  140.8840 C   0  0  0  0  0  2  0  0  0  0  0  0
  181.4700  178.0730  139.8050 C   0  0  2  0  0  3  0  0  0  0  0  0
  184.3870  180.1550  143.3480 O   0  0  0  0  0  0  0  0  0  0  0  0
  180.6110  176.9180  140.4220 C   0  0  1  0  0  3  0  0  0  0  0  0
  182.4090  178.9460  143.2710 N   0  0  0  0  0  0  0  0  0  0  0  0
  182.1870  177.7560  138.6420 O   0  0  0  0  0  1  0  0  0  0  0  0
  183.8320  179.0430  143.5900 C   0  0  0  0  0  0  0  0  0  0  0  0
  179.7650  177.4890  141.5780 C   0  0  0  0  0  2  0  0  0  0  0  0
  179.0780  179.0630  144.3750 O   0  0  0  0  0  0  0  0  0  0  0  0
  181.4560  178.7490  144.3130 N   0  0  0  0  0  2  0  0  0  0  0  0
  180.1760  178.8450  143.7190 C   0  0  0  0  0  0  0  0  0  0  0  0
  179.7690  176.3230  139.4500 O   0  0  0  0  0  0  0  0  0  0  0  0
  179.2030  175.0610  139.8630 C   0  0  1  0  0  3  0  0  0  0  0  0
  178.9310  174.1070  138.7090 C   0  0  0  0  0  1  0  0  0  0  0  0
  179.9140  174.3640  140.9510 N   0  0  0  0  0  2  0  0  0  0  0  0
  179.0880  174.1280  142.0020 O   0  0  0  0  0  1  0  0  0  0  0  0
  1  7  1  1  0  0  0
  1  5  1  0  0  0  0
  2  3  1  0  0  0  0
  3  5  1  0  0  0  0
  3 38  1  1  0  0  0
  4  8  1  6  0  0  0
  4  2  1  0  0  0  0
  4  1  1  0  0  0  0
  7  6  1  0  0  0  0
  8 26  1  6  0  0  0
  9  8  1  0  0  0  0
 10  9  1  1  0  0  0
 11 12  1  0  0  0  0
 11 10  1  0  0  0  0
 12 10  1  0  0  0  0
 13 12  1  0  0  0  0
 14 18  1  0  0  0  0
 14 19  2  0  0  0  0
 15 13  1  1  0  0  0
 15 17  1  0  0  0  0
 15 14  1  0  0  0  0
 18 16  1  0  0  0  0
 20 17  1  0  0  0  0
 20 16  1  0  0  0  0
 21 18  1  0  0  0  0
 21 23  1  0  0  0  0
 22 23  1  0  0  0  0
 23 24  1  0  0  0  0
 23 25  1  0  0  0  0
 27 37  1  0  0  0  0
 27 26  1  1  0  0  0
 28 37  1  0  0  0  0
 29 28  2  0  0  0  0
 30 34  2  0  0  0  0
 30 31  1  0  0  0  0
 31 29  1  0  0  0  0
 32 34  1  0  0  0  0
 33 35  1  1  0  0  0
 33 31  1  0  0  0  0
 33 27  1  0  0  0  0
 34 36  1  0  0  0  0
 36 29  1  0  0  0  0
 38 41  1  0  0  0  0
 39 41  1  0  0  0  0
 41 40  1  0  0  0  0
 41 42  1  0  0  0  0
 44 42  1  0  0  0  0
 44 43  2  0  0  0  0
 45 44  1  0  0  0  0
 46 48  1  6  0  0  0
 46 47  1  0  0  0  0
 46 52  1  0  0  0  0
 47 55  1  1  0  0  0
 47 58  1  0  0  0  0
 49 53  1  6  0  0  0
 49 51  1  0  0  0  0
 49 48  1  0  0  0  0
 50 54  2  0  0  0  0
 51 59  1  6  0  0  0
 51 55  1  0  0  0  0
 52 54  1  0  0  0  0
 52 57  1  0  0  0  0
 54 45  1  0  0  0  0
 58 57  1  0  0  0  0
 58 56  2  0  0  0  0
 59 60  1  0  0  0  0
 60 61  1  6  0  0  0
 60 62  1  0  0  0  0
 62 63  1  0  0  0  0
M  END
>  <MODEL>
2

>  <REMARK>
 VINA RESULT:      -7.2      3.381      9.748
  Name = 
  19 active torsions:
  status: ('A' for Active; 'I' for Inactive)
    1  A    between atoms: N_1  and  C_2
    2  A    between atoms: C_2  and  O_29
    3  A    between atoms: C_3  and  O_36
    4  A    between atoms: C_4  and  C_55
    5  A    between atoms: C_7  and  C_35
    6  A    between atoms: C_7  and  N_44
    7  A    between atoms: N_9  and  C_23
    8  A    between atoms: N_9  and  C_37
    9  A    between atoms: C_22  and  O_29
   10  A    between atoms: C_24  and  C_39
   11  A    between atoms: C_30  and  C_48
   12  A    between atoms: C_32  and  C_62
   13  A    between atoms: C_37  and  C_54
   14  A    between atoms: C_37  and  C_55
   15  A    between atoms: C_39  and  N_45
   16  A    between atoms: C_48  and  C_63
   17  A    between atoms: C_52  and  C_53
   18  A    between atoms: C_52  and  C_62
   19  A    between atoms: C_53  and  C_63
                            x       y       z     vdW  Elec       q    Type
                         _______ _______ _______ _____ _____    ______ ____

>  <TORSDO>
F 19

$$$$
=
 OpenBabel10222415583D

 63 69  0  0  1  0  0  0  0  0999 V2000
  190.5740  176.7880  140.4680 C   0  0  1  0  0  3  0  0  0  0  0  0
  188.5450  177.5960  138.9410 S   0  0  0  0  0  0  0  0  0  0  0  0
  189.7760  176.4930  138.1950 C   0  0  2  0  0  3  0  0  0  0  0  0
  189.3660  177.6530  140.6050 C   0  0  1  0  0  3  0  0  0  0  0  0
  191.0220  176.5950  139.0580 C   0  0  0  0  0  2  0  0  0  0  0  0
  192.7200  177.5180  140.6560 C   0  0  0  0  0  1  0  0  0  0  0  0
  191.5540  177.0690  141.3840 O   0  0  0  0  0  0  0  0  0  0  0  0
  188.5460  177.5260  141.9560 C   0  0  2  0  0  3  0  0  0  0  0  0
  187.1240  177.4160  141.6230 N   0  0  0  0  0  2  0  0  0  0  0  0
  186.3700  178.6120  141.5130 C   0  0  2  0  0  3  0  0  0  0  0  0
  185.1820  178.5230  142.4210 C   0  0  0  0  0  2  0  0  0  0  0  0
  185.0570  178.3280  140.9160 N   0  0  0  0  0  0  0  0  0  0  0  0
  184.2730  179.4690  140.2930 C   0  0  0  0  0  2  0  0  0  0  0  0
  181.7660  178.7460  140.1770 C   0  0  0  0  0  0  0  0  0  0  0  0
  183.1080  178.9130  139.4710 C   0  0  1  0  0  3  0  0  0  0  0  0
  180.6130  179.4970  138.1980 C   0  0  0  0  0  2  0  0  0  0  0  0
  182.9680  179.8550  138.4090 O   0  0  0  0  0  0  0  0  0  0  0  0
  180.6280  178.6470  139.3940 N   0  0  0  0  0  0  0  0  0  0  0  0
  181.6440  178.7040  141.4560 O   0  0  0  0  0  0  0  0  0  0  0  0
  181.9830  179.3990  137.5270 C   0  0  0  0  0  2  0  0  0  0  0  0
  179.6820  177.5310  139.5540 C   0  0  0  0  0  2  0  0  0  0  0  0
  179.5410  175.2330  139.0590 F   0  0  0  0  0  0  0  0  0  0  0  0
  180.4040  176.1760  139.5480 C   0  0  0  0  0  0  0  0  0  0  0  0
  180.8070  175.8260  140.8150 F   0  0  0  0  0  0  0  0  0  0  0  0
  181.5020  176.2320  138.7310 F   0  0  0  0  0  0  0  0  0  0  0  0
  188.7450  178.7240  142.8080 C   0  0  0  0  0  2  0  0  0  0  0  0
  189.2510  178.3850  144.2340 C   0  0  2  0  0  3  0  0  0  0  0  0
  188.6100  176.9190  146.0340 N   0  0  0  0  0  0  0  0  0  0  0  0
  189.8340  176.5640  146.2360 C   0  0  0  0  0  0  0  0  0  0  0  0
  192.0020  177.0600  146.4120 N   0  0  0  0  0  0  0  0  0  0  0  0
  190.8870  177.2630  145.6090 N   0  0  0  0  0  0  0  0  0  0  0  0
  192.7910  175.8680  148.3920 C   0  0  0  0  0  1  0  0  0  0  0  0
  190.6480  178.4840  144.8610 C   0  0  1  0  0  3  0  0  0  0  0  0
  191.7020  176.2890  147.4010 C   0  0  0  0  0  0  0  0  0  0  0  0
  191.7940  178.7380  143.8920 C   0  0  0  0  0  1  0  0  0  0  0  0
  190.3070  175.8480  147.4230 N   0  0  0  0  0  2  0  0  0  0  0  0
  188.2750  177.7930  144.9440 C   0  0  0  0  0  2  0  0  0  0  0  0
  190.2580  176.7390  136.7360 C   0  0  0  0  0  2  0  0  0  0  0  0
  190.8260  175.6960  134.7230 F   0  0  0  0  0  0  0  0  0  0  0  0
  192.5660  176.4950  135.9270 F   0  0  0  0  0  0  0  0  0  0  0  0
  191.2880  175.9040  135.9840 C   0  0  0  0  0  0  0  0  0  0  0  0
  191.2860  174.6490  136.8260 C   0  0  0  0  0  2  0  0  0  0  0  0
  191.1500  172.3970  135.9470 O   0  0  0  0  0  0  0  0  0  0  0  0
  190.5630  173.3790  136.3960 C   0  0  0  0  0  0  0  0  0  0  0  0
  189.1240  173.2080  136.7560 C   0  0  0  0  0  2  0  0  0  0  0  0
  185.4900  173.7240  135.5110 C   0  0  2  0  0  3  0  0  0  0  0  0
  184.3880  174.3210  136.4150 C   0  0  1  0  0  3  0  0  0  0  0  0
  185.4120  172.1890  135.4260 C   0  0  0  0  0  2  0  0  0  0  0  0
  183.9950  171.7210  135.4700 C   0  0  2  0  0  3  0  0  0  0  0  0
  188.4230  173.9640  134.5960 O   0  0  0  0  0  0  0  0  0  0  0  0
  183.5990  171.8750  136.9770 C   0  0  1  0  0  3  0  0  0  0  0  0
  186.7100  174.1340  136.1510 N   0  0  0  0  0  0  0  0  0  0  0  0
  183.9440  170.4210  134.9480 O   0  0  0  0  0  1  0  0  0  0  0  0
  188.0730  173.7480  135.7940 C   0  0  0  0  0  0  0  0  0  0  0  0
  183.5440  173.3760  137.3270 C   0  0  0  0  0  2  0  0  0  0  0  0
  184.5470  176.4890  137.6020 O   0  0  0  0  0  0  0  0  0  0  0  0
  186.4880  175.1680  137.1070 N   0  0  0  0  0  2  0  0  0  0  0  0
  185.0950  175.4130  137.1290 C   0  0  0  0  0  0  0  0  0  0  0  0
  182.3490  171.2660  137.2500 O   0  0  0  0  0  0  0  0  0  0  0  0
  181.2420  171.8660  136.5460 C   0  0  1  0  0  3  0  0  0  0  0  0
  180.2880  170.8540  135.9290 C   0  0  0  0  0  1  0  0  0  0  0  0
  180.4910  172.8950  137.2890 N   0  0  0  0  0  2  0  0  0  0  0  0
  179.4120  172.3560  137.9140 O   0  0  0  0  0  1  0  0  0  0  0  0
  1  4  1  0  0  0  0
  1  7  1  1  0  0  0
  2  4  1  0  0  0  0
  3 38  1  6  0  0  0
  3  2  1  0  0  0  0
  3  5  1  0  0  0  0
  4  8  1  1  0  0  0
  5  1  1  0  0  0  0
  6  7  1  0  0  0  0
  8 26  1  1  0  0  0
  9  8  1  0  0  0  0
 10  9  1  1  0  0  0
 10 11  1  0  0  0  0
 12 10  1  0  0  0  0
 12 11  1  0  0  0  0
 13 12  1  0  0  0  0
 14 19  2  0  0  0  0
 15 14  1  0  0  0  0
 15 13  1  1  0  0  0
 16 18  1  0  0  0  0
 17 15  1  0  0  0  0
 18 21  1  0  0  0  0
 18 14  1  0  0  0  0
 20 16  1  0  0  0  0
 20 17  1  0  0  0  0
 22 23  1  0  0  0  0
 23 21  1  0  0  0  0
 23 24  1  0  0  0  0
 25 23  1  0  0  0  0
 27 26  1  6  0  0  0
 27 33  1  0  0  0  0
 27 37  1  0  0  0  0
 28 29  2  0  0  0  0
 29 36  1  0  0  0  0
 30 34  2  0  0  0  0
 31 29  1  0  0  0  0
 31 30  1  0  0  0  0
 33 35  1  6  0  0  0
 33 31  1  0  0  0  0
 34 36  1  0  0  0  0
 34 32  1  0  0  0  0
 37 28  1  0  0  0  0
 39 41  1  0  0  0  0
 40 41  1  0  0  0  0
 41 38  1  0  0  0  0
 41 42  1  0  0  0  0
 43 44  2  0  0  0  0
 44 45  1  0  0  0  0
 44 42  1  0  0  0  0
 46 48  1  1  0  0  0
 46 52  1  0  0  0  0
 46 47  1  0  0  0  0
 47 58  1  0  0  0  0
 47 55  1  1  0  0  0
 48 49  1  0  0  0  0
 49 53  1  1  0  0  0
 49 51  1  0  0  0  0
 50 54  2  0  0  0  0
 51 59  1  6  0  0  0
 51 55  1  0  0  0  0
 52 57  1  0  0  0  0
 54 52  1  0  0  0  0
 54 45  1  0  0  0  0
 57 58  1  0  0  0  0
 58 56  2  0  0  0  0
 60 61  1  1  0  0  0
 60 59  1  0  0  0  0
 60 62  1  0  0  0  0
 62 63  1  0  0  0  0
M  END
>  <MODEL>
3

>  <REMARK>
 VINA RESULT:      -5.9      4.183      8.208
  Name = 
  19 active torsions:
  status: ('A' for Active; 'I' for Inactive)
    1  A    between atoms: N_1  and  C_2
    2  A    between atoms: C_2  and  O_29
    3  A    between atoms: C_3  and  O_36
    4  A    between atoms: C_4  and  C_55
    5  A    between atoms: C_7  and  C_35
    6  A    between atoms: C_7  and  N_44
    7  A    between atoms: N_9  and  C_23
    8  A    between atoms: N_9  and  C_37
    9  A    between atoms: C_22  and  O_29
   10  A    between atoms: C_24  and  C_39
   11  A    between atoms: C_30  and  C_48
   12  A    between atoms: C_32  and  C_62
   13  A    between atoms: C_37  and  C_54
   14  A    between atoms: C_37  and  C_55
   15  A    between atoms: C_39  and  N_45
   16  A    between atoms: C_48  and  C_63
   17  A    between atoms: C_52  and  C_53
   18  A    between atoms: C_52  and  C_62
   19  A    between atoms: C_53  and  C_63
                            x       y       z     vdW  Elec       q    Type
                         _______ _______ _______ _____ _____    ______ ____

>  <TORSDO>
F 19

$$$$
=
 OpenBabel10222415583D

 63 69  0  0  1  0  0  0  0  0999 V2000
  188.4760  178.2600  139.3120 C   0  0  1  0  0  3  0  0  0  0  0  0
  190.2740  176.4190  140.0090 S   0  0  0  0  0  0  0  0  0  0  0  0
  190.6230  177.4270  138.5420 C   0  0  2  0  0  3  0  0  0  0  0  0
  188.6460  177.2310  140.3790 C   0  0  1  0  0  3  0  0  0  0  0  0
  189.2900  178.0000  138.0890 C   0  0  0  0  0  2  0  0  0  0  0  0
  186.7160  177.9690  137.9010 C   0  0  0  0  0  1  0  0  0  0  0  0
  187.1710  178.6250  139.1070 O   0  0  0  0  0  0  0  0  0  0  0  0
  188.2270  177.6530  141.8500 C   0  0  2  0  0  3  0  0  0  0  0  0
  187.2490  178.7390  141.7560 N   0  0  0  0  0  2  0  0  0  0  0  0
  186.3160  178.8910  142.8120 C   0  0  2  0  0  3  0  0  0  0  0  0
  186.0310  177.5450  143.4060 C   0  0  0  0  0  2  0  0  0  0  0  0
  185.0490  178.2310  142.4660 N   0  0  0  0  0  0  0  0  0  0  0  0
  183.7870  178.6300  143.2100 C   0  0  0  0  0  2  0  0  0  0  0  0
  182.4850  178.1370  141.0000 C   0  0  0  0  0  0  0  0  0  0  0  0
  182.7000  179.0380  142.2120 C   0  0  1  0  0  3  0  0  0  0  0  0
  180.1020  178.4540  141.1670 C   0  0  0  0  0  2  0  0  0  0  0  0
  181.5120  179.0590  143.0020 O   0  0  0  0  0  0  0  0  0  0  0  0
  181.2810  178.2370  140.3220 N   0  0  0  0  0  0  0  0  0  0  0  0
  183.3600  177.2890  140.5890 O   0  0  0  0  0  0  0  0  0  0  0  0
  180.4530  179.5140  142.2110 C   0  0  0  0  0  2  0  0  0  0  0  0
  181.2360  178.4620  138.8690 C   0  0  0  0  0  2  0  0  0  0  0  0
  181.3470  180.7760  139.2970 F   0  0  0  0  0  0  0  0  0  0  0  0
  181.8730  179.8070  138.4870 C   0  0  0  0  0  0  0  0  0  0  0  0
  181.6250  180.1140  137.1710 F   0  0  0  0  0  0  0  0  0  0  0  0
  183.2280  179.7580  138.6840 F   0  0  0  0  0  0  0  0  0  0  0  0
  189.4030  178.1360  142.6140 C   0  0  0  0  0  2  0  0  0  0  0  0
  189.8860  177.1340  143.6940 C   0  0  2  0  0  3  0  0  0  0  0  0
  191.7140  175.5930  143.9810 N   0  0  0  0  0  0  0  0  0  0  0  0
  191.8950  175.9700  145.2020 C   0  0  0  0  0  0  0  0  0  0  0  0
  191.0890  176.5540  147.1990 N   0  0  0  0  0  0  0  0  0  0  0  0
  190.9400  176.7900  145.8380 N   0  0  0  0  0  0  0  0  0  0  0  0
  192.4480  175.3540  148.8350 C   0  0  0  0  0  1  0  0  0  0  0  0
  189.6670  177.1000  145.2120 C   0  0  1  0  0  3  0  0  0  0  0  0
  192.0510  175.7200  147.4020 C   0  0  0  0  0  0  0  0  0  0  0  0
  189.0730  178.3600  145.8260 C   0  0  0  0  0  1  0  0  0  0  0  0
  192.7110  175.2500  146.1830 N   0  0  0  0  0  2  0  0  0  0  0  0
  190.7380  176.2450  143.1540 C   0  0  0  0  0  2  0  0  0  0  0  0
  191.2460  176.7700  137.2770 C   0  0  0  0  0  2  0  0  0  0  0  0
  193.5240  177.0860  136.8580 F   0  0  0  0  0  0  0  0  0  0  0  0
  193.0300  175.4950  138.3880 F   0  0  0  0  0  0  0  0  0  0  0  0
  192.6240  176.1250  137.1940 C   0  0  0  0  0  0  0  0  0  0  0  0
  192.3890  175.1250  136.0840 C   0  0  0  0  0  2  0  0  0  0  0  0
  190.7300  176.0670  134.5940 O   0  0  0  0  0  0  0  0  0  0  0  0
  191.1060  175.1070  135.2620 C   0  0  0  0  0  0  0  0  0  0  0  0
  190.4010  173.8090  135.0480 C   0  0  0  0  0  2  0  0  0  0  0  0
  186.9660  172.8890  136.5890 C   0  0  2  0  0  3  0  0  0  0  0  0
  185.9820  171.9250  135.8890 C   0  0  1  0  0  3  0  0  0  0  0  0
  186.5910  174.3670  136.3750 C   0  0  0  0  0  2  0  0  0  0  0  0
  185.1100  174.5430  136.3250 C   0  0  2  0  0  3  0  0  0  0  0  0
  189.9070  173.3950  137.3530 O   0  0  0  0  0  0  0  0  0  0  0  0
  184.7190  174.0120  134.9040 C   0  0  1  0  0  3  0  0  0  0  0  0
  188.2280  172.5920  135.9700 N   0  0  0  0  0  0  0  0  0  0  0  0
  184.8170  175.8890  136.5830 O   0  0  0  0  0  1  0  0  0  0  0  0
  189.4970  173.2910  136.1600 C   0  0  0  0  0  0  0  0  0  0  0  0
  184.9510  172.4880  134.8610 C   0  0  0  0  0  2  0  0  0  0  0  0
  186.5350  169.6280  135.1440 O   0  0  0  0  0  0  0  0  0  0  0  0
  188.1920  171.3610  135.2510 N   0  0  0  0  0  2  0  0  0  0  0  0
  186.8730  170.8610  135.3620 C   0  0  0  0  0  0  0  0  0  0  0  0
  183.3680  174.3080  134.5940 O   0  0  0  0  0  0  0  0  0  0  0  0
  182.4170  173.7060  135.4960 C   0  0  1  0  0  3  0  0  0  0  0  0
  181.4890  174.7100  136.1650 C   0  0  0  0  0  1  0  0  0  0  0  0
  181.6440  172.5730  134.9530 N   0  0  0  0  0  2  0  0  0  0  0  0
  180.3550  172.9300  134.7170 O   0  0  0  0  0  1  0  0  0  0  0  0
  1  7  1  6  0  0  0
  1  4  1  0  0  0  0
  2  4  1  0  0  0  0
  3 38  1  6  0  0  0
  3  2  1  0  0  0  0
  4  8  1  1  0  0  0
  5  3  1  0  0  0  0
  5  1  1  0  0  0  0
  6  7  1  0  0  0  0
  8 26  1  1  0  0  0
  9  8  1  0  0  0  0
 10  9  1  6  0  0  0
 10 11  1  0  0  0  0
 12 10  1  0  0  0  0
 12 13  1  0  0  0  0
 12 11  1  0  0  0  0
 14 15  1  0  0  0  0
 15 17  1  0  0  0  0
 15 13  1  1  0  0  0
 16 20  1  0  0  0  0
 18 14  1  0  0  0  0
 18 16  1  0  0  0  0
 19 14  2  0  0  0  0
 20 17  1  0  0  0  0
 21 18  1  0  0  0  0
 23 25  1  0  0  0  0
 23 21  1  0  0  0  0
 23 22  1  0  0  0  0
 24 23  1  0  0  0  0
 27 26  1  1  0  0  0
 27 33  1  0  0  0  0
 28 29  2  0  0  0  0
 29 31  1  0  0  0  0
 29 36  1  0  0  0  0
 30 34  2  0  0  0  0
 31 30  1  0  0  0  0
 33 35  1  1  0  0  0
 33 31  1  0  0  0  0
 34 32  1  0  0  0  0
 36 34  1  0  0  0  0
 37 27  1  0  0  0  0
 37 28  1  0  0  0  0
 39 41  1  0  0  0  0
 41 38  1  0  0  0  0
 41 40  1  0  0  0  0
 42 41  1  0  0  0  0
 43 44  2  0  0  0  0
 44 42  1  0  0  0  0
 45 44  1  0  0  0  0
 45 54  1  0  0  0  0
 46 48  1  6  0  0  0
 47 55  1  6  0  0  0
 47 46  1  0  0  0  0
 49 48  1  0  0  0  0
 49 53  1  6  0  0  0
 51 59  1  1  0  0  0
 51 49  1  0  0  0  0
 52 54  1  0  0  0  0
 52 46  1  0  0  0  0
 54 50  2  0  0  0  0
 55 51  1  0  0  0  0
 56 58  2  0  0  0  0
 57 58  1  0  0  0  0
 57 52  1  0  0  0  0
 58 47  1  0  0  0  0
 59 60  1  0  0  0  0
 60 61  1  6  0  0  0
 62 60  1  0  0  0  0
 63 62  1  0  0  0  0
M  END
>  <MODEL>
4

>  <REMARK>
 VINA RESULT:      -5.8      3.796      7.737
  Name = 
  19 active torsions:
  status: ('A' for Active; 'I' for Inactive)
    1  A    between atoms: N_1  and  C_2
    2  A    between atoms: C_2  and  O_29
    3  A    between atoms: C_3  and  O_36
    4  A    between atoms: C_4  and  C_55
    5  A    between atoms: C_7  and  C_35
    6  A    between atoms: C_7  and  N_44
    7  A    between atoms: N_9  and  C_23
    8  A    between atoms: N_9  and  C_37
    9  A    between atoms: C_22  and  O_29
   10  A    between atoms: C_24  and  C_39
   11  A    between atoms: C_30  and  C_48
   12  A    between atoms: C_32  and  C_62
   13  A    between atoms: C_37  and  C_54
   14  A    between atoms: C_37  and  C_55
   15  A    between atoms: C_39  and  N_45
   16  A    between atoms: C_48  and  C_63
   17  A    between atoms: C_52  and  C_53
   18  A    between atoms: C_52  and  C_62
   19  A    between atoms: C_53  and  C_63
                            x       y       z     vdW  Elec       q    Type
                         _______ _______ _______ _____ _____    ______ ____

>  <TORSDO>
F 19

$$$$
=
 OpenBabel10222415583D

 63 69  0  0  1  0  0  0  0  0999 V2000
  187.2990  177.8670  138.0320 C   0  0  1  0  0  3  0  0  0  0  0  0
  186.0940  178.8300  140.2070 S   0  0  0  0  0  0  0  0  0  0  0  0
  185.0820  177.9010  139.0220 C   0  0  2  0  0  3  0  0  0  0  0  0
  187.6710  178.6560  139.2420 C   0  0  1  0  0  3  0  0  0  0  0  0
  185.8430  177.9130  137.7070 C   0  0  0  0  0  2  0  0  0  0  0  0
  187.4710  178.7980  135.9640 C   0  0  0  0  0  1  0  0  0  0  0  0
  188.1620  178.0360  136.9820 O   0  0  0  0  0  0  0  0  0  0  0  0
  189.0500  178.2900  139.9360 C   0  0  2  0  0  3  0  0  0  0  0  0
  189.9750  177.8200  138.9020 N   0  0  0  0  0  2  0  0  0  0  0  0
  190.7990  176.7060  139.2000 C   0  0  2  0  0  3  0  0  0  0  0  0
  192.2340  177.1040  139.0340 C   0  0  0  0  0  2  0  0  0  0  0  0
  191.5080  176.2640  137.9910 N   0  0  0  0  0  0  0  0  0  0  0  0
  192.0780  174.8570  137.9490 C   0  0  0  0  0  2  0  0  0  0  0  0
  194.4700  174.9130  136.9000 C   0  0  0  0  0  0  0  0  0  0  0  0
  192.9710  174.6940  136.7160 C   0  0  1  0  0  3  0  0  0  0  0  0
  194.9370  173.0760  135.4110 C   0  0  0  0  0  2  0  0  0  0  0  0
  192.7370  173.3460  136.3110 O   0  0  0  0  0  0  0  0  0  0  0  0
  195.3250  174.3860  135.9460 N   0  0  0  0  0  0  0  0  0  0  0  0
  194.9700  175.5510  137.8980 O   0  0  0  0  0  0  0  0  0  0  0  0
  193.4360  173.1040  135.1230 C   0  0  0  0  0  2  0  0  0  0  0  0
  196.3310  175.2220  135.2740 C   0  0  0  0  0  2  0  0  0  0  0  0
  197.9460  174.5700  136.8600 F   0  0  0  0  0  0  0  0  0  0  0  0
  197.7530  174.6920  135.5100 C   0  0  0  0  0  0  0  0  0  0  0  0
  198.6920  175.5450  134.9800 F   0  0  0  0  0  0  0  0  0  0  0  0
  197.8970  173.4580  134.9320 F   0  0  0  0  0  0  0  0  0  0  0  0
  188.8660  177.2110  140.9370 C   0  0  0  0  0  2  0  0  0  0  0  0
  188.6650  177.7410  142.3800 C   0  0  2  0  0  3  0  0  0  0  0  0
  186.9850  177.5910  144.0990 N   0  0  0  0  0  0  0  0  0  0  0  0
  187.8750  177.3860  145.0100 C   0  0  0  0  0  0  0  0  0  0  0  0
  189.8530  177.8410  145.9360 N   0  0  0  0  0  0  0  0  0  0  0  0
  189.2430  177.5730  144.7180 N   0  0  0  0  0  0  0  0  0  0  0  0
  189.4380  177.9840  148.3380 C   0  0  0  0  0  1  0  0  0  0  0  0
  189.6790  178.1490  143.4580 C   0  0  1  0  0  3  0  0  0  0  0  0
  188.9870  177.7860  146.8890 C   0  0  0  0  0  0  0  0  0  0  0  0
  191.1280  177.7720  143.1820 C   0  0  0  0  0  1  0  0  0  0  0  0
  187.6260  177.4710  146.4510 N   0  0  0  0  0  2  0  0  0  0  0  0
  187.3650  177.6880  142.7170 C   0  0  0  0  0  2  0  0  0  0  0  0
  183.6460  178.3900  138.6760 C   0  0  0  0  0  2  0  0  0  0  0  0
  182.0990  177.3070  140.0550 F   0  0  0  0  0  0  0  0  0  0  0  0
  182.8210  179.3190  140.7970 F   0  0  0  0  0  0  0  0  0  0  0  0
  182.4950  178.5470  139.6630 C   0  0  0  0  0  0  0  0  0  0  0  0
  181.4780  179.2400  138.7850 C   0  0  0  0  0  2  0  0  0  0  0  0
  179.0890  179.6130  138.6570 O   0  0  0  0  0  0  0  0  0  0  0  0
  180.0170  178.8110  138.7360 C   0  0  0  0  0  0  0  0  0  0  0  0
  179.6920  177.3700  138.5200 C   0  0  0  0  0  2  0  0  0  0  0  0
  181.1360  175.4460  135.4820 C   0  0  2  0  0  3  0  0  0  0  0  0
  181.5830  173.9700  135.5800 C   0  0  1  0  0  3  0  0  0  0  0  0
  182.3220  176.4250  135.5570 C   0  0  0  0  0  2  0  0  0  0  0  0
  183.5320  175.8520  134.8990 C   0  0  2  0  0  3  0  0  0  0  0  0
  178.9610  177.4910  136.2440 O   0  0  0  0  0  0  0  0  0  0  0  0
  184.0550  174.7980  135.9320 C   0  0  1  0  0  3  0  0  0  0  0  0
  180.2690  175.6120  136.6160 N   0  0  0  0  0  0  0  0  0  0  0  0
  184.4080  176.9040  134.5940 O   0  0  0  0  0  1  0  0  0  0  0  0
  179.6530  176.8490  137.0890 C   0  0  0  0  0  0  0  0  0  0  0  0
  183.0450  173.6350  136.0120 C   0  0  0  0  0  2  0  0  0  0  0  0
  180.1650  172.1090  136.3930 O   0  0  0  0  0  0  0  0  0  0  0  0
  179.8740  174.3600  137.1720 N   0  0  0  0  0  2  0  0  0  0  0  0
  180.5260  173.3540  136.4200 C   0  0  0  0  0  0  0  0  0  0  0  0
  185.3350  174.3080  135.5710 O   0  0  0  0  0  0  0  0  0  0  0  0
  186.2770  174.2770  136.6640 C   0  0  1  0  0  3  0  0  0  0  0  0
  186.1500  173.0440  137.5450 C   0  0  0  0  0  1  0  0  0  0  0  0
  187.6880  174.5090  136.3020 N   0  0  0  0  0  2  0  0  0  0  0  0
  188.0400  173.7750  135.2150 O   0  0  0  0  0  1  0  0  0  0  0  0
  1  7  1  6  0  0  0
  1  4  1  0  0  0  0
  3 38  1  6  0  0  0
  3  2  1  0  0  0  0
  4  8  1  1  0  0  0
  4  2  1  0  0  0  0
  5  1  1  0  0  0  0
  5  3  1  0  0  0  0
  6  7  1  0  0  0  0
  8 26  1  1  0  0  0
  9  8  1  0  0  0  0
 10  9  1  6  0  0  0
 11 10  1  0  0  0  0
 12 11  1  0  0  0  0
 12 10  1  0  0  0  0
 13 12  1  0  0  0  0
 14 19  2  0  0  0  0
 15 14  1  0  0  0  0
 15 13  1  1  0  0  0
 16 18  1  0  0  0  0
 17 15  1  0  0  0  0
 18 14  1  0  0  0  0
 20 16  1  0  0  0  0
 20 17  1  0  0  0  0
 21 23  1  0  0  0  0
 21 18  1  0  0  0  0
 23 22  1  0  0  0  0
 24 23  1  0  0  0  0
 25 23  1  0  0  0  0
 27 26  1  1  0  0  0
 27 37  1  0  0  0  0
 27 33  1  0  0  0  0
 28 29  2  0  0  0  0
 29 36  1  0  0  0  0
 30 34  2  0  0  0  0
 31 29  1  0  0  0  0
 31 30  1  0  0  0  0
 33 35  1  6  0  0  0
 33 31  1  0  0  0  0
 34 32  1  0  0  0  0
 36 34  1  0  0  0  0
 37 28  1  0  0  0  0
 38 41  1  0  0  0  0
 41 39  1  0  0  0  0
 41 40  1  0  0  0  0
 42 41  1  0  0  0  0
 43 44  2  0  0  0  0
 44 42  1  0  0  0  0
 45 44  1  0  0  0  0
 46 48  1  1  0  0  0
 46 47  1  0  0  0  0
 46 52  1  0  0  0  0
 47 55  1  1  0  0  0
 47 58  1  0  0  0  0
 49 53  1  1  0  0  0
 49 48  1  0  0  0  0
 49 51  1  0  0  0  0
 50 54  2  0  0  0  0
 51 59  1  6  0  0  0
 51 55  1  0  0  0  0
 52 54  1  0  0  0  0
 52 57  1  0  0  0  0
 54 45  1  0  0  0  0
 56 58  2  0  0  0  0
 58 57  1  0  0  0  0
 59 60  1  0  0  0  0
 60 61  1  6  0  0  0
 62 60  1  0  0  0  0
 63 62  1  0  0  0  0
M  END
>  <MODEL>
5

>  <REMARK>
 VINA RESULT:      -5.4      4.108     11.143
  Name = 
  19 active torsions:
  status: ('A' for Active; 'I' for Inactive)
    1  A    between atoms: N_1  and  C_2
    2  A    between atoms: C_2  and  O_29
    3  A    between atoms: C_3  and  O_36
    4  A    between atoms: C_4  and  C_55
    5  A    between atoms: C_7  and  C_35
    6  A    between atoms: C_7  and  N_44
    7  A    between atoms: N_9  and  C_23
    8  A    between atoms: N_9  and  C_37
    9  A    between atoms: C_22  and  O_29
   10  A    between atoms: C_24  and  C_39
   11  A    between atoms: C_30  and  C_48
   12  A    between atoms: C_32  and  C_62
   13  A    between atoms: C_37  and  C_54
   14  A    between atoms: C_37  and  C_55
   15  A    between atoms: C_39  and  N_45
   16  A    between atoms: C_48  and  C_63
   17  A    between atoms: C_52  and  C_53
   18  A    between atoms: C_52  and  C_62
   19  A    between atoms: C_53  and  C_63
                            x       y       z     vdW  Elec       q    Type
                         _______ _______ _______ _____ _____    ______ ____

>  <TORSDO>
F 19

$$$$
=
 OpenBabel10222415583D

 63 69  0  0  1  0  0  0  0  0999 V2000
  180.7570  178.5610  142.5820 C   0  0  1  0  0  3  0  0  0  0  0  0
  183.0410  178.5640  141.2060 S   0  0  0  0  0  0  0  0  0  0  0  0
  183.1450  178.6420  143.0160 C   0  0  2  0  0  3  0  0  0  0  0  0
  181.1850  178.5130  141.1540 C   0  0  1  0  0  3  0  0  0  0  0  0
  181.7880  179.1240  143.5020 C   0  0  0  0  0  2  0  0  0  0  0  0
  179.1700  178.9390  144.1660 C   0  0  0  0  0  1  0  0  0  0  0  0
  179.4760  179.0150  142.7540 O   0  0  0  0  0  0  0  0  0  0  0  0
  180.3940  177.5190  140.2040 C   0  0  2  0  0  3  0  0  0  0  0  0
  181.3690  176.7560  139.4230 N   0  0  0  0  0  2  0  0  0  0  0  0
  180.9180  176.0950  138.2530 C   0  0  2  0  0  3  0  0  0  0  0  0
  180.3020  174.7850  138.6400 C   0  0  0  0  0  2  0  0  0  0  0  0
  181.6960  174.8680  138.0330 N   0  0  0  0  0  0  0  0  0  0  0  0
  181.7110  174.2490  136.6460 C   0  0  0  0  0  2  0  0  0  0  0  0
  184.2320  174.8250  136.2730 C   0  0  0  0  0  0  0  0  0  0  0  0
  183.1260  173.7750  136.3030 C   0  0  1  0  0  3  0  0  0  0  0  0
  185.7610  173.2670  137.2930 C   0  0  0  0  0  2  0  0  0  0  0  0
  183.4130  172.8160  137.3190 O   0  0  0  0  0  0  0  0  0  0  0  0
  185.5430  174.3910  136.3760 N   0  0  0  0  0  0  0  0  0  0  0  0
  184.0020  176.0860  136.1680 O   0  0  0  0  0  0  0  0  0  0  0  0
  184.6580  172.2370  137.0550 C   0  0  0  0  0  2  0  0  0  0  0  0
  186.5600  174.7860  135.3890 C   0  0  0  0  0  2  0  0  0  0  0  0
  187.0700  176.3040  137.1160 F   0  0  0  0  0  0  0  0  0  0  0  0
  187.2310  176.1140  135.7710 C   0  0  0  0  0  0  0  0  0  0  0  0
  186.6730  177.1640  135.0810 F   0  0  0  0  0  0  0  0  0  0  0  0
  188.5710  176.0610  135.4910 F   0  0  0  0  0  0  0  0  0  0  0  0
  179.5170  178.2670  139.2710 C   0  0  0  0  0  2  0  0  0  0  0  0
  180.1850  179.5410  138.6900 C   0  0  2  0  0  3  0  0  0  0  0  0
  180.8620  180.3470  136.5230 N   0  0  0  0  0  0  0  0  0  0  0  0
  180.3760  181.5180  136.7620 C   0  0  0  0  0  0  0  0  0  0  0  0
  180.0440  183.2470  138.1330 N   0  0  0  0  0  0  0  0  0  0  0  0
  179.9630  181.8620  138.0670 N   0  0  0  0  0  0  0  0  0  0  0  0
  180.5170  185.2410  136.8060 C   0  0  0  0  0  1  0  0  0  0  0  0
  180.2170  180.9880  139.1980 C   0  0  1  0  0  3  0  0  0  0  0  0
  180.4180  183.7250  136.9960 C   0  0  0  0  0  0  0  0  0  0  0  0
  179.2610  181.3120  140.3370 C   0  0  0  0  0  1  0  0  0  0  0  0
  180.6580  182.7150  135.9650 N   0  0  0  0  0  2  0  0  0  0  0  0
  180.6950  179.2820  137.4720 C   0  0  0  0  0  2  0  0  0  0  0  0
  184.1870  179.5770  143.6940 C   0  0  0  0  0  2  0  0  0  0  0  0
  185.4410  180.5170  145.4280 F   0  0  0  0  0  0  0  0  0  0  0  0
  183.8780  179.0120  146.0670 F   0  0  0  0  0  0  0  0  0  0  0  0
  184.8090  179.3690  145.0700 C   0  0  0  0  0  0  0  0  0  0  0  0
  185.7670  178.2390  144.7660 C   0  0  0  0  0  2  0  0  0  0  0  0
  186.5400  176.2700  145.9430 O   0  0  0  0  0  0  0  0  0  0  0  0
  186.5230  177.4960  145.8600 C   0  0  0  0  0  0  0  0  0  0  0  0
  187.4840  178.2500  146.7170 C   0  0  0  0  0  2  0  0  0  0  0  0
  190.7970  177.2370  144.9790 C   0  0  2  0  0  3  0  0  0  0  0  0
  191.4690  178.1260  143.9080 C   0  0  1  0  0  3  0  0  0  0  0  0
  189.9960  176.0770  144.3600 C   0  0  0  0  0  2  0  0  0  0  0  0
  190.6560  175.5720  143.1200 C   0  0  2  0  0  3  0  0  0  0  0  0
  189.3870  177.1970  147.7180 O   0  0  0  0  0  0  0  0  0  0  0  0
  190.3190  176.6630  142.0480 C   0  0  1  0  0  3  0  0  0  0  0  0
  189.9230  178.1440  145.6690 N   0  0  0  0  0  0  0  0  0  0  0  0
  190.1740  174.2810  142.8590 O   0  0  0  0  0  1  0  0  0  0  0  0
  188.9460  177.8200  146.7070 C   0  0  0  0  0  0  0  0  0  0  0  0
  191.0680  177.9620  142.4080 C   0  0  0  0  0  2  0  0  0  0  0  0
  192.0780  180.5070  144.2180 O   0  0  0  0  0  0  0  0  0  0  0  0
  190.2330  179.5060  145.3830 N   0  0  0  0  0  2  0  0  0  0  0  0
  191.3010  179.4950  144.4550 C   0  0  0  0  0  0  0  0  0  0  0  0
  190.6790  176.2380  140.7450 O   0  0  0  0  0  0  0  0  0  0  0  0
  190.4600  177.2360  139.7260 C   0  0  1  0  0  3  0  0  0  0  0  0
  191.2160  176.9640  138.4330 C   0  0  0  0  0  1  0  0  0  0  0  0
  189.0510  177.5640  139.4390 N   0  0  0  0  0  2  0  0  0  0  0  0
  188.9050  178.8830  139.1540 O   0  0  0  0  0  1  0  0  0  0  0  0
  1  7  1  6  0  0  0
  1  5  1  0  0  0  0
  2  3  1  0  0  0  0
  3  5  1  0  0  0  0
  3 38  1  6  0  0  0
  4  8  1  1  0  0  0
  4  2  1  0  0  0  0
  4  1  1  0  0  0  0
  7  6  1  0  0  0  0
  8 26  1  6  0  0  0
  9  8  1  0  0  0  0
 10 11  1  0  0  0  0
 10  9  1  1  0  0  0
 12 10  1  0  0  0  0
 12 11  1  0  0  0  0
 13 12  1  0  0  0  0
 14 15  1  0  0  0  0
 14 18  1  0  0  0  0
 15 13  1  1  0  0  0
 15 17  1  0  0  0  0
 18 16  1  0  0  0  0
 19 14  2  0  0  0  0
 20 16  1  0  0  0  0
 20 17  1  0  0  0  0
 21 23  1  0  0  0  0
 21 18  1  0  0  0  0
 23 22  1  0  0  0  0
 24 23  1  0  0  0  0
 25 23  1  0  0  0  0
 27 33  1  0  0  0  0
 27 26  1  6  0  0  0
 28 29  2  0  0  0  0
 28 37  1  0  0  0  0
 29 31  1  0  0  0  0
 31 30  1  0  0  0  0
 31 33  1  0  0  0  0
 32 34  1  0  0  0  0
 33 35  1  1  0  0  0
 34 30  2  0  0  0  0
 36 29  1  0  0  0  0
 36 34  1  0  0  0  0
 37 27  1  0  0  0  0
 38 41  1  0  0  0  0
 41 39  1  0  0  0  0
 41 40  1  0  0  0  0
 42 41  1  0  0  0  0
 42 44  1  0  0  0  0
 44 43  2  0  0  0  0
 44 45  1  0  0  0  0
 46 48  1  6  0  0  0
 46 52  1  0  0  0  0
 47 55  1  6  0  0  0
 47 58  1  0  0  0  0
 47 46  1  0  0  0  0
 49 53  1  6  0  0  0
 49 48  1  0  0  0  0
 51 59  1  6  0  0  0
 51 55  1  0  0  0  0
 51 49  1  0  0  0  0
 52 54  1  0  0  0  0
 54 45  1  0  0  0  0
 54 50  2  0  0  0  0
 56 58  2  0  0  0  0
 57 52  1  0  0  0  0
 58 57  1  0  0  0  0
 60 61  1  6  0  0  0
 60 59  1  0  0  0  0
 62 60  1  0  0  0  0
 63 62  1  0  0  0  0
M  END
>  <MODEL>
6

>  <REMARK>
 VINA RESULT:      -5.2      3.630      7.184
  Name = 
  19 active torsions:
  status: ('A' for Active; 'I' for Inactive)
    1  A    between atoms: N_1  and  C_2
    2  A    between atoms: C_2  and  O_29
    3  A    between atoms: C_3  and  O_36
    4  A    between atoms: C_4  and  C_55
    5  A    between atoms: C_7  and  C_35
    6  A    between atoms: C_7  and  N_44
    7  A    between atoms: N_9  and  C_23
    8  A    between atoms: N_9  and  C_37
    9  A    between atoms: C_22  and  O_29
   10  A    between atoms: C_24  and  C_39
   11  A    between atoms: C_30  and  C_48
   12  A    between atoms: C_32  and  C_62
   13  A    between atoms: C_37  and  C_54
   14  A    between atoms: C_37  and  C_55
   15  A    between atoms: C_39  and  N_45
   16  A    between atoms: C_48  and  C_63
   17  A    between atoms: C_52  and  C_53
   18  A    between atoms: C_52  and  C_62
   19  A    between atoms: C_53  and  C_63
                            x       y       z     vdW  Elec       q    Type
                         _______ _______ _______ _____ _____    ______ ____

>  <TORSDO>
F 19

$$$$
=
 OpenBabel10222415583D

 63 69  0  0  1  0  0  0  0  0999 V2000
  187.5580  177.0690  137.1820 C   0  0  1  0  0  3  0  0  0  0  0  0
  188.9520  174.7990  137.2960 S   0  0  0  0  0  0  0  0  0  0  0  0
  187.8720  175.0560  135.8610 C   0  0  2  0  0  3  0  0  0  0  0  0
  188.5340  176.4180  138.1030 C   0  0  1  0  0  3  0  0  0  0  0  0
  186.8620  176.1150  136.2700 C   0  0  0  0  0  2  0  0  0  0  0  0
  185.3910  177.6360  137.5750 C   0  0  0  0  0  1  0  0  0  0  0  0
  186.7710  178.0090  137.7940 O   0  0  0  0  0  0  0  0  0  0  0  0
  189.6430  177.3540  138.7440 C   0  0  2  0  0  3  0  0  0  0  0  0
  190.8030  177.3710  137.8500 N   0  0  0  0  0  2  0  0  0  0  0  0
  191.5100  176.1580  137.6490 C   0  0  2  0  0  3  0  0  0  0  0  0
  192.8960  176.3060  138.1970 C   0  0  0  0  0  2  0  0  0  0  0  0
  192.6130  176.3670  136.7020 N   0  0  0  0  0  0  0  0  0  0  0  0
  193.2110  175.1620  135.9960 C   0  0  0  0  0  2  0  0  0  0  0  0
  195.5090  173.9240  136.0920 C   0  0  0  0  0  0  0  0  0  0  0  0
  194.7390  175.2400  136.0370 C   0  0  1  0  0  3  0  0  0  0  0  0
  197.1740  174.8160  134.5940 C   0  0  0  0  0  2  0  0  0  0  0  0
  195.0710  175.9310  134.8330 O   0  0  0  0  0  0  0  0  0  0  0  0
  196.8440  173.9360  135.7200 N   0  0  0  0  0  0  0  0  0  0  0  0
  194.9760  172.8120  136.4540 O   0  0  0  0  0  0  0  0  0  0  0  0
  196.4520  176.1480  134.8030 C   0  0  0  0  0  2  0  0  0  0  0  0
  197.8890  173.3930  136.6020 C   0  0  0  0  0  2  0  0  0  0  0  0
  199.1770  173.8890  138.5100 F   0  0  0  0  0  0  0  0  0  0  0  0
  197.9740  174.1730  137.9220 C   0  0  0  0  0  0  0  0  0  0  0  0
  196.9480  173.8240  138.7680 F   0  0  0  0  0  0  0  0  0  0  0  0
  197.9110  175.5190  137.6780 F   0  0  0  0  0  0  0  0  0  0  0  0
  190.0690  176.8370  140.0670 C   0  0  0  0  0  2  0  0  0  0  0  0
  189.3240  177.5000  141.2540 C   0  0  2  0  0  3  0  0  0  0  0  0
  187.1750  178.5160  141.6430 N   0  0  0  0  0  0  0  0  0  0  0  0
  187.0420  177.9010  142.7700 C   0  0  0  0  0  0  0  0  0  0  0  0
  187.8870  177.1740  144.7030 N   0  0  0  0  0  0  0  0  0  0  0  0
  188.1390  177.2180  143.3380 N   0  0  0  0  0  0  0  0  0  0  0  0
  186.2230  177.7330  146.4010 C   0  0  0  0  0  1  0  0  0  0  0  0
  189.4710  177.3170  142.7700 C   0  0  1  0  0  3  0  0  0  0  0  0
  186.7490  177.7210  144.9620 C   0  0  0  0  0  0  0  0  0  0  0  0
  190.3210  176.1360  143.2160 C   0  0  0  0  0  1  0  0  0  0  0  0
  186.0440  178.2360  143.7880 N   0  0  0  0  0  2  0  0  0  0  0  0
  188.3070  178.2550  140.8000 C   0  0  0  0  0  2  0  0  0  0  0  0
  187.0310  173.8730  135.3000 C   0  0  0  0  0  2  0  0  0  0  0  0
  187.2380  171.5870  134.8550 F   0  0  0  0  0  0  0  0  0  0  0  0
  187.9120  172.2400  136.9130 F   0  0  0  0  0  0  0  0  0  0  0  0
  186.9920  172.4580  135.8680 C   0  0  0  0  0  0  0  0  0  0  0  0
  185.5620  172.4030  136.3580 C   0  0  0  0  0  2  0  0  0  0  0  0
  183.9160  172.2110  134.5940 O   0  0  0  0  0  0  0  0  0  0  0  0
  184.3910  172.8790  135.5090 C   0  0  0  0  0  0  0  0  0  0  0  0
  183.6190  174.0800  135.9460 C   0  0  0  0  0  2  0  0  0  0  0  0
  180.1060  175.1770  137.1600 C   0  0  2  0  0  3  0  0  0  0  0  0
  179.5970  176.6280  137.0040 C   0  0  1  0  0  3  0  0  0  0  0  0
  180.6200  174.8860  138.5820 C   0  0  0  0  0  2  0  0  0  0  0  0
  179.8240  175.6290  139.6030 C   0  0  2  0  0  3  0  0  0  0  0  0
  181.5760  172.8440  135.7850 O   0  0  0  0  0  0  0  0  0  0  0  0
  180.3440  177.1010  139.4820 C   0  0  1  0  0  3  0  0  0  0  0  0
  181.1770  175.0900  136.2060 N   0  0  0  0  0  0  0  0  0  0  0  0
  180.0130  175.0080  140.8460 O   0  0  0  0  0  1  0  0  0  0  0  0
  182.1000  173.9750  136.0070 C   0  0  0  0  0  0  0  0  0  0  0  0
  179.9000  177.6750  138.1210 C   0  0  0  0  0  2  0  0  0  0  0  0
  179.5160  177.8790  134.8680 O   0  0  0  0  0  0  0  0  0  0  0  0
  181.1500  176.1690  135.2750 N   0  0  0  0  0  2  0  0  0  0  0  0
  180.0700  177.0040  135.6480 C   0  0  0  0  0  0  0  0  0  0  0  0
  179.8540  177.9120  140.5360 O   0  0  0  0  0  0  0  0  0  0  0  0
  180.6750  179.0660  140.8120 C   0  0  1  0  0  3  0  0  0  0  0  0
  180.3510  179.7430  142.1360 C   0  0  0  0  0  1  0  0  0  0  0  0
  182.1300  178.8660  140.6790 N   0  0  0  0  0  2  0  0  0  0  0  0
  182.7280  178.8020  141.8970 O   0  0  0  0  0  1  0  0  0  0  0  0
  1  7  1  1  0  0  0
  1  4  1  0  0  0  0
  2  4  1  0  0  0  0
  3 38  1  1  0  0  0
  3  5  1  0  0  0  0
  3  2  1  0  0  0  0
  4  8  1  6  0  0  0
  5  1  1  0  0  0  0
  6  7  1  0  0  0  0
  8 26  1  1  0  0  0
  9  8  1  0  0  0  0
 10  9  1  1  0  0  0
 10 11  1  0  0  0  0
 12 10  1  0  0  0  0
 12 11  1  0  0  0  0
 13 12  1  0  0  0  0
 14 19  2  0  0  0  0
 15 13  1  6  0  0  0
 15 14  1  0  0  0  0
 16 20  1  0  0  0  0
 16 18  1  0  0  0  0
 17 15  1  0  0  0  0
 18 14  1  0  0  0  0
 18 21  1  0  0  0  0
 20 17  1  0  0  0  0
 21 23  1  0  0  0  0
 23 22  1  0  0  0  0
 23 24  1  0  0  0  0
 25 23  1  0  0  0  0
 27 26  1  6  0  0  0
 27 33  1  0  0  0  0
 28 29  2  0  0  0  0
 29 31  1  0  0  0  0
 29 36  1  0  0  0  0
 30 34  2  0  0  0  0
 31 30  1  0  0  0  0
 33 35  1  6  0  0  0
 33 31  1  0  0  0  0
 34 32  1  0  0  0  0
 36 34  1  0  0  0  0
 37 27  1  0  0  0  0
 37 28  1  0  0  0  0
 38 41  1  0  0  0  0
 39 41  1  0  0  0  0
 41 42  1  0  0  0  0
 41 40  1  0  0  0  0
 43 44  2  0  0  0  0
 44 45  1  0  0  0  0
 44 42  1  0  0  0  0
 45 54  1  0  0  0  0
 46 48  1  1  0  0  0
 47 46  1  0  0  0  0
 47 55  1  1  0  0  0
 48 49  1  0  0  0  0
 49 53  1  1  0  0  0
 50 54  2  0  0  0  0
 51 49  1  0  0  0  0
 51 59  1  1  0  0  0
 52 46  1  0  0  0  0
 54 52  1  0  0  0  0
 55 51  1  0  0  0  0
 56 58  2  0  0  0  0
 57 58  1  0  0  0  0
 57 52  1  0  0  0  0
 58 47  1  0  0  0  0
 59 60  1  0  0  0  0
 60 61  1  1  0  0  0
 62 60  1  0  0  0  0
 62 63  1  0  0  0  0
M  END
>  <MODEL>
7

>  <REMARK>
 VINA RESULT:      -5.1      4.065     12.328
  Name = 
  19 active torsions:
  status: ('A' for Active; 'I' for Inactive)
    1  A    between atoms: N_1  and  C_2
    2  A    between atoms: C_2  and  O_29
    3  A    between atoms: C_3  and  O_36
    4  A    between atoms: C_4  and  C_55
    5  A    between atoms: C_7  and  C_35
    6  A    between atoms: C_7  and  N_44
    7  A    between atoms: N_9  and  C_23
    8  A    between atoms: N_9  and  C_37
    9  A    between atoms: C_22  and  O_29
   10  A    between atoms: C_24  and  C_39
   11  A    between atoms: C_30  and  C_48
   12  A    between atoms: C_32  and  C_62
   13  A    between atoms: C_37  and  C_54
   14  A    between atoms: C_37  and  C_55
   15  A    between atoms: C_39  and  N_45
   16  A    between atoms: C_48  and  C_63
   17  A    between atoms: C_52  and  C_53
   18  A    between atoms: C_52  and  C_62
   19  A    between atoms: C_53  and  C_63
                            x       y       z     vdW  Elec       q    Type
                         _______ _______ _______ _____ _____    ______ ____

>  <TORSDO>
F 19

$$$$
