=
 OpenBabel10222415213D

 60 68  0  0  1  0  0  0  0  0999 V2000
  186.6960  177.9530  143.8550 C   0  0  2  0  0  3  0  0  0  0  0  0
  187.5120  178.5160  140.7110 C   0  0  2  0  0  3  0  0  0  0  0  0
  183.7510  179.0870  139.9250 C   0  0  0  0  0  2  0  0  0  0  0  0
  188.3060  177.8840  141.8760 C   0  0  2  0  0  3  0  0  0  0  0  0
  185.9930  178.6210  140.9530 C   0  0  2  0  0  3  0  0  0  0  0  0
  186.6680  177.3560  138.5920 C   0  0  0  0  0  2  0  0  0  0  0  0
  185.4190  178.5000  143.2120 C   0  0  0  0  0  2  0  0  0  0  0  0
  183.1780  178.5980  138.6100 C   0  0  0  0  0  2  0  0  0  0  0  0
  185.5860  178.4270  138.4300 C   0  0  2  0  0  3  0  0  0  0  0  0
  187.8730  177.9530  139.3100 C   0  0  2  0  0  3  0  0  0  0  0  0
  185.2570  179.1870  139.7320 C   0  0  1  0  0  3  0  0  0  0  0  0
  187.4740  177.0750  142.8770 C   0  0  0  0  0  2  0  0  0  0  0  0
  185.7310  179.4260  142.1370 N   0  0  0  0  0  2  0  0  0  0  0  0
  184.2910  177.7930  137.9700 C   0  0  2  0  0  3  0  0  0  0  0  0
  188.9690  176.9880  139.3510 N   0  0  0  0  0  2  0  0  0  0  0  0
  190.0490  177.0420  138.4150 C   0  0  0  0  0  0  0  0  0  0  0  0
  190.0260  177.8730  137.4590 O   0  0  0  0  0  0  0  0  0  0  0  0
  193.2880  176.3880  137.5600 C   0  0  0  0  0  0  0  0  0  0  0  0
  191.1820  176.0780  138.5490 C   0  0  2  0  0  3  0  0  0  0  0  0
  192.1950  176.6000  139.4530 N   0  0  0  0  0  2  0  0  0  0  0  0
  191.9160  175.9240  137.2130 C   0  0  0  0  0  2  0  0  0  0  0  0
  193.4100  176.7490  138.7870 N   0  0  0  0  0  0  0  0  0  0  0  0
  194.3500  176.4440  136.6630 O   0  0  0  0  0  0  0  0  0  0  0  0
  194.2240  175.9380  135.4270 O   0  0  0  0  0  0  0  0  0  0  0  0
  196.9390  174.6050  136.9320 C   0  0  2  0  0  3  0  0  0  0  0  0
  196.0320  173.4710  136.8070 N   0  0  0  0  0  2  0  0  0  0  0  0
  195.2330  174.9770  135.3290 C   0  0  2  0  0  3  0  0  0  0  0  0
  197.0010  176.5630  135.5780 O   0  0  0  0  0  0  0  0  0  0  0  0
  194.8900  173.8680  136.1380 O   0  0  0  0  0  0  0  0  0  0  0  0
  196.4780  175.5040  135.8890 C   0  0  0  0  0  0  0  0  0  0  0  0
  198.8070  173.9350  135.4090 O   0  0  0  0  0  0  0  0  0  0  0  0
  199.1620  174.0410  137.6730 O   0  0  0  0  0  1  0  0  0  0  0  0
  198.3640  174.1800  136.7040 C   0  0  0  0  0  0  0  0  0  0  0  0
  186.3310  177.1130  145.0660 C   0  0  0  0  0  2  0  0  0  0  0  0
  186.5540  177.8980  146.3440 C   0  0  0  0  0  1  0  0  0  0  0  0
  189.0760  178.8510  142.5250 O   0  0  0  0  0  0  0  0  0  0  0  0
  190.3810  178.3500  142.4870 C   0  0  0  0  0  2  0  0  0  0  0  0
  191.0740  178.3420  144.1630 P   0  0  0  0  0  0  0  0  0  0  0  0
  189.8260  178.4870  145.2970 O   0  0  0  0  0  1  0  0  0  0  0  0
  191.8080  177.0420  144.3930 O   0  0  0  0  0  1  0  0  0  0  0  0
  192.1470  179.6420  144.3450 O   0  0  0  0  0  0  0  0  0  0  0  0
  184.1700  177.7350  136.4500 C   0  0  0  0  0  2  0  0  0  0  0  0
  182.2900  176.2230  135.5510 C   0  0  1  0  0  3  0  0  0  0  0  0
  183.7660  176.3500  135.9400 C   0  0  2  0  0  3  0  0  0  0  0  0
  182.7690  175.7390  136.9060 C   0  0  0  0  0  2  0  0  0  0  0  0
  180.2020  177.5440  136.1200 C   0  0  0  0  0  0  0  0  0  0  0  0
  181.5640  177.4850  135.6960 N   0  0  0  0  0  2  0  0  0  0  0  0
  179.5620  176.4800  136.3560 O   0  0  0  0  0  0  0  0  0  0  0  0
  179.6970  179.8780  138.4560 C   0  0  0  0  0  2  0  0  0  0  0  0
  180.3060  180.8360  135.1110 N   0  0  0  0  0  2  0  0  0  0  0  0
  179.7260  181.9970  137.1670 C   0  0  1  0  0  3  0  0  0  0  0  0
  180.1610  184.3710  137.1560 O   0  0  0  0  0  0  0  0  0  0  0  0
  180.5030  180.7560  137.5250 C   0  0  2  0  0  3  0  0  0  0  0  0
  180.2760  183.2070  137.9260 C   0  0  0  0  0  2  0  0  0  0  0  0
  178.9310  178.9420  137.6520 N   0  0  0  0  0  2  0  0  0  0  0  0
  181.1550  184.2480  136.1860 C   0  0  0  0  0  2  0  0  0  0  0  0
  180.6130  179.9700  136.2480 C   0  0  1  0  0  3  0  0  0  0  0  0
  179.5720  178.8760  136.3440 C   0  0  1  0  0  3  0  0  0  0  0  0
  180.7280  183.2540  135.1070 C   0  0  0  0  0  2  0  0  0  0  0  0
  179.8400  182.1130  135.6410 C   0  0  1  0  0  3  0  0  0  0  0  0
  1 34  1  1  0  0  0
  2  5  1  0  0  0  0
  2  4  1  0  0  0  0
  4 36  1  0  0  0  0
  4 12  1  0  0  0  0
  5 13  1  0  0  0  0
  6 10  1  0  0  0  0
  7  1  1  0  0  0  0
  8  3  1  0  0  0  0
  9  6  1  0  0  0  0
  9 11  1  0  0  0  0
 10 15  1  0  0  0  0
 10  2  1  0  0  0  0
 11  3  1  0  0  0  0
 11  5  1  0  0  0  0
 12  1  1  0  0  0  0
 13  7  1  0  0  0  0
 14  9  1  0  0  0  0
 14  8  1  0  0  0  0
 16 19  1  0  0  0  0
 16 15  1  0  0  0  0
 17 16  2  0  0  0  0
 18 22  2  0  0  0  0
 19 20  1  0  0  0  0
 21 18  1  0  0  0  0
 21 19  1  0  0  0  0
 22 20  1  0  0  0  0
 23 18  1  0  0  0  0
 24 23  1  0  0  0  0
 26 25  1  0  0  0  0
 27 24  1  0  0  0  0
 27 30  1  0  0  0  0
 27 29  1  0  0  0  0
 28 30  2  0  0  0  0
 29 26  1  0  0  0  0
 30 25  1  0  0  0  0
 31 33  2  0  0  0  0
 33 25  1  0  0  0  0
 33 32  1  0  0  0  0
 34 35  1  0  0  0  0
 37 36  1  0  0  0  0
 37 38  1  0  0  0  0
 38 41  2  0  0  0  0
 38 40  1  0  0  0  0
 38 39  1  0  0  0  0
 42 14  1  0  0  0  0
 43 47  1  0  0  0  0
 43 44  1  0  0  0  0
 43 45  1  0  0  0  0
 44 42  1  0  0  0  0
 44 45  1  0  0  0  0
 46 58  1  0  0  0  0
 46 48  2  0  0  0  0
 47 46  1  0  0  0  0
 50 60  1  0  0  0  0
 50 57  1  0  0  0  0
 51 53  1  0  0  0  0
 51 54  1  0  0  0  0
 52 54  1  0  0  0  0
 53 49  1  0  0  0  0
 55 49  1  0  0  0  0
 56 52  1  0  0  0  0
 57 58  1  0  0  0  0
 57 53  1  0  0  0  0
 58 55  1  0  0  0  0
 59 60  1  0  0  0  0
 59 56  1  0  0  0  0
 60 51  1  0  0  0  0
M  END
>  <MODEL>
1

>  <REMARK>
 VINA RESULT:      -7.8      0.000      0.000
  Name = 
  14 active torsions:
  status: ('A' for Active; 'I' for Inactive)
    1  A    between atoms: C_1  and  C_44
    2  A    between atoms: P_2  and  C_9
    3  A    between atoms: C_5  and  N_43
    4  A    between atoms: C_7  and  C_22
    5  A    between atoms: N_8  and  C_48
    6  A    between atoms: C_9  and  O_35
    7  A    between atoms: C_10  and  C_57
    8  A    between atoms: C_13  and  O_46
    9  A    between atoms: C_16  and  C_33
   10  A    between atoms: C_18  and  C_27
   11  A    between atoms: C_19  and  O_35
   12  A    between atoms: O_23  and  C_28
   13  A    between atoms: O_23  and  O_46
   14  A    between atoms: C_56  and  C_57
                            x       y       z     vdW  Elec       q    Type
                         _______ _______ _______ _____ _____    ______ ____

>  <TORSDO>
F 14

$$$$
=
 OpenBabel10222415213D

 60 68  0  0  1  0  0  0  0  0999 V2000
  189.1860  177.5670  141.5580 C   0  0  2  0  0  3  0  0  0  0  0  0
  188.4810  177.3750  138.3440 C   0  0  2  0  0  3  0  0  0  0  0  0
  184.9230  178.7230  139.1280 C   0  0  0  0  0  2  0  0  0  0  0  0
  189.6330  176.7700  139.1750 C   0  0  2  0  0  3  0  0  0  0  0  0
  187.2920  177.8940  139.1770 C   0  0  2  0  0  3  0  0  0  0  0  0
  186.5760  176.1240  137.1810 C   0  0  0  0  0  2  0  0  0  0  0  0
  187.8500  178.2980  141.4070 C   0  0  0  0  0  2  0  0  0  0  0  0
  183.7310  178.1790  138.3680 C   0  0  0  0  0  2  0  0  0  0  0  0
  185.7120  177.3870  137.2230 C   0  0  2  0  0  3  0  0  0  0  0  0
  188.0490  176.5140  137.1260 C   0  0  2  0  0  3  0  0  0  0  0  0
  186.1540  178.4120  138.2880 C   0  0  1  0  0  3  0  0  0  0  0  0
  189.2710  176.3720  140.6100 C   0  0  0  0  0  2  0  0  0  0  0  0
  187.7420  178.9250  140.1000 N   0  0  0  0  0  2  0  0  0  0  0  0
  184.2790  177.0270  137.5480 C   0  0  2  0  0  3  0  0  0  0  0  0
  188.8820  175.3280  136.9450 N   0  0  0  0  0  2  0  0  0  0  0  0
  189.8510  175.2460  135.8970 C   0  0  0  0  0  0  0  0  0  0  0  0
  189.9360  176.1680  135.0320 O   0  0  0  0  0  0  0  0  0  0  0  0
  193.0730  174.1200  135.8880 C   0  0  0  0  0  0  0  0  0  0  0  0
  190.7290  174.0410  135.8030 C   0  0  2  0  0  3  0  0  0  0  0  0
  191.2900  173.7150  137.1040 N   0  0  0  0  0  2  0  0  0  0  0  0
  191.9530  174.3360  134.9310 C   0  0  0  0  0  2  0  0  0  0  0  0
  192.6810  173.7810  137.0640 N   0  0  0  0  0  0  0  0  0  0  0  0
  194.4190  174.2710  135.5710 O   0  0  0  0  0  0  0  0  0  0  0  0
  195.3620  173.6540  136.2970 O   0  0  0  0  0  0  0  0  0  0  0  0
  197.9110  174.5130  138.3400 C   0  0  2  0  0  3  0  0  0  0  0  0
  197.9280  175.5570  137.3230 N   0  0  0  0  0  2  0  0  0  0  0  0
  195.8730  174.6450  137.1380 C   0  0  2  0  0  3  0  0  0  0  0  0
  196.0520  173.1900  139.0230 O   0  0  0  0  0  0  0  0  0  0  0  0
  196.8790  175.3600  136.4470 O   0  0  0  0  0  0  0  0  0  0  0  0
  196.5430  174.0280  138.2830 C   0  0  0  0  0  0  0  0  0  0  0  0
  197.4990  176.1460  140.1890 O   0  0  0  0  0  0  0  0  0  0  0  0
  199.1800  174.5990  140.3880 O   0  0  0  0  0  1  0  0  0  0  0  0
  198.2390  175.0790  139.6950 C   0  0  0  0  0  0  0  0  0  0  0  0
  189.3240  177.0590  142.9820 C   0  0  0  0  0  2  0  0  0  0  0  0
  188.2100  177.6080  143.8530 C   0  0  0  0  0  1  0  0  0  0  0  0
  190.7490  177.6100  139.1500 O   0  0  0  0  0  0  0  0  0  0  0  0
  191.8300  176.7580  138.9110 C   0  0  0  0  0  2  0  0  0  0  0  0
  193.1770  177.1520  140.0600 P   0  0  0  0  0  0  0  0  0  0  0  0
  194.4160  176.0110  139.9000 O   0  0  0  0  0  1  0  0  0  0  0  0
  193.7190  178.5250  139.7410 O   0  0  0  0  0  0  0  0  0  0  0  0
  192.5960  177.1260  141.6530 O   0  0  0  0  0  1  0  0  0  0  0  0
  183.4440  176.7470  136.3030 C   0  0  0  0  0  2  0  0  0  0  0  0
  181.3030  175.4170  136.8270 C   0  0  1  0  0  3  0  0  0  0  0  0
  182.7570  175.3810  136.3440 C   0  0  2  0  0  3  0  0  0  0  0  0
  182.4180  175.0420  137.7840 C   0  0  0  0  0  2  0  0  0  0  0  0
  180.0910  177.5410  136.1590 C   0  0  0  0  0  0  0  0  0  0  0  0
  180.8400  176.7760  137.1040 N   0  0  0  0  0  2  0  0  0  0  0  0
  179.8280  177.0630  135.0180 O   0  0  0  0  0  0  0  0  0  0  0  0
  180.3090  179.8580  138.5560 C   0  0  0  0  0  2  0  0  0  0  0  0
  179.9360  180.8410  135.1830 N   0  0  0  0  0  2  0  0  0  0  0  0
  179.9880  181.9880  137.3260 C   0  0  1  0  0  3  0  0  0  0  0  0
  180.4270  184.3580  137.2050 O   0  0  0  0  0  0  0  0  0  0  0  0
  180.8210  180.7370  137.4370 C   0  0  2  0  0  3  0  0  0  0  0  0
  180.7470  183.1860  137.9020 C   0  0  0  0  0  2  0  0  0  0  0  0
  179.3320  178.9360  138.0010 N   0  0  0  0  0  2  0  0  0  0  0  0
  181.0970  184.2350  135.9880 C   0  0  0  0  0  2  0  0  0  0  0  0
  180.5480  179.9620  136.1780 C   0  0  1  0  0  3  0  0  0  0  0  0
  179.5680  178.8760  136.5630 C   0  0  1  0  0  3  0  0  0  0  0  0
  180.3660  183.2550  135.0730 C   0  0  0  0  0  2  0  0  0  0  0  0
  179.6570  182.1180  135.8340 C   0  0  1  0  0  3  0  0  0  0  0  0
  1 34  1  1  0  0  0
  2  4  1  0  0  0  0
  2  5  1  0  0  0  0
  4 12  1  0  0  0  0
  5 13  1  0  0  0  0
  6  9  1  0  0  0  0
  7  1  1  0  0  0  0
  8  3  1  0  0  0  0
  9 14  1  0  0  0  0
  9 11  1  0  0  0  0
 10  6  1  0  0  0  0
 10  2  1  0  0  0  0
 11  3  1  0  0  0  0
 11  5  1  0  0  0  0
 12  1  1  0  0  0  0
 13  7  1  0  0  0  0
 14  8  1  0  0  0  0
 15 10  1  0  0  0  0
 16 15  1  0  0  0  0
 17 16  2  0  0  0  0
 18 22  2  0  0  0  0
 19 16  1  0  0  0  0
 19 20  1  0  0  0  0
 21 19  1  0  0  0  0
 21 18  1  0  0  0  0
 22 20  1  0  0  0  0
 23 18  1  0  0  0  0
 23 24  1  0  0  0  0
 24 27  1  0  0  0  0
 25 33  1  0  0  0  0
 26 25  1  0  0  0  0
 27 30  1  0  0  0  0
 29 27  1  0  0  0  0
 29 26  1  0  0  0  0
 30 25  1  0  0  0  0
 30 28  2  0  0  0  0
 33 31  2  0  0  0  0
 33 32  1  0  0  0  0
 34 35  1  0  0  0  0
 36  4  1  0  0  0  0
 37 36  1  0  0  0  0
 37 38  1  0  0  0  0
 38 41  1  0  0  0  0
 39 38  1  0  0  0  0
 40 38  2  0  0  0  0
 42 44  1  0  0  0  0
 42 14  1  0  0  0  0
 43 47  1  0  0  0  0
 43 45  1  0  0  0  0
 44 43  1  0  0  0  0
 44 45  1  0  0  0  0
 46 58  1  0  0  0  0
 46 47  1  0  0  0  0
 48 46  2  0  0  0  0
 50 60  1  0  0  0  0
 50 57  1  0  0  0  0
 51 53  1  0  0  0  0
 51 54  1  0  0  0  0
 52 54  1  0  0  0  0
 53 49  1  0  0  0  0
 55 49  1  0  0  0  0
 56 52  1  0  0  0  0
 57 58  1  0  0  0  0
 57 53  1  0  0  0  0
 58 55  1  0  0  0  0
 59 60  1  0  0  0  0
 59 56  1  0  0  0  0
 60 51  1  0  0  0  0
M  END
>  <MODEL>
2

>  <REMARK>
 VINA RESULT:      -6.7      1.972      2.791
  Name = 
  14 active torsions:
  status: ('A' for Active; 'I' for Inactive)
    1  A    between atoms: C_1  and  C_44
    2  A    between atoms: P_2  and  C_9
    3  A    between atoms: C_5  and  N_43
    4  A    between atoms: C_7  and  C_22
    5  A    between atoms: N_8  and  C_48
    6  A    between atoms: C_9  and  O_35
    7  A    between atoms: C_10  and  C_57
    8  A    between atoms: C_13  and  O_46
    9  A    between atoms: C_16  and  C_33
   10  A    between atoms: C_18  and  C_27
   11  A    between atoms: C_19  and  O_35
   12  A    between atoms: O_23  and  C_28
   13  A    between atoms: O_23  and  O_46
   14  A    between atoms: C_56  and  C_57
                            x       y       z     vdW  Elec       q    Type
                         _______ _______ _______ _____ _____    ______ ____

>  <TORSDO>
F 14

$$$$
=
 OpenBabel10222415213D

 60 68  0  0  1  0  0  0  0  0999 V2000
  191.3290  178.1850  143.7620 C   0  0  2  0  0  3  0  0  0  0  0  0
  188.5910  177.3170  142.1440 C   0  0  2  0  0  3  0  0  0  0  0  0
  190.6860  177.1090  138.8800 C   0  0  0  0  0  2  0  0  0  0  0  0
  188.7980  177.9370  143.5430 C   0  0  2  0  0  3  0  0  0  0  0  0
  189.8210  177.3960  141.2180 C   0  0  2  0  0  3  0  0  0  0  0  0
  187.5080  178.4110  140.1000 C   0  0  0  0  0  2  0  0  0  0  0  0
  191.8160  177.7380  142.3820 C   0  0  0  0  0  2  0  0  0  0  0  0
  190.0780  177.5650  137.5690 C   0  0  0  0  0  2  0  0  0  0  0  0
  188.2720  177.4570  139.1770 C   0  0  2  0  0  3  0  0  0  0  0  0
  187.2690  177.7360  141.4460 C   0  0  2  0  0  3  0  0  0  0  0  0
  189.5250  176.8310  139.8230 C   0  0  1  0  0  3  0  0  0  0  0  0
  189.9830  178.9010  143.6670 C   0  0  0  0  0  2  0  0  0  0  0  0
  190.9500  176.7100  141.8290 N   0  0  0  0  0  2  0  0  0  0  0  0
  188.7530  178.1950  137.9470 C   0  0  2  0  0  3  0  0  0  0  0  0
  186.4220  178.5750  142.2900 N   0  0  0  0  0  2  0  0  0  0  0  0
  184.9960  178.5280  142.2020 C   0  0  0  0  0  0  0  0  0  0  0  0
  184.4340  177.8260  141.3100 O   0  0  0  0  0  0  0  0  0  0  0  0
  182.0760  178.6990  143.9620 C   0  0  0  0  0  0  0  0  0  0  0  0
  184.1760  179.3510  143.1420 C   0  0  2  0  0  3  0  0  0  0  0  0
  184.2090  178.7840  144.4800 N   0  0  0  0  0  2  0  0  0  0  0  0
  182.6970  179.3000  142.7490 C   0  0  0  0  0  2  0  0  0  0  0  0
  182.9240  178.4300  144.8890 N   0  0  0  0  0  0  0  0  0  0  0  0
  180.7170  178.4370  144.1030 O   0  0  0  0  0  0  0  0  0  0  0  0
  179.8270  179.4390  144.0990 O   0  0  0  0  0  0  0  0  0  0  0  0
  179.8670  178.9530  140.7560 C   0  0  2  0  0  3  0  0  0  0  0  0
  179.2300  177.7450  141.2650 N   0  0  0  0  0  2  0  0  0  0  0  0
  179.0440  179.2180  142.9620 C   0  0  2  0  0  3  0  0  0  0  0  0
  179.9240  181.1000  141.7850 O   0  0  0  0  0  0  0  0  0  0  0  0
  179.0880  177.8430  142.6360 O   0  0  0  0  0  0  0  0  0  0  0  0
  179.6260  179.9160  141.8150 C   0  0  0  0  0  0  0  0  0  0  0  0
  178.9410  180.7300  139.2600 O   0  0  0  0  0  1  0  0  0  0  0  0
  178.9710  178.5480  138.5550 O   0  0  0  0  0  0  0  0  0  0  0  0
  179.2370  179.3870  139.4610 C   0  0  0  0  0  0  0  0  0  0  0  0
  192.3380  179.1430  144.3680 C   0  0  0  0  0  2  0  0  0  0  0  0
  191.6550  180.4170  144.8260 C   0  0  0  0  0  1  0  0  0  0  0  0
  188.8550  176.9390  144.5180 O   0  0  0  0  0  0  0  0  0  0  0  0
  187.9760  177.3670  145.5170 C   0  0  0  0  0  2  0  0  0  0  0  0
  188.8140  177.3110  147.1240 P   0  0  0  0  0  0  0  0  0  0  0  0
  188.5910  178.7780  147.9360 O   0  0  0  0  0  1  0  0  0  0  0  0
  188.2320  176.1890  147.9520 O   0  0  0  0  0  1  0  0  0  0  0  0
  190.4730  177.0460  146.8950 O   0  0  0  0  0  0  0  0  0  0  0  0
  187.7420  178.1600  136.8050 C   0  0  0  0  0  2  0  0  0  0  0  0
  187.2130  176.9510  134.5950 C   0  0  1  0  0  3  0  0  0  0  0  0
  188.2890  177.4770  135.5500 C   0  0  2  0  0  3  0  0  0  0  0  0
  187.8950  176.0130  135.5720 C   0  0  0  0  0  2  0  0  0  0  0  0
  184.8080  176.2910  135.0510 C   0  0  0  0  0  0  0  0  0  0  0  0
  185.8590  177.2580  135.0550 N   0  0  0  0  0  2  0  0  0  0  0  0
  185.0170  175.1250  134.6100 O   0  0  0  0  0  0  0  0  0  0  0  0
  181.5320  175.6940  134.7830 C   0  0  0  0  0  2  0  0  0  0  0  0
  182.9760  176.2060  137.9670 N   0  0  0  0  0  2  0  0  0  0  0  0
  180.7180  175.8990  137.1180 C   0  0  1  0  0  3  0  0  0  0  0  0
  179.0850  175.2510  138.7720 O   0  0  0  0  0  0  0  0  0  0  0  0
  181.6730  175.1810  136.2000 C   0  0  2  0  0  3  0  0  0  0  0  0
  179.5350  174.9940  137.4710 C   0  0  0  0  0  2  0  0  0  0  0  0
  182.4710  176.7880  134.5990 N   0  0  0  0  0  2  0  0  0  0  0  0
  180.0540  174.6820  139.5970 C   0  0  0  0  0  2  0  0  0  0  0  0
  183.0460  175.6100  136.6340 C   0  0  1  0  0  3  0  0  0  0  0  0
  183.4880  176.6590  135.6360 C   0  0  1  0  0  3  0  0  0  0  0  0
  181.3010  175.5620  139.6420 C   0  0  0  0  0  2  0  0  0  0  0  0
  181.5660  176.3190  138.3260 C   0  0  1  0  0  3  0  0  0  0  0  0
  1 34  1  6  0  0  0
  2  4  1  0  0  0  0
  3 11  1  0  0  0  0
  4 12  1  0  0  0  0
  4 36  1  0  0  0  0
  5 13  1  0  0  0  0
  5  2  1  0  0  0  0
  6 10  1  0  0  0  0
  7  1  1  0  0  0  0
  8 14  1  0  0  0  0
  8  3  1  0  0  0  0
  9 11  1  0  0  0  0
  9  6  1  0  0  0  0
 10  2  1  0  0  0  0
 10 15  1  0  0  0  0
 11  5  1  0  0  0  0
 12  1  1  0  0  0  0
 13  7  1  0  0  0  0
 14  9  1  0  0  0  0
 16 15  1  0  0  0  0
 16 19  1  0  0  0  0
 17 16  2  0  0  0  0
 18 23  1  0  0  0  0
 18 22  2  0  0  0  0
 19 20  1  0  0  0  0
 20 22  1  0  0  0  0
 21 19  1  0  0  0  0
 21 18  1  0  0  0  0
 24 23  1  0  0  0  0
 25 26  1  0  0  0  0
 25 30  1  0  0  0  0
 26 29  1  0  0  0  0
 27 24  1  0  0  0  0
 28 30  2  0  0  0  0
 29 27  1  0  0  0  0
 30 27  1  0  0  0  0
 31 33  1  0  0  0  0
 32 33  2  0  0  0  0
 33 25  1  0  0  0  0
 34 35  1  0  0  0  0
 36 37  1  0  0  0  0
 37 38  1  0  0  0  0
 38 39  1  0  0  0  0
 38 40  1  0  0  0  0
 41 38  2  0  0  0  0
 42 14  1  0  0  0  0
 43 47  1  0  0  0  0
 43 44  1  0  0  0  0
 43 45  1  0  0  0  0
 44 45  1  0  0  0  0
 44 42  1  0  0  0  0
 46 47  1  0  0  0  0
 46 58  1  0  0  0  0
 48 46  2  0  0  0  0
 49 53  1  0  0  0  0
 50 60  1  0  0  0  0
 51 54  1  0  0  0  0
 51 60  1  0  0  0  0
 52 56  1  0  0  0  0
 53 57  1  0  0  0  0
 53 51  1  0  0  0  0
 54 52  1  0  0  0  0
 55 49  1  0  0  0  0
 55 58  1  0  0  0  0
 56 59  1  0  0  0  0
 57 50  1  0  0  0  0
 58 57  1  0  0  0  0
 60 59  1  0  0  0  0
M  END
>  <MODEL>
3

>  <REMARK>
 VINA RESULT:      -6.5      4.958      9.800
  Name = 
  14 active torsions:
  status: ('A' for Active; 'I' for Inactive)
    1  A    between atoms: C_1  and  C_44
    2  A    between atoms: P_2  and  C_9
    3  A    between atoms: C_5  and  N_43
    4  A    between atoms: C_7  and  C_22
    5  A    between atoms: N_8  and  C_48
    6  A    between atoms: C_9  and  O_35
    7  A    between atoms: C_10  and  C_57
    8  A    between atoms: C_13  and  O_46
    9  A    between atoms: C_16  and  C_33
   10  A    between atoms: C_18  and  C_27
   11  A    between atoms: C_19  and  O_35
   12  A    between atoms: O_23  and  C_28
   13  A    between atoms: O_23  and  O_46
   14  A    between atoms: C_56  and  C_57
                            x       y       z     vdW  Elec       q    Type
                         _______ _______ _______ _____ _____    ______ ____

>  <TORSDO>
F 14

$$$$
=
 OpenBabel10222415213D

 60 68  0  0  1  0  0  0  0  0999 V2000
  184.9520  177.2850  135.7520 C   0  0  2  0  0  3  0  0  0  0  0  0
  183.2550  178.1970  138.4280 C   0  0  2  0  0  3  0  0  0  0  0  0
  186.6280  178.7760  140.2660 C   0  0  0  0  0  2  0  0  0  0  0  0
  182.8180  177.4610  137.1430 C   0  0  2  0  0  3  0  0  0  0  0  0
  184.7800  178.2470  138.6520 C   0  0  2  0  0  3  0  0  0  0  0  0
  183.3600  177.2560  140.8050 C   0  0  0  0  0  2  0  0  0  0  0  0
  186.0010  177.8730  136.6980 C   0  0  0  0  0  2  0  0  0  0  0  0
  186.7520  178.4200  141.7330 C   0  0  0  0  0  2  0  0  0  0  0  0
  184.3960  178.3160  141.1860 C   0  0  2  0  0  3  0  0  0  0  0  0
  182.4600  177.7960  139.6990 C   0  0  2  0  0  3  0  0  0  0  0  0
  185.1410  178.9260  139.9800 C   0  0  1  0  0  3  0  0  0  0  0  0
  183.8710  176.5320  136.5260 C   0  0  0  0  0  2  0  0  0  0  0  0
  185.4270  178.9150  137.5330 N   0  0  0  0  0  2  0  0  0  0  0  0
  185.4580  177.7100  142.0770 C   0  0  2  0  0  3  0  0  0  0  0  0
  181.3800  176.8540  139.4190 N   0  0  0  0  0  2  0  0  0  0  0  0
  180.1660  176.8590  140.1750 C   0  0  0  0  0  0  0  0  0  0  0  0
  180.0430  177.6210  141.1800 O   0  0  0  0  0  0  0  0  0  0  0  0
  179.2350  174.3140  138.0990 C   0  0  0  0  0  0  0  0  0  0  0  0
  179.0630  175.9250  139.7980 C   0  0  2  0  0  3  0  0  0  0  0  0
  179.3450  174.5810  140.2760 N   0  0  0  0  0  2  0  0  0  0  0  0
  178.9860  175.7720  138.2760 C   0  0  0  0  0  2  0  0  0  0  0  0
  179.4260  173.6920  139.2060 N   0  0  0  0  0  0  0  0  0  0  0  0
  179.2710  173.6660  136.8690 O   0  0  0  0  0  0  0  0  0  0  0  0
  179.5100  172.3490  136.8000 O   0  0  0  0  0  0  0  0  0  0  0  0
  182.4100  170.8650  135.9050 C   0  0  2  0  0  3  0  0  0  0  0  0
  181.4660  170.3950  134.8990 N   0  0  0  0  0  2  0  0  0  0  0  0
  180.4610  172.2090  135.7860 C   0  0  2  0  0  3  0  0  0  0  0  0
  182.2850  172.8760  137.1760 O   0  0  0  0  0  0  0  0  0  0  0  0
  180.2360  170.9870  135.1120 O   0  0  0  0  0  0  0  0  0  0  0  0
  181.7980  172.0970  136.3720 C   0  0  0  0  0  0  0  0  0  0  0  0
  184.6830  170.0800  135.2200 O   0  0  0  0  0  1  0  0  0  0  0  0
  184.0720  172.2600  134.8550 O   0  0  0  0  0  0  0  0  0  0  0  0
  183.7620  171.1180  135.2960 C   0  0  0  0  0  0  0  0  0  0  0  0
  185.6210  176.3130  134.7980 C   0  0  0  0  0  2  0  0  0  0  0  0
  186.1660  175.1160  135.5530 C   0  0  0  0  0  1  0  0  0  0  0  0
  182.3300  178.3670  136.2000 O   0  0  0  0  0  0  0  0  0  0  0  0
  180.9440  178.1850  136.2150 C   0  0  0  0  0  2  0  0  0  0  0  0
  180.1370  179.7300  136.7170 P   0  0  0  0  0  0  0  0  0  0  0  0
  181.3020  180.8330  137.2560 O   0  0  0  0  0  1  0  0  0  0  0  0
  179.4030  180.3170  135.5350 O   0  0  0  0  0  0  0  0  0  0  0  0
  179.0390  179.4200  137.9720 O   0  0  0  0  0  1  0  0  0  0  0  0
  185.1120  177.8130  143.5600 C   0  0  0  0  0  2  0  0  0  0  0  0
  184.3140  179.8670  144.8920 C   0  0  1  0  0  3  0  0  0  0  0  0
  183.9810  178.8060  143.8370 C   0  0  2  0  0  3  0  0  0  0  0  0
  183.5140  178.6360  145.2700 C   0  0  0  0  0  2  0  0  0  0  0  0
  186.0080  179.0450  146.5890 C   0  0  0  0  0  0  0  0  0  0  0  0
  185.6840  179.7480  145.3900 N   0  0  0  0  0  2  0  0  0  0  0  0
  185.0930  178.5200  147.2860 O   0  0  0  0  0  0  0  0  0  0  0  0
  188.0540  177.2260  148.5030 C   0  0  0  0  0  2  0  0  0  0  0  0
  189.1180  178.2990  145.3100 N   0  0  0  0  0  2  0  0  0  0  0  0
  190.1500  177.1340  147.1780 C   0  0  1  0  0  3  0  0  0  0  0  0
  192.1700  175.9290  146.6390 O   0  0  0  0  0  0  0  0  0  0  0  0
  188.6740  176.8260  147.1820 C   0  0  2  0  0  3  0  0  0  0  0  0
  190.9620  175.8480  147.3440 C   0  0  0  0  0  2  0  0  0  0  0  0
  187.5800  178.5950  148.3890 N   0  0  0  0  0  2  0  0  0  0  0  0
  191.8040  175.7890  145.3010 C   0  0  0  0  0  2  0  0  0  0  0  0
  188.0680  177.7590  146.1710 C   0  0  1  0  0  3  0  0  0  0  0  0
  187.4400  178.8820  146.9660 C   0  0  1  0  0  3  0  0  0  0  0  0
  191.1830  177.0830  144.7790 C   0  0  0  0  0  2  0  0  0  0  0  0
  190.4020  177.8650  145.8530 C   0  0  1  0  0  3  0  0  0  0  0  0
  1 34  1  6  0  0  0
  1 12  1  0  0  0  0
  1  7  1  0  0  0  0
  2  5  1  0  0  0  0
  2 10  1  0  0  0  0
  3  8  1  0  0  0  0
  4  2  1  0  0  0  0
  5 11  1  0  0  0  0
  6  9  1  0  0  0  0
  7 13  1  0  0  0  0
  8 14  1  0  0  0  0
  9 14  1  0  0  0  0
 10  6  1  0  0  0  0
 11  3  1  0  0  0  0
 11  9  1  0  0  0  0
 12  4  1  0  0  0  0
 13  5  1  0  0  0  0
 14 42  1  0  0  0  0
 15 10  1  0  0  0  0
 15 16  1  0  0  0  0
 16 17  2  0  0  0  0
 18 21  1  0  0  0  0
 18 22  2  0  0  0  0
 19 16  1  0  0  0  0
 19 20  1  0  0  0  0
 21 19  1  0  0  0  0
 22 20  1  0  0  0  0
 23 18  1  0  0  0  0
 24 23  1  0  0  0  0
 25 30  1  0  0  0  0
 26 29  1  0  0  0  0
 26 25  1  0  0  0  0
 27 30  1  0  0  0  0
 27 24  1  0  0  0  0
 29 27  1  0  0  0  0
 30 28  2  0  0  0  0
 31 33  1  0  0  0  0
 32 33  2  0  0  0  0
 33 25  1  0  0  0  0
 34 35  1  0  0  0  0
 36 37  1  0  0  0  0
 36  4  1  0  0  0  0
 37 38  1  0  0  0  0
 38 39  1  0  0  0  0
 38 41  1  0  0  0  0
 40 38  2  0  0  0  0
 42 44  1  0  0  0  0
 43 45  1  0  0  0  0
 43 47  1  0  0  0  0
 44 43  1  0  0  0  0
 44 45  1  0  0  0  0
 46 58  1  0  0  0  0
 46 48  2  0  0  0  0
 47 46  1  0  0  0  0
 50 60  1  0  0  0  0
 50 57  1  0  0  0  0
 51 53  1  0  0  0  0
 51 54  1  0  0  0  0
 52 54  1  0  0  0  0
 53 49  1  0  0  0  0
 55 49  1  0  0  0  0
 56 52  1  0  0  0  0
 57 58  1  0  0  0  0
 57 53  1  0  0  0  0
 58 55  1  0  0  0  0
 59 56  1  0  0  0  0
 59 60  1  0  0  0  0
 60 51  1  0  0  0  0
M  END
>  <MODEL>
4

>  <REMARK>
 VINA RESULT:      -6.4      6.079     11.964
  Name = 
  14 active torsions:
  status: ('A' for Active; 'I' for Inactive)
    1  A    between atoms: C_1  and  C_44
    2  A    between atoms: P_2  and  C_9
    3  A    between atoms: C_5  and  N_43
    4  A    between atoms: C_7  and  C_22
    5  A    between atoms: N_8  and  C_48
    6  A    between atoms: C_9  and  O_35
    7  A    between atoms: C_10  and  C_57
    8  A    between atoms: C_13  and  O_46
    9  A    between atoms: C_16  and  C_33
   10  A    between atoms: C_18  and  C_27
   11  A    between atoms: C_19  and  O_35
   12  A    between atoms: O_23  and  C_28
   13  A    between atoms: O_23  and  O_46
   14  A    between atoms: C_56  and  C_57
                            x       y       z     vdW  Elec       q    Type
                         _______ _______ _______ _____ _____    ______ ____

>  <TORSDO>
F 14

$$$$
=
 OpenBabel10222415213D

 60 68  0  0  1  0  0  0  0  0999 V2000
  191.3160  178.1000  143.8700 C   0  0  2  0  0  3  0  0  0  0  0  0
  188.7260  177.3080  141.9910 C   0  0  2  0  0  3  0  0  0  0  0  0
  191.1740  176.6180  139.0550 C   0  0  0  0  0  2  0  0  0  0  0  0
  188.8190  178.0400  143.3480 C   0  0  2  0  0  3  0  0  0  0  0  0
  190.0620  177.1970  141.2290 C   0  0  2  0  0  3  0  0  0  0  0  0
  188.0070  178.2860  139.7390 C   0  0  0  0  0  2  0  0  0  0  0  0
  191.9240  177.4840  142.6080 C   0  0  0  0  0  2  0  0  0  0  0  0
  190.7740  176.9940  137.6420 C   0  0  0  0  0  2  0  0  0  0  0  0
  188.7840  177.1890  139.0070 C   0  0  2  0  0  3  0  0  0  0  0  0
  187.5440  177.7650  141.0950 C   0  0  2  0  0  3  0  0  0  0  0  0
  189.8860  176.5270  139.8600 C   0  0  1  0  0  3  0  0  0  0  0  0
  190.0650  178.9120  143.5410 C   0  0  0  0  0  2  0  0  0  0  0  0
  191.0390  176.4820  142.0370 N   0  0  0  0  0  2  0  0  0  0  0  0
  189.4780  177.7640  137.7910 C   0  0  2  0  0  3  0  0  0  0  0  0
  186.6830  178.7480  141.7490 N   0  0  0  0  0  2  0  0  0  0  0  0
  185.6030  178.3510  142.5970 C   0  0  0  0  0  0  0  0  0  0  0  0
  185.3030  177.1260  142.7180 O   0  0  0  0  0  0  0  0  0  0  0  0
  182.5540  179.1260  143.9210 C   0  0  0  0  0  0  0  0  0  0  0  0
  184.8010  179.3960  143.3010 C   0  0  2  0  0  3  0  0  0  0  0  0
  184.6060  179.0380  144.6970 N   0  0  0  0  0  2  0  0  0  0  0  0
  183.3820  179.4600  142.7290 C   0  0  0  0  0  2  0  0  0  0  0  0
  183.2480  178.9020  144.9780 N   0  0  0  0  0  0  0  0  0  0  0  0
  181.1640  179.0490  143.9160 O   0  0  0  0  0  0  0  0  0  0  0  0
  180.4350  179.9620  143.2600 O   0  0  0  0  0  0  0  0  0  0  0  0
  180.0980  177.5180  140.9530 C   0  0  2  0  0  3  0  0  0  0  0  0
  179.3560  177.0050  142.0970 N   0  0  0  0  0  2  0  0  0  0  0  0
  179.5270  179.2180  142.5020 C   0  0  2  0  0  3  0  0  0  0  0  0
  180.5350  179.7970  140.4170 O   0  0  0  0  0  0  0  0  0  0  0  0
  179.3570  177.9500  143.1050 O   0  0  0  0  0  0  0  0  0  0  0  0
  180.0870  178.9530  141.1760 C   0  0  0  0  0  0  0  0  0  0  0  0
  179.0170  178.1640  138.7910 O   0  0  0  0  0  0  0  0  0  0  0  0
  179.1910  175.9490  139.3630 O   0  0  0  0  0  1  0  0  0  0  0  0
  179.4130  177.1560  139.6630 C   0  0  0  0  0  0  0  0  0  0  0  0
  192.3300  179.0250  144.5180 C   0  0  0  0  0  2  0  0  0  0  0  0
  191.7410  180.4090  144.7100 C   0  0  0  0  0  1  0  0  0  0  0  0
  188.6630  177.1390  144.4030 O   0  0  0  0  0  0  0  0  0  0  0  0
  187.9760  177.8570  145.3850 C   0  0  0  0  0  2  0  0  0  0  0  0
  188.7080  177.5130  147.0090 P   0  0  0  0  0  0  0  0  0  0  0  0
  188.2540  175.9660  147.5230 O   0  0  0  0  0  1  0  0  0  0  0  0
  190.2130  177.5810  146.9020 O   0  0  0  0  0  0  0  0  0  0  0  0
  188.1650  178.6580  148.1350 O   0  0  0  0  0  1  0  0  0  0  0  0
  188.6140  177.7030  136.5350 C   0  0  0  0  0  2  0  0  0  0  0  0
  187.4520  175.4480  136.0950 C   0  0  1  0  0  3  0  0  0  0  0  0
  187.3600  176.8450  136.7190 C   0  0  2  0  0  3  0  0  0  0  0  0
  186.7450  176.5710  135.3600 C   0  0  0  0  0  2  0  0  0  0  0  0
  189.7230  174.3220  136.0760 C   0  0  0  0  0  0  0  0  0  0  0  0
  188.7570  175.1930  135.4870 N   0  0  0  0  0  2  0  0  0  0  0  0
  189.4820  173.7610  137.1830 O   0  0  0  0  0  0  0  0  0  0  0  0
  192.7040  175.6240  135.3150 C   0  0  0  0  0  2  0  0  0  0  0  0
  192.4020  172.1610  135.9460 N   0  0  0  0  0  2  0  0  0  0  0  0
  194.1880  173.6390  135.2120 C   0  0  1  0  0  3  0  0  0  0  0  0
  196.4170  172.7450  135.4540 O   0  0  0  0  0  0  0  0  0  0  0  0
  193.2400  174.4310  136.0750 C   0  0  2  0  0  3  0  0  0  0  0  0
  195.6360  173.8930  135.6390 C   0  0  0  0  0  2  0  0  0  0  0  0
  191.4740  175.2260  134.6510 N   0  0  0  0  0  2  0  0  0  0  0  0
  196.0290  171.8890  136.4840 C   0  0  0  0  0  2  0  0  0  0  0  0
  192.0500  173.5380  136.2860 C   0  0  1  0  0  3  0  0  0  0  0  0
  190.9840  174.0350  135.3350 C   0  0  1  0  0  3  0  0  0  0  0  0
  194.6730  171.2570  136.1720 C   0  0  0  0  0  2  0  0  0  0  0  0
  193.7400  172.1790  135.3630 C   0  0  1  0  0  3  0  0  0  0  0  0
  1 34  1  6  0  0  0
  2  4  1  0  0  0  0
  3 11  1  0  0  0  0
  4 12  1  0  0  0  0
  4 36  1  0  0  0  0
  5  2  1  0  0  0  0
  5 13  1  0  0  0  0
  6 10  1  0  0  0  0
  7  1  1  0  0  0  0
  8 14  1  0  0  0  0
  8  3  1  0  0  0  0
  9  6  1  0  0  0  0
  9 11  1  0  0  0  0
 10 15  1  0  0  0  0
 10  2  1  0  0  0  0
 11  5  1  0  0  0  0
 12  1  1  0  0  0  0
 13  7  1  0  0  0  0
 14  9  1  0  0  0  0
 15 16  1  0  0  0  0
 16 17  2  0  0  0  0
 16 19  1  0  0  0  0
 18 22  2  0  0  0  0
 19 20  1  0  0  0  0
 20 22  1  0  0  0  0
 21 19  1  0  0  0  0
 21 18  1  0  0  0  0
 23 18  1  0  0  0  0
 24 23  1  0  0  0  0
 25 30  1  0  0  0  0
 25 26  1  0  0  0  0
 26 29  1  0  0  0  0
 27 29  1  0  0  0  0
 27 24  1  0  0  0  0
 28 30  2  0  0  0  0
 30 27  1  0  0  0  0
 31 33  2  0  0  0  0
 32 33  1  0  0  0  0
 33 25  1  0  0  0  0
 34 35  1  0  0  0  0
 36 37  1  0  0  0  0
 37 38  1  0  0  0  0
 38 39  1  0  0  0  0
 38 41  1  0  0  0  0
 40 38  2  0  0  0  0
 42 44  1  0  0  0  0
 42 14  1  0  0  0  0
 43 44  1  0  0  0  0
 45 43  1  0  0  0  0
 45 44  1  0  0  0  0
 46 48  2  0  0  0  0
 47 46  1  0  0  0  0
 47 43  1  0  0  0  0
 49 53  1  0  0  0  0
 50 57  1  0  0  0  0
 51 60  1  0  0  0  0
 51 54  1  0  0  0  0
 51 53  1  0  0  0  0
 52 54  1  0  0  0  0
 52 56  1  0  0  0  0
 53 57  1  0  0  0  0
 55 49  1  0  0  0  0
 55 58  1  0  0  0  0
 58 46  1  0  0  0  0
 58 57  1  0  0  0  0
 59 56  1  0  0  0  0
 60 50  1  0  0  0  0
 60 59  1  0  0  0  0
M  END
>  <MODEL>
5

>  <REMARK>
 VINA RESULT:      -6.0      3.664     11.731
  Name = 
  14 active torsions:
  status: ('A' for Active; 'I' for Inactive)
    1  A    between atoms: C_1  and  C_44
    2  A    between atoms: P_2  and  C_9
    3  A    between atoms: C_5  and  N_43
    4  A    between atoms: C_7  and  C_22
    5  A    between atoms: N_8  and  C_48
    6  A    between atoms: C_9  and  O_35
    7  A    between atoms: C_10  and  C_57
    8  A    between atoms: C_13  and  O_46
    9  A    between atoms: C_16  and  C_33
   10  A    between atoms: C_18  and  C_27
   11  A    between atoms: C_19  and  O_35
   12  A    between atoms: O_23  and  C_28
   13  A    between atoms: O_23  and  O_46
   14  A    between atoms: C_56  and  C_57
                            x       y       z     vdW  Elec       q    Type
                         _______ _______ _______ _____ _____    ______ ____

>  <TORSDO>
F 14

$$$$
=
 OpenBabel10222415213D

 60 68  0  0  1  0  0  0  0  0999 V2000
  189.9190  177.2770  145.6350 C   0  0  2  0  0  3  0  0  0  0  0  0
  187.9230  177.0820  143.0180 C   0  0  2  0  0  3  0  0  0  0  0  0
  191.0620  176.7250  140.7570 C   0  0  0  0  0  2  0  0  0  0  0  0
  187.6630  177.5410  144.4700 C   0  0  2  0  0  3  0  0  0  0  0  0
  189.4130  176.9930  142.6310 C   0  0  2  0  0  3  0  0  0  0  0  0
  187.8930  178.5190  140.9010 C   0  0  0  0  0  2  0  0  0  0  0  0
  190.8290  176.8520  144.4810 C   0  0  0  0  0  2  0  0  0  0  0  0
  191.0840  177.3890  139.3960 C   0  0  0  0  0  2  0  0  0  0  0  0
  188.8010  177.5090  140.1960 C   0  0  2  0  0  3  0  0  0  0  0  0
  187.0530  177.8020  141.9530 C   0  0  2  0  0  3  0  0  0  0  0  0
  189.5980  176.6050  141.1580 C   0  0  1  0  0  3  0  0  0  0  0  0
  188.8380  178.2460  145.1580 C   0  0  0  0  0  2  0  0  0  0  0  0
  190.1010  176.0570  143.5070 N   0  0  0  0  0  2  0  0  0  0  0  0
  189.8250  178.2330  139.3490 C   0  0  2  0  0  3  0  0  0  0  0  0
  186.0820  178.7210  142.5400 N   0  0  0  0  0  2  0  0  0  0  0  0
  184.6860  178.6240  142.2450 C   0  0  0  0  0  0  0  0  0  0  0  0
  184.2720  177.7960  141.3810 O   0  0  0  0  0  0  0  0  0  0  0  0
  181.4560  179.0510  143.2620 C   0  0  0  0  0  0  0  0  0  0  0  0
  183.7270  179.5420  142.9310 C   0  0  2  0  0  3  0  0  0  0  0  0
  183.4110  179.0490  144.2620 N   0  0  0  0  0  2  0  0  0  0  0  0
  182.3790  179.5490  142.2040 C   0  0  0  0  0  2  0  0  0  0  0  0
  182.0470  178.7880  144.3720 N   0  0  0  0  0  0  0  0  0  0  0  0
  180.0870  178.8710  143.0910 O   0  0  0  0  0  0  0  0  0  0  0  0
  179.6230  178.0320  142.1530 O   0  0  0  0  0  0  0  0  0  0  0  0
  179.6000  177.6840  138.7930 C   0  0  2  0  0  3  0  0  0  0  0  0
  178.9310  178.9610  139.0040 N   0  0  0  0  0  2  0  0  0  0  0  0
  180.0300  178.5920  140.9390 C   0  0  2  0  0  3  0  0  0  0  0  0
  181.1820  176.6270  140.2250 O   0  0  0  0  0  0  0  0  0  0  0  0
  178.9310  179.2610  140.3530 O   0  0  0  0  0  0  0  0  0  0  0  0
  180.3930  177.5310  140.0000 C   0  0  0  0  0  0  0  0  0  0  0  0
  180.1300  176.9540  136.4600 O   0  0  0  0  0  0  0  0  0  0  0  0
  181.4970  178.4580  137.5240 O   0  0  0  0  0  1  0  0  0  0  0  0
  180.4670  177.7290  137.5650 C   0  0  0  0  0  0  0  0  0  0  0  0
  190.7470  177.9720  146.7010 C   0  0  0  0  0  2  0  0  0  0  0  0
  191.4290  176.9520  147.5920 C   0  0  0  0  0  1  0  0  0  0  0  0
  187.1890  176.4800  145.2420 O   0  0  0  0  0  0  0  0  0  0  0  0
  185.8630  176.8140  145.5310 C   0  0  0  0  0  2  0  0  0  0  0  0
  185.8280  178.1440  146.7620 P   0  0  0  0  0  0  0  0  0  0  0  0
  185.9740  179.6420  145.9890 O   0  0  0  0  0  0  0  0  0  0  0  0
  184.5190  178.0960  147.5130 O   0  0  0  0  0  1  0  0  0  0  0  0
  187.1150  177.9500  147.8500 O   0  0  0  0  0  1  0  0  0  0  0  0
  189.3420  178.4820  137.9230 C   0  0  0  0  0  2  0  0  0  0  0  0
  188.1410  176.5910  136.6550 C   0  0  1  0  0  3  0  0  0  0  0  0
  188.0180  177.7780  137.6150 C   0  0  2  0  0  3  0  0  0  0  0  0
  187.7000  177.9480  136.1410 C   0  0  0  0  0  2  0  0  0  0  0  0
  190.2180  175.1360  136.6280 C   0  0  0  0  0  0  0  0  0  0  0  0
  189.5250  176.3300  136.2620 N   0  0  0  0  0  2  0  0  0  0  0  0
  189.6480  174.2650  137.3460 O   0  0  0  0  0  0  0  0  0  0  0  0
  193.2550  176.5140  136.4440 C   0  0  0  0  0  2  0  0  0  0  0  0
  192.9260  173.0180  136.8410 N   0  0  0  0  0  2  0  0  0  0  0  0
  194.7780  174.5550  136.4930 C   0  0  1  0  0  3  0  0  0  0  0  0
  196.9530  173.6780  137.0600 O   0  0  0  0  0  0  0  0  0  0  0  0
  193.6820  175.2890  137.2230 C   0  0  2  0  0  3  0  0  0  0  0  0
  196.1280  174.8050  137.1690 C   0  0  0  0  0  2  0  0  0  0  0  0
  192.1620  176.1370  135.5640 N   0  0  0  0  0  2  0  0  0  0  0  0
  196.4170  172.7630  137.9660 C   0  0  0  0  0  2  0  0  0  0  0  0
  192.4920  174.3710  137.1860 C   0  0  1  0  0  3  0  0  0  0  0  0
  191.5900  174.9050  136.0960 C   0  0  1  0  0  3  0  0  0  0  0  0
  195.1460  172.1330  137.3990 C   0  0  0  0  0  2  0  0  0  0  0  0
  194.3420  173.0840  136.4920 C   0  0  1  0  0  3  0  0  0  0  0  0
  1 34  1  1  0  0  0
  2  4  1  0  0  0  0
  3 11  1  0  0  0  0
  4 12  1  0  0  0  0
  4 36  1  0  0  0  0
  5  2  1  0  0  0  0
  5 13  1  0  0  0  0
  6 10  1  0  0  0  0
  7  1  1  0  0  0  0
  8  3  1  0  0  0  0
  9  6  1  0  0  0  0
  9 11  1  0  0  0  0
 10 15  1  0  0  0  0
 10  2  1  0  0  0  0
 11  5  1  0  0  0  0
 12  1  1  0  0  0  0
 13  7  1  0  0  0  0
 14  8  1  0  0  0  0
 14  9  1  0  0  0  0
 16 15  1  0  0  0  0
 16 19  1  0  0  0  0
 17 16  2  0  0  0  0
 18 22  2  0  0  0  0
 19 20  1  0  0  0  0
 20 22  1  0  0  0  0
 21 19  1  0  0  0  0
 21 18  1  0  0  0  0
 23 18  1  0  0  0  0
 24 23  1  0  0  0  0
 25 26  1  0  0  0  0
 25 30  1  0  0  0  0
 26 29  1  0  0  0  0
 27 24  1  0  0  0  0
 29 27  1  0  0  0  0
 30 28  2  0  0  0  0
 30 27  1  0  0  0  0
 31 33  2  0  0  0  0
 32 33  1  0  0  0  0
 33 25  1  0  0  0  0
 34 35  1  0  0  0  0
 36 37  1  0  0  0  0
 37 38  1  0  0  0  0
 38 40  1  0  0  0  0
 38 41  1  0  0  0  0
 39 38  2  0  0  0  0
 42 14  1  0  0  0  0
 43 44  1  0  0  0  0
 44 42  1  0  0  0  0
 45 43  1  0  0  0  0
 45 44  1  0  0  0  0
 46 48  2  0  0  0  0
 47 46  1  0  0  0  0
 47 43  1  0  0  0  0
 49 53  1  0  0  0  0
 50 57  1  0  0  0  0
 51 54  1  0  0  0  0
 51 53  1  0  0  0  0
 52 54  1  0  0  0  0
 52 56  1  0  0  0  0
 55 58  1  0  0  0  0
 55 49  1  0  0  0  0
 57 53  1  0  0  0  0
 58 46  1  0  0  0  0
 58 57  1  0  0  0  0
 59 56  1  0  0  0  0
 60 51  1  0  0  0  0
 60 50  1  0  0  0  0
 60 59  1  0  0  0  0
M  END
>  <MODEL>
6

>  <REMARK>
 VINA RESULT:      -6.0      3.232     11.705
  Name = 
  14 active torsions:
  status: ('A' for Active; 'I' for Inactive)
    1  A    between atoms: C_1  and  C_44
    2  A    between atoms: P_2  and  C_9
    3  A    between atoms: C_5  and  N_43
    4  A    between atoms: C_7  and  C_22
    5  A    between atoms: N_8  and  C_48
    6  A    between atoms: C_9  and  O_35
    7  A    between atoms: C_10  and  C_57
    8  A    between atoms: C_13  and  O_46
    9  A    between atoms: C_16  and  C_33
   10  A    between atoms: C_18  and  C_27
   11  A    between atoms: C_19  and  O_35
   12  A    between atoms: O_23  and  C_28
   13  A    between atoms: O_23  and  O_46
   14  A    between atoms: C_56  and  C_57
                            x       y       z     vdW  Elec       q    Type
                         _______ _______ _______ _____ _____    ______ ____

>  <TORSDO>
F 14

$$$$
=
 OpenBabel10222415213D

 60 68  0  0  1  0  0  0  0  0999 V2000
  189.0280  174.2940  135.6670 C   0  0  2  0  0  3  0  0  0  0  0  0
  188.3410  177.0240  137.3820 C   0  0  2  0  0  3  0  0  0  0  0  0
  191.9070  176.8590  138.9130 C   0  0  0  0  0  2  0  0  0  0  0  0
  187.4280  176.0400  136.6190 C   0  0  2  0  0  3  0  0  0  0  0  0
  189.7630  176.4960  137.6610 C   0  0  2  0  0  3  0  0  0  0  0  0
  188.4450  177.4120  139.9090 C   0  0  0  0  0  2  0  0  0  0  0  0
  190.3700  174.7320  136.2590 C   0  0  0  0  0  2  0  0  0  0  0  0
  192.1180  177.2430  140.3640 C   0  0  0  0  0  2  0  0  0  0  0  0
  189.8760  177.9410  139.7750 C   0  0  2  0  0  3  0  0  0  0  0  0
  187.6780  177.6850  138.6200 C   0  0  2  0  0  3  0  0  0  0  0  0
  190.5910  177.4910  138.4840 C   0  0  1  0  0  3  0  0  0  0  0  0
  187.8800  174.5750  136.6350 C   0  0  0  0  0  2  0  0  0  0  0  0
  190.4300  176.1760  136.4070 N   0  0  0  0  0  2  0  0  0  0  0  0
  190.7240  177.4440  140.9250 C   0  0  2  0  0  3  0  0  0  0  0  0
  186.2740  177.3140  138.7780 N   0  0  0  0  0  2  0  0  0  0  0  0
  185.3060  178.2400  139.2810 C   0  0  0  0  0  0  0  0  0  0  0  0
  185.6700  179.3780  139.7000 O   0  0  0  0  0  0  0  0  0  0  0  0
  182.0790  179.3490  139.3230 C   0  0  0  0  0  0  0  0  0  0  0  0
  183.8700  177.8330  139.3510 C   0  0  2  0  0  3  0  0  0  0  0  0
  183.2340  177.9810  138.0520 N   0  0  0  0  0  2  0  0  0  0  0  0
  183.0880  178.7840  140.2610 C   0  0  0  0  0  2  0  0  0  0  0  0
  182.1820  178.8920  138.1270 N   0  0  0  0  0  0  0  0  0  0  0  0
  181.1130  180.2860  139.6770 O   0  0  0  0  0  0  0  0  0  0  0  0
  180.1690  180.6550  138.7990 O   0  0  0  0  0  0  0  0  0  0  0  0
  179.4280  183.3300  136.8740 C   0  0  2  0  0  3  0  0  0  0  0  0
  178.9370  183.7170  138.1900 N   0  0  0  0  0  2  0  0  0  0  0  0
  180.3690  182.0260  138.6140 C   0  0  2  0  0  3  0  0  0  0  0  0
  181.1660  181.7790  136.3770 O   0  0  0  0  0  0  0  0  0  0  0  0
  179.2400  182.7240  139.1020 O   0  0  0  0  0  0  0  0  0  0  0  0
  180.4340  182.3300  137.1840 C   0  0  0  0  0  0  0  0  0  0  0  0
  179.8510  184.6380  134.7840 O   0  0  0  0  0  0  0  0  0  0  0  0
  180.6880  185.3840  136.7850 O   0  0  0  0  0  1  0  0  0  0  0  0
  180.0270  184.5100  136.1570 C   0  0  0  0  0  0  0  0  0  0  0  0
  189.0630  172.8030  135.3870 C   0  0  0  0  0  2  0  0  0  0  0  0
  187.6940  172.3090  134.9620 C   0  0  0  0  0  1  0  0  0  0  0  0
  187.2080  176.4860  135.3140 O   0  0  0  0  0  0  0  0  0  0  0  0
  185.9350  177.0620  135.3450 C   0  0  0  0  0  2  0  0  0  0  0  0
  184.6800  175.7540  135.4150 P   0  0  0  0  0  0  0  0  0  0  0  0
  183.2200  176.3300  134.7840 O   0  0  0  0  0  1  0  0  0  0  0  0
  185.1450  174.5720  134.5970 O   0  0  0  0  0  0  0  0  0  0  0  0
  184.4440  175.2750  137.0240 O   0  0  0  0  0  1  0  0  0  0  0  0
  190.7070  178.3900  142.1220 C   0  0  0  0  0  2  0  0  0  0  0  0
  191.6490  178.0420  144.4930 C   0  0  1  0  0  3  0  0  0  0  0  0
  191.9500  178.2510  143.0050 C   0  0  2  0  0  3  0  0  0  0  0  0
  192.0040  179.4210  143.9690 C   0  0  0  0  0  2  0  0  0  0  0  0
  189.4630  176.7610  144.5930 C   0  0  0  0  0  0  0  0  0  0  0  0
  190.2140  177.9630  144.7670 N   0  0  0  0  0  2  0  0  0  0  0  0
  190.0260  175.7160  144.1560 O   0  0  0  0  0  0  0  0  0  0  0  0
  187.3250  178.0070  146.8370 C   0  0  0  0  0  2  0  0  0  0  0  0
  186.2880  177.5210  143.4940 N   0  0  0  0  0  2  0  0  0  0  0  0
  185.2070  178.2110  145.5600 C   0  0  1  0  0  3  0  0  0  0  0  0
  183.0990  179.3510  145.2780 O   0  0  0  0  0  0  0  0  0  0  0  0
  186.6570  178.6170  145.6240 C   0  0  2  0  0  3  0  0  0  0  0  0
  184.3090  179.3760  145.9830 C   0  0  0  0  0  2  0  0  0  0  0  0
  187.8930  176.7270  146.4500 N   0  0  0  0  0  2  0  0  0  0  0  0
  183.4330  179.7820  143.9950 C   0  0  0  0  0  2  0  0  0  0  0  0
  187.3110  177.9520  144.4450 C   0  0  1  0  0  3  0  0  0  0  0  0
  188.0290  176.7410  144.9980 C   0  0  1  0  0  3  0  0  0  0  0  0
  184.1350  178.6670  143.2220 C   0  0  0  0  0  2  0  0  0  0  0  0
  184.9860  177.7440  144.1160 C   0  0  1  0  0  3  0  0  0  0  0  0
  1 34  1  1  0  0  0
  1  7  1  0  0  0  0
  1 12  1  0  0  0  0
  2  5  1  0  0  0  0
  2 10  1  0  0  0  0
  3  8  1  0  0  0  0
  4 12  1  0  0  0  0
  4  2  1  0  0  0  0
  5 11  1  0  0  0  0
  7 13  1  0  0  0  0
  8 14  1  0  0  0  0
  9  6  1  0  0  0  0
  9 14  1  0  0  0  0
 10 15  1  0  0  0  0
 10  6  1  0  0  0  0
 11  3  1  0  0  0  0
 11  9  1  0  0  0  0
 13  5  1  0  0  0  0
 14 42  1  0  0  0  0
 15 16  1  0  0  0  0
 16 19  1  0  0  0  0
 16 17  2  0  0  0  0
 18 23  1  0  0  0  0
 18 21  1  0  0  0  0
 19 21  1  0  0  0  0
 20 22  1  0  0  0  0
 20 19  1  0  0  0  0
 22 18  2  0  0  0  0
 24 23  1  0  0  0  0
 25 30  1  0  0  0  0
 25 26  1  0  0  0  0
 26 29  1  0  0  0  0
 27 24  1  0  0  0  0
 27 29  1  0  0  0  0
 28 30  2  0  0  0  0
 30 27  1  0  0  0  0
 31 33  2  0  0  0  0
 33 32  1  0  0  0  0
 33 25  1  0  0  0  0
 35 34  1  0  0  0  0
 36 37  1  0  0  0  0
 36  4  1  0  0  0  0
 37 38  1  0  0  0  0
 38 41  1  0  0  0  0
 39 38  1  0  0  0  0
 40 38  2  0  0  0  0
 42 44  1  0  0  0  0
 43 47  1  0  0  0  0
 44 45  1  0  0  0  0
 44 43  1  0  0  0  0
 45 43  1  0  0  0  0
 46 47  1  0  0  0  0
 46 58  1  0  0  0  0
 48 46  2  0  0  0  0
 50 60  1  0  0  0  0
 50 57  1  0  0  0  0
 51 53  1  0  0  0  0
 51 54  1  0  0  0  0
 52 54  1  0  0  0  0
 53 49  1  0  0  0  0
 55 49  1  0  0  0  0
 56 52  1  0  0  0  0
 57 58  1  0  0  0  0
 57 53  1  0  0  0  0
 58 55  1  0  0  0  0
 59 56  1  0  0  0  0
 59 60  1  0  0  0  0
 60 51  1  0  0  0  0
M  END
>  <MODEL>
7

>  <REMARK>
 VINA RESULT:      -5.8      4.327     11.808
  Name = 
  14 active torsions:
  status: ('A' for Active; 'I' for Inactive)
    1  A    between atoms: C_1  and  C_44
    2  A    between atoms: P_2  and  C_9
    3  A    between atoms: C_5  and  N_43
    4  A    between atoms: C_7  and  C_22
    5  A    between atoms: N_8  and  C_48
    6  A    between atoms: C_9  and  O_35
    7  A    between atoms: C_10  and  C_57
    8  A    between atoms: C_13  and  O_46
    9  A    between atoms: C_16  and  C_33
   10  A    between atoms: C_18  and  C_27
   11  A    between atoms: C_19  and  O_35
   12  A    between atoms: O_23  and  C_28
   13  A    between atoms: O_23  and  O_46
   14  A    between atoms: C_56  and  C_57
                            x       y       z     vdW  Elec       q    Type
                         _______ _______ _______ _____ _____    ______ ____

>  <TORSDO>
F 14

$$$$
=
 OpenBabel10222415213D

 60 68  0  0  1  0  0  0  0  0999 V2000
  187.3780  177.6510  143.5100 C   0  0  2  0  0  3  0  0  0  0  0  0
  188.0660  178.3080  140.3540 C   0  0  2  0  0  3  0  0  0  0  0  0
  184.2560  178.6580  139.6830 C   0  0  0  0  0  2  0  0  0  0  0  0
  188.9310  177.7100  141.4850 C   0  0  2  0  0  3  0  0  0  0  0  0
  186.5510  178.3160  140.6400 C   0  0  2  0  0  3  0  0  0  0  0  0
  187.2330  177.1300  138.2400 C   0  0  0  0  0  2  0  0  0  0  0  0
  186.0520  178.1270  142.9120 C   0  0  0  0  0  2  0  0  0  0  0  0
  183.6750  178.1540  138.3780 C   0  0  0  0  0  2  0  0  0  0  0  0
  186.0830  178.1340  138.1260 C   0  0  2  0  0  3  0  0  0  0  0  0
  188.4200  177.7900  138.9340 C   0  0  2  0  0  3  0  0  0  0  0  0
  185.7470  178.8530  139.4490 C   0  0  1  0  0  3  0  0  0  0  0  0
  188.1790  176.8360  142.4960 C   0  0  0  0  0  2  0  0  0  0  0  0
  186.2750  179.0860  141.8440 N   0  0  0  0  0  2  0  0  0  0  0  0
  184.8170  177.4280  137.6930 C   0  0  2  0  0  3  0  0  0  0  0  0
  189.5730  176.8940  138.9280 N   0  0  0  0  0  2  0  0  0  0  0  0
  190.3840  176.7250  137.7620 C   0  0  0  0  0  0  0  0  0  0  0  0
  190.0560  177.2760  136.6700 O   0  0  0  0  0  0  0  0  0  0  0  0
  193.6530  176.3910  136.8380 C   0  0  0  0  0  0  0  0  0  0  0  0
  191.5970  175.8550  137.8330 C   0  0  2  0  0  3  0  0  0  0  0  0
  192.5750  176.4150  138.7510 N   0  0  0  0  0  2  0  0  0  0  0  0
  192.3190  175.8310  136.4830 C   0  0  0  0  0  2  0  0  0  0  0  0
  193.7630  176.6990  138.0800 N   0  0  0  0  0  0  0  0  0  0  0  0
  194.6930  176.5820  135.9320 O   0  0  0  0  0  0  0  0  0  0  0  0
  195.2200  175.5400  135.2740 O   0  0  0  0  0  0  0  0  0  0  0  0
  197.6450  173.2250  135.6890 C   0  0  2  0  0  3  0  0  0  0  0  0
  198.3900  174.4450  135.4050 N   0  0  0  0  0  2  0  0  0  0  0  0
  196.3470  175.1800  136.0180 C   0  0  2  0  0  3  0  0  0  0  0  0
  195.4660  173.0470  136.6330 O   0  0  0  0  0  0  0  0  0  0  0  0
  197.5080  175.5010  135.2780 O   0  0  0  0  0  0  0  0  0  0  0  0
  196.3810  173.7270  136.1960 C   0  0  0  0  0  0  0  0  0  0  0  0
  198.1050  171.0220  136.7810 O   0  0  0  0  0  0  0  0  0  0  0  0
  199.1810  172.9090  137.5200 O   0  0  0  0  0  1  0  0  0  0  0  0
  198.3580  172.3880  136.7160 C   0  0  0  0  0  0  0  0  0  0  0  0
  187.1000  176.7730  144.7160 C   0  0  0  0  0  2  0  0  0  0  0  0
  186.2440  177.5120  145.7260 C   0  0  0  0  0  1  0  0  0  0  0  0
  189.6590  178.7130  142.1270 O   0  0  0  0  0  0  0  0  0  0  0  0
  190.8840  178.1180  142.4410 C   0  0  0  0  0  2  0  0  0  0  0  0
  191.2130  178.3110  144.2150 P   0  0  0  0  0  0  0  0  0  0  0  0
  192.4080  179.4840  144.4480 O   0  0  0  0  0  0  0  0  0  0  0  0
  189.9460  178.7440  144.9130 O   0  0  0  0  0  1  0  0  0  0  0  0
  191.7440  176.8360  144.8610 O   0  0  0  0  0  1  0  0  0  0  0  0
  184.6550  177.3850  136.1760 C   0  0  0  0  0  2  0  0  0  0  0  0
  183.6750  175.0330  135.8100 C   0  0  1  0  0  3  0  0  0  0  0  0
  184.8590  175.9830  135.5980 C   0  0  2  0  0  3  0  0  0  0  0  0
  184.8760  174.9780  136.7350 C   0  0  0  0  0  2  0  0  0  0  0  0
  181.3470  174.9890  136.8120 C   0  0  0  0  0  0  0  0  0  0  0  0
  182.5520  175.6820  136.4840 N   0  0  0  0  0  2  0  0  0  0  0  0
  181.2050  173.7740  136.4920 O   0  0  0  0  0  0  0  0  0  0  0  0
  180.1090  175.3230  139.8970 C   0  0  0  0  0  2  0  0  0  0  0  0
  180.2640  178.1220  137.7470 N   0  0  0  0  0  2  0  0  0  0  0  0
  179.3620  177.6870  139.9620 C   0  0  1  0  0  3  0  0  0  0  0  0
  178.9340  179.6540  141.2940 O   0  0  0  0  0  0  0  0  0  0  0  0
  180.5330  176.7660  139.7370 C   0  0  2  0  0  3  0  0  0  0  0  0
  179.4690  178.3600  141.3330 C   0  0  0  0  0  2  0  0  0  0  0  0
  179.7020  174.8200  138.5960 N   0  0  0  0  0  2  0  0  0  0  0  0
  179.8850  180.4050  140.6040 C   0  0  0  0  0  2  0  0  0  0  0  0
  180.8820  176.9100  138.2830 C   0  0  1  0  0  3  0  0  0  0  0  0
  180.2950  175.6980  137.5930 C   0  0  1  0  0  3  0  0  0  0  0  0
  179.8090  180.1150  139.1060 C   0  0  0  0  0  2  0  0  0  0  0  0
  179.3920  178.6670  138.7820 C   0  0  1  0  0  3  0  0  0  0  0  0
  1 34  1  1  0  0  0
  2  5  1  0  0  0  0
  2  4  1  0  0  0  0
  4 36  1  0  0  0  0
  4 12  1  0  0  0  0
  5 13  1  0  0  0  0
  6 10  1  0  0  0  0
  7  1  1  0  0  0  0
  8  3  1  0  0  0  0
  9  6  1  0  0  0  0
  9 11  1  0  0  0  0
 10  2  1  0  0  0  0
 11  3  1  0  0  0  0
 11  5  1  0  0  0  0
 12  1  1  0  0  0  0
 13  7  1  0  0  0  0
 14  9  1  0  0  0  0
 14  8  1  0  0  0  0
 15 10  1  0  0  0  0
 16 19  1  0  0  0  0
 16 15  1  0  0  0  0
 17 16  2  0  0  0  0
 18 22  2  0  0  0  0
 19 20  1  0  0  0  0
 21 18  1  0  0  0  0
 21 19  1  0  0  0  0
 22 20  1  0  0  0  0
 23 18  1  0  0  0  0
 24 23  1  0  0  0  0
 24 27  1  0  0  0  0
 25 30  1  0  0  0  0
 25 33  1  0  0  0  0
 26 25  1  0  0  0  0
 27 30  1  0  0  0  0
 29 26  1  0  0  0  0
 29 27  1  0  0  0  0
 30 28  2  0  0  0  0
 33 31  2  0  0  0  0
 33 32  1  0  0  0  0
 34 35  1  0  0  0  0
 36 37  1  0  0  0  0
 37 38  1  0  0  0  0
 38 39  2  0  0  0  0
 38 41  1  0  0  0  0
 38 40  1  0  0  0  0
 42 14  1  0  0  0  0
 43 47  1  0  0  0  0
 43 45  1  0  0  0  0
 44 43  1  0  0  0  0
 44 42  1  0  0  0  0
 44 45  1  0  0  0  0
 46 58  1  0  0  0  0
 47 46  1  0  0  0  0
 48 46  2  0  0  0  0
 50 57  1  0  0  0  0
 50 60  1  0  0  0  0
 51 54  1  0  0  0  0
 52 54  1  0  0  0  0
 53 49  1  0  0  0  0
 53 51  1  0  0  0  0
 55 49  1  0  0  0  0
 56 52  1  0  0  0  0
 57 53  1  0  0  0  0
 58 57  1  0  0  0  0
 58 55  1  0  0  0  0
 59 56  1  0  0  0  0
 60 59  1  0  0  0  0
 60 51  1  0  0  0  0
M  END
>  <MODEL>
8

>  <REMARK>
 VINA RESULT:      -5.4      1.969      2.655
  Name = 
  14 active torsions:
  status: ('A' for Active; 'I' for Inactive)
    1  A    between atoms: C_1  and  C_44
    2  A    between atoms: P_2  and  C_9
    3  A    between atoms: C_5  and  N_43
    4  A    between atoms: C_7  and  C_22
    5  A    between atoms: N_8  and  C_48
    6  A    between atoms: C_9  and  O_35
    7  A    between atoms: C_10  and  C_57
    8  A    between atoms: C_13  and  O_46
    9  A    between atoms: C_16  and  C_33
   10  A    between atoms: C_18  and  C_27
   11  A    between atoms: C_19  and  O_35
   12  A    between atoms: O_23  and  C_28
   13  A    between atoms: O_23  and  O_46
   14  A    between atoms: C_56  and  C_57
                            x       y       z     vdW  Elec       q    Type
                         _______ _______ _______ _____ _____    ______ ____

>  <TORSDO>
F 14

$$$$
=
 OpenBabel10222415213D

 60 68  0  0  1  0  0  0  0  0999 V2000
  191.1100  177.8980  143.6700 C   0  0  2  0  0  3  0  0  0  0  0  0
  188.3220  177.2110  142.0490 C   0  0  2  0  0  3  0  0  0  0  0  0
  190.3570  177.1660  138.7400 C   0  0  0  0  0  2  0  0  0  0  0  0
  188.5700  177.7320  143.4820 C   0  0  2  0  0  3  0  0  0  0  0  0
  189.5390  177.3200  141.1080 C   0  0  2  0  0  3  0  0  0  0  0  0
  187.2360  178.4670  140.1020 C   0  0  0  0  0  2  0  0  0  0  0  0
  191.5610  177.5310  142.2540 C   0  0  0  0  0  2  0  0  0  0  0  0
  189.7390  177.7240  137.4730 C   0  0  0  0  0  2  0  0  0  0  0  0
  187.9580  177.5560  139.1040 C   0  0  2  0  0  3  0  0  0  0  0  0
  187.0010  177.7110  141.4040 C   0  0  2  0  0  3  0  0  0  0  0  0
  189.2040  176.8560  139.6850 C   0  0  1  0  0  3  0  0  0  0  0  0
  189.7830  178.6540  143.6470 C   0  0  0  0  0  2  0  0  0  0  0  0
  190.6590  176.5650  141.6510 N   0  0  0  0  0  2  0  0  0  0  0  0
  188.4380  178.3620  137.9170 C   0  0  2  0  0  3  0  0  0  0  0  0
  186.1920  178.5140  142.3180 N   0  0  0  0  0  2  0  0  0  0  0  0
  184.7630  178.4860  142.2740 C   0  0  0  0  0  0  0  0  0  0  0  0
  184.1640  177.8370  141.3660 O   0  0  0  0  0  0  0  0  0  0  0  0
  181.7940  178.7400  143.9390 C   0  0  0  0  0  0  0  0  0  0  0  0
  183.9840  179.2680  143.2800 C   0  0  2  0  0  3  0  0  0  0  0  0
  183.8970  178.5420  144.5370 N   0  0  0  0  0  2  0  0  0  0  0  0
  182.5270  179.4170  142.8330 C   0  0  0  0  0  2  0  0  0  0  0  0
  182.5670  178.2740  144.8530 N   0  0  0  0  0  0  0  0  0  0  0  0
  180.4100  178.6030  143.9970 O   0  0  0  0  0  0  0  0  0  0  0  0
  179.7420  178.0110  142.9970 O   0  0  0  0  0  0  0  0  0  0  0  0
  179.1250  178.5220  139.7160 C   0  0  2  0  0  3  0  0  0  0  0  0
  179.0110  179.8560  140.2910 N   0  0  0  0  0  2  0  0  0  0  0  0
  180.1540  178.6850  141.8440 C   0  0  2  0  0  3  0  0  0  0  0  0
  180.3880  176.6870  140.5580 O   0  0  0  0  0  0  0  0  0  0  0  0
  179.3090  179.8000  141.6390 O   0  0  0  0  0  0  0  0  0  0  0  0
  179.9650  177.8260  140.6740 C   0  0  0  0  0  0  0  0  0  0  0  0
  179.2020  177.8670  137.3030 O   0  0  0  0  0  0  0  0  0  0  0  0
  180.8130  179.2570  138.1600 O   0  0  0  0  0  1  0  0  0  0  0  0
  179.7670  178.5770  138.3560 C   0  0  0  0  0  0  0  0  0  0  0  0
  192.1550  178.7870  144.3190 C   0  0  0  0  0  2  0  0  0  0  0  0
  191.5520  180.1230  144.7050 C   0  0  0  0  0  1  0  0  0  0  0  0
  188.6150  176.6700  144.3880 O   0  0  0  0  0  0  0  0  0  0  0  0
  188.8100  177.2730  145.6330 C   0  0  0  0  0  2  0  0  0  0  0  0
  187.2010  177.6890  146.3610 P   0  0  0  0  0  0  0  0  0  0  0  0
  187.3170  177.6720  148.0490 O   0  0  0  0  0  1  0  0  0  0  0  0
  186.7880  179.0680  145.9040 O   0  0  0  0  0  1  0  0  0  0  0  0
  186.0410  176.5550  145.8690 O   0  0  0  0  0  0  0  0  0  0  0  0
  187.4080  178.4290  136.7940 C   0  0  0  0  0  2  0  0  0  0  0  0
  187.1080  176.7780  134.8410 C   0  0  1  0  0  3  0  0  0  0  0  0
  187.9470  177.9000  135.4630 C   0  0  2  0  0  3  0  0  0  0  0  0
  188.3560  176.4500  135.6380 C   0  0  0  0  0  2  0  0  0  0  0  0
  185.4770  175.1340  135.8730 C   0  0  0  0  0  0  0  0  0  0  0  0
  185.9150  176.4710  135.6290 N   0  0  0  0  0  2  0  0  0  0  0  0
  186.1080  174.1570  135.3760 O   0  0  0  0  0  0  0  0  0  0  0  0
  182.5030  176.3940  136.7250 C   0  0  0  0  0  2  0  0  0  0  0  0
  182.9670  172.8930  136.6090 N   0  0  0  0  0  2  0  0  0  0  0  0
  181.1660  174.3810  137.2840 C   0  0  1  0  0  3  0  0  0  0  0  0
  178.9860  173.3520  137.4130 O   0  0  0  0  0  0  0  0  0  0  0  0
  181.9760  175.0700  136.2170 C   0  0  2  0  0  3  0  0  0  0  0  0
  179.6710  174.4930  136.9740 C   0  0  0  0  0  2  0  0  0  0  0  0
  183.8130  176.1690  137.3130 N   0  0  0  0  0  2  0  0  0  0  0  0
  179.3310  172.3620  136.4940 C   0  0  0  0  0  2  0  0  0  0  0  0
  183.1960  174.2140  136.0260 C   0  0  1  0  0  3  0  0  0  0  0  0
  184.3120  174.9090  136.7750 C   0  0  1  0  0  3  0  0  0  0  0  0
  180.7470  171.8560  136.7600 C   0  0  0  0  0  2  0  0  0  0  0  0
  181.6900  172.9400  137.3170 C   0  0  1  0  0  3  0  0  0  0  0  0
  1 34  1  6  0  0  0
  2  4  1  0  0  0  0
  3 11  1  0  0  0  0
  4 12  1  0  0  0  0
  4 36  1  0  0  0  0
  5 13  1  0  0  0  0
  5  2  1  0  0  0  0
  6 10  1  0  0  0  0
  7  1  1  0  0  0  0
  8 14  1  0  0  0  0
  8  3  1  0  0  0  0
  9 11  1  0  0  0  0
  9  6  1  0  0  0  0
 10  2  1  0  0  0  0
 10 15  1  0  0  0  0
 11  5  1  0  0  0  0
 12  1  1  0  0  0  0
 13  7  1  0  0  0  0
 14  9  1  0  0  0  0
 16 15  1  0  0  0  0
 16 19  1  0  0  0  0
 17 16  2  0  0  0  0
 18 23  1  0  0  0  0
 18 22  2  0  0  0  0
 19 20  1  0  0  0  0
 20 22  1  0  0  0  0
 21 19  1  0  0  0  0
 21 18  1  0  0  0  0
 24 23  1  0  0  0  0
 25 26  1  0  0  0  0
 25 30  1  0  0  0  0
 26 29  1  0  0  0  0
 27 24  1  0  0  0  0
 28 30  2  0  0  0  0
 29 27  1  0  0  0  0
 30 27  1  0  0  0  0
 31 33  2  0  0  0  0
 32 33  1  0  0  0  0
 33 25  1  0  0  0  0
 34 35  1  0  0  0  0
 36 37  1  0  0  0  0
 37 38  1  0  0  0  0
 38 39  1  0  0  0  0
 40 38  1  0  0  0  0
 41 38  2  0  0  0  0
 42 14  1  0  0  0  0
 43 44  1  0  0  0  0
 43 47  1  0  0  0  0
 43 45  1  0  0  0  0
 44 45  1  0  0  0  0
 44 42  1  0  0  0  0
 46 58  1  0  0  0  0
 47 46  1  0  0  0  0
 48 46  2  0  0  0  0
 49 55  1  0  0  0  0
 50 60  1  0  0  0  0
 51 60  1  0  0  0  0
 53 49  1  0  0  0  0
 53 51  1  0  0  0  0
 54 51  1  0  0  0  0
 54 52  1  0  0  0  0
 56 59  1  0  0  0  0
 56 52  1  0  0  0  0
 57 53  1  0  0  0  0
 57 50  1  0  0  0  0
 57 58  1  0  0  0  0
 58 55  1  0  0  0  0
 59 60  1  0  0  0  0
M  END
>  <MODEL>
9

>  <REMARK>
 VINA RESULT:      -5.3      4.829      9.863
  Name = 
  14 active torsions:
  status: ('A' for Active; 'I' for Inactive)
    1  A    between atoms: C_1  and  C_44
    2  A    between atoms: P_2  and  C_9
    3  A    between atoms: C_5  and  N_43
    4  A    between atoms: C_7  and  C_22
    5  A    between atoms: N_8  and  C_48
    6  A    between atoms: C_9  and  O_35
    7  A    between atoms: C_10  and  C_57
    8  A    between atoms: C_13  and  O_46
    9  A    between atoms: C_16  and  C_33
   10  A    between atoms: C_18  and  C_27
   11  A    between atoms: C_19  and  O_35
   12  A    between atoms: O_23  and  C_28
   13  A    between atoms: O_23  and  O_46
   14  A    between atoms: C_56  and  C_57
                            x       y       z     vdW  Elec       q    Type
                         _______ _______ _______ _____ _____    ______ ____

>  <TORSDO>
F 14

$$$$
