=
 OpenBabel10222419443D

 54 60  0  0  1  0  0  0  0  0999 V2000
  180.4980  177.5180  139.8780 C   0  0  0  0  0  0  0  0  0  0  0  0
  179.4450  175.5260  140.7790 C   0  0  0  0  0  3  0  0  0  0  0  0
  180.8300  175.3710  138.7920 C   0  0  0  0  0  0  0  0  0  0  0  0
  181.0660  176.7470  138.8560 C   0  0  0  0  0  3  0  0  0  0  0  0
  179.6920  176.9000  140.8490 C   0  0  0  0  0  0  0  0  0  0  0  0
  179.7510  173.3940  139.7020 O   0  0  0  0  0  1  0  0  0  0  0  0
  180.0070  174.7590  139.7540 C   0  0  0  0  0  0  0  0  0  0  0  0
  179.1390  177.6380  141.8890 O   0  0  0  0  0  1  0  0  0  0  0  0
  181.4580  174.5720  137.7020 C   0  0  0  0  0  2  0  0  0  0  0  0
  182.9060  174.6720  137.7890 N   0  0  0  0  0  2  0  0  0  0  0  0
  184.7930  176.0600  137.0850 C   0  0  0  0  0  2  0  0  0  0  0  0
  185.4920  176.2260  135.8060 N   0  0  0  0  0  0  0  0  0  0  0  0
  183.2730  176.4530  134.7370 C   0  0  0  0  0  2  0  0  0  0  0  0
  183.0830  175.3150  135.5480 O   0  0  0  0  0  0  0  0  0  0  0  0
  183.3080  175.7250  136.8730 C   0  0  1  0  0  3  0  0  0  0  0  0
  184.6850  177.0500  134.9040 C   0  0  0  0  0  2  0  0  0  0  0  0
  186.9720  177.0730  136.1300 S   0  0  0  0  0  0  0  0  0  0  0  0
  186.7340  178.0970  137.2040 O   0  0  0  0  0  0  0  0  0  0  0  0
  187.4500  177.7680  134.8840 O   0  0  0  0  0  0  0  0  0  0  0  0
  188.2320  175.9340  136.6810 C   0  0  0  0  0  2  0  0  0  0  0  0
  192.8100  175.1940  136.0400 C   0  0  0  0  0  1  0  0  0  0  0  0
  190.1830  177.0960  137.2480 C   0  0  0  0  0  2  0  0  0  0  0  0
  191.6000  174.4900  137.9690 O   0  0  0  0  0  1  0  0  0  0  0  0
  191.5730  175.3840  136.8940 C   0  0  2  0  0  0  0  0  0  0  0  0
  190.3360  175.1460  136.0640 C   0  0  0  0  0  2  0  0  0  0  0  0
  191.5290  176.6980  137.3740 O   0  0  0  0  0  0  0  0  0  0  0  0
  189.5370  176.3440  136.1820 N   0  0  0  0  0  0  0  0  0  0  0  0
  180.8580  179.2760  139.9450 S   0  0  0  0  0  0  0  0  0  0  0  0
  183.6480  179.2410  139.9270 C   0  0  0  0  0  0  0  0  0  0  0  0
  182.4790  179.0410  140.6790 C   0  0  0  0  0  0  0  0  0  0  0  0
  183.8340  178.5250  142.6360 C   0  0  0  0  0  0  0  0  0  0  0  0
  182.5770  178.6890  142.0280 C   0  0  0  0  0  3  0  0  0  0  0  0
  184.9000  179.0800  140.5290 C   0  0  0  0  0  3  0  0  0  0  0  0
  185.0010  178.7240  141.8830 C   0  0  0  0  0  0  0  0  0  0  0  0
  183.5760  179.6150  138.5910 O   0  0  0  0  0  1  0  0  0  0  0  0
  186.2470  178.5630  142.4990 O   0  0  0  0  0  0  0  0  0  0  0  0
  187.1970  177.5900  142.0780 C   0  0  0  0  0  2  0  0  0  0  0  0
  187.9970  177.1050  143.2700 C   0  0  0  0  0  2  0  0  0  0  0  0
  189.3200  176.6740  142.8330 N   0  0  0  0  0  0  0  0  0  0  0  0
  189.9360  177.8550  142.1880 C   0  0  1  0  0  3  0  0  0  0  0  0
  190.0640  178.2950  144.7020 C   0  0  0  0  0  2  0  0  0  0  0  0
  191.6520  176.9770  146.0330 N   0  0  0  0  0  2  0  0  0  0  0  0
  190.4260  177.4130  143.4990 C   0  0  0  0  0  0  0  0  0  0  0  0
  190.2880  177.5030  145.9910 C   0  0  0  0  0  2  0  0  0  0  0  0
  191.7030  176.5770  143.6090 C   0  0  0  0  0  2  0  0  0  0  0  0
  191.7770  175.9470  145.0020 C   0  0  0  0  0  2  0  0  0  0  0  0
  190.7880  177.3980  141.0120 C   0  0  0  0  0  2  0  0  0  0  0  0
  190.3230  176.1680  140.5490 O   0  0  0  0  0  1  0  0  0  0  0  0
  183.9450  178.1700  143.9850 O   0  0  0  0  0  0  0  0  0  0  0  0
  183.7620  179.1000  145.0470 C   0  0  0  0  0  2  0  0  0  0  0  0
  184.5240  178.6410  146.2830 C   0  0  0  0  0  2  0  0  0  0  0  0
  186.7290  178.6450  147.3960 C   0  0  0  0  0  2  0  0  0  0  0  0
  186.6760  177.4480  146.4680 C   0  0  0  0  0  2  0  0  0  0  0  0
  186.0200  178.7520  146.0570 C   0  0  0  0  0  3  0  0  0  0  0  0
  1 28  1  0  0  0  0
  1  5  1  0  0  0  0
  2  5  2  0  0  0  0
  3  4  1  0  0  0  0
  3  7  2  0  0  0  0
  4  1  2  0  0  0  0
  5  8  1  0  0  0  0
  6  7  1  0  0  0  0
  7  2  1  0  0  0  0
  9 10  1  0  0  0  0
  9  3  1  0  0  0  0
 12 17  1  0  0  0  0
 12 11  1  0  0  0  0
 13 16  1  0  0  0  0
 13 14  1  0  0  0  0
 14 15  1  0  0  0  0
 15 11  1  0  0  0  0
 15 10  1  1  0  0  0
 16 12  1  0  0  0  0
 17 20  1  0  0  0  0
 17 18  2  0  0  0  0
 19 17  2  0  0  0  0
 22 26  1  0  0  0  0
 24 21  1  6  0  0  0
 24 26  1  0  0  0  0
 24 23  1  0  0  0  0
 25 27  1  0  0  0  0
 25 24  1  0  0  0  0
 27 20  1  0  0  0  0
 27 22  1  0  0  0  0
 28 30  1  0  0  0  0
 29 33  2  0  0  0  0
 29 30  1  0  0  0  0
 30 32  2  0  0  0  0
 31 49  1  0  0  0  0
 32 31  1  0  0  0  0
 33 34  1  0  0  0  0
 34 36  1  0  0  0  0
 34 31  2  0  0  0  0
 35 29  1  0  0  0  0
 37 36  1  0  0  0  0
 37 38  1  0  0  0  0
 39 38  1  0  0  0  0
 39 43  1  0  0  0  0
 40 47  1  6  0  0  0
 40 39  1  0  0  0  0
 40 43  1  0  0  0  0
 41 44  1  0  0  0  0
 43 45  1  0  0  0  0
 43 41  1  0  0  0  0
 44 42  1  0  0  0  0
 45 46  1  0  0  0  0
 46 42  1  0  0  0  0
 48 47  1  0  0  0  0
 49 50  1  0  0  0  0
 50 51  1  0  0  0  0
 53 52  1  0  0  0  0
 54 51  1  0  0  0  0
 54 53  1  0  0  0  0
 54 52  1  0  0  0  0
M  END
>  <MODEL>
1

>  <REMARK>
 VINA RESULT:      -7.9      0.000      0.000
  Name = 
  17 active torsions:
  status: ('A' for Active; 'I' for Inactive)
    1  A    between atoms: C_1  and  O_6
    2  A    between atoms: C_1  and  C_24
    3  A    between atoms: C_3  and  C_27
    4  A    between atoms: C_5  and  S_45
    5  A    between atoms: O_6  and  C_39
    6  A    between atoms: C_8  and  C_18
    7  A    between atoms: C_8  and  O_20
    8  A    between atoms: C_9  and  S_45
    9  A    between atoms: C_10  and  O_20
   10  A    between atoms: N_11  and  C_24
   11  A    between atoms: C_14  and  C_23
   12  A    between atoms: N_15  and  S_26
   13  A    between atoms: C_18  and  C_22
   14  A    between atoms: N_19  and  C_23
   15  A    between atoms: N_19  and  C_50
   16  A    between atoms: S_26  and  C_53
   17  A    between atoms: N_47  and  C_53
                            x       y       z     vdW  Elec       q    Type
                         _______ _______ _______ _____ _____    ______ ____

>  <TORSDO>
F 17

$$$$
=
 OpenBabel10222419443D

 54 60  0  0  1  0  0  0  0  0999 V2000
  182.8750  178.8400  142.0410 C   0  0  0  0  0  0  0  0  0  0  0  0
  183.4040  178.6540  144.4020 C   0  0  0  0  0  3  0  0  0  0  0  0
  185.1540  178.3810  142.7420 C   0  0  0  0  0  0  0  0  0  0  0  0
  184.2170  178.5940  141.7270 C   0  0  0  0  0  3  0  0  0  0  0  0
  182.4710  178.8800  143.3860 C   0  0  0  0  0  0  0  0  0  0  0  0
  185.6560  178.1810  145.1110 O   0  0  0  0  0  1  0  0  0  0  0  0
  184.7430  178.4010  144.0860 C   0  0  0  0  0  0  0  0  0  0  0  0
  181.1490  179.1490  143.7230 O   0  0  0  0  0  1  0  0  0  0  0  0
  186.5790  178.1340  142.3820 C   0  0  0  0  0  2  0  0  0  0  0  0
  186.8680  178.7260  141.0850 N   0  0  0  0  0  2  0  0  0  0  0  0
  189.0170  178.1450  142.1000 C   0  0  0  0  0  2  0  0  0  0  0  0
  189.9110  176.9900  141.9610 N   0  0  0  0  0  0  0  0  0  0  0  0
  189.6830  177.2360  139.5100 C   0  0  0  0  0  2  0  0  0  0  0  0
  188.3400  177.3220  139.9310 O   0  0  0  0  0  0  0  0  0  0  0  0
  188.2600  178.4300  140.7930 C   0  0  1  0  0  3  0  0  0  0  0  0
  190.6510  177.0860  140.7000 C   0  0  0  0  0  2  0  0  0  0  0  0
  191.0560  177.0600  143.2630 S   0  0  0  0  0  0  0  0  0  0  0  0
  192.2910  177.7800  142.8020 O   0  0  0  0  0  0  0  0  0  0  0  0
  191.4290  175.6680  143.6960 O   0  0  0  0  0  0  0  0  0  0  0  0
  190.3580  177.9350  144.6560 C   0  0  0  0  0  2  0  0  0  0  0  0
  187.8170  176.9510  148.4620 C   0  0  0  0  0  1  0  0  0  0  0  0
  190.7930  176.8750  146.6970 C   0  0  0  0  0  2  0  0  0  0  0  0
  189.1110  178.9340  148.1960 O   0  0  0  0  0  1  0  0  0  0  0  0
  188.9610  177.6240  147.7310 C   0  0  2  0  0  0  0  0  0  0  0  0
  188.6840  177.6370  146.2490 C   0  0  0  0  0  2  0  0  0  0  0  0
  190.1430  176.9080  147.9480 O   0  0  0  0  0  0  0  0  0  0  0  0
  189.8160  176.9920  145.6240 N   0  0  0  0  0  0  0  0  0  0  0  0
  181.7120  179.1470  140.7070 S   0  0  0  0  0  0  0  0  0  0  0  0
  183.6980  178.7020  138.7990 C   0  0  0  0  0  0  0  0  0  0  0  0
  182.6240  178.1570  139.5200 C   0  0  0  0  0  0  0  0  0  0  0  0
  182.9980  176.0070  138.4380 C   0  0  0  0  0  0  0  0  0  0  0  0
  182.2830  176.8130  139.3400 C   0  0  0  0  0  3  0  0  0  0  0  0
  184.4130  177.9020  137.9010 C   0  0  0  0  0  3  0  0  0  0  0  0
  184.0700  176.5540  137.7160 C   0  0  0  0  0  0  0  0  0  0  0  0
  184.0730  180.0280  138.9790 O   0  0  0  0  0  1  0  0  0  0  0  0
  184.7780  175.7410  136.8240 O   0  0  0  0  0  0  0  0  0  0  0  0
  185.2790  176.2140  135.5780 C   0  0  0  0  0  2  0  0  0  0  0  0
  186.5450  175.4650  135.2170 C   0  0  0  0  0  2  0  0  0  0  0  0
  187.6550  176.4030  135.0950 N   0  0  0  0  0  0  0  0  0  0  0  0
  187.6770  177.1680  136.3620 C   0  0  1  0  0  3  0  0  0  0  0  0
  188.6680  174.8780  136.9160 C   0  0  0  0  0  2  0  0  0  0  0  0
  190.9080  174.3420  136.0640 N   0  0  0  0  0  2  0  0  0  0  0  0
  188.7270  176.1760  136.1000 C   0  0  0  0  0  0  0  0  0  0  0  0
  189.5530  173.8230  136.2500 C   0  0  0  0  0  2  0  0  0  0  0  0
  190.1030  176.6160  135.5940 C   0  0  0  0  0  2  0  0  0  0  0  0
  190.8580  175.3990  135.0530 C   0  0  0  0  0  2  0  0  0  0  0  0
  188.0860  178.6060  136.0740 C   0  0  0  0  0  2  0  0  0  0  0  0
  188.2080  179.3050  137.2740 O   0  0  0  0  0  1  0  0  0  0  0  0
  182.6630  174.6610  138.2470 O   0  0  0  0  0  0  0  0  0  0  0  0
  181.7180  174.2310  137.2730 C   0  0  0  0  0  2  0  0  0  0  0  0
  182.3370  173.1660  136.3770 C   0  0  0  0  0  2  0  0  0  0  0  0
  183.8140  171.1880  136.3040 C   0  0  0  0  0  2  0  0  0  0  0  0
  184.4920  172.2470  137.1490 C   0  0  0  0  0  2  0  0  0  0  0  0
  182.9870  172.0790  137.2130 C   0  0  0  0  0  3  0  0  0  0  0  0
  1  5  1  0  0  0  0
  3  7  2  0  0  0  0
  4  1  2  0  0  0  0
  4  3  1  0  0  0  0
  5  8  1  0  0  0  0
  5  2  2  0  0  0  0
  7  2  1  0  0  0  0
  7  6  1  0  0  0  0
  9  3  1  0  0  0  0
 10  9  1  0  0  0  0
 12 11  1  0  0  0  0
 12 17  1  0  0  0  0
 13 14  1  0  0  0  0
 13 16  1  0  0  0  0
 14 15  1  0  0  0  0
 15 10  1  1  0  0  0
 15 11  1  0  0  0  0
 16 12  1  0  0  0  0
 17 19  2  0  0  0  0
 17 20  1  0  0  0  0
 18 17  2  0  0  0  0
 20 27  1  0  0  0  0
 22 26  1  0  0  0  0
 24 26  1  0  0  0  0
 24 23  1  0  0  0  0
 24 21  1  1  0  0  0
 25 24  1  0  0  0  0
 27 25  1  0  0  0  0
 27 22  1  0  0  0  0
 28  1  1  0  0  0  0
 29 35  1  0  0  0  0
 29 30  1  0  0  0  0
 30 28  1  0  0  0  0
 31 32  1  0  0  0  0
 32 30  2  0  0  0  0
 33 29  2  0  0  0  0
 34 33  1  0  0  0  0
 34 31  2  0  0  0  0
 36 34  1  0  0  0  0
 37 36  1  0  0  0  0
 38 37  1  0  0  0  0
 39 38  1  0  0  0  0
 39 43  1  0  0  0  0
 39 40  1  0  0  0  0
 40 47  1  6  0  0  0
 42 44  1  0  0  0  0
 43 40  1  0  0  0  0
 43 41  1  0  0  0  0
 44 41  1  0  0  0  0
 45 43  1  0  0  0  0
 46 45  1  0  0  0  0
 46 42  1  0  0  0  0
 47 48  1  0  0  0  0
 49 31  1  0  0  0  0
 50 49  1  0  0  0  0
 51 54  1  0  0  0  0
 51 50  1  0  0  0  0
 52 53  1  0  0  0  0
 52 54  1  0  0  0  0
 53 54  1  0  0  0  0
M  END
>  <MODEL>
2

>  <REMARK>
 VINA RESULT:      -7.5      2.574      8.037
  Name = 
  17 active torsions:
  status: ('A' for Active; 'I' for Inactive)
    1  A    between atoms: C_1  and  O_6
    2  A    between atoms: C_1  and  C_24
    3  A    between atoms: C_3  and  C_27
    4  A    between atoms: C_5  and  S_45
    5  A    between atoms: O_6  and  C_39
    6  A    between atoms: C_8  and  C_18
    7  A    between atoms: C_8  and  O_20
    8  A    between atoms: C_9  and  S_45
    9  A    between atoms: C_10  and  O_20
   10  A    between atoms: N_11  and  C_24
   11  A    between atoms: C_14  and  C_23
   12  A    between atoms: N_15  and  S_26
   13  A    between atoms: C_18  and  C_22
   14  A    between atoms: N_19  and  C_23
   15  A    between atoms: N_19  and  C_50
   16  A    between atoms: S_26  and  C_53
   17  A    between atoms: N_47  and  C_53
                            x       y       z     vdW  Elec       q    Type
                         _______ _______ _______ _____ _____    ______ ____

>  <TORSDO>
F 17

$$$$
=
 OpenBabel10222419443D

 54 60  0  0  1  0  0  0  0  0999 V2000
  180.6240  177.5140  139.6150 C   0  0  0  0  0  0  0  0  0  0  0  0
  179.5840  175.9340  141.1340 C   0  0  0  0  0  3  0  0  0  0  0  0
  180.6160  175.1440  139.0840 C   0  0  0  0  0  0  0  0  0  0  0  0
  180.9610  176.4590  138.7580 C   0  0  0  0  0  3  0  0  0  0  0  0
  179.9410  177.2470  140.8130 C   0  0  0  0  0  0  0  0  0  0  0  0
  179.5520  173.5840  140.6130 O   0  0  0  0  0  1  0  0  0  0  0  0
  179.9140  174.8830  140.2740 C   0  0  0  0  0  0  0  0  0  0  0  0
  179.6200  178.2750  141.6920 O   0  0  0  0  0  1  0  0  0  0  0  0
  180.9980  174.0380  138.1620 C   0  0  0  0  0  2  0  0  0  0  0  0
  181.1560  174.5550  136.8120 N   0  0  0  0  0  2  0  0  0  0  0  0
  183.4830  173.8700  136.4970 C   0  0  0  0  0  2  0  0  0  0  0  0
  184.1970  172.6090  136.7290 N   0  0  0  0  0  0  0  0  0  0  0  0
  182.3570  171.4650  135.5340 C   0  0  0  0  0  2  0  0  0  0  0  0
  181.6450  172.3030  136.4170 O   0  0  0  0  0  0  0  0  0  0  0  0
  182.0170  173.6220  136.1060 C   0  0  1  0  0  3  0  0  0  0  0  0
  183.8810  171.6590  135.6600 C   0  0  0  0  0  2  0  0  0  0  0  0
  185.8960  172.9540  136.6590 S   0  0  0  0  0  0  0  0  0  0  0  0
  186.5420  172.0670  135.6320 O   0  0  0  0  0  0  0  0  0  0  0  0
  186.5280  172.6970  138.0000 O   0  0  0  0  0  0  0  0  0  0  0  0
  186.1650  174.6600  136.2050 C   0  0  0  0  0  2  0  0  0  0  0  0
  188.5740  178.3650  137.7520 C   0  0  0  0  0  1  0  0  0  0  0  0
  188.4390  175.1740  136.4170 C   0  0  0  0  0  2  0  0  0  0  0  0
  187.9430  178.0360  135.4780 O   0  0  0  0  0  1  0  0  0  0  0  0
  188.1460  177.3710  136.6910 C   0  0  2  0  0  0  0  0  0  0  0  0
  186.8720  176.6850  137.1150 C   0  0  0  0  0  2  0  0  0  0  0  0
  189.1350  176.3940  136.5340 O   0  0  0  0  0  0  0  0  0  0  0  0
  187.1500  175.2680  137.0890 N   0  0  0  0  0  0  0  0  0  0  0  0
  181.1210  179.1840  139.1750 S   0  0  0  0  0  0  0  0  0  0  0  0
  183.8790  178.7620  139.1360 C   0  0  0  0  0  0  0  0  0  0  0  0
  182.7460  179.0270  139.9210 C   0  0  0  0  0  0  0  0  0  0  0  0
  184.1530  179.1190  141.9070 C   0  0  0  0  0  0  0  0  0  0  0  0
  182.8890  179.2090  141.3000 C   0  0  0  0  0  3  0  0  0  0  0  0
  185.1390  178.6740  139.7360 C   0  0  0  0  0  3  0  0  0  0  0  0
  185.2850  178.8530  141.1200 C   0  0  0  0  0  0  0  0  0  0  0  0
  183.7660  178.6030  137.7600 O   0  0  0  0  0  1  0  0  0  0  0  0
  186.5390  178.7710  141.7350 O   0  0  0  0  0  0  0  0  0  0  0  0
  187.5490  177.8600  141.3120 C   0  0  0  0  0  2  0  0  0  0  0  0
  188.0370  177.0500  142.4950 C   0  0  0  0  0  2  0  0  0  0  0  0
  189.4070  176.6090  142.2580 N   0  0  0  0  0  0  0  0  0  0  0  0
  190.0840  177.7390  141.5840 C   0  0  1  0  0  3  0  0  0  0  0  0
  189.9080  178.4050  144.0450 C   0  0  0  0  0  2  0  0  0  0  0  0
  191.3390  177.2450  145.6680 N   0  0  0  0  0  2  0  0  0  0  0  0
  190.4180  177.4270  142.9780 C   0  0  0  0  0  0  0  0  0  0  0  0
  189.9840  177.7370  145.4190 C   0  0  0  0  0  2  0  0  0  0  0  0
  191.6810  176.6300  143.3140 C   0  0  0  0  0  2  0  0  0  0  0  0
  191.5950  176.1280  144.7580 C   0  0  0  0  0  2  0  0  0  0  0  0
  191.0730  177.1950  140.5630 C   0  0  0  0  0  2  0  0  0  0  0  0
  190.4780  176.1630  139.8390 O   0  0  0  0  0  1  0  0  0  0  0  0
  184.3090  179.2950  143.2870 O   0  0  0  0  0  0  0  0  0  0  0  0
  183.8300  178.3570  144.2450 C   0  0  0  0  0  2  0  0  0  0  0  0
  184.1120  178.8590  145.6550 C   0  0  0  0  0  2  0  0  0  0  0  0
  186.1240  178.4520  147.0290 C   0  0  0  0  0  2  0  0  0  0  0  0
  186.3940  177.9230  145.6340 C   0  0  0  0  0  2  0  0  0  0  0  0
  185.5830  179.1910  145.8170 C   0  0  0  0  0  3  0  0  0  0  0  0
  1  5  1  0  0  0  0
  3  7  2  0  0  0  0
  4  3  1  0  0  0  0
  4  1  2  0  0  0  0
  5  2  2  0  0  0  0
  5  8  1  0  0  0  0
  7  6  1  0  0  0  0
  7  2  1  0  0  0  0
  9  3  1  0  0  0  0
 10  9  1  0  0  0  0
 11 12  1  0  0  0  0
 13 16  1  0  0  0  0
 13 14  1  0  0  0  0
 15 14  1  0  0  0  0
 15 11  1  0  0  0  0
 15 10  1  1  0  0  0
 16 12  1  0  0  0  0
 17 12  1  0  0  0  0
 17 19  2  0  0  0  0
 18 17  2  0  0  0  0
 20 17  1  0  0  0  0
 20 27  1  0  0  0  0
 22 26  1  0  0  0  0
 22 27  1  0  0  0  0
 23 24  1  0  0  0  0
 24 25  1  0  0  0  0
 24 21  1  1  0  0  0
 26 24  1  0  0  0  0
 27 25  1  0  0  0  0
 28  1  1  0  0  0  0
 28 30  1  0  0  0  0
 29 33  2  0  0  0  0
 29 30  1  0  0  0  0
 30 32  2  0  0  0  0
 31 49  1  0  0  0  0
 32 31  1  0  0  0  0
 33 34  1  0  0  0  0
 34 36  1  0  0  0  0
 34 31  2  0  0  0  0
 35 29  1  0  0  0  0
 37 36  1  0  0  0  0
 37 38  1  0  0  0  0
 39 38  1  0  0  0  0
 39 43  1  0  0  0  0
 40 47  1  6  0  0  0
 40 39  1  0  0  0  0
 40 43  1  0  0  0  0
 41 44  1  0  0  0  0
 43 45  1  0  0  0  0
 43 41  1  0  0  0  0
 44 42  1  0  0  0  0
 45 46  1  0  0  0  0
 46 42  1  0  0  0  0
 48 47  1  0  0  0  0
 49 50  1  0  0  0  0
 50 51  1  0  0  0  0
 51 54  1  0  0  0  0
 53 54  1  0  0  0  0
 53 52  1  0  0  0  0
 54 52  1  0  0  0  0
M  END
>  <MODEL>
3

>  <REMARK>
 VINA RESULT:      -7.4      1.814      2.506
  Name = 
  17 active torsions:
  status: ('A' for Active; 'I' for Inactive)
    1  A    between atoms: C_1  and  O_6
    2  A    between atoms: C_1  and  C_24
    3  A    between atoms: C_3  and  C_27
    4  A    between atoms: C_5  and  S_45
    5  A    between atoms: O_6  and  C_39
    6  A    between atoms: C_8  and  C_18
    7  A    between atoms: C_8  and  O_20
    8  A    between atoms: C_9  and  S_45
    9  A    between atoms: C_10  and  O_20
   10  A    between atoms: N_11  and  C_24
   11  A    between atoms: C_14  and  C_23
   12  A    between atoms: N_15  and  S_26
   13  A    between atoms: C_18  and  C_22
   14  A    between atoms: N_19  and  C_23
   15  A    between atoms: N_19  and  C_50
   16  A    between atoms: S_26  and  C_53
   17  A    between atoms: N_47  and  C_53
                            x       y       z     vdW  Elec       q    Type
                         _______ _______ _______ _____ _____    ______ ____

>  <TORSDO>
F 17

$$$$
=
 OpenBabel10222419443D

 54 60  0  0  1  0  0  0  0  0999 V2000
  181.0160  177.6180  139.2000 C   0  0  0  0  0  0  0  0  0  0  0  0
  179.5200  176.1380  140.4090 C   0  0  0  0  0  3  0  0  0  0  0  0
  181.0160  175.2370  138.7230 C   0  0  0  0  0  0  0  0  0  0  0  0
  181.5090  176.5220  138.4810 C   0  0  0  0  0  3  0  0  0  0  0  0
  180.0230  177.4210  140.1750 C   0  0  0  0  0  0  0  0  0  0  0  0
  179.4970  173.7780  139.9340 O   0  0  0  0  0  1  0  0  0  0  0  0
  180.0090  175.0460  139.6850 C   0  0  0  0  0  0  0  0  0  0  0  0
  179.5370  178.4890  140.9200 O   0  0  0  0  0  1  0  0  0  0  0  0
  181.5670  174.0860  137.9540 C   0  0  0  0  0  2  0  0  0  0  0  0
  181.5990  174.4100  136.5370 N   0  0  0  0  0  2  0  0  0  0  0  0
  183.9850  174.1880  136.0450 C   0  0  0  0  0  2  0  0  0  0  0  0
  185.0020  173.2060  136.4380 N   0  0  0  0  0  0  0  0  0  0  0  0
  183.3970  171.4370  135.7940 C   0  0  0  0  0  2  0  0  0  0  0  0
  182.5840  172.2900  136.5690 O   0  0  0  0  0  0  0  0  0  0  0  0
  182.5950  173.5430  135.9320 C   0  0  1  0  0  3  0  0  0  0  0  0
  184.8330  171.9800  135.6550 C   0  0  0  0  0  2  0  0  0  0  0  0
  186.5530  173.8820  136.0520 S   0  0  0  0  0  0  0  0  0  0  0  0
  186.8410  173.6670  134.5940 O   0  0  0  0  0  0  0  0  0  0  0  0
  187.6230  173.2120  136.8700 O   0  0  0  0  0  0  0  0  0  0  0  0
  186.5680  175.6350  136.3960 C   0  0  0  0  0  2  0  0  0  0  0  0
  189.2500  178.7300  138.6640 C   0  0  0  0  0  1  0  0  0  0  0  0
  188.7010  176.5350  136.0460 C   0  0  0  0  0  2  0  0  0  0  0  0
  187.7430  179.3010  136.9090 O   0  0  0  0  0  1  0  0  0  0  0  0
  188.4590  178.2390  137.4690 C   0  0  2  0  0  0  0  0  0  0  0  0
  187.5070  177.1510  137.8960 C   0  0  0  0  0  2  0  0  0  0  0  0
  189.3330  177.7050  136.5140 O   0  0  0  0  0  0  0  0  0  0  0  0
  187.8070  176.0060  137.0660 N   0  0  0  0  0  0  0  0  0  0  0  0
  181.7040  179.2470  138.8840 S   0  0  0  0  0  0  0  0  0  0  0  0
  184.4210  179.2170  139.5230 C   0  0  0  0  0  0  0  0  0  0  0  0
  183.1090  178.9970  139.9730 C   0  0  0  0  0  0  0  0  0  0  0  0
  183.9700  178.4380  142.1820 C   0  0  0  0  0  0  0  0  0  0  0  0
  182.8910  178.6140  141.3000 C   0  0  0  0  0  3  0  0  0  0  0  0
  185.4980  179.0450  140.3980 C   0  0  0  0  0  3  0  0  0  0  0  0
  185.2800  178.6570  141.7290 C   0  0  0  0  0  0  0  0  0  0  0  0
  184.6620  179.6240  138.2160 O   0  0  0  0  0  1  0  0  0  0  0  0
  186.3470  178.4840  142.6180 O   0  0  0  0  0  0  0  0  0  0  0  0
  187.3300  177.4660  142.4570 C   0  0  0  0  0  2  0  0  0  0  0  0
  187.6220  176.8190  143.7960 C   0  0  0  0  0  2  0  0  0  0  0  0
  188.5220  177.6680  144.5660 N   0  0  0  0  0  0  0  0  0  0  0  0
  189.0100  176.8280  145.6830 C   0  0  1  0  0  3  0  0  0  0  0  0
  190.2850  176.0370  143.6140 C   0  0  0  0  0  2  0  0  0  0  0  0
  192.0130  177.5100  142.6790 N   0  0  0  0  0  2  0  0  0  0  0  0
  189.9230  177.1690  144.5860 C   0  0  0  0  0  0  0  0  0  0  0  0
  190.8870  176.6380  142.3430 C   0  0  0  0  0  2  0  0  0  0  0  0
  190.9430  178.2990  144.7460 C   0  0  0  0  0  2  0  0  0  0  0  0
  191.4880  178.6880  143.3690 C   0  0  0  0  0  2  0  0  0  0  0  0
  189.1730  177.6910  146.9270 C   0  0  0  0  0  2  0  0  0  0  0  0
  190.2440  177.2190  147.6850 O   0  0  0  0  0  1  0  0  0  0  0  0
  183.7640  178.0510  143.5110 O   0  0  0  0  0  0  0  0  0  0  0  0
  182.9180  178.7690  144.4030 C   0  0  0  0  0  2  0  0  0  0  0  0
  183.7230  179.2830  145.5890 C   0  0  0  0  0  2  0  0  0  0  0  0
  185.9340  179.2720  146.6910 C   0  0  0  0  0  2  0  0  0  0  0  0
  185.2010  178.0090  147.0990 C   0  0  0  0  0  2  0  0  0  0  0  0
  185.0470  178.5500  145.6910 C   0  0  0  0  0  3  0  0  0  0  0  0
  1  5  1  0  0  0  0
  3  7  2  0  0  0  0
  4  3  1  0  0  0  0
  4  1  2  0  0  0  0
  5  2  2  0  0  0  0
  5  8  1  0  0  0  0
  7  6  1  0  0  0  0
  7  2  1  0  0  0  0
  9  3  1  0  0  0  0
 10  9  1  0  0  0  0
 11 12  1  0  0  0  0
 13 14  1  0  0  0  0
 15 11  1  0  0  0  0
 15 10  1  1  0  0  0
 15 14  1  0  0  0  0
 16 13  1  0  0  0  0
 16 12  1  0  0  0  0
 17 20  1  0  0  0  0
 17 12  1  0  0  0  0
 17 19  2  0  0  0  0
 18 17  2  0  0  0  0
 20 27  1  0  0  0  0
 22 26  1  0  0  0  0
 22 27  1  0  0  0  0
 23 24  1  0  0  0  0
 24 25  1  0  0  0  0
 24 21  1  1  0  0  0
 26 24  1  0  0  0  0
 27 25  1  0  0  0  0
 28  1  1  0  0  0  0
 28 30  1  0  0  0  0
 29 30  2  0  0  0  0
 29 33  1  0  0  0  0
 30 32  1  0  0  0  0
 31 49  1  0  0  0  0
 32 31  2  0  0  0  0
 33 34  2  0  0  0  0
 34 31  1  0  0  0  0
 34 36  1  0  0  0  0
 35 29  1  0  0  0  0
 37 36  1  0  0  0  0
 37 38  1  0  0  0  0
 38 39  1  0  0  0  0
 39 43  1  0  0  0  0
 39 40  1  0  0  0  0
 40 47  1  1  0  0  0
 41 43  1  0  0  0  0
 42 46  1  0  0  0  0
 43 45  1  0  0  0  0
 43 40  1  0  0  0  0
 44 42  1  0  0  0  0
 44 41  1  0  0  0  0
 46 45  1  0  0  0  0
 47 48  1  0  0  0  0
 49 50  1  0  0  0  0
 50 51  1  0  0  0  0
 51 54  1  0  0  0  0
 52 53  1  0  0  0  0
 54 52  1  0  0  0  0
 54 53  1  0  0  0  0
M  END
>  <MODEL>
4

>  <REMARK>
 VINA RESULT:      -7.2      2.057      2.884
  Name = 
  17 active torsions:
  status: ('A' for Active; 'I' for Inactive)
    1  A    between atoms: C_1  and  O_6
    2  A    between atoms: C_1  and  C_24
    3  A    between atoms: C_3  and  C_27
    4  A    between atoms: C_5  and  S_45
    5  A    between atoms: O_6  and  C_39
    6  A    between atoms: C_8  and  C_18
    7  A    between atoms: C_8  and  O_20
    8  A    between atoms: C_9  and  S_45
    9  A    between atoms: C_10  and  O_20
   10  A    between atoms: N_11  and  C_24
   11  A    between atoms: C_14  and  C_23
   12  A    between atoms: N_15  and  S_26
   13  A    between atoms: C_18  and  C_22
   14  A    between atoms: N_19  and  C_23
   15  A    between atoms: N_19  and  C_50
   16  A    between atoms: S_26  and  C_53
   17  A    between atoms: N_47  and  C_53
                            x       y       z     vdW  Elec       q    Type
                         _______ _______ _______ _____ _____    ______ ____

>  <TORSDO>
F 17

$$$$
=
 OpenBabel10222419443D

 54 60  0  0  1  0  0  0  0  0999 V2000
  188.1300  176.5230  136.9950 C   0  0  0  0  0  0  0  0  0  0  0  0
  186.3650  178.1330  136.5720 C   0  0  0  0  0  3  0  0  0  0  0  0
  185.8030  175.8460  137.1600 C   0  0  0  0  0  0  0  0  0  0  0  0
  187.1640  175.5390  137.2440 C   0  0  0  0  0  3  0  0  0  0  0  0
  187.7250  177.8280  136.6680 C   0  0  0  0  0  0  0  0  0  0  0  0
  184.0540  177.4710  136.7140 O   0  0  0  0  0  1  0  0  0  0  0  0
  185.4020  177.1480  136.8130 C   0  0  0  0  0  0  0  0  0  0  0  0
  188.6650  178.8270  136.4440 O   0  0  0  0  0  1  0  0  0  0  0  0
  184.7960  174.7840  137.4420 C   0  0  0  0  0  2  0  0  0  0  0  0
  184.5390  174.0160  136.2340 N   0  0  0  0  0  2  0  0  0  0  0  0
  182.4070  174.4550  137.3500 C   0  0  0  0  0  2  0  0  0  0  0  0
  181.2910  175.3620  137.0570 N   0  0  0  0  0  0  0  0  0  0  0  0
  181.3650  174.5370  134.7260 C   0  0  0  0  0  2  0  0  0  0  0  0
  182.7280  174.7970  134.9790 O   0  0  0  0  0  0  0  0  0  0  0  0
  183.0970  173.9800  136.0610 C   0  0  1  0  0  3  0  0  0  0  0  0
  180.4860  174.8180  135.9610 C   0  0  0  0  0  2  0  0  0  0  0  0
  180.2930  175.4320  138.4750 S   0  0  0  0  0  0  0  0  0  0  0  0
  181.1530  175.2690  139.6960 O   0  0  0  0  0  0  0  0  0  0  0  0
  179.2720  174.3280  138.4400 O   0  0  0  0  0  0  0  0  0  0  0  0
  179.4490  177.0030  138.5630 C   0  0  0  0  0  2  0  0  0  0  0  0
  182.2340  180.7670  138.5930 C   0  0  0  0  0  1  0  0  0  0  0  0
  179.3240  179.1520  137.6430 C   0  0  0  0  0  2  0  0  0  0  0  0
  180.5000  180.3740  140.1800 O   0  0  0  0  0  1  0  0  0  0  0  0
  180.9470  180.0280  138.9020 C   0  0  2  0  0  0  0  0  0  0  0  0
  181.1800  178.5400  138.8290 C   0  0  0  0  0  2  0  0  0  0  0  0
  179.9730  180.3640  137.9550 O   0  0  0  0  0  0  0  0  0  0  0  0
  180.2210  178.0300  137.8760 N   0  0  0  0  0  0  0  0  0  0  0  0
  189.8670  176.0950  137.1510 S   0  0  0  0  0  0  0  0  0  0  0  0
  191.2600  176.8420  139.4500 C   0  0  0  0  0  0  0  0  0  0  0  0
  190.0190  176.7990  138.7950 C   0  0  0  0  0  0  0  0  0  0  0  0
  188.9870  177.9280  140.6900 C   0  0  0  0  0  0  0  0  0  0  0  0
  188.8910  177.3450  139.4150 C   0  0  0  0  0  3  0  0  0  0  0  0
  191.3590  177.4230  140.7190 C   0  0  0  0  0  3  0  0  0  0  0  0
  190.2270  177.9690  141.3440 C   0  0  0  0  0  0  0  0  0  0  0  0
  192.4000  176.3290  138.8440 O   0  0  0  0  0  1  0  0  0  0  0  0
  190.3120  178.5560  142.6120 O   0  0  0  0  0  0  0  0  0  0  0  0
  191.1680  178.0620  143.6370 C   0  0  0  0  0  2  0  0  0  0  0  0
  190.5840  178.3910  144.9960 C   0  0  0  0  0  2  0  0  0  0  0  0
  189.1460  178.1450  144.9850 N   0  0  0  0  0  0  0  0  0  0  0  0
  188.9880  176.6790  144.8630 C   0  0  1  0  0  3  0  0  0  0  0  0
  189.6770  177.1020  147.2880 C   0  0  0  0  0  2  0  0  0  0  0  0
  188.0390  178.1330  148.7990 N   0  0  0  0  0  2  0  0  0  0  0  0
  188.6830  177.3330  146.1410 C   0  0  0  0  0  0  0  0  0  0  0  0
  189.4400  178.1490  148.3780 C   0  0  0  0  0  2  0  0  0  0  0  0
  187.2350  177.6420  146.5300 C   0  0  0  0  0  2  0  0  0  0  0  0
  187.2240  178.6360  147.6930 C   0  0  0  0  0  2  0  0  0  0  0  0
  187.7680  176.3740  144.0060 C   0  0  0  0  0  2  0  0  0  0  0  0
  188.1550  175.6370  142.8880 O   0  0  0  0  0  1  0  0  0  0  0  0
  187.8640  178.4750  141.3230 O   0  0  0  0  0  0  0  0  0  0  0  0
  186.5800  178.5260  140.7100 C   0  0  0  0  0  2  0  0  0  0  0  0
  185.5820  179.2030  141.6410 C   0  0  0  0  0  2  0  0  0  0  0  0
  184.8030  178.5880  143.9030 C   0  0  0  0  0  2  0  0  0  0  0  0
  183.5830  178.8200  143.0350 C   0  0  0  0  0  2  0  0  0  0  0  0
  184.8170  178.1670  142.4430 C   0  0  0  0  0  3  0  0  0  0  0  0
  1 28  1  0  0  0  0
  1  4  1  0  0  0  0
  2  5  1  0  0  0  0
  2  7  2  0  0  0  0
  3  4  2  0  0  0  0
  3  9  1  0  0  0  0
  5  1  2  0  0  0  0
  6  7  1  0  0  0  0
  7  3  1  0  0  0  0
  8  5  1  0  0  0  0
 10  9  1  0  0  0  0
 12 11  1  0  0  0  0
 12 17  1  0  0  0  0
 13 14  1  0  0  0  0
 13 16  1  0  0  0  0
 14 15  1  0  0  0  0
 15 10  1  1  0  0  0
 15 11  1  0  0  0  0
 16 12  1  0  0  0  0
 17 20  1  0  0  0  0
 17 18  2  0  0  0  0
 19 17  2  0  0  0  0
 22 27  1  0  0  0  0
 22 26  1  0  0  0  0
 24 21  1  6  0  0  0
 24 23  1  0  0  0  0
 25 24  1  0  0  0  0
 26 24  1  0  0  0  0
 27 20  1  0  0  0  0
 27 25  1  0  0  0  0
 28 30  1  0  0  0  0
 29 33  1  0  0  0  0
 30 32  1  0  0  0  0
 30 29  2  0  0  0  0
 31 49  1  0  0  0  0
 31 34  1  0  0  0  0
 32 31  2  0  0  0  0
 33 34  2  0  0  0  0
 34 36  1  0  0  0  0
 35 29  1  0  0  0  0
 36 37  1  0  0  0  0
 37 38  1  0  0  0  0
 39 38  1  0  0  0  0
 39 43  1  0  0  0  0
 40 47  1  6  0  0  0
 40 39  1  0  0  0  0
 40 43  1  0  0  0  0
 41 44  1  0  0  0  0
 43 45  1  0  0  0  0
 43 41  1  0  0  0  0
 44 42  1  0  0  0  0
 45 46  1  0  0  0  0
 46 42  1  0  0  0  0
 48 47  1  0  0  0  0
 50 49  1  0  0  0  0
 50 51  1  0  0  0  0
 51 54  1  0  0  0  0
 53 52  1  0  0  0  0
 54 53  1  0  0  0  0
 54 52  1  0  0  0  0
M  END
>  <MODEL>
5

>  <REMARK>
 VINA RESULT:      -7.0      2.300      6.897
  Name = 
  17 active torsions:
  status: ('A' for Active; 'I' for Inactive)
    1  A    between atoms: C_1  and  O_6
    2  A    between atoms: C_1  and  C_24
    3  A    between atoms: C_3  and  C_27
    4  A    between atoms: C_5  and  S_45
    5  A    between atoms: O_6  and  C_39
    6  A    between atoms: C_8  and  C_18
    7  A    between atoms: C_8  and  O_20
    8  A    between atoms: C_9  and  S_45
    9  A    between atoms: C_10  and  O_20
   10  A    between atoms: N_11  and  C_24
   11  A    between atoms: C_14  and  C_23
   12  A    between atoms: N_15  and  S_26
   13  A    between atoms: C_18  and  C_22
   14  A    between atoms: N_19  and  C_23
   15  A    between atoms: N_19  and  C_50
   16  A    between atoms: S_26  and  C_53
   17  A    between atoms: N_47  and  C_53
                            x       y       z     vdW  Elec       q    Type
                         _______ _______ _______ _____ _____    ______ ____

>  <TORSDO>
F 17

$$$$
=
 OpenBabel10222419443D

 54 60  0  0  1  0  0  0  0  0999 V2000
  190.9410  176.7190  138.4920 C   0  0  0  0  0  0  0  0  0  0  0  0
  192.4770  177.3890  140.2460 C   0  0  0  0  0  3  0  0  0  0  0  0
  190.1080  177.1720  140.7280 C   0  0  0  0  0  0  0  0  0  0  0  0
  189.8780  176.8010  139.4000 C   0  0  0  0  0  3  0  0  0  0  0  0
  192.2470  177.0050  138.9220 C   0  0  0  0  0  0  0  0  0  0  0  0
  191.6630  177.8590  142.4640 O   0  0  0  0  0  1  0  0  0  0  0  0
  191.4140  177.4770  141.1500 C   0  0  0  0  0  0  0  0  0  0  0  0
  193.3220  176.9050  138.0460 O   0  0  0  0  0  1  0  0  0  0  0  0
  188.9610  177.2390  141.6770 C   0  0  0  0  0  2  0  0  0  0  0  0
  188.0630  178.3140  141.2890 N   0  0  0  0  0  2  0  0  0  0  0  0
  187.2460  177.8610  143.5500 C   0  0  0  0  0  2  0  0  0  0  0  0
  186.4250  178.6310  144.4920 N   0  0  0  0  0  0  0  0  0  0  0  0
  184.8530  179.0460  142.6270 C   0  0  0  0  0  2  0  0  0  0  0  0
  186.0940  179.3390  142.0240 O   0  0  0  0  0  0  0  0  0  0  0  0
  186.8620  178.1640  142.0930 C   0  0  1  0  0  3  0  0  0  0  0  0
  185.0190  178.5730  144.0850 C   0  0  0  0  0  2  0  0  0  0  0  0
  186.5680  177.8720  146.0460 S   0  0  0  0  0  0  0  0  0  0  0  0
  186.3380  176.3940  145.9000 O   0  0  0  0  0  0  0  0  0  0  0  0
  185.5440  178.4400  146.9910 O   0  0  0  0  0  0  0  0  0  0  0  0
  188.1990  178.1440  146.7210 C   0  0  0  0  0  2  0  0  0  0  0  0
  191.9220  175.3510  147.2260 C   0  0  0  0  0  1  0  0  0  0  0  0
  190.2190  177.8690  145.5710 C   0  0  0  0  0  2  0  0  0  0  0  0
  191.7370  177.5200  148.1960 O   0  0  0  0  0  1  0  0  0  0  0  0
  191.2340  176.7000  147.1810 C   0  0  2  0  0  0  0  0  0  0  0  0
  189.7470  176.5240  147.3590 C   0  0  0  0  0  2  0  0  0  0  0  0
  191.4560  177.3010  145.9370 O   0  0  0  0  0  0  0  0  0  0  0  0
  189.1290  177.1460  146.2110 N   0  0  0  0  0  0  0  0  0  0  0  0
  190.6050  176.2010  136.8050 S   0  0  0  0  0  0  0  0  0  0  0  0
  188.4640  177.9900  136.8530 C   0  0  0  0  0  0  0  0  0  0  0  0
  188.8680  176.6460  136.8850 C   0  0  0  0  0  0  0  0  0  0  0  0
  186.5350  175.9540  136.9770 C   0  0  0  0  0  0  0  0  0  0  0  0
  187.9030  175.6360  136.9420 C   0  0  0  0  0  3  0  0  0  0  0  0
  187.1030  178.3100  136.8860 C   0  0  0  0  0  3  0  0  0  0  0  0
  186.1330  177.2990  136.9470 C   0  0  0  0  0  0  0  0  0  0  0  0
  189.4040  179.0110  136.7700 O   0  0  0  0  0  1  0  0  0  0  0  0
  184.7680  177.6040  136.9770 O   0  0  0  0  0  0  0  0  0  0  0  0
  184.0720  177.9130  138.1800 C   0  0  0  0  0  2  0  0  0  0  0  0
  182.5800  177.9410  137.9170 C   0  0  0  0  0  2  0  0  0  0  0  0
  181.8560  177.7310  139.1650 N   0  0  0  0  0  0  0  0  0  0  0  0
  180.6680  178.6120  139.0960 C   0  0  1  0  0  3  0  0  0  0  0  0
  180.1520  176.6290  137.5670 C   0  0  0  0  0  2  0  0  0  0  0  0
  179.6870  174.4520  138.6030 N   0  0  0  0  0  2  0  0  0  0  0  0
  180.4980  177.1600  138.9650 C   0  0  0  0  0  0  0  0  0  0  0  0
  180.4100  175.1220  137.5220 C   0  0  0  0  0  2  0  0  0  0  0  0
  180.0350  176.3210  140.1590 C   0  0  0  0  0  2  0  0  0  0  0  0
  180.3010  174.8410  139.8730 C   0  0  0  0  0  2  0  0  0  0  0  0
  180.3660  179.1580  140.4840 C   0  0  0  0  0  2  0  0  0  0  0  0
  181.5270  179.1450  141.2550 O   0  0  0  0  0  1  0  0  0  0  0  0
  185.5590  174.9530  137.0380 O   0  0  0  0  0  0  0  0  0  0  0  0
  185.8300  173.5900  136.7290 C   0  0  0  0  0  2  0  0  0  0  0  0
  184.9290  172.6770  137.5500 C   0  0  0  0  0  2  0  0  0  0  0  0
  183.7080  171.3210  135.8860 C   0  0  0  0  0  2  0  0  0  0  0  0
  183.0390  171.1230  137.2310 C   0  0  0  0  0  2  0  0  0  0  0  0
  183.5940  172.4840  136.8560 C   0  0  0  0  0  3  0  0  0  0  0  0
  1  5  2  0  0  0  0
  1  4  1  0  0  0  0
  2  7  2  0  0  0  0
  3  7  1  0  0  0  0
  3  9  1  0  0  0  0
  4  3  2  0  0  0  0
  5  2  1  0  0  0  0
  7  6  1  0  0  0  0
  8  5  1  0  0  0  0
 10  9  1  0  0  0  0
 11 12  1  0  0  0  0
 12 17  1  0  0  0  0
 13 16  1  0  0  0  0
 14 15  1  0  0  0  0
 14 13  1  0  0  0  0
 15 10  1  6  0  0  0
 15 11  1  0  0  0  0
 16 12  1  0  0  0  0
 17 20  1  0  0  0  0
 17 19  2  0  0  0  0
 18 17  2  0  0  0  0
 22 26  1  0  0  0  0
 22 27  1  0  0  0  0
 24 21  1  1  0  0  0
 24 25  1  0  0  0  0
 24 23  1  0  0  0  0
 26 24  1  0  0  0  0
 27 20  1  0  0  0  0
 27 25  1  0  0  0  0
 28 30  1  0  0  0  0
 28  1  1  0  0  0  0
 29 30  2  0  0  0  0
 29 33  1  0  0  0  0
 30 32  1  0  0  0  0
 31 49  1  0  0  0  0
 32 31  2  0  0  0  0
 33 34  2  0  0  0  0
 34 36  1  0  0  0  0
 34 31  1  0  0  0  0
 35 29  1  0  0  0  0
 36 37  1  0  0  0  0
 38 37  1  0  0  0  0
 38 39  1  0  0  0  0
 40 39  1  0  0  0  0
 40 47  1  1  0  0  0
 41 43  1  0  0  0  0
 42 46  1  0  0  0  0
 43 40  1  0  0  0  0
 43 39  1  0  0  0  0
 43 45  1  0  0  0  0
 44 41  1  0  0  0  0
 44 42  1  0  0  0  0
 46 45  1  0  0  0  0
 47 48  1  0  0  0  0
 50 49  1  0  0  0  0
 50 51  1  0  0  0  0
 52 54  1  0  0  0  0
 52 53  1  0  0  0  0
 54 53  1  0  0  0  0
 54 51  1  0  0  0  0
M  END
>  <MODEL>
6

>  <REMARK>
 VINA RESULT:      -6.7      2.844     10.018
  Name = 
  17 active torsions:
  status: ('A' for Active; 'I' for Inactive)
    1  A    between atoms: C_1  and  O_6
    2  A    between atoms: C_1  and  C_24
    3  A    between atoms: C_3  and  C_27
    4  A    between atoms: C_5  and  S_45
    5  A    between atoms: O_6  and  C_39
    6  A    between atoms: C_8  and  C_18
    7  A    between atoms: C_8  and  O_20
    8  A    between atoms: C_9  and  S_45
    9  A    between atoms: C_10  and  O_20
   10  A    between atoms: N_11  and  C_24
   11  A    between atoms: C_14  and  C_23
   12  A    between atoms: N_15  and  S_26
   13  A    between atoms: C_18  and  C_22
   14  A    between atoms: N_19  and  C_23
   15  A    between atoms: N_19  and  C_50
   16  A    between atoms: S_26  and  C_53
   17  A    between atoms: N_47  and  C_53
                            x       y       z     vdW  Elec       q    Type
                         _______ _______ _______ _____ _____    ______ ____

>  <TORSDO>
F 17

$$$$
=
 OpenBabel10222419443D

 54 60  0  0  1  0  0  0  0  0999 V2000
  181.2300  178.9130  141.5350 C   0  0  0  0  0  0  0  0  0  0  0  0
  182.3650  178.8860  143.6790 C   0  0  0  0  0  3  0  0  0  0  0  0
  183.6140  178.4580  141.6420 C   0  0  0  0  0  0  0  0  0  0  0  0
  182.4420  178.6170  140.8970 C   0  0  0  0  0  3  0  0  0  0  0  0
  181.1970  179.0570  142.9320 C   0  0  0  0  0  0  0  0  0  0  0  0
  184.7240  178.4200  143.8030 O   0  0  0  0  0  1  0  0  0  0  0  0
  183.5730  178.5840  143.0420 C   0  0  0  0  0  0  0  0  0  0  0  0
  180.0120  179.3770  143.5840 O   0  0  0  0  0  1  0  0  0  0  0  0
  184.8920  178.1570  140.9380 C   0  0  0  0  0  2  0  0  0  0  0  0
  185.6440  179.3850  140.7360 N   0  0  0  0  0  2  0  0  0  0  0  0
  187.5590  178.4000  141.8970 C   0  0  0  0  0  2  0  0  0  0  0  0
  188.3710  177.2020  141.6530 N   0  0  0  0  0  0  0  0  0  0  0  0
  188.5410  177.9210  139.2920 C   0  0  0  0  0  2  0  0  0  0  0  0
  187.1600  178.0710  139.5360 O   0  0  0  0  0  0  0  0  0  0  0  0
  187.0370  179.0010  140.5820 C   0  0  1  0  0  3  0  0  0  0  0  0
  189.3000  177.4500  140.5490 C   0  0  0  0  0  2  0  0  0  0  0  0
  189.3030  176.9070  143.0860 S   0  0  0  0  0  0  0  0  0  0  0  0
  190.2270  178.0670  143.3270 O   0  0  0  0  0  0  0  0  0  0  0  0
  190.1180  175.6530  142.9200 O   0  0  0  0  0  0  0  0  0  0  0  0
  188.2270  176.7180  144.4990 C   0  0  0  0  0  2  0  0  0  0  0  0
  189.1660  178.4010  148.7660 C   0  0  0  0  0  1  0  0  0  0  0  0
  187.1060  178.1240  145.9980 C   0  0  0  0  0  2  0  0  0  0  0  0
  187.9580  176.3880  148.3590 O   0  0  0  0  0  1  0  0  0  0  0  0
  188.3530  177.5940  147.7740 C   0  0  2  0  0  0  0  0  0  0  0  0
  189.1750  177.3170  146.5410 C   0  0  0  0  0  2  0  0  0  0  0  0
  187.2220  178.3240  147.3890 O   0  0  0  0  0  0  0  0  0  0  0  0
  188.4110  177.8260  145.4260 N   0  0  0  0  0  0  0  0  0  0  0  0
  179.7560  179.1460  140.5360 S   0  0  0  0  0  0  0  0  0  0  0  0
  181.3220  179.4000  138.2410 C   0  0  0  0  0  0  0  0  0  0  0  0
  180.5330  178.5500  139.0310 C   0  0  0  0  0  0  0  0  0  0  0  0
  180.9990  176.7100  137.5060 C   0  0  0  0  0  0  0  0  0  0  0  0
  180.3790  177.2100  138.6630 C   0  0  0  0  0  3  0  0  0  0  0  0
  181.9420  178.9050  137.0880 C   0  0  0  0  0  3  0  0  0  0  0  0
  181.7860  177.5620  136.7150 C   0  0  0  0  0  0  0  0  0  0  0  0
  181.5110  180.7290  138.5990 O   0  0  0  0  0  1  0  0  0  0  0  0
  182.4020  177.0510  135.5670 O   0  0  0  0  0  0  0  0  0  0  0  0
  183.7660  177.3050  135.2450 C   0  0  0  0  0  2  0  0  0  0  0  0
  184.5580  176.0150  135.3210 C   0  0  0  0  0  2  0  0  0  0  0  0
  185.9780  176.2990  135.1420 N   0  0  0  0  0  0  0  0  0  0  0  0
  186.3670  177.1460  136.2910 C   0  0  1  0  0  3  0  0  0  0  0  0
  186.1700  174.7720  137.2170 C   0  0  0  0  0  2  0  0  0  0  0  0
  187.8880  173.1330  136.5900 N   0  0  0  0  0  2  0  0  0  0  0  0
  186.8250  175.7530  136.2350 C   0  0  0  0  0  0  0  0  0  0  0  0
  186.4500  173.3390  136.7590 C   0  0  0  0  0  2  0  0  0  0  0  0
  188.2430  175.4200  135.7630 C   0  0  0  0  0  2  0  0  0  0  0  0
  188.3320  173.9250  135.4430 C   0  0  0  0  0  2  0  0  0  0  0  0
  187.4010  178.1660  135.8350 C   0  0  0  0  0  2  0  0  0  0  0  0
  187.1810  179.3780  136.4890 O   0  0  0  0  0  1  0  0  0  0  0  0
  180.8490  175.3710  137.1240 O   0  0  0  0  0  0  0  0  0  0  0  0
  181.5170  174.3010  137.7840 C   0  0  0  0  0  2  0  0  0  0  0  0
  182.2880  173.4620  136.7730 C   0  0  0  0  0  2  0  0  0  0  0  0
  182.2550  171.2030  135.7750 C   0  0  0  0  0  2  0  0  0  0  0  0
  183.4170  171.2680  136.7460 C   0  0  0  0  0  2  0  0  0  0  0  0
  182.1200  171.9840  137.0710 C   0  0  0  0  0  3  0  0  0  0  0  0
  1  5  1  0  0  0  0
  3  7  2  0  0  0  0
  4  1  2  0  0  0  0
  4  3  1  0  0  0  0
  5  8  1  0  0  0  0
  5  2  2  0  0  0  0
  7  2  1  0  0  0  0
  7  6  1  0  0  0  0
  9  3  1  0  0  0  0
 10  9  1  0  0  0  0
 12 11  1  0  0  0  0
 12 17  1  0  0  0  0
 13 14  1  0  0  0  0
 13 16  1  0  0  0  0
 14 15  1  0  0  0  0
 15 10  1  1  0  0  0
 15 11  1  0  0  0  0
 16 12  1  0  0  0  0
 17 18  2  0  0  0  0
 17 20  1  0  0  0  0
 19 17  2  0  0  0  0
 20 27  1  0  0  0  0
 22 26  1  0  0  0  0
 24 23  1  0  0  0  0
 24 21  1  1  0  0  0
 25 24  1  0  0  0  0
 26 24  1  0  0  0  0
 27 22  1  0  0  0  0
 27 25  1  0  0  0  0
 28  1  1  0  0  0  0
 29 35  1  0  0  0  0
 29 30  1  0  0  0  0
 30 28  1  0  0  0  0
 31 32  1  0  0  0  0
 32 30  2  0  0  0  0
 33 29  2  0  0  0  0
 34 33  1  0  0  0  0
 34 31  2  0  0  0  0
 36 34  1  0  0  0  0
 37 38  1  0  0  0  0
 37 36  1  0  0  0  0
 39 38  1  0  0  0  0
 39 43  1  0  0  0  0
 39 40  1  0  0  0  0
 40 47  1  6  0  0  0
 42 44  1  0  0  0  0
 43 40  1  0  0  0  0
 43 41  1  0  0  0  0
 44 41  1  0  0  0  0
 45 43  1  0  0  0  0
 46 45  1  0  0  0  0
 46 42  1  0  0  0  0
 47 48  1  0  0  0  0
 49 31  1  0  0  0  0
 49 50  1  0  0  0  0
 51 54  1  0  0  0  0
 51 50  1  0  0  0  0
 52 53  1  0  0  0  0
 52 54  1  0  0  0  0
 53 54  1  0  0  0  0
M  END
>  <MODEL>
7

>  <REMARK>
 VINA RESULT:      -6.7      2.581      8.039
  Name = 
  17 active torsions:
  status: ('A' for Active; 'I' for Inactive)
    1  A    between atoms: C_1  and  O_6
    2  A    between atoms: C_1  and  C_24
    3  A    between atoms: C_3  and  C_27
    4  A    between atoms: C_5  and  S_45
    5  A    between atoms: O_6  and  C_39
    6  A    between atoms: C_8  and  C_18
    7  A    between atoms: C_8  and  O_20
    8  A    between atoms: C_9  and  S_45
    9  A    between atoms: C_10  and  O_20
   10  A    between atoms: N_11  and  C_24
   11  A    between atoms: C_14  and  C_23
   12  A    between atoms: N_15  and  S_26
   13  A    between atoms: C_18  and  C_22
   14  A    between atoms: N_19  and  C_23
   15  A    between atoms: N_19  and  C_50
   16  A    between atoms: S_26  and  C_53
   17  A    between atoms: N_47  and  C_53
                            x       y       z     vdW  Elec       q    Type
                         _______ _______ _______ _____ _____    ______ ____

>  <TORSDO>
F 17

$$$$
=
 OpenBabel10222419443D

 54 60  0  0  1  0  0  0  0  0999 V2000
  180.6730  177.9640  139.7260 C   0  0  0  0  0  0  0  0  0  0  0  0
  181.2140  178.8520  137.5340 C   0  0  0  0  0  3  0  0  0  0  0  0
  181.8920  176.5990  138.1290 C   0  0  0  0  0  0  0  0  0  0  0  0
  181.3070  176.7620  139.3880 C   0  0  0  0  0  3  0  0  0  0  0  0
  180.6190  179.0090  138.7890 C   0  0  0  0  0  0  0  0  0  0  0  0
  182.4370  177.5170  135.9470 O   0  0  0  0  0  1  0  0  0  0  0  0
  181.8530  177.6540  137.2010 C   0  0  0  0  0  0  0  0  0  0  0  0
  179.9720  180.2010  139.0910 O   0  0  0  0  0  1  0  0  0  0  0  0
  182.5490  175.3050  137.7900 C   0  0  0  0  0  2  0  0  0  0  0  0
  183.9870  175.4230  137.9630 N   0  0  0  0  0  2  0  0  0  0  0  0
  186.0420  174.8040  136.7880 C   0  0  0  0  0  2  0  0  0  0  0  0
  186.9490  173.6560  136.8940 N   0  0  0  0  0  0  0  0  0  0  0  0
  184.9510  172.1990  136.8230 C   0  0  0  0  0  2  0  0  0  0  0  0
  184.5650  173.1650  137.7750 O   0  0  0  0  0  0  0  0  0  0  0  0
  184.5940  174.4080  137.1190 C   0  0  1  0  0  3  0  0  0  0  0  0
  186.3490  172.4900  136.2420 C   0  0  0  0  0  2  0  0  0  0  0  0
  188.4030  174.0620  136.0390 S   0  0  0  0  0  0  0  0  0  0  0  0
  188.2360  175.4030  135.3820 O   0  0  0  0  0  0  0  0  0  0  0  0
  188.6850  173.0280  134.9820 O   0  0  0  0  0  0  0  0  0  0  0  0
  189.7870  174.1350  137.1660 C   0  0  0  0  0  2  0  0  0  0  0  0
  193.8710  175.8110  135.6090 C   0  0  0  0  0  1  0  0  0  0  0  0
  191.3980  175.6010  138.0210 C   0  0  0  0  0  2  0  0  0  0  0  0
  193.6540  173.8500  136.9450 O   0  0  0  0  0  1  0  0  0  0  0  0
  193.0050  175.0330  136.5780 C   0  0  2  0  0  0  0  0  0  0  0  0
  191.6800  174.7090  135.9350 C   0  0  0  0  0  2  0  0  0  0  0  0
  192.7590  175.8080  137.7170 O   0  0  0  0  0  0  0  0  0  0  0  0
  190.6650  175.2420  136.8160 N   0  0  0  0  0  0  0  0  0  0  0  0
  179.9020  178.1160  141.3410 S   0  0  0  0  0  0  0  0  0  0  0  0
  181.4620  178.8350  143.5390 C   0  0  0  0  0  0  0  0  0  0  0  0
  181.4430  178.5020  142.1750 C   0  0  0  0  0  0  0  0  0  0  0  0
  183.8690  178.7040  142.0990 C   0  0  0  0  0  0  0  0  0  0  0  0
  182.6450  178.4340  141.4650 C   0  0  0  0  0  3  0  0  0  0  0  0
  182.6790  179.1030  144.1750 C   0  0  0  0  0  3  0  0  0  0  0  0
  183.8860  179.0380  143.4620 C   0  0  0  0  0  0  0  0  0  0  0  0
  180.2830  178.8850  144.2740 O   0  0  0  0  0  1  0  0  0  0  0  0
  185.1110  179.3010  144.0860 O   0  0  0  0  0  0  0  0  0  0  0  0
  185.4670  178.7550  145.3510 C   0  0  0  0  0  2  0  0  0  0  0  0
  186.4060  177.5810  145.1580 C   0  0  0  0  0  2  0  0  0  0  0  0
  187.7560  177.9600  145.5580 N   0  0  0  0  0  0  0  0  0  0  0  0
  188.3620  176.7410  146.1390 C   0  0  1  0  0  3  0  0  0  0  0  0
  188.3830  176.3880  143.6070 C   0  0  0  0  0  2  0  0  0  0  0  0
  189.9560  177.7090  142.2620 N   0  0  0  0  0  2  0  0  0  0  0  0
  188.8140  177.2160  144.8260 C   0  0  0  0  0  0  0  0  0  0  0  0
  188.5800  177.2190  142.3380 C   0  0  0  0  0  2  0  0  0  0  0  0
  190.1100  178.0200  144.6950 C   0  0  0  0  0  2  0  0  0  0  0  0
  190.1490  178.6980  143.3230 C   0  0  0  0  0  2  0  0  0  0  0  0
  189.2700  177.1320  147.2960 C   0  0  0  0  0  2  0  0  0  0  0  0
  188.7210  178.2220  147.9720 O   0  0  0  0  0  1  0  0  0  0  0  0
  185.0780  178.6430  141.3970 O   0  0  0  0  0  0  0  0  0  0  0  0
  185.1470  178.6280  139.9760 C   0  0  0  0  0  2  0  0  0  0  0  0
  186.6000  178.6670  139.5210 C   0  0  0  0  0  2  0  0  0  0  0  0
  187.8340  178.6220  137.3810 C   0  0  0  0  0  2  0  0  0  0  0  0
  188.1690  177.3550  138.1410 C   0  0  0  0  0  2  0  0  0  0  0  0
  186.7660  177.9260  138.2070 C   0  0  0  0  0  3  0  0  0  0  0  0
  1 28  1  0  0  0  0
  2  5  1  0  0  0  0
  3  4  2  0  0  0  0
  4  1  1  0  0  0  0
  5  8  1  0  0  0  0
  5  1  2  0  0  0  0
  6  7  1  0  0  0  0
  7  2  2  0  0  0  0
  7  3  1  0  0  0  0
  9 10  1  0  0  0  0
  9  3  1  0  0  0  0
 11 12  1  0  0  0  0
 11 15  1  0  0  0  0
 13 14  1  0  0  0  0
 15 14  1  0  0  0  0
 15 10  1  1  0  0  0
 16 13  1  0  0  0  0
 16 12  1  0  0  0  0
 17 12  1  0  0  0  0
 17 20  1  0  0  0  0
 18 17  2  0  0  0  0
 19 17  2  0  0  0  0
 24 21  1  6  0  0  0
 24 23  1  0  0  0  0
 24 26  1  0  0  0  0
 25 24  1  0  0  0  0
 25 27  1  0  0  0  0
 26 22  1  0  0  0  0
 27 20  1  0  0  0  0
 27 22  1  0  0  0  0
 28 30  1  0  0  0  0
 29 33  1  0  0  0  0
 29 35  1  0  0  0  0
 30 29  2  0  0  0  0
 31 34  1  0  0  0  0
 32 31  2  0  0  0  0
 32 30  1  0  0  0  0
 34 36  1  0  0  0  0
 34 33  2  0  0  0  0
 36 37  1  0  0  0  0
 38 37  1  0  0  0  0
 38 39  1  0  0  0  0
 39 40  1  0  0  0  0
 40 47  1  1  0  0  0
 41 43  1  0  0  0  0
 42 44  1  0  0  0  0
 42 46  1  0  0  0  0
 43 39  1  0  0  0  0
 43 40  1  0  0  0  0
 44 41  1  0  0  0  0
 45 43  1  0  0  0  0
 46 45  1  0  0  0  0
 47 48  1  0  0  0  0
 49 31  1  0  0  0  0
 50 49  1  0  0  0  0
 51 50  1  0  0  0  0
 52 53  1  0  0  0  0
 52 54  1  0  0  0  0
 53 54  1  0  0  0  0
 54 51  1  0  0  0  0
M  END
>  <MODEL>
8

>  <REMARK>
 VINA RESULT:      -6.6      2.229      4.098
  Name = 
  17 active torsions:
  status: ('A' for Active; 'I' for Inactive)
    1  A    between atoms: C_1  and  O_6
    2  A    between atoms: C_1  and  C_24
    3  A    between atoms: C_3  and  C_27
    4  A    between atoms: C_5  and  S_45
    5  A    between atoms: O_6  and  C_39
    6  A    between atoms: C_8  and  C_18
    7  A    between atoms: C_8  and  O_20
    8  A    between atoms: C_9  and  S_45
    9  A    between atoms: C_10  and  O_20
   10  A    between atoms: N_11  and  C_24
   11  A    between atoms: C_14  and  C_23
   12  A    between atoms: N_15  and  S_26
   13  A    between atoms: C_18  and  C_22
   14  A    between atoms: N_19  and  C_23
   15  A    between atoms: N_19  and  C_50
   16  A    between atoms: S_26  and  C_53
   17  A    between atoms: N_47  and  C_53
                            x       y       z     vdW  Elec       q    Type
                         _______ _______ _______ _____ _____    ______ ____

>  <TORSDO>
F 17

$$$$
=
 OpenBabel10222419443D

 54 60  0  0  1  0  0  0  0  0999 V2000
  187.8110  177.3740  145.0920 C   0  0  0  0  0  0  0  0  0  0  0  0
  190.1230  177.7320  145.7360 C   0  0  0  0  0  3  0  0  0  0  0  0
  189.6060  176.7160  143.5930 C   0  0  0  0  0  0  0  0  0  0  0  0
  188.2420  176.8160  143.8820 C   0  0  0  0  0  3  0  0  0  0  0  0
  188.7590  177.8430  146.0180 C   0  0  0  0  0  0  0  0  0  0  0  0
  191.9130  177.0690  144.2680 O   0  0  0  0  0  1  0  0  0  0  0  0
  190.5520  177.1680  144.5310 C   0  0  0  0  0  0  0  0  0  0  0  0
  188.3550  178.4250  147.2130 O   0  0  0  0  0  1  0  0  0  0  0  0
  190.0370  176.1300  142.2930 C   0  0  0  0  0  2  0  0  0  0  0  0
  190.3410  177.1950  141.3500 N   0  0  0  0  0  2  0  0  0  0  0  0
  190.8040  176.1560  139.1840 C   0  0  0  0  0  2  0  0  0  0  0  0
  191.5890  176.5780  138.0180 N   0  0  0  0  0  0  0  0  0  0  0  0
  193.4220  177.1380  139.5820 C   0  0  0  0  0  2  0  0  0  0  0  0
  192.3130  177.7350  140.2170 O   0  0  0  0  0  0  0  0  0  0  0  0
  191.4030  176.7000  140.4900 C   0  0  1  0  0  3  0  0  0  0  0  0
  193.0160  176.3980  138.2920 C   0  0  0  0  0  2  0  0  0  0  0  0
  191.1580  175.5370  136.6980 S   0  0  0  0  0  0  0  0  0  0  0  0
  192.3750  174.7840  136.2400 O   0  0  0  0  0  0  0  0  0  0  0  0
  190.6230  176.3530  135.5530 O   0  0  0  0  0  0  0  0  0  0  0  0
  189.9100  174.3670  137.2120 C   0  0  0  0  0  2  0  0  0  0  0  0
  185.3420  174.0530  136.2370 C   0  0  0  0  0  1  0  0  0  0  0  0
  188.6110  172.9900  135.8350 C   0  0  0  0  0  2  0  0  0  0  0  0
  186.4280  172.8180  137.9610 O   0  0  0  0  0  1  0  0  0  0  0  0
  186.6540  173.5200  136.7730 C   0  0  2  0  0  0  0  0  0  0  0  0
  187.6050  174.6610  137.0290 C   0  0  0  0  0  2  0  0  0  0  0  0
  187.2380  172.6690  135.8270 O   0  0  0  0  0  0  0  0  0  0  0  0
  188.7990  174.3670  136.2700 N   0  0  0  0  0  0  0  0  0  0  0  0
  186.0490  177.5180  145.4050 S   0  0  0  0  0  0  0  0  0  0  0  0
  184.4070  178.6280  143.4410 C   0  0  0  0  0  0  0  0  0  0  0  0
  185.6840  178.1410  143.7620 C   0  0  0  0  0  0  0  0  0  0  0  0
  186.4470  178.6830  141.5140 C   0  0  0  0  0  0  0  0  0  0  0  0
  186.6970  178.1750  142.8000 C   0  0  0  0  0  3  0  0  0  0  0  0
  184.1540  179.1350  142.1630 C   0  0  0  0  0  3  0  0  0  0  0  0
  185.1690  179.1680  141.1940 C   0  0  0  0  0  0  0  0  0  0  0  0
  183.3900  178.6280  144.3880 O   0  0  0  0  0  1  0  0  0  0  0  0
  184.9330  179.6760  139.9120 O   0  0  0  0  0  0  0  0  0  0  0  0
  183.6420  179.6880  139.3120 C   0  0  0  0  0  2  0  0  0  0  0  0
  183.3440  178.3300  138.7090 C   0  0  0  0  0  2  0  0  0  0  0  0
  182.4160  177.6030  139.5670 N   0  0  0  0  0  0  0  0  0  0  0  0
  181.2470  178.4940  139.7440 C   0  0  1  0  0  3  0  0  0  0  0  0
  181.0320  177.5260  137.3880 C   0  0  0  0  0  2  0  0  0  0  0  0
  180.4220  175.1590  137.1550 N   0  0  0  0  0  2  0  0  0  0  0  0
  181.1210  177.2980  138.9030 C   0  0  0  0  0  0  0  0  0  0  0  0
  181.3130  176.2090  136.6630 C   0  0  0  0  0  2  0  0  0  0  0  0
  180.4680  176.0270  139.4530 C   0  0  0  0  0  2  0  0  0  0  0  0
  180.7990  174.8480  138.5340 C   0  0  0  0  0  2  0  0  0  0  0  0
  180.7000  178.3320  141.1540 C   0  0  0  0  0  2  0  0  0  0  0  0
  179.8020  179.3630  141.4280 O   0  0  0  0  0  1  0  0  0  0  0  0
  187.4530  178.7190  140.5400 O   0  0  0  0  0  0  0  0  0  0  0  0
  187.4490  177.8760  139.3930 C   0  0  0  0  0  2  0  0  0  0  0  0
  188.3390  178.4650  138.3070 C   0  0  0  0  0  2  0  0  0  0  0  0
  187.6930  178.1200  135.9480 C   0  0  0  0  0  2  0  0  0  0  0  0
  186.4490  177.9750  136.7990 C   0  0  0  0  0  2  0  0  0  0  0  0
  187.4980  179.0060  137.1660 C   0  0  0  0  0  3  0  0  0  0  0  0
  1 28  1  0  0  0  0
  1  5  1  0  0  0  0
  2  5  2  0  0  0  0
  3  4  1  0  0  0  0
  3  7  2  0  0  0  0
  4  1  2  0  0  0  0
  5  8  1  0  0  0  0
  6  7  1  0  0  0  0
  7  2  1  0  0  0  0
  9  3  1  0  0  0  0
 10  9  1  0  0  0  0
 11 15  1  0  0  0  0
 12 16  1  0  0  0  0
 12 11  1  0  0  0  0
 13 14  1  0  0  0  0
 14 15  1  0  0  0  0
 15 10  1  1  0  0  0
 16 13  1  0  0  0  0
 17 20  1  0  0  0  0
 17 12  1  0  0  0  0
 18 17  2  0  0  0  0
 19 17  2  0  0  0  0
 22 27  1  0  0  0  0
 24 21  1  6  0  0  0
 24 25  1  0  0  0  0
 24 23  1  0  0  0  0
 26 22  1  0  0  0  0
 26 24  1  0  0  0  0
 27 25  1  0  0  0  0
 27 20  1  0  0  0  0
 29 30  1  0  0  0  0
 29 35  1  0  0  0  0
 30 28  1  0  0  0  0
 31 32  1  0  0  0  0
 32 30  2  0  0  0  0
 33 29  2  0  0  0  0
 34 31  2  0  0  0  0
 34 33  1  0  0  0  0
 36 34  1  0  0  0  0
 37 36  1  0  0  0  0
 38 37  1  0  0  0  0
 38 39  1  0  0  0  0
 39 40  1  0  0  0  0
 40 47  1  1  0  0  0
 41 43  1  0  0  0  0
 42 46  1  0  0  0  0
 43 45  1  0  0  0  0
 43 39  1  0  0  0  0
 43 40  1  0  0  0  0
 44 42  1  0  0  0  0
 44 41  1  0  0  0  0
 46 45  1  0  0  0  0
 47 48  1  0  0  0  0
 49 31  1  0  0  0  0
 50 49  1  0  0  0  0
 51 50  1  0  0  0  0
 52 53  1  0  0  0  0
 52 54  1  0  0  0  0
 53 54  1  0  0  0  0
 54 51  1  0  0  0  0
M  END
>  <MODEL>
9

>  <REMARK>
 VINA RESULT:      -6.5      2.552      8.453
  Name = 
  17 active torsions:
  status: ('A' for Active; 'I' for Inactive)
    1  A    between atoms: C_1  and  O_6
    2  A    between atoms: C_1  and  C_24
    3  A    between atoms: C_3  and  C_27
    4  A    between atoms: C_5  and  S_45
    5  A    between atoms: O_6  and  C_39
    6  A    between atoms: C_8  and  C_18
    7  A    between atoms: C_8  and  O_20
    8  A    between atoms: C_9  and  S_45
    9  A    between atoms: C_10  and  O_20
   10  A    between atoms: N_11  and  C_24
   11  A    between atoms: C_14  and  C_23
   12  A    between atoms: N_15  and  S_26
   13  A    between atoms: C_18  and  C_22
   14  A    between atoms: N_19  and  C_23
   15  A    between atoms: N_19  and  C_50
   16  A    between atoms: S_26  and  C_53
   17  A    between atoms: N_47  and  C_53
                            x       y       z     vdW  Elec       q    Type
                         _______ _______ _______ _____ _____    ______ ____

>  <TORSDO>
F 17

$$$$
