=
 OpenBabel10222420333D

 41 45  0  0  1  0  0  0  0  0999 V2000
  187.9650  178.0820  143.3730 C   0  0  2  0  0  3  0  0  0  0  0  0
  186.7450  177.4070  143.9820 C   0  0  0  0  0  2  0  0  0  0  0  0
  185.7390  178.4460  144.4690 C   0  0  1  0  0  3  0  0  0  0  0  0
  182.1490  178.9880  143.2600 C   0  0  0  0  0  3  0  0  0  0  0  0
  184.6340  178.2340  142.2240 C   0  0  0  0  0  3  0  0  0  0  0  0
  182.2760  178.6870  141.9030 C   0  0  0  0  0  3  0  0  0  0  0  0
  183.2640  178.9130  144.1020 C   0  0  0  0  0  3  0  0  0  0  0  0
  183.5190  178.3110  141.3830 C   0  0  0  0  0  3  0  0  0  0  0  0
  184.5140  178.5320  143.5890 C   0  0  0  0  0  0  0  0  0  0  0  0
  185.2160  179.4460  146.4850 O   0  0  0  0  0  1  0  0  0  0  0  0
  185.4440  178.2450  145.8970 N   0  0  0  0  0  0  0  0  0  0  0  0
  186.5970  177.6450  146.5560 C   0  0  0  0  0  2  0  0  0  0  0  0
  186.9720  178.4400  147.7980 C   0  0  0  0  0  2  0  0  0  0  0  0
  188.8000  176.7780  147.7070 C   0  0  0  0  0  2  0  0  0  0  0  0
  189.3860  178.1030  148.1450 C   0  0  0  0  0  2  0  0  0  0  0  0
  188.0090  177.6940  148.6170 C   0  0  0  0  0  3  0  0  0  0  0  0
  188.2750  177.4930  142.0010 C   0  0  0  0  0  2  0  0  0  0  0  0
  187.8870  178.4390  140.8750 C   0  0  0  0  0  2  0  0  0  0  0  0
  187.2510  176.4080  136.1450 N   0  0  0  0  0  0  0  0  0  0  0  0
  186.5280  177.6410  138.1570 C   0  0  0  0  0  2  0  0  0  0  0  0
  187.9800  177.6540  138.5040 C   0  0  0  0  0  0  0  0  0  0  0  0
  188.5590  178.0460  139.6470 N   0  0  0  0  0  0  0  0  0  0  0  0
  190.1580  177.4800  138.2810 C   0  0  0  0  0  3  0  0  0  0  0  0
  184.9670  176.2220  136.6880 N   0  0  0  0  0  2  0  0  0  0  0  0
  188.9520  177.2950  137.6300 C   0  0  0  0  0  0  0  0  0  0  0  0
  189.8760  177.9320  139.5270 N   0  0  0  0  0  0  0  0  0  0  0  0
  186.2780  176.7430  136.9580 C   0  0  0  0  0  0  0  0  0  0  0  0
  188.6490  176.8610  136.2400 C   0  0  0  0  0  2  0  0  0  0  0  0
  182.9340  177.6510  137.0890 C   0  0  0  0  0  2  0  0  0  0  0  0
  181.0360  179.0840  137.8880 C   0  0  0  0  0  1  0  0  0  0  0  0
  183.3080  175.5290  138.3150 C   0  0  0  0  0  3  0  0  0  0  0  0
  181.8050  177.8600  138.0010 N   0  0  0  0  0  0  0  0  0  0  0  0
  182.0610  175.7300  139.0670 C   0  0  0  0  0  3  0  0  0  0  0  0
  181.3570  176.8470  138.9100 C   0  0  0  0  0  3  0  0  0  0  0  0
  183.7450  176.4220  137.4170 C   0  0  0  0  0  0  0  0  0  0  0  0
  189.0740  177.9610  144.2510 O   0  0  0  0  0  0  0  0  0  0  0  0
  190.3160  178.4950  143.9150 C   0  0  0  0  0  3  0  0  0  0  0  0
  191.4440  177.9050  144.2950 C   0  0  0  0  0  3  0  0  0  0  0  0
  191.4380  176.6530  145.1010 C   0  0  0  0  0  2  0  0  0  0  0  0
  192.0100  176.9000  146.3520 O   0  0  0  0  0  0  0  0  0  0  0  0
  192.2450  175.6370  146.8910 C   0  0  0  0  0  1  0  0  0  0  0  0
  1 17  1  6  0  0  0
  1  2  1  0  0  0  0
  1 36  1  0  0  0  0
  3  2  1  6  0  0  0
  3 11  1  0  0  0  0
  4  7  1  0  0  0  0
  5  9  1  0  0  0  0
  6  4  2  0  0  0  0
  8  6  1  0  0  0  0
  8  5  2  0  0  0  0
  9  7  2  0  0  0  0
  9  3  1  0  0  0  0
 11 10  1  0  0  0  0
 11 12  1  0  0  0  0
 12 13  1  0  0  0  0
 13 16  1  0  0  0  0
 14 15  1  0  0  0  0
 14 16  1  0  0  0  0
 15 16  1  0  0  0  0
 18 17  1  0  0  0  0
 19 28  1  0  0  0  0
 19 27  2  0  0  0  0
 20 21  1  0  0  0  0
 21 22  1  0  0  0  0
 22 18  1  0  0  0  0
 23 26  2  0  0  0  0
 24 27  1  0  0  0  0
 24 35  1  0  0  0  0
 25 23  1  0  0  0  0
 25 21  2  0  0  0  0
 26 22  1  0  0  0  0
 27 20  1  0  0  0  0
 28 25  1  0  0  0  0
 29 35  1  0  0  0  0
 29 32  1  0  0  0  0
 30 32  1  0  0  0  0
 31 33  1  0  0  0  0
 32 34  1  0  0  0  0
 34 33  2  0  0  0  0
 35 31  2  0  0  0  0
 37 36  1  0  0  0  0
 37 38  2  0  0  0  0
 38 39  1  0  0  0  0
 39 40  1  0  0  0  0
 40 41  1  0  0  0  0
M  END
>  <MODEL>
1

>  <REMARK>
 VINA RESULT:      -8.5      0.000      0.000
  Name = 
  15 active torsions:
  status: ('A' for Active; 'I' for Inactive)
    1  A    between atoms: C_1  and  O_29
    2  A    between atoms: C_1  and  C_38
    3  A    between atoms: C_4  and  N_20
    4  A    between atoms: C_4  and  C_22
    5  A    between atoms: C_6  and  O_24
    6  A    between atoms: C_7  and  C_14
    7  A    between atoms: C_7  and  C_22
    8  A    between atoms: C_7  and  O_24
    9  A    between atoms: C_8  and  N_18
   10  A    between atoms: C_8  and  C_21
   11  A    between atoms: C_14  and  C_19
   12  A    between atoms: N_18  and  C_19
   13  A    between atoms: C_19  and  C_37
   14  A    between atoms: C_21  and  C_27
   15  A    between atoms: N_26  and  C_41
                            x       y       z     vdW  Elec       q    Type
                         _______ _______ _______ _____ _____    ______ ____

>  <TORSDO>
F 15

$$$$
=
 OpenBabel10222420333D

 41 45  0  0  1  0  0  0  0  0999 V2000
  188.4740  176.9090  142.1860 C   0  0  2  0  0  3  0  0  0  0  0  0
  188.9940  176.4620  143.5440 C   0  0  0  0  0  2  0  0  0  0  0  0
  189.3890  177.6650  144.3950 C   0  0  1  0  0  3  0  0  0  0  0  0
  186.2820  178.1370  146.5790 C   0  0  0  0  0  3  0  0  0  0  0  0
  189.0560  177.9240  146.8700 C   0  0  0  0  0  3  0  0  0  0  0  0
  186.8570  178.2040  147.8490 C   0  0  0  0  0  3  0  0  0  0  0  0
  187.0930  177.9630  145.4510 C   0  0  0  0  0  3  0  0  0  0  0  0
  188.2430  178.0960  147.9960 C   0  0  0  0  0  3  0  0  0  0  0  0
  188.4860  177.8580  145.5910 C   0  0  0  0  0  0  0  0  0  0  0  0
  191.4640  178.6430  144.1170 O   0  0  0  0  0  1  0  0  0  0  0  0
  190.8230  177.6120  144.7230 N   0  0  0  0  0  0  0  0  0  0  0  0
  191.3980  176.3750  144.2100 C   0  0  0  0  0  2  0  0  0  0  0  0
  192.0800  175.6020  145.3290 C   0  0  0  0  0  2  0  0  0  0  0  0
  191.2630  175.3490  147.6490 C   0  0  0  0  0  2  0  0  0  0  0  0
  192.7490  175.6280  147.6990 C   0  0  0  0  0  2  0  0  0  0  0  0
  191.8880  176.3080  146.6590 C   0  0  0  0  0  3  0  0  0  0  0  0
  189.4010  177.9530  141.5730 C   0  0  0  0  0  2  0  0  0  0  0  0
  190.2930  177.3580  140.4940 C   0  0  0  0  0  2  0  0  0  0  0  0
  190.7770  176.5280  135.3970 N   0  0  0  0  0  0  0  0  0  0  0  0
  191.0190  175.9450  137.7830 C   0  0  0  0  0  2  0  0  0  0  0  0
  190.0940  177.0950  138.0170 C   0  0  0  0  0  0  0  0  0  0  0  0
  189.7460  177.6600  139.1810 N   0  0  0  0  0  0  0  0  0  0  0  0
  188.6300  178.6810  137.6140 C   0  0  0  0  0  3  0  0  0  0  0  0
  192.6420  175.1950  135.9360 N   0  0  0  0  0  2  0  0  0  0  0  0
  189.4140  177.7100  137.0180 C   0  0  0  0  0  0  0  0  0  0  0  0
  188.8710  178.6290  138.9470 N   0  0  0  0  0  0  0  0  0  0  0  0
  191.4580  175.9050  136.3290 C   0  0  0  0  0  0  0  0  0  0  0  0
  189.5290  177.2840  135.5980 C   0  0  0  0  0  2  0  0  0  0  0  0
  193.8260  173.0140  136.3600 C   0  0  0  0  0  2  0  0  0  0  0  0
  194.8330  170.8620  137.1650 C   0  0  0  0  0  1  0  0  0  0  0  0
  194.2050  175.0100  137.7800 C   0  0  0  0  0  3  0  0  0  0  0  0
  194.6340  172.2870  137.3440 N   0  0  0  0  0  0  0  0  0  0  0  0
  195.1440  174.2500  138.6180 C   0  0  0  0  0  3  0  0  0  0  0  0
  195.3350  172.9530  138.4010 C   0  0  0  0  0  3  0  0  0  0  0  0
  193.5610  174.4470  136.7490 C   0  0  0  0  0  0  0  0  0  0  0  0
  187.1490  177.4030  142.3130 O   0  0  0  0  0  0  0  0  0  0  0  0
  186.8210  178.6890  141.8900 C   0  0  0  0  0  3  0  0  0  0  0  0
  185.5570  179.0970  141.8460 C   0  0  0  0  0  3  0  0  0  0  0  0
  184.4330  178.2020  142.2400 C   0  0  0  0  0  2  0  0  0  0  0  0
  184.2040  178.3180  143.6140 O   0  0  0  0  0  0  0  0  0  0  0  0
  184.1300  179.6890  143.8470 C   0  0  0  0  0  1  0  0  0  0  0  0
  1 17  1  1  0  0  0
  1 36  1  0  0  0  0
  1  2  1  0  0  0  0
  3  2  1  1  0  0  0
  3 11  1  0  0  0  0
  3  9  1  0  0  0  0
  4  6  1  0  0  0  0
  5  8  1  0  0  0  0
  6  8  2  0  0  0  0
  7  9  1  0  0  0  0
  7  4  2  0  0  0  0
  9  5  2  0  0  0  0
 10 11  1  0  0  0  0
 12 11  1  0  0  0  0
 12 13  1  0  0  0  0
 13 16  1  0  0  0  0
 14 15  1  0  0  0  0
 16 14  1  0  0  0  0
 16 15  1  0  0  0  0
 18 17  1  0  0  0  0
 19 28  1  0  0  0  0
 19 27  2  0  0  0  0
 20 21  1  0  0  0  0
 21 22  1  0  0  0  0
 22 18  1  0  0  0  0
 23 26  2  0  0  0  0
 24 27  1  0  0  0  0
 24 35  1  0  0  0  0
 25 23  1  0  0  0  0
 25 21  2  0  0  0  0
 26 22  1  0  0  0  0
 27 20  1  0  0  0  0
 28 25  1  0  0  0  0
 29 35  1  0  0  0  0
 29 32  1  0  0  0  0
 30 32  1  0  0  0  0
 31 33  1  0  0  0  0
 32 34  1  0  0  0  0
 34 33  2  0  0  0  0
 35 31  2  0  0  0  0
 37 36  1  0  0  0  0
 38 37  2  0  0  0  0
 38 39  1  0  0  0  0
 39 40  1  0  0  0  0
 40 41  1  0  0  0  0
M  END
>  <MODEL>
2

>  <REMARK>
 VINA RESULT:      -7.8      3.256      7.126
  Name = 
  15 active torsions:
  status: ('A' for Active; 'I' for Inactive)
    1  A    between atoms: C_1  and  O_29
    2  A    between atoms: C_1  and  C_38
    3  A    between atoms: C_4  and  N_20
    4  A    between atoms: C_4  and  C_22
    5  A    between atoms: C_6  and  O_24
    6  A    between atoms: C_7  and  C_14
    7  A    between atoms: C_7  and  C_22
    8  A    between atoms: C_7  and  O_24
    9  A    between atoms: C_8  and  N_18
   10  A    between atoms: C_8  and  C_21
   11  A    between atoms: C_14  and  C_19
   12  A    between atoms: N_18  and  C_19
   13  A    between atoms: C_19  and  C_37
   14  A    between atoms: C_21  and  C_27
   15  A    between atoms: N_26  and  C_41
                            x       y       z     vdW  Elec       q    Type
                         _______ _______ _______ _____ _____    ______ ____

>  <TORSDO>
F 15

$$$$
=
 OpenBabel10222420333D

 41 45  0  0  1  0  0  0  0  0999 V2000
  188.4240  177.7240  142.7000 C   0  0  2  0  0  3  0  0  0  0  0  0
  187.1010  177.2280  143.2640 C   0  0  0  0  0  2  0  0  0  0  0  0
  186.1330  178.3890  143.4720 C   0  0  1  0  0  3  0  0  0  0  0  0
  182.9080  178.4900  141.4150 C   0  0  0  0  0  3  0  0  0  0  0  0
  185.6450  178.9500  141.0740 C   0  0  0  0  0  3  0  0  0  0  0  0
  183.3990  178.8840  140.1690 C   0  0  0  0  0  3  0  0  0  0  0  0
  183.7840  178.3260  142.4930 C   0  0  0  0  0  3  0  0  0  0  0  0
  184.7670  179.1160  139.9970 C   0  0  0  0  0  3  0  0  0  0  0  0
  185.1600  178.5520  142.3280 C   0  0  0  0  0  0  0  0  0  0  0  0
  185.3420  179.5400  145.3120 O   0  0  0  0  0  1  0  0  0  0  0  0
  185.4970  178.2950  144.7970 N   0  0  0  0  0  0  0  0  0  0  0  0
  186.3610  177.5490  145.7030 C   0  0  0  0  0  2  0  0  0  0  0  0
  186.6600  178.3720  146.9480 C   0  0  0  0  0  2  0  0  0  0  0  0
  188.2390  177.9360  148.8000 C   0  0  0  0  0  2  0  0  0  0  0  0
  188.4030  176.8380  147.7710 C   0  0  0  0  0  2  0  0  0  0  0  0
  188.1260  178.2550  147.3250 C   0  0  0  0  0  3  0  0  0  0  0  0
  188.8020  176.9380  141.4490 C   0  0  0  0  0  2  0  0  0  0  0  0
  189.2210  177.8530  140.3080 C   0  0  0  0  0  2  0  0  0  0  0  0
  190.8250  174.3770  136.8080 N   0  0  0  0  0  0  0  0  0  0  0  0
  189.1980  175.9310  137.8220 C   0  0  0  0  0  2  0  0  0  0  0  0
  190.3680  176.4320  138.6020 C   0  0  0  0  0  0  0  0  0  0  0  0
  190.3780  177.2950  139.6280 N   0  0  0  0  0  0  0  0  0  0  0  0
  192.4520  176.7800  139.2040 C   0  0  0  0  0  3  0  0  0  0  0  0
  188.5600  173.7700  136.5840 N   0  0  0  0  0  2  0  0  0  0  0  0
  191.6480  176.0920  138.3130 C   0  0  0  0  0  0  0  0  0  0  0  0
  191.6320  177.5010  140.0080 N   0  0  0  0  0  0  0  0  0  0  0  0
  189.5710  174.6760  137.0530 C   0  0  0  0  0  0  0  0  0  0  0  0
  191.9950  175.1890  137.1830 C   0  0  0  0  0  2  0  0  0  0  0  0
  186.4190  174.9280  135.9430 C   0  0  0  0  0  2  0  0  0  0  0  0
  184.2350  176.1410  135.7160 C   0  0  0  0  0  1  0  0  0  0  0  0
  186.4490  172.9830  137.4780 C   0  0  0  0  0  3  0  0  0  0  0  0
  184.9990  175.0480  136.2860 N   0  0  0  0  0  0  0  0  0  0  0  0
  184.9890  173.0660  137.6300 C   0  0  0  0  0  3  0  0  0  0  0  0
  184.3120  174.0570  137.0600 C   0  0  0  0  0  3  0  0  0  0  0  0
  187.1330  173.8540  136.7250 C   0  0  0  0  0  0  0  0  0  0  0  0
  189.4360  177.6370  143.6920 O   0  0  0  0  0  0  0  0  0  0  0  0
  190.2500  176.5110  143.7880 C   0  0  0  0  0  3  0  0  0  0  0  0
  191.1940  176.4230  144.7200 C   0  0  0  0  0  3  0  0  0  0  0  0
  191.4310  177.5190  145.6990 C   0  0  0  0  0  2  0  0  0  0  0  0
  191.7910  176.9730  146.9330 O   0  0  0  0  0  0  0  0  0  0  0  0
  192.2190  175.6800  146.6390 C   0  0  0  0  0  1  0  0  0  0  0  0
  1 17  1  6  0  0  0
  1  2  1  0  0  0  0
  1 36  1  0  0  0  0
  3  2  1  6  0  0  0
  3 11  1  0  0  0  0
  4  7  1  0  0  0  0
  5  9  1  0  0  0  0
  6  4  2  0  0  0  0
  8  6  1  0  0  0  0
  8  5  2  0  0  0  0
  9  7  2  0  0  0  0
  9  3  1  0  0  0  0
 11 10  1  0  0  0  0
 11 12  1  0  0  0  0
 12 13  1  0  0  0  0
 13 16  1  0  0  0  0
 15 14  1  0  0  0  0
 16 15  1  0  0  0  0
 16 14  1  0  0  0  0
 18 17  1  0  0  0  0
 19 27  2  0  0  0  0
 19 28  1  0  0  0  0
 20 21  1  0  0  0  0
 21 22  1  0  0  0  0
 22 26  1  0  0  0  0
 22 18  1  0  0  0  0
 23 26  2  0  0  0  0
 24 35  1  0  0  0  0
 24 27  1  0  0  0  0
 25 21  2  0  0  0  0
 25 23  1  0  0  0  0
 27 20  1  0  0  0  0
 28 25  1  0  0  0  0
 29 32  1  0  0  0  0
 29 35  1  0  0  0  0
 30 32  1  0  0  0  0
 31 33  1  0  0  0  0
 32 34  1  0  0  0  0
 34 33  2  0  0  0  0
 35 31  2  0  0  0  0
 36 37  1  0  0  0  0
 37 38  2  0  0  0  0
 38 39  1  0  0  0  0
 39 40  1  0  0  0  0
 41 40  1  0  0  0  0
M  END
>  <MODEL>
3

>  <REMARK>
 VINA RESULT:      -7.6      1.814      2.671
  Name = 
  15 active torsions:
  status: ('A' for Active; 'I' for Inactive)
    1  A    between atoms: C_1  and  O_29
    2  A    between atoms: C_1  and  C_38
    3  A    between atoms: C_4  and  N_20
    4  A    between atoms: C_4  and  C_22
    5  A    between atoms: C_6  and  O_24
    6  A    between atoms: C_7  and  C_14
    7  A    between atoms: C_7  and  C_22
    8  A    between atoms: C_7  and  O_24
    9  A    between atoms: C_8  and  N_18
   10  A    between atoms: C_8  and  C_21
   11  A    between atoms: C_14  and  C_19
   12  A    between atoms: N_18  and  C_19
   13  A    between atoms: C_19  and  C_37
   14  A    between atoms: C_21  and  C_27
   15  A    between atoms: N_26  and  C_41
                            x       y       z     vdW  Elec       q    Type
                         _______ _______ _______ _____ _____    ______ ____

>  <TORSDO>
F 15

$$$$
=
 OpenBabel10222420333D

 41 45  0  0  1  0  0  0  0  0999 V2000
  183.7330  178.6600  141.2240 C   0  0  2  0  0  3  0  0  0  0  0  0
  183.1380  177.5040  140.4330 C   0  0  0  0  0  2  0  0  0  0  0  0
  181.6420  177.7080  140.2180 C   0  0  1  0  0  3  0  0  0  0  0  0
  181.5640  180.8520  138.0380 C   0  0  0  0  0  3  0  0  0  0  0  0
  180.3830  179.8760  140.3770 C   0  0  0  0  0  3  0  0  0  0  0  0
  180.6420  181.6370  138.7340 C   0  0  0  0  0  3  0  0  0  0  0  0
  181.8960  179.5770  138.5090 C   0  0  0  0  0  3  0  0  0  0  0  0
  180.0500  181.1490  139.9030 C   0  0  0  0  0  3  0  0  0  0  0  0
  181.3090  179.0820  139.6840 C   0  0  0  0  0  0  0  0  0  0  0  0
  180.4430  175.7340  140.2520 O   0  0  0  0  0  1  0  0  0  0  0  0
  181.0820  176.6010  139.4270 N   0  0  0  0  0  0  0  0  0  0  0  0
  182.1600  175.8710  138.7730 C   0  0  0  0  0  2  0  0  0  0  0  0
  181.8890  175.7480  137.2810 C   0  0  0  0  0  2  0  0  0  0  0  0
  183.5690  177.2310  136.2350 C   0  0  0  0  0  2  0  0  0  0  0  0
  184.2470  176.4570  137.3450 C   0  0  0  0  0  2  0  0  0  0  0  0
  183.1880  175.7890  136.4970 C   0  0  0  0  0  3  0  0  0  0  0  0
  185.0150  179.1580  140.5660 C   0  0  0  0  0  2  0  0  0  0  0  0
  186.2560  178.6330  141.2710 C   0  0  0  0  0  2  0  0  0  0  0  0
  191.1950  177.1940  140.6120 N   0  0  0  0  0  0  0  0  0  0  0  0
  189.0500  177.3080  141.8270 C   0  0  0  0  0  2  0  0  0  0  0  0
  188.5030  177.8220  140.5360 C   0  0  0  0  0  0  0  0  0  0  0  0
  187.2900  178.3370  140.2920 N   0  0  0  0  0  0  0  0  0  0  0  0
  188.3590  178.2890  138.3950 C   0  0  0  0  0  3  0  0  0  0  0  0
  191.3530  177.1730  142.9620 N   0  0  0  0  0  2  0  0  0  0  0  0
  189.1950  177.7780  139.3720 C   0  0  0  0  0  0  0  0  0  0  0  0
  187.1980  178.6350  139.0030 N   0  0  0  0  0  0  0  0  0  0  0  0
  190.5650  177.2180  141.7620 C   0  0  0  0  0  0  0  0  0  0  0  0
  190.5650  177.2050  139.2810 C   0  0  0  0  0  2  0  0  0  0  0  0
  191.8180  176.5480  145.3560 C   0  0  0  0  0  2  0  0  0  0  0  0
  191.9090  175.7320  147.7270 C   0  0  0  0  0  1  0  0  0  0  0  0
  189.7900  177.8140  144.7010 C   0  0  0  0  0  3  0  0  0  0  0  0
  191.2120  176.4670  146.6890 N   0  0  0  0  0  0  0  0  0  0  0  0
  189.3390  177.8380  146.0990 C   0  0  0  0  0  3  0  0  0  0  0  0
  190.0240  177.1890  147.0350 C   0  0  0  0  0  3  0  0  0  0  0  0
  190.9200  177.1960  144.3320 C   0  0  0  0  0  0  0  0  0  0  0  0
  183.9600  178.2610  142.5670 O   0  0  0  0  0  0  0  0  0  0  0  0
  183.2880  178.8770  143.6210 C   0  0  0  0  0  3  0  0  0  0  0  0
  183.8470  178.9870  144.8220 C   0  0  0  0  0  3  0  0  0  0  0  0
  185.2100  178.4560  145.1010 C   0  0  0  0  0  2  0  0  0  0  0  0
  185.8920  179.3400  145.9420 O   0  0  0  0  0  0  0  0  0  0  0  0
  185.8350  178.7480  147.2010 C   0  0  0  0  0  1  0  0  0  0  0  0
  1  2  1  6  0  0  0
  1 36  1  0  0  0  0
  3  2  1  6  0  0  0
  4  7  2  0  0  0  0
  4  6  1  0  0  0  0
  6  8  2  0  0  0  0
  7  9  1  0  0  0  0
  8  5  1  0  0  0  0
  9  3  1  0  0  0  0
  9  5  2  0  0  0  0
 11  3  1  0  0  0  0
 11 10  1  0  0  0  0
 12 11  1  0  0  0  0
 13 12  1  0  0  0  0
 14 16  1  0  0  0  0
 14 15  1  0  0  0  0
 16 13  1  0  0  0  0
 16 15  1  0  0  0  0
 17  1  1  0  0  0  0
 17 18  1  0  0  0  0
 19 27  2  0  0  0  0
 21 20  1  0  0  0  0
 22 21  1  0  0  0  0
 22 18  1  0  0  0  0
 23 26  2  0  0  0  0
 23 25  1  0  0  0  0
 24 35  1  0  0  0  0
 25 21  2  0  0  0  0
 26 22  1  0  0  0  0
 27 20  1  0  0  0  0
 27 24  1  0  0  0  0
 28 25  1  0  0  0  0
 28 19  1  0  0  0  0
 29 32  1  0  0  0  0
 31 33  1  0  0  0  0
 32 34  1  0  0  0  0
 32 30  1  0  0  0  0
 33 34  2  0  0  0  0
 35 31  2  0  0  0  0
 35 29  1  0  0  0  0
 36 37  1  0  0  0  0
 37 38  2  0  0  0  0
 38 39  1  0  0  0  0
 39 40  1  0  0  0  0
 40 41  1  0  0  0  0
M  END
>  <MODEL>
4

>  <REMARK>
 VINA RESULT:      -7.4      2.376      7.917
  Name = 
  15 active torsions:
  status: ('A' for Active; 'I' for Inactive)
    1  A    between atoms: C_1  and  O_29
    2  A    between atoms: C_1  and  C_38
    3  A    between atoms: C_4  and  N_20
    4  A    between atoms: C_4  and  C_22
    5  A    between atoms: C_6  and  O_24
    6  A    between atoms: C_7  and  C_14
    7  A    between atoms: C_7  and  C_22
    8  A    between atoms: C_7  and  O_24
    9  A    between atoms: C_8  and  N_18
   10  A    between atoms: C_8  and  C_21
   11  A    between atoms: C_14  and  C_19
   12  A    between atoms: N_18  and  C_19
   13  A    between atoms: C_19  and  C_37
   14  A    between atoms: C_21  and  C_27
   15  A    between atoms: N_26  and  C_41
                            x       y       z     vdW  Elec       q    Type
                         _______ _______ _______ _____ _____    ______ ____

>  <TORSDO>
F 15

$$$$
=
 OpenBabel10222420333D

 41 45  0  0  1  0  0  0  0  0999 V2000
  188.2560  177.1210  142.2800 C   0  0  2  0  0  3  0  0  0  0  0  0
  188.8820  176.5950  143.5630 C   0  0  0  0  0  2  0  0  0  0  0  0
  189.3510  177.7460  144.4480 C   0  0  1  0  0  3  0  0  0  0  0  0
  188.2870  178.1620  148.1000 C   0  0  0  0  0  3  0  0  0  0  0  0
  187.1150  177.9710  145.5680 C   0  0  0  0  0  3  0  0  0  0  0  0
  186.8980  178.2210  147.9680 C   0  0  0  0  0  3  0  0  0  0  0  0
  189.0930  178.0080  146.9660 C   0  0  0  0  0  3  0  0  0  0  0  0
  186.3120  178.1270  146.7020 C   0  0  0  0  0  3  0  0  0  0  0  0
  188.5100  177.9080  145.6930 C   0  0  0  0  0  0  0  0  0  0  0  0
  191.4480  178.6280  144.0450 O   0  0  0  0  0  1  0  0  0  0  0  0
  190.7960  177.6380  144.7050 N   0  0  0  0  0  0  0  0  0  0  0  0
  191.2920  176.3670  144.1920 C   0  0  0  0  0  2  0  0  0  0  0  0
  192.0140  175.5980  145.2880 C   0  0  0  0  0  2  0  0  0  0  0  0
  191.2560  175.3710  147.6300 C   0  0  0  0  0  2  0  0  0  0  0  0
  192.7500  175.6130  147.6390 C   0  0  0  0  0  2  0  0  0  0  0  0
  191.8780  176.3110  146.6200 C   0  0  0  0  0  3  0  0  0  0  0  0
  189.2660  177.9450  141.4890 C   0  0  0  0  0  2  0  0  0  0  0  0
  189.1470  177.7050  139.9920 C   0  0  0  0  0  2  0  0  0  0  0  0
  191.4700  174.6680  136.4880 N   0  0  0  0  0  0  0  0  0  0  0  0
  189.6230  176.0490  137.3640 C   0  0  0  0  0  2  0  0  0  0  0  0
  190.6260  176.5100  138.3700 C   0  0  0  0  0  0  0  0  0  0  0  0
  190.4260  177.2620  139.4610 N   0  0  0  0  0  0  0  0  0  0  0  0
  192.5650  176.8700  139.3360 C   0  0  0  0  0  3  0  0  0  0  0  0
  189.3060  174.0050  135.8380 N   0  0  0  0  0  2  0  0  0  0  0  0
  191.9520  176.2480  138.2630 C   0  0  0  0  0  0  0  0  0  0  0  0
  191.5910  177.4750  140.0590 N   0  0  0  0  0  0  0  0  0  0  0  0
  190.1800  174.8930  136.5510 C   0  0  0  0  0  0  0  0  0  0  0  0
  192.5210  175.4790  137.1240 C   0  0  0  0  0  2  0  0  0  0  0  0
  187.0970  173.4860  136.9290 C   0  0  0  0  0  2  0  0  0  0  0  0
  184.8200  172.7420  137.6730 C   0  0  0  0  0  1  0  0  0  0  0  0
  187.2380  174.5410  134.6910 C   0  0  0  0  0  3  0  0  0  0  0  0
  185.6570  173.3820  136.6770 N   0  0  0  0  0  0  0  0  0  0  0  0
  185.7720  174.5580  134.5940 C   0  0  0  0  0  3  0  0  0  0  0  0
  185.0310  173.9990  135.5460 C   0  0  0  0  0  3  0  0  0  0  0  0
  187.8720  174.0220  135.7510 C   0  0  0  0  0  0  0  0  0  0  0  0
  187.0940  177.8780  142.5830 O   0  0  0  0  0  0  0  0  0  0  0  0
  186.5280  178.7320  141.6390 C   0  0  0  0  0  3  0  0  0  0  0  0
  185.2400  179.0520  141.6860 C   0  0  0  0  0  3  0  0  0  0  0  0
  184.3380  178.5130  142.7420 C   0  0  0  0  0  2  0  0  0  0  0  0
  184.3480  179.3690  143.8460 O   0  0  0  0  0  0  0  0  0  0  0  0
  183.2650  178.9620  144.6210 C   0  0  0  0  0  1  0  0  0  0  0  0
  1 17  1  1  0  0  0
  1 36  1  0  0  0  0
  1  2  1  0  0  0  0
  3  2  1  1  0  0  0
  3 11  1  0  0  0  0
  3  9  1  0  0  0  0
  5  9  2  0  0  0  0
  5  8  1  0  0  0  0
  6  4  1  0  0  0  0
  7  4  2  0  0  0  0
  8  6  2  0  0  0  0
  9  7  1  0  0  0  0
 10 11  1  0  0  0  0
 12 11  1  0  0  0  0
 12 13  1  0  0  0  0
 13 16  1  0  0  0  0
 14 15  1  0  0  0  0
 16 14  1  0  0  0  0
 16 15  1  0  0  0  0
 18 17  1  0  0  0  0
 19 27  2  0  0  0  0
 19 28  1  0  0  0  0
 20 21  1  0  0  0  0
 21 22  1  0  0  0  0
 22 18  1  0  0  0  0
 22 26  1  0  0  0  0
 23 26  2  0  0  0  0
 24 27  1  0  0  0  0
 25 21  2  0  0  0  0
 25 23  1  0  0  0  0
 27 20  1  0  0  0  0
 28 25  1  0  0  0  0
 31 35  2  0  0  0  0
 32 29  1  0  0  0  0
 32 30  1  0  0  0  0
 33 31  1  0  0  0  0
 33 34  2  0  0  0  0
 34 32  1  0  0  0  0
 35 24  1  0  0  0  0
 35 29  1  0  0  0  0
 37 38  2  0  0  0  0
 37 36  1  0  0  0  0
 38 39  1  0  0  0  0
 39 40  1  0  0  0  0
 40 41  1  0  0  0  0
M  END
>  <MODEL>
5

>  <REMARK>
 VINA RESULT:      -7.3      2.685      5.255
  Name = 
  15 active torsions:
  status: ('A' for Active; 'I' for Inactive)
    1  A    between atoms: C_1  and  O_29
    2  A    between atoms: C_1  and  C_38
    3  A    between atoms: C_4  and  N_20
    4  A    between atoms: C_4  and  C_22
    5  A    between atoms: C_6  and  O_24
    6  A    between atoms: C_7  and  C_14
    7  A    between atoms: C_7  and  C_22
    8  A    between atoms: C_7  and  O_24
    9  A    between atoms: C_8  and  N_18
   10  A    between atoms: C_8  and  C_21
   11  A    between atoms: C_14  and  C_19
   12  A    between atoms: N_18  and  C_19
   13  A    between atoms: C_19  and  C_37
   14  A    between atoms: C_21  and  C_27
   15  A    between atoms: N_26  and  C_41
                            x       y       z     vdW  Elec       q    Type
                         _______ _______ _______ _____ _____    ______ ____

>  <TORSDO>
F 15

$$$$
=
 OpenBabel10222420333D

 41 45  0  0  1  0  0  0  0  0999 V2000
  190.4630  176.8760  140.7100 C   0  0  2  0  0  3  0  0  0  0  0  0
  189.0780  177.0150  140.0970 C   0  0  0  0  0  2  0  0  0  0  0  0
  189.1440  177.7740  138.7760 C   0  0  1  0  0  3  0  0  0  0  0  0
  189.9820  176.5020  135.2650 C   0  0  0  0  0  3  0  0  0  0  0  0
  189.1780  175.4860  137.7430 C   0  0  0  0  0  3  0  0  0  0  0  0
  189.7860  175.1290  135.4250 C   0  0  0  0  0  3  0  0  0  0  0  0
  189.7760  177.3700  136.3440 C   0  0  0  0  0  3  0  0  0  0  0  0
  189.3860  174.6200  136.6640 C   0  0  0  0  0  3  0  0  0  0  0  0
  189.3700  176.8660  137.5900 C   0  0  0  0  0  0  0  0  0  0  0  0
  187.2450  178.6280  139.7760 O   0  0  0  0  0  1  0  0  0  0  0  0
  187.9830  178.6690  138.6390 N   0  0  0  0  0  0  0  0  0  0  0  0
  187.1350  178.2070  137.5480 C   0  0  0  0  0  2  0  0  0  0  0  0
  185.6830  178.1370  137.9970 C   0  0  0  0  0  2  0  0  0  0  0  0
  185.5560  176.9560  135.8300 C   0  0  0  0  0  2  0  0  0  0  0  0
  185.8570  175.9360  136.9070 C   0  0  0  0  0  2  0  0  0  0  0  0
  184.9260  177.0910  137.2000 C   0  0  0  0  0  3  0  0  0  0  0  0
  190.4330  177.2310  142.1920 C   0  0  0  0  0  2  0  0  0  0  0  0
  189.3410  176.4780  142.9360 C   0  0  0  0  0  2  0  0  0  0  0  0
  186.7930  178.4740  146.9890 N   0  0  0  0  0  0  0  0  0  0  0  0
  186.9660  177.3540  144.7960 C   0  0  0  0  0  2  0  0  0  0  0  0
  188.4120  177.2060  145.1380 C   0  0  0  0  0  0  0  0  0  0  0  0
  189.4130  176.7800  144.3560 N   0  0  0  0  0  0  0  0  0  0  0  0
  190.2580  177.1610  146.3280 C   0  0  0  0  0  3  0  0  0  0  0  0
  185.0270  178.8930  145.4890 N   0  0  0  0  0  2  0  0  0  0  0  0
  188.9060  177.4520  146.3760 C   0  0  0  0  0  0  0  0  0  0  0  0
  190.5360  176.7620  145.0620 N   0  0  0  0  0  0  0  0  0  0  0  0
  186.2710  178.2510  145.8060 C   0  0  0  0  0  0  0  0  0  0  0  0
  188.0420  177.8880  147.5060 C   0  0  0  0  0  2  0  0  0  0  0  0
  182.7630  179.0080  144.3930 C   0  0  0  0  0  2  0  0  0  0  0  0
  180.5990  178.7410  143.1520 C   0  0  0  0  0  1  0  0  0  0  0  0
  184.8390  178.6660  143.0830 C   0  0  0  0  0  3  0  0  0  0  0  0
  182.0490  178.7490  143.1390 N   0  0  0  0  0  0  0  0  0  0  0  0
  184.0560  178.5940  141.8410 C   0  0  0  0  0  3  0  0  0  0  0  0
  182.7280  178.6300  141.8830 C   0  0  0  0  0  3  0  0  0  0  0  0
  184.2560  178.8270  144.2780 C   0  0  0  0  0  0  0  0  0  0  0  0
  191.3890  177.6860  140.0010 O   0  0  0  0  0  0  0  0  0  0  0  0
  192.7620  177.4940  140.1400 C   0  0  0  0  0  3  0  0  0  0  0  0
  193.4660  176.8660  139.2050 C   0  0  0  0  0  3  0  0  0  0  0  0
  192.8260  176.3340  137.9700 C   0  0  0  0  0  2  0  0  0  0  0  0
  193.0690  174.9610  137.8730 O   0  0  0  0  0  0  0  0  0  0  0  0
  194.4470  174.8560  137.6980 C   0  0  0  0  0  1  0  0  0  0  0  0
  1  2  1  6  0  0  0
  1 17  1  0  0  0  0
  3  2  1  1  0  0  0
  4  6  2  0  0  0  0
  4  7  1  0  0  0  0
  6  8  1  0  0  0  0
  7  9  2  0  0  0  0
  8  5  2  0  0  0  0
  9  5  1  0  0  0  0
  9  3  1  0  0  0  0
 11  3  1  0  0  0  0
 11 10  1  0  0  0  0
 12 13  1  0  0  0  0
 12 11  1  0  0  0  0
 14 15  1  0  0  0  0
 14 16  1  0  0  0  0
 15 16  1  0  0  0  0
 16 13  1  0  0  0  0
 17 18  1  0  0  0  0
 18 22  1  0  0  0  0
 19 28  1  0  0  0  0
 20 21  1  0  0  0  0
 20 27  1  0  0  0  0
 21 25  2  0  0  0  0
 22 26  1  0  0  0  0
 22 21  1  0  0  0  0
 23 25  1  0  0  0  0
 24 27  1  0  0  0  0
 25 28  1  0  0  0  0
 26 23  2  0  0  0  0
 27 19  2  0  0  0  0
 31 35  2  0  0  0  0
 32 30  1  0  0  0  0
 32 29  1  0  0  0  0
 33 34  2  0  0  0  0
 33 31  1  0  0  0  0
 34 32  1  0  0  0  0
 35 29  1  0  0  0  0
 35 24  1  0  0  0  0
 36 37  1  0  0  0  0
 36  1  1  0  0  0  0
 38 37  2  0  0  0  0
 39 38  1  0  0  0  0
 40 39  1  0  0  0  0
 41 40  1  0  0  0  0
M  END
>  <MODEL>
6

>  <REMARK>
 VINA RESULT:      -7.2      2.730      7.929
  Name = 
  15 active torsions:
  status: ('A' for Active; 'I' for Inactive)
    1  A    between atoms: C_1  and  O_29
    2  A    between atoms: C_1  and  C_38
    3  A    between atoms: C_4  and  N_20
    4  A    between atoms: C_4  and  C_22
    5  A    between atoms: C_6  and  O_24
    6  A    between atoms: C_7  and  C_14
    7  A    between atoms: C_7  and  C_22
    8  A    between atoms: C_7  and  O_24
    9  A    between atoms: C_8  and  N_18
   10  A    between atoms: C_8  and  C_21
   11  A    between atoms: C_14  and  C_19
   12  A    between atoms: N_18  and  C_19
   13  A    between atoms: C_19  and  C_37
   14  A    between atoms: C_21  and  C_27
   15  A    between atoms: N_26  and  C_41
                            x       y       z     vdW  Elec       q    Type
                         _______ _______ _______ _____ _____    ______ ____

>  <TORSDO>
F 15

$$$$
=
 OpenBabel10222420333D

 41 45  0  0  1  0  0  0  0  0999 V2000
  183.8140  178.7370  141.2870 C   0  0  2  0  0  3  0  0  0  0  0  0
  183.2540  177.5010  140.5990 C   0  0  0  0  0  2  0  0  0  0  0  0
  182.4600  177.8870  139.3550 C   0  0  1  0  0  3  0  0  0  0  0  0
  182.8830  176.5360  135.7990 C   0  0  0  0  0  3  0  0  0  0  0  0
  183.0560  175.6260  138.4380 C   0  0  0  0  0  3  0  0  0  0  0  0
  183.2170  175.2060  136.0580 C   0  0  0  0  0  3  0  0  0  0  0  0
  182.6350  177.4150  136.8600 C   0  0  0  0  0  3  0  0  0  0  0  0
  183.3050  174.7500  137.3770 C   0  0  0  0  0  3  0  0  0  0  0  0
  182.7170  176.9640  138.1870 C   0  0  0  0  0  0  0  0  0  0  0  0
  180.3600  176.9240  139.3810 O   0  0  0  0  0  1  0  0  0  0  0  0
  181.0370  178.0590  139.6870 N   0  0  0  0  0  0  0  0  0  0  0  0
  180.4730  179.1370  138.8830 C   0  0  0  0  0  2  0  0  0  0  0  0
  180.8960  180.4900  139.4370 C   0  0  0  0  0  2  0  0  0  0  0  0
  180.8050  181.0800  137.0390 C   0  0  0  0  0  2  0  0  0  0  0  0
  180.4840  182.3210  137.8440 C   0  0  0  0  0  2  0  0  0  0  0  0
  181.5190  181.3420  138.3470 C   0  0  0  0  0  3  0  0  0  0  0  0
  185.1050  179.1880  140.6120 C   0  0  0  0  0  2  0  0  0  0  0  0
  186.3360  178.6250  141.3050 C   0  0  0  0  0  2  0  0  0  0  0  0
  191.2530  177.1270  140.6140 N   0  0  0  0  0  0  0  0  0  0  0  0
  189.1160  177.2620  141.8410 C   0  0  0  0  0  2  0  0  0  0  0  0
  188.5690  177.7900  140.5550 C   0  0  0  0  0  0  0  0  0  0  0  0
  187.3610  178.3210  140.3200 N   0  0  0  0  0  0  0  0  0  0  0  0
  188.4200  178.2700  138.4170 C   0  0  0  0  0  3  0  0  0  0  0  0
  191.4230  177.0920  142.9630 N   0  0  0  0  0  2  0  0  0  0  0  0
  189.2540  177.7430  139.3870 C   0  0  0  0  0  0  0  0  0  0  0  0
  187.2660  178.6270  139.0330 N   0  0  0  0  0  0  0  0  0  0  0  0
  190.6300  177.1540  141.7670 C   0  0  0  0  0  0  0  0  0  0  0  0
  190.6160  177.1540  139.2870 C   0  0  0  0  0  2  0  0  0  0  0  0
  191.8940  176.4540  145.3520 C   0  0  0  0  0  2  0  0  0  0  0  0
  191.9910  175.6280  147.7190 C   0  0  0  0  0  1  0  0  0  0  0  0
  189.8750  177.7410  144.7120 C   0  0  0  0  0  3  0  0  0  0  0  0
  191.2950  176.3720  146.6870 N   0  0  0  0  0  0  0  0  0  0  0  0
  189.4310  177.7630  146.1130 C   0  0  0  0  0  3  0  0  0  0  0  0
  190.1150  177.1040  147.0430 C   0  0  0  0  0  3  0  0  0  0  0  0
  190.9970  177.1140  144.3350 C   0  0  0  0  0  0  0  0  0  0  0  0
  184.0160  178.4730  142.6670 O   0  0  0  0  0  0  0  0  0  0  0  0
  183.0350  178.7840  143.6060 C   0  0  0  0  0  3  0  0  0  0  0  0
  183.3460  179.0030  144.8790 C   0  0  0  0  0  3  0  0  0  0  0  0
  184.7520  178.9230  145.3650 C   0  0  0  0  0  2  0  0  0  0  0  0
  184.7580  178.6230  146.7300 O   0  0  0  0  0  0  0  0  0  0  0  0
  186.1030  178.6290  147.0890 C   0  0  0  0  0  1  0  0  0  0  0  0
  1  2  1  6  0  0  0
  1 36  1  0  0  0  0
  3 11  1  0  0  0  0
  3  2  1  1  0  0  0
  4  6  2  0  0  0  0
  4  7  1  0  0  0  0
  6  8  1  0  0  0  0
  7  9  2  0  0  0  0
  8  5  2  0  0  0  0
  9  5  1  0  0  0  0
  9  3  1  0  0  0  0
 10 11  1  0  0  0  0
 12 13  1  0  0  0  0
 12 11  1  0  0  0  0
 14 15  1  0  0  0  0
 14 16  1  0  0  0  0
 15 16  1  0  0  0  0
 16 13  1  0  0  0  0
 17  1  1  0  0  0  0
 17 18  1  0  0  0  0
 19 27  2  0  0  0  0
 21 20  1  0  0  0  0
 22 21  1  0  0  0  0
 22 18  1  0  0  0  0
 23 26  2  0  0  0  0
 23 25  1  0  0  0  0
 24 35  1  0  0  0  0
 25 21  2  0  0  0  0
 26 22  1  0  0  0  0
 27 20  1  0  0  0  0
 27 24  1  0  0  0  0
 28 25  1  0  0  0  0
 28 19  1  0  0  0  0
 29 32  1  0  0  0  0
 31 33  1  0  0  0  0
 32 34  1  0  0  0  0
 32 30  1  0  0  0  0
 33 34  2  0  0  0  0
 35 31  2  0  0  0  0
 35 29  1  0  0  0  0
 36 37  1  0  0  0  0
 37 38  2  0  0  0  0
 38 39  1  0  0  0  0
 39 40  1  0  0  0  0
 40 41  1  0  0  0  0
M  END
>  <MODEL>
7

>  <REMARK>
 VINA RESULT:      -7.1      2.397      8.211
  Name = 
  15 active torsions:
  status: ('A' for Active; 'I' for Inactive)
    1  A    between atoms: C_1  and  O_29
    2  A    between atoms: C_1  and  C_38
    3  A    between atoms: C_4  and  N_20
    4  A    between atoms: C_4  and  C_22
    5  A    between atoms: C_6  and  O_24
    6  A    between atoms: C_7  and  C_14
    7  A    between atoms: C_7  and  C_22
    8  A    between atoms: C_7  and  O_24
    9  A    between atoms: C_8  and  N_18
   10  A    between atoms: C_8  and  C_21
   11  A    between atoms: C_14  and  C_19
   12  A    between atoms: N_18  and  C_19
   13  A    between atoms: C_19  and  C_37
   14  A    between atoms: C_21  and  C_27
   15  A    between atoms: N_26  and  C_41
                            x       y       z     vdW  Elec       q    Type
                         _______ _______ _______ _____ _____    ______ ____

>  <TORSDO>
F 15

$$$$
=
 OpenBabel10222420333D

 41 45  0  0  1  0  0  0  0  0999 V2000
  187.7740  177.5260  141.8870 C   0  0  2  0  0  3  0  0  0  0  0  0
  188.1520  176.9700  143.2520 C   0  0  0  0  0  2  0  0  0  0  0  0
  188.5030  178.0980  144.2170 C   0  0  1  0  0  3  0  0  0  0  0  0
  187.3440  178.0050  147.8630 C   0  0  0  0  0  3  0  0  0  0  0  0
  186.2430  178.2420  145.3030 C   0  0  0  0  0  3  0  0  0  0  0  0
  185.9630  178.1390  147.7070 C   0  0  0  0  0  3  0  0  0  0  0  0
  188.1780  177.9900  146.7390 C   0  0  0  0  0  3  0  0  0  0  0  0
  185.4120  178.2580  146.4280 C   0  0  0  0  0  3  0  0  0  0  0  0
  187.6310  178.1050  145.4510 C   0  0  0  0  0  0  0  0  0  0  0  0
  190.5770  178.9280  143.6260 O   0  0  0  0  0  1  0  0  0  0  0  0
  189.9480  178.1010  144.4990 N   0  0  0  0  0  0  0  0  0  0  0  0
  190.4880  176.7610  144.3010 C   0  0  0  0  0  2  0  0  0  0  0  0
  191.6760  176.5270  145.2230 C   0  0  0  0  0  2  0  0  0  0  0  0
  192.4340  175.6200  147.3940 C   0  0  0  0  0  2  0  0  0  0  0  0
  191.4660  176.7510  147.6670 C   0  0  0  0  0  2  0  0  0  0  0  0
  191.2350  175.8250  146.4940 C   0  0  0  0  0  3  0  0  0  0  0  0
  189.0130  178.0160  141.1460 C   0  0  0  0  0  2  0  0  0  0  0  0
  188.7450  178.2180  139.6620 C   0  0  0  0  0  2  0  0  0  0  0  0
  187.9940  174.3020  136.3460 N   0  0  0  0  0  0  0  0  0  0  0  0
  187.4460  176.4640  137.4030 C   0  0  0  0  0  2  0  0  0  0  0  0
  188.8240  176.3800  137.9710 C   0  0  0  0  0  0  0  0  0  0  0  0
  189.3920  177.1660  138.8960 N   0  0  0  0  0  0  0  0  0  0  0  0
  190.9020  175.7300  138.2600 C   0  0  0  0  0  3  0  0  0  0  0  0
  185.7000  174.8180  136.4780 N   0  0  0  0  0  2  0  0  0  0  0  0
  189.7410  175.4740  137.5530 C   0  0  0  0  0  0  0  0  0  0  0  0
  190.6450  176.7730  139.0880 N   0  0  0  0  0  0  0  0  0  0  0  0
  187.0740  175.1580  136.7200 C   0  0  0  0  0  0  0  0  0  0  0  0
  189.4490  174.4830  136.4820 C   0  0  0  0  0  2  0  0  0  0  0  0
  183.6330  175.0330  137.8990 C   0  0  0  0  0  2  0  0  0  0  0  0
  181.3660  175.2540  138.9510 C   0  0  0  0  0  1  0  0  0  0  0  0
  184.2200  176.7150  136.1750 C   0  0  0  0  0  3  0  0  0  0  0  0
  182.3650  175.7580  138.0290 N   0  0  0  0  0  0  0  0  0  0  0  0
  183.0060  177.4800  136.4920 C   0  0  0  0  0  3  0  0  0  0  0  0
  182.1290  177.0100  137.3730 C   0  0  0  0  0  3  0  0  0  0  0  0
  184.5130  175.5630  136.7950 C   0  0  0  0  0  0  0  0  0  0  0  0
  186.8150  178.5610  142.0350 O   0  0  0  0  0  0  0  0  0  0  0  0
  185.4590  178.2690  142.1630 C   0  0  0  0  0  3  0  0  0  0  0  0
  184.6480  178.2900  141.1100 C   0  0  0  0  0  3  0  0  0  0  0  0
  185.1450  178.6320  139.7480 C   0  0  0  0  0  2  0  0  0  0  0  0
  184.6010  179.8550  139.3470 O   0  0  0  0  0  0  0  0  0  0  0  0
  183.2240  179.6920  139.4770 C   0  0  0  0  0  1  0  0  0  0  0  0
  1 17  1  1  0  0  0
  1 36  1  0  0  0  0
  1  2  1  0  0  0  0
  3  2  1  1  0  0  0
  3 11  1  0  0  0  0
  3  9  1  0  0  0  0
  5  9  2  0  0  0  0
  5  8  1  0  0  0  0
  6  4  1  0  0  0  0
  7  4  2  0  0  0  0
  8  6  2  0  0  0  0
  9  7  1  0  0  0  0
 10 11  1  0  0  0  0
 12 11  1  0  0  0  0
 12 13  1  0  0  0  0
 13 16  1  0  0  0  0
 14 15  1  0  0  0  0
 16 14  1  0  0  0  0
 16 15  1  0  0  0  0
 18 17  1  0  0  0  0
 19 28  1  0  0  0  0
 19 27  2  0  0  0  0
 20 21  1  0  0  0  0
 21 22  1  0  0  0  0
 22 26  1  0  0  0  0
 22 18  1  0  0  0  0
 23 26  2  0  0  0  0
 24 27  1  0  0  0  0
 24 35  1  0  0  0  0
 25 21  2  0  0  0  0
 25 23  1  0  0  0  0
 27 20  1  0  0  0  0
 28 25  1  0  0  0  0
 29 32  1  0  0  0  0
 31 33  1  0  0  0  0
 31 35  2  0  0  0  0
 32 30  1  0  0  0  0
 33 34  2  0  0  0  0
 34 32  1  0  0  0  0
 35 29  1  0  0  0  0
 36 37  1  0  0  0  0
 38 37  2  0  0  0  0
 39 38  1  0  0  0  0
 40 41  1  0  0  0  0
 40 39  1  0  0  0  0
M  END
>  <MODEL>
8

>  <REMARK>
 VINA RESULT:      -7.0      1.975      4.603
  Name = 
  15 active torsions:
  status: ('A' for Active; 'I' for Inactive)
    1  A    between atoms: C_1  and  O_29
    2  A    between atoms: C_1  and  C_38
    3  A    between atoms: C_4  and  N_20
    4  A    between atoms: C_4  and  C_22
    5  A    between atoms: C_6  and  O_24
    6  A    between atoms: C_7  and  C_14
    7  A    between atoms: C_7  and  C_22
    8  A    between atoms: C_7  and  O_24
    9  A    between atoms: C_8  and  N_18
   10  A    between atoms: C_8  and  C_21
   11  A    between atoms: C_14  and  C_19
   12  A    between atoms: N_18  and  C_19
   13  A    between atoms: C_19  and  C_37
   14  A    between atoms: C_21  and  C_27
   15  A    between atoms: N_26  and  C_41
                            x       y       z     vdW  Elec       q    Type
                         _______ _______ _______ _____ _____    ______ ____

>  <TORSDO>
F 15

$$$$
=
 OpenBabel10222420333D

 41 45  0  0  1  0  0  0  0  0999 V2000
  183.3930  178.4020  138.1580 C   0  0  2  0  0  3  0  0  0  0  0  0
  184.5520  177.4170  138.1830 C   0  0  0  0  0  2  0  0  0  0  0  0
  185.6240  177.8180  137.1740 C   0  0  1  0  0  3  0  0  0  0  0  0
  188.4350  178.1610  139.7480 C   0  0  0  0  0  3  0  0  0  0  0  0
  188.1130  178.0810  136.9710 C   0  0  0  0  0  3  0  0  0  0  0  0
  189.5500  178.2650  138.9130 C   0  0  0  0  0  3  0  0  0  0  0  0
  187.1570  178.0160  139.1950 C   0  0  0  0  0  3  0  0  0  0  0  0
  189.3900  178.2240  137.5250 C   0  0  0  0  0  3  0  0  0  0  0  0
  186.9890  177.9780  137.8020 C   0  0  0  0  0  0  0  0  0  0  0  0
  184.6970  177.3740  135.1050 O   0  0  0  0  0  1  0  0  0  0  0  0
  185.5970  176.9170  136.0110 N   0  0  0  0  0  0  0  0  0  0  0  0
  185.1620  175.5900  136.4300 C   0  0  0  0  0  2  0  0  0  0  0  0
  186.2430  174.5600  136.1360 C   0  0  0  0  0  2  0  0  0  0  0  0
  184.8010  173.2220  137.6320 C   0  0  0  0  0  2  0  0  0  0  0  0
  185.4390  172.2850  136.6290 C   0  0  0  0  0  2  0  0  0  0  0  0
  186.2250  173.4550  137.1760 C   0  0  0  0  0  3  0  0  0  0  0  0
  183.2250  179.0690  139.5190 C   0  0  0  0  0  2  0  0  0  0  0  0
  183.9600  178.3140  140.6160 C   0  0  0  0  0  2  0  0  0  0  0  0
  184.7620  178.4730  145.7380 N   0  0  0  0  0  0  0  0  0  0  0  0
  185.4510  178.5680  143.3700 C   0  0  0  0  0  2  0  0  0  0  0  0
  183.9880  178.6680  143.0900 C   0  0  0  0  0  0  0  0  0  0  0  0
  183.3610  178.6130  141.9070 N   0  0  0  0  0  0  0  0  0  0  0  0
  181.8380  178.9740  143.4220 C   0  0  0  0  0  3  0  0  0  0  0  0
  186.9350  177.6920  145.2790 N   0  0  0  0  0  2  0  0  0  0  0  0
  183.0650  178.8930  144.0570 C   0  0  0  0  0  0  0  0  0  0  0  0
  182.0590  178.7840  142.0980 N   0  0  0  0  0  0  0  0  0  0  0  0
  185.6890  178.2540  144.8380 C   0  0  0  0  0  0  0  0  0  0  0  0
  183.4370  179.0650  145.4870 C   0  0  0  0  0  2  0  0  0  0  0  0
  189.3750  178.0930  144.8050 C   0  0  0  0  0  2  0  0  0  0  0  0
  191.6820  178.5640  143.9400 C   0  0  0  0  0  1  0  0  0  0  0  0
  188.0700  176.3700  143.5930 C   0  0  0  0  0  3  0  0  0  0  0  0
  190.4520  177.8010  143.8540 N   0  0  0  0  0  0  0  0  0  0  0  0
  189.2550  176.0170  142.7970 C   0  0  0  0  0  3  0  0  0  0  0  0
  190.3810  176.7100  142.9290 C   0  0  0  0  0  3  0  0  0  0  0  0
  188.0980  177.3490  144.5070 C   0  0  0  0  0  0  0  0  0  0  0  0
  182.2030  177.7390  137.7560 O   0  0  0  0  0  0  0  0  0  0  0  0
  181.0020  177.9520  138.4280 C   0  0  0  0  0  3  0  0  0  0  0  0
  180.4380  176.9910  139.1520 C   0  0  0  0  0  3  0  0  0  0  0  0
  181.0560  175.6420  139.2750 C   0  0  0  0  0  2  0  0  0  0  0  0
  180.3430  174.8850  140.2090 O   0  0  0  0  0  0  0  0  0  0  0  0
  179.0050  175.0650  139.8640 C   0  0  0  0  0  1  0  0  0  0  0  0
  1  2  1  1  0  0  0
  1 17  1  0  0  0  0
  3  9  1  0  0  0  0
  3  2  1  1  0  0  0
  5  8  2  0  0  0  0
  5  9  1  0  0  0  0
  6  4  2  0  0  0  0
  7  4  1  0  0  0  0
  8  6  1  0  0  0  0
  9  7  2  0  0  0  0
 10 11  1  0  0  0  0
 11 12  1  0  0  0  0
 11  3  1  0  0  0  0
 13 12  1  0  0  0  0
 13 16  1  0  0  0  0
 15 16  1  0  0  0  0
 15 14  1  0  0  0  0
 16 14  1  0  0  0  0
 17 18  1  0  0  0  0
 18 22  1  0  0  0  0
 20 27  1  0  0  0  0
 21 20  1  0  0  0  0
 21 25  2  0  0  0  0
 22 26  1  0  0  0  0
 22 21  1  0  0  0  0
 23 25  1  0  0  0  0
 25 28  1  0  0  0  0
 26 23  2  0  0  0  0
 27 24  1  0  0  0  0
 27 19  2  0  0  0  0
 28 19  1  0  0  0  0
 31 35  2  0  0  0  0
 32 30  1  0  0  0  0
 32 29  1  0  0  0  0
 33 34  2  0  0  0  0
 33 31  1  0  0  0  0
 34 32  1  0  0  0  0
 35 29  1  0  0  0  0
 35 24  1  0  0  0  0
 36  1  1  0  0  0  0
 36 37  1  0  0  0  0
 37 38  2  0  0  0  0
 38 39  1  0  0  0  0
 39 40  1  0  0  0  0
 41 40  1  0  0  0  0
M  END
>  <MODEL>
9

>  <REMARK>
 VINA RESULT:      -7.0      3.565      9.482
  Name = 
  15 active torsions:
  status: ('A' for Active; 'I' for Inactive)
    1  A    between atoms: C_1  and  O_29
    2  A    between atoms: C_1  and  C_38
    3  A    between atoms: C_4  and  N_20
    4  A    between atoms: C_4  and  C_22
    5  A    between atoms: C_6  and  O_24
    6  A    between atoms: C_7  and  C_14
    7  A    between atoms: C_7  and  C_22
    8  A    between atoms: C_7  and  O_24
    9  A    between atoms: C_8  and  N_18
   10  A    between atoms: C_8  and  C_21
   11  A    between atoms: C_14  and  C_19
   12  A    between atoms: N_18  and  C_19
   13  A    between atoms: C_19  and  C_37
   14  A    between atoms: C_21  and  C_27
   15  A    between atoms: N_26  and  C_41
                            x       y       z     vdW  Elec       q    Type
                         _______ _______ _______ _____ _____    ______ ____

>  <TORSDO>
F 15

$$$$
