=
 OpenBabel10222417103D

 51 54  0  0  1  0  0  0  0  0999 V2000
  185.9810  179.1760  146.6120 C   0  0  0  0  0  0  0  0  0  0  0  0
  187.5770  178.1800  136.3960 C   0  0  0  0  0  1  0  0  0  0  0  0
  184.3070  177.7540  142.3600 C   0  0  0  0  0  2  0  0  0  0  0  0
  184.1300  177.7580  140.8410 C   0  0  1  0  0  3  0  0  0  0  0  0
  186.9930  178.1710  146.6090 N   0  0  0  0  0  0  0  0  0  0  0  0
  182.7230  178.2070  140.4610 C   0  0  0  0  0  2  0  0  0  0  0  0
  187.9950  177.8620  140.1800 C   0  0  0  0  0  3  0  0  0  0  0  0
  185.7170  178.7710  144.1470 C   0  0  0  0  0  0  0  0  0  0  0  0
  190.0470  176.7390  140.7630 C   0  0  0  0  0  3  0  0  0  0  0  0
  188.2550  177.6950  138.8000 C   0  0  0  0  0  0  0  0  0  0  0  0
  185.0570  178.3300  138.8340 C   0  0  2  0  0  3  0  0  0  0  0  0
  189.6690  177.5220  143.5270 C   0  0  0  0  0  1  0  0  0  0  0  0
  187.3050  178.2060  137.8240 N   0  0  0  0  0  0  0  0  0  0  0  0
  186.7480  177.9000  144.2170 C   0  0  0  0  0  0  0  0  0  0  0  0
  187.3600  177.5800  145.5160 C   0  0  0  0  0  3  0  0  0  0  0  0
  187.2290  177.1310  143.0180 C   0  0  0  0  0  2  0  0  0  0  0  0
  185.2660  179.5540  145.3460 C   0  0  0  0  0  2  0  0  0  0  0  0
  185.0840  178.5920  140.2140 O   0  0  0  0  0  0  0  0  0  0  0  0
  184.9650  179.0360  142.8710 C   0  0  0  0  0  2  0  0  0  0  0  0
  185.6850  179.7540  147.6900 O   0  0  0  0  0  0  0  0  0  0  0  0
  188.5640  177.5230  142.5650 N   0  0  0  0  0  0  0  0  0  0  0  0
  190.3280  176.5530  139.4140 C   0  0  0  0  0  3  0  0  0  0  0  0
  182.5850  178.0490  138.9480 C   0  0  2  0  0  3  0  0  0  0  0  0
  186.2080  179.0980  138.1970 C   0  0  0  0  0  2  0  0  0  0  0  0
  189.4480  177.0130  138.4190 C   0  0  0  0  0  0  0  0  0  0  0  0
  183.7210  178.8000  138.2440 C   0  0  0  0  0  2  0  0  0  0  0  0
  188.8740  177.3900  141.1660 C   0  0  0  0  0  0  0  0  0  0  0  0
  181.1800  178.4390  138.4590 C   0  0  2  0  0  3  0  0  0  0  0  0
  181.1950  178.5080  137.0620 O   0  0  0  0  0  1  0  0  0  0  0  0
  180.7630  179.7970  139.0290 C   0  0  2  0  0  3  0  0  0  0  0  0
  179.6710  179.6550  139.8900 O   0  0  0  0  0  1  0  0  0  0  0  0
  180.3950  180.7880  137.9340 C   0  0  0  0  0  2  0  0  0  0  0  0
  182.4050  182.0170  138.5600 N   0  0  0  0  0  1  0  0  0  0  0  0
  180.9870  182.1470  138.2760 C   0  0  1  0  0  3  0  0  0  0  0  0
  181.6310  184.2170  137.2540 O   0  0  0  0  0  1  0  0  0  0  0  0
  180.9040  182.5350  135.8990 O   0  0  0  0  0  1  0  0  0  0  0  0
  180.7440  183.1450  137.1440 C   0  0  0  0  0  3  0  0  0  0  0  0
  189.7610  176.7930  137.0740 O   0  0  0  0  0  0  0  0  0  0  0  0
  190.8380  176.0060  136.6620 C   0  0  0  0  0  3  0  0  0  0  0  0
  191.8340  176.5400  136.0390 N   0  0  0  0  0  0  0  0  0  0  0  0
  192.9370  175.6950  135.5940 C   0  0  0  0  0  2  0  0  0  0  0  0
  194.2640  176.1330  136.2120 C   0  0  2  0  0  0  0  0  0  0  0  0
  193.9810  177.0830  137.2120 O   0  0  0  0  0  1  0  0  0  0  0  0
  195.0800  176.7880  135.0780 C   0  0  0  0  0  3  0  0  0  0  0  0
  196.2370  176.0500  134.8010 O   0  0  0  0  0  1  0  0  0  0  0  0
  195.4260  178.1080  135.3700 O   0  0  0  0  0  1  0  0  0  0  0  0
  194.9360  174.9720  136.7110 O   0  0  0  0  0  0  0  0  0  0  0  0
  194.4080  174.4510  137.9220 C   0  0  0  0  0  0  0  0  0  0  0  0
  193.6490  175.4310  138.5220 F   0  0  0  0  0  0  0  0  0  0  0  0
  195.4210  174.1110  138.8030 F   0  0  0  0  0  0  0  0  0  0  0  0
  193.5880  173.3540  137.7060 F   0  0  0  0  0  0  0  0  0  0  0  0
  1 20  2  0  0  0  0
  2 13  1  0  0  0  0
  3 19  1  0  0  0  0
  4  6  1  1  0  0  0
  4  3  1  0  0  0  0
  5  1  1  0  0  0  0
  7 27  1  0  0  0  0
  8 14  2  0  0  0  0
  8 17  1  0  0  0  0
  9 27  2  0  0  0  0
 10  7  2  0  0  0  0
 11 24  1  6  0  0  0
 11 18  1  0  0  0  0
 13 24  1  0  0  0  0
 13 10  1  0  0  0  0
 14 15  1  0  0  0  0
 15  5  2  0  0  0  0
 16 14  1  0  0  0  0
 17  1  1  0  0  0  0
 18  4  1  0  0  0  0
 19  8  1  0  0  0  0
 21 16  1  0  0  0  0
 21 12  1  0  0  0  0
 22  9  1  0  0  0  0
 23 28  1  6  0  0  0
 23  6  1  0  0  0  0
 25 10  1  0  0  0  0
 25 22  2  0  0  0  0
 26 11  1  0  0  0  0
 26 23  1  0  0  0  0
 27 21  1  0  0  0  0
 28 29  1  6  0  0  0
 28 30  1  0  0  0  0
 30 31  1  1  0  0  0
 32 34  1  0  0  0  0
 32 30  1  0  0  0  0
 34 33  1  6  0  0  0
 36 37  1  0  0  0  0
 37 35  1  0  0  0  0
 37 34  1  0  0  0  0
 38 25  1  0  0  0  0
 39 38  1  0  0  0  0
 40 39  2  0  0  0  0
 41 40  1  0  0  0  0
 41 42  1  0  0  0  0
 42 47  1  0  0  0  0
 42 43  1  1  0  0  0
 44 46  1  0  0  0  0
 44 42  1  0  0  0  0
 45 44  1  0  0  0  0
 47 48  1  0  0  0  0
 48 49  1  0  0  0  0
 48 50  1  0  0  0  0
 51 48  1  0  0  0  0
M  END
>  <MODEL>
1

>  <REMARK>
 VINA RESULT:      -7.7      0.000      0.000
  Name = 
  12 active torsions:
  status: ('A' for Active; 'I' for Inactive)
    1  A    between atoms: C_4  and  C_18
    2  A    between atoms: C_4  and  C_42
    3  A    between atoms: C_8  and  C_43
    4  A    between atoms: C_15  and  O_35
    5  A    between atoms: C_18  and  C_19
    6  A    between atoms: C_19  and  CA_23
    7  A    between atoms: C_22  and  CA_23
    8  A    between atoms: C_27  and  C_43
    9  A    between atoms: C_27  and  N_49
   10  A    between atoms: C_28  and  O_47
   11  A    between atoms: O_35  and  C_43
   12  A    between atoms: C_46  and  O_47
                            x       y       z     vdW  Elec       q    Type
                         _______ _______ _______ _____ _____    ______ ____

>  <TORSDO>
F 12

$$$$
=
 OpenBabel10222417103D

 51 54  0  0  1  0  0  0  0  0999 V2000
  181.1330  178.3770  139.4100 C   0  0  0  0  0  0  0  0  0  0  0  0
  190.8830  176.3540  142.3700 C   0  0  0  0  0  1  0  0  0  0  0  0
  184.6240  179.0400  142.6160 C   0  0  0  0  0  2  0  0  0  0  0  0
  185.8640  178.6950  143.4420 C   0  0  1  0  0  3  0  0  0  0  0  0
  181.8560  179.0770  138.3980 N   0  0  0  0  0  0  0  0  0  0  0  0
  185.5020  178.5160  144.9120 C   0  0  0  0  0  2  0  0  0  0  0  0
  187.8860  177.5050  140.2990 C   0  0  0  0  0  3  0  0  0  0  0  0
  183.2900  178.1990  140.6850 C   0  0  0  0  0  0  0  0  0  0  0  0
  188.5430  178.2140  138.0900 C   0  0  0  0  0  3  0  0  0  0  0  0
  189.2300  177.2520  140.6560 C   0  0  0  0  0  0  0  0  0  0  0  0
  187.7620  177.4320  143.5610 C   0  0  2  0  0  3  0  0  0  0  0  0
  185.7570  178.2670  137.2970 C   0  0  0  0  0  1  0  0  0  0  0  0
  189.5380  176.7540  141.9880 N   0  0  0  0  0  0  0  0  0  0  0  0
  183.9130  178.7860  139.6390 C   0  0  0  0  0  0  0  0  0  0  0  0
  183.1350  179.2670  138.4870 C   0  0  0  0  0  3  0  0  0  0  0  0
  185.3870  179.0900  139.6530 C   0  0  0  0  0  2  0  0  0  0  0  0
  181.8250  177.8750  140.6450 C   0  0  0  0  0  2  0  0  0  0  0  0
  186.4960  177.5280  142.9590 O   0  0  0  0  0  0  0  0  0  0  0  0
  184.0130  177.8090  141.9450 C   0  0  0  0  0  2  0  0  0  0  0  0
  179.8990  178.1780  139.2630 O   0  0  0  0  0  0  0  0  0  0  0  0
  186.1610  178.2890  138.7050 N   0  0  0  0  0  0  0  0  0  0  0  0
  189.8750  177.9810  138.4120 C   0  0  0  0  0  3  0  0  0  0  0  0
  186.8060  178.3160  145.6840 C   0  0  2  0  0  3  0  0  0  0  0  0
  188.5000  176.2750  142.8990 C   0  0  0  0  0  2  0  0  0  0  0  0
  190.2430  177.5090  139.6840 C   0  0  0  0  0  0  0  0  0  0  0  0
  187.6020  177.1620  145.0620 C   0  0  0  0  0  2  0  0  0  0  0  0
  187.5300  177.9860  139.0300 C   0  0  0  0  0  0  0  0  0  0  0  0
  186.5580  178.1640  147.1940 C   0  0  2  0  0  3  0  0  0  0  0  0
  186.1310  179.3950  147.7030 O   0  0  0  0  0  1  0  0  0  0  0  0
  187.8370  177.7330  147.9150 C   0  0  2  0  0  3  0  0  0  0  0  0
  187.8630  178.2400  149.2160 O   0  0  0  0  0  1  0  0  0  0  0  0
  189.0890  178.1990  147.1840 C   0  0  0  0  0  2  0  0  0  0  0  0
  189.7240  175.8970  147.6710 N   0  0  0  0  0  1  0  0  0  0  0  0
  190.2310  177.2470  147.5020 C   0  0  1  0  0  3  0  0  0  0  0  0
  191.7080  176.0050  146.0800 O   0  0  0  0  0  1  0  0  0  0  0  0
  190.8150  177.9380  145.2680 O   0  0  0  0  0  1  0  0  0  0  0  0
  191.3000  177.2980  146.4100 C   0  0  0  0  0  3  0  0  0  0  0  0
  191.5950  177.3010  139.9730 O   0  0  0  0  0  0  0  0  0  0  0  0
  192.5640  177.1130  138.9850 C   0  0  0  0  0  3  0  0  0  0  0  0
  192.5030  176.0900  138.2000 N   0  0  0  0  0  0  0  0  0  0  0  0
  193.5390  175.8970  137.1920 C   0  0  0  0  0  2  0  0  0  0  0  0
  193.9030  174.4210  137.0350 C   0  0  2  0  0  0  0  0  0  0  0  0
  194.9080  174.3280  136.0540 O   0  0  0  0  0  1  0  0  0  0  0  0
  192.6250  173.7040  136.5520 C   0  0  0  0  0  3  0  0  0  0  0  0
  192.8660  172.3430  136.3310 O   0  0  0  0  0  1  0  0  0  0  0  0
  192.1020  174.2810  135.3930 O   0  0  0  0  0  1  0  0  0  0  0  0
  194.3110  173.9190  138.3110 O   0  0  0  0  0  0  0  0  0  0  0  0
  195.7140  173.9200  138.5330 C   0  0  0  0  0  0  0  0  0  0  0  0
  196.2810  174.8760  137.7200 F   0  0  0  0  0  0  0  0  0  0  0  0
  196.2750  172.7000  138.1940 F   0  0  0  0  0  0  0  0  0  0  0  0
  196.0360  174.2340  139.8440 F   0  0  0  0  0  0  0  0  0  0  0  0
  1 17  1  0  0  0  0
  4  3  1  6  0  0  0
  4  6  1  0  0  0  0
  5 15  2  0  0  0  0
  5  1  1  0  0  0  0
  6 23  1  0  0  0  0
  7 10  1  0  0  0  0
  8 19  1  0  0  0  0
  9 22  2  0  0  0  0
  9 27  1  0  0  0  0
 10 13  1  0  0  0  0
 11 24  1  6  0  0  0
 11 26  1  0  0  0  0
 12 21  1  0  0  0  0
 13  2  1  0  0  0  0
 13 24  1  0  0  0  0
 14 16  1  0  0  0  0
 14  8  2  0  0  0  0
 15 14  1  0  0  0  0
 17  8  1  0  0  0  0
 18  4  1  0  0  0  0
 18 11  1  0  0  0  0
 19  3  1  0  0  0  0
 20  1  2  0  0  0  0
 21 27  1  0  0  0  0
 21 16  1  0  0  0  0
 22 25  1  0  0  0  0
 23 28  1  1  0  0  0
 25 38  1  0  0  0  0
 25 10  2  0  0  0  0
 26 23  1  0  0  0  0
 27  7  2  0  0  0  0
 28 29  1  1  0  0  0
 28 30  1  0  0  0  0
 30 31  1  1  0  0  0
 32 34  1  0  0  0  0
 32 30  1  0  0  0  0
 34 33  1  6  0  0  0
 35 37  1  0  0  0  0
 36 37  1  0  0  0  0
 37 34  1  0  0  0  0
 39 38  1  0  0  0  0
 40 39  2  0  0  0  0
 41 40  1  0  0  0  0
 42 43  1  6  0  0  0
 42 41  1  0  0  0  0
 42 47  1  0  0  0  0
 44 42  1  0  0  0  0
 45 44  1  0  0  0  0
 46 44  1  0  0  0  0
 47 48  1  0  0  0  0
 48 51  1  0  0  0  0
 49 48  1  0  0  0  0
 50 48  1  0  0  0  0
M  END
>  <MODEL>
2

>  <REMARK>
 VINA RESULT:      -7.7      2.349      7.377
  Name = 
  12 active torsions:
  status: ('A' for Active; 'I' for Inactive)
    1  A    between atoms: C_4  and  C_18
    2  A    between atoms: C_4  and  C_42
    3  A    between atoms: C_8  and  C_43
    4  A    between atoms: C_15  and  O_35
    5  A    between atoms: C_18  and  C_19
    6  A    between atoms: C_19  and  CA_23
    7  A    between atoms: C_22  and  CA_23
    8  A    between atoms: C_27  and  C_43
    9  A    between atoms: C_27  and  N_49
   10  A    between atoms: C_28  and  O_47
   11  A    between atoms: O_35  and  C_43
   12  A    between atoms: C_46  and  O_47
                            x       y       z     vdW  Elec       q    Type
                         _______ _______ _______ _____ _____    ______ ____

>  <TORSDO>
F 12

$$$$
=
 OpenBabel10222417103D

 51 54  0  0  1  0  0  0  0  0999 V2000
  191.3560  176.0780  146.9040 C   0  0  0  0  0  0  0  0  0  0  0  0
  187.4140  177.3140  137.3720 C   0  0  0  0  0  1  0  0  0  0  0  0
  192.0390  177.4700  142.3760 C   0  0  0  0  0  2  0  0  0  0  0  0
  191.8450  177.4790  140.8590 C   0  0  1  0  0  3  0  0  0  0  0  0
  190.4310  177.1370  147.1460 N   0  0  0  0  0  0  0  0  0  0  0  0
  193.0920  176.9590  140.1520 C   0  0  0  0  0  2  0  0  0  0  0  0
  187.9350  177.5970  141.1470 C   0  0  0  0  0  3  0  0  0  0  0  0
  191.0430  176.5050  144.4480 C   0  0  0  0  0  0  0  0  0  0  0  0
  186.1500  178.8220  142.2080 C   0  0  0  0  0  3  0  0  0  0  0  0
  187.3620  177.7980  139.8700 C   0  0  0  0  0  0  0  0  0  0  0  0
  190.4330  176.9890  139.1330 C   0  0  2  0  0  3  0  0  0  0  0  0
  187.1350  177.9780  144.7980 C   0  0  0  0  0  1  0  0  0  0  0  0
  188.0190  177.2500  138.6930 N   0  0  0  0  0  0  0  0  0  0  0  0
  190.1100  177.4290  144.7660 C   0  0  0  0  0  0  0  0  0  0  0  0
  189.8460  177.7640  146.1740 C   0  0  0  0  0  3  0  0  0  0  0  0
  189.3990  178.2420  143.7180 C   0  0  0  0  0  2  0  0  0  0  0  0
  191.7230  175.6810  145.5030 C   0  0  0  0  0  2  0  0  0  0  0  0
  190.7230  176.7080  140.4790 O   0  0  0  0  0  0  0  0  0  0  0  0
  191.4500  176.2180  143.0290 C   0  0  0  0  0  2  0  0  0  0  0  0
  191.8680  175.4690  147.8790 O   0  0  0  0  0  0  0  0  0  0  0  0
  187.9750  177.9310  143.5990 N   0  0  0  0  0  0  0  0  0  0  0  0
  185.5650  179.0430  140.9660 C   0  0  0  0  0  3  0  0  0  0  0  0
  192.8720  177.1320  138.6500 C   0  0  2  0  0  3  0  0  0  0  0  0
  189.1210  176.2950  138.7910 C   0  0  0  0  0  2  0  0  0  0  0  0
  186.1530  178.5500  139.7880 C   0  0  0  0  0  0  0  0  0  0  0  0
  191.5590  176.4550  138.2390 C   0  0  0  0  0  2  0  0  0  0  0  0
  187.3460  178.1020  142.3150 C   0  0  0  0  0  0  0  0  0  0  0  0
  194.0950  176.6730  137.8370 C   0  0  2  0  0  3  0  0  0  0  0  0
  193.8240  176.8600  136.4780 O   0  0  0  0  0  1  0  0  0  0  0  0
  194.3950  175.1940  138.0950 C   0  0  2  0  0  3  0  0  0  0  0  0
  195.4310  175.0570  139.0220 O   0  0  0  0  0  1  0  0  0  0  0  0
  194.7820  174.4590  136.8190 C   0  0  0  0  0  2  0  0  0  0  0  0
  196.2860  172.5490  136.6410 N   0  0  0  0  0  1  0  0  0  0  0  0
  196.2160  173.9680  136.9440 C   0  0  1  0  0  3  0  0  0  0  0  0
  196.4070  175.4020  135.0340 O   0  0  0  0  0  1  0  0  0  0  0  0
  197.8550  175.7250  136.7630 O   0  0  0  0  0  1  0  0  0  0  0  0
  197.1460  174.7690  136.0340 C   0  0  0  0  0  3  0  0  0  0  0  0
  185.5400  178.8070  138.5570 O   0  0  0  0  0  0  0  0  0  0  0  0
  184.2010  178.5080  138.2980 C   0  0  0  0  0  3  0  0  0  0  0  0
  183.8050  177.2800  138.2500 N   0  0  0  0  0  0  0  0  0  0  0  0
  182.4070  176.9890  137.9520 C   0  0  0  0  0  2  0  0  0  0  0  0
  181.5780  176.8470  139.2280 C   0  0  2  0  0  0  0  0  0  0  0  0
  182.4220  176.3390  140.2350 O   0  0  0  0  0  1  0  0  0  0  0  0
  180.4600  175.8320  138.9130 C   0  0  0  0  0  3  0  0  0  0  0  0
  180.1760  175.0360  140.0290 O   0  0  0  0  0  1  0  0  0  0  0  0
  180.7770  175.0170  137.8250 O   0  0  0  0  0  1  0  0  0  0  0  0
  181.0220  178.1260  139.5500 O   0  0  0  0  0  0  0  0  0  0  0  0
  181.1420  178.5030  140.9140 C   0  0  0  0  0  0  0  0  0  0  0  0
  180.3250  177.6860  141.6640 F   0  0  0  0  0  0  0  0  0  0  0  0
  180.7190  179.8070  141.1110 F   0  0  0  0  0  0  0  0  0  0  0  0
  182.4360  178.3550  141.3860 F   0  0  0  0  0  0  0  0  0  0  0  0
  1  5  1  0  0  0  0
  1 20  2  0  0  0  0
  2 13  1  0  0  0  0
  3 19  1  0  0  0  0
  4  6  1  6  0  0  0
  4  3  1  0  0  0  0
  7 27  1  0  0  0  0
  8 14  2  0  0  0  0
  8 17  1  0  0  0  0
  9 27  2  0  0  0  0
 10  7  2  0  0  0  0
 11 26  1  6  0  0  0
 11 18  1  0  0  0  0
 13 24  1  0  0  0  0
 13 10  1  0  0  0  0
 14 15  1  0  0  0  0
 15  5  2  0  0  0  0
 16 14  1  0  0  0  0
 17  1  1  0  0  0  0
 18  4  1  0  0  0  0
 19  8  1  0  0  0  0
 21 16  1  0  0  0  0
 21 12  1  0  0  0  0
 22  9  1  0  0  0  0
 23 28  1  6  0  0  0
 23  6  1  0  0  0  0
 24 11  1  0  0  0  0
 25 10  1  0  0  0  0
 25 22  2  0  0  0  0
 26 23  1  0  0  0  0
 27 21  1  0  0  0  0
 28 29  1  6  0  0  0
 28 30  1  0  0  0  0
 30 31  1  1  0  0  0
 32 34  1  0  0  0  0
 32 30  1  0  0  0  0
 34 33  1  6  0  0  0
 35 37  1  0  0  0  0
 37 36  1  0  0  0  0
 37 34  1  0  0  0  0
 38 25  1  0  0  0  0
 39 38  1  0  0  0  0
 40 39  2  0  0  0  0
 41 40  1  0  0  0  0
 41 42  1  0  0  0  0
 42 47  1  0  0  0  0
 42 43  1  1  0  0  0
 44 42  1  0  0  0  0
 44 45  1  0  0  0  0
 46 44  1  0  0  0  0
 47 48  1  0  0  0  0
 48 50  1  0  0  0  0
 48 51  1  0  0  0  0
 48 49  1  0  0  0  0
M  END
>  <MODEL>
3

>  <REMARK>
 VINA RESULT:      -7.6      4.144     10.679
  Name = 
  12 active torsions:
  status: ('A' for Active; 'I' for Inactive)
    1  A    between atoms: C_4  and  C_18
    2  A    between atoms: C_4  and  C_42
    3  A    between atoms: C_8  and  C_43
    4  A    between atoms: C_15  and  O_35
    5  A    between atoms: C_18  and  C_19
    6  A    between atoms: C_19  and  CA_23
    7  A    between atoms: C_22  and  CA_23
    8  A    between atoms: C_27  and  C_43
    9  A    between atoms: C_27  and  N_49
   10  A    between atoms: C_28  and  O_47
   11  A    between atoms: O_35  and  C_43
   12  A    between atoms: C_46  and  O_47
                            x       y       z     vdW  Elec       q    Type
                         _______ _______ _______ _____ _____    ______ ____

>  <TORSDO>
F 12

$$$$
=
 OpenBabel10222417103D

 51 54  0  0  1  0  0  0  0  0999 V2000
  191.4350  176.0610  146.9600 C   0  0  0  0  0  0  0  0  0  0  0  0
  187.4900  177.2900  137.4290 C   0  0  0  0  0  1  0  0  0  0  0  0
  192.1090  177.4710  142.4370 C   0  0  0  0  0  2  0  0  0  0  0  0
  191.9160  177.4830  140.9200 C   0  0  1  0  0  3  0  0  0  0  0  0
  190.5010  177.1120  147.2050 N   0  0  0  0  0  0  0  0  0  0  0  0
  193.1680  176.9750  140.2120 C   0  0  0  0  0  2  0  0  0  0  0  0
  188.0060  177.5670  141.2040 C   0  0  0  0  0  3  0  0  0  0  0  0
  191.1200  176.4920  144.5050 C   0  0  0  0  0  0  0  0  0  0  0  0
  186.2090  178.7750  142.2680 C   0  0  0  0  0  3  0  0  0  0  0  0
  187.4320  177.7670  139.9280 C   0  0  0  0  0  0  0  0  0  0  0  0
  190.5100  176.9860  139.1910 C   0  0  2  0  0  3  0  0  0  0  0  0
  187.2000  177.9310  144.8570 C   0  0  0  0  0  1  0  0  0  0  0  0
  188.0940  177.2280  138.7500 N   0  0  0  0  0  0  0  0  0  0  0  0
  190.1790  177.4080  144.8250 C   0  0  0  0  0  0  0  0  0  0  0  0
  189.9120  177.7360  146.2340 C   0  0  0  0  0  3  0  0  0  0  0  0
  189.4630  178.2180  143.7790 C   0  0  0  0  0  2  0  0  0  0  0  0
  191.8060  175.6710  145.5580 C   0  0  0  0  0  2  0  0  0  0  0  0
  190.8020  176.7040  140.5360 O   0  0  0  0  0  0  0  0  0  0  0  0
  191.5310  176.2120  143.0850 C   0  0  0  0  0  2  0  0  0  0  0  0
  191.9510  175.4540  147.9330 O   0  0  0  0  0  0  0  0  0  0  0  0
  188.0410  177.8950  143.6580 N   0  0  0  0  0  0  0  0  0  0  0  0
  185.6230  178.9940  141.0260 C   0  0  0  0  0  3  0  0  0  0  0  0
  192.9480  177.1510  138.7100 C   0  0  2  0  0  3  0  0  0  0  0  0
  189.2040  176.2820  138.8460 C   0  0  0  0  0  2  0  0  0  0  0  0
  186.2160  178.5100  139.8470 C   0  0  0  0  0  0  0  0  0  0  0  0
  191.6410  176.4630  138.2960 C   0  0  0  0  0  2  0  0  0  0  0  0
  187.4120  178.0640  142.3740 C   0  0  0  0  0  0  0  0  0  0  0  0
  194.1750  176.7040  137.8970 C   0  0  2  0  0  3  0  0  0  0  0  0
  193.9880  177.0790  136.5620 O   0  0  0  0  0  1  0  0  0  0  0  0
  194.3570  175.1860  137.9760 C   0  0  2  0  0  3  0  0  0  0  0  0
  195.1820  174.8450  139.0500 O   0  0  0  0  0  1  0  0  0  0  0  0
  194.9570  174.6160  136.6980 C   0  0  0  0  0  2  0  0  0  0  0  0
  196.4230  172.6980  136.3630 N   0  0  0  0  0  1  0  0  0  0  0  0
  196.3040  173.9880  137.0200 C   0  0  1  0  0  3  0  0  0  0  0  0
  196.9520  175.9820  135.8600 O   0  0  0  0  0  1  0  0  0  0  0  0
  198.1120  175.4110  137.7360 O   0  0  0  0  0  1  0  0  0  0  0  0
  197.4470  174.9170  136.6130 C   0  0  0  0  0  3  0  0  0  0  0  0
  185.6020  178.7650  138.6170 O   0  0  0  0  0  0  0  0  0  0  0  0
  184.2920  178.3770  138.3260 C   0  0  0  0  0  3  0  0  0  0  0  0
  184.0580  177.2310  137.7800 N   0  0  0  0  0  0  0  0  0  0  0  0
  182.6860  176.8560  137.4610 C   0  0  0  0  0  2  0  0  0  0  0  0
  182.4470  175.3610  137.6740 C   0  0  2  0  0  0  0  0  0  0  0  0
  182.0630  174.8060  136.4390 O   0  0  0  0  0  1  0  0  0  0  0  0
  181.2920  175.2430  138.6890 C   0  0  0  0  0  3  0  0  0  0  0  0
  180.5060  174.1150  138.4260 O   0  0  0  0  0  1  0  0  0  0  0  0
  180.4850  176.3820  138.7060 O   0  0  0  0  0  1  0  0  0  0  0  0
  183.6450  174.7840  138.2050 O   0  0  0  0  0  0  0  0  0  0  0  0
  184.1130  173.6370  137.5100 C   0  0  0  0  0  0  0  0  0  0  0  0
  184.6660  174.0470  136.3170 F   0  0  0  0  0  0  0  0  0  0  0  0
  183.0730  172.7740  137.2120 F   0  0  0  0  0  0  0  0  0  0  0  0
  185.0930  172.9610  138.2200 F   0  0  0  0  0  0  0  0  0  0  0  0
  1  5  1  0  0  0  0
  1 20  2  0  0  0  0
  2 13  1  0  0  0  0
  3 19  1  0  0  0  0
  4  6  1  6  0  0  0
  4  3  1  0  0  0  0
  7 27  1  0  0  0  0
  8 14  2  0  0  0  0
  8 17  1  0  0  0  0
  9 27  2  0  0  0  0
 10  7  2  0  0  0  0
 11 26  1  6  0  0  0
 11 18  1  0  0  0  0
 13 24  1  0  0  0  0
 13 10  1  0  0  0  0
 14 15  1  0  0  0  0
 15  5  2  0  0  0  0
 16 14  1  0  0  0  0
 17  1  1  0  0  0  0
 18  4  1  0  0  0  0
 19  8  1  0  0  0  0
 21 16  1  0  0  0  0
 21 12  1  0  0  0  0
 22  9  1  0  0  0  0
 23 28  1  6  0  0  0
 23  6  1  0  0  0  0
 24 11  1  0  0  0  0
 25 10  1  0  0  0  0
 25 22  2  0  0  0  0
 26 23  1  0  0  0  0
 27 21  1  0  0  0  0
 28 29  1  6  0  0  0
 28 30  1  0  0  0  0
 30 31  1  1  0  0  0
 32 34  1  0  0  0  0
 32 30  1  0  0  0  0
 34 33  1  6  0  0  0
 35 37  1  0  0  0  0
 37 34  1  0  0  0  0
 37 36  1  0  0  0  0
 38 25  1  0  0  0  0
 39 38  1  0  0  0  0
 40 39  2  0  0  0  0
 41 42  1  0  0  0  0
 41 40  1  0  0  0  0
 42 43  1  6  0  0  0
 42 47  1  0  0  0  0
 42 44  1  0  0  0  0
 44 46  1  0  0  0  0
 45 44  1  0  0  0  0
 48 47  1  0  0  0  0
 48 51  1  0  0  0  0
 49 48  1  0  0  0  0
 50 48  1  0  0  0  0
M  END
>  <MODEL>
4

>  <REMARK>
 VINA RESULT:      -7.6      3.697     10.210
  Name = 
  12 active torsions:
  status: ('A' for Active; 'I' for Inactive)
    1  A    between atoms: C_4  and  C_18
    2  A    between atoms: C_4  and  C_42
    3  A    between atoms: C_8  and  C_43
    4  A    between atoms: C_15  and  O_35
    5  A    between atoms: C_18  and  C_19
    6  A    between atoms: C_19  and  CA_23
    7  A    between atoms: C_22  and  CA_23
    8  A    between atoms: C_27  and  C_43
    9  A    between atoms: C_27  and  N_49
   10  A    between atoms: C_28  and  O_47
   11  A    between atoms: O_35  and  C_43
   12  A    between atoms: C_46  and  O_47
                            x       y       z     vdW  Elec       q    Type
                         _______ _______ _______ _____ _____    ______ ____

>  <TORSDO>
F 12

$$$$
=
 OpenBabel10222417103D

 51 54  0  0  1  0  0  0  0  0999 V2000
  186.0230  179.1470  146.7600 C   0  0  0  0  0  0  0  0  0  0  0  0
  187.7700  178.1790  136.5650 C   0  0  0  0  0  1  0  0  0  0  0  0
  184.4060  177.7530  142.4760 C   0  0  0  0  0  2  0  0  0  0  0  0
  184.2530  177.7640  140.9550 C   0  0  1  0  0  3  0  0  0  0  0  0
  187.0290  178.1340  146.7680 N   0  0  0  0  0  0  0  0  0  0  0  0
  182.8550  178.2240  140.5550 C   0  0  0  0  0  2  0  0  0  0  0  0
  188.1270  177.8440  140.3540 C   0  0  0  0  0  3  0  0  0  0  0  0
  185.7950  178.7530  144.2890 C   0  0  0  0  0  0  0  0  0  0  0  0
  190.1630  176.7050  140.9640 C   0  0  0  0  0  3  0  0  0  0  0  0
  188.4070  177.6810  138.9780 C   0  0  0  0  0  0  0  0  0  0  0  0
  185.2140  178.3370  138.9650 C   0  0  2  0  0  3  0  0  0  0  0  0
  189.7470  177.4800  143.7250 C   0  0  0  0  0  1  0  0  0  0  0  0
  187.4760  178.2020  137.9890 N   0  0  0  0  0  0  0  0  0  0  0  0
  186.8190  177.8750  144.3720 C   0  0  0  0  0  0  0  0  0  0  0  0
  187.4090  177.5460  145.6790 C   0  0  0  0  0  3  0  0  0  0  0  0
  187.3130  177.1070  143.1770 C   0  0  0  0  0  2  0  0  0  0  0  0
  185.3310  179.5340  145.4840 C   0  0  0  0  0  2  0  0  0  0  0  0
  185.2210  178.5930  140.3460 O   0  0  0  0  0  0  0  0  0  0  0  0
  185.0650  179.0290  143.0030 C   0  0  0  0  0  2  0  0  0  0  0  0
  185.7150  179.7220  147.8350 O   0  0  0  0  0  0  0  0  0  0  0  0
  188.6580  177.4910  142.7470 N   0  0  0  0  0  0  0  0  0  0  0  0
  190.4630  176.5220  139.6190 C   0  0  0  0  0  3  0  0  0  0  0  0
  182.7380  178.0730  139.0390 C   0  0  2  0  0  3  0  0  0  0  0  0
  186.3790  179.1000  138.3490 C   0  0  0  0  0  2  0  0  0  0  0  0
  189.6020  176.9920  138.6130 C   0  0  0  0  0  0  0  0  0  0  0  0
  183.8910  178.8190  138.3560 C   0  0  0  0  0  2  0  0  0  0  0  0
  188.9880  177.3620  141.3510 C   0  0  0  0  0  0  0  0  0  0  0  0
  181.3430  178.4740  138.5310 C   0  0  2  0  0  3  0  0  0  0  0  0
  181.1920  179.8560  138.6850 O   0  0  0  0  0  1  0  0  0  0  0  0
  180.2480  177.7530  139.3200 C   0  0  2  0  0  3  0  0  0  0  0  0
  179.5480  176.8690  138.4960 O   0  0  0  0  0  1  0  0  0  0  0  0
  179.2580  178.7280  139.9440 C   0  0  0  0  0  2  0  0  0  0  0  0
  179.5690  177.0480  141.6820 N   0  0  0  0  0  1  0  0  0  0  0  0
  179.0980  178.3960  141.4190 C   0  0  1  0  0  3  0  0  0  0  0  0
  178.9310  180.3070  142.8560 O   0  0  0  0  0  1  0  0  0  0  0  0
  180.5580  178.7750  143.2990 O   0  0  0  0  0  1  0  0  0  0  0  0
  179.8380  179.4130  142.2870 C   0  0  0  0  0  3  0  0  0  0  0  0
  189.9330  176.7760  137.2710 O   0  0  0  0  0  0  0  0  0  0  0  0
  190.8360  175.7930  136.8600 C   0  0  0  0  0  3  0  0  0  0  0  0
  192.0370  176.1150  136.5130 N   0  0  0  0  0  0  0  0  0  0  0  0
  192.9560  175.0760  136.0620 C   0  0  0  0  0  2  0  0  0  0  0  0
  194.3280  175.2160  136.7210 C   0  0  2  0  0  0  0  0  0  0  0  0
  194.1630  175.9610  137.9040 O   0  0  0  0  0  1  0  0  0  0  0  0
  195.2150  175.9930  135.7260 C   0  0  0  0  0  3  0  0  0  0  0  0
  196.5720  175.7960  136.0040 O   0  0  0  0  0  1  0  0  0  0  0  0
  194.9300  177.3600  135.7210 O   0  0  0  0  0  1  0  0  0  0  0  0
  194.8550  173.9040  136.9480 O   0  0  0  0  0  0  0  0  0  0  0  0
  195.3970  173.6950  138.2440 C   0  0  0  0  0  0  0  0  0  0  0  0
  196.7710  173.6870  138.1440 F   0  0  0  0  0  0  0  0  0  0  0  0
  195.0100  172.4670  138.7550 F   0  0  0  0  0  0  0  0  0  0  0  0
  195.0430  174.7020  139.1280 F   0  0  0  0  0  0  0  0  0  0  0  0
  1  5  1  0  0  0  0
  1 20  2  0  0  0  0
  2 13  1  0  0  0  0
  3 19  1  0  0  0  0
  4  6  1  1  0  0  0
  4  3  1  0  0  0  0
  7 27  1  0  0  0  0
  8 14  2  0  0  0  0
  8 17  1  0  0  0  0
  9 27  2  0  0  0  0
 10  7  2  0  0  0  0
 11 24  1  6  0  0  0
 11 18  1  0  0  0  0
 13 24  1  0  0  0  0
 13 10  1  0  0  0  0
 14 15  1  0  0  0  0
 15  5  2  0  0  0  0
 16 14  1  0  0  0  0
 17  1  1  0  0  0  0
 18  4  1  0  0  0  0
 19  8  1  0  0  0  0
 21 16  1  0  0  0  0
 21 12  1  0  0  0  0
 22  9  1  0  0  0  0
 23 28  1  6  0  0  0
 23  6  1  0  0  0  0
 25 10  1  0  0  0  0
 25 22  2  0  0  0  0
 26 11  1  0  0  0  0
 26 23  1  0  0  0  0
 27 21  1  0  0  0  0
 28 29  1  1  0  0  0
 28 30  1  0  0  0  0
 30 31  1  6  0  0  0
 30 32  1  0  0  0  0
 32 34  1  0  0  0  0
 34 33  1  6  0  0  0
 34 37  1  0  0  0  0
 37 35  1  0  0  0  0
 37 36  1  0  0  0  0
 38 25  1  0  0  0  0
 39 38  1  0  0  0  0
 40 39  2  0  0  0  0
 41 40  1  0  0  0  0
 41 42  1  0  0  0  0
 42 47  1  0  0  0  0
 42 43  1  1  0  0  0
 44 45  1  0  0  0  0
 44 42  1  0  0  0  0
 46 44  1  0  0  0  0
 47 48  1  0  0  0  0
 48 50  1  0  0  0  0
 48 51  1  0  0  0  0
 49 48  1  0  0  0  0
M  END
>  <MODEL>
5

>  <REMARK>
 VINA RESULT:      -7.5      1.720      2.409
  Name = 
  12 active torsions:
  status: ('A' for Active; 'I' for Inactive)
    1  A    between atoms: C_4  and  C_18
    2  A    between atoms: C_4  and  C_42
    3  A    between atoms: C_8  and  C_43
    4  A    between atoms: C_15  and  O_35
    5  A    between atoms: C_18  and  C_19
    6  A    between atoms: C_19  and  CA_23
    7  A    between atoms: C_22  and  CA_23
    8  A    between atoms: C_27  and  C_43
    9  A    between atoms: C_27  and  N_49
   10  A    between atoms: C_28  and  O_47
   11  A    between atoms: O_35  and  C_43
   12  A    between atoms: C_46  and  O_47
                            x       y       z     vdW  Elec       q    Type
                         _______ _______ _______ _____ _____    ______ ____

>  <TORSDO>
F 12

$$$$
=
 OpenBabel10222417103D

 51 54  0  0  1  0  0  0  0  0999 V2000
  193.3050  177.0560  139.6320 C   0  0  0  0  0  0  0  0  0  0  0  0
  183.2610  179.3830  140.9050 C   0  0  0  0  0  1  0  0  0  0  0  0
  189.2990  176.4950  142.1900 C   0  0  0  0  0  2  0  0  0  0  0  0
  187.9470  176.8760  142.7950 C   0  0  1  0  0  3  0  0  0  0  0  0
  192.7440  176.3840  138.5060 N   0  0  0  0  0  0  0  0  0  0  0  0
  188.0580  177.0380  144.3070 C   0  0  0  0  0  2  0  0  0  0  0  0
  186.5300  178.1430  139.3640 C   0  0  0  0  0  3  0  0  0  0  0  0
  190.9690  177.2990  140.5220 C   0  0  0  0  0  0  0  0  0  0  0  0
  186.2380  177.4640  137.0690 C   0  0  0  0  0  3  0  0  0  0  0  0
  185.1530  178.4380  139.4890 C   0  0  0  0  0  0  0  0  0  0  0  0
  186.0970  178.2000  142.6000 C   0  0  2  0  0  3  0  0  0  0  0  0
  189.1160  177.3240  136.7630 C   0  0  0  0  0  1  0  0  0  0  0  0
  184.6380  178.9410  140.7540 N   0  0  0  0  0  0  0  0  0  0  0  0
  190.5150  176.7370  139.3800 C   0  0  0  0  0  0  0  0  0  0  0  0
  191.4630  176.2350  138.3730 C   0  0  0  0  0  3  0  0  0  0  0  0
  189.0520  176.4810  139.1400 C   0  0  0  0  0  2  0  0  0  0  0  0
  192.4280  177.5750  140.7360 C   0  0  0  0  0  2  0  0  0  0  0  0
  187.4440  178.0650  142.2220 O   0  0  0  0  0  0  0  0  0  0  0  0
  190.0540  177.7080  141.6440 C   0  0  0  0  0  2  0  0  0  0  0  0
  194.5520  177.2150  139.7000 O   0  0  0  0  0  0  0  0  0  0  0  0
  188.4770  177.3100  138.0810 N   0  0  0  0  0  0  0  0  0  0  0  0
  184.8780  177.7390  137.1620 C   0  0  0  0  0  3  0  0  0  0  0  0
  186.6490  177.2770  144.8470 C   0  0  2  0  0  3  0  0  0  0  0  0
  185.5200  179.3820  141.8330 C   0  0  0  0  0  2  0  0  0  0  0  0
  184.3140  178.2170  138.3570 C   0  0  0  0  0  0  0  0  0  0  0  0
  186.0080  178.4590  144.1100 C   0  0  0  0  0  2  0  0  0  0  0  0
  187.0820  177.6560  138.1700 C   0  0  0  0  0  0  0  0  0  0  0  0
  186.6400  177.4150  146.3790 C   0  0  2  0  0  3  0  0  0  0  0  0
  186.3800  178.7500  146.7060 O   0  0  0  0  0  1  0  0  0  0  0  0
  187.9900  177.0030  146.9700 C   0  0  2  0  0  3  0  0  0  0  0  0
  187.9290  176.9770  148.3650 O   0  0  0  0  0  1  0  0  0  0  0  0
  189.1110  177.9430  146.5470 C   0  0  0  0  0  2  0  0  0  0  0  0
  191.2360  177.9370  145.3530 N   0  0  0  0  0  1  0  0  0  0  0  0
  190.3180  177.1190  146.1260 C   0  0  1  0  0  3  0  0  0  0  0  0
  191.9280  175.5430  146.9410 O   0  0  0  0  0  1  0  0  0  0  0  0
  191.6800  177.5020  148.0770 O   0  0  0  0  0  1  0  0  0  0  0  0
  191.0150  176.5170  147.3460 C   0  0  0  0  0  3  0  0  0  0  0  0
  182.9390  178.4680  138.4130 O   0  0  0  0  0  0  0  0  0  0  0  0
  181.9970  177.6960  137.7300 C   0  0  0  0  0  3  0  0  0  0  0  0
  181.6700  176.5270  138.1710 N   0  0  0  0  0  0  0  0  0  0  0  0
  180.7030  175.7260  137.4290 C   0  0  0  0  0  2  0  0  0  0  0  0
  181.2070  174.3000  137.2070 C   0  0  2  0  0  0  0  0  0  0  0  0
  181.3370  174.1000  135.8200 O   0  0  0  0  0  1  0  0  0  0  0  0
  180.1250  173.3600  137.7770 C   0  0  0  0  0  3  0  0  0  0  0  0
  179.7460  173.7530  139.0660 O   0  0  0  0  0  1  0  0  0  0  0  0
  180.5400  172.0270  137.7960 O   0  0  0  0  0  1  0  0  0  0  0  0
  182.4390  174.1410  137.9190 O   0  0  0  0  0  0  0  0  0  0  0  0
  183.5270  173.6780  137.1320 C   0  0  0  0  0  0  0  0  0  0  0  0
  184.5740  173.3750  137.9750 F   0  0  0  0  0  0  0  0  0  0  0  0
  183.9670  174.6590  136.2600 F   0  0  0  0  0  0  0  0  0  0  0  0
  183.2090  172.5300  136.4240 F   0  0  0  0  0  0  0  0  0  0  0  0
  1 20  2  0  0  0  0
  1 17  1  0  0  0  0
  4  3  1  6  0  0  0
  4  6  1  0  0  0  0
  5  1  1  0  0  0  0
  6 23  1  0  0  0  0
  7 10  1  0  0  0  0
  8 17  1  0  0  0  0
  8 19  1  0  0  0  0
  9 22  2  0  0  0  0
  9 27  1  0  0  0  0
 10 13  1  0  0  0  0
 11 24  1  6  0  0  0
 11 26  1  0  0  0  0
 12 21  1  0  0  0  0
 13  2  1  0  0  0  0
 13 24  1  0  0  0  0
 14  8  2  0  0  0  0
 15  5  2  0  0  0  0
 15 14  1  0  0  0  0
 16 14  1  0  0  0  0
 18 11  1  0  0  0  0
 18  4  1  0  0  0  0
 19  3  1  0  0  0  0
 21 27  1  0  0  0  0
 21 16  1  0  0  0  0
 22 25  1  0  0  0  0
 23 28  1  1  0  0  0
 25 38  1  0  0  0  0
 25 10  2  0  0  0  0
 26 23  1  0  0  0  0
 27  7  2  0  0  0  0
 28 29  1  6  0  0  0
 28 30  1  0  0  0  0
 30 31  1  1  0  0  0
 32 30  1  0  0  0  0
 34 33  1  1  0  0  0
 34 32  1  0  0  0  0
 34 37  1  0  0  0  0
 35 37  1  0  0  0  0
 37 36  1  0  0  0  0
 39 40  2  0  0  0  0
 39 38  1  0  0  0  0
 41 40  1  0  0  0  0
 42 43  1  6  0  0  0
 42 41  1  0  0  0  0
 42 44  1  0  0  0  0
 42 47  1  0  0  0  0
 44 46  1  0  0  0  0
 44 45  1  0  0  0  0
 48 47  1  0  0  0  0
 48 49  1  0  0  0  0
 50 48  1  0  0  0  0
 51 48  1  0  0  0  0
M  END
>  <MODEL>
6

>  <REMARK>
 VINA RESULT:      -7.5      3.883      9.927
  Name = 
  12 active torsions:
  status: ('A' for Active; 'I' for Inactive)
    1  A    between atoms: C_4  and  C_18
    2  A    between atoms: C_4  and  C_42
    3  A    between atoms: C_8  and  C_43
    4  A    between atoms: C_15  and  O_35
    5  A    between atoms: C_18  and  C_19
    6  A    between atoms: C_19  and  CA_23
    7  A    between atoms: C_22  and  CA_23
    8  A    between atoms: C_27  and  C_43
    9  A    between atoms: C_27  and  N_49
   10  A    between atoms: C_28  and  O_47
   11  A    between atoms: O_35  and  C_43
   12  A    between atoms: C_46  and  O_47
                            x       y       z     vdW  Elec       q    Type
                         _______ _______ _______ _____ _____    ______ ____

>  <TORSDO>
F 12

$$$$
=
 OpenBabel10222417103D

 51 54  0  0  1  0  0  0  0  0999 V2000
  181.0550  178.6120  139.6010 C   0  0  0  0  0  0  0  0  0  0  0  0
  190.8320  176.3610  142.2950 C   0  0  0  0  0  1  0  0  0  0  0  0
  184.6230  179.1340  142.7480 C   0  0  0  0  0  2  0  0  0  0  0  0
  185.8750  178.7490  143.5370 C   0  0  1  0  0  3  0  0  0  0  0  0
  181.7680  179.3280  138.5930 N   0  0  0  0  0  0  0  0  0  0  0  0
  185.5410  178.5350  145.0090 C   0  0  0  0  0  2  0  0  0  0  0  0
  187.8110  177.6140  140.3200 C   0  0  0  0  0  3  0  0  0  0  0  0
  183.2350  178.3660  140.8240 C   0  0  0  0  0  0  0  0  0  0  0  0
  188.4320  178.3720  138.1170 C   0  0  0  0  0  3  0  0  0  0  0  0
  189.1580  177.3300  140.6410 C   0  0  0  0  0  0  0  0  0  0  0  0
  187.7550  177.4530  143.5810 C   0  0  2  0  0  3  0  0  0  0  0  0
  185.6310  178.4890  137.3870 C   0  0  0  0  0  1  0  0  0  0  0  0
  189.4860  176.7920  141.9520 N   0  0  0  0  0  0  0  0  0  0  0  0
  183.8460  178.9720  139.7810 C   0  0  0  0  0  0  0  0  0  0  0  0
  183.0510  179.4960  138.6590 C   0  0  0  0  0  3  0  0  0  0  0  0
  185.3240  179.2530  139.7710 C   0  0  0  0  0  2  0  0  0  0  0  0
  181.7650  178.0670  140.8070 C   0  0  0  0  0  2  0  0  0  0  0  0
  186.4780  177.5850  143.0090 O   0  0  0  0  0  0  0  0  0  0  0  0
  183.9790  177.9310  142.0570 C   0  0  0  0  0  2  0  0  0  0  0  0
  179.8160  178.4360  139.4750 O   0  0  0  0  0  0  0  0  0  0  0  0
  186.0650  178.4660  138.7860 N   0  0  0  0  0  0  0  0  0  0  0  0
  189.7670  178.1090  138.4050 C   0  0  0  0  0  3  0  0  0  0  0  0
  186.8580  178.2940  145.7470 C   0  0  2  0  0  3  0  0  0  0  0  0
  188.4600  176.3040  142.8730 C   0  0  0  0  0  2  0  0  0  0  0  0
  190.1540  177.5980  139.6550 C   0  0  0  0  0  0  0  0  0  0  0  0
  187.6220  177.1450  145.0780 C   0  0  0  0  0  2  0  0  0  0  0  0
  187.4360  178.1340  139.0730 C   0  0  0  0  0  0  0  0  0  0  0  0
  186.6390  178.1050  147.2580 C   0  0  2  0  0  3  0  0  0  0  0  0
  186.1190  179.2910  147.7870 O   0  0  0  0  0  1  0  0  0  0  0  0
  187.9570  177.7710  147.9610 C   0  0  2  0  0  3  0  0  0  0  0  0
  188.0230  178.4000  149.2060 O   0  0  0  0  0  1  0  0  0  0  0  0
  189.1670  178.1910  147.1360 C   0  0  0  0  0  2  0  0  0  0  0  0
  189.6320  175.8680  147.7110 N   0  0  0  0  0  1  0  0  0  0  0  0
  190.2220  177.0980  147.2130 C   0  0  1  0  0  3  0  0  0  0  0  0
  191.1820  178.1080  145.2630 O   0  0  0  0  0  1  0  0  0  0  0  0
  192.0400  176.1190  145.9710 O   0  0  0  0  0  1  0  0  0  0  0  0
  190.8760  176.8790  145.8490 C   0  0  0  0  0  3  0  0  0  0  0  0
  191.5090  177.3620  139.9100 O   0  0  0  0  0  0  0  0  0  0  0  0
  192.2800  176.4750  139.1560 C   0  0  0  0  0  3  0  0  0  0  0  0
  192.7710  176.8420  138.0200 N   0  0  0  0  0  0  0  0  0  0  0  0
  193.5530  175.8920  137.2360 C   0  0  0  0  0  2  0  0  0  0  0  0
  192.6540  174.9470  136.4400 C   0  0  2  0  0  0  0  0  0  0  0  0
  192.1890  173.9510  137.3200 O   0  0  0  0  0  1  0  0  0  0  0  0
  193.5420  174.3140  135.3480 C   0  0  0  0  0  3  0  0  0  0  0  0
  193.1220  173.0120  135.0520 O   0  0  0  0  0  1  0  0  0  0  0  0
  194.8910  174.3020  135.7060 O   0  0  0  0  0  1  0  0  0  0  0  0
  191.6000  175.7160  135.8500 O   0  0  0  0  0  0  0  0  0  0  0  0
  190.2960  175.1860  136.0390 C   0  0  0  0  0  0  0  0  0  0  0  0
  190.1590  174.0740  135.2380 F   0  0  0  0  0  0  0  0  0  0  0  0
  189.3260  176.0960  135.6560 F   0  0  0  0  0  0  0  0  0  0  0  0
  190.0770  174.7920  137.3500 F   0  0  0  0  0  0  0  0  0  0  0  0
  1 17  1  0  0  0  0
  4  3  1  6  0  0  0
  4  6  1  0  0  0  0
  5 15  2  0  0  0  0
  5  1  1  0  0  0  0
  6 23  1  0  0  0  0
  7 10  1  0  0  0  0
  8 19  1  0  0  0  0
  9 22  2  0  0  0  0
  9 27  1  0  0  0  0
 10 13  1  0  0  0  0
 11 24  1  6  0  0  0
 11 26  1  0  0  0  0
 12 21  1  0  0  0  0
 13  2  1  0  0  0  0
 13 24  1  0  0  0  0
 14  8  2  0  0  0  0
 15 14  1  0  0  0  0
 16 14  1  0  0  0  0
 17  8  1  0  0  0  0
 18  4  1  0  0  0  0
 18 11  1  0  0  0  0
 19  3  1  0  0  0  0
 20  1  2  0  0  0  0
 21 27  1  0  0  0  0
 21 16  1  0  0  0  0
 22 25  1  0  0  0  0
 23 28  1  1  0  0  0
 25 38  1  0  0  0  0
 25 10  2  0  0  0  0
 26 23  1  0  0  0  0
 27  7  2  0  0  0  0
 28 29  1  1  0  0  0
 28 30  1  0  0  0  0
 30 31  1  1  0  0  0
 32 34  1  0  0  0  0
 32 30  1  0  0  0  0
 34 33  1  6  0  0  0
 35 37  1  0  0  0  0
 37 36  1  0  0  0  0
 37 34  1  0  0  0  0
 39 38  1  0  0  0  0
 40 39  2  0  0  0  0
 41 40  1  0  0  0  0
 42 41  1  0  0  0  0
 42 43  1  1  0  0  0
 44 46  1  0  0  0  0
 44 42  1  0  0  0  0
 45 44  1  0  0  0  0
 47 48  1  0  0  0  0
 47 42  1  0  0  0  0
 48 51  1  0  0  0  0
 49 48  1  0  0  0  0
 50 48  1  0  0  0  0
M  END
>  <MODEL>
7

>  <REMARK>
 VINA RESULT:      -7.4      2.477      7.450
  Name = 
  12 active torsions:
  status: ('A' for Active; 'I' for Inactive)
    1  A    between atoms: C_4  and  C_18
    2  A    between atoms: C_4  and  C_42
    3  A    between atoms: C_8  and  C_43
    4  A    between atoms: C_15  and  O_35
    5  A    between atoms: C_18  and  C_19
    6  A    between atoms: C_19  and  CA_23
    7  A    between atoms: C_22  and  CA_23
    8  A    between atoms: C_27  and  C_43
    9  A    between atoms: C_27  and  N_49
   10  A    between atoms: C_28  and  O_47
   11  A    between atoms: O_35  and  C_43
   12  A    between atoms: C_46  and  O_47
                            x       y       z     vdW  Elec       q    Type
                         _______ _______ _______ _____ _____    ______ ____

>  <TORSDO>
F 12

$$$$
=
 OpenBabel10222417103D

 51 54  0  0  1  0  0  0  0  0999 V2000
  185.9880  179.1300  146.7230 C   0  0  0  0  0  0  0  0  0  0  0  0
  187.4540  178.2710  136.4740 C   0  0  0  0  0  1  0  0  0  0  0  0
  184.2870  177.7040  142.4830 C   0  0  0  0  0  2  0  0  0  0  0  0
  184.0880  177.7170  140.9670 C   0  0  1  0  0  3  0  0  0  0  0  0
  187.0270  178.1510  146.6950 N   0  0  0  0  0  0  0  0  0  0  0  0
  182.6640  178.1330  140.6120 C   0  0  0  0  0  2  0  0  0  0  0  0
  187.9380  177.9290  140.2490 C   0  0  0  0  0  3  0  0  0  0  0  0
  185.6970  178.7410  144.2580 C   0  0  0  0  0  0  0  0  0  0  0  0
  190.0270  176.8550  140.7900 C   0  0  0  0  0  3  0  0  0  0  0  0
  188.1800  177.7830  138.8640 C   0  0  0  0  0  0  0  0  0  0  0  0
  184.9680  178.3320  138.9520 C   0  0  2  0  0  3  0  0  0  0  0  0
  189.6710  177.6020  143.5670 C   0  0  0  0  0  1  0  0  0  0  0  0
  187.2030  178.2770  137.9070 N   0  0  0  0  0  0  0  0  0  0  0  0
  186.7520  177.8970  144.3040 C   0  0  0  0  0  0  0  0  0  0  0  0
  187.3920  177.5810  145.5910 C   0  0  0  0  0  3  0  0  0  0  0  0
  187.2350  177.1520  143.0900 C   0  0  0  0  0  2  0  0  0  0  0  0
  185.2450  179.5000  145.4710 C   0  0  0  0  0  2  0  0  0  0  0  0
  185.0090  178.5810  140.3340 O   0  0  0  0  0  0  0  0  0  0  0  0
  184.9200  178.9980  142.9960 C   0  0  0  0  0  2  0  0  0  0  0  0
  185.6940  179.6890  147.8110 O   0  0  0  0  0  0  0  0  0  0  0  0
  188.5520  177.5830  142.6220 N   0  0  0  0  0  0  0  0  0  0  0  0
  190.2920  176.6900  139.4350 C   0  0  0  0  0  3  0  0  0  0  0  0
  182.5060  177.9850  139.1000 C   0  0  2  0  0  3  0  0  0  0  0  0
  186.0890  179.1360  138.3050 C   0  0  0  0  0  2  0  0  0  0  0  0
  189.3860  177.1360  138.4580 C   0  0  0  0  0  0  0  0  0  0  0  0
  183.6120  178.7730  138.3860 C   0  0  0  0  0  2  0  0  0  0  0  0
  188.8440  177.4720  141.2160 C   0  0  0  0  0  0  0  0  0  0  0  0
  181.0840  178.3420  138.6360 C   0  0  2  0  0  3  0  0  0  0  0  0
  180.3390  178.7450  139.7490 O   0  0  0  0  0  1  0  0  0  0  0  0
  180.4060  177.1370  137.9820 C   0  0  2  0  0  3  0  0  0  0  0  0
  180.3050  176.0770  138.8870 O   0  0  0  0  0  1  0  0  0  0  0  0
  181.1600  176.6550  136.7490 C   0  0  0  0  0  2  0  0  0  0  0  0
  180.6490  174.4220  135.9180 N   0  0  0  0  0  1  0  0  0  0  0  0
  181.4350  175.1660  136.8860 C   0  0  1  0  0  3  0  0  0  0  0  0
  183.5590  174.9080  137.9660 O   0  0  0  0  0  1  0  0  0  0  0  0
  183.1270  173.6230  136.1350 O   0  0  0  0  0  1  0  0  0  0  0  0
  182.9260  174.8730  136.7230 C   0  0  0  0  0  3  0  0  0  0  0  0
  189.6830  176.9370  137.1060 O   0  0  0  0  0  0  0  0  0  0  0  0
  190.6010  175.9830  136.6620 C   0  0  0  0  0  3  0  0  0  0  0  0
  191.7090  176.3510  136.1120 N   0  0  0  0  0  0  0  0  0  0  0  0
  192.6420  175.3390  135.6310 C   0  0  0  0  0  2  0  0  0  0  0  0
  194.0010  175.4540  136.3210 C   0  0  2  0  0  0  0  0  0  0  0  0
  193.9130  176.4870  137.2740 O   0  0  0  0  0  1  0  0  0  0  0  0
  195.0180  175.8310  135.2260 C   0  0  0  0  0  3  0  0  0  0  0  0
  195.6290  174.6900  134.6920 O   0  0  0  0  0  1  0  0  0  0  0  0
  195.9960  176.7110  135.6930 O   0  0  0  0  0  1  0  0  0  0  0  0
  194.3250  174.1830  136.8950 O   0  0  0  0  0  0  0  0  0  0  0  0
  195.0040  174.2450  138.1410 C   0  0  0  0  0  0  0  0  0  0  0  0
  196.3200  174.5720  137.9020 F   0  0  0  0  0  0  0  0  0  0  0  0
  194.9890  173.0170  138.7800 F   0  0  0  0  0  0  0  0  0  0  0  0
  194.4720  175.2140  138.9770 F   0  0  0  0  0  0  0  0  0  0  0  0
  1 20  2  0  0  0  0
  2 13  1  0  0  0  0
  3 19  1  0  0  0  0
  4  6  1  1  0  0  0
  4  3  1  0  0  0  0
  5  1  1  0  0  0  0
  7 27  1  0  0  0  0
  8 14  2  0  0  0  0
  8 17  1  0  0  0  0
  9 27  2  0  0  0  0
 10  7  2  0  0  0  0
 11 24  1  6  0  0  0
 11 18  1  0  0  0  0
 13 24  1  0  0  0  0
 13 10  1  0  0  0  0
 14 15  1  0  0  0  0
 15  5  2  0  0  0  0
 16 14  1  0  0  0  0
 17  1  1  0  0  0  0
 18  4  1  0  0  0  0
 19  8  1  0  0  0  0
 21 16  1  0  0  0  0
 21 12  1  0  0  0  0
 22  9  1  0  0  0  0
 23 28  1  6  0  0  0
 23  6  1  0  0  0  0
 25 10  1  0  0  0  0
 25 22  2  0  0  0  0
 26 11  1  0  0  0  0
 26 23  1  0  0  0  0
 27 21  1  0  0  0  0
 28 29  1  1  0  0  0
 30 28  1  0  0  0  0
 30 31  1  1  0  0  0
 32 34  1  0  0  0  0
 32 30  1  0  0  0  0
 34 33  1  6  0  0  0
 36 37  1  0  0  0  0
 37 34  1  0  0  0  0
 37 35  1  0  0  0  0
 38 25  1  0  0  0  0
 39 38  1  0  0  0  0
 40 39  2  0  0  0  0
 41 40  1  0  0  0  0
 41 42  1  0  0  0  0
 42 47  1  0  0  0  0
 42 43  1  1  0  0  0
 44 46  1  0  0  0  0
 44 42  1  0  0  0  0
 45 44  1  0  0  0  0
 47 48  1  0  0  0  0
 48 50  1  0  0  0  0
 48 51  1  0  0  0  0
 49 48  1  0  0  0  0
M  END
>  <MODEL>
8

>  <REMARK>
 VINA RESULT:      -7.4      1.862      2.941
  Name = 
  12 active torsions:
  status: ('A' for Active; 'I' for Inactive)
    1  A    between atoms: C_4  and  C_18
    2  A    between atoms: C_4  and  C_42
    3  A    between atoms: C_8  and  C_43
    4  A    between atoms: C_15  and  O_35
    5  A    between atoms: C_18  and  C_19
    6  A    between atoms: C_19  and  CA_23
    7  A    between atoms: C_22  and  CA_23
    8  A    between atoms: C_27  and  C_43
    9  A    between atoms: C_27  and  N_49
   10  A    between atoms: C_28  and  O_47
   11  A    between atoms: O_35  and  C_43
   12  A    between atoms: C_46  and  O_47
                            x       y       z     vdW  Elec       q    Type
                         _______ _______ _______ _____ _____    ______ ____

>  <TORSDO>
F 12

$$$$
=
 OpenBabel10222417103D

 51 54  0  0  1  0  0  0  0  0999 V2000
  191.4750  176.0110  146.9910 C   0  0  0  0  0  0  0  0  0  0  0  0
  187.3260  177.4230  137.5720 C   0  0  0  0  0  1  0  0  0  0  0  0
  192.0650  177.4650  142.4690 C   0  0  0  0  0  2  0  0  0  0  0  0
  191.8370  177.4980  140.9570 C   0  0  1  0  0  3  0  0  0  0  0  0
  190.5650  177.0750  147.2700 N   0  0  0  0  0  0  0  0  0  0  0  0
  193.0630  176.9790  140.2140 C   0  0  0  0  0  2  0  0  0  0  0  0
  187.9360  177.6450  141.3370 C   0  0  0  0  0  3  0  0  0  0  0  0
  191.1100  176.4770  144.5490 C   0  0  0  0  0  0  0  0  0  0  0  0
  186.1870  178.8690  142.4570 C   0  0  0  0  0  3  0  0  0  0  0  0
  187.3360  177.8700  140.0770 C   0  0  0  0  0  0  0  0  0  0  0  0
  190.3810  177.0470  139.2570 C   0  0  2  0  0  3  0  0  0  0  0  0
  187.2240  177.9780  145.0120 C   0  0  0  0  0  1  0  0  0  0  0  0
  187.9610  177.3350  138.8770 N   0  0  0  0  0  0  0  0  0  0  0  0
  190.1920  177.4050  144.9020 C   0  0  0  0  0  0  0  0  0  0  0  0
  189.9640  177.7200  146.3210 C   0  0  0  0  0  3  0  0  0  0  0  0
  189.4650  178.2400  143.8830 C   0  0  0  0  0  2  0  0  0  0  0  0
  191.8060  175.6320  145.5750 C   0  0  0  0  0  2  0  0  0  0  0  0
  190.7000  176.7430  140.5920 O   0  0  0  0  0  0  0  0  0  0  0  0
  191.4810  176.2080  143.1170 C   0  0  0  0  0  2  0  0  0  0  0  0
  192.0040  175.3830  147.9440 O   0  0  0  0  0  0  0  0  0  0  0  0
  188.0360  177.9420  143.7930 N   0  0  0  0  0  0  0  0  0  0  0  0
  185.5750  179.1140  141.2330 C   0  0  0  0  0  3  0  0  0  0  0  0
  192.8100  177.1760  138.7200 C   0  0  2  0  0  3  0  0  0  0  0  0
  189.0560  176.3690  138.9350 C   0  0  0  0  0  2  0  0  0  0  0  0
  186.1310  178.6340  140.0350 C   0  0  0  0  0  0  0  0  0  0  0  0
  191.4820  176.5160  138.3290 C   0  0  0  0  0  2  0  0  0  0  0  0
  187.3790  178.1370  142.5260 C   0  0  0  0  0  0  0  0  0  0  0  0
  194.0090  176.7190  137.8720 C   0  0  2  0  0  3  0  0  0  0  0  0
  193.7760  177.0710  136.5390 O   0  0  0  0  0  1  0  0  0  0  0  0
  194.1980  175.2030  137.9700 C   0  0  2  0  0  3  0  0  0  0  0  0
  195.4180  174.8970  138.5770 O   0  0  0  0  0  1  0  0  0  0  0  0
  194.1510  174.5320  136.6040 C   0  0  0  0  0  2  0  0  0  0  0  0
  192.2320  173.1310  136.0580 N   0  0  0  0  0  1  0  0  0  0  0  0
  193.5100  173.1600  136.7470 C   0  0  1  0  0  3  0  0  0  0  0  0
  195.6430  172.6330  135.7890 O   0  0  0  0  0  1  0  0  0  0  0  0
  194.7020  171.1170  137.2070 O   0  0  0  0  0  1  0  0  0  0  0  0
  194.4410  172.0690  136.2200 C   0  0  0  0  0  3  0  0  0  0  0  0
  185.4920  178.9140  138.8220 O   0  0  0  0  0  0  0  0  0  0  0  0
  184.1370  178.6600  138.6000 C   0  0  0  0  0  3  0  0  0  0  0  0
  183.2650  179.5990  138.7530 N   0  0  0  0  0  0  0  0  0  0  0  0
  181.8520  179.3060  138.5410 C   0  0  0  0  0  2  0  0  0  0  0  0
  181.1440  178.9740  139.8540 C   0  0  2  0  0  0  0  0  0  0  0  0
  180.9770  177.5770  139.9120 O   0  0  0  0  0  1  0  0  0  0  0  0
  179.7680  179.6680  139.7980 C   0  0  0  0  0  3  0  0  0  0  0  0
  179.2060  179.5660  138.5200 O   0  0  0  0  0  1  0  0  0  0  0  0
  179.8370  181.0100  140.1730 O   0  0  0  0  0  1  0  0  0  0  0  0
  181.9270  179.4940  140.9340 O   0  0  0  0  0  0  0  0  0  0  0  0
  182.0500  178.6290  142.0530 C   0  0  0  0  0  0  0  0  0  0  0  0
  182.7100  179.3060  143.0540 F   0  0  0  0  0  0  0  0  0  0  0  0
  182.8050  177.5110  141.7400 F   0  0  0  0  0  0  0  0  0  0  0  0
  180.8170  178.2370  142.5490 F   0  0  0  0  0  0  0  0  0  0  0  0
  1  5  1  0  0  0  0
  1 20  2  0  0  0  0
  2 13  1  0  0  0  0
  3 19  1  0  0  0  0
  4  6  1  6  0  0  0
  4  3  1  0  0  0  0
  7 27  1  0  0  0  0
  8 14  2  0  0  0  0
  8 17  1  0  0  0  0
  9 27  2  0  0  0  0
 10  7  2  0  0  0  0
 11 26  1  6  0  0  0
 11 18  1  0  0  0  0
 13 24  1  0  0  0  0
 13 10  1  0  0  0  0
 14 15  1  0  0  0  0
 15  5  2  0  0  0  0
 16 14  1  0  0  0  0
 17  1  1  0  0  0  0
 18  4  1  0  0  0  0
 19  8  1  0  0  0  0
 21 16  1  0  0  0  0
 21 12  1  0  0  0  0
 22  9  1  0  0  0  0
 23 28  1  6  0  0  0
 23  6  1  0  0  0  0
 24 11  1  0  0  0  0
 25 10  1  0  0  0  0
 25 22  2  0  0  0  0
 26 23  1  0  0  0  0
 27 21  1  0  0  0  0
 28 29  1  6  0  0  0
 28 30  1  0  0  0  0
 30 31  1  6  0  0  0
 32 34  1  0  0  0  0
 32 30  1  0  0  0  0
 34 33  1  6  0  0  0
 35 37  1  0  0  0  0
 37 34  1  0  0  0  0
 37 36  1  0  0  0  0
 38 25  1  0  0  0  0
 39 40  2  0  0  0  0
 39 38  1  0  0  0  0
 41 40  1  0  0  0  0
 41 42  1  0  0  0  0
 42 43  1  1  0  0  0
 42 47  1  0  0  0  0
 44 42  1  0  0  0  0
 44 46  1  0  0  0  0
 45 44  1  0  0  0  0
 47 48  1  0  0  0  0
 48 51  1  0  0  0  0
 48 49  1  0  0  0  0
 50 48  1  0  0  0  0
M  END
>  <MODEL>
9

>  <REMARK>
 VINA RESULT:      -7.3      3.830     10.629
  Name = 
  12 active torsions:
  status: ('A' for Active; 'I' for Inactive)
    1  A    between atoms: C_4  and  C_18
    2  A    between atoms: C_4  and  C_42
    3  A    between atoms: C_8  and  C_43
    4  A    between atoms: C_15  and  O_35
    5  A    between atoms: C_18  and  C_19
    6  A    between atoms: C_19  and  CA_23
    7  A    between atoms: C_22  and  CA_23
    8  A    between atoms: C_27  and  C_43
    9  A    between atoms: C_27  and  N_49
   10  A    between atoms: C_28  and  O_47
   11  A    between atoms: O_35  and  C_43
   12  A    between atoms: C_46  and  O_47
                            x       y       z     vdW  Elec       q    Type
                         _______ _______ _______ _____ _____    ______ ____

>  <TORSDO>
F 12

$$$$
