=
 OpenBabel10222420043D

 59 68  0  0  1  0  0  0  0  0999 V2000
  191.2570  176.3490  138.4480 C   0  0  0  0  0  0  0  0  0  0  0  0
  192.5950  176.7740  138.5480 C   0  0  0  0  0  3  0  0  0  0  0  0
  190.8530  175.6230  137.3050 C   0  0  0  0  0  0  0  0  0  0  0  0
  191.7890  175.3260  136.3090 C   0  0  0  0  0  3  0  0  0  0  0  0
  193.1240  175.7280  136.4250 C   0  0  0  0  0  0  0  0  0  0  0  0
  193.5220  176.4610  137.5480 C   0  0  0  0  0  3  0  0  0  0  0  0
  197.4000  172.2590  137.0380 N   0  0  0  0  0  2  0  0  0  0  0  0
  194.9360  171.4250  135.5240 C   0  0  0  0  0  2  0  0  0  0  0  0
  199.0040  173.0270  135.3670 C   0  0  0  0  0  1  0  0  0  0  0  0
  195.5150  175.7070  135.9290 C   0  0  1  0  0  3  0  0  0  0  0  0
  197.6200  175.5970  134.9770 O   0  0  0  0  0  0  0  0  0  0  0  0
  194.1210  173.6720  135.6250 N   0  0  0  0  0  0  0  0  0  0  0  0
  194.1600  175.1180  135.5340 C   0  0  1  0  0  3  0  0  0  0  0  0
  196.7790  170.9450  137.1640 C   0  0  0  0  0  2  0  0  0  0  0  0
  197.5940  172.5210  135.6130 C   0  0  2  0  0  3  0  0  0  0  0  0
  196.7030  174.8890  135.6840 C   0  0  1  0  0  0  0  0  0  0  0  0
  194.6570  169.6680  137.2510 C   0  0  0  0  0  1  0  0  0  0  0  0
  196.5050  173.4800  135.0790 C   0  0  2  0  0  3  0  0  0  0  0  0
  195.1170  172.9090  135.3390 C   0  0  0  0  0  0  0  0  0  0  0  0
  195.2680  171.0240  136.9540 C   0  0  2  0  0  3  0  0  0  0  0  0
  196.2960  175.8970  134.7000 N   0  0  1  0  0  0  0  0  0  0  0  0
  188.9890  177.1680  139.2550 C   0  0  0  0  0  2  0  0  0  0  0  0
  188.8450  177.8720  141.6990 O   0  0  0  0  0  0  0  0  0  0  0  0
  192.0810  177.7120  140.7020 O   0  0  0  0  0  0  0  0  0  0  0  0
  190.3220  176.5050  139.6270 C   0  0  2  0  0  3  0  0  0  0  0  0
  187.0380  178.2000  140.2410 N   0  0  0  0  0  0  0  0  0  0  0  0
  190.9610  177.2360  140.7750 C   0  0  0  0  0  0  0  0  0  0  0  0
  190.1500  177.3920  142.0140 C   0  0  0  0  0  2  0  0  0  0  0  0
  188.2340  177.7330  140.4390 C   0  0  0  0  0  0  0  0  0  0  0  0
  186.2050  178.7890  141.2570 C   0  0  0  0  0  0  0  0  0  0  0  0
  186.1730  180.0390  141.4110 O   0  0  0  0  0  0  0  0  0  0  0  0
  183.6780  179.1890  143.5170 C   0  0  0  0  0  2  0  0  0  0  0  0
  187.1190  177.8500  145.5380 C   0  0  0  0  0  0  0  0  0  0  0  0
  186.2810  178.6430  146.2440 C   0  0  0  0  0  0  0  0  0  0  0  0
  185.9390  179.8680  148.2440 O   0  0  0  0  0  0  0  0  0  0  0  0
  185.3230  177.9280  142.1250 C   0  0  2  0  0  3  0  0  0  0  0  0
  188.3600  177.2540  146.1550 C   0  0  0  0  0  2  0  0  0  0  0  0
  186.6170  178.9990  147.6260 C   0  0  0  0  0  0  0  0  0  0  0  0
  187.7610  178.4150  148.2490 N   0  0  0  0  0  0  0  0  0  0  0  0
  183.8760  178.4750  142.1660 C   0  0  0  0  0  2  0  0  0  0  0  0
  184.8400  178.8230  144.2910 N   0  0  0  0  0  0  0  0  0  0  0  0
  185.0860  179.1540  145.6300 N   0  0  0  0  0  2  0  0  0  0  0  0
  186.8470  177.5620  144.1060 C   0  0  0  0  0  3  0  0  0  0  0  0
  188.5590  177.6160  147.6090 C   0  0  0  0  0  3  0  0  0  0  0  0
  185.7410  178.0530  143.5420 C   0  0  0  0  0  0  0  0  0  0  0  0
  189.4670  175.0500  137.1810 C   0  0  0  0  0  2  0  0  0  0  0  0
  188.8140  175.5140  135.8820 C   0  0  0  0  0  2  0  0  0  0  0  0
  185.5710  177.3740  135.9910 N   0  0  0  0  0  0  0  0  0  0  0  0
  186.5200  174.8760  136.6630 C   0  0  0  0  0  3  0  0  0  0  0  0
  185.1810  175.1900  136.9110 C   0  0  0  0  0  0  0  0  0  0  0  0
  184.7110  176.4750  136.5480 C   0  0  0  0  0  0  0  0  0  0  0  0
  186.8750  177.0740  135.7520 C   0  0  0  0  0  3  0  0  0  0  0  0
  187.3730  175.8160  136.0840 C   0  0  0  0  0  0  0  0  0  0  0  0
  184.8140  172.8970  137.8040 C   0  0  0  0  0  1  0  0  0  0  0  0
  184.3780  174.2160  137.5210 O   0  0  0  0  0  0  0  0  0  0  0  0
  183.3670  176.8220  136.7360 O   0  0  0  0  0  0  0  0  0  0  0  0
  182.8680  177.3650  137.9580 C   0  0  0  0  0  2  0  0  0  0  0  0
  183.4920  179.3530  138.7060 C   0  0  0  0  0  1  0  0  0  0  0  0
  183.8860  178.0110  138.6640 O   0  0  0  0  0  0  0  0  0  0  0  0
  1  2  1  0  0  0  0
  1 25  1  0  0  0  0
  3  1  2  0  0  0  0
  4  5  2  0  0  0  0
  4  3  1  0  0  0  0
  5  6  1  0  0  0  0
  6  2  2  0  0  0  0
  7 14  1  0  0  0  0
  8 20  1  0  0  0  0
  9 15  1  0  0  0  0
 11 16  1  0  0  0  0
 13 12  1  0  0  0  0
 13 10  1  0  0  0  0
 13  5  1  0  0  0  0
 15  7  1  0  0  0  0
 16 10  1  0  0  0  0
 18 19  1  0  0  0  0
 18 15  1  0  0  0  0
 18 16  1  0  0  0  0
 19  8  1  0  0  0  0
 19 12  2  0  0  0  0
 20 14  1  0  0  0  0
 20 17  1  0  0  0  0
 21 11  1  0  0  0  0
 21 16  1  0  0  0  0
 21 10  1  0  0  0  0
 22 25  1  0  0  0  0
 22 29  1  0  0  0  0
 23 28  1  0  0  0  0
 24 27  2  0  0  0  0
 25 27  1  0  0  0  0
 26 29  2  0  0  0  0
 26 30  1  0  0  0  0
 27 28  1  0  0  0  0
 29 23  1  0  0  0  0
 30 31  2  0  0  0  0
 30 36  1  0  0  0  0
 32 41  1  0  0  0  0
 33 37  1  0  0  0  0
 33 34  2  0  0  0  0
 34 38  1  0  0  0  0
 36 40  1  0  0  0  0
 36 45  1  0  0  0  0
 37 44  1  0  0  0  0
 38 35  2  0  0  0  0
 38 39  1  0  0  0  0
 40 32  1  0  0  0  0
 41 42  1  0  0  0  0
 42 34  1  0  0  0  0
 43 33  1  0  0  0  0
 44 39  2  0  0  0  0
 45 43  2  0  0  0  0
 45 41  1  0  0  0  0
 46  3  1  0  0  0  0
 47 53  1  0  0  0  0
 47 46  1  0  0  0  0
 48 51  2  0  0  0  0
 49 50  2  0  0  0  0
 50 55  1  0  0  0  0
 51 56  1  0  0  0  0
 51 50  1  0  0  0  0
 52 48  1  0  0  0  0
 52 53  2  0  0  0  0
 53 49  1  0  0  0  0
 55 54  1  0  0  0  0
 56 57  1  0  0  0  0
 57 59  1  0  0  0  0
 59 58  1  0  0  0  0
M  END
>  <MODEL>
1

>  <REMARK>
 VINA RESULT:      -9.2      0.000      0.000
  Name = 
  11 active torsions:
  status: ('A' for Active; 'I' for Inactive)
    1  A    between atoms: C_10  and  C_24
    2  A    between atoms: C_10  and  N_44
    3  A    between atoms: C_13  and  C_43
    4  A    between atoms: C_13  and  C_53
    5  A    between atoms: C_14  and  C_32
    6  A    between atoms: C_20  and  C_51
    7  A    between atoms: C_25  and  O_45
    8  A    between atoms: C_29  and  O_52
    9  A    between atoms: C_29  and  O_57
   10  A    between atoms: C_33  and  C_53
   11  A    between atoms: C_36  and  O_57
                            x       y       z     vdW  Elec       q    Type
                         _______ _______ _______ _____ _____    ______ ____

>  <TORSDO>
F 11

$$$$
=
 OpenBabel10222420043D

 59 68  0  0  1  0  0  0  0  0999 V2000
  188.3380  175.1140  136.9430 C   0  0  0  0  0  0  0  0  0  0  0  0
  188.7050  174.1140  136.0240 C   0  0  0  0  0  3  0  0  0  0  0  0
  189.3500  175.8990  137.5410 C   0  0  0  0  0  0  0  0  0  0  0  0
  190.6870  175.6800  137.1970 C   0  0  0  0  0  3  0  0  0  0  0  0
  191.0450  174.7020  136.2630 C   0  0  0  0  0  0  0  0  0  0  0  0
  190.0460  173.9140  135.6820 C   0  0  0  0  0  3  0  0  0  0  0  0
  196.1400  173.2570  137.8900 N   0  0  0  0  0  2  0  0  0  0  0  0
  194.7110  171.7210  135.7320 C   0  0  0  0  0  2  0  0  0  0  0  0
  197.5820  174.8610  136.7490 C   0  0  0  0  0  1  0  0  0  0  0  0
  193.2470  175.7450  136.4370 C   0  0  1  0  0  3  0  0  0  0  0  0
  195.3430  176.6580  136.0910 O   0  0  0  0  0  0  0  0  0  0  0  0
  192.9960  173.3870  135.6890 N   0  0  0  0  0  0  0  0  0  0  0  0
  192.4170  174.7160  135.6660 C   0  0  1  0  0  3  0  0  0  0  0  0
  196.1470  171.8020  137.7940 C   0  0  0  0  0  2  0  0  0  0  0  0
  196.5220  173.7880  136.5830 C   0  0  2  0  0  3  0  0  0  0  0  0
  194.6940  175.5370  136.4950 C   0  0  1  0  0  0  0  0  0  0  0  0
  194.8420  169.7660  137.2530 C   0  0  0  0  0  1  0  0  0  0  0  0
  195.2780  174.2820  135.8080 C   0  0  2  0  0  3  0  0  0  0  0  0
  194.2620  173.1560  135.6580 C   0  0  0  0  0  0  0  0  0  0  0  0
  194.8470  171.2810  137.1830 C   0  0  2  0  0  3  0  0  0  0  0  0
  194.1250  176.4230  135.4750 N   0  0  1  0  0  0  0  0  0  0  0  0
  185.9470  174.2530  137.0060 C   0  0  0  0  0  2  0  0  0  0  0  0
  184.1240  175.9310  136.4130 O   0  0  0  0  0  0  0  0  0  0  0  0
  187.1520  177.0570  135.3830 O   0  0  0  0  0  0  0  0  0  0  0  0
  186.8800  175.4640  137.1420 C   0  0  2  0  0  3  0  0  0  0  0  0
  183.6140  173.6680  136.7570 N   0  0  0  0  0  0  0  0  0  0  0  0
  186.4250  176.5720  136.2330 C   0  0  0  0  0  0  0  0  0  0  0  0
  185.0200  177.0400  136.3870 C   0  0  0  0  0  2  0  0  0  0  0  0
  184.4990  174.6190  136.7580 C   0  0  0  0  0  0  0  0  0  0  0  0
  182.2070  173.8540  136.5150 C   0  0  0  0  0  0  0  0  0  0  0  0
  181.7880  174.1150  135.3550 O   0  0  0  0  0  0  0  0  0  0  0  0
  178.9700  174.7110  137.1780 C   0  0  0  0  0  2  0  0  0  0  0  0
  181.5150  176.9530  139.6700 C   0  0  0  0  0  0  0  0  0  0  0  0
  180.3540  177.5470  139.3120 C   0  0  0  0  0  0  0  0  0  0  0  0
  179.0690  179.5390  139.3240 O   0  0  0  0  0  0  0  0  0  0  0  0
  181.2040  173.6940  137.6300 C   0  0  2  0  0  3  0  0  0  0  0  0
  182.4950  177.6200  140.6040 C   0  0  0  0  0  2  0  0  0  0  0  0
  180.0630  178.9060  139.7800 C   0  0  0  0  0  0  0  0  0  0  0  0
  180.9510  179.5420  140.6990 N   0  0  0  0  0  0  0  0  0  0  0  0
  179.7890  173.4110  137.0720 C   0  0  0  0  0  2  0  0  0  0  0  0
  179.7800  175.5820  137.9960 N   0  0  0  0  0  0  0  0  0  0  0  0
  179.4280  176.8570  138.4540 N   0  0  0  0  0  2  0  0  0  0  0  0
  181.8730  175.6190  139.1240 C   0  0  0  0  0  3  0  0  0  0  0  0
  182.0510  178.9790  141.0940 C   0  0  0  0  0  3  0  0  0  0  0  0
  181.0120  174.9940  138.3180 C   0  0  0  0  0  0  0  0  0  0  0  0
  189.0230  177.0510  138.4520 C   0  0  0  0  0  2  0  0  0  0  0  0
  190.1770  177.3120  139.4160 C   0  0  0  0  0  2  0  0  0  0  0  0
  190.0520  176.7000  143.1030 N   0  0  0  0  0  0  0  0  0  0  0  0
  188.4500  177.8170  141.1600 C   0  0  0  0  0  3  0  0  0  0  0  0
  187.9890  177.7570  142.4780 C   0  0  0  0  0  0  0  0  0  0  0  0
  188.8320  177.1890  143.4630 C   0  0  0  0  0  0  0  0  0  0  0  0
  190.5040  176.7530  141.8230 C   0  0  0  0  0  3  0  0  0  0  0  0
  189.7090  177.3150  140.8260 C   0  0  0  0  0  0  0  0  0  0  0  0
  185.9160  178.9600  141.8080 C   0  0  0  0  0  1  0  0  0  0  0  0
  186.7040  178.2510  142.7490 O   0  0  0  0  0  0  0  0  0  0  0  0
  188.4320  177.1450  144.8040 O   0  0  0  0  0  0  0  0  0  0  0  0
  189.2310  177.6540  145.8710 C   0  0  0  0  0  2  0  0  0  0  0  0
  188.3000  177.2300  147.8350 C   0  0  0  0  0  1  0  0  0  0  0  0
  189.2620  176.7530  146.9390 O   0  0  0  0  0  0  0  0  0  0  0  0
  1 25  1  0  0  0  0
  1  3  1  0  0  0  0
  2  1  2  0  0  0  0
  3 46  1  0  0  0  0
  4  3  2  0  0  0  0
  5  4  1  0  0  0  0
  6  2  1  0  0  0  0
  6  5  2  0  0  0  0
  8 20  1  0  0  0  0
 10 16  1  0  0  0  0
 11 16  1  0  0  0  0
 13 12  1  0  0  0  0
 13  5  1  0  0  0  0
 13 10  1  0  0  0  0
 14  7  1  0  0  0  0
 15  9  1  0  0  0  0
 15  7  1  0  0  0  0
 18 16  1  0  0  0  0
 18 15  1  0  0  0  0
 19 12  2  0  0  0  0
 19  8  1  0  0  0  0
 19 18  1  0  0  0  0
 20 17  1  0  0  0  0
 20 14  1  0  0  0  0
 21 11  1  0  0  0  0
 21 10  1  0  0  0  0
 21 16  1  0  0  0  0
 22 25  1  0  0  0  0
 23 29  1  0  0  0  0
 24 27  2  0  0  0  0
 26 29  2  0  0  0  0
 27 28  1  0  0  0  0
 27 25  1  0  0  0  0
 28 23  1  0  0  0  0
 29 22  1  0  0  0  0
 30 26  1  0  0  0  0
 30 36  1  0  0  0  0
 31 30  2  0  0  0  0
 32 41  1  0  0  0  0
 33 37  1  0  0  0  0
 34 33  2  0  0  0  0
 34 38  1  0  0  0  0
 35 38  2  0  0  0  0
 36 45  1  0  0  0  0
 37 44  1  0  0  0  0
 38 39  1  0  0  0  0
 39 44  2  0  0  0  0
 40 32  1  0  0  0  0
 40 36  1  0  0  0  0
 41 45  1  0  0  0  0
 41 42  1  0  0  0  0
 42 34  1  0  0  0  0
 43 33  1  0  0  0  0
 45 43  2  0  0  0  0
 46 47  1  0  0  0  0
 47 53  1  0  0  0  0
 48 51  2  0  0  0  0
 49 50  2  0  0  0  0
 50 55  1  0  0  0  0
 50 51  1  0  0  0  0
 51 56  1  0  0  0  0
 52 48  1  0  0  0  0
 53 49  1  0  0  0  0
 53 52  2  0  0  0  0
 54 55  1  0  0  0  0
 56 57  1  0  0  0  0
 57 59  1  0  0  0  0
 59 58  1  0  0  0  0
M  END
>  <MODEL>
2

>  <REMARK>
 VINA RESULT:      -8.7      2.674      6.577
  Name = 
  11 active torsions:
  status: ('A' for Active; 'I' for Inactive)
    1  A    between atoms: C_10  and  C_24
    2  A    between atoms: C_10  and  N_44
    3  A    between atoms: C_13  and  C_43
    4  A    between atoms: C_13  and  C_53
    5  A    between atoms: C_14  and  C_32
    6  A    between atoms: C_20  and  C_51
    7  A    between atoms: C_25  and  O_45
    8  A    between atoms: C_29  and  O_52
    9  A    between atoms: C_29  and  O_57
   10  A    between atoms: C_33  and  C_53
   11  A    between atoms: C_36  and  O_57
                            x       y       z     vdW  Elec       q    Type
                         _______ _______ _______ _____ _____    ______ ____

>  <TORSDO>
F 11

$$$$
=
 OpenBabel10222420043D

 59 68  0  0  1  0  0  0  0  0999 V2000
  191.3240  176.3490  138.4380 C   0  0  0  0  0  0  0  0  0  0  0  0
  192.5720  176.9900  138.5430 C   0  0  0  0  0  3  0  0  0  0  0  0
  191.0950  175.4690  137.3560 C   0  0  0  0  0  0  0  0  0  0  0  0
  192.1140  175.2400  136.4260 C   0  0  0  0  0  3  0  0  0  0  0  0
  193.3620  175.8590  136.5490 C   0  0  0  0  0  0  0  0  0  0  0  0
  193.5850  176.7420  137.6100 C   0  0  0  0  0  3  0  0  0  0  0  0
  197.0540  171.7580  137.0400 N   0  0  0  0  0  2  0  0  0  0  0  0
  194.9580  171.7020  134.8810 C   0  0  0  0  0  2  0  0  0  0  0  0
  199.0690  172.6760  136.0150 C   0  0  0  0  0  1  0  0  0  0  0  0
  195.7920  175.6120  136.5690 C   0  0  1  0  0  3  0  0  0  0  0  0
  198.0450  175.4360  136.0780 O   0  0  0  0  0  0  0  0  0  0  0  0
  194.3390  173.9460  135.4320 N   0  0  0  0  0  0  0  0  0  0  0  0
  194.5230  175.3470  135.7560 C   0  0  1  0  0  3  0  0  0  0  0  0
  196.3110  170.5600  136.6660 C   0  0  0  0  0  2  0  0  0  0  0  0
  197.6030  172.3370  135.8160 C   0  0  2  0  0  3  0  0  0  0  0  0
  196.9290  174.7160  136.3560 C   0  0  1  0  0  0  0  0  0  0  0  0
  194.1260  169.6280  135.9570 C   0  0  0  0  0  1  0  0  0  0  0  0
  196.7600  173.5490  135.3570 C   0  0  2  0  0  3  0  0  0  0  0  0
  195.3050  173.1410  135.1560 C   0  0  0  0  0  0  0  0  0  0  0  0
  194.9050  170.9100  136.1800 C   0  0  2  0  0  3  0  0  0  0  0  0
  196.8560  175.9870  135.6290 N   0  0  1  0  0  0  0  0  0  0  0  0
  189.0440  177.2090  139.1620 C   0  0  0  0  0  2  0  0  0  0  0  0
  188.7640  177.7250  141.6410 O   0  0  0  0  0  0  0  0  0  0  0  0
  192.0510  177.4900  140.8430 O   0  0  0  0  0  0  0  0  0  0  0  0
  190.3190  176.4570  139.5630 C   0  0  2  0  0  3  0  0  0  0  0  0
  187.0750  178.2530  140.1020 N   0  0  0  0  0  0  0  0  0  0  0  0
  190.9100  177.0640  140.8060 C   0  0  0  0  0  0  0  0  0  0  0  0
  190.0250  177.1610  141.9980 C   0  0  0  0  0  2  0  0  0  0  0  0
  188.2350  177.7160  140.3370 C   0  0  0  0  0  0  0  0  0  0  0  0
  186.2020  178.7990  141.1070 C   0  0  0  0  0  0  0  0  0  0  0  0
  186.1200  180.0450  141.2720 O   0  0  0  0  0  0  0  0  0  0  0  0
  183.6320  179.0820  143.3360 C   0  0  0  0  0  2  0  0  0  0  0  0
  187.0860  177.8250  145.3870 C   0  0  0  0  0  0  0  0  0  0  0  0
  186.2130  178.5790  146.0920 C   0  0  0  0  0  0  0  0  0  0  0  0
  185.8040  179.7610  148.1050 O   0  0  0  0  0  0  0  0  0  0  0  0
  185.3360  177.8970  141.9500 C   0  0  2  0  0  3  0  0  0  0  0  0
  188.3380  177.2600  146.0130 C   0  0  0  0  0  2  0  0  0  0  0  0
  186.5180  178.9250  147.4840 C   0  0  0  0  0  0  0  0  0  0  0  0
  187.6720  178.3680  148.1150 N   0  0  0  0  0  0  0  0  0  0  0  0
  183.8720  178.3960  141.9780 C   0  0  0  0  0  2  0  0  0  0  0  0
  184.7940  178.7420  144.1220 N   0  0  0  0  0  0  0  0  0  0  0  0
  185.0100  179.0600  145.4680 N   0  0  0  0  0  2  0  0  0  0  0  0
  186.8440  177.5500  143.9470 C   0  0  0  0  0  3  0  0  0  0  0  0
  188.5050  177.6060  147.4740 C   0  0  0  0  0  3  0  0  0  0  0  0
  185.7310  178.0130  143.3740 C   0  0  0  0  0  0  0  0  0  0  0  0
  189.8240  174.6730  137.2390 C   0  0  0  0  0  2  0  0  0  0  0  0
  188.8310  175.3850  136.3250 C   0  0  0  0  0  2  0  0  0  0  0  0
  185.9700  172.9780  136.3640 N   0  0  0  0  0  0  0  0  0  0  0  0
  186.3840  175.6690  136.7820 C   0  0  0  0  0  3  0  0  0  0  0  0
  185.0880  175.1530  136.8670 C   0  0  0  0  0  0  0  0  0  0  0  0
  184.8980  173.7660  136.6600 C   0  0  0  0  0  0  0  0  0  0  0  0
  187.2320  173.4750  136.2770 C   0  0  0  0  0  3  0  0  0  0  0  0
  187.4620  174.8330  136.4860 C   0  0  0  0  0  0  0  0  0  0  0  0
  184.1670  177.1760  137.9850 C   0  0  0  0  0  1  0  0  0  0  0  0
  184.0400  176.0460  137.1400 O   0  0  0  0  0  0  0  0  0  0  0  0
  183.6250  173.1950  136.7770 O   0  0  0  0  0  0  0  0  0  0  0  0
  183.4100  171.8640  137.2440 C   0  0  0  0  0  2  0  0  0  0  0  0
  181.4800  171.4420  136.2450 C   0  0  0  0  0  1  0  0  0  0  0  0
  182.8300  171.0770  136.2450 O   0  0  0  0  0  0  0  0  0  0  0  0
  1  2  1  0  0  0  0
  1 25  1  0  0  0  0
  3  1  2  0  0  0  0
  4  5  2  0  0  0  0
  4  3  1  0  0  0  0
  5  6  1  0  0  0  0
  6  2  2  0  0  0  0
  8 19  1  0  0  0  0
  8 20  1  0  0  0  0
 11 16  1  0  0  0  0
 12 13  1  0  0  0  0
 13  5  1  0  0  0  0
 13 10  1  0  0  0  0
 14  7  1  0  0  0  0
 15  9  1  0  0  0  0
 15  7  1  0  0  0  0
 16 10  1  0  0  0  0
 17 20  1  0  0  0  0
 18 15  1  0  0  0  0
 18 16  1  0  0  0  0
 19 18  1  0  0  0  0
 19 12  2  0  0  0  0
 20 14  1  0  0  0  0
 21 11  1  0  0  0  0
 21 16  1  0  0  0  0
 21 10  1  0  0  0  0
 22 25  1  0  0  0  0
 22 29  1  0  0  0  0
 23 28  1  0  0  0  0
 25 27  1  0  0  0  0
 26 29  2  0  0  0  0
 26 30  1  0  0  0  0
 27 24  2  0  0  0  0
 27 28  1  0  0  0  0
 29 23  1  0  0  0  0
 30 31  2  0  0  0  0
 30 36  1  0  0  0  0
 32 41  1  0  0  0  0
 33 37  1  0  0  0  0
 33 34  2  0  0  0  0
 34 38  1  0  0  0  0
 36 40  1  0  0  0  0
 36 45  1  0  0  0  0
 37 44  1  0  0  0  0
 38 35  2  0  0  0  0
 38 39  1  0  0  0  0
 40 32  1  0  0  0  0
 41 42  1  0  0  0  0
 42 34  1  0  0  0  0
 43 33  1  0  0  0  0
 44 39  2  0  0  0  0
 45 43  2  0  0  0  0
 45 41  1  0  0  0  0
 46  3  1  0  0  0  0
 47 53  1  0  0  0  0
 47 46  1  0  0  0  0
 48 51  2  0  0  0  0
 49 50  2  0  0  0  0
 50 55  1  0  0  0  0
 51 56  1  0  0  0  0
 51 50  1  0  0  0  0
 52 48  1  0  0  0  0
 52 53  2  0  0  0  0
 53 49  1  0  0  0  0
 55 54  1  0  0  0  0
 56 57  1  0  0  0  0
 58 59  1  0  0  0  0
 59 57  1  0  0  0  0
M  END
>  <MODEL>
3

>  <REMARK>
 VINA RESULT:      -8.6      1.125      2.048
  Name = 
  11 active torsions:
  status: ('A' for Active; 'I' for Inactive)
    1  A    between atoms: C_10  and  C_24
    2  A    between atoms: C_10  and  N_44
    3  A    between atoms: C_13  and  C_43
    4  A    between atoms: C_13  and  C_53
    5  A    between atoms: C_14  and  C_32
    6  A    between atoms: C_20  and  C_51
    7  A    between atoms: C_25  and  O_45
    8  A    between atoms: C_29  and  O_52
    9  A    between atoms: C_29  and  O_57
   10  A    between atoms: C_33  and  C_53
   11  A    between atoms: C_36  and  O_57
                            x       y       z     vdW  Elec       q    Type
                         _______ _______ _______ _____ _____    ______ ____

>  <TORSDO>
F 11

$$$$
=
 OpenBabel10222420043D

 59 68  0  0  1  0  0  0  0  0999 V2000
  186.1120  176.8450  136.4790 C   0  0  0  0  0  0  0  0  0  0  0  0
  184.9020  176.7260  135.7700 C   0  0  0  0  0  3  0  0  0  0  0  0
  186.0970  177.4290  137.7660 C   0  0  0  0  0  0  0  0  0  0  0  0
  184.8850  177.8590  138.3150 C   0  0  0  0  0  3  0  0  0  0  0  0
  183.6810  177.7150  137.6180 C   0  0  0  0  0  0  0  0  0  0  0  0
  183.6960  177.1520  136.3380 C   0  0  0  0  0  3  0  0  0  0  0  0
  180.3670  181.9010  139.0970 N   0  0  0  0  0  2  0  0  0  0  0  0
  179.5060  179.9080  137.0120 C   0  0  0  0  0  2  0  0  0  0  0  0
  179.4000  181.1480  141.2060 C   0  0  0  0  0  1  0  0  0  0  0  0
  182.6710  178.5800  139.6670 C   0  0  1  0  0  3  0  0  0  0  0  0
  181.3890  179.0030  141.5450 O   0  0  0  0  0  0  0  0  0  0  0  0
  181.4130  178.5580  137.5230 N   0  0  0  0  0  0  0  0  0  0  0  0
  182.3830  177.8630  138.3470 C   0  0  1  0  0  3  0  0  0  0  0  0
  179.6800  182.2670  137.8630 C   0  0  0  0  0  2  0  0  0  0  0  0
  179.5940  180.8370  139.7330 C   0  0  2  0  0  3  0  0  0  0  0  0
  181.5910  179.3720  140.2540 C   0  0  1  0  0  0  0  0  0  0  0  0
  179.4220  181.8220  135.4380 C   0  0  0  0  0  1  0  0  0  0  0  0
  180.2520  179.4590  139.4880 C   0  0  2  0  0  3  0  0  0  0  0  0
  180.4010  179.1990  137.9940 C   0  0  0  0  0  0  0  0  0  0  0  0
  180.0320  181.3070  136.7270 C   0  0  2  0  0  3  0  0  0  0  0  0
  181.8040  177.9900  140.6960 N   0  0  1  0  0  0  0  0  0  0  0  0
  188.1700  175.4590  137.0330 C   0  0  0  0  0  2  0  0  0  0  0  0
  190.1980  175.7930  135.5290 O   0  0  0  0  0  0  0  0  0  0  0  0
  188.0020  178.3470  135.1410 O   0  0  0  0  0  0  0  0  0  0  0  0
  187.3680  176.1900  135.9490 C   0  0  2  0  0  3  0  0  0  0  0  0
  190.3310  174.4570  137.4510 N   0  0  0  0  0  0  0  0  0  0  0  0
  188.2540  177.1570  135.2130 C   0  0  0  0  0  0  0  0  0  0  0  0
  189.4900  176.6050  134.5940 C   0  0  0  0  0  2  0  0  0  0  0  0
  189.6090  175.1830  136.6520 C   0  0  0  0  0  0  0  0  0  0  0  0
  191.7160  174.1280  137.2390 C   0  0  0  0  0  0  0  0  0  0  0  0
  192.0390  173.2310  136.4150 O   0  0  0  0  0  0  0  0  0  0  0  0
  194.0490  176.5230  136.5530 C   0  0  0  0  0  2  0  0  0  0  0  0
  196.0090  172.8580  137.2200 C   0  0  0  0  0  0  0  0  0  0  0  0
  196.6090  173.7090  136.3570 C   0  0  0  0  0  0  0  0  0  0  0  0
  198.3470  174.0150  134.7740 O   0  0  0  0  0  0  0  0  0  0  0  0
  192.8070  174.8780  137.9610 C   0  0  2  0  0  3  0  0  0  0  0  0
  196.6290  171.5340  137.5930 C   0  0  0  0  0  2  0  0  0  0  0  0
  197.8610  173.3110  135.7040 C   0  0  0  0  0  0  0  0  0  0  0  0
  198.4920  172.0850  136.0710 N   0  0  0  0  0  0  0  0  0  0  0  0
  192.8560  176.3580  137.5140 C   0  0  0  0  0  2  0  0  0  0  0  0
  194.7840  175.2860  136.6760 N   0  0  0  0  0  0  0  0  0  0  0  0
  196.0050  174.9800  136.0630 N   0  0  0  0  0  2  0  0  0  0  0  0
  194.6900  173.2000  137.8120 C   0  0  0  0  0  3  0  0  0  0  0  0
  197.9600  171.2680  136.9290 C   0  0  0  0  0  3  0  0  0  0  0  0
  194.1320  174.3770  137.5210 C   0  0  0  0  0  0  0  0  0  0  0  0
  187.3340  177.4940  138.6190 C   0  0  0  0  0  2  0  0  0  0  0  0
  187.2360  178.6470  139.6140 C   0  0  0  0  0  2  0  0  0  0  0  0
  186.5910  177.8800  143.2170 N   0  0  0  0  0  0  0  0  0  0  0  0
  188.6810  177.7030  141.4300 C   0  0  0  0  0  3  0  0  0  0  0  0
  188.8810  177.3200  142.7600 C   0  0  0  0  0  0  0  0  0  0  0  0
  187.7910  177.4090  143.6590 C   0  0  0  0  0  0  0  0  0  0  0  0
  186.3930  178.2570  141.9260 C   0  0  0  0  0  3  0  0  0  0  0  0
  187.4370  178.1730  141.0080 C   0  0  0  0  0  0  0  0  0  0  0  0
  191.3400  177.1790  142.4070 C   0  0  0  0  0  1  0  0  0  0  0  0
  190.1600  176.8820  143.1340 O   0  0  0  0  0  0  0  0  0  0  0  0
  187.9300  176.9970  144.9900 O   0  0  0  0  0  0  0  0  0  0  0  0
  188.3550  177.8710  146.0340 C   0  0  0  0  0  2  0  0  0  0  0  0
  188.6930  178.1690  148.2010 C   0  0  0  0  0  1  0  0  0  0  0  0
  188.4830  177.1760  147.2400 O   0  0  0  0  0  0  0  0  0  0  0  0
  1  3  1  0  0  0  0
  2  6  1  0  0  0  0
  2  1  2  0  0  0  0
  3  4  2  0  0  0  0
  3 46  1  0  0  0  0
  5  4  1  0  0  0  0
  5 13  1  0  0  0  0
  6  5  2  0  0  0  0
  7 15  1  0  0  0  0
  8 19  1  0  0  0  0
 10 16  1  0  0  0  0
 10 21  1  0  0  0  0
 12 19  2  0  0  0  0
 12 13  1  0  0  0  0
 13 10  1  0  0  0  0
 14  7  1  0  0  0  0
 15  9  1  0  0  0  0
 16 21  1  0  0  0  0
 16 11  1  0  0  0  0
 17 20  1  0  0  0  0
 18 15  1  0  0  0  0
 18 16  1  0  0  0  0
 19 18  1  0  0  0  0
 20  8  1  0  0  0  0
 20 14  1  0  0  0  0
 21 11  1  0  0  0  0
 23 29  1  0  0  0  0
 24 27  2  0  0  0  0
 25  1  1  0  0  0  0
 25 22  1  0  0  0  0
 27 25  1  0  0  0  0
 28 27  1  0  0  0  0
 28 23  1  0  0  0  0
 29 22  1  0  0  0  0
 29 26  2  0  0  0  0
 30 26  1  0  0  0  0
 30 36  1  0  0  0  0
 31 30  2  0  0  0  0
 32 41  1  0  0  0  0
 32 40  1  0  0  0  0
 33 37  1  0  0  0  0
 33 43  1  0  0  0  0
 34 33  2  0  0  0  0
 35 38  2  0  0  0  0
 38 39  1  0  0  0  0
 38 34  1  0  0  0  0
 39 44  2  0  0  0  0
 40 36  1  0  0  0  0
 41 45  1  0  0  0  0
 42 34  1  0  0  0  0
 42 41  1  0  0  0  0
 44 37  1  0  0  0  0
 45 43  2  0  0  0  0
 45 36  1  0  0  0  0
 46 47  1  0  0  0  0
 47 53  1  0  0  0  0
 48 51  2  0  0  0  0
 49 50  2  0  0  0  0
 50 55  1  0  0  0  0
 50 51  1  0  0  0  0
 51 56  1  0  0  0  0
 52 48  1  0  0  0  0
 53 49  1  0  0  0  0
 53 52  2  0  0  0  0
 54 55  1  0  0  0  0
 56 57  1  0  0  0  0
 57 59  1  0  0  0  0
 59 58  1  0  0  0  0
M  END
>  <MODEL>
4

>  <REMARK>
 VINA RESULT:      -7.7      2.948     12.457
  Name = 
  11 active torsions:
  status: ('A' for Active; 'I' for Inactive)
    1  A    between atoms: C_10  and  C_24
    2  A    between atoms: C_10  and  N_44
    3  A    between atoms: C_13  and  C_43
    4  A    between atoms: C_13  and  C_53
    5  A    between atoms: C_14  and  C_32
    6  A    between atoms: C_20  and  C_51
    7  A    between atoms: C_25  and  O_45
    8  A    between atoms: C_29  and  O_52
    9  A    between atoms: C_29  and  O_57
   10  A    between atoms: C_33  and  C_53
   11  A    between atoms: C_36  and  O_57
                            x       y       z     vdW  Elec       q    Type
                         _______ _______ _______ _____ _____    ______ ____

>  <TORSDO>
F 11

$$$$
=
 OpenBabel10222420043D

 59 68  0  0  1  0  0  0  0  0999 V2000
  188.4490  175.5000  136.5700 C   0  0  0  0  0  0  0  0  0  0  0  0
  188.8790  174.3130  135.9460 C   0  0  0  0  0  3  0  0  0  0  0  0
  189.4120  176.4610  136.9500 C   0  0  0  0  0  0  0  0  0  0  0  0
  190.7640  176.2260  136.6840 C   0  0  0  0  0  3  0  0  0  0  0  0
  191.1850  175.0580  136.0400 C   0  0  0  0  0  0  0  0  0  0  0  0
  190.2350  174.0980  135.6780 C   0  0  0  0  0  3  0  0  0  0  0  0
  196.1460  173.2950  137.7660 N   0  0  0  0  0  2  0  0  0  0  0  0
  194.6640  171.8490  135.5810 C   0  0  0  0  0  2  0  0  0  0  0  0
  197.7080  174.8030  136.6530 C   0  0  0  0  0  1  0  0  0  0  0  0
  193.4450  175.9590  136.2570 C   0  0  1  0  0  3  0  0  0  0  0  0
  195.6020  176.7370  135.9520 O   0  0  0  0  0  0  0  0  0  0  0  0
  193.0590  173.6210  135.5050 N   0  0  0  0  0  0  0  0  0  0  0  0
  192.5670  174.9840  135.4700 C   0  0  1  0  0  3  0  0  0  0  0  0
  196.0620  171.8420  137.6710 C   0  0  0  0  0  2  0  0  0  0  0  0
  196.5850  173.7990  136.4670 C   0  0  2  0  0  3  0  0  0  0  0  0
  194.8740  175.6600  136.3430 C   0  0  1  0  0  0  0  0  0  0  0  0
  194.6410  169.8920  137.1040 C   0  0  0  0  0  1  0  0  0  0  0  0
  195.3910  174.3690  135.6680 C   0  0  2  0  0  3  0  0  0  0  0  0
  194.3080  173.3100  135.4980 C   0  0  0  0  0  0  0  0  0  0  0  0
  194.7440  171.4030  137.0350 C   0  0  2  0  0  3  0  0  0  0  0  0
  194.3830  176.5790  135.3120 N   0  0  1  0  0  0  0  0  0  0  0  0
  186.0940  174.5630  136.7760 C   0  0  0  0  0  2  0  0  0  0  0  0
  184.2220  175.9860  135.7960 O   0  0  0  0  0  0  0  0  0  0  0  0
  187.2290  176.9990  134.6010 O   0  0  0  0  0  0  0  0  0  0  0  0
  186.9730  175.8160  136.6600 C   0  0  2  0  0  3  0  0  0  0  0  0
  183.7950  173.8310  136.6170 N   0  0  0  0  0  0  0  0  0  0  0  0
  186.4990  176.6780  135.5230 C   0  0  0  0  0  0  0  0  0  0  0  0
  185.0720  177.1030  135.5440 C   0  0  0  0  0  2  0  0  0  0  0  0
  184.6400  174.8000  136.4270 C   0  0  0  0  0  0  0  0  0  0  0  0
  182.3890  173.8940  136.3140 C   0  0  0  0  0  0  0  0  0  0  0  0
  181.9990  174.0600  135.1280 O   0  0  0  0  0  0  0  0  0  0  0  0
  179.1320  174.7320  136.8990 C   0  0  0  0  0  2  0  0  0  0  0  0
  181.6000  176.9540  139.4860 C   0  0  0  0  0  0  0  0  0  0  0  0
  180.4470  177.5470  139.1040 C   0  0  0  0  0  0  0  0  0  0  0  0
  179.1550  179.5350  139.1040 O   0  0  0  0  0  0  0  0  0  0  0  0
  181.3570  173.7180  137.4000 C   0  0  2  0  0  3  0  0  0  0  0  0
  182.5520  177.6120  140.4540 C   0  0  0  0  0  2  0  0  0  0  0  0
  180.1390  178.9000  139.5790 C   0  0  0  0  0  0  0  0  0  0  0  0
  180.9980  179.5280  140.5300 N   0  0  0  0  0  0  0  0  0  0  0  0
  179.9590  173.4370  136.8000 C   0  0  0  0  0  2  0  0  0  0  0  0
  179.9160  175.5960  137.7490 N   0  0  0  0  0  0  0  0  0  0  0  0
  179.5480  176.8650  138.2130 N   0  0  0  0  0  2  0  0  0  0  0  0
  181.9780  175.6270  138.9340 C   0  0  0  0  0  3  0  0  0  0  0  0
  182.0900  178.9640  140.9480 C   0  0  0  0  0  3  0  0  0  0  0  0
  181.1410  175.0090  138.0970 C   0  0  0  0  0  0  0  0  0  0  0  0
  189.0150  177.7930  137.5270 C   0  0  0  0  0  2  0  0  0  0  0  0
  188.0880  177.6010  138.7240 C   0  0  0  0  0  2  0  0  0  0  0  0
  188.9100  178.0870  142.3400 N   0  0  0  0  0  0  0  0  0  0  0  0
  190.2150  177.3570  140.0260 C   0  0  0  0  0  3  0  0  0  0  0  0
  190.9360  177.4510  141.2200 C   0  0  0  0  0  0  0  0  0  0  0  0
  190.2440  177.8180  142.3990 C   0  0  0  0  0  0  0  0  0  0  0  0
  188.2050  178.0010  141.1810 C   0  0  0  0  0  3  0  0  0  0  0  0
  188.8470  177.6310  140.0010 C   0  0  0  0  0  0  0  0  0  0  0  0
  193.1210  177.3900  140.0320 C   0  0  0  0  0  1  0  0  0  0  0  0
  192.3140  177.1910  141.1790 O   0  0  0  0  0  0  0  0  0  0  0  0
  190.9140  177.8840  143.6270 O   0  0  0  0  0  0  0  0  0  0  0  0
  191.5940  176.7690  144.2030 C   0  0  0  0  0  2  0  0  0  0  0  0
  190.2450  177.1990  145.9040 C   0  0  0  0  0  1  0  0  0  0  0  0
  191.5600  176.8350  145.5980 O   0  0  0  0  0  0  0  0  0  0  0  0
  1 25  1  0  0  0  0
  1  3  1  0  0  0  0
  2  1  2  0  0  0  0
  3 46  1  0  0  0  0
  4  3  2  0  0  0  0
  5  4  1  0  0  0  0
  6  2  1  0  0  0  0
  6  5  2  0  0  0  0
  8 20  1  0  0  0  0
 10 16  1  0  0  0  0
 11 16  1  0  0  0  0
 13 12  1  0  0  0  0
 13  5  1  0  0  0  0
 13 10  1  0  0  0  0
 14  7  1  0  0  0  0
 15  9  1  0  0  0  0
 15  7  1  0  0  0  0
 18 16  1  0  0  0  0
 18 15  1  0  0  0  0
 19 12  2  0  0  0  0
 19  8  1  0  0  0  0
 19 18  1  0  0  0  0
 20 17  1  0  0  0  0
 20 14  1  0  0  0  0
 21 11  1  0  0  0  0
 21 10  1  0  0  0  0
 21 16  1  0  0  0  0
 23 29  1  0  0  0  0
 24 27  2  0  0  0  0
 25 22  1  0  0  0  0
 27 28  1  0  0  0  0
 27 25  1  0  0  0  0
 28 23  1  0  0  0  0
 29 26  2  0  0  0  0
 29 22  1  0  0  0  0
 30 26  1  0  0  0  0
 30 36  1  0  0  0  0
 31 30  2  0  0  0  0
 32 41  1  0  0  0  0
 33 37  1  0  0  0  0
 34 33  2  0  0  0  0
 34 38  1  0  0  0  0
 35 38  2  0  0  0  0
 36 45  1  0  0  0  0
 37 44  1  0  0  0  0
 38 39  1  0  0  0  0
 39 44  2  0  0  0  0
 40 32  1  0  0  0  0
 40 36  1  0  0  0  0
 41 45  1  0  0  0  0
 41 42  1  0  0  0  0
 42 34  1  0  0  0  0
 43 33  1  0  0  0  0
 45 43  2  0  0  0  0
 46 47  1  0  0  0  0
 47 53  1  0  0  0  0
 48 51  2  0  0  0  0
 49 50  2  0  0  0  0
 50 51  1  0  0  0  0
 51 56  1  0  0  0  0
 52 48  1  0  0  0  0
 53 49  1  0  0  0  0
 53 52  2  0  0  0  0
 54 55  1  0  0  0  0
 55 50  1  0  0  0  0
 56 57  1  0  0  0  0
 57 59  1  0  0  0  0
 59 58  1  0  0  0  0
M  END
>  <MODEL>
5

>  <REMARK>
 VINA RESULT:      -7.7      2.601      6.713
  Name = 
  11 active torsions:
  status: ('A' for Active; 'I' for Inactive)
    1  A    between atoms: C_10  and  C_24
    2  A    between atoms: C_10  and  N_44
    3  A    between atoms: C_13  and  C_43
    4  A    between atoms: C_13  and  C_53
    5  A    between atoms: C_14  and  C_32
    6  A    between atoms: C_20  and  C_51
    7  A    between atoms: C_25  and  O_45
    8  A    between atoms: C_29  and  O_52
    9  A    between atoms: C_29  and  O_57
   10  A    between atoms: C_33  and  C_53
   11  A    between atoms: C_36  and  O_57
                            x       y       z     vdW  Elec       q    Type
                         _______ _______ _______ _____ _____    ______ ____

>  <TORSDO>
F 11

$$$$
=
 OpenBabel10222420043D

 59 68  0  0  1  0  0  0  0  0999 V2000
  186.7630  175.7210  136.9080 C   0  0  0  0  0  0  0  0  0  0  0  0
  187.3480  174.7130  136.1190 C   0  0  0  0  0  3  0  0  0  0  0  0
  187.6030  176.6280  137.5920 C   0  0  0  0  0  0  0  0  0  0  0  0
  188.9910  176.5180  137.4600 C   0  0  0  0  0  3  0  0  0  0  0  0
  189.5670  175.5310  136.6540 C   0  0  0  0  0  0  0  0  0  0  0  0
  188.7380  174.6220  135.9890 C   0  0  0  0  0  3  0  0  0  0  0  0
  194.1500  172.4870  137.3100 N   0  0  0  0  0  2  0  0  0  0  0  0
  192.9000  172.8380  134.5940 C   0  0  0  0  0  2  0  0  0  0  0  0
  195.9260  174.1540  137.4680 C   0  0  0  0  0  1  0  0  0  0  0  0
  191.8220  175.8330  137.5430 C   0  0  1  0  0  3  0  0  0  0  0  0
  194.0380  176.3650  137.9370 O   0  0  0  0  0  0  0  0  0  0  0  0
  191.4170  174.4830  135.4950 N   0  0  0  0  0  0  0  0  0  0  0  0
  191.0070  175.6430  136.2620 C   0  0  1  0  0  3  0  0  0  0  0  0
  194.0030  171.4060  136.3420 C   0  0  0  0  0  2  0  0  0  0  0  0
  194.7860  173.6100  136.6250 C   0  0  2  0  0  3  0  0  0  0  0  0
  193.2090  175.3680  137.5340 C   0  0  1  0  0  0  0  0  0  0  0  0
  192.5690  170.3800  134.6010 C   0  0  0  0  0  1  0  0  0  0  0  0
  193.7420  174.6890  136.2530 C   0  0  2  0  0  3  0  0  0  0  0  0
  192.6370  174.0870  135.3930 C   0  0  0  0  0  0  0  0  0  0  0  0
  192.7600  171.6040  135.4750 C   0  0  2  0  0  3  0  0  0  0  0  0
  192.9100  176.7740  137.2450 N   0  0  1  0  0  0  0  0  0  0  0  0
  184.8410  177.2890  137.4670 C   0  0  0  0  0  2  0  0  0  0  0  0
  182.5800  176.1980  137.8970 O   0  0  0  0  0  0  0  0  0  0  0  0
  185.0610  173.8950  138.0850 O   0  0  0  0  0  0  0  0  0  0  0  0
  185.2670  175.9410  136.8700 C   0  0  2  0  0  3  0  0  0  0  0  0
  182.8940  178.4960  138.2410 N   0  0  0  0  0  0  0  0  0  0  0  0
  184.5040  174.8220  137.5220 C   0  0  0  0  0  0  0  0  0  0  0  0
  183.0180  174.9050  137.4860 C   0  0  0  0  0  2  0  0  0  0  0  0
  183.3770  177.3570  137.8470 C   0  0  0  0  0  0  0  0  0  0  0  0
  181.5330  178.7150  138.6560 C   0  0  0  0  0  0  0  0  0  0  0  0
  181.2340  178.7270  139.8800 O   0  0  0  0  0  0  0  0  0  0  0  0
  181.2630  179.8510  135.4480 C   0  0  0  0  0  2  0  0  0  0  0  0
  179.6340  182.7240  138.0580 C   0  0  0  0  0  0  0  0  0  0  0  0
  180.1940  183.1970  136.9220 C   0  0  0  0  0  0  0  0  0  0  0  0
  180.8850  185.1150  135.7110 O   0  0  0  0  0  0  0  0  0  0  0  0
  180.4500  178.9770  137.6410 C   0  0  2  0  0  3  0  0  0  0  0  0
  178.9640  183.6370  139.0550 C   0  0  0  0  0  2  0  0  0  0  0  0
  180.2220  184.6430  136.6780 C   0  0  0  0  0  0  0  0  0  0  0  0
  179.5580  185.5260  137.5820 N   0  0  0  0  0  0  0  0  0  0  0  0
  180.9050  178.5660  136.2200 C   0  0  0  0  0  2  0  0  0  0  0  0
  180.7740  180.9210  136.2850 N   0  0  0  0  0  0  0  0  0  0  0  0
  180.7840  182.2870  135.9770 N   0  0  0  0  0  2  0  0  0  0  0  0
  179.6870  181.2730  138.3700 C   0  0  0  0  0  3  0  0  0  0  0  0
  178.9740  185.0950  138.6590 C   0  0  0  0  0  3  0  0  0  0  0  0
  180.2490  180.4380  137.4920 C   0  0  0  0  0  0  0  0  0  0  0  0
  187.0460  177.7910  138.3680 C   0  0  0  0  0  2  0  0  0  0  0  0
  188.1430  178.4510  139.2000 C   0  0  0  0  0  2  0  0  0  0  0  0
  187.0950  177.9540  142.7550 N   0  0  0  0  0  0  0  0  0  0  0  0
  189.1570  177.1740  141.1020 C   0  0  0  0  0  3  0  0  0  0  0  0
  189.1620  176.7740  142.4410 C   0  0  0  0  0  0  0  0  0  0  0  0
  188.0880  177.1760  143.2710 C   0  0  0  0  0  0  0  0  0  0  0  0
  187.0870  178.3490  141.4550 C   0  0  0  0  0  3  0  0  0  0  0  0
  188.1200  177.9640  140.6030 C   0  0  0  0  0  0  0  0  0  0  0  0
  191.3560  176.5400  143.5900 C   0  0  0  0  0  1  0  0  0  0  0  0
  190.2440  176.0040  142.8940 O   0  0  0  0  0  0  0  0  0  0  0  0
  188.0270  176.7650  144.6080 O   0  0  0  0  0  0  0  0  0  0  0  0
  188.4260  177.5960  145.6970 C   0  0  0  0  0  2  0  0  0  0  0  0
  188.0740  178.1590  147.8080 C   0  0  0  0  0  1  0  0  0  0  0  0
  187.4350  177.6330  146.6800 O   0  0  0  0  0  0  0  0  0  0  0  0
  1  3  1  0  0  0  0
  2  1  2  0  0  0  0
  3 46  1  0  0  0  0
  4  3  2  0  0  0  0
  5  4  1  0  0  0  0
  6  2  1  0  0  0  0
  6  5  2  0  0  0  0
  8 19  1  0  0  0  0
  8 20  1  0  0  0  0
 12 13  1  0  0  0  0
 13  5  1  0  0  0  0
 13 10  1  0  0  0  0
 14  7  1  0  0  0  0
 15  7  1  0  0  0  0
 15  9  1  0  0  0  0
 16 10  1  0  0  0  0
 16 11  1  0  0  0  0
 17 20  1  0  0  0  0
 18 15  1  0  0  0  0
 18 16  1  0  0  0  0
 19 12  2  0  0  0  0
 19 18  1  0  0  0  0
 20 14  1  0  0  0  0
 21 16  1  0  0  0  0
 21 10  1  0  0  0  0
 21 11  1  0  0  0  0
 22 29  1  0  0  0  0
 25  1  1  0  0  0  0
 25 22  1  0  0  0  0
 25 27  1  0  0  0  0
 26 30  1  0  0  0  0
 27 24  2  0  0  0  0
 28 27  1  0  0  0  0
 28 23  1  0  0  0  0
 29 23  1  0  0  0  0
 29 26  2  0  0  0  0
 30 31  2  0  0  0  0
 32 40  1  0  0  0  0
 32 41  1  0  0  0  0
 33 43  1  0  0  0  0
 33 37  1  0  0  0  0
 34 33  2  0  0  0  0
 35 38  2  0  0  0  0
 36 30  1  0  0  0  0
 38 34  1  0  0  0  0
 38 39  1  0  0  0  0
 39 44  2  0  0  0  0
 40 36  1  0  0  0  0
 41 45  1  0  0  0  0
 42 41  1  0  0  0  0
 42 34  1  0  0  0  0
 44 37  1  0  0  0  0
 45 36  1  0  0  0  0
 45 43  2  0  0  0  0
 46 47  1  0  0  0  0
 47 53  1  0  0  0  0
 48 51  2  0  0  0  0
 49 50  2  0  0  0  0
 50 55  1  0  0  0  0
 50 51  1  0  0  0  0
 51 56  1  0  0  0  0
 52 48  1  0  0  0  0
 53 49  1  0  0  0  0
 53 52  2  0  0  0  0
 55 54  1  0  0  0  0
 56 57  1  0  0  0  0
 57 59  1  0  0  0  0
 59 58  1  0  0  0  0
M  END
>  <MODEL>
6

>  <REMARK>
 VINA RESULT:      -7.5      3.399      7.575
  Name = 
  11 active torsions:
  status: ('A' for Active; 'I' for Inactive)
    1  A    between atoms: C_10  and  C_24
    2  A    between atoms: C_10  and  N_44
    3  A    between atoms: C_13  and  C_43
    4  A    between atoms: C_13  and  C_53
    5  A    between atoms: C_14  and  C_32
    6  A    between atoms: C_20  and  C_51
    7  A    between atoms: C_25  and  O_45
    8  A    between atoms: C_29  and  O_52
    9  A    between atoms: C_29  and  O_57
   10  A    between atoms: C_33  and  C_53
   11  A    between atoms: C_36  and  O_57
                            x       y       z     vdW  Elec       q    Type
                         _______ _______ _______ _____ _____    ______ ____

>  <TORSDO>
F 11

$$$$
=
 OpenBabel10222420043D

 59 68  0  0  1  0  0  0  0  0999 V2000
  187.7370  174.4750  136.2520 C   0  0  0  0  0  0  0  0  0  0  0  0
  188.5960  173.3650  136.3580 C   0  0  0  0  0  3  0  0  0  0  0  0
  188.2750  175.7730  136.3990 C   0  0  0  0  0  0  0  0  0  0  0  0
  189.6450  175.9310  136.6270 C   0  0  0  0  0  3  0  0  0  0  0  0
  190.4990  174.8260  136.7050 C   0  0  0  0  0  0  0  0  0  0  0  0
  189.9660  173.5400  136.5760 C   0  0  0  0  0  3  0  0  0  0  0  0
  195.0260  172.2920  138.6500 N   0  0  0  0  0  2  0  0  0  0  0  0
  194.3700  172.2490  135.7130 C   0  0  0  0  0  2  0  0  0  0  0  0
  196.6110  174.1190  138.9720 C   0  0  0  0  0  1  0  0  0  0  0  0
  192.4850  175.4200  137.9980 C   0  0  1  0  0  3  0  0  0  0  0  0
  194.5240  176.1870  138.7750 O   0  0  0  0  0  0  0  0  0  0  0  0
  192.6210  173.8370  136.0860 N   0  0  0  0  0  0  0  0  0  0  0  0
  191.9790  175.0270  136.6080 C   0  0  1  0  0  3  0  0  0  0  0  0
  195.1630  171.1090  137.8090 C   0  0  0  0  0  2  0  0  0  0  0  0
  195.7180  173.3920  137.9830 C   0  0  2  0  0  3  0  0  0  0  0  0
  193.8690  175.0830  138.3320 C   0  0  1  0  0  0  0  0  0  0  0  0
  194.2090  169.7850  135.9430 C   0  0  0  0  0  1  0  0  0  0  0  0
  194.7090  174.3270  137.2780 C   0  0  2  0  0  3  0  0  0  0  0  0
  193.8580  173.5440  136.2860 C   0  0  0  0  0  0  0  0  0  0  0  0
  194.1260  171.1040  136.6860 C   0  0  2  0  0  3  0  0  0  0  0  0
  193.5470  176.4200  137.8220 N   0  0  1  0  0  0  0  0  0  0  0  0
  185.2880  174.4790  136.9370 C   0  0  0  0  0  2  0  0  0  0  0  0
  183.7290  172.9980  135.5720 O   0  0  0  0  0  0  0  0  0  0  0  0
  186.9600  172.1160  135.0480 O   0  0  0  0  0  0  0  0  0  0  0  0
  186.3050  174.2850  135.8040 C   0  0  2  0  0  3  0  0  0  0  0  0
  182.9660  174.1020  137.4950 N   0  0  0  0  0  0  0  0  0  0  0  0
  186.0830  172.9580  135.1320 C   0  0  0  0  0  0  0  0  0  0  0  0
  184.7210  172.6900  134.5950 C   0  0  0  0  0  2  0  0  0  0  0  0
  183.9280  173.8790  136.6510 C   0  0  0  0  0  0  0  0  0  0  0  0
  181.6280  173.5840  137.3740 C   0  0  0  0  0  0  0  0  0  0  0  0
  181.3830  172.3800  137.6550 O   0  0  0  0  0  0  0  0  0  0  0  0
  181.1640  176.4630  135.6000 C   0  0  0  0  0  2  0  0  0  0  0  0
  180.3770  177.2200  139.6660 C   0  0  0  0  0  0  0  0  0  0  0  0
  180.8670  178.2570  138.9480 C   0  0  0  0  0  0  0  0  0  0  0  0
  181.7190  180.4680  139.0030 O   0  0  0  0  0  0  0  0  0  0  0  0
  180.4890  174.4780  136.9550 C   0  0  2  0  0  3  0  0  0  0  0  0
  179.9990  177.3670  141.1190 C   0  0  0  0  0  2  0  0  0  0  0  0
  181.1090  179.5430  139.6100 C   0  0  0  0  0  0  0  0  0  0  0  0
  180.7190  179.7220  140.9710 N   0  0  0  0  0  0  0  0  0  0  0  0
  180.6910  175.0000  135.5130 C   0  0  0  0  0  2  0  0  0  0  0  0
  180.9700  176.8220  136.9850 N   0  0  0  0  0  0  0  0  0  0  0  0
  181.1730  178.0850  137.5540 N   0  0  0  0  0  2  0  0  0  0  0  0
  180.2220  175.8830  139.0380 C   0  0  0  0  0  3  0  0  0  0  0  0
  180.2070  178.7570  141.6720 C   0  0  0  0  0  3  0  0  0  0  0  0
  180.5220  175.7320  137.7460 C   0  0  0  0  0  0  0  0  0  0  0  0
  187.4350  177.0050  136.1960 C   0  0  0  0  0  2  0  0  0  0  0  0
  188.0420  178.1930  136.9380 C   0  0  0  0  0  2  0  0  0  0  0  0
  185.8240  178.7350  139.9000 N   0  0  0  0  0  0  0  0  0  0  0  0
  188.4310  177.9950  139.4050 C   0  0  0  0  0  3  0  0  0  0  0  0
  187.9910  178.1140  140.7270 C   0  0  0  0  0  0  0  0  0  0  0  0
  186.6450  178.4860  140.9590 C   0  0  0  0  0  0  0  0  0  0  0  0
  186.2480  178.6240  138.6130 C   0  0  0  0  0  3  0  0  0  0  0  0
  187.5630  178.2500  138.3430 C   0  0  0  0  0  0  0  0  0  0  0  0
  190.2680  177.5100  141.5290 C   0  0  0  0  0  1  0  0  0  0  0  0
  188.9160  177.8740  141.7530 O   0  0  0  0  0  0  0  0  0  0  0  0
  186.1460  178.5770  142.2640 O   0  0  0  0  0  0  0  0  0  0  0  0
  184.8120  178.9900  142.5590 C   0  0  0  0  0  2  0  0  0  0  0  0
  183.4370  179.2830  144.2690 C   0  0  0  0  0  1  0  0  0  0  0  0
  184.7400  179.5510  143.8370 O   0  0  0  0  0  0  0  0  0  0  0  0
  1  2  2  0  0  0  0
  1  3  1  0  0  0  0
  2  6  1  0  0  0  0
  3  4  2  0  0  0  0
  4  5  1  0  0  0  0
  6  5  2  0  0  0  0
  8 19  1  0  0  0  0
  8 20  1  0  0  0  0
 10 16  1  0  0  0  0
 12 19  2  0  0  0  0
 12 13  1  0  0  0  0
 13  5  1  0  0  0  0
 13 10  1  0  0  0  0
 14  7  1  0  0  0  0
 15  7  1  0  0  0  0
 15  9  1  0  0  0  0
 16 11  1  0  0  0  0
 17 20  1  0  0  0  0
 18 15  1  0  0  0  0
 18 16  1  0  0  0  0
 19 18  1  0  0  0  0
 20 14  1  0  0  0  0
 21 10  1  0  0  0  0
 21 16  1  0  0  0  0
 21 11  1  0  0  0  0
 23 29  1  0  0  0  0
 24 27  2  0  0  0  0
 25  1  1  0  0  0  0
 25 22  1  0  0  0  0
 27 25  1  0  0  0  0
 28 27  1  0  0  0  0
 28 23  1  0  0  0  0
 29 22  1  0  0  0  0
 29 26  2  0  0  0  0
 30 26  1  0  0  0  0
 30 31  2  0  0  0  0
 32 41  1  0  0  0  0
 33 37  1  0  0  0  0
 34 38  1  0  0  0  0
 34 33  2  0  0  0  0
 35 38  2  0  0  0  0
 36 30  1  0  0  0  0
 36 45  1  0  0  0  0
 37 44  1  0  0  0  0
 38 39  1  0  0  0  0
 39 44  2  0  0  0  0
 40 32  1  0  0  0  0
 40 36  1  0  0  0  0
 41 42  1  0  0  0  0
 41 45  1  0  0  0  0
 42 34  1  0  0  0  0
 43 33  1  0  0  0  0
 45 43  2  0  0  0  0
 46  3  1  0  0  0  0
 46 47  1  0  0  0  0
 47 53  1  0  0  0  0
 48 51  2  0  0  0  0
 49 50  2  0  0  0  0
 50 51  1  0  0  0  0
 50 55  1  0  0  0  0
 51 56  1  0  0  0  0
 52 48  1  0  0  0  0
 53 52  2  0  0  0  0
 53 49  1  0  0  0  0
 54 55  1  0  0  0  0
 56 57  1  0  0  0  0
 57 59  1  0  0  0  0
 59 58  1  0  0  0  0
M  END
>  <MODEL>
7

>  <REMARK>
 VINA RESULT:      -7.5      2.896      6.439
  Name = 
  11 active torsions:
  status: ('A' for Active; 'I' for Inactive)
    1  A    between atoms: C_10  and  C_24
    2  A    between atoms: C_10  and  N_44
    3  A    between atoms: C_13  and  C_43
    4  A    between atoms: C_13  and  C_53
    5  A    between atoms: C_14  and  C_32
    6  A    between atoms: C_20  and  C_51
    7  A    between atoms: C_25  and  O_45
    8  A    between atoms: C_29  and  O_52
    9  A    between atoms: C_29  and  O_57
   10  A    between atoms: C_33  and  C_53
   11  A    between atoms: C_36  and  O_57
                            x       y       z     vdW  Elec       q    Type
                         _______ _______ _______ _____ _____    ______ ____

>  <TORSDO>
F 11

$$$$
=
 OpenBabel10222420043D

 59 68  0  0  1  0  0  0  0  0999 V2000
  185.7260  178.6530  140.2320 C   0  0  0  0  0  0  0  0  0  0  0  0
  185.2110  178.5280  141.5360 C   0  0  0  0  0  3  0  0  0  0  0  0
  187.0660  178.2760  139.9870 C   0  0  0  0  0  0  0  0  0  0  0  0
  187.8440  177.7720  141.0340 C   0  0  0  0  0  3  0  0  0  0  0  0
  187.3190  177.6250  142.3220 C   0  0  0  0  0  0  0  0  0  0  0  0
  185.9990  178.0120  142.5700 C   0  0  0  0  0  3  0  0  0  0  0  0
  190.0910  178.4980  147.0390 N   0  0  0  0  0  2  0  0  0  0  0  0
  187.4510  177.0520  147.0400 C   0  0  0  0  0  2  0  0  0  0  0  0
  191.8170  176.7740  147.0170 C   0  0  0  0  0  1  0  0  0  0  0  0
  189.5320  177.1310  143.2330 C   0  0  1  0  0  3  0  0  0  0  0  0
  191.4310  176.1900  144.1560 O   0  0  0  0  0  0  0  0  0  0  0  0
  187.4940  176.9830  144.6500 N   0  0  0  0  0  0  0  0  0  0  0  0
  188.0450  176.7820  143.3240 C   0  0  1  0  0  3  0  0  0  0  0  0
  189.0460  178.7240  148.0310 C   0  0  0  0  0  2  0  0  0  0  0  0
  190.3270  177.0580  146.9660 C   0  0  2  0  0  3  0  0  0  0  0  0
  190.3420  176.9490  144.4370 C   0  0  1  0  0  0  0  0  0  0  0  0
  186.6110  178.9080  148.4550 C   0  0  0  0  0  1  0  0  0  0  0  0
  189.6380  176.4530  145.7200 C   0  0  2  0  0  3  0  0  0  0  0  0
  188.1450  176.7550  145.7370 C   0  0  0  0  0  0  0  0  0  0  0  0
  187.6570  178.5090  147.4320 C   0  0  2  0  0  3  0  0  0  0  0  0
  190.2950  175.8910  143.4230 N   0  0  1  0  0  0  0  0  0  0  0  0
  183.8140  180.1230  139.4300 C   0  0  0  0  0  2  0  0  0  0  0  0
  182.3390  179.1580  137.5900 O   0  0  0  0  0  0  0  0  0  0  0  0
  184.1660  176.7050  139.0540 O   0  0  0  0  0  0  0  0  0  0  0  0
  184.8070  179.0060  139.0840 C   0  0  2  0  0  3  0  0  0  0  0  0
  181.7940  181.1860  138.6320 N   0  0  0  0  0  0  0  0  0  0  0  0
  184.0730  177.8090  138.5460 C   0  0  0  0  0  0  0  0  0  0  0  0
  183.1860  178.0310  137.3710 C   0  0  0  0  0  2  0  0  0  0  0  0
  182.6230  180.1950  138.4980 C   0  0  0  0  0  0  0  0  0  0  0  0
  180.6070  181.3800  137.8410 C   0  0  0  0  0  0  0  0  0  0  0  0
  180.6960  181.7470  136.6380 O   0  0  0  0  0  0  0  0  0  0  0  0
  179.1950  180.8060  140.8950 C   0  0  0  0  0  2  0  0  0  0  0  0
  179.0490  177.2590  138.6330 C   0  0  0  0  0  0  0  0  0  0  0  0
  179.1530  177.1100  139.9730 C   0  0  0  0  0  0  0  0  0  0  0  0
  179.4950  175.6040  141.7710 O   0  0  0  0  0  0  0  0  0  0  0  0
  179.2410  181.1060  138.4170 C   0  0  2  0  0  3  0  0  0  0  0  0
  178.9310  176.0740  137.7070 C   0  0  0  0  0  2  0  0  0  0  0  0
  179.2300  175.7620  140.5460 C   0  0  0  0  0  0  0  0  0  0  0  0
  179.0760  174.6240  139.6990 N   0  0  0  0  0  0  0  0  0  0  0  0
  179.0460  181.8420  139.7640 C   0  0  0  0  0  2  0  0  0  0  0  0
  179.1940  179.5310  140.2180 N   0  0  0  0  0  0  0  0  0  0  0  0
  179.2200  178.2680  140.8230 N   0  0  0  0  0  2  0  0  0  0  0  0
  179.0730  178.6150  138.0270 C   0  0  0  0  0  3  0  0  0  0  0  0
  178.9310  174.7380  138.4140 C   0  0  0  0  0  3  0  0  0  0  0  0
  179.1480  179.6830  138.8250 C   0  0  0  0  0  0  0  0  0  0  0  0
  187.6490  178.2870  138.6000 C   0  0  0  0  0  2  0  0  0  0  0  0
  187.6400  176.8810  138.0070 C   0  0  0  0  0  2  0  0  0  0  0  0
  190.5270  174.7930  136.8700 N   0  0  0  0  0  0  0  0  0  0  0  0
  190.0510  176.8130  138.6820 C   0  0  0  0  0  3  0  0  0  0  0  0
  191.3320  176.2610  138.5910 C   0  0  0  0  0  0  0  0  0  0  0  0
  191.5580  175.2310  137.6460 C   0  0  0  0  0  0  0  0  0  0  0  0
  189.2790  175.3240  136.9580 C   0  0  0  0  0  3  0  0  0  0  0  0
  189.0190  176.3470  137.8670 C   0  0  0  0  0  0  0  0  0  0  0  0
  192.0500  177.5070  140.6210 C   0  0  0  0  0  1  0  0  0  0  0  0
  192.3230  176.7500  139.4550 O   0  0  0  0  0  0  0  0  0  0  0  0
  192.8340  174.6770  137.4870 O   0  0  0  0  0  0  0  0  0  0  0  0
  193.7260  175.0640  136.4430 C   0  0  0  0  0  2  0  0  0  0  0  0
  194.8800  176.7180  135.5310 C   0  0  0  0  0  1  0  0  0  0  0  0
  194.3440  176.2790  136.7460 O   0  0  0  0  0  0  0  0  0  0  0  0
  1  2  1  0  0  0  0
  2  6  2  0  0  0  0
  3  1  2  0  0  0  0
  3  4  1  0  0  0  0
  4  5  2  0  0  0  0
  5  6  1  0  0  0  0
  5 13  1  0  0  0  0
  7 14  1  0  0  0  0
  8 20  1  0  0  0  0
 10 13  1  0  0  0  0
 10 21  1  0  0  0  0
 10 16  1  0  0  0  0
 11 16  1  0  0  0  0
 12 19  2  0  0  0  0
 13 12  1  0  0  0  0
 15  9  1  0  0  0  0
 15  7  1  0  0  0  0
 16 18  1  0  0  0  0
 18 19  1  0  0  0  0
 18 15  1  0  0  0  0
 19  8  1  0  0  0  0
 20 14  1  0  0  0  0
 20 17  1  0  0  0  0
 21 11  1  0  0  0  0
 21 16  1  0  0  0  0
 23 29  1  0  0  0  0
 25 22  1  0  0  0  0
 25  1  1  0  0  0  0
 27 24  2  0  0  0  0
 27 25  1  0  0  0  0
 28 23  1  0  0  0  0
 28 27  1  0  0  0  0
 29 26  2  0  0  0  0
 29 22  1  0  0  0  0
 30 36  1  0  0  0  0
 30 26  1  0  0  0  0
 31 30  2  0  0  0  0
 33 34  2  0  0  0  0
 34 38  1  0  0  0  0
 34 42  1  0  0  0  0
 36 45  1  0  0  0  0
 36 40  1  0  0  0  0
 37 44  1  0  0  0  0
 37 33  1  0  0  0  0
 38 35  2  0  0  0  0
 39 38  1  0  0  0  0
 40 32  1  0  0  0  0
 41 42  1  0  0  0  0
 41 32  1  0  0  0  0
 43 33  1  0  0  0  0
 43 45  2  0  0  0  0
 44 39  2  0  0  0  0
 45 41  1  0  0  0  0
 46  3  1  0  0  0  0
 47 46  1  0  0  0  0
 48 52  1  0  0  0  0
 48 51  2  0  0  0  0
 50 49  2  0  0  0  0
 50 55  1  0  0  0  0
 51 50  1  0  0  0  0
 52 53  2  0  0  0  0
 53 47  1  0  0  0  0
 53 49  1  0  0  0  0
 55 54  1  0  0  0  0
 56 51  1  0  0  0  0
 57 59  1  0  0  0  0
 57 56  1  0  0  0  0
 58 59  1  0  0  0  0
M  END
>  <MODEL>
8

>  <REMARK>
 VINA RESULT:      -7.5      3.333      9.727
  Name = 
  11 active torsions:
  status: ('A' for Active; 'I' for Inactive)
    1  A    between atoms: C_10  and  C_24
    2  A    between atoms: C_10  and  N_44
    3  A    between atoms: C_13  and  C_43
    4  A    between atoms: C_13  and  C_53
    5  A    between atoms: C_14  and  C_32
    6  A    between atoms: C_20  and  C_51
    7  A    between atoms: C_25  and  O_45
    8  A    between atoms: C_29  and  O_52
    9  A    between atoms: C_29  and  O_57
   10  A    between atoms: C_33  and  C_53
   11  A    between atoms: C_36  and  O_57
                            x       y       z     vdW  Elec       q    Type
                         _______ _______ _______ _____ _____    ______ ____

>  <TORSDO>
F 11

$$$$
=
 OpenBabel10222420043D

 59 68  0  0  1  0  0  0  0  0999 V2000
  184.4560  178.4950  143.7010 C   0  0  0  0  0  0  0  0  0  0  0  0
  184.4890  178.6070  145.1040 C   0  0  0  0  0  3  0  0  0  0  0  0
  185.6730  178.5330  142.9830 C   0  0  0  0  0  0  0  0  0  0  0  0
  186.8800  178.6620  143.6770 C   0  0  0  0  0  3  0  0  0  0  0  0
  186.9090  178.7470  145.0720 C   0  0  0  0  0  0  0  0  0  0  0  0
  185.7060  178.7250  145.7840 C   0  0  0  0  0  3  0  0  0  0  0  0
  191.2320  175.3040  144.6730 N   0  0  0  0  0  2  0  0  0  0  0  0
  191.5190  178.2300  144.0270 C   0  0  0  0  0  2  0  0  0  0  0  0
  191.9670  175.0380  146.9850 C   0  0  0  0  0  1  0  0  0  0  0  0
  188.1210  177.1960  146.5200 C   0  0  1  0  0  3  0  0  0  0  0  0
  189.4750  176.1600  148.0820 O   0  0  0  0  0  0  0  0  0  0  0  0
  189.3210  178.6280  144.8800 N   0  0  0  0  0  0  0  0  0  0  0  0
  188.2020  178.5430  145.7980 C   0  0  1  0  0  3  0  0  0  0  0  0
  191.9880  175.8100  143.5330 C   0  0  0  0  0  2  0  0  0  0  0  0
  191.6920  176.0210  145.8610 C   0  0  2  0  0  3  0  0  0  0  0  0
  189.3760  176.4880  146.7680 C   0  0  1  0  0  0  0  0  0  0  0  0
  192.1100  177.5060  141.7300 C   0  0  0  0  0  1  0  0  0  0  0  0
  190.6870  177.1270  146.2580 C   0  0  2  0  0  3  0  0  0  0  0  0
  190.4690  178.0900  145.0970 C   0  0  0  0  0  0  0  0  0  0  0  0
  191.3870  177.1110  143.0030 C   0  0  2  0  0  3  0  0  0  0  0  0
  188.8010  177.3400  147.8140 N   0  0  1  0  0  0  0  0  0  0  0  0
  183.1350  178.6020  141.5320 C   0  0  0  0  0  2  0  0  0  0  0  0
  180.5970  178.6170  141.7520 O   0  0  0  0  0  0  0  0  0  0  0  0
  182.0490  179.3800  144.7200 O   0  0  0  0  0  0  0  0  0  0  0  0
  183.1620  178.1530  142.9990 C   0  0  2  0  0  3  0  0  0  0  0  0
  181.6290  178.9290  139.6690 N   0  0  0  0  0  0  0  0  0  0  0  0
  181.9550  178.6830  143.7240 C   0  0  0  0  0  0  0  0  0  0  0  0
  180.6220  178.3510  143.1530 C   0  0  0  0  0  2  0  0  0  0  0  0
  181.7450  178.6820  140.9390 C   0  0  0  0  0  0  0  0  0  0  0  0
  180.3790  179.0580  138.9660 C   0  0  0  0  0  0  0  0  0  0  0  0
  179.7600  180.1540  138.9620 O   0  0  0  0  0  0  0  0  0  0  0  0
  180.0450  175.6760  139.2930 C   0  0  0  0  0  2  0  0  0  0  0  0
  182.8270  176.4850  136.2390 C   0  0  0  0  0  0  0  0  0  0  0  0
  183.0190  175.3420  136.9350 C   0  0  0  0  0  0  0  0  0  0  0  0
  184.4550  173.5030  137.3550 O   0  0  0  0  0  0  0  0  0  0  0  0
  179.8110  177.9000  138.1840 C   0  0  2  0  0  3  0  0  0  0  0  0
  183.7150  176.8720  135.0820 C   0  0  0  0  0  2  0  0  0  0  0  0
  184.1630  174.4830  136.6120 C   0  0  0  0  0  0  0  0  0  0  0  0
  184.9930  174.8010  135.4950 N   0  0  0  0  0  0  0  0  0  0  0  0
  179.1090  176.8860  139.1190 C   0  0  0  0  0  2  0  0  0  0  0  0
  181.0760  175.8730  138.3020 N   0  0  0  0  0  0  0  0  0  0  0  0
  182.1220  174.9910  138.0030 N   0  0  0  0  0  2  0  0  0  0  0  0
  181.7350  177.4180  136.6190 C   0  0  0  0  0  3  0  0  0  0  0  0
  184.8060  175.8700  134.7820 C   0  0  0  0  0  3  0  0  0  0  0  0
  180.9160  177.0880  137.6200 C   0  0  0  0  0  0  0  0  0  0  0  0
  185.7200  178.3170  141.4950 C   0  0  0  0  0  2  0  0  0  0  0  0
  187.0090  178.8900  140.9130 C   0  0  0  0  0  2  0  0  0  0  0  0
  186.6030  177.2500  137.5770 N   0  0  0  0  0  0  0  0  0  0  0  0
  188.6580  177.9840  139.2590 C   0  0  0  0  0  3  0  0  0  0  0  0
  188.9540  177.3330  138.0580 C   0  0  0  0  0  0  0  0  0  0  0  0
  187.8840  176.9730  137.2040 C   0  0  0  0  0  0  0  0  0  0  0  0
  186.3100  177.8800  138.7450 C   0  0  0  0  0  3  0  0  0  0  0  0
  187.3360  178.2600  139.6080 C   0  0  0  0  0  0  0  0  0  0  0  0
  191.0280  175.9930  138.3620 C   0  0  0  0  0  1  0  0  0  0  0  0
  190.3000  177.0560  137.7730 O   0  0  0  0  0  0  0  0  0  0  0  0
  188.1330  176.3580  135.9710 O   0  0  0  0  0  0  0  0  0  0  0  0
  188.5280  174.9920  135.8490 C   0  0  0  0  0  2  0  0  0  0  0  0
  188.6880  173.0150  136.8320 C   0  0  0  0  0  1  0  0  0  0  0  0
  187.9950  174.2280  136.8910 O   0  0  0  0  0  0  0  0  0  0  0  0
  1  2  1  0  0  0  0
  2  6  2  0  0  0  0
  3  4  1  0  0  0  0
  3  1  2  0  0  0  0
  4  5  2  0  0  0  0
  5  6  1  0  0  0  0
  5 13  1  0  0  0  0
  7 15  1  0  0  0  0
  8 19  1  0  0  0  0
 10 16  1  0  0  0  0
 10 21  1  0  0  0  0
 12 19  2  0  0  0  0
 12 13  1  0  0  0  0
 13 10  1  0  0  0  0
 14  7  1  0  0  0  0
 15 18  1  0  0  0  0
 15  9  1  0  0  0  0
 16 21  1  0  0  0  0
 16 11  1  0  0  0  0
 17 20  1  0  0  0  0
 18 16  1  0  0  0  0
 19 18  1  0  0  0  0
 20 14  1  0  0  0  0
 20  8  1  0  0  0  0
 21 11  1  0  0  0  0
 22 25  1  0  0  0  0
 23 28  1  0  0  0  0
 25  1  1  0  0  0  0
 25 27  1  0  0  0  0
 26 29  2  0  0  0  0
 27 24  2  0  0  0  0
 28 27  1  0  0  0  0
 29 22  1  0  0  0  0
 29 23  1  0  0  0  0
 30 26  1  0  0  0  0
 31 30  2  0  0  0  0
 33 43  1  0  0  0  0
 33 34  2  0  0  0  0
 34 42  1  0  0  0  0
 36 30  1  0  0  0  0
 36 40  1  0  0  0  0
 37 33  1  0  0  0  0
 38 34  1  0  0  0  0
 38 35  2  0  0  0  0
 39 38  1  0  0  0  0
 40 32  1  0  0  0  0
 41 32  1  0  0  0  0
 42 41  1  0  0  0  0
 43 45  2  0  0  0  0
 44 37  1  0  0  0  0
 44 39  2  0  0  0  0
 45 36  1  0  0  0  0
 45 41  1  0  0  0  0
 46  3  1  0  0  0  0
 47 46  1  0  0  0  0
 48 52  1  0  0  0  0
 49 53  1  0  0  0  0
 50 49  2  0  0  0  0
 51 48  2  0  0  0  0
 51 50  1  0  0  0  0
 52 53  2  0  0  0  0
 53 47  1  0  0  0  0
 55 50  1  0  0  0  0
 55 54  1  0  0  0  0
 56 51  1  0  0  0  0
 57 56  1  0  0  0  0
 57 59  1  0  0  0  0
 58 59  1  0  0  0  0
M  END
>  <MODEL>
9

>  <REMARK>
 VINA RESULT:      -7.0      4.331      9.544
  Name = 
  11 active torsions:
  status: ('A' for Active; 'I' for Inactive)
    1  A    between atoms: C_10  and  C_24
    2  A    between atoms: C_10  and  N_44
    3  A    between atoms: C_13  and  C_43
    4  A    between atoms: C_13  and  C_53
    5  A    between atoms: C_14  and  C_32
    6  A    between atoms: C_20  and  C_51
    7  A    between atoms: C_25  and  O_45
    8  A    between atoms: C_29  and  O_52
    9  A    between atoms: C_29  and  O_57
   10  A    between atoms: C_33  and  C_53
   11  A    between atoms: C_36  and  O_57
                            x       y       z     vdW  Elec       q    Type
                         _______ _______ _______ _____ _____    ______ ____

>  <TORSDO>
F 11

$$$$
