=
 OpenBabel10222419233D

 49 51  0  0  1  0  0  0  0  0999 V2000
  189.1420  176.3580  136.6270 C   0  0  2  0  0  3  0  0  0  0  0  0
  189.9790  177.4700  134.7260 O   0  0  0  0  0  0  0  0  0  0  0  0
  190.0380  176.4600  135.4150 C   0  0  0  0  0  0  0  0  0  0  0  0
  191.0490  175.3990  135.0840 C   0  0  0  0  0  2  0  0  0  0  0  0
  192.4760  175.9330  135.1420 C   0  0  0  0  0  2  0  0  0  0  0  0
  193.2640  175.1920  136.1140 N   0  0  0  0  0  2  0  0  0  0  0  0
  193.7760  175.7970  137.3100 C   0  0  0  0  0  0  0  0  0  0  0  0
  193.5130  176.9840  137.5860 O   0  0  0  0  0  0  0  0  0  0  0  0
  194.5960  175.0610  138.1620 O   0  0  0  0  0  1  0  0  0  0  0  0
  189.9440  176.0650  137.8680 C   0  0  0  0  0  0  0  0  0  0  0  0
  190.3940  174.8930  138.0410 O   0  0  0  0  0  0  0  0  0  0  0  0
  190.2400  177.0620  138.8110 O   0  0  0  0  0  0  0  0  0  0  0  0
  189.7260  177.1070  140.1430 C   0  0  2  0  0  3  0  0  0  0  0  0
  188.6730  178.2020  140.2670 C   0  0  0  0  0  1  0  0  0  0  0  0
  190.2740  175.6180  142.5510 O   0  0  0  0  0  0  0  0  0  0  0  0
  190.7970  177.3640  141.0970 N   0  0  0  0  0  2  0  0  0  0  0  0
  190.8780  176.7100  142.3550 C   0  0  0  0  0  0  0  0  0  0  0  0
  191.7340  177.3220  143.4300 C   0  0  0  0  0  2  0  0  0  0  0  0
  189.4960  178.0880  144.0130 N   0  0  0  0  0  0  0  0  0  0  0  0
  189.4410  176.9200  145.9980 N   0  0  0  0  0  2  0  0  0  0  0  0
  188.7490  177.4900  144.8940 C   0  0  0  0  0  0  0  0  0  0  0  0
  191.7510  177.0570  146.4950 O   0  0  0  0  0  0  0  0  0  0  0  0
  190.8880  178.0650  144.4530 C   0  0  1  0  0  3  0  0  0  0  0  0
  190.7900  177.2920  145.7150 C   0  0  0  0  0  0  0  0  0  0  0  0
  186.9940  177.3020  144.6750 S   0  0  0  0  0  0  0  0  0  0  0  0
  185.0960  178.5000  146.2010 C   0  0  0  0  0  1  0  0  0  0  0  0
  186.6010  178.3950  146.0660 C   0  0  0  0  0  2  0  0  0  0  0  0
  187.9820  175.3630  136.4940 C   0  0  0  0  0  2  0  0  0  0  0  0
  185.4240  175.1590  136.7160 C   0  0  0  0  0  0  0  0  0  0  0  0
  186.6280  175.8710  136.9110 C   0  0  0  0  0  0  0  0  0  0  0  0
  185.3610  177.7830  137.7180 C   0  0  0  0  0  3  0  0  0  0  0  0
  186.5740  177.1910  137.3750 C   0  0  0  0  0  3  0  0  0  0  0  0
  184.1740  177.0550  137.6170 C   0  0  0  0  0  0  0  0  0  0  0  0
  184.2110  175.7540  137.1010 C   0  0  0  0  0  3  0  0  0  0  0  0
  185.3990  173.8400  135.9860 C   0  0  2  0  0  3  0  0  0  0  0  0
  184.4460  173.8740  134.8050 C   0  0  0  0  0  1  0  0  0  0  0  0
  185.5180  172.8530  138.1850 O   0  0  0  0  0  1  0  0  0  0  0  0
  185.1340  172.6180  136.8620 C   0  0  0  0  0  2  0  0  0  0  0  0
  182.5860  177.8130  138.0130 S   0  0  0  0  0  0  0  0  0  0  0  0
  181.5220  178.4740  141.2850 C   0  0  0  0  0  0  0  0  0  0  0  0
  183.4530  177.4140  140.5480 N   0  0  0  0  0  2  0  0  0  0  0  0
  180.5520  179.6670  141.8260 S   0  0  0  0  0  0  0  0  0  0  0  0
  181.1200  177.6010  140.2590 N   0  0  0  0  0  2  0  0  0  0  0  0
  182.9920  178.5730  141.3020 C   0  0  2  0  0  3  0  0  0  0  0  0
  182.3290  177.0500  139.6700 C   0  0  1  0  0  0  0  0  0  0  0  0
  182.2150  175.6610  139.5730 O   0  0  0  0  0  1  0  0  0  0  0  0
  184.7220  179.4430  142.7520 O   0  0  0  0  0  1  0  0  0  0  0  0
  182.6390  179.0720  143.6210 O   0  0  0  0  0  1  0  0  0  0  0  0
  183.5970  178.6140  142.7050 C   0  0  0  0  0  3  0  0  0  0  0  0
  1 28  1  6  0  0  0
  1 10  1  0  0  0  0
  2  3  2  0  0  0  0
  3  1  1  0  0  0  0
  4  5  1  0  0  0  0
  4  3  1  0  0  0  0
  5  6  1  0  0  0  0
  6  7  1  0  0  0  0
  7  8  2  0  0  0  0
  7  9  1  0  0  0  0
 10 11  2  0  0  0  0
 10 12  1  0  0  0  0
 12 13  1  0  0  0  0
 13 14  1  6  0  0  0
 13 16  1  0  0  0  0
 16 17  1  0  0  0  0
 17 15  2  0  0  0  0
 17 18  1  0  0  0  0
 19 23  1  0  0  0  0
 19 21  2  0  0  0  0
 21 20  1  0  0  0  0
 23 18  1  6  0  0  0
 23 24  1  0  0  0  0
 24 20  1  0  0  0  0
 24 22  2  0  0  0  0
 25 21  1  0  0  0  0
 25 27  1  0  0  0  0
 27 26  1  0  0  0  0
 28 30  1  0  0  0  0
 29 30  2  0  0  0  0
 29 34  1  0  0  0  0
 30 32  1  0  0  0  0
 32 31  2  0  0  0  0
 33 31  1  0  0  0  0
 33 39  1  0  0  0  0
 34 33  2  0  0  0  0
 35 36  1  6  0  0  0
 35 29  1  0  0  0  0
 35 38  1  0  0  0  0
 38 37  1  0  0  0  0
 39 45  1  0  0  0  0
 40 44  1  0  0  0  0
 40 42  2  0  0  0  0
 41 44  1  0  0  0  0
 43 40  1  0  0  0  0
 44 49  1  1  0  0  0
 45 46  1  6  0  0  0
 45 43  1  0  0  0  0
 45 41  1  0  0  0  0
 49 47  1  0  0  0  0
 49 48  1  0  0  0  0
M  END
>  <MODEL>
1

>  <REMARK>
 VINA RESULT:      -7.2      0.000      0.000
  Name = 
  19 active torsions:
  status: ('A' for Active; 'I' for Inactive)
    1  A    between atoms: C_2  and  O_7
    2  A    between atoms: C_2  and  N_35
    3  A    between atoms: C_3  and  C_12
    4  A    between atoms: S_4  and  C_27
    5  A    between atoms: S_4  and  C_32
    6  A    between atoms: O_7  and  C_10
    7  A    between atoms: C_8  and  C_46
    8  A    between atoms: C_9  and  C_25
    9  A    between atoms: C_9  and  C_43
   10  A    between atoms: C_10  and  C_24
   11  A    between atoms: C_12  and  C_36
   12  A    between atoms: N_14  and  C_25
   13  A    between atoms: C_24  and  C_43
   14  A    between atoms: C_24  and  C_46
   15  A    between atoms: C_28  and  S_41
   16  A    between atoms: CA_30  and  C_45
   17  A    between atoms: C_31  and  S_41
   18  A    between atoms: C_39  and  C_42
   19  A    between atoms: C_42  and  C_49
                            x       y       z     vdW  Elec       q    Type
                         _______ _______ _______ _____ _____    ______ ____

>  <TORSDO>
F 19

$$$$
=
 OpenBabel10222419233D

 49 51  0  0  1  0  0  0  0  0999 V2000
  184.0960  177.7070  139.2950 C   0  0  2  0  0  3  0  0  0  0  0  0
  182.4120  176.2090  139.9840 O   0  0  0  0  0  0  0  0  0  0  0  0
  182.7780  177.3770  139.9550 C   0  0  0  0  0  0  0  0  0  0  0  0
  181.9510  178.4260  140.6440 C   0  0  0  0  0  2  0  0  0  0  0  0
  180.6220  177.8680  141.1420 C   0  0  0  0  0  2  0  0  0  0  0  0
  179.8360  178.9090  141.7870 N   0  0  0  0  0  2  0  0  0  0  0  0
  179.8540  179.1180  143.2050 C   0  0  0  0  0  0  0  0  0  0  0  0
  180.5980  178.4380  143.9400 O   0  0  0  0  0  1  0  0  0  0  0  0
  179.0170  180.0730  143.7750 O   0  0  0  0  0  0  0  0  0  0  0  0
  184.6670  178.9880  139.8420 C   0  0  0  0  0  0  0  0  0  0  0  0
  184.3300  180.0850  139.3040 O   0  0  0  0  0  0  0  0  0  0  0  0
  185.5260  179.0020  140.9520 O   0  0  0  0  0  0  0  0  0  0  0  0
  185.2600  178.3580  142.2000 C   0  0  2  0  0  3  0  0  0  0  0  0
  184.6230  179.3400  143.1760 C   0  0  0  0  0  1  0  0  0  0  0  0
  187.9490  178.9860  141.3700 O   0  0  0  0  0  0  0  0  0  0  0  0
  186.4910  177.8380  142.7800 N   0  0  0  0  0  2  0  0  0  0  0  0
  187.7660  178.0420  142.1880 C   0  0  0  0  0  0  0  0  0  0  0  0
  188.8990  177.1390  142.5930 C   0  0  0  0  0  2  0  0  0  0  0  0
  189.4940  177.8120  144.8580 N   0  0  0  0  0  0  0  0  0  0  0  0
  191.5220  176.7200  144.8190 N   0  0  0  0  0  2  0  0  0  0  0  0
  190.4110  177.2110  145.5580 C   0  0  0  0  0  0  0  0  0  0  0  0
  191.9710  176.9930  142.5120 O   0  0  0  0  0  0  0  0  0  0  0  0
  189.9100  177.8770  143.4590 C   0  0  1  0  0  3  0  0  0  0  0  0
  191.2010  177.1490  143.4960 C   0  0  0  0  0  0  0  0  0  0  0  0
  190.2320  176.9260  147.3040 S   0  0  0  0  0  0  0  0  0  0  0  0
  188.2250  177.9080  148.8450 C   0  0  0  0  0  1  0  0  0  0  0  0
  188.7430  177.9520  147.4230 C   0  0  0  0  0  2  0  0  0  0  0  0
  184.0610  177.7490  137.7620 C   0  0  0  0  0  2  0  0  0  0  0  0
  185.2920  175.6930  136.8180 C   0  0  0  0  0  0  0  0  0  0  0  0
  185.2130  177.0830  137.0590 C   0  0  0  0  0  0  0  0  0  0  0  0
  187.4690  177.3570  136.1950 C   0  0  0  0  0  3  0  0  0  0  0  0
  186.3220  177.8900  136.7790 C   0  0  0  0  0  3  0  0  0  0  0  0
  187.5210  176.0010  135.8670 C   0  0  0  0  0  0  0  0  0  0  0  0
  186.4410  175.1750  136.1960 C   0  0  0  0  0  3  0  0  0  0  0  0
  184.2390  174.7440  137.3300 C   0  0  2  0  0  3  0  0  0  0  0  0
  184.8320  173.3930  137.6890 C   0  0  0  0  0  1  0  0  0  0  0  0
  183.2820  175.0390  135.1350 O   0  0  0  0  0  1  0  0  0  0  0  0
  183.0190  174.5780  136.4280 C   0  0  0  0  0  2  0  0  0  0  0  0
  189.0120  175.2780  135.1520 S   0  0  0  0  0  0  0  0  0  0  0  0
  190.4600  176.1250  138.2280 C   0  0  0  0  0  0  0  0  0  0  0  0
  191.2030  174.6350  136.6080 N   0  0  0  0  0  2  0  0  0  0  0  0
  190.3280  177.5110  139.0760 S   0  0  0  0  0  0  0  0  0  0  0  0
  189.3290  175.3950  137.8220 N   0  0  0  0  0  2  0  0  0  0  0  0
  191.5780  175.8580  137.3050 C   0  0  2  0  0  3  0  0  0  0  0  0
  189.7360  174.5740  136.6930 C   0  0  1  0  0  0  0  0  0  0  0  0
  189.3120  173.2570  136.8920 O   0  0  0  0  0  1  0  0  0  0  0  0
  193.6290  174.5980  137.5440 O   0  0  0  0  0  1  0  0  0  0  0  0
  193.7030  176.8750  137.7560 O   0  0  0  0  0  1  0  0  0  0  0  0
  192.9360  175.7260  137.9950 C   0  0  0  0  0  3  0  0  0  0  0  0
  1 28  1  6  0  0  0
  1 10  1  0  0  0  0
  1  3  1  0  0  0  0
  3  2  2  0  0  0  0
  3  4  1  0  0  0  0
  4  5  1  0  0  0  0
  5  6  1  0  0  0  0
  6  7  1  0  0  0  0
  7  9  2  0  0  0  0
  7  8  1  0  0  0  0
 10 12  1  0  0  0  0
 11 10  2  0  0  0  0
 12 13  1  0  0  0  0
 13 16  1  0  0  0  0
 13 14  1  1  0  0  0
 15 17  2  0  0  0  0
 17 18  1  0  0  0  0
 17 16  1  0  0  0  0
 19 21  2  0  0  0  0
 20 21  1  0  0  0  0
 21 25  1  0  0  0  0
 22 24  2  0  0  0  0
 23 18  1  6  0  0  0
 23 24  1  0  0  0  0
 23 19  1  0  0  0  0
 24 20  1  0  0  0  0
 25 27  1  0  0  0  0
 27 26  1  0  0  0  0
 29 30  1  0  0  0  0
 29 35  1  0  0  0  0
 30 28  1  0  0  0  0
 31 32  1  0  0  0  0
 32 30  2  0  0  0  0
 33 31  2  0  0  0  0
 33 34  1  0  0  0  0
 34 29  2  0  0  0  0
 35 36  1  6  0  0  0
 37 38  1  0  0  0  0
 38 35  1  0  0  0  0
 39 33  1  0  0  0  0
 39 45  1  0  0  0  0
 40 42  2  0  0  0  0
 41 45  1  0  0  0  0
 41 44  1  0  0  0  0
 43 40  1  0  0  0  0
 44 49  1  1  0  0  0
 44 40  1  0  0  0  0
 45 46  1  1  0  0  0
 45 43  1  0  0  0  0
 47 49  1  0  0  0  0
 48 49  1  0  0  0  0
M  END
>  <MODEL>
2

>  <REMARK>
 VINA RESULT:      -7.1      2.809      7.760
  Name = 
  19 active torsions:
  status: ('A' for Active; 'I' for Inactive)
    1  A    between atoms: C_2  and  O_7
    2  A    between atoms: C_2  and  N_35
    3  A    between atoms: C_3  and  C_12
    4  A    between atoms: S_4  and  C_27
    5  A    between atoms: S_4  and  C_32
    6  A    between atoms: O_7  and  C_10
    7  A    between atoms: C_8  and  C_46
    8  A    between atoms: C_9  and  C_25
    9  A    between atoms: C_9  and  C_43
   10  A    between atoms: C_10  and  C_24
   11  A    between atoms: C_12  and  C_36
   12  A    between atoms: N_14  and  C_25
   13  A    between atoms: C_24  and  C_43
   14  A    between atoms: C_24  and  C_46
   15  A    between atoms: C_28  and  S_41
   16  A    between atoms: CA_30  and  C_45
   17  A    between atoms: C_31  and  S_41
   18  A    between atoms: C_39  and  C_42
   19  A    between atoms: C_42  and  C_49
                            x       y       z     vdW  Elec       q    Type
                         _______ _______ _______ _____ _____    ______ ____

>  <TORSDO>
F 19

$$$$
=
 OpenBabel10222419233D

 49 51  0  0  1  0  0  0  0  0999 V2000
  189.5260  177.4880  140.7100 C   0  0  2  0  0  3  0  0  0  0  0  0
  190.0730  175.7390  142.1910 O   0  0  0  0  0  0  0  0  0  0  0  0
  190.3600  176.8640  141.8040 C   0  0  0  0  0  0  0  0  0  0  0  0
  191.5730  177.5500  142.3670 C   0  0  0  0  0  2  0  0  0  0  0  0
  191.2020  178.6220  143.3860 C   0  0  0  0  0  2  0  0  0  0  0  0
  190.2470  178.1030  144.3540 N   0  0  0  0  0  2  0  0  0  0  0  0
  190.6540  177.3910  145.5300 C   0  0  0  0  0  0  0  0  0  0  0  0
  191.8640  177.2370  145.7940 O   0  0  0  0  0  0  0  0  0  0  0  0
  189.6930  176.8450  146.3760 O   0  0  0  0  0  1  0  0  0  0  0  0
  188.3170  178.1800  141.2820 C   0  0  0  0  0  0  0  0  0  0  0  0
  188.1250  179.4020  141.0050 O   0  0  0  0  0  0  0  0  0  0  0  0
  187.3790  177.4990  142.0730 O   0  0  0  0  0  0  0  0  0  0  0  0
  186.6060  178.0920  143.1190 C   0  0  2  0  0  3  0  0  0  0  0  0
  186.8090  177.3290  144.4230 C   0  0  0  0  0  1  0  0  0  0  0  0
  184.6430  180.0550  143.8960 O   0  0  0  0  0  0  0  0  0  0  0  0
  185.1900  178.0850  142.7770 N   0  0  0  0  0  2  0  0  0  0  0  0
  184.2550  178.9790  143.3620 C   0  0  0  0  0  0  0  0  0  0  0  0
  182.7910  178.6380  143.2880 C   0  0  0  0  0  2  0  0  0  0  0  0
  182.0910  178.0460  141.0310 N   0  0  0  0  0  0  0  0  0  0  0  0
  179.8970  178.6520  141.3820 N   0  0  0  0  0  2  0  0  0  0  0  0
  180.8490  177.8420  140.7050 C   0  0  0  0  0  0  0  0  0  0  0  0
  180.3070  180.4130  142.9080 O   0  0  0  0  0  0  0  0  0  0  0  0
  182.1720  179.1420  141.9930 C   0  0  1  0  0  3  0  0  0  0  0  0
  180.7390  179.4740  142.1900 C   0  0  0  0  0  0  0  0  0  0  0  0
  180.3680  176.5600  139.5700 S   0  0  0  0  0  0  0  0  0  0  0  0
  181.8100  176.4480  137.2740 C   0  0  0  0  0  1  0  0  0  0  0  0
  181.0480  177.4330  138.1350 C   0  0  0  0  0  2  0  0  0  0  0  0
  189.1120  176.5310  139.5860 C   0  0  0  0  0  2  0  0  0  0  0  0
  189.8250  176.7300  137.1180 C   0  0  0  0  0  0  0  0  0  0  0  0
  190.0970  176.3750  138.4590 C   0  0  0  0  0  0  0  0  0  0  0  0
  192.2320  175.4340  137.7720 C   0  0  0  0  0  3  0  0  0  0  0  0
  191.2840  175.6950  138.7590 C   0  0  0  0  0  3  0  0  0  0  0  0
  192.0130  175.8640  136.4620 C   0  0  0  0  0  0  0  0  0  0  0  0
  190.8050  176.4930  136.1400 C   0  0  0  0  0  3  0  0  0  0  0  0
  188.4670  177.2290  136.6960 C   0  0  2  0  0  3  0  0  0  0  0  0
  188.1320  176.8020  135.2780 C   0  0  0  0  0  1  0  0  0  0  0  0
  187.1980  178.9720  137.7800 O   0  0  0  0  0  1  0  0  0  0  0  0
  188.2390  178.7270  136.8800 C   0  0  0  0  0  2  0  0  0  0  0  0
  193.2050  175.4990  135.1570 S   0  0  0  0  0  0  0  0  0  0  0  0
  196.5800  174.7910  135.7680 C   0  0  0  0  0  0  0  0  0  0  0  0
  194.9070  175.4000  137.2600 N   0  0  0  0  0  2  0  0  0  0  0  0
  197.5960  173.8330  134.9270 S   0  0  0  0  0  0  0  0  0  0  0  0
  195.8740  175.8400  135.1550 N   0  0  0  0  0  2  0  0  0  0  0  0
  195.8400  174.3230  136.9540 C   0  0  2  0  0  3  0  0  0  0  0  0
  194.7220  176.1250  135.9940 C   0  0  1  0  0  0  0  0  0  0  0  0
  194.6370  177.5000  136.2270 O   0  0  0  0  0  1  0  0  0  0  0  0
  197.5560  175.0580  138.4930 O   0  0  0  0  0  1  0  0  0  0  0  0
  195.9330  173.6340  139.2490 O   0  0  0  0  0  1  0  0  0  0  0  0
  196.7300  173.9830  138.1490 C   0  0  0  0  0  3  0  0  0  0  0  0
  1 28  1  6  0  0  0
  1 10  1  0  0  0  0
  1  3  1  0  0  0  0
  3  2  2  0  0  0  0
  3  4  1  0  0  0  0
  4  5  1  0  0  0  0
  5  6  1  0  0  0  0
  6  7  1  0  0  0  0
  7  8  2  0  0  0  0
  7  9  1  0  0  0  0
 10 12  1  0  0  0  0
 11 10  2  0  0  0  0
 12 13  1  0  0  0  0
 13 14  1  1  0  0  0
 16 13  1  0  0  0  0
 16 17  1  0  0  0  0
 17 15  2  0  0  0  0
 18 17  1  0  0  0  0
 19 23  1  0  0  0  0
 20 24  1  0  0  0  0
 21 19  2  0  0  0  0
 21 20  1  0  0  0  0
 23 24  1  0  0  0  0
 23 18  1  1  0  0  0
 24 22  2  0  0  0  0
 25 21  1  0  0  0  0
 26 27  1  0  0  0  0
 27 25  1  0  0  0  0
 29 30  1  0  0  0  0
 30 32  2  0  0  0  0
 30 28  1  0  0  0  0
 31 32  1  0  0  0  0
 33 31  2  0  0  0  0
 34 33  1  0  0  0  0
 34 29  2  0  0  0  0
 35 36  1  6  0  0  0
 35 38  1  0  0  0  0
 35 29  1  0  0  0  0
 38 37  1  0  0  0  0
 39 45  1  0  0  0  0
 39 33  1  0  0  0  0
 40 44  1  0  0  0  0
 42 40  2  0  0  0  0
 43 40  1  0  0  0  0
 43 45  1  0  0  0  0
 44 41  1  0  0  0  0
 44 49  1  1  0  0  0
 45 46  1  1  0  0  0
 45 41  1  0  0  0  0
 49 47  1  0  0  0  0
 49 48  1  0  0  0  0
M  END
>  <MODEL>
3

>  <REMARK>
 VINA RESULT:      -6.9      3.323      9.586
  Name = 
  19 active torsions:
  status: ('A' for Active; 'I' for Inactive)
    1  A    between atoms: C_2  and  O_7
    2  A    between atoms: C_2  and  N_35
    3  A    between atoms: C_3  and  C_12
    4  A    between atoms: S_4  and  C_27
    5  A    between atoms: S_4  and  C_32
    6  A    between atoms: O_7  and  C_10
    7  A    between atoms: C_8  and  C_46
    8  A    between atoms: C_9  and  C_25
    9  A    between atoms: C_9  and  C_43
   10  A    between atoms: C_10  and  C_24
   11  A    between atoms: C_12  and  C_36
   12  A    between atoms: N_14  and  C_25
   13  A    between atoms: C_24  and  C_43
   14  A    between atoms: C_24  and  C_46
   15  A    between atoms: C_28  and  S_41
   16  A    between atoms: CA_30  and  C_45
   17  A    between atoms: C_31  and  S_41
   18  A    between atoms: C_39  and  C_42
   19  A    between atoms: C_42  and  C_49
                            x       y       z     vdW  Elec       q    Type
                         _______ _______ _______ _____ _____    ______ ____

>  <TORSDO>
F 19

$$$$
=
 OpenBabel10222419233D

 49 51  0  0  1  0  0  0  0  0999 V2000
  189.7360  177.4070  141.0570 C   0  0  2  0  0  3  0  0  0  0  0  0
  190.2790  175.6710  142.5550 O   0  0  0  0  0  0  0  0  0  0  0  0
  190.4230  176.8560  142.2850 C   0  0  0  0  0  0  0  0  0  0  0  0
  191.3360  177.6990  143.1290 C   0  0  0  0  0  2  0  0  0  0  0  0
  190.8390  177.8170  144.5660 C   0  0  0  0  0  2  0  0  0  0  0  0
  191.8110  177.2620  145.4950 N   0  0  0  0  0  2  0  0  0  0  0  0
  191.4330  176.7050  146.7610 C   0  0  0  0  0  0  0  0  0  0  0  0
  190.2330  176.6280  147.0910 O   0  0  0  0  0  0  0  0  0  0  0  0
  192.4150  176.2670  147.6460 O   0  0  0  0  0  1  0  0  0  0  0  0
  188.4280  178.0610  141.4190 C   0  0  0  0  0  0  0  0  0  0  0  0
  188.1610  179.2010  140.9330 O   0  0  0  0  0  0  0  0  0  0  0  0
  187.4840  177.4250  142.2400 O   0  0  0  0  0  0  0  0  0  0  0  0
  186.8210  178.0360  143.3490 C   0  0  2  0  0  3  0  0  0  0  0  0
  187.2830  177.4020  144.6560 C   0  0  0  0  0  1  0  0  0  0  0  0
  184.8270  180.0190  143.9850 O   0  0  0  0  0  0  0  0  0  0  0  0
  185.3770  177.8840  143.2290 N   0  0  0  0  0  2  0  0  0  0  0  0
  184.4590  178.8340  143.7480 C   0  0  0  0  0  0  0  0  0  0  0  0
  183.0310  178.4120  143.9650 C   0  0  0  0  0  2  0  0  0  0  0  0
  182.3170  178.8140  141.6710 N   0  0  0  0  0  0  0  0  0  0  0  0
  180.1400  178.1760  142.0680 N   0  0  0  0  0  2  0  0  0  0  0  0
  181.2320  178.3060  141.1660 C   0  0  0  0  0  0  0  0  0  0  0  0
  180.0150  178.9040  144.3160 O   0  0  0  0  0  0  0  0  0  0  0  0
  182.0830  179.1880  143.0630 C   0  0  1  0  0  3  0  0  0  0  0  0
  180.6830  178.7390  143.2620 C   0  0  0  0  0  0  0  0  0  0  0  0
  181.1550  177.7110  139.4920 S   0  0  0  0  0  0  0  0  0  0  0  0
  183.6520  177.3090  138.5090 C   0  0  0  0  0  1  0  0  0  0  0  0
  182.7710  178.4090  139.0620 C   0  0  0  0  0  2  0  0  0  0  0  0
  189.5320  176.3970  139.9210 C   0  0  0  0  0  2  0  0  0  0  0  0
  190.4280  175.8040  137.5800 C   0  0  0  0  0  0  0  0  0  0  0  0
  190.5990  176.3780  138.8590 C   0  0  0  0  0  0  0  0  0  0  0  0
  192.9440  176.7820  138.3610 C   0  0  0  0  0  3  0  0  0  0  0  0
  191.8690  176.8250  139.2450 C   0  0  0  0  0  3  0  0  0  0  0  0
  192.7630  176.3020  137.0620 C   0  0  0  0  0  0  0  0  0  0  0  0
  191.5120  175.8000  136.6860 C   0  0  0  0  0  3  0  0  0  0  0  0
  189.1600  175.0800  137.2050 C   0  0  2  0  0  3  0  0  0  0  0  0
  189.4300  173.6290  136.8500 C   0  0  0  0  0  1  0  0  0  0  0  0
  188.3430  175.0210  134.9350 O   0  0  0  0  0  1  0  0  0  0  0  0
  188.3220  175.7560  136.1230 C   0  0  0  0  0  2  0  0  0  0  0  0
  194.1500  176.1950  135.9130 S   0  0  0  0  0  0  0  0  0  0  0  0
  196.0160  174.3110  138.2020 C   0  0  0  0  0  0  0  0  0  0  0  0
  196.0990  174.3150  135.8810 N   0  0  0  0  0  2  0  0  0  0  0  0
  196.4160  174.6700  139.7410 S   0  0  0  0  0  0  0  0  0  0  0  0
  194.6800  174.3150  137.7640 N   0  0  0  0  0  2  0  0  0  0  0  0
  196.9110  174.5780  137.0620 C   0  0  2  0  0  3  0  0  0  0  0  0
  194.7060  174.4860  136.3210 C   0  0  1  0  0  0  0  0  0  0  0  0
  193.8830  173.5310  135.7180 O   0  0  0  0  0  1  0  0  0  0  0  0
  199.1760  174.3280  137.8750 O   0  0  0  0  0  1  0  0  0  0  0  0
  197.9150  172.4510  137.5290 O   0  0  0  0  0  1  0  0  0  0  0  0
  198.1930  173.7450  137.0680 C   0  0  0  0  0  3  0  0  0  0  0  0
  1 28  1  6  0  0  0
  1 10  1  0  0  0  0
  1  3  1  0  0  0  0
  3  2  2  0  0  0  0
  3  4  1  0  0  0  0
  4  5  1  0  0  0  0
  5  6  1  0  0  0  0
  6  7  1  0  0  0  0
  7  8  2  0  0  0  0
  7  9  1  0  0  0  0
 10 12  1  0  0  0  0
 11 10  2  0  0  0  0
 12 13  1  0  0  0  0
 13 14  1  1  0  0  0
 16 13  1  0  0  0  0
 16 17  1  0  0  0  0
 17 18  1  0  0  0  0
 17 15  2  0  0  0  0
 19 23  1  0  0  0  0
 20 24  1  0  0  0  0
 21 19  2  0  0  0  0
 21 20  1  0  0  0  0
 23 24  1  0  0  0  0
 23 18  1  1  0  0  0
 24 22  2  0  0  0  0
 25 21  1  0  0  0  0
 26 27  1  0  0  0  0
 27 25  1  0  0  0  0
 29 30  1  0  0  0  0
 30 32  2  0  0  0  0
 30 28  1  0  0  0  0
 31 32  1  0  0  0  0
 33 31  2  0  0  0  0
 34 33  1  0  0  0  0
 34 29  2  0  0  0  0
 35 36  1  6  0  0  0
 35 29  1  0  0  0  0
 37 38  1  0  0  0  0
 38 35  1  0  0  0  0
 39 45  1  0  0  0  0
 39 33  1  0  0  0  0
 40 42  2  0  0  0  0
 41 45  1  0  0  0  0
 41 44  1  0  0  0  0
 43 40  1  0  0  0  0
 44 49  1  1  0  0  0
 44 40  1  0  0  0  0
 45 46  1  6  0  0  0
 45 43  1  0  0  0  0
 49 48  1  0  0  0  0
 49 47  1  0  0  0  0
M  END
>  <MODEL>
4

>  <REMARK>
 VINA RESULT:      -6.9      3.156      9.669
  Name = 
  19 active torsions:
  status: ('A' for Active; 'I' for Inactive)
    1  A    between atoms: C_2  and  O_7
    2  A    between atoms: C_2  and  N_35
    3  A    between atoms: C_3  and  C_12
    4  A    between atoms: S_4  and  C_27
    5  A    between atoms: S_4  and  C_32
    6  A    between atoms: O_7  and  C_10
    7  A    between atoms: C_8  and  C_46
    8  A    between atoms: C_9  and  C_25
    9  A    between atoms: C_9  and  C_43
   10  A    between atoms: C_10  and  C_24
   11  A    between atoms: C_12  and  C_36
   12  A    between atoms: N_14  and  C_25
   13  A    between atoms: C_24  and  C_43
   14  A    between atoms: C_24  and  C_46
   15  A    between atoms: C_28  and  S_41
   16  A    between atoms: CA_30  and  C_45
   17  A    between atoms: C_31  and  S_41
   18  A    between atoms: C_39  and  C_42
   19  A    between atoms: C_42  and  C_49
                            x       y       z     vdW  Elec       q    Type
                         _______ _______ _______ _____ _____    ______ ____

>  <TORSDO>
F 19

$$$$
=
 OpenBabel10222419233D

 49 51  0  0  1  0  0  0  0  0999 V2000
  189.4440  176.7960  140.7570 C   0  0  2  0  0  3  0  0  0  0  0  0
  190.6570  175.8570  142.5460 O   0  0  0  0  0  0  0  0  0  0  0  0
  189.5800  176.3110  142.1810 C   0  0  0  0  0  0  0  0  0  0  0  0
  188.4620  176.4470  143.1760 C   0  0  0  0  0  2  0  0  0  0  0  0
  188.6710  177.6340  144.1100 C   0  0  0  0  0  2  0  0  0  0  0  0
  188.8870  177.1830  145.4760 N   0  0  0  0  0  2  0  0  0  0  0  0
  190.1960  177.0600  146.0480 C   0  0  0  0  0  0  0  0  0  0  0  0
  191.2080  177.3930  145.3990 O   0  0  0  0  0  0  0  0  0  0  0  0
  190.3450  176.5440  147.3320 O   0  0  0  0  0  1  0  0  0  0  0  0
  190.7510  176.6720  140.0180 C   0  0  0  0  0  0  0  0  0  0  0  0
  191.6530  177.5380  140.2250 O   0  0  0  0  0  0  0  0  0  0  0  0
  191.0090  175.6060  139.1430 O   0  0  0  0  0  0  0  0  0  0  0  0
  191.5200  175.7410  137.8150 C   0  0  2  0  0  3  0  0  0  0  0  0
  190.5810  175.0740  136.8170 C   0  0  0  0  0  1  0  0  0  0  0  0
  193.8630  176.9190  136.6170 O   0  0  0  0  0  0  0  0  0  0  0  0
  192.8400  175.1330  137.7100 N   0  0  0  0  0  2  0  0  0  0  0  0
  193.8850  175.6970  136.9310 C   0  0  0  0  0  0  0  0  0  0  0  0
  195.0400  174.8180  136.5320 C   0  0  0  0  0  2  0  0  0  0  0  0
  195.3840  172.6560  137.6020 N   0  0  0  0  0  0  0  0  0  0  0  0
  197.6790  172.8510  137.6160 N   0  0  0  0  0  2  0  0  0  0  0  0
  196.5220  172.0260  137.5770 C   0  0  0  0  0  0  0  0  0  0  0  0
  197.7840  175.2010  137.8690 O   0  0  0  0  0  0  0  0  0  0  0  0
  195.6210  174.0900  137.7360 C   0  0  1  0  0  3  0  0  0  0  0  0
  197.1030  174.1520  137.7220 C   0  0  0  0  0  0  0  0  0  0  0  0
  196.6210  170.2590  137.3930 S   0  0  0  0  0  0  0  0  0  0  0  0
  195.8060  170.1540  134.8070 C   0  0  0  0  0  1  0  0  0  0  0  0
  197.0550  170.3640  135.6370 C   0  0  0  0  0  2  0  0  0  0  0  0
  188.8780  178.2130  140.6060 C   0  0  0  0  0  2  0  0  0  0  0  0
  187.1280  178.0850  138.7200 C   0  0  0  0  0  0  0  0  0  0  0  0
  187.4730  178.3070  140.0720 C   0  0  0  0  0  0  0  0  0  0  0  0
  185.1860  178.9850  140.5420 C   0  0  0  0  0  3  0  0  0  0  0  0
  186.5020  178.7920  140.9560 C   0  0  0  0  0  3  0  0  0  0  0  0
  184.8140  178.6790  139.2310 C   0  0  0  0  0  0  0  0  0  0  0  0
  185.7890  178.2490  138.3250 C   0  0  0  0  0  3  0  0  0  0  0  0
  188.1770  177.8100  137.6740 C   0  0  2  0  0  3  0  0  0  0  0  0
  188.9320  179.0730  137.2960 C   0  0  0  0  0  1  0  0  0  0  0  0
  188.4100  177.4600  135.2980 O   0  0  0  0  0  1  0  0  0  0  0  0
  187.6790  177.0830  136.4280 C   0  0  0  0  0  2  0  0  0  0  0  0
  183.1260  178.9630  138.6590 S   0  0  0  0  0  0  0  0  0  0  0  0
  182.8690  175.4820  138.3660 C   0  0  0  0  0  0  0  0  0  0  0  0
  181.1890  177.0740  138.5650 N   0  0  0  0  0  2  0  0  0  0  0  0
  183.8970  174.4330  137.6580 S   0  0  0  0  0  0  0  0  0  0  0  0
  183.2920  176.3730  139.3680 N   0  0  0  0  0  2  0  0  0  0  0  0
  181.6970  176.0420  137.6700 C   0  0  2  0  0  3  0  0  0  0  0  0
  182.3380  177.4690  139.3940 C   0  0  1  0  0  0  0  0  0  0  0  0
  181.9320  177.7090  140.7090 O   0  0  0  0  0  1  0  0  0  0  0  0
  179.8800  174.6510  138.4560 O   0  0  0  0  0  1  0  0  0  0  0  0
  179.7670  175.5230  136.3440 O   0  0  0  0  0  1  0  0  0  0  0  0
  180.6240  175.0080  137.3270 C   0  0  0  0  0  3  0  0  0  0  0  0
  1 28  1  1  0  0  0
  1  3  1  0  0  0  0
  3  2  2  0  0  0  0
  3  4  1  0  0  0  0
  4  5  1  0  0  0  0
  5  6  1  0  0  0  0
  6  7  1  0  0  0  0
  7  9  1  0  0  0  0
  8  7  2  0  0  0  0
 10 11  2  0  0  0  0
 10  1  1  0  0  0  0
 12 10  1  0  0  0  0
 13 14  1  6  0  0  0
 13 12  1  0  0  0  0
 15 17  2  0  0  0  0
 16 13  1  0  0  0  0
 17 16  1  0  0  0  0
 18 17  1  0  0  0  0
 19 23  1  0  0  0  0
 20 24  1  0  0  0  0
 21 19  2  0  0  0  0
 21 20  1  0  0  0  0
 23 18  1  6  0  0  0
 24 23  1  0  0  0  0
 24 22  2  0  0  0  0
 25 21  1  0  0  0  0
 26 27  1  0  0  0  0
 27 25  1  0  0  0  0
 29 30  1  0  0  0  0
 30 28  1  0  0  0  0
 30 32  2  0  0  0  0
 31 32  1  0  0  0  0
 33 31  2  0  0  0  0
 34 29  2  0  0  0  0
 34 33  1  0  0  0  0
 35 36  1  6  0  0  0
 35 29  1  0  0  0  0
 37 38  1  0  0  0  0
 38 35  1  0  0  0  0
 39 33  1  0  0  0  0
 39 45  1  0  0  0  0
 40 43  1  0  0  0  0
 41 45  1  0  0  0  0
 42 40  2  0  0  0  0
 43 45  1  0  0  0  0
 44 49  1  1  0  0  0
 44 40  1  0  0  0  0
 44 41  1  0  0  0  0
 45 46  1  1  0  0  0
 48 49  1  0  0  0  0
 49 47  1  0  0  0  0
M  END
>  <MODEL>
5

>  <REMARK>
 VINA RESULT:      -6.6      3.240      7.776
  Name = 
  19 active torsions:
  status: ('A' for Active; 'I' for Inactive)
    1  A    between atoms: C_2  and  O_7
    2  A    between atoms: C_2  and  N_35
    3  A    between atoms: C_3  and  C_12
    4  A    between atoms: S_4  and  C_27
    5  A    between atoms: S_4  and  C_32
    6  A    between atoms: O_7  and  C_10
    7  A    between atoms: C_8  and  C_46
    8  A    between atoms: C_9  and  C_25
    9  A    between atoms: C_9  and  C_43
   10  A    between atoms: C_10  and  C_24
   11  A    between atoms: C_12  and  C_36
   12  A    between atoms: N_14  and  C_25
   13  A    between atoms: C_24  and  C_43
   14  A    between atoms: C_24  and  C_46
   15  A    between atoms: C_28  and  S_41
   16  A    between atoms: CA_30  and  C_45
   17  A    between atoms: C_31  and  S_41
   18  A    between atoms: C_39  and  C_42
   19  A    between atoms: C_42  and  C_49
                            x       y       z     vdW  Elec       q    Type
                         _______ _______ _______ _____ _____    ______ ____

>  <TORSDO>
F 19

$$$$
=
 OpenBabel10222419233D

 49 51  0  0  1  0  0  0  0  0999 V2000
  191.9790  176.4690  137.9960 C   0  0  2  0  0  3  0  0  0  0  0  0
  193.9500  177.1240  136.8830 O   0  0  0  0  0  0  0  0  0  0  0  0
  193.2590  176.1820  137.2470 C   0  0  0  0  0  0  0  0  0  0  0  0
  193.7440  174.7790  137.0120 C   0  0  0  0  0  2  0  0  0  0  0  0
  194.9460  174.4360  137.8850 C   0  0  0  0  0  2  0  0  0  0  0  0
  196.1840  174.5670  137.1330 N   0  0  0  0  0  2  0  0  0  0  0  0
  196.7720  173.4690  136.4230 C   0  0  0  0  0  0  0  0  0  0  0  0
  196.2040  172.3590  136.3820 O   0  0  0  0  0  1  0  0  0  0  0  0
  198.0010  173.6320  135.7900 O   0  0  0  0  0  0  0  0  0  0  0  0
  192.2680  176.9080  139.4080 C   0  0  0  0  0  0  0  0  0  0  0  0
  193.4470  176.7840  139.8560 O   0  0  0  0  0  0  0  0  0  0  0  0
  191.2800  177.4860  140.2200 O   0  0  0  0  0  0  0  0  0  0  0  0
  190.1400  176.7980  140.7380 C   0  0  2  0  0  3  0  0  0  0  0  0
  188.9130  177.7010  140.6950 C   0  0  0  0  0  1  0  0  0  0  0  0
  191.2710  178.3990  142.8530 O   0  0  0  0  0  0  0  0  0  0  0  0
  190.3760  176.3780  142.1130 N   0  0  0  0  0  2  0  0  0  0  0  0
  191.1170  177.1600  143.0390 C   0  0  0  0  0  0  0  0  0  0  0  0
  191.6710  176.4880  144.2660 C   0  0  0  0  0  2  0  0  0  0  0  0
  189.9990  177.7520  145.5070 N   0  0  0  0  0  0  0  0  0  0  0  0
  190.1520  176.4190  147.3800 N   0  0  0  0  0  2  0  0  0  0  0  0
  189.3810  177.2770  146.5490 C   0  0  0  0  0  0  0  0  0  0  0  0
  192.4460  175.8730  147.1790 O   0  0  0  0  0  0  0  0  0  0  0  0
  191.3890  177.3060  145.5170 C   0  0  1  0  0  3  0  0  0  0  0  0
  191.4200  176.4460  146.7250 C   0  0  0  0  0  0  0  0  0  0  0  0
  187.6560  177.5930  146.8510 S   0  0  0  0  0  0  0  0  0  0  0  0
  185.8090  178.1130  144.9320 C   0  0  0  0  0  1  0  0  0  0  0  0
  187.2760  177.7710  145.0880 C   0  0  0  0  0  2  0  0  0  0  0  0
  190.9550  175.3280  137.9910 C   0  0  0  0  0  2  0  0  0  0  0  0
  188.7080  174.7530  136.8680 C   0  0  0  0  0  0  0  0  0  0  0  0
  189.5820  175.6790  137.4820 C   0  0  0  0  0  0  0  0  0  0  0  0
  188.0260  177.4770  136.9770 C   0  0  0  0  0  3  0  0  0  0  0  0
  189.2430  177.0370  137.4920 C   0  0  0  0  0  3  0  0  0  0  0  0
  187.1150  176.5580  136.4530 C   0  0  0  0  0  0  0  0  0  0  0  0
  187.4690  175.2060  136.3860 C   0  0  0  0  0  3  0  0  0  0  0  0
  189.1290  173.3310  136.6010 C   0  0  2  0  0  3  0  0  0  0  0  0
  189.2980  173.0690  135.1150 C   0  0  0  0  0  1  0  0  0  0  0  0
  187.6750  171.4330  136.2780 O   0  0  0  0  0  1  0  0  0  0  0  0
  188.2510  172.2610  137.2450 C   0  0  0  0  0  2  0  0  0  0  0  0
  185.5520  177.1080  135.7400 S   0  0  0  0  0  0  0  0  0  0  0  0
  182.8580  178.3160  137.6260 C   0  0  0  0  0  0  0  0  0  0  0  0
  184.9070  177.4890  138.3420 N   0  0  0  0  0  2  0  0  0  0  0  0
  181.7170  179.4020  137.2050 S   0  0  0  0  0  0  0  0  0  0  0  0
  183.1040  177.1650  136.8570 N   0  0  0  0  0  2  0  0  0  0  0  0
  184.0780  178.6870  138.3650 C   0  0  2  0  0  3  0  0  0  0  0  0
  184.4540  176.7260  137.1690 C   0  0  1  0  0  0  0  0  0  0  0  0
  184.4510  175.3570  137.4500 O   0  0  0  0  0  1  0  0  0  0  0  0
  183.0370  178.2590  140.5060 O   0  0  0  0  0  1  0  0  0  0  0  0
  185.0380  179.3670  140.4550 O   0  0  0  0  0  1  0  0  0  0  0  0
  183.8180  179.1720  139.7910 C   0  0  0  0  0  3  0  0  0  0  0  0
  1 28  1  1  0  0  0
  1 10  1  0  0  0  0
  2  3  2  0  0  0  0
  3  1  1  0  0  0  0
  4  3  1  0  0  0  0
  4  5  1  0  0  0  0
  6  5  1  0  0  0  0
  7  6  1  0  0  0  0
  8  7  1  0  0  0  0
  9  7  2  0  0  0  0
 10 11  2  0  0  0  0
 10 12  1  0  0  0  0
 12 13  1  0  0  0  0
 13 14  1  1  0  0  0
 13 16  1  0  0  0  0
 15 17  2  0  0  0  0
 16 17  1  0  0  0  0
 17 18  1  0  0  0  0
 19 23  1  0  0  0  0
 19 21  2  0  0  0  0
 21 25  1  0  0  0  0
 21 20  1  0  0  0  0
 23 18  1  6  0  0  0
 23 24  1  0  0  0  0
 24 22  2  0  0  0  0
 24 20  1  0  0  0  0
 26 27  1  0  0  0  0
 27 25  1  0  0  0  0
 29 30  1  0  0  0  0
 30 32  2  0  0  0  0
 30 28  1  0  0  0  0
 31 32  1  0  0  0  0
 33 31  2  0  0  0  0
 34 33  1  0  0  0  0
 34 29  2  0  0  0  0
 35 36  1  6  0  0  0
 35 29  1  0  0  0  0
 35 38  1  0  0  0  0
 37 38  1  0  0  0  0
 39 33  1  0  0  0  0
 39 45  1  0  0  0  0
 40 44  1  0  0  0  0
 41 44  1  0  0  0  0
 42 40  2  0  0  0  0
 43 45  1  0  0  0  0
 43 40  1  0  0  0  0
 44 49  1  1  0  0  0
 45 46  1  1  0  0  0
 45 41  1  0  0  0  0
 49 48  1  0  0  0  0
 49 47  1  0  0  0  0
M  END
>  <MODEL>
6

>  <REMARK>
 VINA RESULT:      -6.4      2.278      3.125
  Name = 
  19 active torsions:
  status: ('A' for Active; 'I' for Inactive)
    1  A    between atoms: C_2  and  O_7
    2  A    between atoms: C_2  and  N_35
    3  A    between atoms: C_3  and  C_12
    4  A    between atoms: S_4  and  C_27
    5  A    between atoms: S_4  and  C_32
    6  A    between atoms: O_7  and  C_10
    7  A    between atoms: C_8  and  C_46
    8  A    between atoms: C_9  and  C_25
    9  A    between atoms: C_9  and  C_43
   10  A    between atoms: C_10  and  C_24
   11  A    between atoms: C_12  and  C_36
   12  A    between atoms: N_14  and  C_25
   13  A    between atoms: C_24  and  C_43
   14  A    between atoms: C_24  and  C_46
   15  A    between atoms: C_28  and  S_41
   16  A    between atoms: CA_30  and  C_45
   17  A    between atoms: C_31  and  S_41
   18  A    between atoms: C_39  and  C_42
   19  A    between atoms: C_42  and  C_49
                            x       y       z     vdW  Elec       q    Type
                         _______ _______ _______ _____ _____    ______ ____

>  <TORSDO>
F 19

$$$$
=
 OpenBabel10222419233D

 49 51  0  0  1  0  0  0  0  0999 V2000
  189.1240  178.1200  141.8620 C   0  0  2  0  0  3  0  0  0  0  0  0
  190.3690  178.9200  143.6950 O   0  0  0  0  0  0  0  0  0  0  0  0
  189.6120  178.0480  143.2900 C   0  0  0  0  0  0  0  0  0  0  0  0
  189.1300  176.9900  144.2410 C   0  0  0  0  0  2  0  0  0  0  0  0
  189.6930  177.1850  145.6450 C   0  0  0  0  0  2  0  0  0  0  0  0
  188.6300  177.1440  146.6370 N   0  0  0  0  0  2  0  0  0  0  0  0
  188.8160  177.6030  147.9830 C   0  0  0  0  0  0  0  0  0  0  0  0
  189.8990  178.1110  148.3390 O   0  0  0  0  0  0  0  0  0  0  0  0
  187.7890  177.4610  148.9110 O   0  0  0  0  0  1  0  0  0  0  0  0
  187.7110  178.6380  141.8000 C   0  0  0  0  0  0  0  0  0  0  0  0
  187.4220  179.5220  140.9390 O   0  0  0  0  0  0  0  0  0  0  0  0
  186.7020  178.1390  142.6390 O   0  0  0  0  0  0  0  0  0  0  0  0
  185.4010  178.7110  142.7840 C   0  0  2  0  0  3  0  0  0  0  0  0
  184.9620  178.6630  144.2430 C   0  0  0  0  0  1  0  0  0  0  0  0
  184.4360  179.4850  140.1790 O   0  0  0  0  0  0  0  0  0  0  0  0
  184.4300  177.9920  141.9690 N   0  0  0  0  0  2  0  0  0  0  0  0
  183.8620  178.5400  140.7890 C   0  0  0  0  0  0  0  0  0  0  0  0
  182.5880  177.9400  140.2580 C   0  0  0  0  0  2  0  0  0  0  0  0
  183.2390  176.6000  138.3310 N   0  0  0  0  0  0  0  0  0  0  0  0
  181.0920  176.4480  137.5110 N   0  0  0  0  0  2  0  0  0  0  0  0
  182.3940  175.8910  137.6420 C   0  0  0  0  0  0  0  0  0  0  0  0
  180.3290  178.5580  138.2640 O   0  0  0  0  0  0  0  0  0  0  0  0
  182.6110  177.8530  138.7390 C   0  0  1  0  0  3  0  0  0  0  0  0
  181.2380  177.6890  138.2020 C   0  0  0  0  0  0  0  0  0  0  0  0
  182.8070  174.2840  137.0020 S   0  0  0  0  0  0  0  0  0  0  0  0
  185.0860  173.0380  137.7870 C   0  0  0  0  0  1  0  0  0  0  0  0
  184.5450  174.4220  137.4970 C   0  0  0  0  0  2  0  0  0  0  0  0
  189.2480  176.8130  141.0680 C   0  0  0  0  0  2  0  0  0  0  0  0
  189.9360  176.6460  138.5910 C   0  0  0  0  0  0  0  0  0  0  0  0
  190.2630  176.8140  139.9560 C   0  0  0  0  0  0  0  0  0  0  0  0
  192.6270  176.7610  139.3930 C   0  0  0  0  0  3  0  0  0  0  0  0
  191.6090  176.8300  140.3400 C   0  0  0  0  0  3  0  0  0  0  0  0
  192.3150  176.6890  138.0340 C   0  0  0  0  0  0  0  0  0  0  0  0
  190.9730  176.6140  137.6430 C   0  0  0  0  0  3  0  0  0  0  0  0
  188.5230  176.3680  138.1480 C   0  0  2  0  0  3  0  0  0  0  0  0
  188.4890  175.6580  136.8060 C   0  0  0  0  0  1  0  0  0  0  0  0
  188.2700  178.7350  137.7550 O   0  0  0  0  0  1  0  0  0  0  0  0
  187.5920  177.5770  138.1460 C   0  0  0  0  0  2  0  0  0  0  0  0
  193.6160  176.5530  136.7910 S   0  0  0  0  0  0  0  0  0  0  0  0
  196.2970  174.3320  137.1730 C   0  0  0  0  0  0  0  0  0  0  0  0
  194.4600  174.1970  135.7590 N   0  0  0  0  0  2  0  0  0  0  0  0
  197.8210  174.6390  137.6660 S   0  0  0  0  0  0  0  0  0  0  0  0
  195.1810  174.6960  137.9480 N   0  0  0  0  0  2  0  0  0  0  0  0
  195.9150  174.2760  135.7510 C   0  0  2  0  0  3  0  0  0  0  0  0
  194.0460  174.7800  137.0440 C   0  0  1  0  0  0  0  0  0  0  0  0
  192.9660  174.0710  137.5770 O   0  0  0  0  0  1  0  0  0  0  0  0
  197.8580  173.4040  134.6020 O   0  0  0  0  0  1  0  0  0  0  0  0
  196.5300  171.9580  135.7770 O   0  0  0  0  0  1  0  0  0  0  0  0
  196.5440  173.1140  134.9830 C   0  0  0  0  0  3  0  0  0  0  0  0
  1 28  1  1  0  0  0
  1  3  1  0  0  0  0
  3  2  2  0  0  0  0
  3  4  1  0  0  0  0
  4  5  1  0  0  0  0
  5  6  1  0  0  0  0
  6  7  1  0  0  0  0
  7  8  2  0  0  0  0
  7  9  1  0  0  0  0
 10  1  1  0  0  0  0
 10 12  1  0  0  0  0
 11 10  2  0  0  0  0
 12 13  1  0  0  0  0
 13 14  1  1  0  0  0
 15 17  2  0  0  0  0
 16 13  1  0  0  0  0
 17 16  1  0  0  0  0
 18 17  1  0  0  0  0
 19 23  1  0  0  0  0
 20 21  1  0  0  0  0
 20 24  1  0  0  0  0
 21 19  2  0  0  0  0
 23 18  1  1  0  0  0
 24 22  2  0  0  0  0
 24 23  1  0  0  0  0
 25 27  1  0  0  0  0
 25 21  1  0  0  0  0
 27 26  1  0  0  0  0
 29 30  1  0  0  0  0
 30 32  2  0  0  0  0
 30 28  1  0  0  0  0
 31 32  1  0  0  0  0
 33 31  2  0  0  0  0
 34 33  1  0  0  0  0
 34 29  2  0  0  0  0
 35 36  1  6  0  0  0
 35 29  1  0  0  0  0
 37 38  1  0  0  0  0
 38 35  1  0  0  0  0
 39 45  1  0  0  0  0
 39 33  1  0  0  0  0
 40 42  2  0  0  0  0
 40 43  1  0  0  0  0
 41 45  1  0  0  0  0
 44 49  1  1  0  0  0
 44 41  1  0  0  0  0
 44 40  1  0  0  0  0
 45 46  1  1  0  0  0
 45 43  1  0  0  0  0
 47 49  1  0  0  0  0
 49 48  1  0  0  0  0
M  END
>  <MODEL>
7

>  <REMARK>
 VINA RESULT:      -6.3      3.382     10.309
  Name = 
  19 active torsions:
  status: ('A' for Active; 'I' for Inactive)
    1  A    between atoms: C_2  and  O_7
    2  A    between atoms: C_2  and  N_35
    3  A    between atoms: C_3  and  C_12
    4  A    between atoms: S_4  and  C_27
    5  A    between atoms: S_4  and  C_32
    6  A    between atoms: O_7  and  C_10
    7  A    between atoms: C_8  and  C_46
    8  A    between atoms: C_9  and  C_25
    9  A    between atoms: C_9  and  C_43
   10  A    between atoms: C_10  and  C_24
   11  A    between atoms: C_12  and  C_36
   12  A    between atoms: N_14  and  C_25
   13  A    between atoms: C_24  and  C_43
   14  A    between atoms: C_24  and  C_46
   15  A    between atoms: C_28  and  S_41
   16  A    between atoms: CA_30  and  C_45
   17  A    between atoms: C_31  and  S_41
   18  A    between atoms: C_39  and  C_42
   19  A    between atoms: C_42  and  C_49
                            x       y       z     vdW  Elec       q    Type
                         _______ _______ _______ _____ _____    ______ ____

>  <TORSDO>
F 19

$$$$
=
 OpenBabel10222419233D

 49 51  0  0  1  0  0  0  0  0999 V2000
  187.8680  177.7780  137.0340 C   0  0  2  0  0  3  0  0  0  0  0  0
  189.6830  178.1020  135.5670 O   0  0  0  0  0  0  0  0  0  0  0  0
  188.6640  177.4620  135.7900 C   0  0  0  0  0  0  0  0  0  0  0  0
  188.2850  176.3360  134.8700 C   0  0  0  0  0  2  0  0  0  0  0  0
  189.2510  175.1620  134.9780 C   0  0  0  0  0  2  0  0  0  0  0  0
  188.5710  173.9790  135.4830 N   0  0  0  0  0  2  0  0  0  0  0  0
  188.8110  173.4570  136.7970 C   0  0  0  0  0  0  0  0  0  0  0  0
  189.5850  174.0400  137.5830 O   0  0  0  0  0  1  0  0  0  0  0  0
  188.1950  172.2740  137.1950 O   0  0  0  0  0  0  0  0  0  0  0  0
  188.7780  178.1160  138.1860 C   0  0  0  0  0  0  0  0  0  0  0  0
  189.1000  179.3280  138.3740 O   0  0  0  0  0  0  0  0  0  0  0  0
  189.2420  177.1350  139.0760 O   0  0  0  0  0  0  0  0  0  0  0  0
  190.3660  177.2840  139.9450 C   0  0  2  0  0  3  0  0  0  0  0  0
  191.5720  176.5440  139.3800 C   0  0  0  0  0  1  0  0  0  0  0  0
  191.2870  178.3450  142.4630 O   0  0  0  0  0  0  0  0  0  0  0  0
  190.0620  176.7600  141.2710 N   0  0  0  0  0  2  0  0  0  0  0  0
  190.7130  177.2200  142.4460 C   0  0  0  0  0  0  0  0  0  0  0  0
  190.6630  176.3600  143.6790 C   0  0  0  0  0  2  0  0  0  0  0  0
  190.0730  177.8850  145.4850 N   0  0  0  0  0  0  0  0  0  0  0  0
  190.6730  176.4040  147.1440 N   0  0  0  0  0  2  0  0  0  0  0  0
  189.8670  177.4900  146.7070 C   0  0  0  0  0  0  0  0  0  0  0  0
  192.4330  175.3360  145.9770 O   0  0  0  0  0  0  0  0  0  0  0  0
  191.1680  177.1150  144.8990 C   0  0  1  0  0  3  0  0  0  0  0  0
  191.4960  176.1760  146.0000 C   0  0  0  0  0  0  0  0  0  0  0  0
  188.5850  178.1900  147.7230 S   0  0  0  0  0  0  0  0  0  0  0  0
  186.6260  177.9290  145.8630 C   0  0  0  0  0  1  0  0  0  0  0  0
  187.2930  177.1570  146.9810 C   0  0  0  0  0  2  0  0  0  0  0  0
  186.8590  176.7000  137.4500 C   0  0  0  0  0  2  0  0  0  0  0  0
  184.3110  176.6020  137.0800 C   0  0  0  0  0  0  0  0  0  0  0  0
  185.4500  177.1750  137.6890 C   0  0  0  0  0  0  0  0  0  0  0  0
  184.0530  178.9120  138.6590 C   0  0  0  0  0  3  0  0  0  0  0  0
  185.3070  178.3480  138.4400 C   0  0  0  0  0  3  0  0  0  0  0  0
  182.9110  178.3000  138.1390 C   0  0  0  0  0  0  0  0  0  0  0  0
  183.0480  177.1600  137.3400 C   0  0  0  0  0  3  0  0  0  0  0  0
  184.4350  175.4980  136.0620 C   0  0  2  0  0  3  0  0  0  0  0  0
  183.2480  175.4770  135.1150 C   0  0  0  0  0  1  0  0  0  0  0  0
  183.7210  173.7630  137.5790 O   0  0  0  0  0  1  0  0  0  0  0  0
  184.6940  174.1080  136.6370 C   0  0  0  0  0  2  0  0  0  0  0  0
  181.2800  179.0360  138.3710 S   0  0  0  0  0  0  0  0  0  0  0  0
  179.8900  179.4030  141.5660 C   0  0  0  0  0  0  0  0  0  0  0  0
  181.8160  178.2800  140.9150 N   0  0  0  0  0  2  0  0  0  0  0  0
  178.9470  180.6010  142.1420 S   0  0  0  0  0  0  0  0  0  0  0  0
  179.5510  178.6880  140.4030 N   0  0  0  0  0  2  0  0  0  0  0  0
  181.3510  179.3780  141.7530 C   0  0  2  0  0  3  0  0  0  0  0  0
  180.7800  178.1120  139.8850 C   0  0  1  0  0  0  0  0  0  0  0  0
  180.5840  176.7570  139.6050 O   0  0  0  0  0  1  0  0  0  0  0  0
  180.9020  178.3950  143.9170 O   0  0  0  0  0  1  0  0  0  0  0  0
  183.0760  178.6520  143.2530 O   0  0  0  0  0  1  0  0  0  0  0  0
  181.7900  179.2090  143.2070 C   0  0  0  0  0  3  0  0  0  0  0  0
  1 28  1  1  0  0  0
  1 10  1  0  0  0  0
  2  3  2  0  0  0  0
  3  1  1  0  0  0  0
  4  5  1  0  0  0  0
  4  3  1  0  0  0  0
  5  6  1  0  0  0  0
  6  7  1  0  0  0  0
  7  9  2  0  0  0  0
  7  8  1  0  0  0  0
 10 11  2  0  0  0  0
 10 12  1  0  0  0  0
 12 13  1  0  0  0  0
 13 14  1  6  0  0  0
 13 16  1  0  0  0  0
 16 17  1  0  0  0  0
 17 15  2  0  0  0  0
 17 18  1  0  0  0  0
 19 21  2  0  0  0  0
 21 20  1  0  0  0  0
 21 25  1  0  0  0  0
 22 24  2  0  0  0  0
 23 18  1  6  0  0  0
 23 19  1  0  0  0  0
 23 24  1  0  0  0  0
 24 20  1  0  0  0  0
 26 27  1  0  0  0  0
 27 25  1  0  0  0  0
 28 30  1  0  0  0  0
 29 34  2  0  0  0  0
 29 30  1  0  0  0  0
 30 32  2  0  0  0  0
 32 31  1  0  0  0  0
 33 39  1  0  0  0  0
 33 31  2  0  0  0  0
 34 33  1  0  0  0  0
 35 36  1  1  0  0  0
 35 38  1  0  0  0  0
 35 29  1  0  0  0  0
 38 37  1  0  0  0  0
 39 45  1  0  0  0  0
 40 44  1  0  0  0  0
 40 42  2  0  0  0  0
 41 44  1  0  0  0  0
 43 40  1  0  0  0  0
 44 49  1  1  0  0  0
 45 46  1  6  0  0  0
 45 43  1  0  0  0  0
 45 41  1  0  0  0  0
 49 48  1  0  0  0  0
 49 47  1  0  0  0  0
M  END
>  <MODEL>
8

>  <REMARK>
 VINA RESULT:      -6.3      2.048      2.610
  Name = 
  19 active torsions:
  status: ('A' for Active; 'I' for Inactive)
    1  A    between atoms: C_2  and  O_7
    2  A    between atoms: C_2  and  N_35
    3  A    between atoms: C_3  and  C_12
    4  A    between atoms: S_4  and  C_27
    5  A    between atoms: S_4  and  C_32
    6  A    between atoms: O_7  and  C_10
    7  A    between atoms: C_8  and  C_46
    8  A    between atoms: C_9  and  C_25
    9  A    between atoms: C_9  and  C_43
   10  A    between atoms: C_10  and  C_24
   11  A    between atoms: C_12  and  C_36
   12  A    between atoms: N_14  and  C_25
   13  A    between atoms: C_24  and  C_43
   14  A    between atoms: C_24  and  C_46
   15  A    between atoms: C_28  and  S_41
   16  A    between atoms: CA_30  and  C_45
   17  A    between atoms: C_31  and  S_41
   18  A    between atoms: C_39  and  C_42
   19  A    between atoms: C_42  and  C_49
                            x       y       z     vdW  Elec       q    Type
                         _______ _______ _______ _____ _____    ______ ____

>  <TORSDO>
F 19

$$$$
=
 OpenBabel10222419233D

 49 51  0  0  1  0  0  0  0  0999 V2000
  191.9980  176.6980  138.4480 C   0  0  2  0  0  3  0  0  0  0  0  0
  193.7640  176.8600  136.8970 O   0  0  0  0  0  0  0  0  0  0  0  0
  193.1040  176.1100  137.6040 C   0  0  0  0  0  0  0  0  0  0  0  0
  193.4650  174.6530  137.6720 C   0  0  0  0  0  2  0  0  0  0  0  0
  194.8980  174.4420  138.1480 C   0  0  0  0  0  2  0  0  0  0  0  0
  195.0700  173.1010  138.6870 N   0  0  0  0  0  2  0  0  0  0  0  0
  195.4280  171.9820  137.8660 C   0  0  0  0  0  0  0  0  0  0  0  0
  195.6610  172.1330  136.6500 O   0  0  0  0  0  0  0  0  0  0  0  0
  195.4960  170.7080  138.4230 O   0  0  0  0  0  1  0  0  0  0  0  0
  192.5420  177.2570  139.7370 C   0  0  0  0  0  0  0  0  0  0  0  0
  193.7970  177.3940  139.8610 O   0  0  0  0  0  0  0  0  0  0  0  0
  191.6990  177.6680  140.7810 O   0  0  0  0  0  0  0  0  0  0  0  0
  191.8970  177.3590  142.1620 C   0  0  2  0  0  3  0  0  0  0  0  0
  191.5740  175.8940  142.4280 C   0  0  0  0  0  1  0  0  0  0  0  0
  191.7000  177.2680  145.0370 O   0  0  0  0  0  0  0  0  0  0  0  0
  191.0480  178.1960  143.0010 N   0  0  0  0  0  2  0  0  0  0  0  0
  190.8630  177.9540  144.3880 C   0  0  0  0  0  0  0  0  0  0  0  0
  189.6740  178.5730  145.0720 C   0  0  0  0  0  2  0  0  0  0  0  0
  187.5560  178.1430  146.1970 N   0  0  0  0  0  0  0  0  0  0  0  0
  186.5450  177.2920  144.3100 N   0  0  0  0  0  2  0  0  0  0  0  0
  186.4370  177.9660  145.5570 C   0  0  0  0  0  0  0  0  0  0  0  0
  188.4770  176.3330  143.3360 O   0  0  0  0  0  0  0  0  0  0  0  0
  188.6480  177.5170  145.4570 C   0  0  1  0  0  3  0  0  0  0  0  0
  187.9430  177.0070  144.2560 C   0  0  0  0  0  0  0  0  0  0  0  0
  184.8940  178.6200  146.1520 S   0  0  0  0  0  0  0  0  0  0  0  0
  182.7630  178.9970  144.5150 C   0  0  0  0  0  1  0  0  0  0  0  0
  184.2760  178.9570  144.4820 C   0  0  0  0  0  2  0  0  0  0  0  0
  190.8250  175.7520  138.7310 C   0  0  0  0  0  2  0  0  0  0  0  0
  189.0260  175.2890  136.9450 C   0  0  0  0  0  0  0  0  0  0  0  0
  189.5410  176.0640  138.0090 C   0  0  0  0  0  0  0  0  0  0  0  0
  187.7710  177.6970  137.6710 C   0  0  0  0  0  3  0  0  0  0  0  0
  188.9240  177.2790  138.3310 C   0  0  0  0  0  3  0  0  0  0  0  0
  187.2020  176.8930  136.6810 C   0  0  0  0  0  0  0  0  0  0  0  0
  187.8420  175.7040  136.3120 C   0  0  0  0  0  3  0  0  0  0  0  0
  189.7860  174.1120  136.3890 C   0  0  2  0  0  3  0  0  0  0  0  0
  190.6700  174.5180  135.2240 C   0  0  0  0  0  1  0  0  0  0  0  0
  188.3020  172.3700  137.1550 O   0  0  0  0  0  1  0  0  0  0  0  0
  188.9320  172.9000  136.0260 C   0  0  0  0  0  2  0  0  0  0  0  0
  185.7350  177.4320  135.7800 S   0  0  0  0  0  0  0  0  0  0  0  0
  182.4600  177.6870  136.9960 C   0  0  0  0  0  0  0  0  0  0  0  0
  184.4220  177.1910  138.1360 N   0  0  0  0  0  2  0  0  0  0  0  0
  181.2160  178.5670  136.4160 S   0  0  0  0  0  0  0  0  0  0  0  0
  183.1590  176.7720  136.1890 N   0  0  0  0  0  2  0  0  0  0  0  0
  183.3390  178.1650  138.0780 C   0  0  2  0  0  3  0  0  0  0  0  0
  184.4630  176.5760  136.8010 C   0  0  1  0  0  0  0  0  0  0  0  0
  184.7340  175.2090  136.9020 O   0  0  0  0  0  1  0  0  0  0  0  0
  183.2430  177.5260  140.4090 O   0  0  0  0  0  1  0  0  0  0  0  0
  182.6650  179.6610  139.8260 O   0  0  0  0  0  1  0  0  0  0  0  0
  182.6380  178.3180  139.4280 C   0  0  0  0  0  3  0  0  0  0  0  0
  1 28  1  1  0  0  0
  1 10  1  0  0  0  0
  2  3  2  0  0  0  0
  3  4  1  0  0  0  0
  3  1  1  0  0  0  0
  4  5  1  0  0  0  0
  5  6  1  0  0  0  0
  7  9  1  0  0  0  0
  7  6  1  0  0  0  0
  8  7  2  0  0  0  0
 10 11  2  0  0  0  0
 10 12  1  0  0  0  0
 12 13  1  0  0  0  0
 13 14  1  6  0  0  0
 13 16  1  0  0  0  0
 16 17  1  0  0  0  0
 17 15  2  0  0  0  0
 17 18  1  0  0  0  0
 20 21  1  0  0  0  0
 21 25  1  0  0  0  0
 21 19  2  0  0  0  0
 22 24  2  0  0  0  0
 23 18  1  6  0  0  0
 23 19  1  0  0  0  0
 24 20  1  0  0  0  0
 24 23  1  0  0  0  0
 27 26  1  0  0  0  0
 27 25  1  0  0  0  0
 29 30  1  0  0  0  0
 30 32  2  0  0  0  0
 30 28  1  0  0  0  0
 31 32  1  0  0  0  0
 33 31  2  0  0  0  0
 34 33  1  0  0  0  0
 34 29  2  0  0  0  0
 35 36  1  6  0  0  0
 35 29  1  0  0  0  0
 38 35  1  0  0  0  0
 38 37  1  0  0  0  0
 39 33  1  0  0  0  0
 39 45  1  0  0  0  0
 40 44  1  0  0  0  0
 42 40  2  0  0  0  0
 43 45  1  0  0  0  0
 43 40  1  0  0  0  0
 44 41  1  0  0  0  0
 44 49  1  1  0  0  0
 45 46  1  1  0  0  0
 45 41  1  0  0  0  0
 49 48  1  0  0  0  0
 49 47  1  0  0  0  0
M  END
>  <MODEL>
9

>  <REMARK>
 VINA RESULT:      -6.3      2.349      3.686
  Name = 
  19 active torsions:
  status: ('A' for Active; 'I' for Inactive)
    1  A    between atoms: C_2  and  O_7
    2  A    between atoms: C_2  and  N_35
    3  A    between atoms: C_3  and  C_12
    4  A    between atoms: S_4  and  C_27
    5  A    between atoms: S_4  and  C_32
    6  A    between atoms: O_7  and  C_10
    7  A    between atoms: C_8  and  C_46
    8  A    between atoms: C_9  and  C_25
    9  A    between atoms: C_9  and  C_43
   10  A    between atoms: C_10  and  C_24
   11  A    between atoms: C_12  and  C_36
   12  A    between atoms: N_14  and  C_25
   13  A    between atoms: C_24  and  C_43
   14  A    between atoms: C_24  and  C_46
   15  A    between atoms: C_28  and  S_41
   16  A    between atoms: CA_30  and  C_45
   17  A    between atoms: C_31  and  S_41
   18  A    between atoms: C_39  and  C_42
   19  A    between atoms: C_42  and  C_49
                            x       y       z     vdW  Elec       q    Type
                         _______ _______ _______ _____ _____    ______ ____

>  <TORSDO>
F 19

$$$$
