=
 OpenBabel10222419443D

 54 61  0  0  1  0  0  0  0  0999 V2000
  187.9010  178.8530  146.8430 C   0  0  0  0  0  2  0  0  0  0  0  0
  188.2130  178.2500  148.2150 C   0  0  0  0  0  2  0  0  0  0  0  0
  189.8410  176.8110  142.8900 C   0  0  0  0  0  0  0  0  0  0  0  0
  190.3720  177.6080  147.5010 C   0  0  0  0  0  2  0  0  0  0  0  0
  190.7170  176.7660  146.3080 C   0  0  0  0  0  0  0  0  0  0  0  0
  188.0050  178.3680  142.7870 O   0  0  0  0  0  0  0  0  0  0  0  0
  188.8160  177.6770  143.4570 C   0  0  0  0  0  0  0  0  0  0  0  0
  190.5830  176.3220  143.8690 C   0  0  0  0  0  3  0  0  0  0  0  0
  189.1490  177.1310  148.1280 N   0  0  0  0  0  2  0  0  0  0  0  0
  187.7460  177.7560  145.8010 C   0  0  2  0  0  3  0  0  0  0  0  0
  190.0650  176.8830  145.1290 C   0  0  0  0  0  0  0  0  0  0  0  0
  188.8960  177.6930  144.8830 N   0  0  0  0  0  0  0  0  0  0  0  0
  191.8870  175.8750  146.4070 C   0  0  0  0  0  3  0  0  0  0  0  0
  192.4720  175.6500  147.5390 N   0  0  0  0  0  2  0  0  0  0  0  0
  186.3520  177.6720  145.1580 C   0  0  0  0  0  2  0  0  0  0  0  0
  184.4140  178.6090  146.2150 O   0  0  0  0  0  1  0  0  0  0  0  0
  185.4740  178.9070  145.3590 C   0  0  2  0  0  3  0  0  0  0  0  0
  184.9030  179.3560  144.0240 C   0  0  0  0  0  2  0  0  0  0  0  0
  182.9290  179.0070  142.6310 N   0  0  0  0  0  2  0  0  0  0  0  0
  183.9460  178.1650  141.9800 C   0  0  2  0  0  3  0  0  0  0  0  0
  183.9390  178.3190  143.4510 C   0  0  1  0  0  3  0  0  0  0  0  0
  184.9550  179.0380  141.2320 C   0  0  0  0  0  2  0  0  0  0  0  0
  186.6580  178.6280  139.6130 O   0  0  0  0  0  1  0  0  0  0  0  0
  185.2970  178.4430  139.8690 C   0  0  2  0  0  3  0  0  0  0  0  0
  184.4580  179.1010  138.7630 C   0  0  2  0  0  3  0  0  0  0  0  0
  184.1670  180.4260  139.0940 O   0  0  0  0  0  1  0  0  0  0  0  0
  181.9430  179.0560  139.0810 C   0  0  0  0  0  2  0  0  0  0  0  0
  180.8250  179.2220  138.0580 C   0  0  0  0  0  2  0  0  0  0  0  0
  183.1480  178.3630  138.4600 C   0  0  2  0  0  3  0  0  0  0  0  0
  181.9240  178.3040  135.6820 O   0  0  0  0  0  1  0  0  0  0  0  0
  182.0160  176.0810  136.6460 C   0  0  2  0  0  3  0  0  0  0  0  0
  180.8910  175.6540  138.7080 C   0  0  1  0  0  3  0  0  0  0  0  0
  179.9750  176.8920  138.6320 C   0  0  0  0  0  2  0  0  0  0  0  0
  181.1210  174.8750  136.3990 C   0  0  0  0  0  2  0  0  0  0  0  0
  180.3600  174.6320  137.7110 C   0  0  0  0  0  2  0  0  0  0  0  0
  182.2640  175.9400  138.1350 C   0  0  2  0  0  3  0  0  0  0  0  0
  180.3110  177.8900  137.4980 C   0  0  2  0  0  3  0  0  0  0  0  0
  181.1600  177.3220  136.3220 C   0  0  1  0  0  3  0  0  0  0  0  0
  183.2170  176.8960  138.8730 C   0  0  0  0  0  2  0  0  0  0  0  0
  190.0570  176.5210  141.5410 O   0  0  0  0  0  0  0  0  0  0  0  0
  191.0030  177.2240  140.7510 C   0  0  0  0  0  2  0  0  0  0  0  0
  190.6050  177.1540  139.2900 C   0  0  0  0  0  2  0  0  0  0  0  0
  191.0140  175.8770  138.7240 N   0  0  0  0  0  2  0  0  0  0  0  0
  190.3850  175.2500  137.5970 C   0  0  0  0  0  0  0  0  0  0  0  0
  190.7900  174.0280  137.2670 C   0  0  0  0  0  2  0  0  0  0  0  0
  189.7330  176.8130  135.7310 C   0  0  0  0  0  3  0  0  0  0  0  0
  185.3100  177.2970  135.2780 C   0  0  0  0  0  3  0  0  0  0  0  0
  187.9750  175.7420  137.0480 C   0  0  0  0  0  3  0  0  0  0  0  0
  187.0500  176.4250  136.2620 C   0  0  0  0  0  0  0  0  0  0  0  0
  187.4330  177.2620  135.2580 C   0  0  0  0  0  0  0  0  0  0  0  0
  186.3860  177.7790  134.6770 O   0  0  0  0  0  0  0  0  0  0  0  0
  189.3490  175.9300  136.7760 C   0  0  0  0  0  0  0  0  0  0  0  0
  188.7730  177.4880  134.9570 C   0  0  0  0  0  3  0  0  0  0  0  0
  185.6740  176.4210  136.3050 C   0  0  0  0  0  3  0  0  0  0  0  0
  1  2  1  0  0  0  0
  3  7  1  0  0  0  0
  3  8  2  0  0  0  0
  4  9  1  0  0  0  0
  5 13  1  0  0  0  0
  5  4  1  0  0  0  0
  6  7  2  0  0  0  0
  7 12  1  0  0  0  0
  8 11  1  0  0  0  0
  9  2  1  0  0  0  0
 10 15  1  6  0  0  0
 10  1  1  0  0  0  0
 11  5  2  0  0  0  0
 12 11  1  0  0  0  0
 12 10  1  0  0  0  0
 13 14  2  0  0  0  0
 15 17  1  0  0  0  0
 17 16  1  1  0  0  0
 18 17  1  0  0  0  0
 19 21  1  0  0  0  0
 20 22  1  6  0  0  0
 20 19  1  0  0  0  0
 20 21  1  0  0  0  0
 21 18  1  6  0  0  0
 24 23  1  6  0  0  0
 24 22  1  0  0  0  0
 25 26  1  1  0  0  0
 25 24  1  0  0  0  0
 28 27  1  0  0  0  0
 29 25  1  1  0  0  0
 29 39  1  0  0  0  0
 29 27  1  0  0  0  0
 31 34  1  1  0  0  0
 31 36  1  0  0  0  0
 32 35  1  6  0  0  0
 33 32  1  0  0  0  0
 34 35  1  0  0  0  0
 36 32  1  0  0  0  0
 36 39  1  1  0  0  0
 37 28  1  1  0  0  0
 37 33  1  0  0  0  0
 38 30  1  1  0  0  0
 38 31  1  0  0  0  0
 38 37  1  0  0  0  0
 40  3  1  0  0  0  0
 41 40  1  0  0  0  0
 42 41  1  0  0  0  0
 43 42  1  0  0  0  0
 44 43  1  0  0  0  0
 45 44  2  0  0  0  0
 46 52  1  0  0  0  0
 47 54  2  0  0  0  0
 49 54  1  0  0  0  0
 49 48  1  0  0  0  0
 50 49  2  0  0  0  0
 51 50  1  0  0  0  0
 51 47  1  0  0  0  0
 52 48  2  0  0  0  0
 52 44  1  0  0  0  0
 53 50  1  0  0  0  0
 53 46  2  0  0  0  0
M  END
>  <MODEL>
1

>  <REMARK>
 VINA RESULT:      -8.4      0.000      0.000
  Name = 
  15 active torsions:
  status: ('A' for Active; 'I' for Inactive)
    1  A    between atoms: C_1  and  C_23
    2  A    between atoms: C_2  and  C_22
    3  A    between atoms: C_2  and  C_46
    4  A    between atoms: C_5  and  C_20
    5  A    between atoms: C_5  and  C_24
    6  A    between atoms: C_11  and  C_33
    7  A    between atoms: C_11  and  N_42
    8  A    between atoms: C_13  and  C_14
    9  A    between atoms: C_13  and  C_46
   10  A    between atoms: C_15  and  O_51
   11  A    between atoms: C_17  and  N_42
   12  A    between atoms: C_17  and  C_45
   13  A    between atoms: C_24  and  C_32
   14  A    between atoms: C_32  and  C_43
   15  A    between atoms: C_33  and  O_51
                            x       y       z     vdW  Elec       q    Type
                         _______ _______ _______ _____ _____    ______ ____

>  <TORSDO>
F 15

$$$$
=
 OpenBabel10222419443D

 54 61  0  0  1  0  0  0  0  0999 V2000
  190.9510  176.0910  144.2080 C   0  0  0  0  0  2  0  0  0  0  0  0
  191.9900  176.4260  145.2810 C   0  0  0  0  0  2  0  0  0  0  0  0
  186.4020  177.6900  144.7670 C   0  0  0  0  0  0  0  0  0  0  0  0
  190.3420  176.3530  146.9740 C   0  0  0  0  0  2  0  0  0  0  0  0
  189.0590  177.1290  147.0210 C   0  0  0  0  0  0  0  0  0  0  0  0
  187.2480  176.8700  142.6650 O   0  0  0  0  0  0  0  0  0  0  0  0
  187.4310  177.1800  143.8710 C   0  0  0  0  0  0  0  0  0  0  0  0
  186.9080  177.8080  145.9830 C   0  0  0  0  0  3  0  0  0  0  0  0
  191.4080  177.1610  146.4030 N   0  0  0  0  0  2  0  0  0  0  0  0
  190.0050  177.2630  143.9960 C   0  0  2  0  0  3  0  0  0  0  0  0
  188.3060  177.3470  145.9190 C   0  0  0  0  0  0  0  0  0  0  0  0
  188.6700  177.0100  144.5640 N   0  0  0  0  0  0  0  0  0  0  0  0
  188.5580  177.5540  148.3410 C   0  0  0  0  0  3  0  0  0  0  0  0
  188.9320  178.6690  148.8800 N   0  0  0  0  0  2  0  0  0  0  0  0
  190.0450  177.8750  142.5860 C   0  0  0  0  0  2  0  0  0  0  0  0
  192.2150  177.5990  141.6040 O   0  0  0  0  0  1  0  0  0  0  0  0
  190.9070  177.1160  141.5780 C   0  0  2  0  0  3  0  0  0  0  0  0
  190.3510  177.3080  140.1760 C   0  0  0  0  0  2  0  0  0  0  0  0
  188.7670  178.9000  139.2190 N   0  0  0  0  0  2  0  0  0  0  0  0
  188.1110  177.6030  138.9890 C   0  0  2  0  0  3  0  0  0  0  0  0
  188.9130  177.8230  140.2120 C   0  0  1  0  0  3  0  0  0  0  0  0
  188.8190  176.8430  137.8660 C   0  0  0  0  0  2  0  0  0  0  0  0
  188.7380  174.6560  136.9180 O   0  0  0  0  0  1  0  0  0  0  0  0
  187.9360  175.7320  137.3080 C   0  0  2  0  0  3  0  0  0  0  0  0
  187.1160  176.2380  136.1110 C   0  0  2  0  0  3  0  0  0  0  0  0
  187.3140  177.6080  135.9290 O   0  0  0  0  0  1  0  0  0  0  0  0
  185.0040  175.5140  134.9100 C   0  0  0  0  0  2  0  0  0  0  0  0
  184.1500  174.2650  135.1010 C   0  0  0  0  0  2  0  0  0  0  0  0
  185.6120  175.9620  136.2320 C   0  0  2  0  0  3  0  0  0  0  0  0
  184.5190  173.5800  137.7640 O   0  0  0  0  0  1  0  0  0  0  0  0
  183.3770  175.6250  138.3920 C   0  0  2  0  0  3  0  0  0  0  0  0
  182.2360  176.8880  136.7180 C   0  0  1  0  0  3  0  0  0  0  0  0
  182.1590  175.7370  135.6960 C   0  0  0  0  0  2  0  0  0  0  0  0
  181.9590  175.8300  138.9080 C   0  0  0  0  0  2  0  0  0  0  0  0
  181.2120  176.5990  137.8090 C   0  0  0  0  0  2  0  0  0  0  0  0
  183.5280  176.8470  137.5080 C   0  0  2  0  0  3  0  0  0  0  0  0
  182.9750  174.4740  136.0640 C   0  0  2  0  0  3  0  0  0  0  0  0
  183.3480  174.3210  137.5690 C   0  0  1  0  0  3  0  0  0  0  0  0
  184.8620  177.1590  136.8090 C   0  0  0  0  0  2  0  0  0  0  0  0
  185.0800  178.0080  144.4490 O   0  0  0  0  0  0  0  0  0  0  0  0
  184.5130  179.2800  144.7270 C   0  0  0  0  0  2  0  0  0  0  0  0
  183.4630  179.6120  143.6860 C   0  0  0  0  0  2  0  0  0  0  0  0
  183.3370  178.5130  142.7400 N   0  0  0  0  0  2  0  0  0  0  0  0
  183.3950  178.6610  141.3140 C   0  0  0  0  0  0  0  0  0  0  0  0
  184.5600  178.4330  140.7170 C   0  0  0  0  0  2  0  0  0  0  0  0
  180.9060  178.8040  140.9420 C   0  0  0  0  0  3  0  0  0  0  0  0
  179.7910  180.8610  137.1290 C   0  0  0  0  0  3  0  0  0  0  0  0
  182.4110  179.7720  139.2760 C   0  0  0  0  0  3  0  0  0  0  0  0
  181.2800  180.1340  138.5490 C   0  0  0  0  0  0  0  0  0  0  0  0
  180.0200  179.8520  138.9840 C   0  0  0  0  0  0  0  0  0  0  0  0
  179.1380  180.2910  138.1280 O   0  0  0  0  0  0  0  0  0  0  0  0
  182.2260  179.0980  140.5040 C   0  0  0  0  0  0  0  0  0  0  0  0
  179.7850  179.1840  140.1820 C   0  0  0  0  0  3  0  0  0  0  0  0
  181.1710  180.7920  137.3440 C   0  0  0  0  0  3  0  0  0  0  0  0
  1  2  1  0  0  0  0
  2  9  1  0  0  0  0
  3  8  2  0  0  0  0
  4  5  1  0  0  0  0
  5 13  1  0  0  0  0
  6  7  2  0  0  0  0
  7 12  1  0  0  0  0
  7  3  1  0  0  0  0
  9  4  1  0  0  0  0
 10 15  1  6  0  0  0
 10  1  1  0  0  0  0
 10 12  1  0  0  0  0
 11  8  1  0  0  0  0
 11  5  2  0  0  0  0
 12 11  1  0  0  0  0
 13 14  2  0  0  0  0
 17 16  1  6  0  0  0
 17 15  1  0  0  0  0
 18 17  1  0  0  0  0
 19 21  1  0  0  0  0
 20 22  1  6  0  0  0
 20 19  1  0  0  0  0
 20 21  1  0  0  0  0
 21 18  1  6  0  0  0
 24 23  1  6  0  0  0
 24 22  1  0  0  0  0
 25 26  1  1  0  0  0
 25 24  1  0  0  0  0
 27 28  1  0  0  0  0
 27 29  1  0  0  0  0
 29 25  1  6  0  0  0
 29 39  1  0  0  0  0
 31 34  1  6  0  0  0
 32 33  1  6  0  0  0
 32 36  1  0  0  0  0
 32 35  1  0  0  0  0
 33 37  1  0  0  0  0
 35 34  1  0  0  0  0
 36 39  1  6  0  0  0
 36 31  1  0  0  0  0
 37 28  1  6  0  0  0
 37 38  1  0  0  0  0
 38 30  1  6  0  0  0
 38 31  1  0  0  0  0
 40 41  1  0  0  0  0
 40  3  1  0  0  0  0
 42 41  1  0  0  0  0
 43 42  1  0  0  0  0
 44 43  1  0  0  0  0
 45 44  2  0  0  0  0
 47 54  2  0  0  0  0
 47 51  1  0  0  0  0
 48 52  2  0  0  0  0
 49 50  2  0  0  0  0
 49 48  1  0  0  0  0
 50 53  1  0  0  0  0
 51 50  1  0  0  0  0
 52 46  1  0  0  0  0
 52 44  1  0  0  0  0
 53 46  2  0  0  0  0
 54 49  1  0  0  0  0
M  END
>  <MODEL>
2

>  <REMARK>
 VINA RESULT:      -8.3      1.876      5.850
  Name = 
  15 active torsions:
  status: ('A' for Active; 'I' for Inactive)
    1  A    between atoms: C_1  and  C_23
    2  A    between atoms: C_2  and  C_22
    3  A    between atoms: C_2  and  C_46
    4  A    between atoms: C_5  and  C_20
    5  A    between atoms: C_5  and  C_24
    6  A    between atoms: C_11  and  C_33
    7  A    between atoms: C_11  and  N_42
    8  A    between atoms: C_13  and  C_14
    9  A    between atoms: C_13  and  C_46
   10  A    between atoms: C_15  and  O_51
   11  A    between atoms: C_17  and  N_42
   12  A    between atoms: C_17  and  C_45
   13  A    between atoms: C_24  and  C_32
   14  A    between atoms: C_32  and  C_43
   15  A    between atoms: C_33  and  O_51
                            x       y       z     vdW  Elec       q    Type
                         _______ _______ _______ _____ _____    ______ ____

>  <TORSDO>
F 15

$$$$
=
 OpenBabel10222419443D

 54 61  0  0  1  0  0  0  0  0999 V2000
  190.6220  176.3650  144.4480 C   0  0  0  0  0  2  0  0  0  0  0  0
  191.4890  176.7020  145.6630 C   0  0  0  0  0  2  0  0  0  0  0  0
  186.0750  178.0550  144.2730 C   0  0  0  0  0  0  0  0  0  0  0  0
  189.5990  176.6870  147.0820 C   0  0  0  0  0  2  0  0  0  0  0  0
  188.3400  177.4870  146.9190 C   0  0  0  0  0  0  0  0  0  0  0  0
  187.2180  177.1830  142.3400 O   0  0  0  0  0  0  0  0  0  0  0  0
  187.2190  177.5110  143.5550 C   0  0  0  0  0  0  0  0  0  0  0  0
  186.3890  178.1850  145.5510 C   0  0  0  0  0  3  0  0  0  0  0  0
  190.7570  177.4670  146.6710 N   0  0  0  0  0  2  0  0  0  0  0  0
  189.7440  177.5510  144.0750 C   0  0  2  0  0  3  0  0  0  0  0  0
  187.7710  177.6990  145.7110 C   0  0  0  0  0  0  0  0  0  0  0  0
  188.3320  177.3320  144.4330 N   0  0  0  0  0  0  0  0  0  0  0  0
  187.6500  177.9440  148.1390 C   0  0  0  0  0  3  0  0  0  0  0  0
  188.3010  178.2120  149.2250 N   0  0  0  0  0  2  0  0  0  0  0  0
  190.0140  178.1370  142.6800 C   0  0  0  0  0  2  0  0  0  0  0  0
  192.1970  177.3540  142.0730 O   0  0  0  0  0  1  0  0  0  0  0  0
  190.8440  177.2460  141.7550 C   0  0  2  0  0  3  0  0  0  0  0  0
  190.6520  177.6810  140.3110 C   0  0  0  0  0  2  0  0  0  0  0  0
  188.9400  178.7720  138.9560 N   0  0  0  0  0  2  0  0  0  0  0  0
  188.8730  177.3720  138.5070 C   0  0  2  0  0  3  0  0  0  0  0  0
  189.1750  177.6860  139.9210 C   0  0  1  0  0  3  0  0  0  0  0  0
  190.0840  177.0380  137.6350 C   0  0  0  0  0  2  0  0  0  0  0  0
  190.9020  174.9000  138.3020 O   0  0  0  0  0  1  0  0  0  0  0  0
  190.1450  175.5460  137.3220 C   0  0  2  0  0  3  0  0  0  0  0  0
  190.7620  175.3060  135.9360 C   0  0  2  0  0  3  0  0  0  0  0  0
  190.0610  174.3080  135.2560 O   0  0  0  0  0  1  0  0  0  0  0  0
  193.0630  175.6960  134.9450 C   0  0  0  0  0  2  0  0  0  0  0  0
  194.3100  176.3040  135.5780 C   0  0  0  0  0  2  0  0  0  0  0  0
  192.2490  174.9300  135.9790 C   0  0  2  0  0  3  0  0  0  0  0  0
  194.0580  175.7340  138.2810 O   0  0  0  0  0  1  0  0  0  0  0  0
  194.3060  173.3810  137.7520 C   0  0  2  0  0  3  0  0  0  0  0  0
  194.9920  172.7430  135.5570 C   0  0  1  0  0  3  0  0  0  0  0  0
  195.5600  174.1240  135.1760 C   0  0  0  0  0  2  0  0  0  0  0  0
  195.5070  172.4630  137.9340 C   0  0  0  0  0  2  0  0  0  0  0  0
  195.9780  172.0930  136.5200 C   0  0  0  0  0  2  0  0  0  0  0  0
  193.7630  172.8670  136.4340 C   0  0  2  0  0  3  0  0  0  0  0  0
  195.2560  175.2610  136.1820 C   0  0  2  0  0  3  0  0  0  0  0  0
  194.8740  174.8080  137.6230 C   0  0  1  0  0  3  0  0  0  0  0  0
  192.4570  173.4250  135.8440 C   0  0  0  0  0  2  0  0  0  0  0  0
  184.8250  178.3910  143.7500 O   0  0  0  0  0  0  0  0  0  0  0  0
  183.9290  179.2670  144.4170 C   0  0  0  0  0  2  0  0  0  0  0  0
  182.5160  178.7270  144.3190 C   0  0  0  0  0  2  0  0  0  0  0  0
  181.8120  179.3740  143.2220 N   0  0  0  0  0  2  0  0  0  0  0  0
  181.1800  178.6760  142.1400 C   0  0  0  0  0  0  0  0  0  0  0  0
  179.9090  178.3190  142.2940 C   0  0  0  0  0  2  0  0  0  0  0  0
  181.2530  177.5280  139.8970 C   0  0  0  0  0  3  0  0  0  0  0  0
  185.2140  177.8710  137.8490 C   0  0  0  0  0  3  0  0  0  0  0  0
  183.2500  178.6840  140.7020 C   0  0  0  0  0  3  0  0  0  0  0  0
  183.8840  178.2870  139.5270 C   0  0  0  0  0  0  0  0  0  0  0  0
  183.2450  177.5480  138.5770 C   0  0  0  0  0  0  0  0  0  0  0  0
  184.0500  177.3040  137.5790 O   0  0  0  0  0  0  0  0  0  0  0  0
  181.9030  178.3060  140.8930 C   0  0  0  0  0  0  0  0  0  0  0  0
  181.9220  177.1430  138.7220 C   0  0  0  0  0  3  0  0  0  0  0  0
  185.1680  178.5180  139.0880 C   0  0  0  0  0  3  0  0  0  0  0  0
  1  2  1  0  0  0  0
  2  9  1  0  0  0  0
  3  8  2  0  0  0  0
  5  4  1  0  0  0  0
  5 13  1  0  0  0  0
  6  7  2  0  0  0  0
  7  3  1  0  0  0  0
  7 12  1  0  0  0  0
  8 11  1  0  0  0  0
  9  4  1  0  0  0  0
 10 15  1  6  0  0  0
 10 12  1  0  0  0  0
 10  1  1  0  0  0  0
 11  5  2  0  0  0  0
 12 11  1  0  0  0  0
 13 14  2  0  0  0  0
 17 16  1  1  0  0  0
 17 15  1  0  0  0  0
 18 17  1  0  0  0  0
 19 21  1  0  0  0  0
 20 22  1  6  0  0  0
 20 19  1  0  0  0  0
 20 21  1  0  0  0  0
 21 18  1  6  0  0  0
 24 22  1  0  0  0  0
 24 23  1  1  0  0  0
 25 26  1  1  0  0  0
 25 24  1  0  0  0  0
 27 28  1  0  0  0  0
 27 29  1  0  0  0  0
 28 37  1  0  0  0  0
 29 25  1  6  0  0  0
 31 34  1  6  0  0  0
 32 33  1  1  0  0  0
 32 36  1  0  0  0  0
 32 35  1  0  0  0  0
 35 34  1  0  0  0  0
 36 39  1  6  0  0  0
 36 31  1  0  0  0  0
 37 33  1  6  0  0  0
 37 38  1  0  0  0  0
 38 31  1  0  0  0  0
 38 30  1  6  0  0  0
 39 29  1  0  0  0  0
 40  3  1  0  0  0  0
 40 41  1  0  0  0  0
 42 41  1  0  0  0  0
 43 42  1  0  0  0  0
 44 45  2  0  0  0  0
 44 43  1  0  0  0  0
 46 52  1  0  0  0  0
 47 54  2  0  0  0  0
 48 52  2  0  0  0  0
 49 48  1  0  0  0  0
 50 53  1  0  0  0  0
 50 49  2  0  0  0  0
 51 47  1  0  0  0  0
 51 50  1  0  0  0  0
 52 44  1  0  0  0  0
 53 46  2  0  0  0  0
 54 49  1  0  0  0  0
M  END
>  <MODEL>
3

>  <REMARK>
 VINA RESULT:      -8.0      2.708      8.710
  Name = 
  15 active torsions:
  status: ('A' for Active; 'I' for Inactive)
    1  A    between atoms: C_1  and  C_23
    2  A    between atoms: C_2  and  C_22
    3  A    between atoms: C_2  and  C_46
    4  A    between atoms: C_5  and  C_20
    5  A    between atoms: C_5  and  C_24
    6  A    between atoms: C_11  and  C_33
    7  A    between atoms: C_11  and  N_42
    8  A    between atoms: C_13  and  C_14
    9  A    between atoms: C_13  and  C_46
   10  A    between atoms: C_15  and  O_51
   11  A    between atoms: C_17  and  N_42
   12  A    between atoms: C_17  and  C_45
   13  A    between atoms: C_24  and  C_32
   14  A    between atoms: C_32  and  C_43
   15  A    between atoms: C_33  and  O_51
                            x       y       z     vdW  Elec       q    Type
                         _______ _______ _______ _____ _____    ______ ____

>  <TORSDO>
F 15

$$$$
=
 OpenBabel10222419443D

 54 61  0  0  1  0  0  0  0  0999 V2000
  187.7710  178.8390  147.1200 C   0  0  0  0  0  2  0  0  0  0  0  0
  188.0170  178.2140  148.4950 C   0  0  0  0  0  2  0  0  0  0  0  0
  190.0290  176.9630  143.2540 C   0  0  0  0  0  0  0  0  0  0  0  0
  190.2390  177.6640  147.9070 C   0  0  0  0  0  2  0  0  0  0  0  0
  190.6880  176.8640  146.7200 C   0  0  0  0  0  0  0  0  0  0  0  0
  188.1490  178.4580  143.0690 O   0  0  0  0  0  0  0  0  0  0  0  0
  188.9400  177.7790  143.7730 C   0  0  0  0  0  0  0  0  0  0  0  0
  190.7240  176.4750  144.2670 C   0  0  0  0  0  3  0  0  0  0  0  0
  188.9960  177.1290  148.4430 N   0  0  0  0  0  2  0  0  0  0  0  0
  187.7210  177.7630  146.0450 C   0  0  2  0  0  3  0  0  0  0  0  0
  190.1080  176.9870  145.5040 C   0  0  0  0  0  0  0  0  0  0  0  0
  188.9290  177.7630  145.2020 N   0  0  0  0  0  0  0  0  0  0  0  0
  191.8810  176.0110  146.8740 C   0  0  0  0  0  3  0  0  0  0  0  0
  192.5250  175.9450  147.9940 N   0  0  0  0  0  2  0  0  0  0  0  0
  186.3750  177.6470  145.3130 C   0  0  0  0  0  2  0  0  0  0  0  0
  184.3570  178.6250  146.1620 O   0  0  0  0  0  1  0  0  0  0  0  0
  185.4890  178.8910  145.3920 C   0  0  2  0  0  3  0  0  0  0  0  0
  185.0390  179.2930  143.9970 C   0  0  0  0  0  2  0  0  0  0  0  0
  182.9420  179.1470  142.7560 N   0  0  0  0  0  2  0  0  0  0  0  0
  183.8380  178.2620  141.9950 C   0  0  2  0  0  3  0  0  0  0  0  0
  183.9570  178.3530  143.4670 C   0  0  1  0  0  3  0  0  0  0  0  0
  184.8490  179.0890  141.2000 C   0  0  0  0  0  2  0  0  0  0  0  0
  186.5110  178.6610  139.5430 O   0  0  0  0  0  1  0  0  0  0  0  0
  185.1690  178.4320  139.8610 C   0  0  2  0  0  3  0  0  0  0  0  0
  184.2630  178.9870  138.7520 C   0  0  2  0  0  3  0  0  0  0  0  0
  183.7700  180.2440  139.1090 O   0  0  0  0  0  1  0  0  0  0  0  0
  183.3390  176.6270  138.8140 C   0  0  0  0  0  2  0  0  0  0  0  0
  182.1480  176.0630  139.5800 C   0  0  0  0  0  2  0  0  0  0  0  0
  183.0840  178.0700  138.4010 C   0  0  2  0  0  3  0  0  0  0  0  0
  180.4240  178.2190  139.8570 O   0  0  0  0  0  1  0  0  0  0  0  0
  180.1080  178.2050  137.4530 C   0  0  2  0  0  3  0  0  0  0  0  0
  180.9320  176.3640  136.1770 C   0  0  1  0  0  3  0  0  0  0  0  0
  181.0610  175.4030  137.3750 C   0  0  0  0  0  2  0  0  0  0  0  0
  178.9320  177.7000  136.6280 C   0  0  0  0  0  2  0  0  0  0  0  0
  179.4500  176.4850  135.8460 C   0  0  0  0  0  2  0  0  0  0  0  0
  181.2650  177.7900  136.5660 C   0  0  2  0  0  3  0  0  0  0  0  0
  180.8500  176.0530  138.7650 C   0  0  2  0  0  3  0  0  0  0  0  0
  180.0800  177.4070  138.7720 C   0  0  1  0  0  3  0  0  0  0  0  0
  182.7120  178.1670  136.9250 C   0  0  0  0  0  2  0  0  0  0  0  0
  190.3400  176.7130  141.9160 O   0  0  0  0  0  0  0  0  0  0  0  0
  189.8130  177.4910  140.8520 C   0  0  0  0  0  2  0  0  0  0  0  0
  190.5170  177.1320  139.5570 C   0  0  0  0  0  2  0  0  0  0  0  0
  189.7260  177.5820  138.4220 N   0  0  0  0  0  2  0  0  0  0  0  0
  189.4560  176.7880  137.2570 C   0  0  0  0  0  0  0  0  0  0  0  0
  190.4920  176.4150  136.5120 C   0  0  0  0  0  2  0  0  0  0  0  0
  187.2660  177.3550  136.1460 C   0  0  0  0  0  3  0  0  0  0  0  0
  184.2640  174.0450  136.3390 C   0  0  0  0  0  3  0  0  0  0  0  0
  187.5440  175.1490  137.1620 C   0  0  0  0  0  3  0  0  0  0  0  0
  186.2380  174.8670  136.7690 C   0  0  0  0  0  0  0  0  0  0  0  0
  185.4740  175.7730  136.0970 C   0  0  0  0  0  0  0  0  0  0  0  0
  184.2960  175.2720  135.8460 O   0  0  0  0  0  0  0  0  0  0  0  0
  188.0780  176.4170  136.8400 C   0  0  0  0  0  0  0  0  0  0  0  0
  185.9500  177.0370  135.7640 C   0  0  0  0  0  3  0  0  0  0  0  0
  185.4840  173.7280  136.9440 C   0  0  0  0  0  3  0  0  0  0  0  0
  1  2  1  0  0  0  0
  3  7  1  0  0  0  0
  3  8  2  0  0  0  0
  4  9  1  0  0  0  0
  5 13  1  0  0  0  0
  5  4  1  0  0  0  0
  6  7  2  0  0  0  0
  7 12  1  0  0  0  0
  8 11  1  0  0  0  0
  9  2  1  0  0  0  0
 10 15  1  6  0  0  0
 10  1  1  0  0  0  0
 11  5  2  0  0  0  0
 12 11  1  0  0  0  0
 12 10  1  0  0  0  0
 13 14  2  0  0  0  0
 15 17  1  0  0  0  0
 17 16  1  1  0  0  0
 18 17  1  0  0  0  0
 19 21  1  0  0  0  0
 20 22  1  6  0  0  0
 20 19  1  0  0  0  0
 20 21  1  0  0  0  0
 21 18  1  6  0  0  0
 24 23  1  6  0  0  0
 24 22  1  0  0  0  0
 25 26  1  1  0  0  0
 25 24  1  0  0  0  0
 27 28  1  0  0  0  0
 29 25  1  6  0  0  0
 29 27  1  0  0  0  0
 31 34  1  6  0  0  0
 31 38  1  0  0  0  0
 32 35  1  1  0  0  0
 32 36  1  0  0  0  0
 32 33  1  0  0  0  0
 35 34  1  0  0  0  0
 36 39  1  1  0  0  0
 36 31  1  0  0  0  0
 37 33  1  6  0  0  0
 37 38  1  0  0  0  0
 37 28  1  0  0  0  0
 38 30  1  1  0  0  0
 39 29  1  0  0  0  0
 40  3  1  0  0  0  0
 41 40  1  0  0  0  0
 42 41  1  0  0  0  0
 43 42  1  0  0  0  0
 44 43  1  0  0  0  0
 45 44  2  0  0  0  0
 46 52  1  0  0  0  0
 47 54  2  0  0  0  0
 49 54  1  0  0  0  0
 49 48  1  0  0  0  0
 50 49  2  0  0  0  0
 51 50  1  0  0  0  0
 51 47  1  0  0  0  0
 52 48  2  0  0  0  0
 52 44  1  0  0  0  0
 53 50  1  0  0  0  0
 53 46  2  0  0  0  0
M  END
>  <MODEL>
4

>  <REMARK>
 VINA RESULT:      -8.0      1.208      1.862
  Name = 
  15 active torsions:
  status: ('A' for Active; 'I' for Inactive)
    1  A    between atoms: C_1  and  C_23
    2  A    between atoms: C_2  and  C_22
    3  A    between atoms: C_2  and  C_46
    4  A    between atoms: C_5  and  C_20
    5  A    between atoms: C_5  and  C_24
    6  A    between atoms: C_11  and  C_33
    7  A    between atoms: C_11  and  N_42
    8  A    between atoms: C_13  and  C_14
    9  A    between atoms: C_13  and  C_46
   10  A    between atoms: C_15  and  O_51
   11  A    between atoms: C_17  and  N_42
   12  A    between atoms: C_17  and  C_45
   13  A    between atoms: C_24  and  C_32
   14  A    between atoms: C_32  and  C_43
   15  A    between atoms: C_33  and  O_51
                            x       y       z     vdW  Elec       q    Type
                         _______ _______ _______ _____ _____    ______ ____

>  <TORSDO>
F 15

$$$$
=
 OpenBabel10222419443D

 54 61  0  0  1  0  0  0  0  0999 V2000
  187.5770  178.8170  147.0440 C   0  0  0  0  0  2  0  0  0  0  0  0
  188.0380  178.2410  148.3850 C   0  0  0  0  0  2  0  0  0  0  0  0
  189.4570  177.0120  142.9490 C   0  0  0  0  0  0  0  0  0  0  0  0
  190.2010  177.8320  147.5270 C   0  0  0  0  0  2  0  0  0  0  0  0
  190.5530  177.0380  146.3030 C   0  0  0  0  0  0  0  0  0  0  0  0
  187.4680  178.3700  142.9840 O   0  0  0  0  0  0  0  0  0  0  0  0
  188.3880  177.7630  143.5910 C   0  0  0  0  0  0  0  0  0  0  0  0
  190.3080  176.5960  143.8720 C   0  0  0  0  0  3  0  0  0  0  0  0
  189.0780  177.2260  148.2240 N   0  0  0  0  0  2  0  0  0  0  0  0
  187.4690  177.7160  146.0000 C   0  0  2  0  0  3  0  0  0  0  0  0
  189.8180  177.0930  145.1700 C   0  0  0  0  0  0  0  0  0  0  0  0
  188.5580  177.7790  145.0100 N   0  0  0  0  0  0  0  0  0  0  0  0
  191.8140  176.2720  146.3160 C   0  0  0  0  0  3  0  0  0  0  0  0
  192.3060  175.7980  147.4150 N   0  0  0  0  0  2  0  0  0  0  0  0
  186.0530  177.4910  145.4460 C   0  0  0  0  0  2  0  0  0  0  0  0
  184.5000  178.2430  147.1120 O   0  0  0  0  0  1  0  0  0  0  0  0
  185.0250  178.5460  145.8560 C   0  0  2  0  0  3  0  0  0  0  0  0
  183.8850  178.5730  144.8510 C   0  0  0  0  0  2  0  0  0  0  0  0
  184.1360  178.1910  142.4530 N   0  0  0  0  0  2  0  0  0  0  0  0
  183.2650  179.3760  142.5090 C   0  0  2  0  0  3  0  0  0  0  0  0
  184.3260  179.1840  143.5230 C   0  0  1  0  0  3  0  0  0  0  0  0
  181.8560  178.9770  142.9490 C   0  0  0  0  0  2  0  0  0  0  0  0
  180.0430  180.5200  142.8070 O   0  0  0  0  0  1  0  0  0  0  0  0
  180.7970  179.6150  142.0550 C   0  0  2  0  0  3  0  0  0  0  0  0
  179.8800  178.5420  141.4480 C   0  0  2  0  0  3  0  0  0  0  0  0
  179.7260  177.4740  142.3340 O   0  0  0  0  0  1  0  0  0  0  0  0
  180.7300  179.1260  139.1320 C   0  0  0  0  0  2  0  0  0  0  0  0
  182.0960  178.8810  138.5010 C   0  0  0  0  0  2  0  0  0  0  0  0
  180.3690  178.0050  140.0970 C   0  0  2  0  0  3  0  0  0  0  0  0
  183.0470  176.6100  139.7800 O   0  0  0  0  0  1  0  0  0  0  0  0
  181.2670  175.3400  138.7310 C   0  0  2  0  0  3  0  0  0  0  0  0
  179.9740  176.3520  136.9980 C   0  0  1  0  0  3  0  0  0  0  0  0
  180.9910  177.4700  136.6930 C   0  0  0  0  0  2  0  0  0  0  0  0
  181.3200  174.3830  137.5480 C   0  0  0  0  0  2  0  0  0  0  0  0
  180.5300  175.0580  136.4170 C   0  0  0  0  0  2  0  0  0  0  0  0
  179.9370  176.0200  138.4760 C   0  0  2  0  0  3  0  0  0  0  0  0
  182.1680  177.5800  137.6930 C   0  0  2  0  0  3  0  0  0  0  0  0
  182.4520  176.3100  138.5500 C   0  0  1  0  0  3  0  0  0  0  0  0
  179.3650  177.0400  139.4750 C   0  0  0  0  0  2  0  0  0  0  0  0
  189.6150  176.7530  141.5860 O   0  0  0  0  0  0  0  0  0  0  0  0
  190.8250  177.0190  140.8930 C   0  0  0  0  0  2  0  0  0  0  0  0
  190.5250  177.3430  139.4430 C   0  0  0  0  0  2  0  0  0  0  0  0
  189.1180  177.6790  139.2900 N   0  0  0  0  0  2  0  0  0  0  0  0
  188.4940  178.0110  138.0410 C   0  0  0  0  0  0  0  0  0  0  0  0
  188.8340  179.1630  137.4700 C   0  0  0  0  0  2  0  0  0  0  0  0
  187.5010  175.7380  137.5940 C   0  0  0  0  0  3  0  0  0  0  0  0
  183.9530  175.8510  134.8720 C   0  0  0  0  0  3  0  0  0  0  0  0
  186.4750  177.7040  136.5650 C   0  0  0  0  0  3  0  0  0  0  0  0
  185.5550  176.8420  135.9720 C   0  0  0  0  0  0  0  0  0  0  0  0
  185.5950  175.4950  136.1720 C   0  0  0  0  0  0  0  0  0  0  0  0
  184.6330  174.9130  135.5090 O   0  0  0  0  0  0  0  0  0  0  0  0
  187.4680  177.1460  137.4010 C   0  0  0  0  0  0  0  0  0  0  0  0
  186.5570  174.8970  136.9790 C   0  0  0  0  0  3  0  0  0  0  0  0
  184.4990  177.1120  135.1310 C   0  0  0  0  0  3  0  0  0  0  0  0
  1  2  1  0  0  0  0
  3  7  1  0  0  0  0
  3  8  2  0  0  0  0
  4  9  1  0  0  0  0
  5 13  1  0  0  0  0
  5  4  1  0  0  0  0
  6  7  2  0  0  0  0
  7 12  1  0  0  0  0
  8 11  1  0  0  0  0
  9  2  1  0  0  0  0
 10 15  1  6  0  0  0
 10  1  1  0  0  0  0
 11  5  2  0  0  0  0
 12 11  1  0  0  0  0
 12 10  1  0  0  0  0
 13 14  2  0  0  0  0
 15 17  1  0  0  0  0
 17 16  1  1  0  0  0
 18 17  1  0  0  0  0
 19 20  1  0  0  0  0
 19 21  1  0  0  0  0
 20 22  1  1  0  0  0
 20 21  1  0  0  0  0
 21 18  1  1  0  0  0
 24 23  1  1  0  0  0
 24 22  1  0  0  0  0
 25 24  1  0  0  0  0
 25 26  1  1  0  0  0
 27 29  1  0  0  0  0
 28 27  1  0  0  0  0
 29 25  1  1  0  0  0
 31 34  1  6  0  0  0
 32 35  1  6  0  0  0
 32 36  1  0  0  0  0
 33 32  1  0  0  0  0
 35 34  1  0  0  0  0
 36 31  1  0  0  0  0
 36 39  1  1  0  0  0
 37 33  1  1  0  0  0
 37 28  1  0  0  0  0
 37 38  1  0  0  0  0
 38 31  1  0  0  0  0
 38 30  1  1  0  0  0
 39 29  1  0  0  0  0
 40  3  1  0  0  0  0
 41 40  1  0  0  0  0
 42 41  1  0  0  0  0
 43 42  1  0  0  0  0
 44 43  1  0  0  0  0
 45 44  2  0  0  0  0
 47 54  2  0  0  0  0
 47 51  1  0  0  0  0
 48 52  2  0  0  0  0
 49 50  2  0  0  0  0
 49 48  1  0  0  0  0
 50 53  1  0  0  0  0
 51 50  1  0  0  0  0
 52 46  1  0  0  0  0
 52 44  1  0  0  0  0
 53 46  2  0  0  0  0
 54 49  1  0  0  0  0
M  END
>  <MODEL>
5

>  <REMARK>
 VINA RESULT:      -7.9      1.846      2.638
  Name = 
  15 active torsions:
  status: ('A' for Active; 'I' for Inactive)
    1  A    between atoms: C_1  and  C_23
    2  A    between atoms: C_2  and  C_22
    3  A    between atoms: C_2  and  C_46
    4  A    between atoms: C_5  and  C_20
    5  A    between atoms: C_5  and  C_24
    6  A    between atoms: C_11  and  C_33
    7  A    between atoms: C_11  and  N_42
    8  A    between atoms: C_13  and  C_14
    9  A    between atoms: C_13  and  C_46
   10  A    between atoms: C_15  and  O_51
   11  A    between atoms: C_17  and  N_42
   12  A    between atoms: C_17  and  C_45
   13  A    between atoms: C_24  and  C_32
   14  A    between atoms: C_32  and  C_43
   15  A    between atoms: C_33  and  O_51
                            x       y       z     vdW  Elec       q    Type
                         _______ _______ _______ _____ _____    ______ ____

>  <TORSDO>
F 15

$$$$
=
 OpenBabel10222419443D

 54 61  0  0  1  0  0  0  0  0999 V2000
  187.1140  178.6270  146.3530 C   0  0  0  0  0  2  0  0  0  0  0  0
  187.0330  178.0720  147.7770 C   0  0  0  0  0  2  0  0  0  0  0  0
  190.5860  176.9760  143.3890 C   0  0  0  0  0  0  0  0  0  0  0  0
  189.3790  177.8070  147.8660 C   0  0  0  0  0  2  0  0  0  0  0  0
  190.2400  177.0470  146.9010 C   0  0  0  0  0  0  0  0  0  0  0  0
  188.6710  178.2040  142.5980 O   0  0  0  0  0  0  0  0  0  0  0  0
  189.3050  177.6520  143.5350 C   0  0  0  0  0  0  0  0  0  0  0  0
  191.0190  176.6080  144.5840 C   0  0  0  0  0  3  0  0  0  0  0  0
  188.1100  177.1260  148.0650 N   0  0  0  0  0  2  0  0  0  0  0  0
  187.5020  177.5290  145.3740 C   0  0  2  0  0  3  0  0  0  0  0  0
  190.0190  177.0630  145.5670 C   0  0  0  0  0  0  0  0  0  0  0  0
  188.8910  177.6680  144.9020 N   0  0  0  0  0  0  0  0  0  0  0  0
  191.4340  176.3630  147.4320 C   0  0  0  0  0  3  0  0  0  0  0  0
  192.2310  176.9460  148.2690 N   0  0  0  0  0  2  0  0  0  0  0  0
  186.4430  177.2180  144.3040 C   0  0  0  0  0  2  0  0  0  0  0  0
  184.5360  178.5690  144.8400 O   0  0  0  0  0  1  0  0  0  0  0  0
  185.5600  178.4020  143.9080 C   0  0  2  0  0  3  0  0  0  0  0  0
  184.9350  178.1460  142.5460 C   0  0  0  0  0  2  0  0  0  0  0  0
  186.0490  178.8610  140.4950 N   0  0  0  0  0  2  0  0  0  0  0  0
  184.6340  179.1620  140.2240 C   0  0  2  0  0  3  0  0  0  0  0  0
  185.1780  179.3130  141.5920 C   0  0  1  0  0  3  0  0  0  0  0  0
  183.8580  177.8690  139.9650 C   0  0  0  0  0  2  0  0  0  0  0  0
  182.0660  178.8550  138.7390 O   0  0  0  0  0  1  0  0  0  0  0  0
  183.1090  177.9310  138.6370 C   0  0  2  0  0  3  0  0  0  0  0  0
  182.5540  176.5490  138.2610 C   0  0  2  0  0  3  0  0  0  0  0  0
  182.2750  175.8060  139.4090 O   0  0  0  0  0  1  0  0  0  0  0  0
  183.2760  176.0560  135.8810 C   0  0  0  0  0  2  0  0  0  0  0  0
  184.6060  176.3240  135.1870 C   0  0  0  0  0  2  0  0  0  0  0  0
  183.4860  175.7350  137.3540 C   0  0  2  0  0  3  0  0  0  0  0  0
  186.4780  176.2410  137.2340 O   0  0  0  0  0  1  0  0  0  0  0  0
  185.9980  173.8790  137.5030 C   0  0  2  0  0  3  0  0  0  0  0  0
  184.6750  172.7610  135.8610 C   0  0  1  0  0  3  0  0  0  0  0  0
  184.8720  173.8270  134.7660 C   0  0  0  0  0  2  0  0  0  0  0  0
  186.8050  172.6650  137.0640 C   0  0  0  0  0  2  0  0  0  0  0  0
  185.9750  171.9740  135.9720 C   0  0  0  0  0  2  0  0  0  0  0  0
  184.5900  173.3850  137.2390 C   0  0  2  0  0  3  0  0  0  0  0  0
  185.5670  175.1300  135.2330 C   0  0  2  0  0  3  0  0  0  0  0  0
  186.3930  175.0240  136.5490 C   0  0  1  0  0  3  0  0  0  0  0  0
  183.3670  174.2370  137.6180 C   0  0  0  0  0  2  0  0  0  0  0  0
  191.2930  176.7380  142.2090 O   0  0  0  0  0  0  0  0  0  0  0  0
  191.1350  177.5420  141.0500 C   0  0  0  0  0  2  0  0  0  0  0  0
  190.3530  176.7780  139.9980 C   0  0  0  0  0  2  0  0  0  0  0  0
  190.1930  177.5980  138.8070 N   0  0  0  0  0  2  0  0  0  0  0  0
  190.1410  177.0820  137.4690 C   0  0  0  0  0  0  0  0  0  0  0  0
  189.4450  177.7700  136.5690 C   0  0  0  0  0  2  0  0  0  0  0  0
  189.9950  174.6540  136.8060 C   0  0  0  0  0  3  0  0  0  0  0  0
  193.9870  172.7430  136.1610 C   0  0  0  0  0  3  0  0  0  0  0  0
  192.1960  175.6980  137.0080 C   0  0  0  0  0  3  0  0  0  0  0  0
  192.7480  174.4670  136.6610 C   0  0  0  0  0  0  0  0  0  0  0  0
  191.9740  173.3780  136.3960 C   0  0  0  0  0  0  0  0  0  0  0  0
  192.7250  172.3530  136.0990 O   0  0  0  0  0  0  0  0  0  0  0  0
  190.7890  175.8020  137.0770 C   0  0  0  0  0  0  0  0  0  0  0  0
  190.5850  173.4260  136.4580 C   0  0  0  0  0  3  0  0  0  0  0  0
  194.0650  174.0930  136.5170 C   0  0  0  0  0  3  0  0  0  0  0  0
  1  2  1  0  0  0  0
  2  9  1  0  0  0  0
  3  7  1  0  0  0  0
  3  8  2  0  0  0  0
  4  9  1  0  0  0  0
  5 13  1  0  0  0  0
  5  4  1  0  0  0  0
  6  7  2  0  0  0  0
  7 12  1  0  0  0  0
  8 11  1  0  0  0  0
 10 15  1  6  0  0  0
 10  1  1  0  0  0  0
 11  5  2  0  0  0  0
 12 10  1  0  0  0  0
 12 11  1  0  0  0  0
 13 14  2  0  0  0  0
 17 15  1  0  0  0  0
 17 16  1  1  0  0  0
 18 17  1  0  0  0  0
 19 21  1  0  0  0  0
 20 22  1  1  0  0  0
 20 19  1  0  0  0  0
 20 21  1  0  0  0  0
 21 18  1  1  0  0  0
 24 23  1  1  0  0  0
 24 22  1  0  0  0  0
 25 24  1  0  0  0  0
 25 26  1  1  0  0  0
 27 29  1  0  0  0  0
 28 37  1  0  0  0  0
 28 27  1  0  0  0  0
 29 39  1  0  0  0  0
 29 25  1  1  0  0  0
 31 34  1  6  0  0  0
 32 33  1  6  0  0  0
 32 35  1  0  0  0  0
 32 36  1  0  0  0  0
 35 34  1  0  0  0  0
 36 31  1  0  0  0  0
 36 39  1  6  0  0  0
 37 33  1  1  0  0  0
 37 38  1  0  0  0  0
 38 30  1  1  0  0  0
 38 31  1  0  0  0  0
 40  3  1  0  0  0  0
 41 40  1  0  0  0  0
 42 41  1  0  0  0  0
 43 42  1  0  0  0  0
 44 43  1  0  0  0  0
 45 44  2  0  0  0  0
 46 52  1  0  0  0  0
 47 54  2  0  0  0  0
 48 52  2  0  0  0  0
 49 48  1  0  0  0  0
 50 53  1  0  0  0  0
 50 49  2  0  0  0  0
 51 47  1  0  0  0  0
 51 50  1  0  0  0  0
 52 44  1  0  0  0  0
 53 46  2  0  0  0  0
 54 49  1  0  0  0  0
M  END
>  <MODEL>
6

>  <REMARK>
 VINA RESULT:      -7.8      2.212      4.009
  Name = 
  15 active torsions:
  status: ('A' for Active; 'I' for Inactive)
    1  A    between atoms: C_1  and  C_23
    2  A    between atoms: C_2  and  C_22
    3  A    between atoms: C_2  and  C_46
    4  A    between atoms: C_5  and  C_20
    5  A    between atoms: C_5  and  C_24
    6  A    between atoms: C_11  and  C_33
    7  A    between atoms: C_11  and  N_42
    8  A    between atoms: C_13  and  C_14
    9  A    between atoms: C_13  and  C_46
   10  A    between atoms: C_15  and  O_51
   11  A    between atoms: C_17  and  N_42
   12  A    between atoms: C_17  and  C_45
   13  A    between atoms: C_24  and  C_32
   14  A    between atoms: C_32  and  C_43
   15  A    between atoms: C_33  and  O_51
                            x       y       z     vdW  Elec       q    Type
                         _______ _______ _______ _____ _____    ______ ____

>  <TORSDO>
F 15

$$$$
=
 OpenBabel10222419443D

 54 61  0  0  1  0  0  0  0  0999 V2000
  185.9860  175.5130  134.6360 C   0  0  0  0  0  2  0  0  0  0  0  0
  187.0380  174.4360  134.9100 C   0  0  0  0  0  2  0  0  0  0  0  0
  181.8310  175.4230  137.1420 C   0  0  0  0  0  0  0  0  0  0  0  0
  185.3590  172.8430  135.3880 C   0  0  0  0  0  2  0  0  0  0  0  0
  184.2540  172.9690  136.3950 C   0  0  0  0  0  0  0  0  0  0  0  0
  182.5590  177.3500  135.8940 O   0  0  0  0  0  0  0  0  0  0  0  0
  182.7640  176.1860  136.3250 C   0  0  0  0  0  0  0  0  0  0  0  0
  182.3120  174.2050  137.3260 C   0  0  0  0  0  3  0  0  0  0  0  0
  186.5810  173.4520  135.8900 N   0  0  0  0  0  2  0  0  0  0  0  0
  185.2990  175.9280  135.9280 C   0  0  2  0  0  3  0  0  0  0  0  0
  183.5930  174.1300  136.6010 C   0  0  0  0  0  0  0  0  0  0  0  0
  183.9230  175.4080  136.0170 N   0  0  0  0  0  0  0  0  0  0  0  0
  183.8080  171.7450  137.0860 C   0  0  0  0  0  3  0  0  0  0  0  0
  183.4320  170.6950  136.4280 N   0  0  0  0  0  2  0  0  0  0  0  0
  185.5010  177.4000  136.3210 C   0  0  0  0  0  2  0  0  0  0  0  0
  184.6500  178.5700  138.2330 O   0  0  0  0  0  1  0  0  0  0  0  0
  185.6200  177.6550  137.8240 C   0  0  2  0  0  3  0  0  0  0  0  0
  186.9900  178.2310  138.1420 C   0  0  0  0  0  2  0  0  0  0  0  0
  188.9280  178.8120  136.7760 N   0  0  0  0  0  2  0  0  0  0  0  0
  189.4530  177.7630  137.6640 C   0  0  2  0  0  3  0  0  0  0  0  0
  188.0550  177.6990  137.1850 C   0  0  1  0  0  3  0  0  0  0  0  0
  189.6390  178.3120  139.0800 C   0  0  0  0  0  2  0  0  0  0  0  0
  190.1860  176.0070  139.3530 O   0  0  0  0  0  1  0  0  0  0  0  0
  190.0680  177.2140  140.0470 C   0  0  2  0  0  3  0  0  0  0  0  0
  189.0510  177.0670  141.1900 C   0  0  2  0  0  3  0  0  0  0  0  0
  188.0820  178.0690  141.1110 O   0  0  0  0  0  1  0  0  0  0  0  0
  191.0990  176.5300  142.5840 C   0  0  0  0  0  2  0  0  0  0  0  0
  192.0550  177.4640  143.3170 C   0  0  0  0  0  2  0  0  0  0  0  0
  189.6830  177.0910  142.5860 C   0  0  2  0  0  3  0  0  0  0  0  0
  190.5070  179.6770  143.9490 O   0  0  0  0  0  1  0  0  0  0  0  0
  189.2080  178.2750  145.4410 C   0  0  2  0  0  3  0  0  0  0  0  0
  189.9910  176.0800  145.9590 C   0  0  1  0  0  3  0  0  0  0  0  0
  191.4450  176.3370  145.5170 C   0  0  0  0  0  2  0  0  0  0  0  0
  189.2360  178.1820  146.9610 C   0  0  0  0  0  2  0  0  0  0  0  0
  189.7880  176.7880  147.2930 C   0  0  0  0  0  2  0  0  0  0  0  0
  189.0020  176.8180  145.0800 C   0  0  2  0  0  3  0  0  0  0  0  0
  191.6830  177.6820  144.7880 C   0  0  2  0  0  3  0  0  0  0  0  0
  190.6020  178.7800  145.0180 C   0  0  1  0  0  3  0  0  0  0  0  0
  188.8080  176.3840  143.6170 C   0  0  0  0  0  2  0  0  0  0  0  0
  180.6080  175.8530  137.6620 O   0  0  0  0  0  0  0  0  0  0  0  0
  180.3040  175.7920  139.0470 C   0  0  0  0  0  2  0  0  0  0  0  0
  181.5330  176.1550  139.8580 C   0  0  0  0  0  2  0  0  0  0  0  0
  181.8810  177.5500  139.6350 N   0  0  0  0  0  2  0  0  0  0  0  0
  181.6620  178.6020  140.5870 C   0  0  0  0  0  0  0  0  0  0  0  0
  180.8510  179.5940  140.2340 C   0  0  0  0  0  2  0  0  0  0  0  0
  181.5920  178.9320  143.0840 C   0  0  0  0  0  3  0  0  0  0  0  0
  185.5910  178.5250  145.0470 C   0  0  0  0  0  3  0  0  0  0  0  0
  183.7310  178.4260  142.0160 C   0  0  0  0  0  3  0  0  0  0  0  0
  184.3140  178.4980  143.2790 C   0  0  0  0  0  0  0  0  0  0  0  0
  183.5840  178.7730  144.3960 C   0  0  0  0  0  0  0  0  0  0  0  0
  184.3570  178.7870  145.4470 O   0  0  0  0  0  0  0  0  0  0  0  0
  182.3380  178.6390  141.9110 C   0  0  0  0  0  0  0  0  0  0  0  0
  182.2120  178.9990  144.3450 C   0  0  0  0  0  3  0  0  0  0  0  0
  185.6250  178.3300  143.6630 C   0  0  0  0  0  3  0  0  0  0  0  0
  1  2  1  0  0  0  0
  1 10  1  0  0  0  0
  2  9  1  0  0  0  0
  3  8  2  0  0  0  0
  3 40  1  0  0  0  0
  4  9  1  0  0  0  0
  4  5  1  0  0  0  0
  5 11  2  0  0  0  0
  5 13  1  0  0  0  0
  6  7  2  0  0  0  0
  7  3  1  0  0  0  0
 10 12  1  0  0  0  0
 10 15  1  6  0  0  0
 11  8  1  0  0  0  0
 12  7  1  0  0  0  0
 12 11  1  0  0  0  0
 14 13  2  0  0  0  0
 15 17  1  0  0  0  0
 17 18  1  0  0  0  0
 17 16  1  6  0  0  0
 19 21  1  0  0  0  0
 19 20  1  0  0  0  0
 20 22  1  1  0  0  0
 21 20  1  0  0  0  0
 21 18  1  1  0  0  0
 22 24  1  0  0  0  0
 24 23  1  6  0  0  0
 24 25  1  0  0  0  0
 25 26  1  1  0  0  0
 27 29  1  0  0  0  0
 27 28  1  0  0  0  0
 29 25  1  6  0  0  0
 29 39  1  0  0  0  0
 31 34  1  1  0  0  0
 32 33  1  6  0  0  0
 32 35  1  0  0  0  0
 34 35  1  0  0  0  0
 36 39  1  6  0  0  0
 36 31  1  0  0  0  0
 36 32  1  0  0  0  0
 37 28  1  6  0  0  0
 37 38  1  0  0  0  0
 37 33  1  0  0  0  0
 38 30  1  6  0  0  0
 38 31  1  0  0  0  0
 40 41  1  0  0  0  0
 41 42  1  0  0  0  0
 43 42  1  0  0  0  0
 43 44  1  0  0  0  0
 44 52  1  0  0  0  0
 45 44  2  0  0  0  0
 46 53  1  0  0  0  0
 47 51  1  0  0  0  0
 48 49  2  0  0  0  0
 49 54  1  0  0  0  0
 49 50  1  0  0  0  0
 50 51  1  0  0  0  0
 52 48  1  0  0  0  0
 52 46  2  0  0  0  0
 53 50  2  0  0  0  0
 54 47  2  0  0  0  0
M  END
>  <MODEL>
7

>  <REMARK>
 VINA RESULT:      -7.6      3.092     10.348
  Name = 
  15 active torsions:
  status: ('A' for Active; 'I' for Inactive)
    1  A    between atoms: C_1  and  C_23
    2  A    between atoms: C_2  and  C_22
    3  A    between atoms: C_2  and  C_46
    4  A    between atoms: C_5  and  C_20
    5  A    between atoms: C_5  and  C_24
    6  A    between atoms: C_11  and  C_33
    7  A    between atoms: C_11  and  N_42
    8  A    between atoms: C_13  and  C_14
    9  A    between atoms: C_13  and  C_46
   10  A    between atoms: C_15  and  O_51
   11  A    between atoms: C_17  and  N_42
   12  A    between atoms: C_17  and  C_45
   13  A    between atoms: C_24  and  C_32
   14  A    between atoms: C_32  and  C_43
   15  A    between atoms: C_33  and  O_51
                            x       y       z     vdW  Elec       q    Type
                         _______ _______ _______ _____ _____    ______ ____

>  <TORSDO>
F 15

$$$$
=
 OpenBabel10222419443D

 54 61  0  0  1  0  0  0  0  0999 V2000
  191.5100  175.2550  145.4560 C   0  0  0  0  0  2  0  0  0  0  0  0
  192.3380  175.8430  146.6010 C   0  0  0  0  0  2  0  0  0  0  0  0
  187.3500  177.4270  144.2160 C   0  0  0  0  0  0  0  0  0  0  0  0
  190.3830  176.5650  147.7150 C   0  0  0  0  0  2  0  0  0  0  0  0
  189.2970  177.4380  147.1590 C   0  0  0  0  0  0  0  0  0  0  0  0
  188.4510  175.8150  142.8050 O   0  0  0  0  0  0  0  0  0  0  0  0
  188.4280  176.5190  143.8470 C   0  0  0  0  0  0  0  0  0  0  0  0
  187.5940  177.9220  145.4170 C   0  0  0  0  0  3  0  0  0  0  0  0
  191.6840  176.9930  147.2230 N   0  0  0  0  0  2  0  0  0  0  0  0
  190.8800  176.3650  144.6290 C   0  0  2  0  0  3  0  0  0  0  0  0
  188.8570  177.3230  145.8860 C   0  0  0  0  0  0  0  0  0  0  0  0
  189.4300  176.4800  144.8650 N   0  0  0  0  0  0  0  0  0  0  0  0
  188.6160  178.3650  148.0830 C   0  0  0  0  0  3  0  0  0  0  0  0
  187.9290  177.9310  149.0910 N   0  0  0  0  0  2  0  0  0  0  0  0
  191.3410  176.4160  143.1630 C   0  0  0  0  0  2  0  0  0  0  0  0
  190.9500  178.7810  143.2400 O   0  0  0  0  0  1  0  0  0  0  0  0
  191.7600  177.8010  142.6680 C   0  0  2  0  0  3  0  0  0  0  0  0
  191.6110  177.8740  141.1570 C   0  0  0  0  0  2  0  0  0  0  0  0
  189.6770  177.7670  139.6700 N   0  0  0  0  0  2  0  0  0  0  0  0
  190.4870  176.6150  139.2420 C   0  0  2  0  0  3  0  0  0  0  0  0
  190.4510  177.0090  140.6680 C   0  0  1  0  0  3  0  0  0  0  0  0
  191.7120  177.0910  138.4590 C   0  0  0  0  0  2  0  0  0  0  0  0
  193.9340  176.3950  138.9740 O   0  0  0  0  0  1  0  0  0  0  0  0
  192.7570  175.9850  138.3420 C   0  0  2  0  0  3  0  0  0  0  0  0
  193.0370  175.6550  136.8680 C   0  0  2  0  0  3  0  0  0  0  0  0
  191.8750  175.2020  136.2410 O   0  0  0  0  0  1  0  0  0  0  0  0
  195.3110  175.1720  135.8560 C   0  0  0  0  0  2  0  0  0  0  0  0
  196.6410  174.8750  136.5380 C   0  0  0  0  0  2  0  0  0  0  0  0
  194.1490  174.6180  136.6690 C   0  0  2  0  0  3  0  0  0  0  0  0
  195.9320  173.6940  138.9460 O   0  0  0  0  0  1  0  0  0  0  0  0
  195.0540  171.8080  137.7000 C   0  0  2  0  0  3  0  0  0  0  0  0
  195.5190  171.6320  135.3650 C   0  0  1  0  0  3  0  0  0  0  0  0
  196.7110  172.6090  135.3800 C   0  0  0  0  0  2  0  0  0  0  0  0
  195.6450  170.4210  137.4880 C   0  0  0  0  0  2  0  0  0  0  0  0
  195.9900  170.3270  135.9950 C   0  0  0  0  0  2  0  0  0  0  0  0
  194.4370  172.0560  136.3380 C   0  0  2  0  0  3  0  0  0  0  0  0
  196.9150  173.3770  136.7100 C   0  0  2  0  0  3  0  0  0  0  0  0
  196.2490  172.7450  137.9680 C   0  0  1  0  0  3  0  0  0  0  0  0
  193.6140  173.3250  136.0600 C   0  0  0  0  0  2  0  0  0  0  0  0
  186.2160  177.7480  143.4680 O   0  0  0  0  0  0  0  0  0  0  0  0
  186.2570  178.6390  142.3630 C   0  0  0  0  0  2  0  0  0  0  0  0
  184.9160  178.6410  141.6560 C   0  0  0  0  0  2  0  0  0  0  0  0
  185.0160  179.3770  140.4050 N   0  0  0  0  0  2  0  0  0  0  0  0
  184.4090  178.9670  139.1720 C   0  0  0  0  0  0  0  0  0  0  0  0
  183.1700  179.3830  138.9260 C   0  0  0  0  0  2  0  0  0  0  0  0
  184.4160  176.9280  137.6900 C   0  0  0  0  0  3  0  0  0  0  0  0
  188.2940  176.2940  135.5540 C   0  0  0  0  0  3  0  0  0  0  0  0
  186.4240  178.3160  137.8050 C   0  0  0  0  0  3  0  0  0  0  0  0
  187.0200  177.4280  136.9130 C   0  0  0  0  0  0  0  0  0  0  0  0
  186.3580  176.3410  136.4260 C   0  0  0  0  0  0  0  0  0  0  0  0
  187.1290  175.6700  135.6150 O   0  0  0  0  0  0  0  0  0  0  0  0
  185.0900  178.0700  138.2000 C   0  0  0  0  0  0  0  0  0  0  0  0
  185.0480  176.0510  136.7910 C   0  0  0  0  0  3  0  0  0  0  0  0
  188.2840  177.4310  136.3670 C   0  0  0  0  0  3  0  0  0  0  0  0
  1  2  1  0  0  0  0
  2  9  1  0  0  0  0
  3  8  2  0  0  0  0
  5  4  1  0  0  0  0
  5 13  1  0  0  0  0
  6  7  2  0  0  0  0
  7  3  1  0  0  0  0
  7 12  1  0  0  0  0
  8 11  1  0  0  0  0
  9  4  1  0  0  0  0
 10 15  1  6  0  0  0
 10 12  1  0  0  0  0
 10  1  1  0  0  0  0
 11  5  2  0  0  0  0
 12 11  1  0  0  0  0
 13 14  2  0  0  0  0
 17 15  1  0  0  0  0
 17 16  1  1  0  0  0
 18 17  1  0  0  0  0
 19 21  1  0  0  0  0
 20 22  1  6  0  0  0
 20 19  1  0  0  0  0
 20 21  1  0  0  0  0
 21 18  1  6  0  0  0
 24 22  1  0  0  0  0
 24 23  1  6  0  0  0
 25 26  1  1  0  0  0
 25 24  1  0  0  0  0
 27 28  1  0  0  0  0
 27 29  1  0  0  0  0
 28 37  1  0  0  0  0
 29 25  1  6  0  0  0
 31 34  1  6  0  0  0
 31 38  1  0  0  0  0
 32 33  1  1  0  0  0
 32 35  1  0  0  0  0
 32 36  1  0  0  0  0
 35 34  1  0  0  0  0
 36 39  1  1  0  0  0
 36 31  1  0  0  0  0
 37 33  1  6  0  0  0
 37 38  1  0  0  0  0
 38 30  1  1  0  0  0
 39 29  1  0  0  0  0
 40  3  1  0  0  0  0
 41 40  1  0  0  0  0
 42 41  1  0  0  0  0
 43 42  1  0  0  0  0
 44 43  1  0  0  0  0
 45 44  2  0  0  0  0
 46 52  1  0  0  0  0
 47 51  1  0  0  0  0
 47 54  2  0  0  0  0
 48 52  2  0  0  0  0
 49 48  1  0  0  0  0
 50 53  1  0  0  0  0
 50 49  2  0  0  0  0
 51 50  1  0  0  0  0
 52 44  1  0  0  0  0
 53 46  2  0  0  0  0
 54 49  1  0  0  0  0
M  END
>  <MODEL>
8

>  <REMARK>
 VINA RESULT:      -7.5      3.191      8.805
  Name = 
  15 active torsions:
  status: ('A' for Active; 'I' for Inactive)
    1  A    between atoms: C_1  and  C_23
    2  A    between atoms: C_2  and  C_22
    3  A    between atoms: C_2  and  C_46
    4  A    between atoms: C_5  and  C_20
    5  A    between atoms: C_5  and  C_24
    6  A    between atoms: C_11  and  C_33
    7  A    between atoms: C_11  and  N_42
    8  A    between atoms: C_13  and  C_14
    9  A    between atoms: C_13  and  C_46
   10  A    between atoms: C_15  and  O_51
   11  A    between atoms: C_17  and  N_42
   12  A    between atoms: C_17  and  C_45
   13  A    between atoms: C_24  and  C_32
   14  A    between atoms: C_32  and  C_43
   15  A    between atoms: C_33  and  O_51
                            x       y       z     vdW  Elec       q    Type
                         _______ _______ _______ _____ _____    ______ ____

>  <TORSDO>
F 15

$$$$
=
 OpenBabel10222419443D

 54 61  0  0  1  0  0  0  0  0999 V2000
  187.0380  178.5240  146.2260 C   0  0  0  0  0  2  0  0  0  0  0  0
  186.9490  177.8800  147.6120 C   0  0  0  0  0  2  0  0  0  0  0  0
  190.6250  177.1850  143.2430 C   0  0  0  0  0  0  0  0  0  0  0  0
  189.3020  177.6960  147.7340 C   0  0  0  0  0  2  0  0  0  0  0  0
  190.2100  177.0280  146.7440 C   0  0  0  0  0  0  0  0  0  0  0  0
  188.6800  178.3890  142.4870 O   0  0  0  0  0  0  0  0  0  0  0  0
  189.3160  177.8040  143.4010 C   0  0  0  0  0  0  0  0  0  0  0  0
  191.0480  176.7610  144.4210 C   0  0  0  0  0  3  0  0  0  0  0  0
  188.0560  176.9580  147.8650 N   0  0  0  0  0  2  0  0  0  0  0  0
  187.4840  177.5030  145.1910 C   0  0  2  0  0  3  0  0  0  0  0  0
  190.0140  177.1180  145.4090 C   0  0  0  0  0  0  0  0  0  0  0  0
  188.8760  177.7220  144.7580 N   0  0  0  0  0  0  0  0  0  0  0  0
  191.4180  176.3570  147.2580 C   0  0  0  0  0  3  0  0  0  0  0  0
  192.1730  176.9130  148.1500 N   0  0  0  0  0  2  0  0  0  0  0  0
  186.4590  177.2210  144.0810 C   0  0  0  0  0  2  0  0  0  0  0  0
  184.4460  178.3290  144.7660 O   0  0  0  0  0  1  0  0  0  0  0  0
  185.4670  178.3540  143.8160 C   0  0  2  0  0  3  0  0  0  0  0  0
  184.8480  178.1850  142.4380 C   0  0  0  0  0  2  0  0  0  0  0  0
  185.9170  178.8050  140.3330 N   0  0  0  0  0  2  0  0  0  0  0  0
  184.5600  179.3560  140.1890 C   0  0  2  0  0  3  0  0  0  0  0  0
  185.2200  179.3420  141.5130 C   0  0  1  0  0  3  0  0  0  0  0  0
  183.5550  178.2300  139.9430 C   0  0  0  0  0  2  0  0  0  0  0  0
  181.5790  179.3950  140.5960 O   0  0  0  0  0  1  0  0  0  0  0  0
  182.2020  178.7820  139.5060 C   0  0  2  0  0  3  0  0  0  0  0  0
  181.3100  177.6610  138.9500 C   0  0  2  0  0  3  0  0  0  0  0  0
  180.7670  176.9090  139.9930 O   0  0  0  0  0  1  0  0  0  0  0  0
  181.7540  177.0700  136.5250 C   0  0  0  0  0  2  0  0  0  0  0  0
  183.0490  177.1390  135.7230 C   0  0  0  0  0  2  0  0  0  0  0  0
  182.0350  176.7200  137.9800 C   0  0  2  0  0  3  0  0  0  0  0  0
  185.0480  176.7770  137.6120 O   0  0  0  0  0  1  0  0  0  0  0  0
  184.2480  174.5120  137.9450 C   0  0  2  0  0  3  0  0  0  0  0  0
  182.6440  173.6040  136.4270 C   0  0  1  0  0  3  0  0  0  0  0  0
  182.9070  174.6320  135.3080 C   0  0  0  0  0  2  0  0  0  0  0  0
  184.8280  173.1920  137.4540 C   0  0  0  0  0  2  0  0  0  0  0  0
  183.8190  172.6340  136.4400 C   0  0  0  0  0  2  0  0  0  0  0  0
  182.7660  174.2320  137.8010 C   0  0  2  0  0  3  0  0  0  0  0  0
  183.8230  175.8160  135.7030 C   0  0  2  0  0  3  0  0  0  0  0  0
  184.7290  175.5870  136.9490 C   0  0  1  0  0  3  0  0  0  0  0  0
  181.7180  175.2560  138.2680 C   0  0  0  0  0  2  0  0  0  0  0  0
  191.3620  177.0460  142.0650 O   0  0  0  0  0  0  0  0  0  0  0  0
  190.8020  176.5200  140.8710 C   0  0  0  0  0  2  0  0  0  0  0  0
  191.1820  177.4000  139.6960 C   0  0  0  0  0  2  0  0  0  0  0  0
  192.0090  176.6500  138.7620 N   0  0  0  0  0  2  0  0  0  0  0  0
  191.4970  175.7540  137.7650 C   0  0  0  0  0  0  0  0  0  0  0  0
  192.1300  174.5980  137.5920 C   0  0  0  0  0  2  0  0  0  0  0  0
  189.9920  175.2570  135.8050 C   0  0  0  0  0  3  0  0  0  0  0  0
  186.7950  178.3250  135.1920 C   0  0  0  0  0  3  0  0  0  0  0  0
  189.5770  177.2630  137.1390 C   0  0  0  0  0  3  0  0  0  0  0  0
  188.5140  177.5410  136.2840 C   0  0  0  0  0  0  0  0  0  0  0  0
  188.1940  176.7270  135.2400 C   0  0  0  0  0  0  0  0  0  0  0  0
  187.1660  177.2050  134.5940 O   0  0  0  0  0  0  0  0  0  0  0  0
  190.3320  176.0920  136.9040 C   0  0  0  0  0  0  0  0  0  0  0  0
  188.9120  175.5680  134.9610 C   0  0  0  0  0  3  0  0  0  0  0  0
  187.6240  178.5920  136.2860 C   0  0  0  0  0  3  0  0  0  0  0  0
  1  2  1  0  0  0  0
  2  9  1  0  0  0  0
  3  7  1  0  0  0  0
  3  8  2  0  0  0  0
  4  9  1  0  0  0  0
  5 13  1  0  0  0  0
  5  4  1  0  0  0  0
  6  7  2  0  0  0  0
  7 12  1  0  0  0  0
  8 11  1  0  0  0  0
 10 15  1  6  0  0  0
 10  1  1  0  0  0  0
 11  5  2  0  0  0  0
 12 10  1  0  0  0  0
 12 11  1  0  0  0  0
 13 14  2  0  0  0  0
 17 15  1  0  0  0  0
 17 16  1  1  0  0  0
 18 17  1  0  0  0  0
 19 21  1  0  0  0  0
 20 22  1  1  0  0  0
 20 19  1  0  0  0  0
 20 21  1  0  0  0  0
 21 18  1  1  0  0  0
 24 22  1  0  0  0  0
 24 23  1  1  0  0  0
 25 24  1  0  0  0  0
 25 26  1  1  0  0  0
 27 29  1  0  0  0  0
 28 27  1  0  0  0  0
 29 39  1  0  0  0  0
 29 25  1  1  0  0  0
 31 34  1  6  0  0  0
 32 33  1  6  0  0  0
 32 35  1  0  0  0  0
 32 36  1  0  0  0  0
 35 34  1  0  0  0  0
 36 31  1  0  0  0  0
 36 39  1  6  0  0  0
 37 33  1  1  0  0  0
 37 28  1  0  0  0  0
 37 38  1  0  0  0  0
 38 30  1  1  0  0  0
 38 31  1  0  0  0  0
 40  3  1  0  0  0  0
 41 40  1  0  0  0  0
 42 41  1  0  0  0  0
 43 42  1  0  0  0  0
 44 43  1  0  0  0  0
 45 44  2  0  0  0  0
 46 52  1  0  0  0  0
 47 54  2  0  0  0  0
 49 54  1  0  0  0  0
 49 48  1  0  0  0  0
 50 49  2  0  0  0  0
 51 47  1  0  0  0  0
 51 50  1  0  0  0  0
 52 48  2  0  0  0  0
 52 44  1  0  0  0  0
 53 50  1  0  0  0  0
 53 46  2  0  0  0  0
M  END
>  <MODEL>
9

>  <REMARK>
 VINA RESULT:      -7.5      1.718      2.494
  Name = 
  15 active torsions:
  status: ('A' for Active; 'I' for Inactive)
    1  A    between atoms: C_1  and  C_23
    2  A    between atoms: C_2  and  C_22
    3  A    between atoms: C_2  and  C_46
    4  A    between atoms: C_5  and  C_20
    5  A    between atoms: C_5  and  C_24
    6  A    between atoms: C_11  and  C_33
    7  A    between atoms: C_11  and  N_42
    8  A    between atoms: C_13  and  C_14
    9  A    between atoms: C_13  and  C_46
   10  A    between atoms: C_15  and  O_51
   11  A    between atoms: C_17  and  N_42
   12  A    between atoms: C_17  and  C_45
   13  A    between atoms: C_24  and  C_32
   14  A    between atoms: C_32  and  C_43
   15  A    between atoms: C_33  and  O_51
                            x       y       z     vdW  Elec       q    Type
                         _______ _______ _______ _____ _____    ______ ____

>  <TORSDO>
F 15

$$$$
