=
 OpenBabel10222417393D

 30 35  0  0  1  0  0  0  0  0999 V2000
  190.3010  176.7200  144.1630 C   0  0  1  0  0  3  0  0  0  0  0  0
  187.6050  178.2290  146.5240 C   0  0  1  0  0  3  0  0  0  0  0  0
  183.5410  179.2760  143.7300 C   0  0  0  0  0  3  0  0  0  0  0  0
  184.2020  179.3200  144.9580 C   0  0  0  0  0  3  0  0  0  0  0  0
  185.3180  177.9630  142.8360 N   0  0  0  0  0  0  0  0  0  0  0  0
  184.1270  178.5980  142.6520 C   0  0  0  0  0  0  0  0  0  0  0  0
  186.1510  178.6740  146.4330 C   0  0  1  0  0  0  0  0  0  0  0  0
  190.6640  177.7320  145.1670 N   0  0  0  0  0  0  0  0  0  0  0  0
  188.6310  176.6730  142.2440 C   0  0  0  0  0  2  0  0  0  0  0  0
  187.2380  177.3220  144.1780 N   0  0  0  0  0  0  0  0  0  0  0  0
  189.4400  176.9330  145.3530 C   0  0  1  0  0  3  0  0  0  0  0  0
  186.4780  177.2960  146.9720 C   0  0  0  0  0  2  0  0  0  0  0  0
  185.7420  179.5660  147.4250 O   0  0  0  0  0  1  0  0  0  0  0  0
  187.5760  176.2340  143.2600 C   0  0  0  0  0  2  0  0  0  0  0  0
  189.8150  177.4120  142.8860 C   0  0  2  0  0  3  0  0  0  0  0  0
  185.9880  178.0040  144.0200 C   0  0  0  0  0  0  0  0  0  0  0  0
  191.6880  177.1360  146.0060 C   0  0  0  0  0  1  0  0  0  0  0  0
  188.2150  177.8440  145.1560 C   0  0  2  0  0  3  0  0  0  0  0  0
  185.4390  178.6870  145.1090 C   0  0  0  0  0  0  0  0  0  0  0  0
  185.9050  178.7390  140.0200 Cl  0  0  0  0  0  0  0  0  0  0  0  0
  182.0440  178.4600  141.3080 C   0  0  0  0  0  3  0  0  0  0  0  0
  181.3570  178.3790  140.0960 C   0  0  0  0  0  3  0  0  0  0  0  0
  183.4560  178.4770  138.9030 C   0  0  0  0  0  3  0  0  0  0  0  0
  184.1570  178.5560  140.1120 C   0  0  0  0  0  0  0  0  0  0  0  0
  183.4470  178.5410  141.3390 C   0  0  0  0  0  0  0  0  0  0  0  0
  182.0640  178.3850  138.8940 C   0  0  0  0  0  3  0  0  0  0  0  0
  190.9590  177.5270  141.8910 C   0  0  0  0  0  2  0  0  0  0  0  0
  190.7220  176.0670  139.8870 O   0  0  0  0  0  1  0  0  0  0  0  0
  189.8690  178.1950  139.8760 O   0  0  0  0  0  0  0  0  0  0  0  0
  190.4740  177.2870  140.5020 C   0  0  0  0  0  0  0  0  0  0  0  0
  1  8  1  1  0  0  0
  1 11  1  0  0  0  0
  2 12  1  1  0  0  0
  3  4  1  0  0  0  0
  4 19  2  0  0  0  0
  5 16  2  0  0  0  0
  6  5  1  0  0  0  0
  6  3  2  0  0  0  0
  7  2  1  0  0  0  0
  7 12  1  0  0  0  0
  7 13  1  1  0  0  0
  8 17  1  0  0  0  0
  9 15  1  0  0  0  0
  9 14  1  0  0  0  0
 11  8  1  1  0  0  0
 14 10  1  0  0  0  0
 15 27  1  6  0  0  0
 15  1  1  0  0  0  0
 16 10  1  0  0  0  0
 16 19  1  0  0  0  0
 18 10  1  6  0  0  0
 18 11  1  0  0  0  0
 18  2  1  0  0  0  0
 19  7  1  0  0  0  0
 20 24  1  0  0  0  0
 21 25  1  0  0  0  0
 22 21  2  0  0  0  0
 23 24  1  0  0  0  0
 24 25  2  0  0  0  0
 25  6  1  0  0  0  0
 26 23  2  0  0  0  0
 26 22  1  0  0  0  0
 28 30  1  0  0  0  0
 29 30  2  0  0  0  0
 30 27  1  0  0  0  0
M  END
>  <MODEL>
1

>  <REMARK>
 VINA RESULT:      -9.2      0.000      0.000
  Name = 
  3 active torsions:
  status: ('A' for Active; 'I' for Inactive)
    1  A    between atoms: C_10  and  C_25
    2  A    between atoms: C_10  and  C_26
    3  A    between atoms: C_11  and  C_22
                            x       y       z     vdW  Elec       q    Type
                         _______ _______ _______ _____ _____    ______ ____

>  <TORSDO>
F 3

$$$$
=
 OpenBabel10222417393D

 30 35  0  0  1  0  0  0  0  0999 V2000
  190.3090  176.6870  144.1820 C   0  0  1  0  0  3  0  0  0  0  0  0
  187.6040  178.2070  146.5250 C   0  0  1  0  0  3  0  0  0  0  0  0
  183.5990  179.3600  143.6890 C   0  0  0  0  0  3  0  0  0  0  0  0
  184.2430  179.3750  144.9260 C   0  0  0  0  0  3  0  0  0  0  0  0
  185.3680  178.0300  142.8010 N   0  0  0  0  0  0  0  0  0  0  0  0
  184.1900  178.6860  142.6100 C   0  0  0  0  0  0  0  0  0  0  0  0
  186.1600  178.6780  146.4190 C   0  0  1  0  0  0  0  0  0  0  0  0
  190.6740  177.6780  145.2050 N   0  0  0  0  0  0  0  0  0  0  0  0
  188.6670  176.6940  142.2390 C   0  0  0  0  0  2  0  0  0  0  0  0
  187.2570  177.3390  144.1620 N   0  0  0  0  0  0  0  0  0  0  0  0
  189.4350  176.8980  145.3620 C   0  0  1  0  0  3  0  0  0  0  0  0
  186.4560  177.2860  146.9440 C   0  0  0  0  0  2  0  0  0  0  0  0
  185.7500  179.5630  147.4180 O   0  0  0  0  0  1  0  0  0  0  0  0
  187.5910  176.2580  143.2340 C   0  0  0  0  0  2  0  0  0  0  0  0
  189.8530  177.4040  142.9080 C   0  0  2  0  0  3  0  0  0  0  0  0
  186.0210  178.0430  143.9960 C   0  0  0  0  0  0  0  0  0  0  0  0
  191.6760  177.0550  146.0510 C   0  0  0  0  0  1  0  0  0  0  0  0
  188.2280  177.8310  145.1610 C   0  0  2  0  0  3  0  0  0  0  0  0
  185.4670  178.7210  145.0860 C   0  0  0  0  0  0  0  0  0  0  0  0
  181.0150  178.5460  142.5100 Cl  0  0  0  0  0  0  0  0  0  0  0  0
  184.3270  178.6630  140.1310 C   0  0  0  0  0  3  0  0  0  0  0  0
  183.7500  178.6630  138.8600 C   0  0  0  0  0  3  0  0  0  0  0  0
  181.5510  178.6340  139.8610 C   0  0  0  0  0  3  0  0  0  0  0  0
  182.1180  178.6380  141.1410 C   0  0  0  0  0  0  0  0  0  0  0  0
  183.5270  178.6590  141.2860 C   0  0  0  0  0  0  0  0  0  0  0  0
  182.3620  178.6510  138.7260 C   0  0  0  0  0  3  0  0  0  0  0  0
  191.0140  177.5140  141.9320 C   0  0  0  0  0  2  0  0  0  0  0  0
  190.7900  176.0400  139.9360 O   0  0  0  0  0  1  0  0  0  0  0  0
  189.9720  178.1820  139.8900 O   0  0  0  0  0  0  0  0  0  0  0  0
  190.5510  177.2690  140.5350 C   0  0  0  0  0  0  0  0  0  0  0  0
  1  8  1  1  0  0  0
  1 11  1  0  0  0  0
  2 12  1  1  0  0  0
  3  4  1  0  0  0  0
  4 19  2  0  0  0  0
  5 16  2  0  0  0  0
  6  5  1  0  0  0  0
  6  3  2  0  0  0  0
  7  2  1  0  0  0  0
  7 12  1  0  0  0  0
  7 13  1  1  0  0  0
  8 17  1  0  0  0  0
  9 15  1  0  0  0  0
  9 14  1  0  0  0  0
 11  8  1  1  0  0  0
 14 10  1  0  0  0  0
 15 27  1  6  0  0  0
 15  1  1  0  0  0  0
 16 10  1  0  0  0  0
 16 19  1  0  0  0  0
 18 10  1  6  0  0  0
 18 11  1  0  0  0  0
 18  2  1  0  0  0  0
 19  7  1  0  0  0  0
 21 25  1  0  0  0  0
 22 21  2  0  0  0  0
 23 24  1  0  0  0  0
 24 25  2  0  0  0  0
 24 20  1  0  0  0  0
 25  6  1  0  0  0  0
 26 22  1  0  0  0  0
 26 23  2  0  0  0  0
 28 30  1  0  0  0  0
 29 30  2  0  0  0  0
 30 27  1  0  0  0  0
M  END
>  <MODEL>
2

>  <REMARK>
 VINA RESULT:      -9.1      1.014      1.345
  Name = 
  3 active torsions:
  status: ('A' for Active; 'I' for Inactive)
    1  A    between atoms: C_10  and  C_25
    2  A    between atoms: C_10  and  C_26
    3  A    between atoms: C_11  and  C_22
                            x       y       z     vdW  Elec       q    Type
                         _______ _______ _______ _____ _____    ______ ____

>  <TORSDO>
F 3

$$$$
=
 OpenBabel10222417393D

 30 35  0  0  1  0  0  0  0  0999 V2000
  189.1050  177.1570  146.3990 C   0  0  1  0  0  3  0  0  0  0  0  0
  185.6730  178.7280  145.4640 C   0  0  1  0  0  3  0  0  0  0  0  0
  185.5010  179.1460  140.4430 C   0  0  0  0  0  3  0  0  0  0  0  0
  184.9230  179.3790  141.6910 C   0  0  0  0  0  3  0  0  0  0  0  0
  187.2200  177.8710  141.4930 N   0  0  0  0  0  0  0  0  0  0  0  0
  186.6800  178.3920  140.3560 C   0  0  0  0  0  0  0  0  0  0  0  0
  184.8920  179.0520  144.1980 C   0  0  1  0  0  0  0  0  0  0  0  0
  188.5740  178.3020  147.1540 N   0  0  0  0  0  0  0  0  0  0  0  0
  189.6250  176.7670  143.9390 C   0  0  0  0  0  2  0  0  0  0  0  0
  187.2770  177.5310  143.8960 N   0  0  0  0  0  0  0  0  0  0  0  0
  187.6490  177.4430  146.3930 C   0  0  1  0  0  3  0  0  0  0  0  0
  184.5920  177.7730  144.9540 C   0  0  0  0  0  2  0  0  0  0  0  0
  183.8970  180.0210  144.3470 O   0  0  0  0  0  1  0  0  0  0  0  0
  188.1580  176.3720  143.7600 C   0  0  0  0  0  2  0  0  0  0  0  0
  189.8630  177.6590  145.1660 C   0  0  2  0  0  3  0  0  0  0  0  0
  186.6820  178.0970  142.7230 C   0  0  0  0  0  0  0  0  0  0  0  0
  188.4930  177.8840  148.5420 C   0  0  0  0  0  1  0  0  0  0  0  0
  187.1120  178.2330  145.1860 C   0  0  2  0  0  3  0  0  0  0  0  0
  185.5170  178.8600  142.8450 C   0  0  0  0  0  0  0  0  0  0  0  0
  184.8360  177.4280  137.9510 Cl  0  0  0  0  0  0  0  0  0  0  0  0
  188.7040  178.2930  138.9210 C   0  0  0  0  0  3  0  0  0  0  0  0
  189.3440  178.0860  137.6990 C   0  0  0  0  0  3  0  0  0  0  0  0
  187.2220  177.5330  136.6830 C   0  0  0  0  0  3  0  0  0  0  0  0
  186.5680  177.7410  137.9030 C   0  0  0  0  0  0  0  0  0  0  0  0
  187.3130  178.1340  139.0430 C   0  0  0  0  0  0  0  0  0  0  0  0
  188.6030  177.7090  136.5790 C   0  0  0  0  0  3  0  0  0  0  0  0
  191.3500  177.7420  145.4710 C   0  0  0  0  0  2  0  0  0  0  0  0
  191.8780  176.8660  147.7420 O   0  0  0  0  0  1  0  0  0  0  0  0
  192.0370  175.4990  145.9090 O   0  0  0  0  0  0  0  0  0  0  0  0
  191.7640  176.6330  146.3790 C   0  0  0  0  0  0  0  0  0  0  0  0
  1  8  1  1  0  0  0
  2 12  1  6  0  0  0
  3  4  1  0  0  0  0
  4 19  2  0  0  0  0
  5 16  2  0  0  0  0
  6  3  2  0  0  0  0
  6  5  1  0  0  0  0
  7 13  1  1  0  0  0
  7 12  1  0  0  0  0
  7  2  1  0  0  0  0
  8 17  1  0  0  0  0
  9 15  1  0  0  0  0
 11  1  1  0  0  0  0
 11  8  1  1  0  0  0
 14 10  1  0  0  0  0
 14  9  1  0  0  0  0
 15 27  1  1  0  0  0
 15  1  1  0  0  0  0
 16 19  1  0  0  0  0
 16 10  1  0  0  0  0
 18 10  1  6  0  0  0
 18  2  1  0  0  0  0
 18 11  1  0  0  0  0
 19  7  1  0  0  0  0
 21 25  1  0  0  0  0
 22 21  2  0  0  0  0
 23 24  1  0  0  0  0
 24 20  1  0  0  0  0
 24 25  2  0  0  0  0
 25  6  1  0  0  0  0
 26 23  2  0  0  0  0
 26 22  1  0  0  0  0
 27 30  1  0  0  0  0
 29 30  2  0  0  0  0
 30 28  1  0  0  0  0
M  END
>  <MODEL>
3

>  <REMARK>
 VINA RESULT:      -8.8      2.739      4.165
  Name = 
  3 active torsions:
  status: ('A' for Active; 'I' for Inactive)
    1  A    between atoms: C_10  and  C_25
    2  A    between atoms: C_10  and  C_26
    3  A    between atoms: C_11  and  C_22
                            x       y       z     vdW  Elec       q    Type
                         _______ _______ _______ _____ _____    ______ ____

>  <TORSDO>
F 3

$$$$
=
 OpenBabel10222417393D

 30 35  0  0  1  0  0  0  0  0999 V2000
  187.1210  177.5040  145.9350 C   0  0  1  0  0  3  0  0  0  0  0  0
  185.4180  178.8050  142.6900 C   0  0  1  0  0  3  0  0  0  0  0  0
  188.6810  178.1870  138.8980 C   0  0  0  0  0  3  0  0  0  0  0  0
  187.4560  178.6620  139.3670 C   0  0  0  0  0  3  0  0  0  0  0  0
  189.0860  177.1770  141.0190 N   0  0  0  0  0  0  0  0  0  0  0  0
  189.5100  177.4470  139.7530 C   0  0  0  0  0  0  0  0  0  0  0  0
  185.7250  178.8540  141.2000 C   0  0  1  0  0  0  0  0  0  0  0  0
  186.3760  178.7720  145.9360 N   0  0  0  0  0  0  0  0  0  0  0  0
  189.0880  176.6280  144.5800 C   0  0  0  0  0  2  0  0  0  0  0  0
  187.4860  177.3360  142.8390 N   0  0  0  0  0  0  0  0  0  0  0  0
  186.0900  177.7640  144.9000 C   0  0  1  0  0  3  0  0  0  0  0  0
  184.8390  177.7520  141.7440 C   0  0  0  0  0  2  0  0  0  0  0  0
  185.0190  179.8190  140.4800 O   0  0  0  0  0  1  0  0  0  0  0  0
  188.0770  176.1850  143.5220 C   0  0  0  0  0  2  0  0  0  0  0  0
  188.5630  177.7550  145.4820 C   0  0  2  0  0  3  0  0  0  0  0  0
  187.9010  177.6420  141.5030 C   0  0  0  0  0  0  0  0  0  0  0  0
  185.3400  178.6450  146.9450 C   0  0  0  0  0  1  0  0  0  0  0  0
  186.5980  178.2840  143.5430 C   0  0  2  0  0  3  0  0  0  0  0  0
  187.0610  178.3980  140.6810 C   0  0  0  0  0  0  0  0  0  0  0  0
  189.5290  175.2610  137.4440 Cl  0  0  0  0  0  0  0  0  0  0  0  0
  191.9890  177.4110  139.8880 C   0  0  0  0  0  3  0  0  0  0  0  0
  193.2450  176.9770  139.4600 C   0  0  0  0  0  3  0  0  0  0  0  0
  192.1910  175.5620  137.8090 C   0  0  0  0  0  3  0  0  0  0  0  0
  190.9260  175.9910  138.2270 C   0  0  0  0  0  0  0  0  0  0  0  0
  190.8150  176.9350  139.2790 C   0  0  0  0  0  0  0  0  0  0  0  0
  193.3450  176.0550  138.4190 C   0  0  0  0  0  3  0  0  0  0  0  0
  189.4660  177.9180  146.6940 C   0  0  0  0  0  2  0  0  0  0  0  0
  191.6680  177.5800  145.5790 O   0  0  0  0  0  0  0  0  0  0  0  0
  190.9430  176.1070  147.1800 O   0  0  0  0  0  1  0  0  0  0  0  0
  190.7330  177.1530  146.5120 C   0  0  0  0  0  0  0  0  0  0  0  0
  1  8  1  1  0  0  0
  2 12  1  6  0  0  0
  2 18  1  0  0  0  0
  3  4  2  0  0  0  0
  3  6  1  0  0  0  0
  4 19  1  0  0  0  0
  5 16  1  0  0  0  0
  6  5  2  0  0  0  0
  7 13  1  6  0  0  0
  7 12  1  0  0  0  0
  7  2  1  0  0  0  0
  8 17  1  0  0  0  0
  9 15  1  0  0  0  0
 10 14  1  0  0  0  0
 11  1  1  0  0  0  0
 11  8  1  1  0  0  0
 14  9  1  0  0  0  0
 15  1  1  0  0  0  0
 15 27  1  1  0  0  0
 16 10  1  0  0  0  0
 18 10  1  6  0  0  0
 18 11  1  0  0  0  0
 19  7  1  0  0  0  0
 19 16  2  0  0  0  0
 20 24  1  0  0  0  0
 22 21  1  0  0  0  0
 23 24  2  0  0  0  0
 23 26  1  0  0  0  0
 24 25  1  0  0  0  0
 25  6  1  0  0  0  0
 25 21  2  0  0  0  0
 26 22  2  0  0  0  0
 28 30  2  0  0  0  0
 30 27  1  0  0  0  0
 30 29  1  0  0  0  0
M  END
>  <MODEL>
4

>  <REMARK>
 VINA RESULT:      -8.7      2.873      6.298
  Name = 
  3 active torsions:
  status: ('A' for Active; 'I' for Inactive)
    1  A    between atoms: C_10  and  C_25
    2  A    between atoms: C_10  and  C_26
    3  A    between atoms: C_11  and  C_22
                            x       y       z     vdW  Elec       q    Type
                         _______ _______ _______ _____ _____    ______ ____

>  <TORSDO>
F 3

$$$$
=
 OpenBabel10222417393D

 30 35  0  0  1  0  0  0  0  0999 V2000
  187.5060  177.4530  136.8600 C   0  0  1  0  0  3  0  0  0  0  0  0
  184.2040  178.6310  138.5410 C   0  0  1  0  0  3  0  0  0  0  0  0
  184.8470  178.3560  143.5330 C   0  0  0  0  0  3  0  0  0  0  0  0
  184.0190  178.6020  142.4380 C   0  0  0  0  0  3  0  0  0  0  0  0
  186.7080  178.1320  142.0600 N   0  0  0  0  0  0  0  0  0  0  0  0
  186.2100  178.1010  143.3270 C   0  0  0  0  0  0  0  0  0  0  0  0
  183.6930  178.9050  139.9490 C   0  0  1  0  0  0  0  0  0  0  0  0
  186.2030  176.9920  136.3580 N   0  0  0  0  0  0  0  0  0  0  0  0
  188.6500  177.3400  139.1290 C   0  0  0  0  0  2  0  0  0  0  0  0
  186.4740  178.3830  139.6560 N   0  0  0  0  0  0  0  0  0  0  0  0
  186.2780  178.2370  137.1420 C   0  0  1  0  0  3  0  0  0  0  0  0
  184.1800  180.0570  139.0930 C   0  0  0  0  0  2  0  0  0  0  0  0
  182.3050  178.8790  140.0920 O   0  0  0  0  0  1  0  0  0  0  0  0
  187.9080  178.6260  139.4940 C   0  0  0  0  0  2  0  0  0  0  0  0
  187.9660  176.5470  138.0060 C   0  0  2  0  0  3  0  0  0  0  0  0
  185.9160  178.3550  140.9740 C   0  0  0  0  0  0  0  0  0  0  0  0
  186.1360  177.3760  134.9600 C   0  0  0  0  0  1  0  0  0  0  0  0
  185.6180  178.0060  138.5120 C   0  0  2  0  0  3  0  0  0  0  0  0
  184.5500  178.5950  141.1450 C   0  0  0  0  0  0  0  0  0  0  0  0
  189.1000  176.9100  142.7410 Cl  0  0  0  0  0  0  0  0  0  0  0  0
  186.6370  178.0880  145.7730 C   0  0  0  0  0  3  0  0  0  0  0  0
  187.4530  177.8770  146.8850 C   0  0  0  0  0  3  0  0  0  0  0  0
  189.2350  177.1320  145.4330 C   0  0  0  0  0  3  0  0  0  0  0  0
  188.4270  177.3430  144.3090 C   0  0  0  0  0  0  0  0  0  0  0  0
  187.1080  177.8350  144.4740 C   0  0  0  0  0  0  0  0  0  0  0  0
  188.7530  177.4010  146.7150 C   0  0  0  0  0  3  0  0  0  0  0  0
  188.9060  175.4760  137.4760 C   0  0  0  0  0  2  0  0  0  0  0  0
  190.9840  176.7570  136.9760 O   0  0  0  0  0  0  0  0  0  0  0  0
  190.9330  175.2670  138.7180 O   0  0  0  0  0  1  0  0  0  0  0  0
  190.3250  175.8290  137.7710 C   0  0  0  0  0  0  0  0  0  0  0  0
  1  8  1  6  0  0  0
  1 11  1  0  0  0  0
  1 15  1  0  0  0  0
  2 12  1  6  0  0  0
  2  7  1  0  0  0  0
  4  3  2  0  0  0  0
  5  6  2  0  0  0  0
  6  3  1  0  0  0  0
  6 25  1  0  0  0  0
  7 13  1  1  0  0  0
  7 19  1  0  0  0  0
  9 14  1  0  0  0  0
 10 16  1  0  0  0  0
 11  8  1  6  0  0  0
 11 18  1  0  0  0  0
 12  7  1  0  0  0  0
 14 10  1  0  0  0  0
 15 27  1  6  0  0  0
 15  9  1  0  0  0  0
 16 19  2  0  0  0  0
 16  5  1  0  0  0  0
 17  8  1  0  0  0  0
 18  2  1  0  0  0  0
 18 10  1  1  0  0  0
 19  4  1  0  0  0  0
 20 24  1  0  0  0  0
 21 22  1  0  0  0  0
 23 26  1  0  0  0  0
 24 25  1  0  0  0  0
 24 23  2  0  0  0  0
 25 21  2  0  0  0  0
 26 22  2  0  0  0  0
 27 30  1  0  0  0  0
 28 30  2  0  0  0  0
 30 29  1  0  0  0  0
M  END
>  <MODEL>
5

>  <REMARK>
 VINA RESULT:      -8.1      3.047      6.531
  Name = 
  3 active torsions:
  status: ('A' for Active; 'I' for Inactive)
    1  A    between atoms: C_10  and  C_25
    2  A    between atoms: C_10  and  C_26
    3  A    between atoms: C_11  and  C_22
                            x       y       z     vdW  Elec       q    Type
                         _______ _______ _______ _____ _____    ______ ____

>  <TORSDO>
F 3

$$$$
=
 OpenBabel10222417393D

 30 35  0  0  1  0  0  0  0  0999 V2000
  182.5330  179.0250  142.4140 C   0  0  1  0  0  3  0  0  0  0  0  0
  184.7020  178.2740  145.5510 C   0  0  1  0  0  3  0  0  0  0  0  0
  189.3270  177.0590  143.9570 C   0  0  0  0  0  3  0  0  0  0  0  0
  188.4130  177.2040  145.0010 C   0  0  0  0  0  3  0  0  0  0  0  0
  187.7360  177.9980  142.4500 N   0  0  0  0  0  0  0  0  0  0  0  0
  188.9650  177.4500  142.6600 C   0  0  0  0  0  0  0  0  0  0  0  0
  186.1570  177.9530  145.8630 C   0  0  1  0  0  0  0  0  0  0  0  0
  182.0010  178.2070  143.5140 N   0  0  0  0  0  0  0  0  0  0  0  0
  184.5830  178.8360  140.9200 C   0  0  0  0  0  2  0  0  0  0  0  0
  185.5400  178.7190  143.1940 N   0  0  0  0  0  0  0  0  0  0  0  0
  183.1170  179.1350  143.7730 C   0  0  1  0  0  3  0  0  0  0  0  0
  185.6570  179.3760  146.0110 C   0  0  0  0  0  2  0  0  0  0  0  0
  186.3760  177.3200  147.0880 O   0  0  0  0  0  1  0  0  0  0  0  0
  185.3650  179.5650  142.0130 C   0  0  0  0  0  2  0  0  0  0  0  0
  183.3210  178.1370  141.4450 C   0  0  2  0  0  3  0  0  0  0  0  0
  186.8220  178.1360  143.4500 C   0  0  0  0  0  0  0  0  0  0  0  0
  180.7910  178.8640  143.9740 C   0  0  0  0  0  1  0  0  0  0  0  0
  184.3940  178.3180  144.0370 C   0  0  2  0  0  3  0  0  0  0  0  0
  187.1460  177.7390  144.7510 C   0  0  0  0  0  0  0  0  0  0  0  0
  192.0460  178.0210  143.2040 Cl  0  0  0  0  0  0  0  0  0  0  0  0
  189.4190  176.9500  140.2710 C   0  0  0  0  0  3  0  0  0  0  0  0
  190.2790  176.7750  139.1850 C   0  0  0  0  0  3  0  0  0  0  0  0
  192.1650  177.3210  140.5940 C   0  0  0  0  0  3  0  0  0  0  0  0
  191.3130  177.4960  141.6910 C   0  0  0  0  0  0  0  0  0  0  0  0
  189.9180  177.3030  141.5360 C   0  0  0  0  0  0  0  0  0  0  0  0
  191.6520  176.9580  139.3480 C   0  0  0  0  0  3  0  0  0  0  0  0
  182.4330  177.7210  140.2840 C   0  0  0  0  0  2  0  0  0  0  0  0
  180.1500  178.7140  140.3600 O   0  0  0  0  0  1  0  0  0  0  0  0
  181.8440  179.7900  139.2520 O   0  0  0  0  0  0  0  0  0  0  0  0
  181.4700  178.8070  139.9420 C   0  0  0  0  0  0  0  0  0  0  0  0
  1  8  1  1  0  0  0
  1 11  1  0  0  0  0
  2  7  1  0  0  0  0
  2 12  1  6  0  0  0
  3  4  1  0  0  0  0
  5  6  1  0  0  0  0
  5 16  2  0  0  0  0
  6  3  2  0  0  0  0
  7 12  1  0  0  0  0
  7 13  1  1  0  0  0
  8 17  1  0  0  0  0
  9 15  1  0  0  0  0
  9 14  1  0  0  0  0
 10 16  1  0  0  0  0
 11  8  1  1  0  0  0
 11 18  1  0  0  0  0
 14 10  1  0  0  0  0
 15 27  1  6  0  0  0
 15  1  1  0  0  0  0
 16 19  1  0  0  0  0
 18 10  1  6  0  0  0
 18  2  1  0  0  0  0
 19  4  2  0  0  0  0
 19  7  1  0  0  0  0
 21 25  1  0  0  0  0
 22 26  1  0  0  0  0
 22 21  2  0  0  0  0
 23 24  1  0  0  0  0
 24 20  1  0  0  0  0
 25 24  2  0  0  0  0
 25  6  1  0  0  0  0
 26 23  2  0  0  0  0
 29 30  2  0  0  0  0
 30 27  1  0  0  0  0
 30 28  1  0  0  0  0
M  END
>  <MODEL>
6

>  <REMARK>
 VINA RESULT:      -8.1      2.911      6.713
  Name = 
  3 active torsions:
  status: ('A' for Active; 'I' for Inactive)
    1  A    between atoms: C_10  and  C_25
    2  A    between atoms: C_10  and  C_26
    3  A    between atoms: C_11  and  C_22
                            x       y       z     vdW  Elec       q    Type
                         _______ _______ _______ _____ _____    ______ ____

>  <TORSDO>
F 3

$$$$
=
 OpenBabel10222417393D

 30 35  0  0  1  0  0  0  0  0999 V2000
  189.2980  176.9030  145.7860 C   0  0  1  0  0  3  0  0  0  0  0  0
  186.6350  178.4630  143.4210 C   0  0  1  0  0  3  0  0  0  0  0  0
  188.4130  178.1710  138.7130 C   0  0  0  0  0  3  0  0  0  0  0  0
  187.4300  178.6010  139.6040 C   0  0  0  0  0  3  0  0  0  0  0  0
  189.4830  176.9890  140.4860 N   0  0  0  0  0  0  0  0  0  0  0  0
  189.4630  177.3650  139.1770 C   0  0  0  0  0  0  0  0  0  0  0  0
  186.4240  178.6360  141.9230 C   0  0  1  0  0  0  0  0  0  0  0  0
  188.6290  178.1640  146.1390 N   0  0  0  0  0  0  0  0  0  0  0  0
  190.6720  176.1470  143.7820 C   0  0  0  0  0  2  0  0  0  0  0  0
  188.5950  176.9920  142.7460 N   0  0  0  0  0  0  0  0  0  0  0  0
  187.9860  177.2440  145.1840 C   0  0  1  0  0  3  0  0  0  0  0  0
  185.7450  177.4900  142.6470 C   0  0  0  0  0  2  0  0  0  0  0  0
  185.5410  179.6550  141.5630 O   0  0  0  0  0  1  0  0  0  0  0  0
  189.3530  175.7910  143.0960 C   0  0  0  0  0  2  0  0  0  0  0  0
  190.5090  177.1950  144.8940 C   0  0  2  0  0  3  0  0  0  0  0  0
  188.5430  177.4090  141.3770 C   0  0  0  0  0  0  0  0  0  0  0  0
  187.9910  177.9510  147.4250 C   0  0  0  0  0  1  0  0  0  0  0  0
  188.0200  177.8760  143.7810 C   0  0  2  0  0  3  0  0  0  0  0  0
  187.4940  178.2280  140.9500 C   0  0  0  0  0  0  0  0  0  0  0  0
  192.4800  177.4040  140.1800 Cl  0  0  0  0  0  0  0  0  0  0  0  0
  190.1500  176.4870  136.9580 C   0  0  0  0  0  3  0  0  0  0  0  0
  191.1050  176.0150  136.0560 C   0  0  0  0  0  3  0  0  0  0  0  0
  192.8340  176.3680  137.7070 C   0  0  0  0  0  3  0  0  0  0  0  0
  191.8860  176.8400  138.6220 C   0  0  0  0  0  0  0  0  0  0  0  0
  190.5190  176.8980  138.2510 C   0  0  0  0  0  0  0  0  0  0  0  0
  192.4470  175.9530  136.4320 C   0  0  0  0  0  3  0  0  0  0  0  0
  191.7720  177.2600  145.7390 C   0  0  0  0  0  2  0  0  0  0  0  0
  191.6100  176.0530  147.9120 O   0  0  0  0  0  1  0  0  0  0  0  0
  192.3520  174.9640  146.0350 O   0  0  0  0  0  0  0  0  0  0  0  0
  191.9200  176.0230  146.5590 C   0  0  0  0  0  0  0  0  0  0  0  0
  1  8  1  1  0  0  0
  2 12  1  6  0  0  0
  2 18  1  0  0  0  0
  3  6  2  0  0  0  0
  3  4  1  0  0  0  0
  4 19  2  0  0  0  0
  5 16  2  0  0  0  0
  6  5  1  0  0  0  0
  7 13  1  6  0  0  0
  7 12  1  0  0  0  0
  7  2  1  0  0  0  0
  8 17  1  0  0  0  0
  9 15  1  0  0  0  0
 10 14  1  0  0  0  0
 11  1  1  0  0  0  0
 11  8  1  1  0  0  0
 14  9  1  0  0  0  0
 15 27  1  1  0  0  0
 15  1  1  0  0  0  0
 16 10  1  0  0  0  0
 18 10  1  6  0  0  0
 18 11  1  0  0  0  0
 19 16  1  0  0  0  0
 19  7  1  0  0  0  0
 21 25  1  0  0  0  0
 22 26  1  0  0  0  0
 22 21  2  0  0  0  0
 23 24  1  0  0  0  0
 24 20  1  0  0  0  0
 25 24  2  0  0  0  0
 25  6  1  0  0  0  0
 26 23  2  0  0  0  0
 27 30  1  0  0  0  0
 29 30  2  0  0  0  0
 30 28  1  0  0  0  0
M  END
>  <MODEL>
7

>  <REMARK>
 VINA RESULT:      -8.1      3.282      6.031
  Name = 
  3 active torsions:
  status: ('A' for Active; 'I' for Inactive)
    1  A    between atoms: C_10  and  C_25
    2  A    between atoms: C_10  and  C_26
    3  A    between atoms: C_11  and  C_22
                            x       y       z     vdW  Elec       q    Type
                         _______ _______ _______ _____ _____    ______ ____

>  <TORSDO>
F 3

$$$$
=
 OpenBabel10222417393D

 30 35  0  0  1  0  0  0  0  0999 V2000
  182.1040  178.6030  140.0630 C   0  0  1  0  0  3  0  0  0  0  0  0
  183.0950  178.6410  143.8220 C   0  0  1  0  0  3  0  0  0  0  0  0
  188.0380  177.6940  144.1100 C   0  0  0  0  0  3  0  0  0  0  0  0
  186.8150  177.9120  144.7440 C   0  0  0  0  0  3  0  0  0  0  0  0
  187.0200  178.1810  142.0100 N   0  0  0  0  0  0  0  0  0  0  0  0
  188.1260  177.8170  142.7160 C   0  0  0  0  0  0  0  0  0  0  0  0
  184.3680  178.5410  144.6520 C   0  0  1  0  0  0  0  0  0  0  0  0
  181.2660  177.9300  141.0660 N   0  0  0  0  0  0  0  0  0  0  0  0
  184.5500  178.3920  139.3940 C   0  0  0  0  0  2  0  0  0  0  0  0
  184.6710  178.7700  141.8320 N   0  0  0  0  0  0  0  0  0  0  0  0
  182.1790  179.0060  141.4890 C   0  0  1  0  0  3  0  0  0  0  0  0
  183.7820  179.9050  144.3430 C   0  0  0  0  0  2  0  0  0  0  0  0
  184.1820  178.1530  145.9800 O   0  0  0  0  0  1  0  0  0  0  0  0
  184.8730  179.3780  140.5170 C   0  0  0  0  0  2  0  0  0  0  0  0
  183.2180  177.6570  139.6030 C   0  0  2  0  0  3  0  0  0  0  0  0
  185.8130  178.3850  142.6060 C   0  0  0  0  0  0  0  0  0  0  0  0
  179.9420  178.5160  140.9630 C   0  0  0  0  0  1  0  0  0  0  0  0
  183.3250  178.3930  142.3130 C   0  0  2  0  0  3  0  0  0  0  0  0
  185.6880  178.2520  143.9920 C   0  0  0  0  0  0  0  0  0  0  0  0
  190.8240  178.4370  144.2800 Cl  0  0  0  0  0  0  0  0  0  0  0  0
  189.3900  177.1380  140.6890 C   0  0  0  0  0  3  0  0  0  0  0  0
  190.5750  176.8830  139.9970 C   0  0  0  0  0  3  0  0  0  0  0  0
  191.8480  177.5410  141.9440 C   0  0  0  0  0  3  0  0  0  0  0  0
  190.6660  177.7970  142.6490 C   0  0  0  0  0  0  0  0  0  0  0  0
  189.4130  177.5880  142.0200 C   0  0  0  0  0  0  0  0  0  0  0  0
  191.8040  177.0830  140.6260 C   0  0  0  0  0  3  0  0  0  0  0  0
  182.8030  176.9530  138.3210 C   0  0  0  0  0  2  0  0  0  0  0  0
  181.3170  175.1140  139.1040 O   0  0  0  0  0  1  0  0  0  0  0  0
  183.4300  174.6500  138.3420 O   0  0  0  0  0  0  0  0  0  0  0  0
  182.5390  175.5070  138.5760 C   0  0  0  0  0  0  0  0  0  0  0  0
  1  8  1  1  0  0  0
  1 11  1  0  0  0  0
  2 12  1  6  0  0  0
  2  7  1  0  0  0  0
  3  4  1  0  0  0  0
  5 16  2  0  0  0  0
  5  6  1  0  0  0  0
  6  3  2  0  0  0  0
  7 13  1  1  0  0  0
  9 15  1  0  0  0  0
  9 14  1  0  0  0  0
 10 16  1  0  0  0  0
 11  8  1  1  0  0  0
 11 18  1  0  0  0  0
 12  7  1  0  0  0  0
 14 10  1  0  0  0  0
 15 27  1  6  0  0  0
 15  1  1  0  0  0  0
 16 19  1  0  0  0  0
 17  8  1  0  0  0  0
 18 10  1  6  0  0  0
 18  2  1  0  0  0  0
 19  7  1  0  0  0  0
 19  4  2  0  0  0  0
 21 25  1  0  0  0  0
 22 26  1  0  0  0  0
 22 21  2  0  0  0  0
 23 24  1  0  0  0  0
 24 20  1  0  0  0  0
 25 24  2  0  0  0  0
 25  6  1  0  0  0  0
 26 23  2  0  0  0  0
 27 30  1  0  0  0  0
 29 30  2  0  0  0  0
 30 28  1  0  0  0  0
M  END
>  <MODEL>
8

>  <REMARK>
 VINA RESULT:      -8.1      2.874      6.949
  Name = 
  3 active torsions:
  status: ('A' for Active; 'I' for Inactive)
    1  A    between atoms: C_10  and  C_25
    2  A    between atoms: C_10  and  C_26
    3  A    between atoms: C_11  and  C_22
                            x       y       z     vdW  Elec       q    Type
                         _______ _______ _______ _____ _____    ______ ____

>  <TORSDO>
F 3

$$$$
=
 OpenBabel10222417393D

 30 35  0  0  1  0  0  0  0  0999 V2000
  182.2690  177.9490  137.1750 C   0  0  1  0  0  3  0  0  0  0  0  0
  180.1860  178.9530  140.3000 C   0  0  1  0  0  3  0  0  0  0  0  0
  183.1990  178.5940  144.3260 C   0  0  0  0  0  3  0  0  0  0  0  0
  181.9350  178.8300  143.7850 C   0  0  0  0  0  3  0  0  0  0  0  0
  184.1040  178.4790  142.1230 N   0  0  0  0  0  0  0  0  0  0  0  0
  184.2920  178.3990  143.4700 C   0  0  0  0  0  0  0  0  0  0  0  0
  180.4240  179.1740  141.7880 C   0  0  1  0  0  0  0  0  0  0  0  0
  180.8990  177.4460  137.3560 N   0  0  0  0  0  0  0  0  0  0  0  0
  184.3810  177.8330  138.5890 C   0  0  0  0  0  2  0  0  0  0  0  0
  182.7170  178.7740  140.1520 N   0  0  0  0  0  0  0  0  0  0  0  0
  181.3180  178.6760  138.0510 C   0  0  1  0  0  3  0  0  0  0  0  0
  180.4000  180.3650  140.8490 C   0  0  0  0  0  2  0  0  0  0  0  0
  179.2850  179.0880  142.5900 O   0  0  0  0  0  1  0  0  0  0  0  0
  183.8800  179.0790  139.3200 C   0  0  0  0  0  2  0  0  0  0  0  0
  183.2540  177.0380  137.9130 C   0  0  2  0  0  3  0  0  0  0  0  0
  182.8770  178.6940  141.5730 C   0  0  0  0  0  0  0  0  0  0  0  0
  180.1460  177.8590  136.1850 C   0  0  0  0  0  1  0  0  0  0  0  0
  181.4200  178.3870  139.5590 C   0  0  2  0  0  3  0  0  0  0  0  0
  181.7640  178.8730  142.3990 C   0  0  0  0  0  0  0  0  0  0  0  0
  184.6940  178.5440  146.6200 Cl  0  0  0  0  0  0  0  0  0  0  0  0
  186.6970  177.8820  143.1280 C   0  0  0  0  0  3  0  0  0  0  0  0
  187.9830  177.6110  143.5980 C   0  0  0  0  0  3  0  0  0  0  0  0
  187.2050  177.8770  145.8700 C   0  0  0  0  0  3  0  0  0  0  0  0
  185.9100  178.1460  145.4120 C   0  0  0  0  0  0  0  0  0  0  0  0
  185.6430  178.1450  144.0200 C   0  0  0  0  0  0  0  0  0  0  0  0
  188.2360  177.6060  144.9700 C   0  0  0  0  0  3  0  0  0  0  0  0
  183.8410  176.0190  136.9480 C   0  0  0  0  0  2  0  0  0  0  0  0
  182.2780  174.1770  137.5590 O   0  0  0  0  0  0  0  0  0  0  0  0
  184.5440  173.8820  137.7460 O   0  0  0  0  0  1  0  0  0  0  0  0
  183.5840  174.6310  137.4300 C   0  0  0  0  0  0  0  0  0  0  0  0
  1  8  1  6  0  0  0
  1 15  1  0  0  0  0
  1 11  1  0  0  0  0
  2 12  1  6  0  0  0
  2  7  1  0  0  0  0
  4  3  1  0  0  0  0
  5  6  1  0  0  0  0
  6 25  1  0  0  0  0
  6  3  2  0  0  0  0
  7 19  1  0  0  0  0
  7 13  1  1  0  0  0
  9 14  1  0  0  0  0
 10 16  1  0  0  0  0
 11  8  1  6  0  0  0
 11 18  1  0  0  0  0
 12  7  1  0  0  0  0
 14 10  1  0  0  0  0
 15 27  1  6  0  0  0
 15  9  1  0  0  0  0
 16  5  2  0  0  0  0
 16 19  1  0  0  0  0
 17  8  1  0  0  0  0
 18 10  1  1  0  0  0
 18  2  1  0  0  0  0
 19  4  2  0  0  0  0
 21 22  2  0  0  0  0
 21 25  1  0  0  0  0
 22 26  1  0  0  0  0
 24 23  1  0  0  0  0
 24 20  1  0  0  0  0
 25 24  2  0  0  0  0
 26 23  2  0  0  0  0
 27 30  1  0  0  0  0
 30 28  2  0  0  0  0
 30 29  1  0  0  0  0
M  END
>  <MODEL>
9

>  <REMARK>
 VINA RESULT:      -8.1      3.530      7.760
  Name = 
  3 active torsions:
  status: ('A' for Active; 'I' for Inactive)
    1  A    between atoms: C_10  and  C_25
    2  A    between atoms: C_10  and  C_26
    3  A    between atoms: C_11  and  C_22
                            x       y       z     vdW  Elec       q    Type
                         _______ _______ _______ _____ _____    ______ ____

>  <TORSDO>
F 3

$$$$
