=
 OpenBabel10222415223D

 60 66  0  0  1  0  0  0  0  0999 V2000
  185.7200  178.7350  141.6920 C   0  0  0  0  0  0  0  0  0  0  0  0
  182.9020  178.7670  141.8290 C   0  0  0  0  0  0  0  0  0  0  0  0
  183.5630  178.7330  140.5910 C   0  0  0  0  0  3  0  0  0  0  0  0
  183.6730  178.7680  143.0150 C   0  0  0  0  0  0  0  0  0  0  0  0
  184.9580  178.7060  140.5220 C   0  0  0  0  0  3  0  0  0  0  0  0
  183.0620  178.8450  144.3740 C   0  0  0  0  0  1  0  0  0  0  0  0
  185.0730  178.7640  142.9370 C   0  0  0  0  0  3  0  0  0  0  0  0
  181.4250  178.8490  141.8200 C   0  0  0  0  0  0  0  0  0  0  0  0
  180.8230  179.2610  142.8510 O   0  0  0  0  0  0  0  0  0  0  0  0
  180.6240  178.4860  140.6110 C   0  0  0  0  0  2  0  0  0  0  0  0
  180.2890  175.1540  137.9400 C   0  0  0  0  0  3  0  0  0  0  0  0
  180.9430  173.9350  137.7710 C   0  0  0  0  0  3  0  0  0  0  0  0
  182.6170  175.0230  136.4140 C   0  0  0  0  0  3  0  0  0  0  0  0
  180.1200  180.2990  135.6290 C   0  0  0  0  0  2  0  0  0  0  0  0
  179.9660  181.4120  136.5610 N   0  0  0  0  0  0  0  0  0  0  0  0
  180.2490  177.4670  137.8070 C   0  0  0  0  0  2  0  0  0  0  0  0
  180.9590  179.1970  136.1960 C   0  0  0  0  0  0  0  0  0  0  0  0
  182.3520  177.1980  135.6650 C   0  0  0  0  0  2  0  0  0  0  0  0
  181.9520  176.2470  136.5290 C   0  0  0  0  0  0  0  0  0  0  0  0
  181.6910  178.4790  135.3520 C   0  0  0  0  0  3  0  0  0  0  0  0
  180.2200  179.7230  139.8750 C   0  0  0  0  0  3  0  0  0  0  0  0
  180.8020  176.3290  137.3770 C   0  0  0  0  0  0  0  0  0  0  0  0
  179.5100  182.1150  138.7420 O   0  0  0  0  0  0  0  0  0  0  0  0
  180.2870  179.8780  138.5440 C   0  0  0  0  0  0  0  0  0  0  0  0
  182.1330  173.8680  137.0390 C   0  0  0  0  0  0  0  0  0  0  0  0
  179.8920  181.1850  137.9760 C   0  0  0  0  0  0  0  0  0  0  0  0
  180.8760  178.8130  137.6400 C   0  0  1  0  0  3  0  0  0  0  0  0
  184.0880  172.5460  136.2620 O   0  0  0  0  0  0  0  0  0  0  0  0
  182.8580  172.5940  136.9120 C   0  0  0  0  0  0  0  0  0  0  0  0
  182.3550  171.5300  137.3560 O   0  0  0  0  0  1  0  0  0  0  0  0
  179.5790  182.7010  136.0070 C   0  0  0  0  0  2  0  0  0  0  0  0
  180.7600  183.3280  135.2960 C   0  0  0  0  0  2  0  0  0  0  0  0
  180.8540  184.8010  135.6390 C   0  0  0  0  0  2  0  0  0  0  0  0
  180.2500  185.3400  137.8740 O   0  0  0  0  0  1  0  0  0  0  0  0
  181.1500  184.9580  137.0860 C   0  0  0  0  0  0  0  0  0  0  0  0
  182.3950  184.5940  137.5870 O   0  0  0  0  0  0  0  0  0  0  0  0
  187.1460  178.7780  141.5910 N   0  0  0  0  0  2  0  0  0  0  0  0
  187.9830  177.5850  141.5020 C   0  0  0  0  0  2  0  0  0  0  0  0
  188.7030  177.6040  140.2330 N   0  0  0  0  0  0  0  0  0  0  0  0
  188.6890  178.8950  139.8070 O   0  0  0  0  0  1  0  0  0  0  0  0
  191.1210  177.6090  139.3310 C   0  0  0  0  0  2  0  0  0  0  0  0
  190.5710  176.1910  139.2740 C   0  0  1  0  0  3  0  0  0  0  0  0
  190.1100  177.1550  140.3780 C   0  0  2  0  0  0  0  0  0  0  0  0
  190.3000  175.4540  136.9150 C   0  0  0  0  0  2  0  0  0  0  0  0
  189.6080  176.1020  138.0980 C   0  0  2  0  0  3  0  0  0  0  0  0
  190.1270  176.9670  136.9590 C   0  0  2  0  0  3  0  0  0  0  0  0
  189.0980  177.7900  134.9380 O   0  0  0  0  0  0  0  0  0  0  0  0
  187.7010  177.4860  136.7260 O   0  0  0  0  0  1  0  0  0  0  0  0
  188.9580  177.4270  136.1390 C   0  0  0  0  0  0  0  0  0  0  0  0
  190.6600  176.7600  141.7500 C   0  0  0  0  0  2  0  0  0  0  0  0
  190.9830  178.0050  142.5580 C   0  0  0  0  0  2  0  0  0  0  0  0
  192.0410  177.7550  143.4320 O   0  0  0  0  0  0  0  0  0  0  0  0
  191.4890  177.9190  144.7050 C   0  0  0  0  0  2  0  0  0  0  0  0
  189.6820  176.8540  146.1320 C   0  0  1  0  0  3  0  0  0  0  0  0
  190.1170  177.4160  147.4970 C   0  0  0  0  0  2  0  0  0  0  0  0
  191.9360  175.7330  145.8470 C   0  0  0  0  0  2  0  0  0  0  0  0
  188.6860  177.7200  145.5240 N   0  0  0  0  0  1  0  0  0  0  0  0
  190.8640  176.6110  145.1820 C   0  0  2  0  0  3  0  0  0  0  0  0
  191.9020  175.8150  147.3770 C   0  0  0  0  0  2  0  0  0  0  0  0
  191.5300  177.1610  147.8060 N   0  0  0  0  0  2  0  0  0  0  0  0
  1  7  1  0  0  0  0
  2  4  1  0  0  0  0
  3  2  2  0  0  0  0
  4  6  1  0  0  0  0
  5  3  1  0  0  0  0
  5  1  2  0  0  0  0
  7  4  2  0  0  0  0
  8  2  1  0  0  0  0
  8  9  2  0  0  0  0
 10  8  1  0  0  0  0
 12 11  1  0  0  0  0
 13 19  2  0  0  0  0
 13 25  1  0  0  0  0
 14 17  1  0  0  0  0
 14 15  1  0  0  0  0
 15 26  1  0  0  0  0
 17 27  1  0  0  0  0
 18 19  1  0  0  0  0
 19 22  1  0  0  0  0
 20 18  1  0  0  0  0
 20 17  2  0  0  0  0
 21 10  1  0  0  0  0
 22 16  1  0  0  0  0
 22 11  2  0  0  0  0
 24 21  2  0  0  0  0
 25 12  2  0  0  0  0
 26 24  1  0  0  0  0
 26 23  2  0  0  0  0
 27 16  1  6  0  0  0
 27 24  1  0  0  0  0
 28 29  2  0  0  0  0
 29 25  1  0  0  0  0
 29 30  1  0  0  0  0
 31 15  1  0  0  0  0
 32 33  1  0  0  0  0
 32 31  1  0  0  0  0
 33 35  1  0  0  0  0
 35 36  2  0  0  0  0
 35 34  1  0  0  0  0
 37  1  1  0  0  0  0
 38 37  1  0  0  0  0
 39 43  1  0  0  0  0
 39 38  1  0  0  0  0
 40 39  1  0  0  0  0
 41 43  1  0  0  0  0
 42 41  1  6  0  0  0
 42 43  1  0  0  0  0
 43 50  1  1  0  0  0
 44 46  1  0  0  0  0
 45 44  1  6  0  0  0
 45 42  1  0  0  0  0
 46 49  1  6  0  0  0
 46 45  1  0  0  0  0
 47 49  2  0  0  0  0
 49 48  1  0  0  0  0
 50 51  1  0  0  0  0
 51 52  1  0  0  0  0
 52 53  1  0  0  0  0
 54 57  1  6  0  0  0
 54 55  1  0  0  0  0
 55 60  1  0  0  0  0
 56 59  1  0  0  0  0
 58 53  1  1  0  0  0
 58 56  1  0  0  0  0
 58 54  1  0  0  0  0
 59 60  1  0  0  0  0
M  END
>  <MODEL>
1

>  <REMARK>
 VINA RESULT:      -8.3      0.000      0.000
  Name = 
  19 active torsions:
  status: ('A' for Active; 'I' for Inactive)
    1  A    between atoms: C_1  and  C_6
    2  A    between atoms: C_1  and  C_28
    3  A    between atoms: C_2  and  N_29
    4  A    between atoms: C_2  and  C_60
    5  A    between atoms: C_3  and  C_24
    6  A    between atoms: C_3  and  O_59
    7  A    between atoms: C_4  and  N_12
    8  A    between atoms: N_8  and  C_42
    9  A    between atoms: N_8  and  C_58
   10  A    between atoms: N_12  and  C_42
   11  A    between atoms: C_17  and  C_50
   12  A    between atoms: C_27  and  C_49
   13  A    between atoms: C_28  and  C_39
   14  A    between atoms: C_38  and  C_47
   15  A    between atoms: C_45  and  C_57
   16  A    between atoms: C_45  and  O_59
   17  A    between atoms: C_49  and  C_60
   18  A    between atoms: C_52  and  C_56
   19  A    between atoms: C_57  and  C_58
                            x       y       z     vdW  Elec       q    Type
                         _______ _______ _______ _____ _____    ______ ____

>  <TORSDO>
F 19

$$$$
=
 OpenBabel10222415223D

 60 66  0  0  1  0  0  0  0  0999 V2000
  189.9730  176.9410  141.1150 C   0  0  0  0  0  0  0  0  0  0  0  0
  189.3120  178.0480  138.6050 C   0  0  0  0  0  0  0  0  0  0  0  0
  190.6320  177.6790  138.9050 C   0  0  0  0  0  3  0  0  0  0  0  0
  188.3070  177.8400  139.5800 C   0  0  0  0  0  0  0  0  0  0  0  0
  190.9590  177.1200  140.1420 C   0  0  0  0  0  3  0  0  0  0  0  0
  186.8850  178.2400  139.3690 C   0  0  0  0  0  1  0  0  0  0  0  0
  188.6480  177.3020  140.8280 C   0  0  0  0  0  3  0  0  0  0  0  0
  189.0530  178.6820  137.2940 C   0  0  0  0  0  0  0  0  0  0  0  0
  189.0820  179.9410  137.2000 O   0  0  0  0  0  0  0  0  0  0  0  0
  188.7890  177.8700  136.0670 C   0  0  0  0  0  2  0  0  0  0  0  0
  185.3010  175.5000  135.3080 C   0  0  0  0  0  3  0  0  0  0  0  0
  184.0220  175.3970  135.8510 C   0  0  0  0  0  3  0  0  0  0  0  0
  184.8560  173.8700  137.5250 C   0  0  0  0  0  3  0  0  0  0  0  0
  190.2500  172.7900  135.4200 C   0  0  0  0  0  2  0  0  0  0  0  0
  191.4400  173.6340  135.4110 N   0  0  0  0  0  0  0  0  0  0  0  0
  187.5930  175.1810  135.4470 C   0  0  0  0  0  2  0  0  0  0  0  0
  189.1270  173.4000  136.1990 C   0  0  0  0  0  0  0  0  0  0  0  0
  186.9820  172.9620  137.3920 C   0  0  0  0  0  2  0  0  0  0  0  0
  186.1380  173.9200  136.9680 C   0  0  0  0  0  0  0  0  0  0  0  0
  188.2870  172.5810  136.8200 C   0  0  0  0  0  3  0  0  0  0  0  0
  189.9950  177.0580  135.7210 C   0  0  0  0  0  3  0  0  0  0  0  0
  186.3830  174.8180  135.8800 C   0  0  0  0  0  0  0  0  0  0  0  0
  192.3450  175.7720  135.1410 O   0  0  0  0  0  0  0  0  0  0  0  0
  190.0420  175.7170  135.7230 C   0  0  0  0  0  0  0  0  0  0  0  0
  183.7980  174.6120  136.9860 C   0  0  0  0  0  0  0  0  0  0  0  0
  191.3290  175.0660  135.4010 C   0  0  0  0  0  0  0  0  0  0  0  0
  188.8630  174.8730  136.1690 C   0  0  1  0  0  3  0  0  0  0  0  0
  182.0750  175.4990  138.5420 O   0  0  0  0  0  1  0  0  0  0  0  0
  182.4620  174.5520  137.5980 C   0  0  0  0  0  0  0  0  0  0  0  0
  181.6690  173.6200  137.3020 O   0  0  0  0  0  0  0  0  0  0  0  0
  192.7120  172.9990  135.0970 C   0  0  0  0  0  2  0  0  0  0  0  0
  193.3640  172.5050  136.3710 C   0  0  0  0  0  2  0  0  0  0  0  0
  194.7860  173.0210  136.4630 C   0  0  0  0  0  2  0  0  0  0  0  0
  193.8260  174.6150  137.9440 O   0  0  0  0  0  1  0  0  0  0  0  0
  194.8020  174.3000  137.2190 C   0  0  0  0  0  0  0  0  0  0  0  0
  195.9330  175.1080  137.1980 O   0  0  0  0  0  0  0  0  0  0  0  0
  190.3480  176.4340  142.3990 N   0  0  0  0  0  2  0  0  0  0  0  0
  191.4140  177.0110  143.2130 C   0  0  0  0  0  2  0  0  0  0  0  0
  190.8190  177.8570  144.2420 N   0  0  0  0  0  0  0  0  0  0  0  0
  190.3860  178.9790  143.6080 O   0  0  0  0  0  1  0  0  0  0  0  0
  189.1910  177.7700  146.2430 C   0  0  0  0  0  2  0  0  0  0  0  0
  190.0310  176.5010  146.2280 C   0  0  1  0  0  3  0  0  0  0  0  0
  189.6670  177.2020  144.9110 C   0  0  2  0  0  0  0  0  0  0  0  0
  192.3280  175.6360  146.6180 C   0  0  0  0  0  2  0  0  0  0  0  0
  191.4220  176.8460  146.7410 C   0  0  2  0  0  3  0  0  0  0  0  0
  191.7260  176.0020  147.9690 C   0  0  2  0  0  3  0  0  0  0  0  0
  192.4560  177.9320  149.2210 O   0  0  0  0  0  1  0  0  0  0  0  0
  193.8910  176.1480  149.1960 O   0  0  0  0  0  0  0  0  0  0  0  0
  192.6930  176.7530  148.8360 C   0  0  0  0  0  0  0  0  0  0  0  0
  188.6510  176.3980  144.0950 C   0  0  0  0  0  2  0  0  0  0  0  0
  187.2430  176.8780  144.4020 C   0  0  0  0  0  2  0  0  0  0  0  0
  186.9380  178.0050  143.6400 O   0  0  0  0  0  0  0  0  0  0  0  0
  185.5740  177.8810  143.3640 C   0  0  0  0  0  2  0  0  0  0  0  0
  183.6980  179.5250  143.8260 C   0  0  1  0  0  3  0  0  0  0  0  0
  182.5150  178.6390  143.3940 C   0  0  0  0  0  2  0  0  0  0  0  0
  184.7150  179.3370  141.5130 C   0  0  0  0  0  2  0  0  0  0  0  0
  183.9310  179.3960  145.2540 N   0  0  0  0  0  1  0  0  0  0  0  0
  184.9780  179.2440  143.0240 C   0  0  2  0  0  3  0  0  0  0  0  0
  183.2490  179.0780  141.1500 C   0  0  0  0  0  2  0  0  0  0  0  0
  182.6720  178.0780  142.0460 N   0  0  0  0  0  2  0  0  0  0  0  0
  1 37  1  0  0  0  0
  2  3  2  0  0  0  0
  2  4  1  0  0  0  0
  3  5  1  0  0  0  0
  4  7  2  0  0  0  0
  5  1  2  0  0  0  0
  6  4  1  0  0  0  0
  7  1  1  0  0  0  0
  8  2  1  0  0  0  0
  9  8  2  0  0  0  0
 10  8  1  0  0  0  0
 11 12  2  0  0  0  0
 11 22  1  0  0  0  0
 12 25  1  0  0  0  0
 14 17  1  0  0  0  0
 15 14  1  0  0  0  0
 16 22  1  0  0  0  0
 17 20  2  0  0  0  0
 19 18  1  0  0  0  0
 19 13  1  0  0  0  0
 20 18  1  0  0  0  0
 21 24  2  0  0  0  0
 21 10  1  0  0  0  0
 22 19  2  0  0  0  0
 23 26  2  0  0  0  0
 24 27  1  0  0  0  0
 25 13  2  0  0  0  0
 25 29  1  0  0  0  0
 26 15  1  0  0  0  0
 26 24  1  0  0  0  0
 27 16  1  6  0  0  0
 27 17  1  0  0  0  0
 29 28  1  0  0  0  0
 30 29  2  0  0  0  0
 31 15  1  0  0  0  0
 31 32  1  0  0  0  0
 32 33  1  0  0  0  0
 33 35  1  0  0  0  0
 35 34  1  0  0  0  0
 36 35  2  0  0  0  0
 37 38  1  0  0  0  0
 38 39  1  0  0  0  0
 39 43  1  0  0  0  0
 40 39  1  0  0  0  0
 42 41  1  1  0  0  0
 42 45  1  0  0  0  0
 43 50  1  6  0  0  0
 43 42  1  0  0  0  0
 43 41  1  0  0  0  0
 44 46  1  0  0  0  0
 45 44  1  6  0  0  0
 45 46  1  0  0  0  0
 46 49  1  1  0  0  0
 49 48  2  0  0  0  0
 49 47  1  0  0  0  0
 50 51  1  0  0  0  0
 52 51  1  0  0  0  0
 53 52  1  0  0  0  0
 54 57  1  1  0  0  0
 55 54  1  0  0  0  0
 56 58  1  0  0  0  0
 58 53  1  6  0  0  0
 58 54  1  0  0  0  0
 59 56  1  0  0  0  0
 59 60  1  0  0  0  0
 60 55  1  0  0  0  0
M  END
>  <MODEL>
2

>  <REMARK>
 VINA RESULT:      -6.8      3.784      9.543
  Name = 
  19 active torsions:
  status: ('A' for Active; 'I' for Inactive)
    1  A    between atoms: C_1  and  C_6
    2  A    between atoms: C_1  and  C_28
    3  A    between atoms: C_2  and  N_29
    4  A    between atoms: C_2  and  C_60
    5  A    between atoms: C_3  and  C_24
    6  A    between atoms: C_3  and  O_59
    7  A    between atoms: C_4  and  N_12
    8  A    between atoms: N_8  and  C_42
    9  A    between atoms: N_8  and  C_58
   10  A    between atoms: N_12  and  C_42
   11  A    between atoms: C_17  and  C_50
   12  A    between atoms: C_27  and  C_49
   13  A    between atoms: C_28  and  C_39
   14  A    between atoms: C_38  and  C_47
   15  A    between atoms: C_45  and  C_57
   16  A    between atoms: C_45  and  O_59
   17  A    between atoms: C_49  and  C_60
   18  A    between atoms: C_52  and  C_56
   19  A    between atoms: C_57  and  C_58
                            x       y       z     vdW  Elec       q    Type
                         _______ _______ _______ _____ _____    ______ ____

>  <TORSDO>
F 19

$$$$
=
 OpenBabel10222415223D

 60 66  0  0  1  0  0  0  0  0999 V2000
  190.3740  177.2960  140.1230 C   0  0  0  0  0  0  0  0  0  0  0  0
  188.4880  177.6170  138.0490 C   0  0  0  0  0  0  0  0  0  0  0  0
  188.3990  178.3740  139.2280 C   0  0  0  0  0  3  0  0  0  0  0  0
  189.5540  176.6960  137.9070 C   0  0  0  0  0  0  0  0  0  0  0  0
  189.3390  178.2240  140.2500 C   0  0  0  0  0  3  0  0  0  0  0  0
  189.7060  175.8190  136.7100 C   0  0  0  0  0  1  0  0  0  0  0  0
  190.4780  176.5350  138.9480 C   0  0  0  0  0  3  0  0  0  0  0  0
  187.4260  177.7920  137.0340 C   0  0  0  0  0  0  0  0  0  0  0  0
  187.6840  178.4280  135.9740 O   0  0  0  0  0  0  0  0  0  0  0  0
  186.0620  177.2080  137.2150 C   0  0  0  0  0  2  0  0  0  0  0  0
  184.2870  173.3360  137.6730 C   0  0  0  0  0  3  0  0  0  0  0  0
  184.2850  172.1430  136.9520 C   0  0  0  0  0  3  0  0  0  0  0  0
  182.4600  172.9650  135.6020 C   0  0  0  0  0  3  0  0  0  0  0  0
  180.9580  177.7930  138.6230 C   0  0  0  0  0  2  0  0  0  0  0  0
  181.6340  179.0830  138.7250 N   0  0  0  0  0  0  0  0  0  0  0  0
  183.6550  175.5510  137.9260 C   0  0  0  0  0  2  0  0  0  0  0  0
  181.6060  176.8920  137.6170 C   0  0  0  0  0  0  0  0  0  0  0  0
  181.3040  174.8920  136.1590 C   0  0  0  0  0  2  0  0  0  0  0  0
  182.4110  174.1500  136.3420 C   0  0  0  0  0  0  0  0  0  0  0  0
  180.8320  176.0340  136.9650 C   0  0  0  0  0  3  0  0  0  0  0  0
  185.1490  178.2210  137.8290 C   0  0  0  0  0  3  0  0  0  0  0  0
  183.4010  174.3720  137.3520 C   0  0  0  0  0  0  0  0  0  0  0  0
  183.6500  180.2500  138.9010 O   0  0  0  0  0  0  0  0  0  0  0  0
  183.8240  178.0670  137.9780 C   0  0  0  0  0  0  0  0  0  0  0  0
  183.3970  171.9640  135.8870 C   0  0  0  0  0  0  0  0  0  0  0  0
  183.0570  179.1860  138.5640 C   0  0  0  0  0  0  0  0  0  0  0  0
  183.0920  176.8490  137.4470 C   0  0  1  0  0  3  0  0  0  0  0  0
  182.2570  170.0560  134.7760 O   0  0  0  0  0  1  0  0  0  0  0  0
  183.4350  170.7320  135.0850 C   0  0  0  0  0  0  0  0  0  0  0  0
  184.5340  170.2540  134.7040 O   0  0  0  0  0  0  0  0  0  0  0  0
  180.8820  180.1890  139.3000 C   0  0  0  0  0  2  0  0  0  0  0  0
  179.9700  180.7860  138.2490 C   0  0  0  0  0  2  0  0  0  0  0  0
  180.4290  182.1860  137.8920 C   0  0  0  0  0  2  0  0  0  0  0  0
  180.3400  181.3260  135.6770 O   0  0  0  0  0  0  0  0  0  0  0  0
  180.6900  182.2670  136.4320 C   0  0  0  0  0  0  0  0  0  0  0  0
  181.2380  183.4210  135.8840 O   0  0  0  0  0  1  0  0  0  0  0  0
  191.2810  177.1130  141.2140 N   0  0  0  0  0  2  0  0  0  0  0  0
  191.0340  176.1910  142.3190 C   0  0  0  0  0  2  0  0  0  0  0  0
  191.3280  176.8700  143.5770 N   0  0  0  0  0  0  0  0  0  0  0  0
  191.9430  178.0370  143.2440 O   0  0  0  0  0  1  0  0  0  0  0  0
  190.1460  178.3230  145.3530 C   0  0  0  0  0  2  0  0  0  0  0  0
  190.2290  176.8890  145.8570 C   0  0  1  0  0  3  0  0  0  0  0  0
  190.0990  177.1730  144.3530 C   0  0  2  0  0  0  0  0  0  0  0  0
  191.8920  175.1330  146.4310 C   0  0  0  0  0  2  0  0  0  0  0  0
  191.6590  176.6270  146.3080 C   0  0  2  0  0  3  0  0  0  0  0  0
  191.6380  175.9680  147.6800 C   0  0  2  0  0  3  0  0  0  0  0  0
  192.9530  177.2580  149.2380 O   0  0  0  0  0  1  0  0  0  0  0  0
  194.0680  175.6120  148.1020 O   0  0  0  0  0  0  0  0  0  0  0  0
  192.9080  176.3180  148.3960 C   0  0  0  0  0  0  0  0  0  0  0  0
  188.7230  176.7780  143.8110 C   0  0  0  0  0  2  0  0  0  0  0  0
  187.9070  178.0230  143.5110 C   0  0  0  0  0  2  0  0  0  0  0  0
  187.1230  177.8250  142.3740 O   0  0  0  0  0  0  0  0  0  0  0  0
  185.9850  178.6060  142.5950 C   0  0  0  0  0  2  0  0  0  0  0  0
  183.5210  178.2680  143.0930 C   0  0  1  0  0  3  0  0  0  0  0  0
  183.2040  179.6810  143.6150 C   0  0  0  0  0  2  0  0  0  0  0  0
  185.2630  177.9610  144.9070 C   0  0  0  0  0  2  0  0  0  0  0  0
  183.2410  178.1810  141.6700 N   0  0  0  0  0  1  0  0  0  0  0  0
  184.9570  177.8240  143.4070 C   0  0  2  0  0  3  0  0  0  0  0  0
  184.3820  179.0090  145.5970 C   0  0  0  0  0  2  0  0  0  0  0  0
  184.1070  180.1190  144.6870 N   0  0  0  0  0  2  0  0  0  0  0  0
  1  5  1  0  0  0  0
  1 37  1  0  0  0  0
  2  3  1  0  0  0  0
  3  5  2  0  0  0  0
  4  2  2  0  0  0  0
  4  7  1  0  0  0  0
  6  4  1  0  0  0  0
  7  1  2  0  0  0  0
  8 10  1  0  0  0  0
  8  2  1  0  0  0  0
  9  8  2  0  0  0  0
 10 21  1  0  0  0  0
 12 11  2  0  0  0  0
 13 25  2  0  0  0  0
 13 19  1  0  0  0  0
 14 15  1  0  0  0  0
 15 31  1  0  0  0  0
 17 14  1  0  0  0  0
 18 19  1  0  0  0  0
 18 20  1  0  0  0  0
 19 22  2  0  0  0  0
 20 17  2  0  0  0  0
 21 24  2  0  0  0  0
 22 11  1  0  0  0  0
 22 16  1  0  0  0  0
 24 26  1  0  0  0  0
 25 12  1  0  0  0  0
 26 15  1  0  0  0  0
 26 23  2  0  0  0  0
 27 17  1  0  0  0  0
 27 16  1  1  0  0  0
 27 24  1  0  0  0  0
 28 29  1  0  0  0  0
 29 25  1  0  0  0  0
 30 29  2  0  0  0  0
 32 31  1  0  0  0  0
 33 32  1  0  0  0  0
 34 35  2  0  0  0  0
 35 33  1  0  0  0  0
 36 35  1  0  0  0  0
 37 38  1  0  0  0  0
 38 39  1  0  0  0  0
 39 43  1  0  0  0  0
 40 39  1  0  0  0  0
 42 41  1  1  0  0  0
 42 45  1  0  0  0  0
 43 50  1  6  0  0  0
 43 41  1  0  0  0  0
 43 42  1  0  0  0  0
 44 46  1  0  0  0  0
 45 44  1  6  0  0  0
 45 46  1  0  0  0  0
 46 49  1  1  0  0  0
 48 49  2  0  0  0  0
 49 47  1  0  0  0  0
 51 50  1  0  0  0  0
 52 53  1  0  0  0  0
 52 51  1  0  0  0  0
 54 57  1  6  0  0  0
 54 58  1  0  0  0  0
 54 55  1  0  0  0  0
 55 60  1  0  0  0  0
 56 59  1  0  0  0  0
 58 53  1  6  0  0  0
 58 56  1  0  0  0  0
 60 59  1  0  0  0  0
M  END
>  <MODEL>
3

>  <REMARK>
 VINA RESULT:      -6.7      2.269      6.278
  Name = 
  19 active torsions:
  status: ('A' for Active; 'I' for Inactive)
    1  A    between atoms: C_1  and  C_6
    2  A    between atoms: C_1  and  C_28
    3  A    between atoms: C_2  and  N_29
    4  A    between atoms: C_2  and  C_60
    5  A    between atoms: C_3  and  C_24
    6  A    between atoms: C_3  and  O_59
    7  A    between atoms: C_4  and  N_12
    8  A    between atoms: N_8  and  C_42
    9  A    between atoms: N_8  and  C_58
   10  A    between atoms: N_12  and  C_42
   11  A    between atoms: C_17  and  C_50
   12  A    between atoms: C_27  and  C_49
   13  A    between atoms: C_28  and  C_39
   14  A    between atoms: C_38  and  C_47
   15  A    between atoms: C_45  and  C_57
   16  A    between atoms: C_45  and  O_59
   17  A    between atoms: C_49  and  C_60
   18  A    between atoms: C_52  and  C_56
   19  A    between atoms: C_57  and  C_58
                            x       y       z     vdW  Elec       q    Type
                         _______ _______ _______ _____ _____    ______ ____

>  <TORSDO>
F 19

$$$$
=
 OpenBabel10222415223D

 60 66  0  0  1  0  0  0  0  0999 V2000
  186.9710  178.4400  140.2160 C   0  0  0  0  0  0  0  0  0  0  0  0
  189.6500  177.6280  139.8660 C   0  0  0  0  0  0  0  0  0  0  0  0
  189.0170  177.5050  141.1120 C   0  0  0  0  0  3  0  0  0  0  0  0
  188.9170  178.1530  138.7760 C   0  0  0  0  0  0  0  0  0  0  0  0
  187.6870  177.8960  141.2840 C   0  0  0  0  0  3  0  0  0  0  0  0
  189.5170  178.3600  137.4250 C   0  0  0  0  0  1  0  0  0  0  0  0
  187.5900  178.5650  138.9620 C   0  0  0  0  0  3  0  0  0  0  0  0
  191.0760  177.2430  139.7750 C   0  0  0  0  0  0  0  0  0  0  0  0
  191.9070  177.7530  140.5780 O   0  0  0  0  0  0  0  0  0  0  0  0
  191.5560  176.2380  138.7780 C   0  0  0  0  0  2  0  0  0  0  0  0
  194.9960  173.7160  138.3730 C   0  0  0  0  0  3  0  0  0  0  0  0
  196.3700  173.9090  138.2390 C   0  0  0  0  0  3  0  0  0  0  0  0
  196.1010  174.1480  135.8510 C   0  0  0  0  0  3  0  0  0  0  0  0
  190.5050  172.4270  135.2090 C   0  0  0  0  0  2  0  0  0  0  0  0
  189.2660  173.1200  135.5480 N   0  0  0  0  0  0  0  0  0  0  0  0
  192.8420  173.8260  137.5250 C   0  0  0  0  0  2  0  0  0  0  0  0
  191.7090  173.2960  135.3970 C   0  0  0  0  0  0  0  0  0  0  0  0
  194.1040  173.6400  134.7940 C   0  0  0  0  0  2  0  0  0  0  0  0
  194.7270  173.9090  135.9560 C   0  0  0  0  0  0  0  0  0  0  0  0
  192.7480  173.0960  134.5940 C   0  0  0  0  0  3  0  0  0  0  0  0
  190.3910  175.5510  138.1410 C   0  0  0  0  0  3  0  0  0  0  0  0
  194.1500  173.7670  137.2580 C   0  0  0  0  0  0  0  0  0  0  0  0
  188.1120  174.4840  137.0540 O   0  0  0  0  0  0  0  0  0  0  0  0
  190.4810  174.6360  137.1650 C   0  0  0  0  0  0  0  0  0  0  0  0
  196.9270  174.1640  136.9820 C   0  0  0  0  0  0  0  0  0  0  0  0
  189.2260  174.0850  136.6100 C   0  0  0  0  0  0  0  0  0  0  0  0
  191.8090  174.2600  136.5360 C   0  0  1  0  0  3  0  0  0  0  0  0
  198.9730  174.4010  135.5930 O   0  0  0  0  0  0  0  0  0  0  0  0
  198.3670  174.4300  136.8460 C   0  0  0  0  0  0  0  0  0  0  0  0
  199.0720  174.6470  137.8650 O   0  0  0  0  0  1  0  0  0  0  0  0
  188.0270  172.5840  135.0040 C   0  0  0  0  0  2  0  0  0  0  0  0
  187.2970  171.7970  136.0720 C   0  0  0  0  0  2  0  0  0  0  0  0
  185.8690  171.5310  135.6410 C   0  0  0  0  0  2  0  0  0  0  0  0
  183.7630  172.5230  136.1220 O   0  0  0  0  0  0  0  0  0  0  0  0
  184.9370  172.2960  136.5080 C   0  0  0  0  0  0  0  0  0  0  0  0
  185.3290  172.6830  137.7840 O   0  0  0  0  0  1  0  0  0  0  0  0
  185.6340  178.8980  140.4370 N   0  0  0  0  0  2  0  0  0  0  0  0
  185.1270  179.2980  141.7460 C   0  0  0  0  0  2  0  0  0  0  0  0
  183.7500  178.8350  141.8830 N   0  0  0  0  0  0  0  0  0  0  0  0
  183.7670  177.5050  141.6010 O   0  0  0  0  0  1  0  0  0  0  0  0
  182.1420  178.0830  143.7570 C   0  0  0  0  0  2  0  0  0  0  0  0
  181.7570  179.4830  143.3010 C   0  0  1  0  0  3  0  0  0  0  0  0
  183.2250  179.0330  143.2570 C   0  0  2  0  0  0  0  0  0  0  0  0
  179.5630  179.6560  142.1450 C   0  0  0  0  0  2  0  0  0  0  0  0
  181.0410  179.3680  141.9630 C   0  0  2  0  0  3  0  0  0  0  0  0
  180.0490  178.2160  142.0240 C   0  0  2  0  0  3  0  0  0  0  0  0
  180.4070  176.5880  140.2800 O   0  0  0  0  0  1  0  0  0  0  0  0
  179.1080  178.3890  139.7230 O   0  0  0  0  0  0  0  0  0  0  0  0
  179.8650  177.6710  140.6390 C   0  0  0  0  0  0  0  0  0  0  0  0
  184.0740  179.7390  144.3170 C   0  0  0  0  0  2  0  0  0  0  0  0
  184.9480  178.7290  145.0400 C   0  0  0  0  0  2  0  0  0  0  0  0
  185.1020  179.0920  146.3780 O   0  0  0  0  0  0  0  0  0  0  0  0
  186.4740  178.9680  146.6170 C   0  0  0  0  0  2  0  0  0  0  0  0
  188.1100  177.2250  147.4650 C   0  0  1  0  0  3  0  0  0  0  0  0
  189.4040  177.8460  146.9090 C   0  0  0  0  0  2  0  0  0  0  0  0
  187.1500  177.0710  145.1250 C   0  0  0  0  0  2  0  0  0  0  0  0
  187.8820  177.6700  148.8290 N   0  0  0  0  0  1  0  0  0  0  0  0
  186.8870  177.5000  146.5770 C   0  0  2  0  0  3  0  0  0  0  0  0
  188.6410  177.0610  144.7720 C   0  0  0  0  0  2  0  0  0  0  0  0
  189.3360  178.1390  145.4710 N   0  0  0  0  0  2  0  0  0  0  0  0
  1 37  1  0  0  0  0
  1  5  1  0  0  0  0
  2  3  1  0  0  0  0
  3  5  2  0  0  0  0
  4  7  1  0  0  0  0
  4  2  2  0  0  0  0
  6  4  1  0  0  0  0
  7  1  2  0  0  0  0
  8  2  1  0  0  0  0
  8  9  2  0  0  0  0
 10  8  1  0  0  0  0
 12 11  1  0  0  0  0
 13 19  2  0  0  0  0
 13 25  1  0  0  0  0
 14 17  1  0  0  0  0
 14 15  1  0  0  0  0
 15 26  1  0  0  0  0
 17 27  1  0  0  0  0
 18 19  1  0  0  0  0
 19 22  1  0  0  0  0
 20 18  1  0  0  0  0
 20 17  2  0  0  0  0
 21 10  1  0  0  0  0
 22 16  1  0  0  0  0
 22 11  2  0  0  0  0
 24 21  2  0  0  0  0
 25 12  2  0  0  0  0
 26 23  2  0  0  0  0
 26 24  1  0  0  0  0
 27 24  1  0  0  0  0
 27 16  1  1  0  0  0
 28 29  2  0  0  0  0
 29 25  1  0  0  0  0
 29 30  1  0  0  0  0
 31 15  1  0  0  0  0
 31 32  1  0  0  0  0
 33 32  1  0  0  0  0
 33 35  1  0  0  0  0
 34 35  2  0  0  0  0
 35 36  1  0  0  0  0
 37 38  1  0  0  0  0
 38 39  1  0  0  0  0
 39 43  1  0  0  0  0
 40 39  1  0  0  0  0
 42 41  1  1  0  0  0
 43 42  1  0  0  0  0
 43 41  1  0  0  0  0
 43 50  1  1  0  0  0
 45 46  1  0  0  0  0
 45 44  1  1  0  0  0
 45 42  1  0  0  0  0
 46 49  1  6  0  0  0
 46 44  1  0  0  0  0
 47 49  1  0  0  0  0
 48 49  2  0  0  0  0
 50 51  1  0  0  0  0
 51 52  1  0  0  0  0
 52 53  1  0  0  0  0
 54 57  1  1  0  0  0
 55 54  1  0  0  0  0
 56 58  1  0  0  0  0
 58 53  1  6  0  0  0
 58 54  1  0  0  0  0
 59 56  1  0  0  0  0
 59 60  1  0  0  0  0
 60 55  1  0  0  0  0
M  END
>  <MODEL>
4

>  <REMARK>
 VINA RESULT:      -6.5      3.734     10.460
  Name = 
  19 active torsions:
  status: ('A' for Active; 'I' for Inactive)
    1  A    between atoms: C_1  and  C_6
    2  A    between atoms: C_1  and  C_28
    3  A    between atoms: C_2  and  N_29
    4  A    between atoms: C_2  and  C_60
    5  A    between atoms: C_3  and  C_24
    6  A    between atoms: C_3  and  O_59
    7  A    between atoms: C_4  and  N_12
    8  A    between atoms: N_8  and  C_42
    9  A    between atoms: N_8  and  C_58
   10  A    between atoms: N_12  and  C_42
   11  A    between atoms: C_17  and  C_50
   12  A    between atoms: C_27  and  C_49
   13  A    between atoms: C_28  and  C_39
   14  A    between atoms: C_38  and  C_47
   15  A    between atoms: C_45  and  C_57
   16  A    between atoms: C_45  and  O_59
   17  A    between atoms: C_49  and  C_60
   18  A    between atoms: C_52  and  C_56
   19  A    between atoms: C_57  and  C_58
                            x       y       z     vdW  Elec       q    Type
                         _______ _______ _______ _____ _____    ______ ____

>  <TORSDO>
F 19

$$$$
=
 OpenBabel10222415223D

 60 66  0  0  1  0  0  0  0  0999 V2000
  185.8430  178.2640  142.4360 C   0  0  0  0  0  0  0  0  0  0  0  0
  183.0740  178.6580  142.0680 C   0  0  0  0  0  0  0  0  0  0  0  0
  183.9330  178.5130  140.9680 C   0  0  0  0  0  3  0  0  0  0  0  0
  183.6160  178.5870  143.3730 C   0  0  0  0  0  0  0  0  0  0  0  0
  185.3020  178.3060  141.1490 C   0  0  0  0  0  3  0  0  0  0  0  0
  182.7890  178.7720  144.6010 C   0  0  0  0  0  1  0  0  0  0  0  0
  184.9950  178.4040  143.5450 C   0  0  0  0  0  3  0  0  0  0  0  0
  181.6440  178.9270  141.7960 C   0  0  0  0  0  0  0  0  0  0  0  0
  180.9480  179.5130  142.6720 O   0  0  0  0  0  0  0  0  0  0  0  0
  181.0070  178.5520  140.4970 C   0  0  0  0  0  2  0  0  0  0  0  0
  180.4850  175.1910  137.8930 C   0  0  0  0  0  3  0  0  0  0  0  0
  181.1270  173.9710  137.6910 C   0  0  0  0  0  3  0  0  0  0  0  0
  182.6960  175.0450  136.2040 C   0  0  0  0  0  3  0  0  0  0  0  0
  180.1410  180.3100  135.5450 C   0  0  0  0  0  2  0  0  0  0  0  0
  180.0530  181.4330  136.4730 N   0  0  0  0  0  0  0  0  0  0  0  0
  180.4320  177.5020  137.7380 C   0  0  0  0  0  2  0  0  0  0  0  0
  181.0210  179.2150  136.0610 C   0  0  0  0  0  0  0  0  0  0  0  0
  182.3740  177.2110  135.4530 C   0  0  0  0  0  2  0  0  0  0  0  0
  182.0390  176.2700  136.3540 C   0  0  0  0  0  0  0  0  0  0  0  0
  181.6900  178.4880  135.1750 C   0  0  0  0  0  3  0  0  0  0  0  0
  180.5490  179.7810  139.7790 C   0  0  0  0  0  3  0  0  0  0  0  0
  180.9530  176.3600  137.2820 C   0  0  0  0  0  0  0  0  0  0  0  0
  179.7550  182.1600  138.6740 O   0  0  0  0  0  0  0  0  0  0  0  0
  180.5190  179.9220  138.4440 C   0  0  0  0  0  0  0  0  0  0  0  0
  182.2600  173.8960  136.8760 C   0  0  0  0  0  0  0  0  0  0  0  0
  180.0810  181.2220  137.8930 C   0  0  0  0  0  0  0  0  0  0  0  0
  181.0420  178.8470  137.5110 C   0  0  1  0  0  3  0  0  0  0  0  0
  184.1100  172.3470  137.4700 O   0  0  0  0  0  1  0  0  0  0  0  0
  182.9760  172.6220  136.7100 C   0  0  0  0  0  0  0  0  0  0  0  0
  182.5930  171.7850  135.8530 O   0  0  0  0  0  0  0  0  0  0  0  0
  179.6240  182.7160  135.9350 C   0  0  0  0  0  2  0  0  0  0  0  0
  180.7740  183.3710  135.2000 C   0  0  0  0  0  2  0  0  0  0  0  0
  180.8710  184.8350  135.5790 C   0  0  0  0  0  2  0  0  0  0  0  0
  180.2960  185.4040  137.8150 O   0  0  0  0  0  1  0  0  0  0  0  0
  181.1680  184.9550  137.0300 C   0  0  0  0  0  0  0  0  0  0  0  0
  182.3740  184.4860  137.5360 O   0  0  0  0  0  0  0  0  0  0  0  0
  187.2580  178.1230  142.5910 N   0  0  0  0  0  2  0  0  0  0  0  0
  188.1880  178.0550  141.4680 C   0  0  0  0  0  2  0  0  0  0  0  0
  189.5290  178.3800  141.9420 N   0  0  0  0  0  0  0  0  0  0  0  0
  189.3960  178.7260  143.2510 O   0  0  0  0  0  1  0  0  0  0  0  0
  190.1100  175.9520  142.5970 C   0  0  0  0  0  2  0  0  0  0  0  0
  191.1760  176.8870  143.1500 C   0  0  1  0  0  3  0  0  0  0  0  0
  190.4570  177.2270  141.8360 C   0  0  2  0  0  0  0  0  0  0  0  0
  191.5810  177.5240  145.5190 C   0  0  0  0  0  2  0  0  0  0  0  0
  190.6000  177.6000  144.3650 C   0  0  2  0  0  3  0  0  0  0  0  0
  190.3780  176.5890  145.4800 C   0  0  2  0  0  3  0  0  0  0  0  0
  188.1480  177.4310  145.8560 O   0  0  0  0  0  0  0  0  0  0  0  0
  189.4500  177.1650  147.7210 O   0  0  0  0  0  1  0  0  0  0  0  0
  189.2550  177.0750  146.3480 C   0  0  0  0  0  0  0  0  0  0  0  0
  191.3800  177.0830  140.6230 C   0  0  0  0  0  2  0  0  0  0  0  0
  190.6160  176.4760  139.4590 C   0  0  0  0  0  2  0  0  0  0  0  0
  190.1690  177.4790  138.5990 O   0  0  0  0  0  0  0  0  0  0  0  0
  190.3630  176.9510  137.3190 C   0  0  0  0  0  2  0  0  0  0  0  0
  190.9330  174.6630  136.3850 C   0  0  1  0  0  3  0  0  0  0  0  0
  190.7280  174.9760  134.8910 C   0  0  0  0  0  2  0  0  0  0  0  0
  188.5310  175.3000  136.8740 C   0  0  0  0  0  2  0  0  0  0  0  0
  192.3260  174.8560  136.7530 N   0  0  0  0  0  1  0  0  0  0  0  0
  189.9980  175.4700  137.2970 C   0  0  2  0  0  3  0  0  0  0  0  0
  188.3810  174.9230  135.3960 C   0  0  0  0  0  2  0  0  0  0  0  0
  189.4180  175.5730  134.5980 N   0  0  0  0  0  2  0  0  0  0  0  0
  1 37  1  0  0  0  0
  1  7  1  0  0  0  0
  2  4  1  0  0  0  0
  3  5  1  0  0  0  0
  3  2  2  0  0  0  0
  4  7  2  0  0  0  0
  4  6  1  0  0  0  0
  5  1  2  0  0  0  0
  8  2  1  0  0  0  0
  8  9  2  0  0  0  0
 10  8  1  0  0  0  0
 12 11  1  0  0  0  0
 13 19  2  0  0  0  0
 13 25  1  0  0  0  0
 14 17  1  0  0  0  0
 14 15  1  0  0  0  0
 15 26  1  0  0  0  0
 17 27  1  0  0  0  0
 18 19  1  0  0  0  0
 19 22  1  0  0  0  0
 20 18  1  0  0  0  0
 20 17  2  0  0  0  0
 21 10  1  0  0  0  0
 22 16  1  0  0  0  0
 22 11  2  0  0  0  0
 24 21  2  0  0  0  0
 25 12  2  0  0  0  0
 26 24  1  0  0  0  0
 26 23  2  0  0  0  0
 27 16  1  6  0  0  0
 27 24  1  0  0  0  0
 29 25  1  0  0  0  0
 29 28  1  0  0  0  0
 30 29  2  0  0  0  0
 31 15  1  0  0  0  0
 32 33  1  0  0  0  0
 32 31  1  0  0  0  0
 33 35  1  0  0  0  0
 35 36  2  0  0  0  0
 35 34  1  0  0  0  0
 38 39  1  0  0  0  0
 38 37  1  0  0  0  0
 39 40  1  0  0  0  0
 42 41  1  1  0  0  0
 42 45  1  0  0  0  0
 43 50  1  6  0  0  0
 43 39  1  0  0  0  0
 43 41  1  0  0  0  0
 43 42  1  0  0  0  0
 45 46  1  0  0  0  0
 45 44  1  1  0  0  0
 46 44  1  0  0  0  0
 46 49  1  1  0  0  0
 47 49  2  0  0  0  0
 49 48  1  0  0  0  0
 51 50  1  0  0  0  0
 52 51  1  0  0  0  0
 53 52  1  0  0  0  0
 54 57  1  1  0  0  0
 54 58  1  0  0  0  0
 55 54  1  0  0  0  0
 56 58  1  0  0  0  0
 58 53  1  6  0  0  0
 59 56  1  0  0  0  0
 60 55  1  0  0  0  0
 60 59  1  0  0  0  0
M  END
>  <MODEL>
5

>  <REMARK>
 VINA RESULT:      -6.4      1.666      5.099
  Name = 
  19 active torsions:
  status: ('A' for Active; 'I' for Inactive)
    1  A    between atoms: C_1  and  C_6
    2  A    between atoms: C_1  and  C_28
    3  A    between atoms: C_2  and  N_29
    4  A    between atoms: C_2  and  C_60
    5  A    between atoms: C_3  and  C_24
    6  A    between atoms: C_3  and  O_59
    7  A    between atoms: C_4  and  N_12
    8  A    between atoms: N_8  and  C_42
    9  A    between atoms: N_8  and  C_58
   10  A    between atoms: N_12  and  C_42
   11  A    between atoms: C_17  and  C_50
   12  A    between atoms: C_27  and  C_49
   13  A    between atoms: C_28  and  C_39
   14  A    between atoms: C_38  and  C_47
   15  A    between atoms: C_45  and  C_57
   16  A    between atoms: C_45  and  O_59
   17  A    between atoms: C_49  and  C_60
   18  A    between atoms: C_52  and  C_56
   19  A    between atoms: C_57  and  C_58
                            x       y       z     vdW  Elec       q    Type
                         _______ _______ _______ _____ _____    ______ ____

>  <TORSDO>
F 19

$$$$
=
 OpenBabel10222415223D

 60 66  0  0  1  0  0  0  0  0999 V2000
  188.3200  175.0180  135.9050 C   0  0  0  0  0  0  0  0  0  0  0  0
  187.3880  177.4260  137.0420 C   0  0  0  0  0  0  0  0  0  0  0  0
  188.7290  177.2840  136.6530 C   0  0  0  0  0  3  0  0  0  0  0  0
  186.5000  176.3440  136.8390 C   0  0  0  0  0  0  0  0  0  0  0  0
  189.1890  176.0970  136.0800 C   0  0  0  0  0  3  0  0  0  0  0  0
  185.0680  176.3860  137.2580 C   0  0  0  0  0  1  0  0  0  0  0  0
  186.9750  175.1470  136.2850 C   0  0  0  0  0  3  0  0  0  0  0  0
  186.9880  178.6950  137.6910 C   0  0  0  0  0  0  0  0  0  0  0  0
  186.9430  179.7530  137.0030 O   0  0  0  0  0  0  0  0  0  0  0  0
  186.6030  178.7520  139.1340 C   0  0  0  0  0  2  0  0  0  0  0  0
  182.9040  177.5150  140.9070 C   0  0  0  0  0  3  0  0  0  0  0  0
  181.6090  178.0230  140.9800 C   0  0  0  0  0  3  0  0  0  0  0  0
  182.2380  179.3450  142.9000 C   0  0  0  0  0  3  0  0  0  0  0  0
  187.5350  177.0680  144.1000 C   0  0  0  0  0  2  0  0  0  0  0  0
  188.8080  177.2360  143.4050 N   0  0  0  0  0  0  0  0  0  0  0  0
  185.1450  177.5880  141.4920 C   0  0  0  0  0  2  0  0  0  0  0  0
  186.4650  177.9560  143.5450 C   0  0  0  0  0  0  0  0  0  0  0  0
  184.2590  179.0300  143.9850 C   0  0  0  0  0  2  0  0  0  0  0  0
  183.5310  178.8130  142.8750 C   0  0  0  0  0  0  0  0  0  0  0  0
  185.5290  178.3920  144.3790 C   0  0  0  0  0  3  0  0  0  0  0  0
  187.7250  178.2470  139.9830 C   0  0  0  0  0  3  0  0  0  0  0  0
  183.8940  177.9340  141.8050 C   0  0  0  0  0  0  0  0  0  0  0  0
  189.9390  177.4160  141.3680 O   0  0  0  0  0  0  0  0  0  0  0  0
  187.6300  177.9710  141.2930 C   0  0  0  0  0  0  0  0  0  0  0  0
  181.2770  178.9710  141.9530 C   0  0  0  0  0  0  0  0  0  0  0  0
  188.8490  177.5230  141.9980 C   0  0  0  0  0  0  0  0  0  0  0  0
  186.3590  178.2310  142.0780 C   0  0  1  0  0  3  0  0  0  0  0  0
  179.6830  180.7140  142.7250 O   0  0  0  0  0  1  0  0  0  0  0  0
  179.9270  179.5550  141.9940 C   0  0  0  0  0  0  0  0  0  0  0  0
  178.9730  178.9910  141.3990 O   0  0  0  0  0  0  0  0  0  0  0  0
  190.0130  176.7980  144.0950 C   0  0  0  0  0  2  0  0  0  0  0  0
  190.2190  177.6340  145.3410 C   0  0  0  0  0  2  0  0  0  0  0  0
  189.8360  176.8390  146.5730 C   0  0  0  0  0  2  0  0  0  0  0  0
  187.7000  177.1600  147.5660 O   0  0  0  0  0  0  0  0  0  0  0  0
  188.8570  177.6120  147.3800 C   0  0  0  0  0  0  0  0  0  0  0  0
  189.2450  178.7900  148.0070 O   0  0  0  0  0  1  0  0  0  0  0  0
  188.8330  173.7900  135.3820 N   0  0  0  0  0  2  0  0  0  0  0  0
  190.2290  173.5990  135.0000 C   0  0  0  0  0  2  0  0  0  0  0  0
  191.0660  173.7060  136.1910 N   0  0  0  0  0  0  0  0  0  0  0  0
  190.4620  172.9510  137.1480 O   0  0  0  0  0  1  0  0  0  0  0  0
  193.4060  173.1730  137.1390 C   0  0  0  0  0  2  0  0  0  0  0  0
  193.5320  174.2640  136.0860 C   0  0  1  0  0  3  0  0  0  0  0  0
  192.4390  173.1920  135.9610 C   0  0  2  0  0  0  0  0  0  0  0  0
  194.1140  176.6340  136.5620 C   0  0  0  0  0  2  0  0  0  0  0  0
  193.0400  175.5700  136.6940 C   0  0  2  0  0  3  0  0  0  0  0  0
  193.9070  175.9220  137.8930 C   0  0  2  0  0  3  0  0  0  0  0  0
  193.5850  177.7160  139.4740 O   0  0  0  0  0  1  0  0  0  0  0  0
  191.7650  176.3840  139.0800 O   0  0  0  0  0  0  0  0  0  0  0  0
  193.0890  176.7360  138.8510 C   0  0  0  0  0  0  0  0  0  0  0  0
  192.7200  172.2170  134.8150 C   0  0  0  0  0  2  0  0  0  0  0  0
  192.9160  170.8150  135.3630 C   0  0  0  0  0  2  0  0  0  0  0  0
  194.0480  170.2280  134.7970 O   0  0  0  0  0  0  0  0  0  0  0  0
  195.0450  171.1990  134.9240 C   0  0  0  0  0  2  0  0  0  0  0  0
  196.5590  170.5900  136.8670 C   0  0  1  0  0  3  0  0  0  0  0  0
  196.8150  172.0100  137.4020 C   0  0  0  0  0  2  0  0  0  0  0  0
  197.5330  171.2330  134.6190 C   0  0  0  0  0  2  0  0  0  0  0  0
  195.4330  169.9860  137.5590 N   0  0  0  0  0  1  0  0  0  0  0  0
  196.3620  170.5520  135.3440 C   0  0  2  0  0  3  0  0  0  0  0  0
  198.2510  172.2670  135.4940 C   0  0  0  0  0  2  0  0  0  0  0  0
  197.2960  172.9400  136.3720 N   0  0  0  0  0  2  0  0  0  0  0  0
  1  5  2  0  0  0  0
  1  7  1  0  0  0  0
  2  8  1  0  0  0  0
  3  2  2  0  0  0  0
  4  2  1  0  0  0  0
  4  6  1  0  0  0  0
  5  3  1  0  0  0  0
  7  4  2  0  0  0  0
  8 10  1  0  0  0  0
  9  8  2  0  0  0  0
 10 21  1  0  0  0  0
 11 12  2  0  0  0  0
 11 22  1  0  0  0  0
 12 25  1  0  0  0  0
 15 31  1  0  0  0  0
 15 14  1  0  0  0  0
 16 22  1  0  0  0  0
 17 14  1  0  0  0  0
 17 20  2  0  0  0  0
 18 20  1  0  0  0  0
 19 13  1  0  0  0  0
 19 18  1  0  0  0  0
 21 24  2  0  0  0  0
 22 19  2  0  0  0  0
 23 26  2  0  0  0  0
 24 26  1  0  0  0  0
 24 27  1  0  0  0  0
 25 29  1  0  0  0  0
 25 13  2  0  0  0  0
 26 15  1  0  0  0  0
 27 16  1  6  0  0  0
 27 17  1  0  0  0  0
 29 28  1  0  0  0  0
 30 29  2  0  0  0  0
 31 32  1  0  0  0  0
 32 33  1  0  0  0  0
 33 35  1  0  0  0  0
 35 34  2  0  0  0  0
 35 36  1  0  0  0  0
 37  1  1  0  0  0  0
 38 37  1  0  0  0  0
 38 39  1  0  0  0  0
 39 40  1  0  0  0  0
 42 45  1  0  0  0  0
 42 41  1  1  0  0  0
 43 50  1  6  0  0  0
 43 42  1  0  0  0  0
 43 39  1  0  0  0  0
 43 41  1  0  0  0  0
 44 46  1  0  0  0  0
 45 44  1  6  0  0  0
 45 46  1  0  0  0  0
 46 49  1  1  0  0  0
 49 48  2  0  0  0  0
 49 47  1  0  0  0  0
 50 51  1  0  0  0  0
 52 53  1  0  0  0  0
 52 51  1  0  0  0  0
 54 55  1  0  0  0  0
 54 57  1  1  0  0  0
 56 58  1  0  0  0  0
 56 59  1  0  0  0  0
 58 53  1  1  0  0  0
 58 54  1  0  0  0  0
 59 60  1  0  0  0  0
 60 55  1  0  0  0  0
M  END
>  <MODEL>
6

>  <REMARK>
 VINA RESULT:      -6.0      4.341      9.588
  Name = 
  19 active torsions:
  status: ('A' for Active; 'I' for Inactive)
    1  A    between atoms: C_1  and  C_6
    2  A    between atoms: C_1  and  C_28
    3  A    between atoms: C_2  and  N_29
    4  A    between atoms: C_2  and  C_60
    5  A    between atoms: C_3  and  C_24
    6  A    between atoms: C_3  and  O_59
    7  A    between atoms: C_4  and  N_12
    8  A    between atoms: N_8  and  C_42
    9  A    between atoms: N_8  and  C_58
   10  A    between atoms: N_12  and  C_42
   11  A    between atoms: C_17  and  C_50
   12  A    between atoms: C_27  and  C_49
   13  A    between atoms: C_28  and  C_39
   14  A    between atoms: C_38  and  C_47
   15  A    between atoms: C_45  and  C_57
   16  A    between atoms: C_45  and  O_59
   17  A    between atoms: C_49  and  C_60
   18  A    between atoms: C_52  and  C_56
   19  A    between atoms: C_57  and  C_58
                            x       y       z     vdW  Elec       q    Type
                         _______ _______ _______ _____ _____    ______ ____

>  <TORSDO>
F 19

$$$$
=
 OpenBabel10222415223D

 60 66  0  0  1  0  0  0  0  0999 V2000
  187.2220  178.6050  140.7120 C   0  0  0  0  0  0  0  0  0  0  0  0
  189.4330  177.4980  139.3540 C   0  0  0  0  0  0  0  0  0  0  0  0
  188.2250  177.7450  138.6840 C   0  0  0  0  0  3  0  0  0  0  0  0
  189.5330  177.8310  140.7260 C   0  0  0  0  0  0  0  0  0  0  0  0
  187.1340  178.3030  139.3520 C   0  0  0  0  0  3  0  0  0  0  0  0
  190.7610  177.5670  141.5320 C   0  0  0  0  0  1  0  0  0  0  0  0
  188.4250  178.3680  141.3950 C   0  0  0  0  0  3  0  0  0  0  0  0
  190.5280  176.8560  138.5930 C   0  0  0  0  0  0  0  0  0  0  0  0
  191.4860  176.3220  139.2190 O   0  0  0  0  0  0  0  0  0  0  0  0
  190.5140  176.7930  137.0990 C   0  0  0  0  0  2  0  0  0  0  0  0
  193.8530  174.3110  138.1230 C   0  0  0  0  0  3  0  0  0  0  0  0
  195.2410  174.4380  138.0970 C   0  0  0  0  0  3  0  0  0  0  0  0
  195.2600  173.7360  135.7880 C   0  0  0  0  0  3  0  0  0  0  0  0
  189.7000  171.8990  135.1610 C   0  0  0  0  0  2  0  0  0  0  0  0
  188.4640  172.6690  135.0520 N   0  0  0  0  0  0  0  0  0  0  0  0
  191.8190  174.0840  137.0360 C   0  0  0  0  0  2  0  0  0  0  0  0
  190.9150  172.7740  135.1500 C   0  0  0  0  0  0  0  0  0  0  0  0
  193.3770  172.8590  134.7660 C   0  0  0  0  0  2  0  0  0  0  0  0
  193.8740  173.5560  135.8030 C   0  0  0  0  0  0  0  0  0  0  0  0
  192.0280  172.2800  134.6220 C   0  0  0  0  0  3  0  0  0  0  0  0
  189.3980  175.9130  136.6350 C   0  0  0  0  0  3  0  0  0  0  0  0
  193.1440  173.9280  136.9780 C   0  0  0  0  0  0  0  0  0  0  0  0
  187.2110  174.5080  135.7640 O   0  0  0  0  0  0  0  0  0  0  0  0
  189.5570  174.6920  136.1030 C   0  0  0  0  0  0  0  0  0  0  0  0
  195.9500  174.1890  136.9190 C   0  0  0  0  0  0  0  0  0  0  0  0
  188.3490  173.9690  135.6500 C   0  0  0  0  0  0  0  0  0  0  0  0
  190.9290  174.1030  135.8370 C   0  0  1  0  0  3  0  0  0  0  0  0
  198.1220  174.0770  135.7160 O   0  0  0  0  0  0  0  0  0  0  0  0
  197.4080  174.3810  136.8720 C   0  0  0  0  0  0  0  0  0  0  0  0
  198.0280  174.7860  137.8890 O   0  0  0  0  0  1  0  0  0  0  0  0
  187.2720  171.9640  134.6050 C   0  0  0  0  0  2  0  0  0  0  0  0
  186.4370  171.5610  135.8020 C   0  0  0  0  0  2  0  0  0  0  0  0
  184.9720  171.4960  135.4190 C   0  0  0  0  0  2  0  0  0  0  0  0
  183.3380  171.2460  137.1290 O   0  0  0  0  0  1  0  0  0  0  0  0
  184.1410  172.0110  136.5380 C   0  0  0  0  0  0  0  0  0  0  0  0
  184.3150  173.3110  136.9960 O   0  0  0  0  0  0  0  0  0  0  0  0
  186.0660  179.1090  141.3880 N   0  0  0  0  0  2  0  0  0  0  0  0
  185.4750  178.4690  142.5590 C   0  0  0  0  0  2  0  0  0  0  0  0
  185.6310  179.3520  143.7110 N   0  0  0  0  0  0  0  0  0  0  0  0
  184.9320  180.4820  143.4190 O   0  0  0  0  0  1  0  0  0  0  0  0
  185.7190  179.1570  146.2830 C   0  0  0  0  0  2  0  0  0  0  0  0
  186.0670  177.8090  145.6680 C   0  0  1  0  0  3  0  0  0  0  0  0
  185.0870  178.7530  144.9550 C   0  0  2  0  0  0  0  0  0  0  0  0
  187.8930  176.5420  144.5540 C   0  0  0  0  0  2  0  0  0  0  0  0
  187.4900  177.8850  145.1310 C   0  0  2  0  0  3  0  0  0  0  0  0
  188.3800  176.9520  145.9390 C   0  0  2  0  0  3  0  0  0  0  0  0
  190.6520  177.0950  146.7360 O   0  0  0  0  0  1  0  0  0  0  0  0
  190.1160  178.4570  144.9760 O   0  0  0  0  0  0  0  0  0  0  0  0
  189.7810  177.4870  145.9110 C   0  0  0  0  0  0  0  0  0  0  0  0
  183.6500  178.2280  145.0000 C   0  0  0  0  0  2  0  0  0  0  0  0
  182.7090  179.2370  144.3660 C   0  0  0  0  0  2  0  0  0  0  0  0
  181.5710  178.5960  143.8760 O   0  0  0  0  0  0  0  0  0  0  0  0
  181.5880  178.8560  142.5030 C   0  0  0  0  0  2  0  0  0  0  0  0
  180.0660  178.3320  140.5420 C   0  0  1  0  0  3  0  0  0  0  0  0
  180.7560  179.2120  139.4840 C   0  0  0  0  0  2  0  0  0  0  0  0
  179.6500  180.3640  141.9980 C   0  0  0  0  0  2  0  0  0  0  0  0
  180.5900  176.9780  140.4920 N   0  0  0  0  0  1  0  0  0  0  0  0
  180.1630  178.9160  141.9590 C   0  0  2  0  0  3  0  0  0  0  0  0
  179.7470  181.0620  140.6360 C   0  0  0  0  0  2  0  0  0  0  0  0
  180.9330  180.6060  139.9140 N   0  0  0  0  0  2  0  0  0  0  0  0
  1 37  1  0  0  0  0
  1  7  1  0  0  0  0
  2  4  1  0  0  0  0
  3  5  1  0  0  0  0
  3  2  2  0  0  0  0
  4  7  2  0  0  0  0
  4  6  1  0  0  0  0
  5  1  2  0  0  0  0
  8  9  2  0  0  0  0
  8  2  1  0  0  0  0
 10  8  1  0  0  0  0
 12 11  1  0  0  0  0
 13 19  2  0  0  0  0
 13 25  1  0  0  0  0
 15 14  1  0  0  0  0
 15 26  1  0  0  0  0
 17 14  1  0  0  0  0
 17 27  1  0  0  0  0
 18 19  1  0  0  0  0
 19 22  1  0  0  0  0
 20 18  1  0  0  0  0
 20 17  2  0  0  0  0
 21 10  1  0  0  0  0
 22 16  1  0  0  0  0
 22 11  2  0  0  0  0
 24 21  2  0  0  0  0
 25 12  2  0  0  0  0
 26 23  2  0  0  0  0
 26 24  1  0  0  0  0
 27 24  1  0  0  0  0
 27 16  1  1  0  0  0
 28 29  2  0  0  0  0
 29 25  1  0  0  0  0
 29 30  1  0  0  0  0
 31 15  1  0  0  0  0
 31 32  1  0  0  0  0
 33 32  1  0  0  0  0
 33 35  1  0  0  0  0
 35 36  2  0  0  0  0
 35 34  1  0  0  0  0
 37 38  1  0  0  0  0
 38 39  1  0  0  0  0
 39 43  1  0  0  0  0
 40 39  1  0  0  0  0
 42 41  1  1  0  0  0
 43 50  1  1  0  0  0
 43 42  1  0  0  0  0
 43 41  1  0  0  0  0
 44 46  1  0  0  0  0
 45 44  1  6  0  0  0
 45 42  1  0  0  0  0
 45 46  1  0  0  0  0
 46 49  1  6  0  0  0
 48 49  2  0  0  0  0
 49 47  1  0  0  0  0
 51 50  1  0  0  0  0
 52 51  1  0  0  0  0
 53 52  1  0  0  0  0
 54 57  1  1  0  0  0
 54 58  1  0  0  0  0
 55 60  1  0  0  0  0
 55 54  1  0  0  0  0
 58 56  1  0  0  0  0
 58 53  1  6  0  0  0
 59 56  1  0  0  0  0
 60 59  1  0  0  0  0
M  END
>  <MODEL>
7

>  <REMARK>
 VINA RESULT:      -5.9      3.500     10.843
  Name = 
  19 active torsions:
  status: ('A' for Active; 'I' for Inactive)
    1  A    between atoms: C_1  and  C_6
    2  A    between atoms: C_1  and  C_28
    3  A    between atoms: C_2  and  N_29
    4  A    between atoms: C_2  and  C_60
    5  A    between atoms: C_3  and  C_24
    6  A    between atoms: C_3  and  O_59
    7  A    between atoms: C_4  and  N_12
    8  A    between atoms: N_8  and  C_42
    9  A    between atoms: N_8  and  C_58
   10  A    between atoms: N_12  and  C_42
   11  A    between atoms: C_17  and  C_50
   12  A    between atoms: C_27  and  C_49
   13  A    between atoms: C_28  and  C_39
   14  A    between atoms: C_38  and  C_47
   15  A    between atoms: C_45  and  C_57
   16  A    between atoms: C_45  and  O_59
   17  A    between atoms: C_49  and  C_60
   18  A    between atoms: C_52  and  C_56
   19  A    between atoms: C_57  and  C_58
                            x       y       z     vdW  Elec       q    Type
                         _______ _______ _______ _____ _____    ______ ____

>  <TORSDO>
F 19

$$$$
=
 OpenBabel10222415223D

 60 66  0  0  1  0  0  0  0  0999 V2000
  187.9770  178.5060  141.6070 C   0  0  0  0  0  0  0  0  0  0  0  0
  187.6060  178.3270  138.8170 C   0  0  0  0  0  0  0  0  0  0  0  0
  186.5220  178.5690  139.6740 C   0  0  0  0  0  3  0  0  0  0  0  0
  188.9000  178.1900  139.3740 C   0  0  0  0  0  0  0  0  0  0  0  0
  186.7060  178.6690  141.0540 C   0  0  0  0  0  3  0  0  0  0  0  0
  190.1060  177.8900  138.5470 C   0  0  0  0  0  1  0  0  0  0  0  0
  189.0720  178.2680  140.7620 C   0  0  0  0  0  3  0  0  0  0  0  0
  187.3250  178.1800  137.3710 C   0  0  0  0  0  0  0  0  0  0  0  0
  187.2520  179.2130  136.6480 O   0  0  0  0  0  0  0  0  0  0  0  0
  187.1570  176.8380  136.7350 C   0  0  0  0  0  2  0  0  0  0  0  0
  184.0660  174.4180  135.0190 C   0  0  0  0  0  3  0  0  0  0  0  0
  182.7970  173.9900  135.4060 C   0  0  0  0  0  3  0  0  0  0  0  0
  183.7860  172.1260  136.5790 C   0  0  0  0  0  3  0  0  0  0  0  0
  189.3420  172.4510  134.6520 C   0  0  0  0  0  2  0  0  0  0  0  0
  190.4000  173.3960  134.9950 N   0  0  0  0  0  0  0  0  0  0  0  0
  186.3730  174.3600  135.2230 C   0  0  0  0  0  2  0  0  0  0  0  0
  188.1200  172.6370  135.4960 C   0  0  0  0  0  0  0  0  0  0  0  0
  186.0220  171.5790  136.3300 C   0  0  0  0  0  2  0  0  0  0  0  0
  185.0650  172.5090  136.1630 C   0  0  0  0  0  0  0  0  0  0  0  0
  187.3850  171.5650  135.7670 C   0  0  0  0  0  3  0  0  0  0  0  0
  188.4770  176.3350  136.2460 C   0  0  0  0  0  3  0  0  0  0  0  0
  185.2140  173.7300  135.4300 C   0  0  0  0  0  0  0  0  0  0  0  0
  191.0020  175.6020  135.4720 O   0  0  0  0  0  0  0  0  0  0  0  0
  188.7120  175.0790  135.8340 C   0  0  0  0  0  0  0  0  0  0  0  0
  182.6510  172.8640  136.2210 C   0  0  0  0  0  0  0  0  0  0  0  0
  190.0890  174.7300  135.4230 C   0  0  0  0  0  0  0  0  0  0  0  0
  187.6520  173.9980  135.9060 C   0  0  1  0  0  3  0  0  0  0  0  0
  180.1720  173.0100  136.1260 O   0  0  0  0  0  0  0  0  0  0  0  0
  181.3180  172.4460  136.6810 C   0  0  0  0  0  0  0  0  0  0  0  0
  181.2010  171.6030  137.6080 O   0  0  0  0  0  1  0  0  0  0  0  0
  191.7580  173.0560  134.5950 C   0  0  0  0  0  2  0  0  0  0  0  0
  192.4940  172.4340  135.7630 C   0  0  0  0  0  2  0  0  0  0  0  0
  193.8280  173.1240  135.9670 C   0  0  0  0  0  2  0  0  0  0  0  0
  193.0010  174.5040  137.7170 O   0  0  0  0  0  0  0  0  0  0  0  0
  193.8870  173.7000  137.3350 C   0  0  0  0  0  0  0  0  0  0  0  0
  194.8680  173.2820  138.2270 O   0  0  0  0  0  1  0  0  0  0  0  0
  188.1260  178.5430  143.0300 N   0  0  0  0  0  2  0  0  0  0  0  0
  188.0420  177.3590  143.8790 C   0  0  0  0  0  2  0  0  0  0  0  0
  186.7010  177.2780  144.4490 N   0  0  0  0  0  0  0  0  0  0  0  0
  186.4810  175.9630  144.7190 O   0  0  0  0  0  1  0  0  0  0  0  0
  185.2040  178.1480  146.3630 C   0  0  0  0  0  2  0  0  0  0  0  0
  185.7280  179.3320  145.5620 C   0  0  1  0  0  3  0  0  0  0  0  0
  186.5760  178.0590  145.7040 C   0  0  2  0  0  0  0  0  0  0  0  0
  183.9220  180.5180  144.3320 C   0  0  0  0  0  2  0  0  0  0  0  0
  184.9490  179.4040  144.2560 C   0  0  2  0  0  3  0  0  0  0  0  0
  183.4890  179.0700  144.5250 C   0  0  2  0  0  3  0  0  0  0  0  0
  183.6080  177.8730  142.4330 O   0  0  0  0  0  0  0  0  0  0  0  0
  181.5390  178.6480  143.0320 O   0  0  0  0  0  1  0  0  0  0  0  0
  182.8960  178.4850  143.2780 C   0  0  0  0  0  0  0  0  0  0  0  0
  187.7950  178.2800  146.6040 C   0  0  0  0  0  2  0  0  0  0  0  0
  187.9320  177.1270  147.5830 C   0  0  0  0  0  2  0  0  0  0  0  0
  189.2780  176.8890  147.8650 O   0  0  0  0  0  0  0  0  0  0  0  0
  189.8120  176.4320  146.6570 C   0  0  0  0  0  2  0  0  0  0  0  0
  191.6690  177.4440  145.2570 C   0  0  1  0  0  3  0  0  0  0  0  0
  191.5760  176.4960  144.0470 C   0  0  0  0  0  2  0  0  0  0  0  0
  192.1270  175.4810  146.7910 C   0  0  0  0  0  2  0  0  0  0  0  0
  190.8590  178.6300  145.0320 N   0  0  0  0  0  1  0  0  0  0  0  0
  191.3010  176.7590  146.5810 C   0  0  2  0  0  3  0  0  0  0  0  0
  192.6250  174.8750  145.4740 C   0  0  0  0  0  2  0  0  0  0  0  0
  191.6370  175.0760  144.4160 N   0  0  0  0  0  2  0  0  0  0  0  0
  1 37  1  0  0  0  0
  2  4  2  0  0  0  0
  2  3  1  0  0  0  0
  3  5  2  0  0  0  0
  4  7  1  0  0  0  0
  5  1  1  0  0  0  0
  6  4  1  0  0  0  0
  7  1  2  0  0  0  0
  8  2  1  0  0  0  0
  9  8  2  0  0  0  0
 10  8  1  0  0  0  0
 11 12  2  0  0  0  0
 11 22  1  0  0  0  0
 12 25  1  0  0  0  0
 14 15  1  0  0  0  0
 14 17  1  0  0  0  0
 15 26  1  0  0  0  0
 16 22  1  0  0  0  0
 17 20  2  0  0  0  0
 17 27  1  0  0  0  0
 19 18  1  0  0  0  0
 19 13  1  0  0  0  0
 20 18  1  0  0  0  0
 21 10  1  0  0  0  0
 22 19  2  0  0  0  0
 24 27  1  0  0  0  0
 24 21  2  0  0  0  0
 25 13  2  0  0  0  0
 25 29  1  0  0  0  0
 26 23  2  0  0  0  0
 26 24  1  0  0  0  0
 27 16  1  6  0  0  0
 28 29  2  0  0  0  0
 29 30  1  0  0  0  0
 31 15  1  0  0  0  0
 31 32  1  0  0  0  0
 32 33  1  0  0  0  0
 33 35  1  0  0  0  0
 35 34  2  0  0  0  0
 35 36  1  0  0  0  0
 37 38  1  0  0  0  0
 38 39  1  0  0  0  0
 39 40  1  0  0  0  0
 39 43  1  0  0  0  0
 42 43  1  0  0  0  0
 42 41  1  1  0  0  0
 43 41  1  0  0  0  0
 43 50  1  1  0  0  0
 44 46  1  0  0  0  0
 45 44  1  1  0  0  0
 45 46  1  0  0  0  0
 45 42  1  0  0  0  0
 46 49  1  6  0  0  0
 47 49  2  0  0  0  0
 48 49  1  0  0  0  0
 50 51  1  0  0  0  0
 51 52  1  0  0  0  0
 53 52  1  0  0  0  0
 54 57  1  6  0  0  0
 54 58  1  0  0  0  0
 55 60  1  0  0  0  0
 55 54  1  0  0  0  0
 58 53  1  6  0  0  0
 58 56  1  0  0  0  0
 59 56  1  0  0  0  0
 60 59  1  0  0  0  0
M  END
>  <MODEL>
8

>  <REMARK>
 VINA RESULT:      -5.8      4.199      8.508
  Name = 
  19 active torsions:
  status: ('A' for Active; 'I' for Inactive)
    1  A    between atoms: C_1  and  C_6
    2  A    between atoms: C_1  and  C_28
    3  A    between atoms: C_2  and  N_29
    4  A    between atoms: C_2  and  C_60
    5  A    between atoms: C_3  and  C_24
    6  A    between atoms: C_3  and  O_59
    7  A    between atoms: C_4  and  N_12
    8  A    between atoms: N_8  and  C_42
    9  A    between atoms: N_8  and  C_58
   10  A    between atoms: N_12  and  C_42
   11  A    between atoms: C_17  and  C_50
   12  A    between atoms: C_27  and  C_49
   13  A    between atoms: C_28  and  C_39
   14  A    between atoms: C_38  and  C_47
   15  A    between atoms: C_45  and  C_57
   16  A    between atoms: C_45  and  O_59
   17  A    between atoms: C_49  and  C_60
   18  A    between atoms: C_52  and  C_56
   19  A    between atoms: C_57  and  C_58
                            x       y       z     vdW  Elec       q    Type
                         _______ _______ _______ _____ _____    ______ ____

>  <TORSDO>
F 19

$$$$
=
 OpenBabel10222415223D

 60 66  0  0  1  0  0  0  0  0999 V2000
  190.0710  177.4050  140.2020 C   0  0  0  0  0  0  0  0  0  0  0  0
  188.1320  177.5530  138.1570 C   0  0  0  0  0  0  0  0  0  0  0  0
  187.9840  178.2850  139.3450 C   0  0  0  0  0  3  0  0  0  0  0  0
  189.2840  176.7480  137.9900 C   0  0  0  0  0  0  0  0  0  0  0  0
  188.9480  178.2210  140.3530 C   0  0  0  0  0  3  0  0  0  0  0  0
  189.5080  175.9030  136.7810 C   0  0  0  0  0  1  0  0  0  0  0  0
  190.2350  176.6710  139.0170 C   0  0  0  0  0  3  0  0  0  0  0  0
  187.0440  177.6300  137.1580 C   0  0  0  0  0  0  0  0  0  0  0  0
  187.2290  178.2790  136.0900 O   0  0  0  0  0  0  0  0  0  0  0  0
  185.7380  176.9330  137.3630 C   0  0  0  0  0  2  0  0  0  0  0  0
  184.1220  172.9820  137.7310 C   0  0  0  0  0  3  0  0  0  0  0  0
  184.2760  171.7700  137.0600 C   0  0  0  0  0  3  0  0  0  0  0  0
  182.6020  172.4470  135.4580 C   0  0  0  0  0  3  0  0  0  0  0  0
  180.4710  177.2700  138.0820 C   0  0  0  0  0  2  0  0  0  0  0  0
  181.0590  178.5990  138.2240 N   0  0  0  0  0  0  0  0  0  0  0  0
  183.3490  175.1640  137.8200 C   0  0  0  0  0  2  0  0  0  0  0  0
  181.2900  176.3780  137.2020 C   0  0  0  0  0  0  0  0  0  0  0  0
  181.2850  174.3220  135.7920 C   0  0  0  0  0  2  0  0  0  0  0  0
  182.3960  173.6490  136.1420 C   0  0  0  0  0  0  0  0  0  0  0  0
  180.6530  175.4590  136.4880 C   0  0  0  0  0  3  0  0  0  0  0  0
  184.7010  177.9100  137.8180 C   0  0  0  0  0  3  0  0  0  0  0  0
  183.2330  173.9560  137.2620 C   0  0  0  0  0  0  0  0  0  0  0  0
  182.9720  179.8820  138.6140 O   0  0  0  0  0  0  0  0  0  0  0  0
  183.3780  177.6860  137.8010 C   0  0  0  0  0  0  0  0  0  0  0  0
  183.5450  171.5100  135.8970 C   0  0  0  0  0  0  0  0  0  0  0  0
  182.4840  178.7770  138.2420 C   0  0  0  0  0  0  0  0  0  0  0  0
  182.7860  176.4140  137.2260 C   0  0  1  0  0  3  0  0  0  0  0  0
  185.0310  169.7380  134.9890 O   0  0  0  0  0  1  0  0  0  0  0  0
  183.7500  170.2580  135.1530 C   0  0  0  0  0  0  0  0  0  0  0  0
  182.7750  169.6660  134.6240 O   0  0  0  0  0  0  0  0  0  0  0  0
  180.1830  179.6780  138.6550 C   0  0  0  0  0  2  0  0  0  0  0  0
  180.7810  180.3690  139.8630 C   0  0  0  0  0  2  0  0  0  0  0  0
  179.8710  180.2020  141.0630 C   0  0  0  0  0  2  0  0  0  0  0  0
  179.9990  179.1460  143.1900 O   0  0  0  0  0  1  0  0  0  0  0  0
  180.5160  179.3050  142.0560 C   0  0  0  0  0  0  0  0  0  0  0  0
  181.6410  178.5680  141.7040 O   0  0  0  0  0  0  0  0  0  0  0  0
  191.0070  177.3030  141.2790 N   0  0  0  0  0  2  0  0  0  0  0  0
  190.9480  176.2630  142.3010 C   0  0  0  0  0  2  0  0  0  0  0  0
  191.1100  176.8780  143.6140 N   0  0  0  0  0  0  0  0  0  0  0  0
  191.6830  178.0920  143.3960 O   0  0  0  0  0  1  0  0  0  0  0  0
  189.6660  178.2710  145.2370 C   0  0  0  0  0  2  0  0  0  0  0  0
  189.8920  176.8890  145.8320 C   0  0  1  0  0  3  0  0  0  0  0  0
  189.8130  177.0710  144.3090 C   0  0  2  0  0  0  0  0  0  0  0  0
  191.9690  175.5280  145.9410 C   0  0  0  0  0  2  0  0  0  0  0  0
  191.3150  176.8280  146.3680 C   0  0  2  0  0  3  0  0  0  0  0  0
  191.4290  175.6790  147.3580 C   0  0  2  0  0  3  0  0  0  0  0  0
  192.7470  177.1950  148.6940 O   0  0  0  0  0  0  0  0  0  0  0  0
  193.2870  174.9770  148.8630 O   0  0  0  0  0  1  0  0  0  0  0  0
  192.5100  176.0050  148.3450 C   0  0  0  0  0  0  0  0  0  0  0  0
  188.5260  176.4810  143.7260 C   0  0  0  0  0  2  0  0  0  0  0  0
  187.6270  177.5950  143.2210 C   0  0  0  0  0  2  0  0  0  0  0  0
  186.3360  177.1140  143.0020 O   0  0  0  0  0  0  0  0  0  0  0  0
  185.5040  178.1910  143.3210 C   0  0  0  0  0  2  0  0  0  0  0  0
  184.1440  179.1650  145.2290 C   0  0  1  0  0  3  0  0  0  0  0  0
  185.2350  180.0630  145.8420 C   0  0  0  0  0  2  0  0  0  0  0  0
  185.5940  177.1180  145.5840 C   0  0  0  0  0  2  0  0  0  0  0  0
  183.3450  179.9200  144.2790 N   0  0  0  0  0  1  0  0  0  0  0  0
  184.7120  177.8890  144.5900 C   0  0  2  0  0  3  0  0  0  0  0  0
  186.1840  178.0200  146.6750 C   0  0  0  0  0  2  0  0  0  0  0  0
  186.4820  179.3440  146.1330 N   0  0  0  0  0  2  0  0  0  0  0  0
  1  5  1  0  0  0  0
  1 37  1  0  0  0  0
  2  3  1  0  0  0  0
  3  5  2  0  0  0  0
  4  2  2  0  0  0  0
  4  7  1  0  0  0  0
  6  4  1  0  0  0  0
  7  1  2  0  0  0  0
  8 10  1  0  0  0  0
  8  2  1  0  0  0  0
  9  8  2  0  0  0  0
 10 21  1  0  0  0  0
 12 11  2  0  0  0  0
 13 25  2  0  0  0  0
 13 19  1  0  0  0  0
 14 15  1  0  0  0  0
 15 26  1  0  0  0  0
 15 31  1  0  0  0  0
 17 27  1  0  0  0  0
 17 14  1  0  0  0  0
 18 19  1  0  0  0  0
 18 20  1  0  0  0  0
 19 22  2  0  0  0  0
 20 17  2  0  0  0  0
 22 11  1  0  0  0  0
 22 16  1  0  0  0  0
 24 21  2  0  0  0  0
 24 26  1  0  0  0  0
 25 12  1  0  0  0  0
 26 23  2  0  0  0  0
 27 24  1  0  0  0  0
 27 16  1  1  0  0  0
 28 29  1  0  0  0  0
 29 25  1  0  0  0  0
 30 29  2  0  0  0  0
 31 32  1  0  0  0  0
 32 33  1  0  0  0  0
 33 35  1  0  0  0  0
 35 34  1  0  0  0  0
 36 35  2  0  0  0  0
 37 38  1  0  0  0  0
 38 39  1  0  0  0  0
 39 43  1  0  0  0  0
 40 39  1  0  0  0  0
 42 41  1  1  0  0  0
 42 45  1  0  0  0  0
 43 50  1  6  0  0  0
 43 41  1  0  0  0  0
 43 42  1  0  0  0  0
 44 46  1  0  0  0  0
 45 44  1  6  0  0  0
 45 46  1  0  0  0  0
 46 49  1  1  0  0  0
 49 47  2  0  0  0  0
 49 48  1  0  0  0  0
 51 50  1  0  0  0  0
 52 51  1  0  0  0  0
 52 53  1  0  0  0  0
 54 57  1  6  0  0  0
 54 55  1  0  0  0  0
 55 60  1  0  0  0  0
 56 59  1  0  0  0  0
 58 53  1  6  0  0  0
 58 54  1  0  0  0  0
 58 56  1  0  0  0  0
 60 59  1  0  0  0  0
M  END
>  <MODEL>
9

>  <REMARK>
 VINA RESULT:      -5.5      2.563      6.277
  Name = 
  19 active torsions:
  status: ('A' for Active; 'I' for Inactive)
    1  A    between atoms: C_1  and  C_6
    2  A    between atoms: C_1  and  C_28
    3  A    between atoms: C_2  and  N_29
    4  A    between atoms: C_2  and  C_60
    5  A    between atoms: C_3  and  C_24
    6  A    between atoms: C_3  and  O_59
    7  A    between atoms: C_4  and  N_12
    8  A    between atoms: N_8  and  C_42
    9  A    between atoms: N_8  and  C_58
   10  A    between atoms: N_12  and  C_42
   11  A    between atoms: C_17  and  C_50
   12  A    between atoms: C_27  and  C_49
   13  A    between atoms: C_28  and  C_39
   14  A    between atoms: C_38  and  C_47
   15  A    between atoms: C_45  and  C_57
   16  A    between atoms: C_45  and  O_59
   17  A    between atoms: C_49  and  C_60
   18  A    between atoms: C_52  and  C_56
   19  A    between atoms: C_57  and  C_58
                            x       y       z     vdW  Elec       q    Type
                         _______ _______ _______ _____ _____    ______ ____

>  <TORSDO>
F 19

$$$$
