=
 OpenBabel10222415463D

 44 47  0  0  1  0  0  0  0  0999 V2000
  188.1680  177.8000  141.9950 C   0  0  2  0  0  3  0  0  0  0  0  0
  186.1110  178.8740  141.0610 C   0  0  0  0  0  3  0  0  0  0  0  0
  183.9240  178.3620  142.1510 C   0  0  2  0  0  3  0  0  0  0  0  0
  184.6600  178.4920  143.4860 C   0  0  0  0  0  2  0  0  0  0  0  0
  186.8730  178.5450  142.3230 C   0  0  1  0  0  3  0  0  0  0  0  0
  186.0180  177.8130  143.3680 C   0  0  0  0  0  2  0  0  0  0  0  0
  184.7710  178.8370  140.9960 C   0  0  0  0  0  3  0  0  0  0  0  0
  181.7890  178.8390  143.0510 N   0  0  0  0  0  0  0  0  0  0  0  0
  182.6750  179.1050  142.1810 N   0  0  0  0  0  0  0  0  0  0  0  0
  180.5890  179.5580  143.0730 N   0  0  0  0  0  2  0  0  0  0  0  0
  179.8440  179.7770  141.8440 C   0  0  0  0  0  2  0  0  0  0  0  0
  179.0420  178.5350  141.4750 C   0  0  0  0  0  2  0  0  0  0  0  0
  179.5330  177.9250  140.1680 C   0  0  1  0  0  3  0  0  0  0  0  0
  181.4180  178.0520  138.9490 C   0  0  0  0  0  2  0  0  0  0  0  0
  181.6270  176.8400  139.8170 C   0  0  2  0  0  3  0  0  0  0  0  0
  182.2040  175.6840  139.0060 C   0  0  0  0  0  1  0  0  0  0  0  0
  180.4040  178.8290  139.5310 O   0  0  0  0  0  0  0  0  0  0  0  0
  180.2570  176.6100  140.4230 C   0  0  2  0  0  3  0  0  0  0  0  0
  179.4500  175.4810  139.7840 C   0  0  0  0  0  2  0  0  0  0  0  0
  179.2320  174.4230  140.7540 N   0  0  0  0  0  1  0  0  0  0  0  0
  190.6210  177.6500  140.5250 O   0  0  0  0  0  0  0  0  0  0  0  0
  188.2840  177.5700  140.5600 N   0  0  0  0  0  2  0  0  0  0  0  0
  189.5430  177.4980  139.8890 C   0  0  0  0  0  0  0  0  0  0  0  0
  189.5790  177.2150  138.4300 C   0  0  0  0  0  2  0  0  0  0  0  0
  189.3350  178.4960  137.6530 C   0  0  0  0  0  2  0  0  0  0  0  0
  188.3730  178.2370  136.5050 C   0  0  2  0  0  3  0  0  0  0  0  0
  187.3520  177.2930  136.9310 C   0  0  0  0  0  0  0  0  0  0  0  0
  186.3760  177.5640  137.6800 O   0  0  0  0  0  0  0  0  0  0  0  0
  189.0530  177.3830  135.4270 C   0  0  0  0  0  2  0  0  0  0  0  0
  187.5590  176.0380  136.3300 N   0  0  0  0  0  0  0  0  0  0  0  0
  188.7180  176.0150  135.6190 O   0  0  0  0  0  0  0  0  0  0  0  0
  186.4310  175.2000  135.9500 C   0  0  0  0  0  2  0  0  0  0  0  0
  186.2270  173.8510  137.1490 S   0  0  0  0  0  1  0  0  0  0  0  0
  188.2470  176.4740  142.7500 C   0  0  0  0  0  2  0  0  0  0  0  0
  189.5420  176.3760  143.5380 C   0  0  0  0  0  2  0  0  0  0  0  0
  189.8180  177.6840  144.2620 C   0  0  0  0  0  2  0  0  0  0  0  0
  187.9260  178.0280  145.8440 C   0  0  0  0  0  3  0  0  0  0  0  0
  189.2550  177.6340  145.6460 C   0  0  0  0  0  0  0  0  0  0  0  0
  189.4320  177.1180  148.0130 C   0  0  0  0  0  3  0  0  0  0  0  0
  190.0180  177.1710  146.7400 C   0  0  0  0  0  0  0  0  0  0  0  0
  187.3550  177.9730  147.1170 C   0  0  0  0  0  3  0  0  0  0  0  0
  188.1070  177.5180  148.2020 C   0  0  0  0  0  3  0  0  0  0  0  0
  192.1770  176.5540  147.5430 O   0  0  0  0  0  0  0  0  0  0  0  0
  191.4150  176.7470  146.5580 C   0  0  0  0  0  3  0  0  0  0  0  0
  1 34  1  1  0  0  0
  2  5  1  0  0  0  0
  3  9  1  1  0  0  0
  3  4  1  0  0  0  0
  5  1  1  6  0  0  0
  5  6  1  0  0  0  0
  6  4  1  0  0  0  0
  7  2  2  0  0  0  0
  7  3  1  0  0  0  0
  8 10  1  0  0  0  0
  9  8  2  0  0  0  0
 11 10  1  0  0  0  0
 12 11  1  0  0  0  0
 13 18  1  0  0  0  0
 13 12  1  1  0  0  0
 14 17  1  0  0  0  0
 14 15  1  0  0  0  0
 15 16  1  6  0  0  0
 15 18  1  0  0  0  0
 17 13  1  0  0  0  0
 18 19  1  6  0  0  0
 19 20  1  0  0  0  0
 22  1  1  0  0  0  0
 23 21  2  0  0  0  0
 23 22  1  0  0  0  0
 24 23  1  0  0  0  0
 25 24  1  0  0  0  0
 26 27  1  0  0  0  0
 26 25  1  1  0  0  0
 27 28  2  0  0  0  0
 29 31  1  0  0  0  0
 29 26  1  0  0  0  0
 30 27  1  0  0  0  0
 31 30  1  0  0  0  0
 32 30  1  0  0  0  0
 32 33  1  0  0  0  0
 34 35  1  0  0  0  0
 35 36  1  0  0  0  0
 36 38  1  0  0  0  0
 37 41  1  0  0  0  0
 38 37  2  0  0  0  0
 38 40  1  0  0  0  0
 39 42  1  0  0  0  0
 40 39  2  0  0  0  0
 41 42  2  0  0  0  0
 44 40  1  0  0  0  0
 44 43  2  0  0  0  0
M  END
>  <MODEL>
1

>  <REMARK>
 VINA RESULT:      -7.7      0.000      0.000
  Name = 
  17 active torsions:
  status: ('A' for Active; 'I' for Inactive)
    1  A    between atoms: C_1  and  C_20
    2  A    between atoms: C_2  and  C_11
    3  A    between atoms: C_3  and  C_20
    4  A    between atoms: C_3  and  N_24
    5  A    between atoms: N_7  and  N_24
    6  A    between atoms: C_9  and  N_29
    7  A    between atoms: C_10  and  N_15
    8  A    between atoms: C_10  and  C_37
    9  A    between atoms: C_10  and  C_39
   10  A    between atoms: C_11  and  C_31
   11  A    between atoms: C_18  and  N_34
   12  A    between atoms: C_19  and  C_36
   13  A    between atoms: C_23  and  C_33
   14  A    between atoms: C_30  and  C_35
   15  A    between atoms: C_31  and  C_44
   16  A    between atoms: C_32  and  C_33
   17  A    between atoms: C_32  and  C_37
                            x       y       z     vdW  Elec       q    Type
                         _______ _______ _______ _____ _____    ______ ____

>  <TORSDO>
F 17

$$$$
=
 OpenBabel10222415463D

 44 47  0  0  1  0  0  0  0  0999 V2000
  187.8820  178.3640  141.5170 C   0  0  2  0  0  3  0  0  0  0  0  0
  185.6980  178.6980  140.3440 C   0  0  0  0  0  3  0  0  0  0  0  0
  183.6020  178.2180  141.6130 C   0  0  2  0  0  3  0  0  0  0  0  0
  184.2680  178.9100  142.8030 C   0  0  0  0  0  2  0  0  0  0  0  0
  186.4700  178.9460  141.6180 C   0  0  1  0  0  3  0  0  0  0  0  0
  185.7250  178.4720  142.8750 C   0  0  0  0  0  2  0  0  0  0  0  0
  184.3860  178.4150  140.3390 C   0  0  0  0  0  3  0  0  0  0  0  0
  181.5450  178.3120  140.4480 N   0  0  0  0  0  0  0  0  0  0  0  0
  182.2440  178.7050  141.4330 N   0  0  0  0  0  0  0  0  0  0  0  0
  180.2400  178.7880  140.2820 N   0  0  0  0  0  2  0  0  0  0  0  0
  179.7040  179.0100  138.9480 C   0  0  0  0  0  2  0  0  0  0  0  0
  180.7160  178.5900  137.8890 C   0  0  0  0  0  2  0  0  0  0  0  0
  181.2480  179.7930  137.1200 C   0  0  1  0  0  3  0  0  0  0  0  0
  180.7180  180.8280  135.1960 C   0  0  0  0  0  2  0  0  0  0  0  0
  179.9510  181.5910  136.2420 C   0  0  2  0  0  3  0  0  0  0  0  0
  180.0730  183.0950  136.0140 C   0  0  0  0  0  1  0  0  0  0  0  0
  181.0660  179.5820  135.7400 O   0  0  0  0  0  0  0  0  0  0  0  0
  180.5280  181.0660  137.5420 C   0  0  2  0  0  3  0  0  0  0  0  0
  181.5370  181.9910  138.2220 C   0  0  0  0  0  2  0  0  0  0  0  0
  182.6380  181.2100  138.7560 N   0  0  0  0  0  1  0  0  0  0  0  0
  190.4490  177.6500  140.4660 O   0  0  0  0  0  0  0  0  0  0  0  0
  188.1380  177.8550  140.1750 N   0  0  0  0  0  2  0  0  0  0  0  0
  189.4450  177.5090  139.7160 C   0  0  0  0  0  0  0  0  0  0  0  0
  189.6170  176.9530  138.3480 C   0  0  0  0  0  2  0  0  0  0  0  0
  189.5510  178.0740  137.3260 C   0  0  0  0  0  2  0  0  0  0  0  0
  188.5070  177.7570  136.2690 C   0  0  2  0  0  3  0  0  0  0  0  0
  187.2240  178.3110  136.6710 C   0  0  0  0  0  0  0  0  0  0  0  0
  186.9060  179.5290  136.6120 O   0  0  0  0  0  0  0  0  0  0  0  0
  188.1460  176.2670  136.3100 C   0  0  0  0  0  2  0  0  0  0  0  0
  186.3480  177.2870  137.0720 N   0  0  0  0  0  0  0  0  0  0  0  0
  186.9730  176.0800  137.0910 O   0  0  0  0  0  0  0  0  0  0  0  0
  184.9200  177.3840  136.8090 C   0  0  0  0  0  2  0  0  0  0  0  0
  184.5090  176.5030  135.2740 S   0  0  0  0  0  1  0  0  0  0  0  0
  188.0990  177.2610  142.5500 C   0  0  0  0  0  2  0  0  0  0  0  0
  189.0920  177.7010  143.6130 C   0  0  0  0  0  2  0  0  0  0  0  0
  189.2030  176.6430  144.7000 C   0  0  0  0  0  2  0  0  0  0  0  0
  187.5300  177.6660  146.2350 C   0  0  0  0  0  3  0  0  0  0  0  0
  188.8450  177.2320  146.0270 C   0  0  0  0  0  0  0  0  0  0  0  0
  189.3900  177.8570  148.3090 C   0  0  0  0  0  3  0  0  0  0  0  0
  189.7860  177.3240  147.0740 C   0  0  0  0  0  0  0  0  0  0  0  0
  187.1490  178.1980  147.4680 C   0  0  0  0  0  3  0  0  0  0  0  0
  188.0780  178.2950  148.5060 C   0  0  0  0  0  3  0  0  0  0  0  0
  191.7890  176.2430  147.7860 O   0  0  0  0  0  0  0  0  0  0  0  0
  191.1730  176.8690  146.8840 C   0  0  0  0  0  3  0  0  0  0  0  0
  1 34  1  1  0  0  0
  2  5  1  0  0  0  0
  3  9  1  6  0  0  0
  3  4  1  0  0  0  0
  4  6  1  0  0  0  0
  5  1  1  6  0  0  0
  5  6  1  0  0  0  0
  7  2  2  0  0  0  0
  7  3  1  0  0  0  0
  8  9  2  0  0  0  0
 10  8  1  0  0  0  0
 11 10  1  0  0  0  0
 12 11  1  0  0  0  0
 13 18  1  0  0  0  0
 13 12  1  1  0  0  0
 14 17  1  0  0  0  0
 14 15  1  0  0  0  0
 15 16  1  6  0  0  0
 15 18  1  0  0  0  0
 17 13  1  0  0  0  0
 18 19  1  6  0  0  0
 19 20  1  0  0  0  0
 22  1  1  0  0  0  0
 23 22  1  0  0  0  0
 23 21  2  0  0  0  0
 24 23  1  0  0  0  0
 25 24  1  0  0  0  0
 26 29  1  0  0  0  0
 26 27  1  0  0  0  0
 26 25  1  1  0  0  0
 27 30  1  0  0  0  0
 28 27  2  0  0  0  0
 29 31  1  0  0  0  0
 30 31  1  0  0  0  0
 32 30  1  0  0  0  0
 33 32  1  0  0  0  0
 34 35  1  0  0  0  0
 35 36  1  0  0  0  0
 36 38  1  0  0  0  0
 37 41  1  0  0  0  0
 38 37  2  0  0  0  0
 38 40  1  0  0  0  0
 39 42  1  0  0  0  0
 40 39  2  0  0  0  0
 41 42  2  0  0  0  0
 44 40  1  0  0  0  0
 44 43  2  0  0  0  0
M  END
>  <MODEL>
2

>  <REMARK>
 VINA RESULT:      -7.6      2.190      2.988
  Name = 
  17 active torsions:
  status: ('A' for Active; 'I' for Inactive)
    1  A    between atoms: C_1  and  C_20
    2  A    between atoms: C_2  and  C_11
    3  A    between atoms: C_3  and  C_20
    4  A    between atoms: C_3  and  N_24
    5  A    between atoms: N_7  and  N_24
    6  A    between atoms: C_9  and  N_29
    7  A    between atoms: C_10  and  N_15
    8  A    between atoms: C_10  and  C_37
    9  A    between atoms: C_10  and  C_39
   10  A    between atoms: C_11  and  C_31
   11  A    between atoms: C_18  and  N_34
   12  A    between atoms: C_19  and  C_36
   13  A    between atoms: C_23  and  C_33
   14  A    between atoms: C_30  and  C_35
   15  A    between atoms: C_31  and  C_44
   16  A    between atoms: C_32  and  C_33
   17  A    between atoms: C_32  and  C_37
                            x       y       z     vdW  Elec       q    Type
                         _______ _______ _______ _____ _____    ______ ____

>  <TORSDO>
F 17

$$$$
=
 OpenBabel10222415463D

 44 47  0  0  1  0  0  0  0  0999 V2000
  187.5640  178.4230  140.9810 C   0  0  2  0  0  3  0  0  0  0  0  0
  185.2670  179.0510  140.2130 C   0  0  0  0  0  3  0  0  0  0  0  0
  183.3240  178.2790  141.5780 C   0  0  2  0  0  3  0  0  0  0  0  0
  184.1550  178.6480  142.8090 C   0  0  0  0  0  2  0  0  0  0  0  0
  186.1970  178.9680  141.4010 C   0  0  1  0  0  3  0  0  0  0  0  0
  185.5930  178.1980  142.5850 C   0  0  0  0  0  2  0  0  0  0  0  0
  183.9540  178.7850  140.3050 C   0  0  0  0  0  3  0  0  0  0  0  0
  181.3150  179.1280  140.6630 N   0  0  0  0  0  0  0  0  0  0  0  0
  181.9740  178.8040  141.6990 N   0  0  0  0  0  0  0  0  0  0  0  0
  180.0170  179.6340  140.7870 N   0  0  0  0  0  2  0  0  0  0  0  0
  179.6970  180.9640  140.2940 C   0  0  0  0  0  2  0  0  0  0  0  0
  180.6400  181.3570  139.1640 C   0  0  0  0  0  2  0  0  0  0  0  0
  179.9120  182.1420  138.0800 C   0  0  1  0  0  3  0  0  0  0  0  0
  179.5890  184.3200  137.6210 C   0  0  0  0  0  2  0  0  0  0  0  0
  180.8030  183.9530  136.8100 C   0  0  2  0  0  3  0  0  0  0  0  0
  180.7070  184.5270  135.4000 C   0  0  0  0  0  1  0  0  0  0  0  0
  179.4310  183.3490  138.6230 O   0  0  0  0  0  0  0  0  0  0  0  0
  180.8390  182.4400  136.9110 C   0  0  2  0  0  3  0  0  0  0  0  0
  180.3220  181.6980  135.6800 C   0  0  0  0  0  2  0  0  0  0  0  0
  180.8480  180.3450  135.6660 N   0  0  0  0  0  1  0  0  0  0  0  0
  189.1260  179.1980  138.7100 O   0  0  0  0  0  0  0  0  0  0  0  0
  187.4950  177.8170  139.6570 N   0  0  0  0  0  2  0  0  0  0  0  0
  188.3110  178.2480  138.5670 C   0  0  0  0  0  0  0  0  0  0  0  0
  188.2140  177.5480  137.2590 C   0  0  0  0  0  2  0  0  0  0  0  0
  186.9050  176.7830  137.1820 C   0  0  0  0  0  2  0  0  0  0  0  0
  187.0200  175.6490  136.1770 C   0  0  2  0  0  3  0  0  0  0  0  0
  185.6910  175.1610  135.8400 C   0  0  0  0  0  0  0  0  0  0  0  0
  184.8730  175.7450  135.0800 O   0  0  0  0  0  0  0  0  0  0  0  0
  187.5700  174.3900  136.8590 C   0  0  0  0  0  2  0  0  0  0  0  0
  185.4650  173.9020  136.4240 N   0  0  0  0  0  0  0  0  0  0  0  0
  186.4930  173.5420  137.2380 O   0  0  0  0  0  0  0  0  0  0  0  0
  184.6680  172.8970  135.7380 C   0  0  0  0  0  2  0  0  0  0  0  0
  183.7080  171.9360  136.9440 S   0  0  0  0  0  1  0  0  0  0  0  0
  188.0900  177.4120  141.9970 C   0  0  0  0  0  2  0  0  0  0  0  0
  189.1410  178.0420  142.8950 C   0  0  0  0  0  2  0  0  0  0  0  0
  189.7330  176.9970  143.8270 C   0  0  0  0  0  2  0  0  0  0  0  0
  187.9240  177.5630  145.4410 C   0  0  0  0  0  3  0  0  0  0  0  0
  189.2680  177.2360  145.2280 C   0  0  0  0  0  0  0  0  0  0  0  0
  189.6450  177.3130  147.6260 C   0  0  0  0  0  3  0  0  0  0  0  0
  190.1400  177.1060  146.3300 C   0  0  0  0  0  0  0  0  0  0  0  0
  187.4430  177.7700  146.7360 C   0  0  0  0  0  3  0  0  0  0  0  0
  188.3040  177.6450  147.8290 C   0  0  0  0  0  3  0  0  0  0  0  0
  192.1590  175.9830  146.9230 O   0  0  0  0  0  0  0  0  0  0  0  0
  191.5560  176.7580  146.1330 C   0  0  0  0  0  3  0  0  0  0  0  0
  1 34  1  1  0  0  0
  2  7  2  0  0  0  0
  2  5  1  0  0  0  0
  3  9  1  1  0  0  0
  3  4  1  0  0  0  0
  5  1  1  6  0  0  0
  5  6  1  0  0  0  0
  6  4  1  0  0  0  0
  7  3  1  0  0  0  0
  8 10  1  0  0  0  0
  8  9  2  0  0  0  0
 11 10  1  0  0  0  0
 12 11  1  0  0  0  0
 13 17  1  0  0  0  0
 13 12  1  1  0  0  0
 14 17  1  0  0  0  0
 15 16  1  6  0  0  0
 15 18  1  0  0  0  0
 15 14  1  0  0  0  0
 18 19  1  6  0  0  0
 18 13  1  0  0  0  0
 20 19  1  0  0  0  0
 22  1  1  0  0  0  0
 23 21  2  0  0  0  0
 23 22  1  0  0  0  0
 24 23  1  0  0  0  0
 25 24  1  0  0  0  0
 26 29  1  0  0  0  0
 26 25  1  1  0  0  0
 27 26  1  0  0  0  0
 27 30  1  0  0  0  0
 28 27  2  0  0  0  0
 29 31  1  0  0  0  0
 30 31  1  0  0  0  0
 32 30  1  0  0  0  0
 32 33  1  0  0  0  0
 34 35  1  0  0  0  0
 35 36  1  0  0  0  0
 36 38  1  0  0  0  0
 37 41  1  0  0  0  0
 38 37  2  0  0  0  0
 38 40  1  0  0  0  0
 39 42  1  0  0  0  0
 40 39  2  0  0  0  0
 41 42  2  0  0  0  0
 44 40  1  0  0  0  0
 44 43  2  0  0  0  0
M  END
>  <MODEL>
3

>  <REMARK>
 VINA RESULT:      -7.5      2.929      3.589
  Name = 
  17 active torsions:
  status: ('A' for Active; 'I' for Inactive)
    1  A    between atoms: C_1  and  C_20
    2  A    between atoms: C_2  and  C_11
    3  A    between atoms: C_3  and  C_20
    4  A    between atoms: C_3  and  N_24
    5  A    between atoms: N_7  and  N_24
    6  A    between atoms: C_9  and  N_29
    7  A    between atoms: C_10  and  N_15
    8  A    between atoms: C_10  and  C_37
    9  A    between atoms: C_10  and  C_39
   10  A    between atoms: C_11  and  C_31
   11  A    between atoms: C_18  and  N_34
   12  A    between atoms: C_19  and  C_36
   13  A    between atoms: C_23  and  C_33
   14  A    between atoms: C_30  and  C_35
   15  A    between atoms: C_31  and  C_44
   16  A    between atoms: C_32  and  C_33
   17  A    between atoms: C_32  and  C_37
                            x       y       z     vdW  Elec       q    Type
                         _______ _______ _______ _____ _____    ______ ____

>  <TORSDO>
F 17

$$$$
=
 OpenBabel10222415463D

 44 47  0  0  1  0  0  0  0  0999 V2000
  187.4800  178.2450  141.8200 C   0  0  2  0  0  3  0  0  0  0  0  0
  185.3000  178.9320  140.8030 C   0  0  0  0  0  3  0  0  0  0  0  0
  183.2010  178.3160  142.0050 C   0  0  2  0  0  3  0  0  0  0  0  0
  183.9270  178.7100  143.2920 C   0  0  0  0  0  2  0  0  0  0  0  0
  186.1070  178.8690  142.0780 C   0  0  1  0  0  3  0  0  0  0  0  0
  185.3560  178.1880  143.2310 C   0  0  0  0  0  2  0  0  0  0  0  0
  183.9730  178.7280  140.7770 C   0  0  0  0  0  3  0  0  0  0  0  0
  181.5400  179.7960  142.8090 N   0  0  0  0  0  0  0  0  0  0  0  0
  181.8720  178.9040  141.9680 N   0  0  0  0  0  0  0  0  0  0  0  0
  180.2580  180.3550  142.7670 N   0  0  0  0  0  2  0  0  0  0  0  0
  179.3900  180.1180  141.6250 C   0  0  0  0  0  2  0  0  0  0  0  0
  179.5020  181.2590  140.6210 C   0  0  0  0  0  2  0  0  0  0  0  0
  180.4170  180.8900  139.4600 C   0  0  1  0  0  3  0  0  0  0  0  0
  180.3540  179.3920  137.7840 C   0  0  0  0  0  2  0  0  0  0  0  0
  179.7690  180.6390  137.1790 C   0  0  2  0  0  3  0  0  0  0  0  0
  180.3400  180.8860  135.7860 C   0  0  0  0  0  1  0  0  0  0  0  0
  180.2820  179.5160  139.1810 O   0  0  0  0  0  0  0  0  0  0  0  0
  180.0700  181.7000  138.2200 C   0  0  2  0  0  3  0  0  0  0  0  0
  181.2520  182.6110  137.8900 C   0  0  0  0  0  2  0  0  0  0  0  0
  180.7690  183.9320  137.5290 N   0  0  0  0  0  1  0  0  0  0  0  0
  190.0570  178.1060  140.5780 O   0  0  0  0  0  0  0  0  0  0  0  0
  187.7260  178.1090  140.3890 N   0  0  0  0  0  2  0  0  0  0  0  0
  189.0410  178.0370  139.8350 C   0  0  0  0  0  0  0  0  0  0  0  0
  189.2070  177.8530  138.3690 C   0  0  0  0  0  2  0  0  0  0  0  0
  187.9020  178.1640  137.6610 C   0  0  0  0  0  2  0  0  0  0  0  0
  187.6690  177.1730  136.5330 C   0  0  2  0  0  3  0  0  0  0  0  0
  186.2890  176.7140  136.5660 C   0  0  0  0  0  0  0  0  0  0  0  0
  185.2900  177.3800  136.1810 O   0  0  0  0  0  0  0  0  0  0  0  0
  188.3690  175.8450  136.8410 C   0  0  0  0  0  2  0  0  0  0  0  0
  186.2220  175.3860  137.0230 N   0  0  0  0  0  0  0  0  0  0  0  0
  187.4420  174.9380  137.4230 O   0  0  0  0  0  0  0  0  0  0  0  0
  185.2240  174.4680  136.4960 C   0  0  0  0  0  2  0  0  0  0  0  0
  185.9910  172.8630  136.1260 S   0  0  0  0  0  1  0  0  0  0  0  0
  187.6070  176.8880  142.5080 C   0  0  0  0  0  2  0  0  0  0  0  0
  188.9490  176.7580  143.2070 C   0  0  0  0  0  2  0  0  0  0  0  0
  189.2490  178.0140  144.0090 C   0  0  0  0  0  2  0  0  0  0  0  0
  187.6120  178.0510  145.8850 C   0  0  0  0  0  3  0  0  0  0  0  0
  188.9180  177.7950  145.4510 C   0  0  0  0  0  0  0  0  0  0  0  0
  189.5050  177.0910  147.7000 C   0  0  0  0  0  3  0  0  0  0  0  0
  189.8760  177.3060  146.3650 C   0  0  0  0  0  0  0  0  0  0  0  0
  187.2550  177.8350  147.2180 C   0  0  0  0  0  3  0  0  0  0  0  0
  188.2010  177.3550  148.1260 C   0  0  0  0  0  3  0  0  0  0  0  0
  192.1340  176.6420  146.7500 O   0  0  0  0  0  0  0  0  0  0  0  0
  191.2540  177.0230  145.9330 C   0  0  0  0  0  3  0  0  0  0  0  0
  1 34  1  1  0  0  0
  2  5  1  0  0  0  0
  3  9  1  6  0  0  0
  3  4  1  0  0  0  0
  5  1  1  6  0  0  0
  5  6  1  0  0  0  0
  6  4  1  0  0  0  0
  7  2  2  0  0  0  0
  7  3  1  0  0  0  0
  9  8  2  0  0  0  0
 10  8  1  0  0  0  0
 11 10  1  0  0  0  0
 12 11  1  0  0  0  0
 13 12  1  1  0  0  0
 14 17  1  0  0  0  0
 15 16  1  6  0  0  0
 15 14  1  0  0  0  0
 15 18  1  0  0  0  0
 17 13  1  0  0  0  0
 18 19  1  6  0  0  0
 18 13  1  0  0  0  0
 20 19  1  0  0  0  0
 22  1  1  0  0  0  0
 23 22  1  0  0  0  0
 23 21  2  0  0  0  0
 24 23  1  0  0  0  0
 25 24  1  0  0  0  0
 26 27  1  0  0  0  0
 26 29  1  0  0  0  0
 26 25  1  1  0  0  0
 27 30  1  0  0  0  0
 28 27  2  0  0  0  0
 29 31  1  0  0  0  0
 30 31  1  0  0  0  0
 32 30  1  0  0  0  0
 33 32  1  0  0  0  0
 34 35  1  0  0  0  0
 35 36  1  0  0  0  0
 36 38  1  0  0  0  0
 37 41  1  0  0  0  0
 38 37  2  0  0  0  0
 38 40  1  0  0  0  0
 39 42  1  0  0  0  0
 40 39  2  0  0  0  0
 41 42  2  0  0  0  0
 44 40  1  0  0  0  0
 44 43  2  0  0  0  0
M  END
>  <MODEL>
4

>  <REMARK>
 VINA RESULT:      -7.5      1.966      2.701
  Name = 
  17 active torsions:
  status: ('A' for Active; 'I' for Inactive)
    1  A    between atoms: C_1  and  C_20
    2  A    between atoms: C_2  and  C_11
    3  A    between atoms: C_3  and  C_20
    4  A    between atoms: C_3  and  N_24
    5  A    between atoms: N_7  and  N_24
    6  A    between atoms: C_9  and  N_29
    7  A    between atoms: C_10  and  N_15
    8  A    between atoms: C_10  and  C_37
    9  A    between atoms: C_10  and  C_39
   10  A    between atoms: C_11  and  C_31
   11  A    between atoms: C_18  and  N_34
   12  A    between atoms: C_19  and  C_36
   13  A    between atoms: C_23  and  C_33
   14  A    between atoms: C_30  and  C_35
   15  A    between atoms: C_31  and  C_44
   16  A    between atoms: C_32  and  C_33
   17  A    between atoms: C_32  and  C_37
                            x       y       z     vdW  Elec       q    Type
                         _______ _______ _______ _____ _____    ______ ____

>  <TORSDO>
F 17

$$$$
=
 OpenBabel10222415463D

 44 47  0  0  1  0  0  0  0  0999 V2000
  190.6720  177.3400  138.7370 C   0  0  2  0  0  3  0  0  0  0  0  0
  188.6370  178.6060  138.0200 C   0  0  0  0  0  3  0  0  0  0  0  0
  186.8750  177.3710  136.7530 C   0  0  2  0  0  3  0  0  0  0  0  0
  187.1010  176.2200  137.7350 C   0  0  0  0  0  2  0  0  0  0  0  0
  189.1440  177.3320  138.6530 C   0  0  1  0  0  3  0  0  0  0  0  0
  188.5960  176.0660  137.9780 C   0  0  0  0  0  2  0  0  0  0  0  0
  187.5770  178.6310  137.1960 C   0  0  0  0  0  3  0  0  0  0  0  0
  184.6070  177.0760  137.3560 N   0  0  0  0  0  0  0  0  0  0  0  0
  185.4540  177.6340  136.5920 N   0  0  0  0  0  0  0  0  0  0  0  0
  183.2410  177.3320  137.1930 N   0  0  0  0  0  2  0  0  0  0  0  0
  182.3630  177.3950  138.3510 C   0  0  0  0  0  2  0  0  0  0  0  0
  183.1390  177.0990  139.6280 C   0  0  0  0  0  2  0  0  0  0  0  0
  183.1810  178.3140  140.5470 C   0  0  1  0  0  3  0  0  0  0  0  0
  182.1380  178.9260  142.4420 C   0  0  0  0  0  2  0  0  0  0  0  0
  183.4100  178.2800  142.9200 C   0  0  2  0  0  3  0  0  0  0  0  0
  184.0570  179.1070  144.0270 C   0  0  0  0  0  1  0  0  0  0  0  0
  181.9110  178.5060  141.1220 O   0  0  0  0  0  0  0  0  0  0  0  0
  184.2170  178.1260  141.6460 C   0  0  2  0  0  3  0  0  0  0  0  0
  185.3230  179.1630  141.4530 C   0  0  0  0  0  2  0  0  0  0  0  0
  185.5030  179.4300  140.0370 N   0  0  0  0  0  1  0  0  0  0  0  0
  193.4510  177.1520  138.0690 O   0  0  0  0  0  0  0  0  0  0  0  0
  191.2490  176.4300  137.7540 N   0  0  0  0  0  2  0  0  0  0  0  0
  192.6490  176.3820  137.4750 C   0  0  0  0  0  0  0  0  0  0  0  0
  193.1650  175.3940  136.4910 C   0  0  0  0  0  2  0  0  0  0  0  0
  193.5210  174.1010  137.2010 C   0  0  0  0  0  2  0  0  0  0  0  0
  194.8630  173.5850  136.7090 C   0  0  2  0  0  3  0  0  0  0  0  0
  195.7690  173.4350  137.8370 C   0  0  0  0  0  0  0  0  0  0  0  0
  195.7280  172.5030  138.6840 O   0  0  0  0  0  0  0  0  0  0  0  0
  195.6090  174.6900  135.9500 C   0  0  0  0  0  2  0  0  0  0  0  0
  196.7540  174.4380  137.8150 N   0  0  0  0  0  0  0  0  0  0  0  0
  196.5200  175.3400  136.8250 O   0  0  0  0  0  0  0  0  0  0  0  0
  198.1090  174.1600  138.2690 C   0  0  0  0  0  2  0  0  0  0  0  0
  198.5600  175.2960  139.6120 S   0  0  0  0  0  1  0  0  0  0  0  0
  191.1490  176.9710  140.1400 C   0  0  0  0  0  2  0  0  0  0  0  0
  189.9710  176.7830  141.0800 C   0  0  0  0  0  2  0  0  0  0  0  0
  190.4600  176.3860  142.4640 C   0  0  0  0  0  2  0  0  0  0  0  0
  188.1100  176.7240  143.2140 C   0  0  0  0  0  3  0  0  0  0  0  0
  189.4760  176.8240  143.5020 C   0  0  0  0  0  0  0  0  0  0  0  0
  188.9270  177.6690  145.7110 C   0  0  0  0  0  3  0  0  0  0  0  0
  189.8930  177.2980  144.7640 C   0  0  0  0  0  0  0  0  0  0  0  0
  187.1580  177.0990  144.1650 C   0  0  0  0  0  3  0  0  0  0  0  0
  187.5660  177.5720  145.4140 C   0  0  0  0  0  3  0  0  0  0  0  0
  191.8720  176.6200  145.9090 O   0  0  0  0  0  0  0  0  0  0  0  0
  191.3230  177.4080  145.0940 C   0  0  0  0  0  3  0  0  0  0  0  0
  1 34  1  1  0  0  0
  2  5  1  0  0  0  0
  3  9  1  1  0  0  0
  3  7  1  0  0  0  0
  3  4  1  0  0  0  0
  4  6  1  0  0  0  0
  5  1  1  6  0  0  0
  6  5  1  0  0  0  0
  7  2  2  0  0  0  0
  9  8  2  0  0  0  0
 10  8  1  0  0  0  0
 10 11  1  0  0  0  0
 11 12  1  0  0  0  0
 13 12  1  6  0  0  0
 13 17  1  0  0  0  0
 13 18  1  0  0  0  0
 14 15  1  0  0  0  0
 15 16  1  1  0  0  0
 17 14  1  0  0  0  0
 18 19  1  6  0  0  0
 18 15  1  0  0  0  0
 20 19  1  0  0  0  0
 22  1  1  0  0  0  0
 23 22  1  0  0  0  0
 23 21  2  0  0  0  0
 24 25  1  0  0  0  0
 24 23  1  0  0  0  0
 26 25  1  1  0  0  0
 26 27  1  0  0  0  0
 27 28  2  0  0  0  0
 29 26  1  0  0  0  0
 29 31  1  0  0  0  0
 30 27  1  0  0  0  0
 30 32  1  0  0  0  0
 31 30  1  0  0  0  0
 32 33  1  0  0  0  0
 34 35  1  0  0  0  0
 35 36  1  0  0  0  0
 36 38  1  0  0  0  0
 37 38  2  0  0  0  0
 37 41  1  0  0  0  0
 38 40  1  0  0  0  0
 40 44  1  0  0  0  0
 40 39  2  0  0  0  0
 41 42  2  0  0  0  0
 42 39  1  0  0  0  0
 44 43  2  0  0  0  0
M  END
>  <MODEL>
5

>  <REMARK>
 VINA RESULT:      -7.4      4.179      5.930
  Name = 
  17 active torsions:
  status: ('A' for Active; 'I' for Inactive)
    1  A    between atoms: C_1  and  C_20
    2  A    between atoms: C_2  and  C_11
    3  A    between atoms: C_3  and  C_20
    4  A    between atoms: C_3  and  N_24
    5  A    between atoms: N_7  and  N_24
    6  A    between atoms: C_9  and  N_29
    7  A    between atoms: C_10  and  N_15
    8  A    between atoms: C_10  and  C_37
    9  A    between atoms: C_10  and  C_39
   10  A    between atoms: C_11  and  C_31
   11  A    between atoms: C_18  and  N_34
   12  A    between atoms: C_19  and  C_36
   13  A    between atoms: C_23  and  C_33
   14  A    between atoms: C_30  and  C_35
   15  A    between atoms: C_31  and  C_44
   16  A    between atoms: C_32  and  C_33
   17  A    between atoms: C_32  and  C_37
                            x       y       z     vdW  Elec       q    Type
                         _______ _______ _______ _____ _____    ______ ____

>  <TORSDO>
F 17

$$$$
=
 OpenBabel10222415463D

 44 47  0  0  1  0  0  0  0  0999 V2000
  189.3090  177.4820  138.0170 C   0  0  2  0  0  3  0  0  0  0  0  0
  188.9190  177.7180  140.4760 C   0  0  0  0  0  3  0  0  0  0  0  0
  190.6800  176.8670  142.0290 C   0  0  2  0  0  3  0  0  0  0  0  0
  191.6990  177.4780  141.0660 C   0  0  0  0  0  2  0  0  0  0  0  0
  189.9200  177.8920  139.3590 C   0  0  1  0  0  3  0  0  0  0  0  0
  191.2590  177.1930  139.6360 C   0  0  0  0  0  2  0  0  0  0  0  0
  189.2720  177.2990  141.7020 C   0  0  0  0  0  3  0  0  0  0  0  0
  190.7930  176.3980  144.3450 N   0  0  0  0  0  0  0  0  0  0  0  0
  190.9960  177.2240  143.4020 N   0  0  0  0  0  0  0  0  0  0  0  0
  191.0980  176.7500  145.6640 N   0  0  0  0  0  2  0  0  0  0  0  0
  190.0340  177.0590  146.6050 C   0  0  0  0  0  2  0  0  0  0  0  0
  189.0860  178.0990  146.0200 C   0  0  0  0  0  2  0  0  0  0  0  0
  187.6390  177.6260  146.0760 C   0  0  1  0  0  3  0  0  0  0  0  0
  185.7940  178.2420  147.2040 C   0  0  0  0  0  2  0  0  0  0  0  0
  185.6980  179.0000  145.9070 C   0  0  2  0  0  3  0  0  0  0  0  0
  184.2830  178.9290  145.3410 C   0  0  0  0  0  1  0  0  0  0  0  0
  187.1290  177.8420  147.3710 O   0  0  0  0  0  0  0  0  0  0  0  0
  186.7860  178.3700  145.0590 C   0  0  2  0  0  3  0  0  0  0  0  0
  186.2930  177.3690  144.0150 C   0  0  0  0  0  2  0  0  0  0  0  0
  186.0750  178.0480  142.7490 N   0  0  0  0  0  1  0  0  0  0  0  0
  188.8930  174.7850  137.1470 O   0  0  0  0  0  0  0  0  0  0  0  0
  190.2530  176.6850  137.2410 N   0  0  0  0  0  2  0  0  0  0  0  0
  189.9770  175.3450  136.8320 C   0  0  0  0  0  0  0  0  0  0  0  0
  190.9720  174.6140  136.0030 C   0  0  0  0  0  2  0  0  0  0  0  0
  191.9580  173.8900  136.9030 C   0  0  0  0  0  2  0  0  0  0  0  0
  193.3830  174.2120  136.4850 C   0  0  2  0  0  3  0  0  0  0  0  0
  194.3140  173.4830  137.3310 C   0  0  0  0  0  0  0  0  0  0  0  0
  194.5710  172.2520  137.2400 O   0  0  0  0  0  0  0  0  0  0  0  0
  193.7490  175.6410  136.9050 C   0  0  0  0  0  2  0  0  0  0  0  0
  194.9530  174.3560  138.2290 N   0  0  0  0  0  0  0  0  0  0  0  0
  194.4410  175.6130  138.1460 O   0  0  0  0  0  0  0  0  0  0  0  0
  196.3370  174.1380  138.6210 C   0  0  0  0  0  2  0  0  0  0  0  0
  196.7000  175.0450  140.1520 S   0  0  0  0  0  1  0  0  0  0  0  0
  188.8680  178.7040  137.2150 C   0  0  0  0  0  2  0  0  0  0  0  0
  187.4330  178.5520  136.7410 C   0  0  0  0  0  2  0  0  0  0  0  0
  186.6920  177.5540  137.6170 C   0  0  0  0  0  2  0  0  0  0  0  0
  184.8570  176.9790  136.0350 C   0  0  0  0  0  3  0  0  0  0  0  0
  185.2390  177.5380  137.2610 C   0  0  0  0  0  0  0  0  0  0  0  0
  182.9040  177.9700  137.7690 C   0  0  0  0  0  3  0  0  0  0  0  0
  184.2550  178.0370  138.1410 C   0  0  0  0  0  0  0  0  0  0  0  0
  183.5080  176.9210  135.6760 C   0  0  0  0  0  3  0  0  0  0  0  0
  182.5320  177.4170  136.5420 C   0  0  0  0  0  3  0  0  0  0  0  0
  184.7220  179.8710  139.5910 O   0  0  0  0  0  0  0  0  0  0  0  0
  184.6310  178.6240  139.4360 C   0  0  0  0  0  3  0  0  0  0  0  0
  1 34  1  6  0  0  0
  2  7  2  0  0  0  0
  3  9  1  1  0  0  0
  4  3  1  0  0  0  0
  5  1  1  6  0  0  0
  5  6  1  0  0  0  0
  5  2  1  0  0  0  0
  6  4  1  0  0  0  0
  7  3  1  0  0  0  0
  8 10  1  0  0  0  0
  9  8  2  0  0  0  0
 10 11  1  0  0  0  0
 12 11  1  0  0  0  0
 13 12  1  1  0  0  0
 13 17  1  0  0  0  0
 14 17  1  0  0  0  0
 15 16  1  6  0  0  0
 15 14  1  0  0  0  0
 18 19  1  6  0  0  0
 18 15  1  0  0  0  0
 18 13  1  0  0  0  0
 20 19  1  0  0  0  0
 22  1  1  0  0  0  0
 23 21  2  0  0  0  0
 23 22  1  0  0  0  0
 24 23  1  0  0  0  0
 24 25  1  0  0  0  0
 26 25  1  1  0  0  0
 26 29  1  0  0  0  0
 26 27  1  0  0  0  0
 27 30  1  0  0  0  0
 28 27  2  0  0  0  0
 29 31  1  0  0  0  0
 30 32  1  0  0  0  0
 31 30  1  0  0  0  0
 32 33  1  0  0  0  0
 35 34  1  0  0  0  0
 35 36  1  0  0  0  0
 37 38  1  0  0  0  0
 38 36  1  0  0  0  0
 38 40  2  0  0  0  0
 39 40  1  0  0  0  0
 40 44  1  0  0  0  0
 41 37  2  0  0  0  0
 41 42  1  0  0  0  0
 42 39  2  0  0  0  0
 44 43  2  0  0  0  0
M  END
>  <MODEL>
6

>  <REMARK>
 VINA RESULT:      -7.4      3.832      8.468
  Name = 
  17 active torsions:
  status: ('A' for Active; 'I' for Inactive)
    1  A    between atoms: C_1  and  C_20
    2  A    between atoms: C_2  and  C_11
    3  A    between atoms: C_3  and  C_20
    4  A    between atoms: C_3  and  N_24
    5  A    between atoms: N_7  and  N_24
    6  A    between atoms: C_9  and  N_29
    7  A    between atoms: C_10  and  N_15
    8  A    between atoms: C_10  and  C_37
    9  A    between atoms: C_10  and  C_39
   10  A    between atoms: C_11  and  C_31
   11  A    between atoms: C_18  and  N_34
   12  A    between atoms: C_19  and  C_36
   13  A    between atoms: C_23  and  C_33
   14  A    between atoms: C_30  and  C_35
   15  A    between atoms: C_31  and  C_44
   16  A    between atoms: C_32  and  C_33
   17  A    between atoms: C_32  and  C_37
                            x       y       z     vdW  Elec       q    Type
                         _______ _______ _______ _____ _____    ______ ____

>  <TORSDO>
F 17

$$$$
=
 OpenBabel10222415463D

 44 47  0  0  1  0  0  0  0  0999 V2000
  188.1590  178.3020  141.8090 C   0  0  2  0  0  3  0  0  0  0  0  0
  186.4020  177.9670  143.5580 C   0  0  0  0  0  3  0  0  0  0  0  0
  184.2240  179.1540  143.2730 C   0  0  2  0  0  3  0  0  0  0  0  0
  184.3140  178.7790  141.7930 C   0  0  0  0  0  2  0  0  0  0  0  0
  186.6790  178.0170  142.0740 C   0  0  1  0  0  3  0  0  0  0  0  0
  185.7480  178.9790  141.3210 C   0  0  0  0  0  2  0  0  0  0  0  0
  185.2660  178.4400  144.0960 C   0  0  0  0  0  3  0  0  0  0  0  0
  181.8630  179.1630  143.1270 N   0  0  0  0  0  0  0  0  0  0  0  0
  182.9000  178.8590  143.7950 N   0  0  0  0  0  0  0  0  0  0  0  0
  180.5920  178.8770  143.6380 N   0  0  0  0  0  2  0  0  0  0  0  0
  179.4250  178.9250  142.7710 C   0  0  0  0  0  2  0  0  0  0  0  0
  179.4670  177.7910  141.7530 C   0  0  0  0  0  2  0  0  0  0  0  0
  179.6720  178.3210  140.3400 C   0  0  1  0  0  3  0  0  0  0  0  0
  180.7270  180.0830  139.4260 C   0  0  0  0  0  2  0  0  0  0  0  0
  181.7470  178.9780  139.3670 C   0  0  2  0  0  3  0  0  0  0  0  0
  182.4410  178.9520  138.0080 C   0  0  0  0  0  1  0  0  0  0  0  0
  179.7590  179.7250  140.3770 O   0  0  0  0  0  0  0  0  0  0  0  0
  180.9400  177.7460  139.7250 C   0  0  2  0  0  3  0  0  0  0  0  0
  180.5470  176.8640  138.5400 C   0  0  0  0  0  2  0  0  0  0  0  0
  179.1340  177.0320  138.2490 N   0  0  0  0  0  1  0  0  0  0  0  0
  188.5580  178.9040  139.0380 O   0  0  0  0  0  0  0  0  0  0  0  0
  188.6920  177.3840  140.8100 N   0  0  0  0  0  2  0  0  0  0  0  0
  188.8740  177.7520  139.4420 C   0  0  0  0  0  0  0  0  0  0  0  0
  189.4670  176.7730  138.4940 C   0  0  0  0  0  2  0  0  0  0  0  0
  190.9260  176.5400  138.8410 C   0  0  0  0  0  2  0  0  0  0  0  0
  191.7060  176.1540  137.5960 C   0  0  2  0  0  3  0  0  0  0  0  0
  191.9850  174.7270  137.6200 C   0  0  0  0  0  0  0  0  0  0  0  0
  191.1490  173.8170  137.3730 O   0  0  0  0  0  0  0  0  0  0  0  0
  193.1440  176.6800  137.6860 C   0  0  0  0  0  2  0  0  0  0  0  0
  193.3460  174.4950  137.8890 N   0  0  0  0  0  0  0  0  0  0  0  0
  193.9990  175.6540  138.1720 O   0  0  0  0  0  0  0  0  0  0  0  0
  194.0440  173.3740  137.2790 C   0  0  0  0  0  2  0  0  0  0  0  0
  195.8350  173.5430  137.5330 S   0  0  0  0  0  1  0  0  0  0  0  0
  188.9760  178.2150  143.0960 C   0  0  0  0  0  2  0  0  0  0  0  0
  189.1620  176.7680  143.5220 C   0  0  0  0  0  2  0  0  0  0  0  0
  190.1800  176.6780  144.6480 C   0  0  0  0  0  2  0  0  0  0  0  0
  188.2150  177.5050  145.9350 C   0  0  0  0  0  3  0  0  0  0  0  0
  189.5580  177.1090  145.9380 C   0  0  0  0  0  0  0  0  0  0  0  0
  189.6390  177.4790  148.3370 C   0  0  0  0  0  3  0  0  0  0  0  0
  190.2800  177.0920  147.1510 C   0  0  0  0  0  0  0  0  0  0  0  0
  187.5890  177.8910  147.1220 C   0  0  0  0  0  3  0  0  0  0  0  0
  188.3010  177.8790  148.3240 C   0  0  0  0  0  3  0  0  0  0  0  0
  192.3810  176.7710  148.2310 O   0  0  0  0  0  0  0  0  0  0  0  0
  191.6900  176.6750  147.1820 C   0  0  0  0  0  3  0  0  0  0  0  0
  1 34  1  1  0  0  0
  2  7  2  0  0  0  0
  3  9  1  1  0  0  0
  3  7  1  0  0  0  0
  4  3  1  0  0  0  0
  5  1  1  1  0  0  0
  5  2  1  0  0  0  0
  6  4  1  0  0  0  0
  6  5  1  0  0  0  0
  8 10  1  0  0  0  0
  8  9  2  0  0  0  0
 11 10  1  0  0  0  0
 12 11  1  0  0  0  0
 13 17  1  0  0  0  0
 13 12  1  1  0  0  0
 14 17  1  0  0  0  0
 15 16  1  6  0  0  0
 15 14  1  0  0  0  0
 15 18  1  0  0  0  0
 18 19  1  6  0  0  0
 18 13  1  0  0  0  0
 20 19  1  0  0  0  0
 21 23  2  0  0  0  0
 22  1  1  0  0  0  0
 23 22  1  0  0  0  0
 24 25  1  0  0  0  0
 24 23  1  0  0  0  0
 26 27  1  0  0  0  0
 26 29  1  0  0  0  0
 26 25  1  1  0  0  0
 27 30  1  0  0  0  0
 28 27  2  0  0  0  0
 29 31  1  0  0  0  0
 30 31  1  0  0  0  0
 32 33  1  0  0  0  0
 32 30  1  0  0  0  0
 34 35  1  0  0  0  0
 35 36  1  0  0  0  0
 36 38  1  0  0  0  0
 37 38  2  0  0  0  0
 37 41  1  0  0  0  0
 38 40  1  0  0  0  0
 40 44  1  0  0  0  0
 40 39  2  0  0  0  0
 41 42  2  0  0  0  0
 42 39  1  0  0  0  0
 44 43  2  0  0  0  0
M  END
>  <MODEL>
7

>  <REMARK>
 VINA RESULT:      -7.4      2.556      3.148
  Name = 
  17 active torsions:
  status: ('A' for Active; 'I' for Inactive)
    1  A    between atoms: C_1  and  C_20
    2  A    between atoms: C_2  and  C_11
    3  A    between atoms: C_3  and  C_20
    4  A    between atoms: C_3  and  N_24
    5  A    between atoms: N_7  and  N_24
    6  A    between atoms: C_9  and  N_29
    7  A    between atoms: C_10  and  N_15
    8  A    between atoms: C_10  and  C_37
    9  A    between atoms: C_10  and  C_39
   10  A    between atoms: C_11  and  C_31
   11  A    between atoms: C_18  and  N_34
   12  A    between atoms: C_19  and  C_36
   13  A    between atoms: C_23  and  C_33
   14  A    between atoms: C_30  and  C_35
   15  A    between atoms: C_31  and  C_44
   16  A    between atoms: C_32  and  C_33
   17  A    between atoms: C_32  and  C_37
                            x       y       z     vdW  Elec       q    Type
                         _______ _______ _______ _____ _____    ______ ____

>  <TORSDO>
F 17

$$$$
=
 OpenBabel10222415463D

 44 47  0  0  1  0  0  0  0  0999 V2000
  182.9610  178.7420  140.4470 C   0  0  2  0  0  3  0  0  0  0  0  0
  184.6830  178.5800  142.2540 C   0  0  0  0  0  3  0  0  0  0  0  0
  184.0590  179.3630  144.5410 C   0  0  2  0  0  3  0  0  0  0  0  0
  182.7120  178.6750  144.3130 C   0  0  0  0  0  2  0  0  0  0  0  0
  183.2390  178.3270  141.8940 C   0  0  1  0  0  3  0  0  0  0  0  0
  182.2520  178.9540  142.8890 C   0  0  0  0  0  2  0  0  0  0  0  0
  185.0590  179.0050  143.4710 C   0  0  0  0  0  3  0  0  0  0  0  0
  185.7410  178.4810  145.9520 N   0  0  0  0  0  0  0  0  0  0  0  0
  184.5940  179.0170  145.8480 N   0  0  0  0  0  0  0  0  0  0  0  0
  186.2480  178.1500  147.2130 N   0  0  0  0  0  2  0  0  0  0  0  0
  187.5240  177.4650  147.3340 C   0  0  0  0  0  2  0  0  0  0  0  0
  188.5740  178.1290  146.4520 C   0  0  0  0  0  2  0  0  0  0  0  0
  189.2370  177.1220  145.5210 C   0  0  1  0  0  3  0  0  0  0  0  0
  189.1000  176.6330  143.3310 C   0  0  0  0  0  2  0  0  0  0  0  0
  190.2490  177.6000  143.4160 C   0  0  2  0  0  3  0  0  0  0  0  0
  191.4240  177.1230  142.5680 C   0  0  0  0  0  1  0  0  0  0  0  0
  188.3340  176.7690  144.5000 O   0  0  0  0  0  0  0  0  0  0  0  0
  190.5020  177.7020  144.9080 C   0  0  2  0  0  3  0  0  0  0  0  0
  191.7000  176.9000  145.4160 C   0  0  0  0  0  2  0  0  0  0  0  0
  191.6280  176.7730  146.8600 N   0  0  0  0  0  1  0  0  0  0  0  0
  180.1630  178.7920  139.8390 O   0  0  0  0  0  0  0  0  0  0  0  0
  182.2270  177.6990  139.7410 N   0  0  0  0  0  2  0  0  0  0  0  0
  180.8290  177.7910  139.4620 C   0  0  0  0  0  0  0  0  0  0  0  0
  180.1630  176.7050  138.6960 C   0  0  0  0  0  2  0  0  0  0  0  0
  181.0850  176.2140  137.5940 C   0  0  0  0  0  2  0  0  0  0  0  0
  181.5070  174.7800  137.8650 C   0  0  2  0  0  3  0  0  0  0  0  0
  182.7330  174.4880  137.1390 C   0  0  0  0  0  0  0  0  0  0  0  0
  183.8840  174.8830  137.4660 O   0  0  0  0  0  0  0  0  0  0  0  0
  180.5660  173.8060  137.1450 C   0  0  0  0  0  2  0  0  0  0  0  0
  182.4710  173.6370  136.0500 N   0  0  0  0  0  0  0  0  0  0  0  0
  181.1370  173.4200  135.9010 O   0  0  0  0  0  0  0  0  0  0  0  0
  183.4420  172.6340  135.6400 C   0  0  0  0  0  2  0  0  0  0  0  0
  183.2220  171.1190  136.6190 S   0  0  0  0  0  1  0  0  0  0  0  0
  184.2570  179.0690  139.7090 C   0  0  0  0  0  2  0  0  0  0  0  0
  184.6890  177.9050  138.8330 C   0  0  0  0  0  2  0  0  0  0  0  0
  185.7350  178.3620  137.8290 C   0  0  0  0  0  2  0  0  0  0  0  0
  187.5930  178.2640  139.4850 C   0  0  0  0  0  3  0  0  0  0  0  0
  187.0880  177.8730  138.2390 C   0  0  0  0  0  0  0  0  0  0  0  0
  189.0930  176.5540  137.8640 C   0  0  0  0  0  3  0  0  0  0  0  0
  187.8420  177.0060  137.4190 C   0  0  0  0  0  0  0  0  0  0  0  0
  188.8410  177.8090  139.9160 C   0  0  0  0  0  3  0  0  0  0  0  0
  189.5920  176.9550  139.1060 C   0  0  0  0  0  3  0  0  0  0  0  0
  187.6530  177.1770  135.0480 O   0  0  0  0  0  0  0  0  0  0  0  0
  187.3320  176.5760  136.1070 C   0  0  0  0  0  3  0  0  0  0  0  0
  1 34  1  6  0  0  0
  2  7  2  0  0  0  0
  3  9  1  1  0  0  0
  4  3  1  0  0  0  0
  5  1  1  6  0  0  0
  5  2  1  0  0  0  0
  5  6  1  0  0  0  0
  6  4  1  0  0  0  0
  7  3  1  0  0  0  0
  8 10  1  0  0  0  0
  9  8  2  0  0  0  0
 10 11  1  0  0  0  0
 12 11  1  0  0  0  0
 13 12  1  1  0  0  0
 14 15  1  0  0  0  0
 14 17  1  0  0  0  0
 15 16  1  6  0  0  0
 15 18  1  0  0  0  0
 17 13  1  0  0  0  0
 18 19  1  6  0  0  0
 18 13  1  0  0  0  0
 19 20  1  0  0  0  0
 22  1  1  0  0  0  0
 23 22  1  0  0  0  0
 23 21  2  0  0  0  0
 24 23  1  0  0  0  0
 25 24  1  0  0  0  0
 26 25  1  6  0  0  0
 27 28  2  0  0  0  0
 27 26  1  0  0  0  0
 29 26  1  0  0  0  0
 30 27  1  0  0  0  0
 31 30  1  0  0  0  0
 31 29  1  0  0  0  0
 32 30  1  0  0  0  0
 32 33  1  0  0  0  0
 35 34  1  0  0  0  0
 36 38  1  0  0  0  0
 36 35  1  0  0  0  0
 37 41  1  0  0  0  0
 38 37  2  0  0  0  0
 39 42  1  0  0  0  0
 40 39  2  0  0  0  0
 40 38  1  0  0  0  0
 42 41  2  0  0  0  0
 43 44  2  0  0  0  0
 44 40  1  0  0  0  0
M  END
>  <MODEL>
8

>  <REMARK>
 VINA RESULT:      -7.2      2.841      8.196
  Name = 
  17 active torsions:
  status: ('A' for Active; 'I' for Inactive)
    1  A    between atoms: C_1  and  C_20
    2  A    between atoms: C_2  and  C_11
    3  A    between atoms: C_3  and  C_20
    4  A    between atoms: C_3  and  N_24
    5  A    between atoms: N_7  and  N_24
    6  A    between atoms: C_9  and  N_29
    7  A    between atoms: C_10  and  N_15
    8  A    between atoms: C_10  and  C_37
    9  A    between atoms: C_10  and  C_39
   10  A    between atoms: C_11  and  C_31
   11  A    between atoms: C_18  and  N_34
   12  A    between atoms: C_19  and  C_36
   13  A    between atoms: C_23  and  C_33
   14  A    between atoms: C_30  and  C_35
   15  A    between atoms: C_31  and  C_44
   16  A    between atoms: C_32  and  C_33
   17  A    between atoms: C_32  and  C_37
                            x       y       z     vdW  Elec       q    Type
                         _______ _______ _______ _____ _____    ______ ____

>  <TORSDO>
F 17

$$$$
=
 OpenBabel10222415463D

 44 47  0  0  1  0  0  0  0  0999 V2000
  187.3040  178.2260  141.7710 C   0  0  2  0  0  3  0  0  0  0  0  0
  185.1230  178.7660  140.6720 C   0  0  0  0  0  3  0  0  0  0  0  0
  183.0290  178.4040  141.9830 C   0  0  2  0  0  3  0  0  0  0  0  0
  183.7770  179.0010  143.1760 C   0  0  0  0  0  2  0  0  0  0  0  0
  185.9440  178.9090  141.9310 C   0  0  1  0  0  3  0  0  0  0  0  0
  185.1970  178.4500  143.1920 C   0  0  0  0  0  2  0  0  0  0  0  0
  183.7930  178.5850  140.6950 C   0  0  0  0  0  3  0  0  0  0  0  0
  181.3260  179.8930  142.6760 N   0  0  0  0  0  0  0  0  0  0  0  0
  181.7090  179.0000  141.8580 N   0  0  0  0  0  0  0  0  0  0  0  0
  180.0540  180.4600  142.5500 N   0  0  0  0  0  2  0  0  0  0  0  0
  179.2700  180.2430  141.3450 C   0  0  0  0  0  2  0  0  0  0  0  0
  179.1280  181.5410  140.5580 C   0  0  0  0  0  2  0  0  0  0  0  0
  180.1550  181.6260  139.4370 C   0  0  1  0  0  3  0  0  0  0  0  0
  180.9310  180.2190  137.8630 C   0  0  0  0  0  2  0  0  0  0  0  0
  179.8250  180.9690  137.1690 C   0  0  2  0  0  3  0  0  0  0  0  0
  180.2580  181.4000  135.7700 C   0  0  0  0  0  1  0  0  0  0  0  0
  180.7430  180.3610  139.2470 O   0  0  0  0  0  0  0  0  0  0  0  0
  179.5050  182.0880  138.1410 C   0  0  2  0  0  3  0  0  0  0  0  0
  180.0820  183.4520  137.7680 C   0  0  0  0  0  2  0  0  0  0  0  0
  179.2750  184.5050  138.3580 N   0  0  0  0  0  1  0  0  0  0  0  0
  189.0770  179.0580  139.6820 O   0  0  0  0  0  0  0  0  0  0  0  0
  187.4190  177.6030  140.4580 N   0  0  0  0  0  2  0  0  0  0  0  0
  188.3330  178.0650  139.4620 C   0  0  0  0  0  0  0  0  0  0  0  0
  188.4230  177.3480  138.1630 C   0  0  0  0  0  2  0  0  0  0  0  0
  189.8270  177.4780  137.6010 C   0  0  0  0  0  2  0  0  0  0  0  0
  190.5600  176.1510  137.7100 C   0  0  2  0  0  3  0  0  0  0  0  0
  191.9790  176.3950  137.9160 C   0  0  0  0  0  0  0  0  0  0  0  0
  192.5040  176.7690  138.9990 O   0  0  0  0  0  0  0  0  0  0  0  0
  190.6310  175.4710  136.3370 C   0  0  0  0  0  2  0  0  0  0  0  0
  192.7060  176.0860  136.7520 N   0  0  0  0  0  0  0  0  0  0  0  0
  191.8790  175.7650  135.7220 O   0  0  0  0  0  0  0  0  0  0  0  0
  194.0450  175.5230  136.8400 C   0  0  0  0  0  2  0  0  0  0  0  0
  193.9570  173.7940  137.3880 S   0  0  0  0  0  1  0  0  0  0  0  0
  187.5320  177.1880  142.8690 C   0  0  0  0  0  2  0  0  0  0  0  0
  189.0150  177.0010  143.1380 C   0  0  0  0  0  2  0  0  0  0  0  0
  189.5210  178.0840  144.0770 C   0  0  0  0  0  2  0  0  0  0  0  0
  187.7860  178.1530  145.8620 C   0  0  0  0  0  3  0  0  0  0  0  0
  189.0840  177.7950  145.4780 C   0  0  0  0  0  0  0  0  0  0  0  0
  189.4620  176.8710  147.6910 C   0  0  0  0  0  3  0  0  0  0  0  0
  189.9320  177.1440  146.3980 C   0  0  0  0  0  0  0  0  0  0  0  0
  187.3300  177.8780  147.1530 C   0  0  0  0  0  3  0  0  0  0  0  0
  188.1680  177.2370  148.0680 C   0  0  0  0  0  3  0  0  0  0  0  0
  192.1470  176.4030  146.8810 O   0  0  0  0  0  0  0  0  0  0  0  0
  191.2980  176.7520  146.0180 C   0  0  0  0  0  3  0  0  0  0  0  0
  1 34  1  1  0  0  0
  2  7  2  0  0  0  0
  2  5  1  0  0  0  0
  3  9  1  6  0  0  0
  3  4  1  0  0  0  0
  4  6  1  0  0  0  0
  5  1  1  6  0  0  0
  5  6  1  0  0  0  0
  7  3  1  0  0  0  0
  9  8  2  0  0  0  0
 10  8  1  0  0  0  0
 11 10  1  0  0  0  0
 12 11  1  0  0  0  0
 13 12  1  1  0  0  0
 14 17  1  0  0  0  0
 15 16  1  6  0  0  0
 15 14  1  0  0  0  0
 15 18  1  0  0  0  0
 17 13  1  0  0  0  0
 18 19  1  6  0  0  0
 18 13  1  0  0  0  0
 19 20  1  0  0  0  0
 22  1  1  0  0  0  0
 23 21  2  0  0  0  0
 23 22  1  0  0  0  0
 24 23  1  0  0  0  0
 25 24  1  0  0  0  0
 26 25  1  6  0  0  0
 26 27  1  0  0  0  0
 27 28  2  0  0  0  0
 29 26  1  0  0  0  0
 30 32  1  0  0  0  0
 30 27  1  0  0  0  0
 31 29  1  0  0  0  0
 31 30  1  0  0  0  0
 32 33  1  0  0  0  0
 34 35  1  0  0  0  0
 35 36  1  0  0  0  0
 36 38  1  0  0  0  0
 37 41  1  0  0  0  0
 38 37  2  0  0  0  0
 38 40  1  0  0  0  0
 39 42  1  0  0  0  0
 40 39  2  0  0  0  0
 41 42  2  0  0  0  0
 44 40  1  0  0  0  0
 44 43  2  0  0  0  0
M  END
>  <MODEL>
9

>  <REMARK>
 VINA RESULT:      -7.2      2.719      3.633
  Name = 
  17 active torsions:
  status: ('A' for Active; 'I' for Inactive)
    1  A    between atoms: C_1  and  C_20
    2  A    between atoms: C_2  and  C_11
    3  A    between atoms: C_3  and  C_20
    4  A    between atoms: C_3  and  N_24
    5  A    between atoms: N_7  and  N_24
    6  A    between atoms: C_9  and  N_29
    7  A    between atoms: C_10  and  N_15
    8  A    between atoms: C_10  and  C_37
    9  A    between atoms: C_10  and  C_39
   10  A    between atoms: C_11  and  C_31
   11  A    between atoms: C_18  and  N_34
   12  A    between atoms: C_19  and  C_36
   13  A    between atoms: C_23  and  C_33
   14  A    between atoms: C_30  and  C_35
   15  A    between atoms: C_31  and  C_44
   16  A    between atoms: C_32  and  C_33
   17  A    between atoms: C_32  and  C_37
                            x       y       z     vdW  Elec       q    Type
                         _______ _______ _______ _____ _____    ______ ____

>  <TORSDO>
F 17

$$$$
