=
 OpenBabel10222416323D

 57 62  0  0  1  0  0  0  0  0999 V2000
  183.8010  178.5930  143.2400 C   0  0  1  0  0  3  0  0  0  0  0  0
  184.7240  179.1120  142.1220 C   0  0  1  0  0  3  0  0  0  0  0  0
  185.2530  178.7620  139.6980 C   0  0  0  0  0  0  0  0  0  0  0  0
  185.8350  178.1010  141.8250 C   0  0  1  0  0  3  0  0  0  0  0  0
  185.4230  178.9790  138.2970 N   0  0  0  0  0  2  0  0  0  0  0  0
  186.1590  178.1890  140.4130 N   0  0  0  0  0  0  0  0  0  0  0  0
  183.8170  179.3620  140.5550 S   0  0  0  0  0  0  0  0  0  0  0  0
  187.0700  178.3060  142.6980 C   0  0  0  0  0  2  0  0  0  0  0  0
  187.5400  177.0210  143.3700 C   0  0  0  0  0  2  0  0  0  0  0  0
  191.0630  176.2500  142.7960 O   0  0  0  0  0  0  0  0  0  0  0  0
  190.0490  176.7550  143.3460 C   0  0  0  0  0  0  0  0  0  0  0  0
  188.7690  176.5730  142.7420 N   0  0  0  0  0  2  0  0  0  0  0  0
  190.2010  177.5630  144.5990 C   0  0  1  0  0  3  0  0  0  0  0  0
  189.2120  177.1160  145.6860 C   0  0  0  0  0  2  0  0  0  0  0  0
  189.7840  177.3950  147.0000 N   0  0  0  0  0  0  0  0  0  0  0  0
  191.8550  176.4490  145.9750 C   0  0  0  0  0  2  0  0  0  0  0  0
  190.9390  176.5130  147.2110 C   0  0  0  0  0  2  0  0  0  0  0  0
  191.5970  177.5710  145.0630 N   0  0  0  0  0  2  0  0  0  0  0  0
  188.7820  177.0460  147.9970 C   0  0  0  0  0  2  0  0  0  0  0  0
  186.5870  177.2090  147.0770 O   0  0  0  0  0  0  0  0  0  0  0  0
  187.5140  177.7770  147.7140 C   0  0  0  0  0  0  0  0  0  0  0  0
  187.3830  179.1030  148.0940 O   0  0  0  0  0  1  0  0  0  0  0  0
  186.5290  178.4670  137.6050 N   0  0  0  0  0  2  0  0  0  0  0  0
  186.0950  177.2300  136.9690 C   0  0  0  0  0  2  0  0  0  0  0  0
  188.1420  176.0150  137.6470 O   0  0  0  0  0  0  0  0  0  0  0  0
  187.2690  176.3430  136.7290 C   0  0  0  0  0  0  0  0  0  0  0  0
  187.6030  175.7850  135.5150 C   0  0  0  0  0  3  0  0  0  0  0  0
  189.0570  175.2440  137.1070 C   0  0  0  0  0  3  0  0  0  0  0  0
  188.7620  175.0680  135.7640 C   0  0  0  0  0  3  0  0  0  0  0  0
  184.5350  178.3480  144.5370 C   0  0  0  0  0  3  0  0  0  0  0  0
  184.8670  179.3310  145.3730 C   0  0  0  0  0  2  0  0  0  0  0  0
  182.5260  179.4240  143.4530 C   0  0  0  0  0  2  0  0  0  0  0  0
  181.2980  178.5760  143.6460 C   0  0  0  0  0  3  0  0  0  0  0  0
  180.1530  178.8110  142.9930 C   0  0  0  0  0  3  0  0  0  0  0  0
  180.0070  179.9300  142.0100 C   0  0  0  0  0  2  0  0  0  0  0  0
  179.2260  179.4640  140.8010 C   0  0  0  0  0  2  0  0  0  0  0  0
  180.0700  177.6450  139.2850 C   0  0  1  0  0  3  0  0  0  0  0  0
  180.1210  180.0580  138.4380 C   0  0  2  0  0  3  0  0  0  0  0  0
  180.2490  178.2860  136.8150 C   0  0  2  0  0  3  0  0  0  0  0  0
  181.4340  178.8020  135.9960 C   0  0  0  0  0  2  0  0  0  0  0  0
  181.7250  177.8700  134.8260 C   0  0  0  0  0  2  0  0  0  0  0  0
  182.4220  175.8400  136.2380 C   0  0  0  0  0  2  0  0  0  0  0  0
  181.0380  175.5990  136.2290 O   0  0  0  0  0  0  0  0  0  0  0  0
  182.8080  176.8370  135.1410 C   0  0  0  0  0  2  0  0  0  0  0  0
  179.4380  179.4040  137.3210 N   0  0  0  0  0  2  0  0  0  0  0  0
  180.2050  179.1290  139.6780 C   0  0  1  0  0  3  0  0  0  0  0  0
  180.7400  177.3430  137.9320 C   0  0  2  0  0  3  0  0  0  0  0  0
  180.5740  175.8670  137.5350 C   0  0  0  0  0  2  0  0  0  0  0  0
  180.4480  176.7550  140.3210 O   0  0  0  0  0  0  0  0  0  0  0  0
  179.3270  175.9930  140.7040 C   0  0  0  0  0  1  0  0  0  0  0  0
  179.5000  181.4220  138.7000 C   0  0  0  0  0  2  0  0  0  0  0  0
  180.4760  182.4800  138.4730 N   0  0  0  0  0  2  0  0  0  0  0  0
  180.0210  183.2590  137.3220 C   0  0  2  0  0  3  0  0  0  0  0  0
  182.3030  184.2820  137.5980 F   0  0  0  0  0  0  0  0  0  0  0  0
  181.1000  184.2410  136.9090 C   0  0  2  0  0  0  0  0  0  0  0  0
  179.9080  184.7440  137.6820 C   0  0  0  0  0  2  0  0  0  0  0  0
  181.0950  184.6230  135.5660 O   0  0  0  0  0  1  0  0  0  0  0  0
  1 32  1  1  0  0  0
  1 30  1  0  0  0  0
  2  1  1  1  0  0  0
  3  6  2  0  0  0  0
  3  7  1  0  0  0  0
  4  2  1  0  0  0  0
  4  8  1  1  0  0  0
  5  3  1  0  0  0  0
  6  4  1  0  0  0  0
  7  2  1  0  0  0  0
  8  9  1  0  0  0  0
 10 11  2  0  0  0  0
 12 11  1  0  0  0  0
 12  9  1  0  0  0  0
 13 11  1  6  0  0  0
 13 18  1  0  0  0  0
 13 14  1  0  0  0  0
 14 15  1  0  0  0  0
 15 17  1  0  0  0  0
 15 19  1  0  0  0  0
 16 17  1  0  0  0  0
 18 16  1  0  0  0  0
 20 21  2  0  0  0  0
 21 19  1  0  0  0  0
 21 22  1  0  0  0  0
 23  5  1  0  0  0  0
 24 23  1  0  0  0  0
 26 24  1  0  0  0  0
 26 25  1  0  0  0  0
 27 29  1  0  0  0  0
 27 26  2  0  0  0  0
 28 25  1  0  0  0  0
 29 28  2  0  0  0  0
 30 31  2  0  0  0  0
 32 33  1  0  0  0  0
 34 33  2  0  0  0  0
 35 34  1  0  0  0  0
 36 35  1  0  0  0  0
 37 46  1  0  0  0  0
 37 49  1  1  0  0  0
 38 51  1  1  0  0  0
 38 46  1  0  0  0  0
 39 40  1  1  0  0  0
 39 45  1  0  0  0  0
 39 47  1  0  0  0  0
 41 44  1  0  0  0  0
 41 40  1  0  0  0  0
 43 42  1  0  0  0  0
 43 48  1  0  0  0  0
 44 42  1  0  0  0  0
 45 38  1  0  0  0  0
 46 36  1  1  0  0  0
 47 48  1  6  0  0  0
 47 37  1  0  0  0  0
 49 50  1  0  0  0  0
 52 51  1  0  0  0  0
 53 56  1  0  0  0  0
 53 52  1  1  0  0  0
 55 57  1  6  0  0  0
 55 53  1  0  0  0  0
 55 54  1  0  0  0  0
 55 56  1  0  0  0  0
M  END
>  <MODEL>
1

>  <REMARK>
 VINA RESULT:      -7.0      0.000      0.000
  Name = 
  20 active torsions:
  status: ('A' for Active; 'I' for Inactive)
    1  A    between atoms: C_1  and  N_13
    2  A    between atoms: C_1  and  C_28
    3  A    between atoms: C_2  and  C_34
    4  A    between atoms: C_3  and  O_9
    5  A    between atoms: C_4  and  C_32
    6  A    between atoms: C_5  and  C_56
    7  A    between atoms: C_7  and  N_51
    8  A    between atoms: N_11  and  C_45
    9  A    between atoms: N_13  and  N_23
   10  A    between atoms: C_14  and  C_29
   11  A    between atoms: C_14  and  N_35
   12  A    between atoms: C_17  and  C_29
   13  A    between atoms: C_19  and  C_21
   14  A    between atoms: C_19  and  C_54
   15  A    between atoms: C_21  and  C_39
   16  A    between atoms: C_25  and  C_34
   17  A    between atoms: C_34  and  C_42
   18  A    between atoms: C_36  and  C_42
   19  A    between atoms: C_45  and  C_46
   20  A    between atoms: N_51  and  C_56
                            x       y       z     vdW  Elec       q    Type
                         _______ _______ _______ _____ _____    ______ ____

>  <TORSDO>
F 20

$$$$
=
 OpenBabel10222416323D

 57 62  0  0  1  0  0  0  0  0999 V2000
  188.6480  176.6780  137.4780 C   0  0  1  0  0  3  0  0  0  0  0  0
  190.1760  176.5190  137.3680 C   0  0  1  0  0  3  0  0  0  0  0  0
  191.9460  174.7730  137.0570 C   0  0  0  0  0  0  0  0  0  0  0  0
  190.7510  175.9210  138.6550 C   0  0  1  0  0  3  0  0  0  0  0  0
  193.0300  174.0150  136.5200 N   0  0  0  0  0  2  0  0  0  0  0  0
  191.9000  175.1080  138.3000 N   0  0  0  0  0  0  0  0  0  0  0  0
  190.6440  175.3840  136.0130 S   0  0  0  0  0  0  0  0  0  0  0  0
  191.1120  176.9830  139.6900 C   0  0  0  0  0  2  0  0  0  0  0  0
  190.2660  176.8890  140.9550 C   0  0  0  0  0  2  0  0  0  0  0  0
  187.2190  178.7510  141.7210 O   0  0  0  0  0  0  0  0  0  0  0  0
  188.1440  177.9080  141.8630 C   0  0  0  0  0  0  0  0  0  0  0  0
  189.1070  177.7500  140.8210 N   0  0  0  0  0  2  0  0  0  0  0  0
  188.2040  177.0640  143.1000 C   0  0  1  0  0  3  0  0  0  0  0  0
  189.0790  177.7080  144.1850 C   0  0  0  0  0  2  0  0  0  0  0  0
  188.6090  177.2800  145.5000 N   0  0  0  0  0  0  0  0  0  0  0  0
  186.3590  177.7380  144.5190 C   0  0  0  0  0  2  0  0  0  0  0  0
  187.2850  177.8650  145.7420 C   0  0  0  0  0  2  0  0  0  0  0  0
  186.8550  176.7230  143.5800 N   0  0  0  0  0  2  0  0  0  0  0  0
  189.5190  177.8330  146.4920 C   0  0  0  0  0  2  0  0  0  0  0  0
  190.6620  175.9600  147.4270 O   0  0  0  0  0  1  0  0  0  0  0  0
  190.7050  176.9430  146.6400 C   0  0  0  0  0  0  0  0  0  0  0  0
  191.8780  177.2380  145.9630 O   0  0  0  0  0  0  0  0  0  0  0  0
  194.0360  173.4890  137.3430 N   0  0  0  0  0  2  0  0  0  0  0  0
  194.7080  172.4480  136.5770 C   0  0  0  0  0  2  0  0  0  0  0  0
  197.0010  171.5180  136.6300 O   0  0  0  0  0  0  0  0  0  0  0  0
  196.1790  172.5230  136.7990 C   0  0  0  0  0  0  0  0  0  0  0  0
  196.8570  173.6400  137.2370 C   0  0  0  0  0  3  0  0  0  0  0  0
  198.2170  171.9100  136.9270 C   0  0  0  0  0  3  0  0  0  0  0  0
  198.1810  173.2410  137.3150 C   0  0  0  0  0  3  0  0  0  0  0  0
  188.2080  178.1220  137.4640 C   0  0  0  0  0  3  0  0  0  0  0  0
  189.0050  179.1130  137.0660 C   0  0  0  0  0  2  0  0  0  0  0  0
  187.8440  175.8250  136.4840 C   0  0  0  0  0  2  0  0  0  0  0  0
  186.6700  175.1310  137.1200 C   0  0  0  0  0  3  0  0  0  0  0  0
  185.4160  175.5860  137.0030 C   0  0  0  0  0  3  0  0  0  0  0  0
  185.0820  176.8170  136.2210 C   0  0  0  0  0  2  0  0  0  0  0  0
  183.5810  176.9890  136.1370 C   0  0  0  0  0  2  0  0  0  0  0  0
  182.6370  178.3730  138.0110 C   0  0  1  0  0  3  0  0  0  0  0  0
  181.8110  175.9680  137.7370 C   0  0  2  0  0  3  0  0  0  0  0  0
  180.4620  177.4880  139.0250 C   0  0  2  0  0  3  0  0  0  0  0  0
  180.2120  176.6030  140.2470 C   0  0  0  0  0  2  0  0  0  0  0  0
  179.3120  177.3140  141.2520 C   0  0  0  0  0  2  0  0  0  0  0  0
  180.9560  179.2030  141.8270 C   0  0  0  0  0  2  0  0  0  0  0  0
  180.3640  179.8020  140.7040 O   0  0  0  0  0  0  0  0  0  0  0  0
  180.0970  178.0440  142.3430 C   0  0  0  0  0  2  0  0  0  0  0  0
  180.5320  176.6770  137.7990 N   0  0  0  0  0  2  0  0  0  0  0  0
  182.9980  176.9470  137.5480 C   0  0  1  0  0  3  0  0  0  0  0  0
  181.7130  178.3620  139.2430 C   0  0  2  0  0  3  0  0  0  0  0  0
  181.3340  179.7870  139.6790 C   0  0  0  0  0  2  0  0  0  0  0  0
  183.7650  179.2190  138.1500 O   0  0  0  0  0  0  0  0  0  0  0  0
  184.5670  178.7450  139.2070 C   0  0  0  0  0  1  0  0  0  0  0  0
  181.7340  174.8480  136.7090 C   0  0  0  0  0  2  0  0  0  0  0  0
  182.0750  173.5690  137.3200 N   0  0  0  0  0  2  0  0  0  0  0  0
  182.3280  172.6180  136.2390 C   0  0  2  0  0  3  0  0  0  0  0  0
  184.3160  172.0890  137.6870 F   0  0  0  0  0  0  0  0  0  0  0  0
  183.5990  171.8440  136.5250 C   0  0  2  0  0  0  0  0  0  0  0  0
  183.6330  172.9590  135.5110 C   0  0  0  0  0  2  0  0  0  0  0  0
  183.6790  170.5710  135.9570 O   0  0  0  0  0  1  0  0  0  0  0  0
  1 32  1  6  0  0  0
  2  1  1  1  0  0  0
  2  4  1  0  0  0  0
  3  6  2  0  0  0  0
  4  8  1  1  0  0  0
  5  3  1  0  0  0  0
  5 23  1  0  0  0  0
  6  4  1  0  0  0  0
  7  3  1  0  0  0  0
  7  2  1  0  0  0  0
  8  9  1  0  0  0  0
 10 11  2  0  0  0  0
 12  9  1  0  0  0  0
 12 11  1  0  0  0  0
 13 11  1  6  0  0  0
 13 18  1  0  0  0  0
 13 14  1  0  0  0  0
 14 15  1  0  0  0  0
 15 17  1  0  0  0  0
 15 19  1  0  0  0  0
 16 17  1  0  0  0  0
 18 16  1  0  0  0  0
 19 21  1  0  0  0  0
 21 20  1  0  0  0  0
 22 21  2  0  0  0  0
 24 26  1  0  0  0  0
 24 23  1  0  0  0  0
 25 26  1  0  0  0  0
 25 28  1  0  0  0  0
 26 27  2  0  0  0  0
 27 29  1  0  0  0  0
 28 29  2  0  0  0  0
 30  1  1  0  0  0  0
 31 30  2  0  0  0  0
 32 33  1  0  0  0  0
 34 33  2  0  0  0  0
 35 34  1  0  0  0  0
 36 35  1  0  0  0  0
 37 49  1  1  0  0  0
 37 47  1  0  0  0  0
 38 51  1  6  0  0  0
 38 45  1  0  0  0  0
 39 47  1  0  0  0  0
 39 40  1  1  0  0  0
 40 41  1  0  0  0  0
 41 44  1  0  0  0  0
 42 44  1  0  0  0  0
 43 42  1  0  0  0  0
 45 39  1  0  0  0  0
 46 36  1  6  0  0  0
 46 38  1  0  0  0  0
 46 37  1  0  0  0  0
 47 48  1  6  0  0  0
 48 43  1  0  0  0  0
 49 50  1  0  0  0  0
 51 52  1  0  0  0  0
 53 55  1  0  0  0  0
 53 52  1  1  0  0  0
 55 57  1  6  0  0  0
 55 54  1  0  0  0  0
 56 53  1  0  0  0  0
 56 55  1  0  0  0  0
M  END
>  <MODEL>
2

>  <REMARK>
 VINA RESULT:      -6.8      4.498      7.404
  Name = 
  20 active torsions:
  status: ('A' for Active; 'I' for Inactive)
    1  A    between atoms: C_1  and  N_13
    2  A    between atoms: C_1  and  C_28
    3  A    between atoms: C_2  and  C_34
    4  A    between atoms: C_3  and  O_9
    5  A    between atoms: C_4  and  C_32
    6  A    between atoms: C_5  and  C_56
    7  A    between atoms: C_7  and  N_51
    8  A    between atoms: N_11  and  C_45
    9  A    between atoms: N_13  and  N_23
   10  A    between atoms: C_14  and  C_29
   11  A    between atoms: C_14  and  N_35
   12  A    between atoms: C_17  and  C_29
   13  A    between atoms: C_19  and  C_21
   14  A    between atoms: C_19  and  C_54
   15  A    between atoms: C_21  and  C_39
   16  A    between atoms: C_25  and  C_34
   17  A    between atoms: C_34  and  C_42
   18  A    between atoms: C_36  and  C_42
   19  A    between atoms: C_45  and  C_46
   20  A    between atoms: N_51  and  C_56
                            x       y       z     vdW  Elec       q    Type
                         _______ _______ _______ _____ _____    ______ ____

>  <TORSDO>
F 20

$$$$
=
 OpenBabel10222416323D

 57 62  0  0  1  0  0  0  0  0999 V2000
  185.3740  178.0790  143.8900 C   0  0  1  0  0  3  0  0  0  0  0  0
  186.4370  177.3790  143.0230 C   0  0  1  0  0  3  0  0  0  0  0  0
  188.8540  176.7150  143.0420 C   0  0  0  0  0  0  0  0  0  0  0  0
  187.4110  178.4010  142.4310 C   0  0  1  0  0  3  0  0  0  0  0  0
  190.0520  175.9390  143.0200 N   0  0  0  0  0  2  0  0  0  0  0  0
  188.7140  177.7710  142.3190 N   0  0  0  0  0  0  0  0  0  0  0  0
  187.4450  176.2070  144.0000 S   0  0  0  0  0  0  0  0  0  0  0  0
  186.9400  178.9600  141.0910 C   0  0  0  0  0  2  0  0  0  0  0  0
  187.8620  178.5850  139.9370 C   0  0  0  0  0  2  0  0  0  0  0  0
  187.3030  175.9450  137.4750 O   0  0  0  0  0  0  0  0  0  0  0  0
  187.9020  176.8690  138.0870 C   0  0  0  0  0  0  0  0  0  0  0  0
  187.2100  177.5890  139.1070 N   0  0  0  0  0  2  0  0  0  0  0  0
  189.3110  177.2210  137.7180 C   0  0  1  0  0  3  0  0  0  0  0  0
  190.2020  175.9730  137.6250 C   0  0  0  0  0  2  0  0  0  0  0  0
  191.2810  176.2220  136.6720 N   0  0  0  0  0  0  0  0  0  0  0  0
  189.4440  177.2080  135.2990 C   0  0  0  0  0  2  0  0  0  0  0  0
  190.7070  176.3290  135.3250 C   0  0  0  0  0  2  0  0  0  0  0  0
  189.3540  178.0470  136.5010 N   0  0  0  0  0  2  0  0  0  0  0  0
  192.1530  175.0560  136.6840 C   0  0  0  0  0  2  0  0  0  0  0  0
  194.4730  174.6190  137.0170 O   0  0  0  0  0  0  0  0  0  0  0  0
  193.5450  175.4700  137.0140 C   0  0  0  0  0  0  0  0  0  0  0  0
  193.8050  176.7810  137.3840 O   0  0  0  0  0  1  0  0  0  0  0  0
  191.1830  176.3560  142.3070 N   0  0  0  0  0  2  0  0  0  0  0  0
  191.8820  177.3200  143.1470 C   0  0  0  0  0  2  0  0  0  0  0  0
  192.1290  175.8190  145.0990 O   0  0  0  0  0  0  0  0  0  0  0  0
  191.7250  176.9520  144.5820 C   0  0  0  0  0  0  0  0  0  0  0  0
  191.1120  177.7330  145.5370 C   0  0  0  0  0  3  0  0  0  0  0  0
  191.8230  175.8010  146.3750 C   0  0  0  0  0  3  0  0  0  0  0  0
  191.1810  176.9860  146.7010 C   0  0  0  0  0  3  0  0  0  0  0  0
  185.8940  178.4640  145.2540 C   0  0  0  0  0  3  0  0  0  0  0  0
  185.1080  178.9630  146.2080 C   0  0  0  0  0  2  0  0  0  0  0  0
  184.6570  179.2500  143.1990 C   0  0  0  0  0  2  0  0  0  0  0  0
  183.1690  179.0490  143.0950 C   0  0  0  0  0  3  0  0  0  0  0  0
  182.5760  178.6450  141.9660 C   0  0  0  0  0  3  0  0  0  0  0  0
  183.3480  178.3510  140.7170 C   0  0  0  0  0  2  0  0  0  0  0  0
  182.8630  179.2310  139.5860 C   0  0  0  0  0  2  0  0  0  0  0  0
  182.8130  176.9900  138.4480 C   0  0  1  0  0  3  0  0  0  0  0  0
  180.6010  178.2230  138.8080 C   0  0  2  0  0  3  0  0  0  0  0  0
  180.5210  175.8560  138.3840 C   0  0  2  0  0  3  0  0  0  0  0  0
  179.4360  175.8460  137.3060 C   0  0  0  0  0  2  0  0  0  0  0  0
  179.1310  174.4200  136.8620 C   0  0  0  0  0  2  0  0  0  0  0  0
  181.4330  173.9390  135.8290 C   0  0  0  0  0  2  0  0  0  0  0  0
  181.7400  173.5800  137.1520 O   0  0  0  0  0  0  0  0  0  0  0  0
  179.9170  174.0010  135.6190 C   0  0  0  0  0  2  0  0  0  0  0  0
  180.2650  176.9150  139.3730 N   0  0  0  0  0  2  0  0  0  0  0  0
  182.1270  178.3650  138.5660 C   0  0  1  0  0  3  0  0  0  0  0  0
  181.9180  175.9570  137.7380 C   0  0  2  0  0  3  0  0  0  0  0  0
  182.5990  174.5810  137.6530 C   0  0  0  0  0  2  0  0  0  0  0  0
  184.1270  177.0630  137.9230 O   0  0  0  0  0  0  0  0  0  0  0  0
  184.0580  177.3830  136.5530 C   0  0  0  0  0  1  0  0  0  0  0  0
  179.9800  179.3270  139.6520 C   0  0  0  0  0  2  0  0  0  0  0  0
  179.0270  180.0980  138.8630 N   0  0  0  0  0  2  0  0  0  0  0  0
  179.7870  180.8520  137.8670 C   0  0  2  0  0  3  0  0  0  0  0  0
  179.5200  182.6610  139.5950 F   0  0  0  0  0  0  0  0  0  0  0  0
  180.0080  182.2690  138.3570 C   0  0  2  0  0  0  0  0  0  0  0  0
  178.9520  182.0110  137.3120 C   0  0  0  0  0  2  0  0  0  0  0  0
  181.1390  182.9170  137.8570 O   0  0  0  0  0  1  0  0  0  0  0  0
  1 32  1  6  0  0  0
  1 30  1  0  0  0  0
  2  1  1  1  0  0  0
  2  7  1  0  0  0  0
  3  7  1  0  0  0  0
  4  8  1  6  0  0  0
  4  2  1  0  0  0  0
  5  3  1  0  0  0  0
  6  4  1  0  0  0  0
  6  3  2  0  0  0  0
  9  8  1  0  0  0  0
 10 11  2  0  0  0  0
 11 12  1  0  0  0  0
 12  9  1  0  0  0  0
 13 11  1  6  0  0  0
 14 13  1  0  0  0  0
 15 19  1  0  0  0  0
 15 14  1  0  0  0  0
 16 17  1  0  0  0  0
 16 18  1  0  0  0  0
 17 15  1  0  0  0  0
 18 13  1  0  0  0  0
 19 21  1  0  0  0  0
 21 20  2  0  0  0  0
 21 22  1  0  0  0  0
 23  5  1  0  0  0  0
 23 24  1  0  0  0  0
 24 26  1  0  0  0  0
 25 28  1  0  0  0  0
 26 25  1  0  0  0  0
 26 27  2  0  0  0  0
 27 29  1  0  0  0  0
 28 29  2  0  0  0  0
 30 31  2  0  0  0  0
 33 32  1  0  0  0  0
 34 33  2  0  0  0  0
 35 34  1  0  0  0  0
 36 35  1  0  0  0  0
 37 49  1  6  0  0  0
 37 46  1  0  0  0  0
 38 45  1  0  0  0  0
 38 51  1  1  0  0  0
 39 40  1  6  0  0  0
 39 45  1  0  0  0  0
 41 40  1  0  0  0  0
 42 43  1  0  0  0  0
 43 48  1  0  0  0  0
 44 42  1  0  0  0  0
 44 41  1  0  0  0  0
 46 38  1  0  0  0  0
 46 36  1  1  0  0  0
 47 48  1  1  0  0  0
 47 39  1  0  0  0  0
 47 37  1  0  0  0  0
 50 49  1  0  0  0  0
 52 51  1  0  0  0  0
 53 55  1  0  0  0  0
 53 52  1  1  0  0  0
 55 57  1  6  0  0  0
 55 54  1  0  0  0  0
 56 53  1  0  0  0  0
 56 55  1  0  0  0  0
M  END
>  <MODEL>
3

>  <REMARK>
 VINA RESULT:      -6.4      2.503      6.402
  Name = 
  20 active torsions:
  status: ('A' for Active; 'I' for Inactive)
    1  A    between atoms: C_1  and  N_13
    2  A    between atoms: C_1  and  C_28
    3  A    between atoms: C_2  and  C_34
    4  A    between atoms: C_3  and  O_9
    5  A    between atoms: C_4  and  C_32
    6  A    between atoms: C_5  and  C_56
    7  A    between atoms: C_7  and  N_51
    8  A    between atoms: N_11  and  C_45
    9  A    between atoms: N_13  and  N_23
   10  A    between atoms: C_14  and  C_29
   11  A    between atoms: C_14  and  N_35
   12  A    between atoms: C_17  and  C_29
   13  A    between atoms: C_19  and  C_21
   14  A    between atoms: C_19  and  C_54
   15  A    between atoms: C_21  and  C_39
   16  A    between atoms: C_25  and  C_34
   17  A    between atoms: C_34  and  C_42
   18  A    between atoms: C_36  and  C_42
   19  A    between atoms: C_45  and  C_46
   20  A    between atoms: N_51  and  C_56
                            x       y       z     vdW  Elec       q    Type
                         _______ _______ _______ _____ _____    ______ ____

>  <TORSDO>
F 20

$$$$
=
 OpenBabel10222416323D

 57 62  0  0  1  0  0  0  0  0999 V2000
  185.8190  177.9400  137.9390 C   0  0  1  0  0  3  0  0  0  0  0  0
  185.7130  178.9420  139.1040 C   0  0  1  0  0  3  0  0  0  0  0  0
  185.3320  179.0370  141.5790 C   0  0  0  0  0  0  0  0  0  0  0  0
  184.2560  179.1060  139.5450 C   0  0  1  0  0  3  0  0  0  0  0  0
  185.5160  179.2650  142.9760 N   0  0  0  0  0  2  0  0  0  0  0  0
  184.2440  179.3650  140.9730 N   0  0  0  0  0  0  0  0  0  0  0  0
  186.6400  178.3750  140.5740 S   0  0  0  0  0  0  0  0  0  0  0  0
  183.5220  180.1980  138.7700 C   0  0  0  0  0  2  0  0  0  0  0  0
  182.0170  180.1830  139.0080 C   0  0  0  0  0  2  0  0  0  0  0  0
  180.1690  180.3430  135.8620 O   0  0  0  0  0  0  0  0  0  0  0  0
  180.8380  179.8410  136.8040 C   0  0  0  0  0  0  0  0  0  0  0  0
  181.3400  180.6940  137.8310 N   0  0  0  0  0  2  0  0  0  0  0  0
  181.1240  178.3690  136.8180 C   0  0  1  0  0  3  0  0  0  0  0  0
  180.1900  177.6190  137.7780 C   0  0  0  0  0  2  0  0  0  0  0  0
  180.0140  176.2480  137.3050 N   0  0  0  0  0  0  0  0  0  0  0  0
  179.7680  177.3590  135.0830 C   0  0  0  0  0  2  0  0  0  0  0  0
  179.2550  176.2750  136.0480 C   0  0  0  0  0  2  0  0  0  0  0  0
  181.1140  177.8110  135.4560 N   0  0  0  0  0  2  0  0  0  0  0  0
  179.2030  175.5460  138.2900 C   0  0  0  0  0  2  0  0  0  0  0  0
  181.1100  175.2140  139.6830 O   0  0  0  0  0  0  0  0  0  0  0  0
  179.8980  175.5470  139.6080 C   0  0  0  0  0  0  0  0  0  0  0  0
  179.1890  175.8490  140.7600 O   0  0  0  0  0  1  0  0  0  0  0  0
  184.4750  179.7410  143.7850 N   0  0  0  0  0  2  0  0  0  0  0  0
  184.1830  178.6970  144.7580 C   0  0  0  0  0  2  0  0  0  0  0  0
  186.2650  177.4890  145.3340 O   0  0  0  0  0  0  0  0  0  0  0  0
  185.3890  178.4270  145.5910 C   0  0  0  0  0  0  0  0  0  0  0  0
  185.7180  179.1010  146.7470 C   0  0  0  0  0  3  0  0  0  0  0  0
  187.1880  177.5040  146.2680 C   0  0  0  0  0  3  0  0  0  0  0  0
  186.8890  178.5030  147.1820 C   0  0  0  0  0  3  0  0  0  0  0  0
  184.4880  177.3290  137.5710 C   0  0  0  0  0  3  0  0  0  0  0  0
  184.2820  176.0120  137.5520 C   0  0  0  0  0  2  0  0  0  0  0  0
  186.5650  178.4710  136.7050 C   0  0  0  0  0  2  0  0  0  0  0  0
  186.7190  177.4380  135.6220 C   0  0  0  0  0  3  0  0  0  0  0  0
  187.8520  176.7470  135.4430 C   0  0  0  0  0  3  0  0  0  0  0  0
  189.0530  176.9400  136.3150 C   0  0  0  0  0  2  0  0  0  0  0  0
  188.9090  176.1320  137.5860 C   0  0  0  0  0  2  0  0  0  0  0  0
  190.7950  174.8490  136.5280 C   0  0  1  0  0  3  0  0  0  0  0  0
  191.2770  176.1950  138.6490 C   0  0  2  0  0  3  0  0  0  0  0  0
  193.1390  175.5600  137.2640 C   0  0  2  0  0  3  0  0  0  0  0  0
  194.0610  175.0040  138.3500 C   0  0  0  0  0  2  0  0  0  0  0  0
  195.3880  174.5520  137.7500 C   0  0  0  0  0  2  0  0  0  0  0  0
  194.4240  172.6450  136.3230 C   0  0  0  0  0  2  0  0  0  0  0  0
  194.2350  173.6870  135.4000 O   0  0  0  0  0  0  0  0  0  0  0  0
  195.4130  173.0590  137.4180 C   0  0  0  0  0  2  0  0  0  0  0  0
  192.3460  176.6880  137.7790 N   0  0  0  0  0  2  0  0  0  0  0  0
  190.2170  175.3900  137.8510 C   0  0  1  0  0  3  0  0  0  0  0  0
  192.2700  174.4330  136.6700 C   0  0  2  0  0  3  0  0  0  0  0  0
  192.8460  173.9240  135.3380 C   0  0  0  0  0  2  0  0  0  0  0  0
  189.9780  173.8610  135.9240 O   0  0  0  0  0  0  0  0  0  0  0  0
  189.4420  173.0310  136.9270 C   0  0  0  0  0  1  0  0  0  0  0  0
  190.7170  177.3400  139.4820 C   0  0  0  0  0  2  0  0  0  0  0  0
  191.2470  177.2900  140.8390 N   0  0  0  0  0  2  0  0  0  0  0  0
  190.4330  176.3390  141.5950 C   0  0  2  0  0  3  0  0  0  0  0  0
  189.7620  178.4490  142.7890 F   0  0  0  0  0  0  0  0  0  0  0  0
  189.6470  177.0730  142.6620 C   0  0  2  0  0  0  0  0  0  0  0  0
  190.8740  176.2940  143.0620 C   0  0  0  0  0  2  0  0  0  0  0  0
  188.4510  176.4710  143.0610 O   0  0  0  0  0  1  0  0  0  0  0  0
  1 32  1  6  0  0  0
  2  1  1  6  0  0  0
  2  4  1  0  0  0  0
  2  7  1  0  0  0  0
  3  5  1  0  0  0  0
  4  8  1  6  0  0  0
  4  6  1  0  0  0  0
  5 23  1  0  0  0  0
  6  3  2  0  0  0  0
  7  3  1  0  0  0  0
  8  9  1  0  0  0  0
 10 11  2  0  0  0  0
 11 12  1  0  0  0  0
 12  9  1  0  0  0  0
 13 11  1  6  0  0  0
 13 14  1  0  0  0  0
 15 14  1  0  0  0  0
 15 19  1  0  0  0  0
 16 18  1  0  0  0  0
 16 17  1  0  0  0  0
 17 15  1  0  0  0  0
 18 13  1  0  0  0  0
 19 21  1  0  0  0  0
 21 20  2  0  0  0  0
 21 22  1  0  0  0  0
 23 24  1  0  0  0  0
 24 26  1  0  0  0  0
 25 26  1  0  0  0  0
 25 28  1  0  0  0  0
 26 27  2  0  0  0  0
 27 29  1  0  0  0  0
 28 29  2  0  0  0  0
 30  1  1  0  0  0  0
 31 30  2  0  0  0  0
 33 32  1  0  0  0  0
 34 33  2  0  0  0  0
 34 35  1  0  0  0  0
 35 36  1  0  0  0  0
 37 49  1  1  0  0  0
 37 47  1  0  0  0  0
 37 46  1  0  0  0  0
 38 51  1  6  0  0  0
 39 45  1  0  0  0  0
 39 40  1  1  0  0  0
 41 40  1  0  0  0  0
 42 44  1  0  0  0  0
 43 42  1  0  0  0  0
 44 41  1  0  0  0  0
 45 38  1  0  0  0  0
 46 36  1  6  0  0  0
 46 38  1  0  0  0  0
 47 48  1  6  0  0  0
 47 39  1  0  0  0  0
 48 43  1  0  0  0  0
 49 50  1  0  0  0  0
 51 52  1  0  0  0  0
 53 52  1  6  0  0  0
 53 55  1  0  0  0  0
 53 56  1  0  0  0  0
 55 54  1  1  0  0  0
 55 57  1  0  0  0  0
 55 56  1  0  0  0  0
M  END
>  <MODEL>
4

>  <REMARK>
 VINA RESULT:      -6.4      3.263     11.034
  Name = 
  20 active torsions:
  status: ('A' for Active; 'I' for Inactive)
    1  A    between atoms: C_1  and  N_13
    2  A    between atoms: C_1  and  C_28
    3  A    between atoms: C_2  and  C_34
    4  A    between atoms: C_3  and  O_9
    5  A    between atoms: C_4  and  C_32
    6  A    between atoms: C_5  and  C_56
    7  A    between atoms: C_7  and  N_51
    8  A    between atoms: N_11  and  C_45
    9  A    between atoms: N_13  and  N_23
   10  A    between atoms: C_14  and  C_29
   11  A    between atoms: C_14  and  N_35
   12  A    between atoms: C_17  and  C_29
   13  A    between atoms: C_19  and  C_21
   14  A    between atoms: C_19  and  C_54
   15  A    between atoms: C_21  and  C_39
   16  A    between atoms: C_25  and  C_34
   17  A    between atoms: C_34  and  C_42
   18  A    between atoms: C_36  and  C_42
   19  A    between atoms: C_45  and  C_46
   20  A    between atoms: N_51  and  C_56
                            x       y       z     vdW  Elec       q    Type
                         _______ _______ _______ _____ _____    ______ ____

>  <TORSDO>
F 20

$$$$
=
 OpenBabel10222416323D

 57 62  0  0  1  0  0  0  0  0999 V2000
  188.2930  176.6940  137.6740 C   0  0  1  0  0  3  0  0  0  0  0  0
  189.8170  176.5500  137.5080 C   0  0  1  0  0  3  0  0  0  0  0  0
  191.5890  174.8230  137.1110 C   0  0  0  0  0  0  0  0  0  0  0  0
  190.4430  175.9410  138.7650 C   0  0  1  0  0  3  0  0  0  0  0  0
  192.6590  174.0810  136.5270 N   0  0  0  0  0  2  0  0  0  0  0  0
  191.5850  175.1430  138.3590 N   0  0  0  0  0  0  0  0  0  0  0  0
  190.2460  175.4350  136.1230 S   0  0  0  0  0  0  0  0  0  0  0  0
  190.8330  176.9930  139.8000 C   0  0  0  0  0  2  0  0  0  0  0  0
  190.2400  176.7170  141.1770 C   0  0  0  0  0  2  0  0  0  0  0  0
  190.2600  178.9430  144.0730 O   0  0  0  0  0  0  0  0  0  0  0  0
  189.8750  178.0190  143.3080 C   0  0  0  0  0  0  0  0  0  0  0  0
  190.5430  177.8270  142.0610 N   0  0  0  0  0  2  0  0  0  0  0  0
  188.7100  177.1610  143.6970 C   0  0  1  0  0  3  0  0  0  0  0  0
  188.1870  177.5140  145.0970 C   0  0  0  0  0  2  0  0  0  0  0  0
  186.7630  177.1980  145.1720 N   0  0  0  0  0  0  0  0  0  0  0  0
  186.7050  178.2790  142.9230 C   0  0  0  0  0  2  0  0  0  0  0  0
  186.0270  178.1180  144.2960 C   0  0  0  0  0  2  0  0  0  0  0  0
  187.6580  177.1910  142.6680 N   0  0  0  0  0  2  0  0  0  0  0  0
  186.3300  177.4570  146.5380 C   0  0  0  0  0  2  0  0  0  0  0  0
  184.1710  178.4570  146.3690 O   0  0  0  0  0  0  0  0  0  0  0  0
  185.4050  178.6250  146.5620 C   0  0  0  0  0  0  0  0  0  0  0  0
  185.9130  179.9040  146.7280 O   0  0  0  0  0  1  0  0  0  0  0  0
  193.6980  173.5530  137.3060 N   0  0  0  0  0  2  0  0  0  0  0  0
  194.7510  173.1430  136.3870 C   0  0  0  0  0  2  0  0  0  0  0  0
  196.8100  174.4350  135.9190 O   0  0  0  0  0  0  0  0  0  0  0  0
  196.0360  173.7980  136.7610 C   0  0  0  0  0  0  0  0  0  0  0  0
  196.5880  173.7920  138.0230 C   0  0  0  0  0  3  0  0  0  0  0  0
  197.8670  174.8730  136.5610 C   0  0  0  0  0  3  0  0  0  0  0  0
  197.7750  174.4940  137.8920 C   0  0  0  0  0  3  0  0  0  0  0  0
  187.8560  178.1300  137.8390 C   0  0  0  0  0  3  0  0  0  0  0  0
  187.9570  179.0300  136.8610 C   0  0  0  0  0  2  0  0  0  0  0  0
  187.4620  175.9630  136.6080 C   0  0  0  0  0  2  0  0  0  0  0  0
  186.2240  175.3170  137.1700 C   0  0  0  0  0  3  0  0  0  0  0  0
  184.9970  175.8090  136.9560 C   0  0  0  0  0  3  0  0  0  0  0  0
  184.7590  177.0360  136.1330 C   0  0  0  0  0  2  0  0  0  0  0  0
  183.2830  177.3670  136.1070 C   0  0  0  0  0  2  0  0  0  0  0  0
  182.3840  178.6340  138.0830 C   0  0  1  0  0  3  0  0  0  0  0  0
  181.5250  176.2620  137.6650 C   0  0  2  0  0  3  0  0  0  0  0  0
  180.2150  177.7080  139.0720 C   0  0  2  0  0  3  0  0  0  0  0  0
  179.9730  176.7480  140.2380 C   0  0  0  0  0  2  0  0  0  0  0  0
  179.0980  177.4010  141.3010 C   0  0  0  0  0  2  0  0  0  0  0  0
  180.7730  179.2290  141.9720 C   0  0  0  0  0  2  0  0  0  0  0  0
  180.1710  179.9080  140.9010 O   0  0  0  0  0  0  0  0  0  0  0  0
  179.9090  178.0490  142.4250 C   0  0  0  0  0  2  0  0  0  0  0  0
  180.2560  176.9790  137.7940 N   0  0  0  0  0  2  0  0  0  0  0  0
  182.7220  177.2390  137.5210 C   0  0  1  0  0  3  0  0  0  0  0  0
  181.4800  178.5530  139.3270 C   0  0  2  0  0  3  0  0  0  0  0  0
  181.1250  179.9500  139.8620 C   0  0  0  0  0  2  0  0  0  0  0  0
  183.5250  179.4570  138.2600 O   0  0  0  0  0  0  0  0  0  0  0  0
  184.2820  178.9660  139.3410 C   0  0  0  0  0  1  0  0  0  0  0  0
  181.4190  175.2130  136.5670 C   0  0  0  0  0  2  0  0  0  0  0  0
  180.5910  174.0960  137.0050 N   0  0  0  0  0  2  0  0  0  0  0  0
  180.8480  172.9760  136.1020 C   0  0  2  0  0  3  0  0  0  0  0  0
  180.3120  171.6720  138.1850 F   0  0  0  0  0  0  0  0  0  0  0  0
  180.6760  171.6670  136.8470 C   0  0  2  0  0  0  0  0  0  0  0  0
  182.0680  172.1730  136.5660 C   0  0  0  0  0  2  0  0  0  0  0  0
  180.3160  170.5660  136.0680 O   0  0  0  0  0  1  0  0  0  0  0  0
  1 32  1  6  0  0  0
  1 30  1  0  0  0  0
  2  1  1  1  0  0  0
  2  4  1  0  0  0  0
  3  6  2  0  0  0  0
  4  8  1  1  0  0  0
  5  3  1  0  0  0  0
  5 23  1  0  0  0  0
  6  4  1  0  0  0  0
  7  3  1  0  0  0  0
  7  2  1  0  0  0  0
  8  9  1  0  0  0  0
  9 12  1  0  0  0  0
 11 10  2  0  0  0  0
 12 11  1  0  0  0  0
 13 11  1  6  0  0  0
 13 14  1  0  0  0  0
 14 15  1  0  0  0  0
 15 19  1  0  0  0  0
 16 17  1  0  0  0  0
 17 15  1  0  0  0  0
 18 16  1  0  0  0  0
 18 13  1  0  0  0  0
 19 21  1  0  0  0  0
 20 21  2  0  0  0  0
 21 22  1  0  0  0  0
 24 26  1  0  0  0  0
 24 23  1  0  0  0  0
 25 28  1  0  0  0  0
 25 26  1  0  0  0  0
 26 27  2  0  0  0  0
 28 29  2  0  0  0  0
 29 27  1  0  0  0  0
 31 30  2  0  0  0  0
 32 33  1  0  0  0  0
 34 33  2  0  0  0  0
 35 34  1  0  0  0  0
 36 35  1  0  0  0  0
 37 49  1  1  0  0  0
 37 47  1  0  0  0  0
 38 51  1  6  0  0  0
 38 45  1  0  0  0  0
 39 47  1  0  0  0  0
 39 40  1  1  0  0  0
 40 41  1  0  0  0  0
 41 44  1  0  0  0  0
 42 44  1  0  0  0  0
 43 42  1  0  0  0  0
 45 39  1  0  0  0  0
 46 36  1  6  0  0  0
 46 38  1  0  0  0  0
 46 37  1  0  0  0  0
 47 48  1  6  0  0  0
 48 43  1  0  0  0  0
 49 50  1  0  0  0  0
 51 52  1  0  0  0  0
 53 56  1  0  0  0  0
 53 55  1  0  0  0  0
 53 52  1  1  0  0  0
 55 57  1  6  0  0  0
 55 54  1  0  0  0  0
 56 55  1  0  0  0  0
M  END
>  <MODEL>
5

>  <REMARK>
 VINA RESULT:      -6.2      4.267      7.170
  Name = 
  20 active torsions:
  status: ('A' for Active; 'I' for Inactive)
    1  A    between atoms: C_1  and  N_13
    2  A    between atoms: C_1  and  C_28
    3  A    between atoms: C_2  and  C_34
    4  A    between atoms: C_3  and  O_9
    5  A    between atoms: C_4  and  C_32
    6  A    between atoms: C_5  and  C_56
    7  A    between atoms: C_7  and  N_51
    8  A    between atoms: N_11  and  C_45
    9  A    between atoms: N_13  and  N_23
   10  A    between atoms: C_14  and  C_29
   11  A    between atoms: C_14  and  N_35
   12  A    between atoms: C_17  and  C_29
   13  A    between atoms: C_19  and  C_21
   14  A    between atoms: C_19  and  C_54
   15  A    between atoms: C_21  and  C_39
   16  A    between atoms: C_25  and  C_34
   17  A    between atoms: C_34  and  C_42
   18  A    between atoms: C_36  and  C_42
   19  A    between atoms: C_45  and  C_46
   20  A    between atoms: N_51  and  C_56
                            x       y       z     vdW  Elec       q    Type
                         _______ _______ _______ _____ _____    ______ ____

>  <TORSDO>
F 20

$$$$
=
 OpenBabel10222416323D

 57 62  0  0  1  0  0  0  0  0999 V2000
  185.4250  178.0430  142.4880 C   0  0  1  0  0  3  0  0  0  0  0  0
  186.7640  177.5410  143.0580 C   0  0  1  0  0  3  0  0  0  0  0  0
  188.0910  177.4850  145.1830 C   0  0  0  0  0  0  0  0  0  0  0  0
  187.7350  178.7060  143.2640 C   0  0  1  0  0  3  0  0  0  0  0  0
  188.7990  177.0230  146.3340 N   0  0  0  0  0  2  0  0  0  0  0  0
  188.5680  178.4010  144.4130 N   0  0  0  0  0  0  0  0  0  0  0  0
  186.5510  176.7480  144.6920 S   0  0  0  0  0  0  0  0  0  0  0  0
  188.5750  179.0020  142.0250 C   0  0  0  0  0  2  0  0  0  0  0  0
  188.5490  177.8670  141.0070 C   0  0  0  0  0  2  0  0  0  0  0  0
  189.4120  178.1780  137.4720 O   0  0  0  0  0  0  0  0  0  0  0  0
  189.3800  177.6870  138.6310 C   0  0  0  0  0  0  0  0  0  0  0  0
  188.7320  178.4130  139.6750 N   0  0  0  0  0  2  0  0  0  0  0  0
  190.0450  176.3720  138.9060 C   0  0  1  0  0  3  0  0  0  0  0  0
  189.9600  175.4290  137.6970 C   0  0  0  0  0  2  0  0  0  0  0  0
  191.1030  174.5200  137.7140 N   0  0  0  0  0  0  0  0  0  0  0  0
  192.3720  176.5970  138.2700 C   0  0  0  0  0  2  0  0  0  0  0  0
  192.3250  175.2920  137.4550 C   0  0  0  0  0  2  0  0  0  0  0  0
  191.4220  176.5610  139.3890 N   0  0  0  0  0  2  0  0  0  0  0  0
  190.9350  173.5850  136.6110 C   0  0  0  0  0  2  0  0  0  0  0  0
  191.4440  174.9490  134.7220 O   0  0  0  0  0  0  0  0  0  0  0  0
  190.5640  174.3260  135.3730 C   0  0  0  0  0  0  0  0  0  0  0  0
  189.2360  174.3860  134.9770 O   0  0  0  0  0  1  0  0  0  0  0  0
  189.9890  177.6310  146.7560 N   0  0  0  0  0  2  0  0  0  0  0  0
  191.0790  176.7520  146.3560 C   0  0  0  0  0  2  0  0  0  0  0  0
  191.3140  175.9180  144.0380 O   0  0  0  0  0  0  0  0  0  0  0  0
  191.3450  176.9040  144.8970 C   0  0  0  0  0  0  0  0  0  0  0  0
  191.6870  178.0850  144.2750 C   0  0  0  0  0  3  0  0  0  0  0  0
  191.6130  176.3830  142.8470 C   0  0  0  0  0  3  0  0  0  0  0  0
  191.8560  177.7450  142.9430 C   0  0  0  0  0  3  0  0  0  0  0  0
  184.5020  178.5860  143.5540 C   0  0  0  0  0  3  0  0  0  0  0  0
  183.1860  178.6940  143.3790 C   0  0  0  0  0  2  0  0  0  0  0  0
  185.5590  179.0110  141.3010 C   0  0  0  0  0  2  0  0  0  0  0  0
  184.2350  179.3640  140.6780 C   0  0  0  0  0  3  0  0  0  0  0  0
  183.9230  179.0360  139.4180 C   0  0  0  0  0  3  0  0  0  0  0  0
  184.8650  178.2820  138.5320 C   0  0  0  0  0  2  0  0  0  0  0  0
  184.3820  178.3310  137.0990 C   0  0  0  0  0  2  0  0  0  0  0  0
  185.5590  176.1140  136.9660 C   0  0  1  0  0  3  0  0  0  0  0  0
  183.0020  176.1400  136.9110 C   0  0  2  0  0  3  0  0  0  0  0  0
  184.1010  174.0770  137.4820 C   0  0  2  0  0  3  0  0  0  0  0  0
  183.3290  173.1350  136.5570 C   0  0  0  0  0  2  0  0  0  0  0  0
  183.7960  171.6960  136.7430 C   0  0  0  0  0  2  0  0  0  0  0  0
  186.1870  172.0530  135.8740 C   0  0  0  0  0  2  0  0  0  0  0  0
  186.4150  172.4170  137.2110 O   0  0  0  0  0  0  0  0  0  0  0  0
  184.8700  171.2840  135.7350 C   0  0  0  0  0  2  0  0  0  0  0  0
  183.2300  175.1580  137.9720 N   0  0  0  0  0  2  0  0  0  0  0  0
  184.3030  176.9070  136.5540 C   0  0  1  0  0  3  0  0  0  0  0  0
  185.3710  174.5970  136.7790 C   0  0  2  0  0  3  0  0  0  0  0  0
  186.6180  173.8130  137.2210 C   0  0  0  0  0  2  0  0  0  0  0  0
  186.7520  176.6160  136.3880 O   0  0  0  0  0  0  0  0  0  0  0  0
  186.6270  176.5980  134.9860 C   0  0  0  0  0  1  0  0  0  0  0  0
  181.8160  177.0240  137.2690 C   0  0  0  0  0  2  0  0  0  0  0  0
  180.8810  176.3030  138.1220 N   0  0  0  0  0  2  0  0  0  0  0  0
  180.1500  177.2940  138.9120 C   0  0  2  0  0  3  0  0  0  0  0  0
  181.9120  176.6840  140.6000 F   0  0  0  0  0  0  0  0  0  0  0  0
  180.7910  177.4340  140.2780 C   0  0  2  0  0  0  0  0  0  0  0  0
  179.5150  176.6430  140.1450 C   0  0  0  0  0  2  0  0  0  0  0  0
  180.6190  178.6680  140.9080 O   0  0  0  0  0  1  0  0  0  0  0  0
  1 32  1  6  0  0  0
  1 30  1  0  0  0  0
  2  1  1  1  0  0  0
  2  4  1  0  0  0  0
  2  7  1  0  0  0  0
  3  5  1  0  0  0  0
  4  8  1  6  0  0  0
  4  6  1  0  0  0  0
  5 23  1  0  0  0  0
  6  3  2  0  0  0  0
  7  3  1  0  0  0  0
  9  8  1  0  0  0  0
 10 11  2  0  0  0  0
 11 12  1  0  0  0  0
 12  9  1  0  0  0  0
 13 11  1  6  0  0  0
 13 18  1  0  0  0  0
 14 15  1  0  0  0  0
 14 13  1  0  0  0  0
 16 18  1  0  0  0  0
 17 15  1  0  0  0  0
 17 16  1  0  0  0  0
 19 15  1  0  0  0  0
 20 21  2  0  0  0  0
 21 19  1  0  0  0  0
 22 21  1  0  0  0  0
 24 23  1  0  0  0  0
 25 26  1  0  0  0  0
 26 24  1  0  0  0  0
 27 26  2  0  0  0  0
 28 29  2  0  0  0  0
 28 25  1  0  0  0  0
 29 27  1  0  0  0  0
 31 30  2  0  0  0  0
 33 32  1  0  0  0  0
 34 33  2  0  0  0  0
 35 34  1  0  0  0  0
 36 35  1  0  0  0  0
 37 49  1  6  0  0  0
 38 51  1  1  0  0  0
 38 45  1  0  0  0  0
 39 40  1  6  0  0  0
 39 45  1  0  0  0  0
 40 41  1  0  0  0  0
 42 43  1  0  0  0  0
 43 48  1  0  0  0  0
 44 42  1  0  0  0  0
 44 41  1  0  0  0  0
 46 38  1  0  0  0  0
 46 37  1  0  0  0  0
 46 36  1  1  0  0  0
 47 37  1  0  0  0  0
 47 48  1  1  0  0  0
 47 39  1  0  0  0  0
 50 49  1  0  0  0  0
 51 52  1  0  0  0  0
 53 52  1  6  0  0  0
 53 56  1  0  0  0  0
 53 55  1  0  0  0  0
 55 54  1  1  0  0  0
 55 57  1  0  0  0  0
 56 55  1  0  0  0  0
M  END
>  <MODEL>
6

>  <REMARK>
 VINA RESULT:      -6.2      3.331      7.234
  Name = 
  20 active torsions:
  status: ('A' for Active; 'I' for Inactive)
    1  A    between atoms: C_1  and  N_13
    2  A    between atoms: C_1  and  C_28
    3  A    between atoms: C_2  and  C_34
    4  A    between atoms: C_3  and  O_9
    5  A    between atoms: C_4  and  C_32
    6  A    between atoms: C_5  and  C_56
    7  A    between atoms: C_7  and  N_51
    8  A    between atoms: N_11  and  C_45
    9  A    between atoms: N_13  and  N_23
   10  A    between atoms: C_14  and  C_29
   11  A    between atoms: C_14  and  N_35
   12  A    between atoms: C_17  and  C_29
   13  A    between atoms: C_19  and  C_21
   14  A    between atoms: C_19  and  C_54
   15  A    between atoms: C_21  and  C_39
   16  A    between atoms: C_25  and  C_34
   17  A    between atoms: C_34  and  C_42
   18  A    between atoms: C_36  and  C_42
   19  A    between atoms: C_45  and  C_46
   20  A    between atoms: N_51  and  C_56
                            x       y       z     vdW  Elec       q    Type
                         _______ _______ _______ _____ _____    ______ ____

>  <TORSDO>
F 20

$$$$
=
 OpenBabel10222416323D

 57 62  0  0  1  0  0  0  0  0999 V2000
  185.6480  177.8730  137.9580 C   0  0  1  0  0  3  0  0  0  0  0  0
  185.4180  178.8900  139.0920 C   0  0  1  0  0  3  0  0  0  0  0  0
  185.1480  179.0220  141.5790 C   0  0  0  0  0  0  0  0  0  0  0  0
  183.9790  178.8090  139.6070 C   0  0  1  0  0  3  0  0  0  0  0  0
  185.3550  179.3400  142.9550 N   0  0  0  0  0  2  0  0  0  0  0  0
  183.9900  179.1230  141.0240 N   0  0  0  0  0  0  0  0  0  0  0  0
  186.5040  178.5620  140.5270 S   0  0  0  0  0  0  0  0  0  0  0  0
  183.0230  179.7170  138.8380 C   0  0  0  0  0  2  0  0  0  0  0  0
  181.5890  179.6350  139.3490 C   0  0  0  0  0  2  0  0  0  0  0  0
  179.2730  182.4470  139.6080 O   0  0  0  0  0  0  0  0  0  0  0  0
  179.7450  181.2950  139.8040 C   0  0  0  0  0  0  0  0  0  0  0  0
  180.9170  180.8950  139.0950 N   0  0  0  0  0  2  0  0  0  0  0  0
  179.0570  180.3550  140.7460 C   0  0  1  0  0  3  0  0  0  0  0  0
  179.2010  178.8930  140.2960 C   0  0  0  0  0  2  0  0  0  0  0  0
  179.1480  178.0220  141.4660 N   0  0  0  0  0  0  0  0  0  0  0  0
  180.6660  179.7420  142.4510 C   0  0  0  0  0  2  0  0  0  0  0  0
  180.3510  178.2450  142.2770 C   0  0  0  0  0  2  0  0  0  0  0  0
  179.4970  180.5720  142.1340 N   0  0  0  0  0  2  0  0  0  0  0  0
  179.1910  176.6460  140.9900 C   0  0  0  0  0  2  0  0  0  0  0  0
  181.4240  176.3500  140.2060 O   0  0  0  0  0  1  0  0  0  0  0  0
  180.2110  176.5180  139.9110 C   0  0  0  0  0  0  0  0  0  0  0  0
  179.8320  176.6520  138.5840 O   0  0  0  0  0  0  0  0  0  0  0  0
  184.2860  179.6560  143.8050 N   0  0  0  0  0  2  0  0  0  0  0  0
  184.1020  178.5190  144.6960 C   0  0  0  0  0  2  0  0  0  0  0  0
  185.5680  179.0280  146.6240 O   0  0  0  0  0  0  0  0  0  0  0  0
  185.3150  178.3350  145.5430 C   0  0  0  0  0  0  0  0  0  0  0  0
  186.3330  177.4450  145.2830 C   0  0  0  0  0  3  0  0  0  0  0  0
  186.7190  178.6350  147.1190 C   0  0  0  0  0  3  0  0  0  0  0  0
  187.2410  177.6380  146.3100 C   0  0  0  0  0  3  0  0  0  0  0  0
  184.3770  177.1780  137.5300 C   0  0  0  0  0  3  0  0  0  0  0  0
  184.1770  175.8730  137.7080 C   0  0  0  0  0  2  0  0  0  0  0  0
  186.4320  178.4240  136.7550 C   0  0  0  0  0  2  0  0  0  0  0  0
  186.6850  177.3860  135.6950 C   0  0  0  0  0  3  0  0  0  0  0  0
  187.8600  176.7550  135.5740 C   0  0  0  0  0  3  0  0  0  0  0  0
  189.0110  177.0240  136.4910 C   0  0  0  0  0  2  0  0  0  0  0  0
  188.9350  176.1200  137.7020 C   0  0  0  0  0  2  0  0  0  0  0  0
  190.7760  174.9670  136.4380 C   0  0  1  0  0  3  0  0  0  0  0  0
  191.3410  176.0720  138.6740 C   0  0  2  0  0  3  0  0  0  0  0  0
  193.1480  175.5980  137.1570 C   0  0  2  0  0  3  0  0  0  0  0  0
  194.1110  174.9280  138.1400 C   0  0  0  0  0  2  0  0  0  0  0  0
  195.4120  174.5480  137.4430 C   0  0  0  0  0  2  0  0  0  0  0  0
  194.3920  172.8080  135.8520 C   0  0  0  0  0  2  0  0  0  0  0  0
  194.1690  173.9450  135.0580 O   0  0  0  0  0  0  0  0  0  0  0  0
  195.4220  173.1010  136.9470 C   0  0  0  0  0  2  0  0  0  0  0  0
  192.3770  176.6600  137.8240 N   0  0  0  0  0  2  0  0  0  0  0  0
  190.2510  175.3570  137.8340 C   0  0  1  0  0  3  0  0  0  0  0  0
  192.2560  174.5410  136.4760 C   0  0  2  0  0  3  0  0  0  0  0  0
  192.7790  174.1840  135.0750 C   0  0  0  0  0  2  0  0  0  0  0  0
  189.9360  174.0490  135.7600 O   0  0  0  0  0  0  0  0  0  0  0  0
  189.9840  172.8070  136.4200 C   0  0  0  0  0  1  0  0  0  0  0  0
  190.8160  177.1160  139.6500 C   0  0  0  0  0  2  0  0  0  0  0  0
  190.2920  176.4760  140.8490 N   0  0  0  0  0  2  0  0  0  0  0  0
  189.9970  177.5300  141.8190 C   0  0  2  0  0  3  0  0  0  0  0  0
  192.0270  176.5460  142.9320 F   0  0  0  0  0  0  0  0  0  0  0  0
  191.0090  177.4890  142.9450 C   0  0  2  0  0  0  0  0  0  0  0  0
  189.6300  176.9290  143.1790 C   0  0  0  0  0  2  0  0  0  0  0  0
  191.2390  178.6980  143.6030 O   0  0  0  0  0  1  0  0  0  0  0  0
  1 32  1  6  0  0  0
  2  1  1  6  0  0  0
  2  4  1  0  0  0  0
  2  7  1  0  0  0  0
  3  5  1  0  0  0  0
  4  8  1  6  0  0  0
  4  6  1  0  0  0  0
  5 23  1  0  0  0  0
  6  3  2  0  0  0  0
  7  3  1  0  0  0  0
  8  9  1  0  0  0  0
 10 11  2  0  0  0  0
 12  9  1  0  0  0  0
 12 11  1  0  0  0  0
 13 11  1  6  0  0  0
 13 18  1  0  0  0  0
 14 13  1  0  0  0  0
 14 15  1  0  0  0  0
 15 17  1  0  0  0  0
 17 16  1  0  0  0  0
 18 16  1  0  0  0  0
 19 15  1  0  0  0  0
 21 20  1  0  0  0  0
 21 19  1  0  0  0  0
 22 21  2  0  0  0  0
 23 24  1  0  0  0  0
 24 26  1  0  0  0  0
 25 28  1  0  0  0  0
 26 25  1  0  0  0  0
 27 26  2  0  0  0  0
 27 29  1  0  0  0  0
 29 28  2  0  0  0  0
 30 31  2  0  0  0  0
 30  1  1  0  0  0  0
 33 32  1  0  0  0  0
 34 33  2  0  0  0  0
 34 35  1  0  0  0  0
 35 36  1  0  0  0  0
 37 49  1  1  0  0  0
 37 47  1  0  0  0  0
 37 46  1  0  0  0  0
 38 51  1  6  0  0  0
 39 45  1  0  0  0  0
 39 40  1  1  0  0  0
 41 40  1  0  0  0  0
 42 44  1  0  0  0  0
 43 48  1  0  0  0  0
 43 42  1  0  0  0  0
 44 41  1  0  0  0  0
 45 38  1  0  0  0  0
 46 36  1  6  0  0  0
 46 38  1  0  0  0  0
 47 48  1  6  0  0  0
 47 39  1  0  0  0  0
 49 50  1  0  0  0  0
 51 52  1  0  0  0  0
 53 52  1  6  0  0  0
 53 55  1  0  0  0  0
 53 56  1  0  0  0  0
 55 54  1  6  0  0  0
 55 56  1  0  0  0  0
 55 57  1  0  0  0  0
M  END
>  <MODEL>
7

>  <REMARK>
 VINA RESULT:      -6.1      3.464     10.762
  Name = 
  20 active torsions:
  status: ('A' for Active; 'I' for Inactive)
    1  A    between atoms: C_1  and  N_13
    2  A    between atoms: C_1  and  C_28
    3  A    between atoms: C_2  and  C_34
    4  A    between atoms: C_3  and  O_9
    5  A    between atoms: C_4  and  C_32
    6  A    between atoms: C_5  and  C_56
    7  A    between atoms: C_7  and  N_51
    8  A    between atoms: N_11  and  C_45
    9  A    between atoms: N_13  and  N_23
   10  A    between atoms: C_14  and  C_29
   11  A    between atoms: C_14  and  N_35
   12  A    between atoms: C_17  and  C_29
   13  A    between atoms: C_19  and  C_21
   14  A    between atoms: C_19  and  C_54
   15  A    between atoms: C_21  and  C_39
   16  A    between atoms: C_25  and  C_34
   17  A    between atoms: C_34  and  C_42
   18  A    between atoms: C_36  and  C_42
   19  A    between atoms: C_45  and  C_46
   20  A    between atoms: N_51  and  C_56
                            x       y       z     vdW  Elec       q    Type
                         _______ _______ _______ _____ _____    ______ ____

>  <TORSDO>
F 20

$$$$
=
 OpenBabel10222416323D

 57 62  0  0  1  0  0  0  0  0999 V2000
  185.8600  177.8190  137.4080 C   0  0  1  0  0  3  0  0  0  0  0  0
  184.6430  177.5570  138.3150 C   0  0  1  0  0  3  0  0  0  0  0  0
  182.1500  177.3220  138.2280 C   0  0  0  0  0  0  0  0  0  0  0  0
  183.8480  178.8460  138.5370 C   0  0  1  0  0  3  0  0  0  0  0  0
  180.8290  176.7890  138.3260 N   0  0  0  0  0  2  0  0  0  0  0  0
  182.4470  178.4920  138.6760 N   0  0  0  0  0  0  0  0  0  0  0  0
  183.4860  176.3550  137.5670 S   0  0  0  0  0  0  0  0  0  0  0  0
  184.3460  179.6490  139.7350 C   0  0  0  0  0  2  0  0  0  0  0  0
  184.8670  178.7670  140.8640 C   0  0  0  0  0  2  0  0  0  0  0  0
  182.9470  178.5920  143.9650 O   0  0  0  0  0  0  0  0  0  0  0  0
  183.9480  178.7290  143.2130 C   0  0  0  0  0  0  0  0  0  0  0  0
  183.7960  178.5170  141.8100 N   0  0  0  0  0  2  0  0  0  0  0  0
  185.2820  179.0780  143.7990 C   0  0  1  0  0  3  0  0  0  0  0  0
  185.3300  178.8000  145.3090 C   0  0  0  0  0  2  0  0  0  0  0  0
  186.7050  178.5010  145.7000 N   0  0  0  0  0  0  0  0  0  0  0  0
  186.6790  177.1050  143.6310 C   0  0  0  0  0  2  0  0  0  0  0  0
  187.0960  177.2160  145.1080 C   0  0  0  0  0  2  0  0  0  0  0  0
  186.3760  178.4250  143.0620 N   0  0  0  0  0  2  0  0  0  0  0  0
  186.7220  178.3390  147.1470 C   0  0  0  0  0  2  0  0  0  0  0  0
  188.1640  176.5270  147.7160 O   0  0  0  0  0  0  0  0  0  0  0  0
  188.0320  177.7710  147.5750 C   0  0  0  0  0  0  0  0  0  0  0  0
  189.0840  178.6200  147.8830 O   0  0  0  0  0  1  0  0  0  0  0  0
  179.7600  177.5610  138.8010 N   0  0  0  0  0  2  0  0  0  0  0  0
  179.0000  177.9940  137.6360 C   0  0  0  0  0  2  0  0  0  0  0  0
  178.9910  180.4420  138.0000 O   0  0  0  0  0  0  0  0  0  0  0  0
  179.3520  179.4010  137.2940 C   0  0  0  0  0  0  0  0  0  0  0  0
  180.0690  179.7890  136.1830 C   0  0  0  0  0  3  0  0  0  0  0  0
  179.4430  181.5280  137.4180 C   0  0  0  0  0  3  0  0  0  0  0  0
  180.1310  181.1700  136.2680 C   0  0  0  0  0  3  0  0  0  0  0  0
  187.0720  178.2890  138.1760 C   0  0  0  0  0  3  0  0  0  0  0  0
  187.5920  177.5990  139.1910 C   0  0  0  0  0  2  0  0  0  0  0  0
  186.2020  176.6660  136.4490 C   0  0  0  0  0  2  0  0  0  0  0  0
  187.0410  177.1040  135.2800 C   0  0  0  0  0  3  0  0  0  0  0  0
  188.3440  176.8110  135.1790 C   0  0  0  0  0  3  0  0  0  0  0  0
  189.0660  176.0130  136.2200 C   0  0  0  0  0  2  0  0  0  0  0  0
  190.2930  176.7630  136.6910 C   0  0  0  0  0  2  0  0  0  0  0  0
  192.2690  175.3770  135.9890 C   0  0  1  0  0  3  0  0  0  0  0  0
  192.1470  176.1840  138.4130 C   0  0  2  0  0  3  0  0  0  0  0  0
  194.2860  175.4880  137.5580 C   0  0  2  0  0  3  0  0  0  0  0  0
  194.7140  174.5750  138.7080 C   0  0  0  0  0  2  0  0  0  0  0  0
  196.1050  174.0060  138.4550 C   0  0  0  0  0  2  0  0  0  0  0  0
  195.4780  172.6170  136.3870 C   0  0  0  0  0  2  0  0  0  0  0  0
  195.7340  173.8310  135.7290 O   0  0  0  0  0  0  0  0  0  0  0  0
  196.0740  172.6250  137.7980 C   0  0  0  0  0  2  0  0  0  0  0  0
  193.4970  176.6250  138.0590 N   0  0  0  0  0  2  0  0  0  0  0  0
  191.3400  175.7550  137.1590 C   0  0  1  0  0  3  0  0  0  0  0  0
  193.5510  174.6750  136.4730 C   0  0  2  0  0  3  0  0  0  0  0  0
  194.4850  174.3300  135.3010 C   0  0  0  0  0  2  0  0  0  0  0  0
  191.6020  174.6910  134.9440 O   0  0  0  0  0  0  0  0  0  0  0  0
  191.4820  173.3310  135.2910 C   0  0  0  0  0  1  0  0  0  0  0  0
  191.4700  177.2330  139.2830 C   0  0  0  0  0  2  0  0  0  0  0  0
  190.7680  176.6010  140.3920 N   0  0  0  0  0  2  0  0  0  0  0  0
  191.3170  177.1500  141.6320 C   0  0  2  0  0  3  0  0  0  0  0  0
  189.7840  175.4200  142.6260 F   0  0  0  0  0  0  0  0  0  0  0  0
  190.7060  176.4370  142.8220 C   0  0  2  0  0  0  0  0  0  0  0  0
  190.2160  177.8170  142.4630 C   0  0  0  0  0  2  0  0  0  0  0  0
  191.4870  176.4060  143.9790 O   0  0  0  0  0  1  0  0  0  0  0  0
  1 32  1  1  0  0  0
  1 30  1  0  0  0  0
  2  1  1  6  0  0  0
  2  4  1  0  0  0  0
  3  5  1  0  0  0  0
  3  6  2  0  0  0  0
  4  6  1  0  0  0  0
  4  8  1  1  0  0  0
  5 23  1  0  0  0  0
  7  3  1  0  0  0  0
  7  2  1  0  0  0  0
  8  9  1  0  0  0  0
  9 12  1  0  0  0  0
 11 10  2  0  0  0  0
 12 11  1  0  0  0  0
 13 11  1  6  0  0  0
 13 14  1  0  0  0  0
 14 15  1  0  0  0  0
 15 19  1  0  0  0  0
 16 17  1  0  0  0  0
 17 15  1  0  0  0  0
 18 16  1  0  0  0  0
 18 13  1  0  0  0  0
 19 21  1  0  0  0  0
 21 20  2  0  0  0  0
 21 22  1  0  0  0  0
 24 23  1  0  0  0  0
 26 24  1  0  0  0  0
 26 25  1  0  0  0  0
 27 29  1  0  0  0  0
 27 26  2  0  0  0  0
 28 25  1  0  0  0  0
 29 28  2  0  0  0  0
 30 31  2  0  0  0  0
 33 32  1  0  0  0  0
 34 33  2  0  0  0  0
 34 35  1  0  0  0  0
 35 36  1  0  0  0  0
 37 49  1  6  0  0  0
 37 47  1  0  0  0  0
 37 46  1  0  0  0  0
 38 51  1  6  0  0  0
 39 45  1  0  0  0  0
 39 40  1  1  0  0  0
 41 40  1  0  0  0  0
 42 44  1  0  0  0  0
 43 42  1  0  0  0  0
 44 41  1  0  0  0  0
 45 38  1  0  0  0  0
 46 36  1  6  0  0  0
 46 38  1  0  0  0  0
 47 48  1  6  0  0  0
 47 39  1  0  0  0  0
 48 43  1  0  0  0  0
 49 50  1  0  0  0  0
 51 52  1  0  0  0  0
 53 52  1  6  0  0  0
 53 56  1  0  0  0  0
 53 55  1  0  0  0  0
 55 54  1  6  0  0  0
 55 57  1  0  0  0  0
 56 55  1  0  0  0  0
M  END
>  <MODEL>
8

>  <REMARK>
 VINA RESULT:      -6.1      3.782      9.950
  Name = 
  20 active torsions:
  status: ('A' for Active; 'I' for Inactive)
    1  A    between atoms: C_1  and  N_13
    2  A    between atoms: C_1  and  C_28
    3  A    between atoms: C_2  and  C_34
    4  A    between atoms: C_3  and  O_9
    5  A    between atoms: C_4  and  C_32
    6  A    between atoms: C_5  and  C_56
    7  A    between atoms: C_7  and  N_51
    8  A    between atoms: N_11  and  C_45
    9  A    between atoms: N_13  and  N_23
   10  A    between atoms: C_14  and  C_29
   11  A    between atoms: C_14  and  N_35
   12  A    between atoms: C_17  and  C_29
   13  A    between atoms: C_19  and  C_21
   14  A    between atoms: C_19  and  C_54
   15  A    between atoms: C_21  and  C_39
   16  A    between atoms: C_25  and  C_34
   17  A    between atoms: C_34  and  C_42
   18  A    between atoms: C_36  and  C_42
   19  A    between atoms: C_45  and  C_46
   20  A    between atoms: N_51  and  C_56
                            x       y       z     vdW  Elec       q    Type
                         _______ _______ _______ _____ _____    ______ ____

>  <TORSDO>
F 20

$$$$
=
 OpenBabel10222416323D

 57 62  0  0  1  0  0  0  0  0999 V2000
  186.0370  178.9550  142.8380 C   0  0  1  0  0  3  0  0  0  0  0  0
  184.5590  179.3570  142.6740 C   0  0  1  0  0  3  0  0  0  0  0  0
  182.2990  178.9620  143.6800 C   0  0  0  0  0  0  0  0  0  0  0  0
  183.7520  178.2100  142.0610 C   0  0  1  0  0  3  0  0  0  0  0  0
  181.0410  179.1680  144.3230 N   0  0  0  0  0  2  0  0  0  0  0  0
  182.4060  178.2670  142.6010 N   0  0  0  0  0  0  0  0  0  0  0  0
  183.7780  179.7410  144.2820 S   0  0  0  0  0  0  0  0  0  0  0  0
  183.7470  178.2380  140.5350 C   0  0  0  0  0  2  0  0  0  0  0  0
  182.6060  177.4280  139.9320 C   0  0  0  0  0  2  0  0  0  0  0  0
  182.4550  177.9760  136.3240 O   0  0  0  0  0  0  0  0  0  0  0  0
  182.8750  177.5320  137.4250 C   0  0  0  0  0  0  0  0  0  0  0  0
  182.2610  177.9780  138.6340 N   0  0  0  0  0  2  0  0  0  0  0  0
  184.0260  176.5730  137.4550 C   0  0  1  0  0  3  0  0  0  0  0  0
  183.7110  175.2830  136.6820 C   0  0  0  0  0  2  0  0  0  0  0  0
  184.9540  174.7160  136.1660 N   0  0  0  0  0  0  0  0  0  0  0  0
  185.4390  177.0880  135.5550 C   0  0  0  0  0  2  0  0  0  0  0  0
  185.4880  175.6090  135.1300 C   0  0  0  0  0  2  0  0  0  0  0  0
  185.2710  177.2180  137.0080 N   0  0  0  0  0  2  0  0  0  0  0  0
  184.6250  173.4510  135.5250 C   0  0  0  0  0  2  0  0  0  0  0  0
  184.5650  172.2550  137.5870 O   0  0  0  0  0  1  0  0  0  0  0  0
  183.9770  172.5400  136.5100 C   0  0  0  0  0  0  0  0  0  0  0  0
  182.7580  171.9520  136.2080 O   0  0  0  0  0  0  0  0  0  0  0  0
  179.8780  178.5200  143.8850 N   0  0  0  0  0  2  0  0  0  0  0  0
  178.9410  179.5580  143.4780 C   0  0  0  0  0  2  0  0  0  0  0  0
  179.5100  181.2020  141.7170 O   0  0  0  0  0  0  0  0  0  0  0  0
  179.2230  179.9760  142.0750 C   0  0  0  0  0  0  0  0  0  0  0  0
  179.1860  179.1420  140.9800 C   0  0  0  0  0  3  0  0  0  0  0  0
  179.6810  181.2340  140.4160 C   0  0  0  0  0  3  0  0  0  0  0  0
  179.4880  179.9600  139.9040 C   0  0  0  0  0  3  0  0  0  0  0  0
  186.2090  177.5040  143.2190 C   0  0  0  0  0  3  0  0  0  0  0  0
  186.8630  177.1210  144.3150 C   0  0  0  0  0  2  0  0  0  0  0  0
  186.9410  179.3480  141.6570 C   0  0  0  0  0  2  0  0  0  0  0  0
  186.5710  178.6480  140.3770 C   0  0  0  0  0  3  0  0  0  0  0  0
  187.4350  177.8780  139.7040 C   0  0  0  0  0  3  0  0  0  0  0  0
  188.8340  177.6420  140.1780 C   0  0  0  0  0  2  0  0  0  0  0  0
  189.8220  178.0280  139.0990 C   0  0  0  0  0  2  0  0  0  0  0  0
  190.7890  176.6730  137.2150 C   0  0  1  0  0  3  0  0  0  0  0  0
  192.0630  176.7620  139.4310 C   0  0  2  0  0  3  0  0  0  0  0  0
  193.2660  176.0860  137.4600 C   0  0  2  0  0  3  0  0  0  0  0  0
  193.9510  174.8380  138.0190 C   0  0  0  0  0  2  0  0  0  0  0  0
  194.8510  174.2010  136.9660 C   0  0  0  0  0  2  0  0  0  0  0  0
  192.9750  173.5480  135.3380 C   0  0  0  0  0  2  0  0  0  0  0  0
  193.1770  174.8590  134.8780 O   0  0  0  0  0  0  0  0  0  0  0  0
  194.1590  173.0800  136.1890 C   0  0  0  0  0  2  0  0  0  0  0  0
  193.1340  177.1190  138.5010 N   0  0  0  0  0  2  0  0  0  0  0  0
  190.6720  176.8100  138.7470 C   0  0  1  0  0  3  0  0  0  0  0  0
  191.9200  175.7120  136.8070 C   0  0  2  0  0  3  0  0  0  0  0  0
  192.0490  175.6060  135.2780 C   0  0  0  0  0  2  0  0  0  0  0  0
  189.5510  176.3990  136.5820 O   0  0  0  0  0  0  0  0  0  0  0  0
  189.1840  177.5060  135.7930 C   0  0  0  0  0  1  0  0  0  0  0  0
  192.1810  177.5920  140.7020 C   0  0  0  0  0  2  0  0  0  0  0  0
  192.1230  176.7360  141.8790 N   0  0  0  0  0  2  0  0  0  0  0  0
  190.9470  177.1300  142.6540 C   0  0  2  0  0  3  0  0  0  0  0  0
  192.0620  175.6660  144.3700 F   0  0  0  0  0  0  0  0  0  0  0  0
  190.9950  176.4820  144.0230 C   0  0  2  0  0  0  0  0  0  0  0  0
  190.0750  175.9120  142.9740 C   0  0  0  0  0  2  0  0  0  0  0  0
  190.3250  177.1610  145.0420 O   0  0  0  0  0  1  0  0  0  0  0  0
  1 32  1  6  0  0  0
  1 30  1  0  0  0  0
  2  1  1  1  0  0  0
  2  7  1  0  0  0  0
  3  7  1  0  0  0  0
  3  5  1  0  0  0  0
  4  8  1  6  0  0  0
  4  6  1  0  0  0  0
  4  2  1  0  0  0  0
  6  3  2  0  0  0  0
  9  8  1  0  0  0  0
 10 11  2  0  0  0  0
 11 12  1  0  0  0  0
 12  9  1  0  0  0  0
 13 11  1  6  0  0  0
 14 13  1  0  0  0  0
 15 14  1  0  0  0  0
 16 18  1  0  0  0  0
 17 16  1  0  0  0  0
 17 15  1  0  0  0  0
 18 13  1  0  0  0  0
 19 15  1  0  0  0  0
 19 21  1  0  0  0  0
 21 20  1  0  0  0  0
 22 21  2  0  0  0  0
 23  5  1  0  0  0  0
 24 23  1  0  0  0  0
 25 26  1  0  0  0  0
 26 24  1  0  0  0  0
 27 26  2  0  0  0  0
 28 25  1  0  0  0  0
 29 28  2  0  0  0  0
 29 27  1  0  0  0  0
 30 31  2  0  0  0  0
 33 32  1  0  0  0  0
 34 35  1  0  0  0  0
 34 33  2  0  0  0  0
 36 35  1  0  0  0  0
 37 49  1  1  0  0  0
 37 46  1  0  0  0  0
 38 51  1  1  0  0  0
 39 40  1  1  0  0  0
 39 45  1  0  0  0  0
 41 40  1  0  0  0  0
 42 44  1  0  0  0  0
 43 48  1  0  0  0  0
 43 42  1  0  0  0  0
 44 41  1  0  0  0  0
 45 38  1  0  0  0  0
 46 36  1  6  0  0  0
 46 38  1  0  0  0  0
 47 48  1  6  0  0  0
 47 37  1  0  0  0  0
 47 39  1  0  0  0  0
 50 49  1  0  0  0  0
 51 52  1  0  0  0  0
 53 52  1  6  0  0  0
 53 56  1  0  0  0  0
 53 55  1  0  0  0  0
 55 54  1  1  0  0  0
 55 57  1  0  0  0  0
 56 55  1  0  0  0  0
M  END
>  <MODEL>
9

>  <REMARK>
 VINA RESULT:      -6.1      3.821     10.653
  Name = 
  20 active torsions:
  status: ('A' for Active; 'I' for Inactive)
    1  A    between atoms: C_1  and  N_13
    2  A    between atoms: C_1  and  C_28
    3  A    between atoms: C_2  and  C_34
    4  A    between atoms: C_3  and  O_9
    5  A    between atoms: C_4  and  C_32
    6  A    between atoms: C_5  and  C_56
    7  A    between atoms: C_7  and  N_51
    8  A    between atoms: N_11  and  C_45
    9  A    between atoms: N_13  and  N_23
   10  A    between atoms: C_14  and  C_29
   11  A    between atoms: C_14  and  N_35
   12  A    between atoms: C_17  and  C_29
   13  A    between atoms: C_19  and  C_21
   14  A    between atoms: C_19  and  C_54
   15  A    between atoms: C_21  and  C_39
   16  A    between atoms: C_25  and  C_34
   17  A    between atoms: C_34  and  C_42
   18  A    between atoms: C_36  and  C_42
   19  A    between atoms: C_45  and  C_46
   20  A    between atoms: N_51  and  C_56
                            x       y       z     vdW  Elec       q    Type
                         _______ _______ _______ _____ _____    ______ ____

>  <TORSDO>
F 20

$$$$
