=
 OpenBabel10222416543D

 28 32  0  0  1  0  0  0  0  0999 V2000
  186.3460  178.0430  143.8700 C   0  0  1  0  0  3  0  0  0  0  0  0
  190.1100  176.4340  144.0920 O   0  0  0  0  0  0  0  0  0  0  0  0
  189.1250  177.4120  144.1750 C   0  0  1  0  0  0  0  0  0  0  0  0
  186.1030  178.1920  146.7440 S   0  0  0  0  0  0  0  0  0  0  0  0
  189.0520  176.7190  142.0190 O   0  0  0  0  0  0  0  0  0  0  0  0
  187.2840  178.0670  142.7930 O   0  0  0  0  0  0  0  0  0  0  0  0
  189.4140  176.3600  147.3500 C   0  0  0  0  0  1  0  0  0  0  0  0
  190.1010  176.0660  142.7150 C   0  0  1  0  0  3  0  0  0  0  0  0
  187.6940  178.1240  147.5740 C   0  0  0  0  0  0  0  0  0  0  0  0
  189.7570  178.8000  144.0010 C   0  0  0  0  0  1  0  0  0  0  0  0
  188.2070  177.0420  143.0630 C   0  0  2  0  0  3  0  0  0  0  0  0
  187.8470  178.5730  148.6980 O   0  0  0  0  0  0  0  0  0  0  0  0
  187.0710  178.3270  145.2190 C   0  0  1  0  0  3  0  0  0  0  0  0
  188.8500  177.6370  146.7560 C   0  0  2  0  0  3  0  0  0  0  0  0
  188.2300  177.3440  145.4050 C   0  0  2  0  0  3  0  0  0  0  0  0
  183.8540  178.4900  143.8940 C   0  0  0  0  0  1  0  0  0  0  0  0
  185.2310  179.0670  143.6040 C   0  0  2  0  0  3  0  0  0  0  0  0
  184.5870  179.0290  141.1050 C   0  0  0  0  0  0  0  0  0  0  0  0
  184.7300  179.6170  139.8870 N   0  0  0  0  0  0  0  0  0  0  0  0
  183.7770  177.8900  141.2300 C   0  0  0  0  0  3  0  0  0  0  0  0
  185.2760  179.5840  142.2350 N   0  0  0  0  0  2  0  0  0  0  0  0
  183.2930  178.0050  138.8680 C   0  0  0  0  0  3  0  0  0  0  0  0
  184.1060  179.1360  138.7780 C   0  0  0  0  0  3  0  0  0  0  0  0
  183.1290  177.3810  140.1050 C   0  0  0  0  0  3  0  0  0  0  0  0
  191.4420  176.4040  142.0840 C   0  0  0  0  0  2  0  0  0  0  0  0
  191.2580  177.4050  140.9590 C   0  0  0  0  0  3  0  0  0  0  0  0
  192.4300  177.5130  140.2460 O   0  0  0  0  0  0  0  0  0  0  0  0
  191.4280  176.7730  139.7490 O   0  0  0  0  0  0  0  0  0  0  0  0
  1 17  1  6  0  0  0
  1 13  1  0  0  0  0
  2  3  1  0  0  0  0
  3 10  1  6  0  0  0
  3 15  1  0  0  0  0
  4  9  1  0  0  0  0
  5  8  1  0  0  0  0
  6 11  1  0  0  0  0
  6  1  1  0  0  0  0
  8 25  1  6  0  0  0
  8  2  1  0  0  0  0
  9 12  2  0  0  0  0
 11  5  1  6  0  0  0
 11  3  1  0  0  0  0
 13 15  1  0  0  0  0
 13  4  1  1  0  0  0
 14  7  1  1  0  0  0
 14  9  1  0  0  0  0
 15 14  1  0  0  0  0
 17 16  1  0  0  0  0
 18 20  1  0  0  0  0
 18 21  1  0  0  0  0
 19 18  2  0  0  0  0
 21 17  1  0  0  0  0
 22 24  1  0  0  0  0
 23 22  2  0  0  0  0
 23 19  1  0  0  0  0
 24 20  2  0  0  0  0
 26 25  1  0  0  0  0
 27 26  1  0  0  0  0
 28 27  1  0  0  0  0
 28 26  1  0  0  0  0
M  END
>  <MODEL>
1

>  <REMARK>
 VINA RESULT:      -8.6      0.000      0.000
  Name = 
  4 active torsions:
  status: ('A' for Active; 'I' for Inactive)
    1  A    between atoms: C_1  and  C_17
    2  A    between atoms: C_9  and  C_19
    3  A    between atoms: N_12  and  C_17
    4  A    between atoms: C_14  and  C_19
                            x       y       z     vdW  Elec       q    Type
                         _______ _______ _______ _____ _____    ______ ____

>  <TORSDO>
F 4

$$$$
=
 OpenBabel10222416543D

 28 32  0  0  1  0  0  0  0  0999 V2000
  187.9080  178.2160  142.2650 C   0  0  1  0  0  3  0  0  0  0  0  0
  191.6550  177.1200  143.5180 O   0  0  0  0  0  0  0  0  0  0  0  0
  190.4000  176.9700  142.9360 C   0  0  1  0  0  0  0  0  0  0  0  0
  188.7000  178.2170  139.4870 S   0  0  0  0  0  0  0  0  0  0  0  0
  189.9610  177.5840  145.0720 O   0  0  0  0  0  0  0  0  0  0  0  0
  188.1770  177.6250  143.5360 O   0  0  0  0  0  0  0  0  0  0  0  0
  192.3890  177.5730  140.3000 C   0  0  0  0  0  1  0  0  0  0  0  0
  191.3570  177.4300  144.8770 C   0  0  1  0  0  3  0  0  0  0  0  0
  190.1960  177.2660  139.1970 C   0  0  0  0  0  0  0  0  0  0  0  0
  189.9830  175.4940  142.9780 C   0  0  0  0  0  1  0  0  0  0  0  0
  189.5440  177.8460  143.7820 C   0  0  2  0  0  3  0  0  0  0  0  0
  190.4570  176.8070  138.0980 O   0  0  0  0  0  0  0  0  0  0  0  0
  188.7620  177.5250  141.1600 C   0  0  1  0  0  3  0  0  0  0  0  0
  191.0170  176.9350  140.4040 C   0  0  2  0  0  3  0  0  0  0  0  0
  190.2430  177.5680  141.5440 C   0  0  2  0  0  3  0  0  0  0  0  0
  185.9830  179.0970  140.8760 C   0  0  0  0  0  1  0  0  0  0  0  0
  186.4050  178.1160  141.9580 C   0  0  2  0  0  3  0  0  0  0  0  0
  184.1670  178.5130  143.1800 C   0  0  0  0  0  0  0  0  0  0  0  0
  183.5410  178.6910  144.3750 N   0  0  0  0  0  0  0  0  0  0  0  0
  183.4130  178.5340  141.9970 C   0  0  0  0  0  3  0  0  0  0  0  0
  185.5870  178.3140  143.1560 N   0  0  0  0  0  2  0  0  0  0  0  0
  181.4190  178.9140  143.3030 C   0  0  0  0  0  3  0  0  0  0  0  0
  182.1980  178.8870  144.4610 C   0  0  0  0  0  3  0  0  0  0  0  0
  182.0330  178.7350  142.0640 C   0  0  0  0  0  3  0  0  0  0  0  0
  191.8990  176.3360  145.7840 C   0  0  0  0  0  2  0  0  0  0  0  0
  191.2600  176.4260  147.1560 C   0  0  0  0  0  3  0  0  0  0  0  0
  191.9850  175.6690  148.0490 O   0  0  0  0  0  0  0  0  0  0  0  0
  192.1460  177.0010  148.0390 O   0  0  0  0  0  0  0  0  0  0  0  0
  1 17  1  6  0  0  0
  1  6  1  0  0  0  0
  2  8  1  0  0  0  0
  3 10  1  1  0  0  0
  3  2  1  0  0  0  0
  3 11  1  0  0  0  0
  8  5  1  0  0  0  0
  8 25  1  1  0  0  0
  9  4  1  0  0  0  0
  9 14  1  0  0  0  0
 11  6  1  1  0  0  0
 11  5  1  0  0  0  0
 12  9  2  0  0  0  0
 13  4  1  6  0  0  0
 13 15  1  0  0  0  0
 13  1  1  0  0  0  0
 14  7  1  6  0  0  0
 14 15  1  0  0  0  0
 15  3  1  0  0  0  0
 16 17  1  0  0  0  0
 17 21  1  0  0  0  0
 18 19  2  0  0  0  0
 19 23  1  0  0  0  0
 20 24  2  0  0  0  0
 20 18  1  0  0  0  0
 21 18  1  0  0  0  0
 22 23  2  0  0  0  0
 24 22  1  0  0  0  0
 25 26  1  0  0  0  0
 26 28  1  0  0  0  0
 26 27  1  0  0  0  0
 28 27  1  0  0  0  0
M  END
>  <MODEL>
2

>  <REMARK>
 VINA RESULT:      -8.3      2.623      5.190
  Name = 
  4 active torsions:
  status: ('A' for Active; 'I' for Inactive)
    1  A    between atoms: C_1  and  C_17
    2  A    between atoms: C_9  and  C_19
    3  A    between atoms: N_12  and  C_17
    4  A    between atoms: C_14  and  C_19
                            x       y       z     vdW  Elec       q    Type
                         _______ _______ _______ _____ _____    ______ ____

>  <TORSDO>
F 4

$$$$
=
 OpenBabel10222416543D

 28 32  0  0  1  0  0  0  0  0999 V2000
  189.8230  177.8290  141.7500 C   0  0  1  0  0  3  0  0  0  0  0  0
  186.7180  178.3160  144.3830 O   0  0  0  0  0  0  0  0  0  0  0  0
  187.6920  177.6370  143.6560 C   0  0  1  0  0  0  0  0  0  0  0  0
  191.7170  177.3470  143.8780 S   0  0  0  0  0  0  0  0  0  0  0  0
  186.3940  178.6220  142.0800 O   0  0  0  0  0  0  0  0  0  0  0  0
  188.4490  177.7050  141.3860 O   0  0  0  0  0  0  0  0  0  0  0  0
  189.1670  178.1140  146.6330 C   0  0  0  0  0  1  0  0  0  0  0  0
  185.8700  178.8620  143.3760 C   0  0  1  0  0  3  0  0  0  0  0  0
  190.9200  176.8660  145.4130 C   0  0  0  0  0  0  0  0  0  0  0  0
  187.2790  176.1690  143.4800 C   0  0  0  0  0  1  0  0  0  0  0  0
  187.7240  178.3940  142.3740 C   0  0  2  0  0  3  0  0  0  0  0  0
  191.5170  176.2390  146.2720 O   0  0  0  0  0  0  0  0  0  0  0  0
  190.0710  177.1730  143.1410 C   0  0  1  0  0  3  0  0  0  0  0  0
  189.4500  177.1330  145.5110 C   0  0  2  0  0  3  0  0  0  0  0  0
  189.1160  177.7710  144.1770 C   0  0  2  0  0  3  0  0  0  0  0  0
  192.1540  177.6310  140.7820 C   0  0  0  0  0  1  0  0  0  0  0  0
  190.7040  177.1920  140.6630 C   0  0  2  0  0  3  0  0  0  0  0  0
  190.4340  176.6790  138.1480 C   0  0  0  0  0  0  0  0  0  0  0  0
  189.9100  177.0780  136.9570 N   0  0  0  0  0  0  0  0  0  0  0  0
  191.1910  175.4990  138.2080 C   0  0  0  0  0  3  0  0  0  0  0  0
  190.2060  177.4790  139.3160 N   0  0  0  0  0  2  0  0  0  0  0  0
  190.8430  175.1850  135.8400 C   0  0  0  0  0  3  0  0  0  0  0  0
  190.0960  176.3640  135.8150 C   0  0  0  0  0  3  0  0  0  0  0  0
  191.3930  174.7530  137.0460 C   0  0  0  0  0  3  0  0  0  0  0  0
  184.4770  178.2680  143.4990 C   0  0  0  0  0  2  0  0  0  0  0  0
  183.5200  179.2860  144.0880 C   0  0  0  0  0  3  0  0  0  0  0  0
  182.4730  178.6320  144.6990 O   0  0  0  0  0  0  0  0  0  0  0  0
  183.4640  179.1290  145.4540 O   0  0  0  0  0  0  0  0  0  0  0  0
  1 17  1  6  0  0  0
  1 13  1  0  0  0  0
  3 10  1  6  0  0  0
  3 15  1  0  0  0  0
  3  2  1  0  0  0  0
  4  9  1  0  0  0  0
  5 11  1  0  0  0  0
  5  8  1  0  0  0  0
  6  1  1  0  0  0  0
  8 25  1  6  0  0  0
  8  2  1  0  0  0  0
  9 14  1  0  0  0  0
  9 12  2  0  0  0  0
 11  6  1  6  0  0  0
 11  3  1  0  0  0  0
 13  4  1  1  0  0  0
 13 15  1  0  0  0  0
 14  7  1  1  0  0  0
 15 14  1  0  0  0  0
 17 16  1  0  0  0  0
 18 20  1  0  0  0  0
 18 21  1  0  0  0  0
 19 18  2  0  0  0  0
 21 17  1  0  0  0  0
 22 24  1  0  0  0  0
 23 22  2  0  0  0  0
 23 19  1  0  0  0  0
 24 20  2  0  0  0  0
 25 26  1  0  0  0  0
 26 27  1  0  0  0  0
 26 28  1  0  0  0  0
 27 28  1  0  0  0  0
M  END
>  <MODEL>
3

>  <REMARK>
 VINA RESULT:      -7.7      3.289      6.193
  Name = 
  4 active torsions:
  status: ('A' for Active; 'I' for Inactive)
    1  A    between atoms: C_1  and  C_17
    2  A    between atoms: C_9  and  C_19
    3  A    between atoms: N_12  and  C_17
    4  A    between atoms: C_14  and  C_19
                            x       y       z     vdW  Elec       q    Type
                         _______ _______ _______ _____ _____    ______ ____

>  <TORSDO>
F 4

$$$$
=
 OpenBabel10222416543D

 28 32  0  0  1  0  0  0  0  0999 V2000
  188.0780  178.7250  141.8180 C   0  0  1  0  0  3  0  0  0  0  0  0
  191.6230  177.1700  143.1690 O   0  0  0  0  0  0  0  0  0  0  0  0
  190.3590  177.1700  142.5870 C   0  0  1  0  0  0  0  0  0  0  0  0
  188.8580  178.4300  139.0530 S   0  0  0  0  0  0  0  0  0  0  0  0
  190.0190  177.9760  144.6770 O   0  0  0  0  0  0  0  0  0  0  0  0
  188.2590  178.1830  143.1270 O   0  0  0  0  0  0  0  0  0  0  0  0
  192.4120  177.3020  139.9350 C   0  0  0  0  0  1  0  0  0  0  0  0
  191.3770  177.6060  144.5030 C   0  0  1  0  0  3  0  0  0  0  0  0
  190.1970  177.2530  138.8360 C   0  0  0  0  0  0  0  0  0  0  0  0
  189.7280  175.7770  142.7200 C   0  0  0  0  0  1  0  0  0  0  0  0
  189.6430  178.2140  143.3700 C   0  0  2  0  0  3  0  0  0  0  0  0
  190.3850  176.6910  137.7700 O   0  0  0  0  0  0  0  0  0  0  0  0
  188.8190  177.8460  140.7670 C   0  0  1  0  0  3  0  0  0  0  0  0
  190.9610  176.8820  140.0690 C   0  0  2  0  0  3  0  0  0  0  0  0
  190.2910  177.6940  141.1600 C   0  0  2  0  0  3  0  0  0  0  0  0
  185.7270  178.2220  142.6120 C   0  0  0  0  0  1  0  0  0  0  0  0
  186.5770  178.8280  141.5070 C   0  0  2  0  0  3  0  0  0  0  0  0
  185.0260  178.4120  139.4860 C   0  0  0  0  0  0  0  0  0  0  0  0
  184.8500  177.7600  138.3050 N   0  0  0  0  0  0  0  0  0  0  0  0
  184.0170  179.2640  139.9610 C   0  0  0  0  0  3  0  0  0  0  0  0
  186.2390  178.2090  140.2230 N   0  0  0  0  0  2  0  0  0  0  0  0
  182.6970  178.7490  138.0060 C   0  0  0  0  0  3  0  0  0  0  0  0
  183.7200  177.9090  137.5620 C   0  0  0  0  0  3  0  0  0  0  0  0
  182.8500  179.4300  139.2130 C   0  0  0  0  0  3  0  0  0  0  0  0
  191.7510  176.5040  145.4820 C   0  0  0  0  0  2  0  0  0  0  0  0
  191.0830  176.7410  146.8220 C   0  0  0  0  0  3  0  0  0  0  0  0
  191.3800  175.7000  147.6730 O   0  0  0  0  0  0  0  0  0  0  0  0
  192.0430  176.8590  147.8010 O   0  0  0  0  0  0  0  0  0  0  0  0
  1 17  1  6  0  0  0
  1  6  1  0  0  0  0
  2  8  1  0  0  0  0
  3 10  1  1  0  0  0
  3  2  1  0  0  0  0
  3 11  1  0  0  0  0
  8  5  1  0  0  0  0
  8 25  1  1  0  0  0
  9  4  1  0  0  0  0
  9 14  1  0  0  0  0
 11  6  1  1  0  0  0
 11  5  1  0  0  0  0
 12  9  2  0  0  0  0
 13  4  1  6  0  0  0
 13 15  1  0  0  0  0
 13  1  1  0  0  0  0
 14  7  1  6  0  0  0
 14 15  1  0  0  0  0
 15  3  1  0  0  0  0
 17 16  1  0  0  0  0
 18 20  1  0  0  0  0
 18 21  1  0  0  0  0
 19 18  2  0  0  0  0
 21 17  1  0  0  0  0
 22 24  1  0  0  0  0
 23 22  2  0  0  0  0
 23 19  1  0  0  0  0
 24 20  2  0  0  0  0
 25 26  1  0  0  0  0
 26 27  1  0  0  0  0
 26 28  1  0  0  0  0
 27 28  1  0  0  0  0
M  END
>  <MODEL>
4

>  <REMARK>
 VINA RESULT:      -7.7      2.611      4.998
  Name = 
  4 active torsions:
  status: ('A' for Active; 'I' for Inactive)
    1  A    between atoms: C_1  and  C_17
    2  A    between atoms: C_9  and  C_19
    3  A    between atoms: N_12  and  C_17
    4  A    between atoms: C_14  and  C_19
                            x       y       z     vdW  Elec       q    Type
                         _______ _______ _______ _____ _____    ______ ____

>  <TORSDO>
F 4

$$$$
=
 OpenBabel10222416543D

 28 32  0  0  1  0  0  0  0  0999 V2000
  189.7290  176.9940  140.4700 C   0  0  1  0  0  3  0  0  0  0  0  0
  189.5980  177.1200  144.5660 O   0  0  0  0  0  0  0  0  0  0  0  0
  189.6660  177.6150  143.2670 C   0  0  1  0  0  0  0  0  0  0  0  0
  187.0280  177.9890  140.2270 S   0  0  0  0  0  0  0  0  0  0  0  0
  191.4800  176.2700  143.4550 O   0  0  0  0  0  0  0  0  0  0  0  0
  190.8900  177.0140  141.3000 O   0  0  0  0  0  0  0  0  0  0  0  0
  186.4020  177.8780  144.0070 C   0  0  0  0  0  1  0  0  0  0  0  0
  190.7850  176.3400  144.6890 C   0  0  1  0  0  3  0  0  0  0  0  0
  186.4620  178.8150  141.7190 C   0  0  0  0  0  0  0  0  0  0  0  0
  190.3390  178.9940  143.2720 C   0  0  0  0  0  1  0  0  0  0  0  0
  190.4670  176.5740  142.5670 C   0  0  2  0  0  3  0  0  0  0  0  0
  185.5600  179.6360  141.6890 O   0  0  0  0  0  0  0  0  0  0  0  0
  188.6500  177.9660  141.0340 C   0  0  1  0  0  3  0  0  0  0  0  0
  187.2590  178.5650  142.9600 C   0  0  2  0  0  3  0  0  0  0  0  0
  188.3530  177.6240  142.4960 C   0  0  2  0  0  3  0  0  0  0  0  0
  189.4200  178.6280  138.5610 C   0  0  0  0  0  1  0  0  0  0  0  0
  190.1190  177.3620  139.0300 C   0  0  2  0  0  3  0  0  0  0  0  0
  190.8180  175.3390  137.5860 C   0  0  0  0  0  0  0  0  0  0  0  0
  190.4180  174.3760  136.7120 N   0  0  0  0  0  0  0  0  0  0  0  0
  192.1660  175.4090  137.9670 C   0  0  0  0  0  3  0  0  0  0  0  0
  189.8500  176.2690  138.0930 N   0  0  0  0  0  2  0  0  0  0  0  0
  192.6380  173.5100  136.5540 C   0  0  0  0  0  3  0  0  0  0  0  0
  191.2900  173.4690  136.1950 C   0  0  0  0  0  3  0  0  0  0  0  0
  193.0760  174.4870  137.4470 C   0  0  0  0  0  3  0  0  0  0  0  0
  191.6810  176.9340  145.7650 C   0  0  0  0  0  2  0  0  0  0  0  0
  191.3660  176.3140  147.1120 C   0  0  0  0  0  3  0  0  0  0  0  0
  192.5210  175.8030  147.6620 O   0  0  0  0  0  0  0  0  0  0  0  0
  192.0550  176.9830  148.0980 O   0  0  0  0  0  0  0  0  0  0  0  0
  1 17  1  6  0  0  0
  1 13  1  0  0  0  0
  1  6  1  0  0  0  0
  2  8  1  0  0  0  0
  3 10  1  6  0  0  0
  3  2  1  0  0  0  0
  4  9  1  0  0  0  0
  5  8  1  0  0  0  0
  8 25  1  1  0  0  0
  9 14  1  0  0  0  0
 11  6  1  6  0  0  0
 11  3  1  0  0  0  0
 11  5  1  0  0  0  0
 12  9  2  0  0  0  0
 13  4  1  6  0  0  0
 13 15  1  0  0  0  0
 14  7  1  1  0  0  0
 15 14  1  0  0  0  0
 15  3  1  0  0  0  0
 16 17  1  0  0  0  0
 18 20  1  0  0  0  0
 18 21  1  0  0  0  0
 19 18  2  0  0  0  0
 21 17  1  0  0  0  0
 22 24  1  0  0  0  0
 23 22  2  0  0  0  0
 23 19  1  0  0  0  0
 24 20  2  0  0  0  0
 25 26  1  0  0  0  0
 26 27  1  0  0  0  0
 26 28  1  0  0  0  0
 27 28  1  0  0  0  0
M  END
>  <MODEL>
5

>  <REMARK>
 VINA RESULT:      -7.7      3.697      6.388
  Name = 
  4 active torsions:
  status: ('A' for Active; 'I' for Inactive)
    1  A    between atoms: C_1  and  C_17
    2  A    between atoms: C_9  and  C_19
    3  A    between atoms: N_12  and  C_17
    4  A    between atoms: C_14  and  C_19
                            x       y       z     vdW  Elec       q    Type
                         _______ _______ _______ _____ _____    ______ ____

>  <TORSDO>
F 4

$$$$
=
 OpenBabel10222416543D

 28 32  0  0  1  0  0  0  0  0999 V2000
  187.9620  177.2740  142.0770 C   0  0  1  0  0  3  0  0  0  0  0  0
  189.5230  176.6970  145.8240 O   0  0  0  0  0  0  0  0  0  0  0  0
  189.0720  177.4070  144.7150 C   0  0  1  0  0  0  0  0  0  0  0  0
  185.4380  178.2000  143.1330 S   0  0  0  0  0  0  0  0  0  0  0  0
  190.7510  176.1140  143.9130 O   0  0  0  0  0  0  0  0  0  0  0  0
  189.3610  177.1930  142.3490 O   0  0  0  0  0  0  0  0  0  0  0  0
  186.4090  177.4260  146.7590 C   0  0  0  0  0  1  0  0  0  0  0  0
  190.6250  175.9500  145.3160 C   0  0  1  0  0  3  0  0  0  0  0  0
  185.5640  178.7400  144.8410 C   0  0  0  0  0  0  0  0  0  0  0  0
  189.7410  178.7880  144.6780 C   0  0  0  0  0  1  0  0  0  0  0  0
  189.4760  176.5290  143.5830 C   0  0  2  0  0  3  0  0  0  0  0  0
  184.7600  179.5210  145.3240 O   0  0  0  0  0  0  0  0  0  0  0  0
  187.2460  178.0970  143.1880 C   0  0  1  0  0  3  0  0  0  0  0  0
  186.7890  178.3100  145.5860 C   0  0  2  0  0  3  0  0  0  0  0  0
  187.5600  177.5010  144.5620 C   0  0  2  0  0  3  0  0  0  0  0  0
  188.9970  178.5800  140.1710 C   0  0  0  0  0  1  0  0  0  0  0  0
  187.7420  177.8940  140.6880 C   0  0  2  0  0  3  0  0  0  0  0  0
  185.5020  178.8020  139.7820 C   0  0  0  0  0  0  0  0  0  0  0  0
  184.5350  179.7530  139.8910 N   0  0  0  0  0  0  0  0  0  0  0  0
  185.3890  177.8130  138.7930 C   0  0  0  0  0  3  0  0  0  0  0  0
  186.6210  178.8360  140.6790 N   0  0  0  0  0  2  0  0  0  0  0  0
  183.3100  178.8060  138.0730 C   0  0  0  0  0  3  0  0  0  0  0  0
  183.4530  179.7760  139.0670 C   0  0  0  0  0  3  0  0  0  0  0  0
  184.2860  177.8200  137.9380 C   0  0  0  0  0  3  0  0  0  0  0  0
  191.9050  176.3820  146.0140 C   0  0  0  0  0  2  0  0  0  0  0  0
  191.8970  175.9230  147.4590 C   0  0  0  0  0  3  0  0  0  0  0  0
  193.1900  175.8730  147.9300 O   0  0  0  0  0  0  0  0  0  0  0  0
  192.4130  176.9160  148.2600 O   0  0  0  0  0  0  0  0  0  0  0  0
  1 17  1  6  0  0  0
  1  6  1  0  0  0  0
  1 13  1  0  0  0  0
  3 10  1  6  0  0  0
  3  2  1  0  0  0  0
  4  9  1  0  0  0  0
  5  8  1  0  0  0  0
  8  2  1  0  0  0  0
  8 25  1  1  0  0  0
  9 12  2  0  0  0  0
  9 14  1  0  0  0  0
 11  6  1  6  0  0  0
 11  5  1  0  0  0  0
 11  3  1  0  0  0  0
 13  4  1  6  0  0  0
 13 15  1  0  0  0  0
 14  7  1  1  0  0  0
 15  3  1  0  0  0  0
 15 14  1  0  0  0  0
 16 17  1  0  0  0  0
 18 19  2  0  0  0  0
 18 21  1  0  0  0  0
 20 18  1  0  0  0  0
 21 17  1  0  0  0  0
 22 23  2  0  0  0  0
 23 19  1  0  0  0  0
 24 22  1  0  0  0  0
 24 20  2  0  0  0  0
 25 26  1  0  0  0  0
 26 27  1  0  0  0  0
 26 28  1  0  0  0  0
 27 28  1  0  0  0  0
M  END
>  <MODEL>
6

>  <REMARK>
 VINA RESULT:      -7.4      2.229      3.678
  Name = 
  4 active torsions:
  status: ('A' for Active; 'I' for Inactive)
    1  A    between atoms: C_1  and  C_17
    2  A    between atoms: C_9  and  C_19
    3  A    between atoms: N_12  and  C_17
    4  A    between atoms: C_14  and  C_19
                            x       y       z     vdW  Elec       q    Type
                         _______ _______ _______ _____ _____    ______ ____

>  <TORSDO>
F 4

$$$$
=
 OpenBabel10222416543D

 28 32  0  0  1  0  0  0  0  0999 V2000
  190.0370  177.4610  139.5340 C   0  0  1  0  0  3  0  0  0  0  0  0
  192.3410  176.1650  136.4000 O   0  0  0  0  0  0  0  0  0  0  0  0
  191.3610  176.1030  137.3870 C   0  0  1  0  0  0  0  0  0  0  0  0
  187.6990  177.7450  137.8620 S   0  0  0  0  0  0  0  0  0  0  0  0
  193.2830  176.4910  138.5230 O   0  0  0  0  0  0  0  0  0  0  0  0
  191.2540  176.7320  139.6930 O   0  0  0  0  0  0  0  0  0  0  0  0
  189.6210  176.9480  134.6440 C   0  0  0  0  0  1  0  0  0  0  0  0
  193.5480  176.3330  137.1390 C   0  0  1  0  0  3  0  0  0  0  0  0
  187.8240  176.8030  136.3380 C   0  0  0  0  0  0  0  0  0  0  0  0
  191.1030  174.6380  137.7670 C   0  0  0  0  0  1  0  0  0  0  0  0
  191.9640  176.8980  138.4910 C   0  0  2  0  0  3  0  0  0  0  0  0
  186.8310  176.4600  135.7170 O   0  0  0  0  0  0  0  0  0  0  0  0
  189.2130  176.8770  138.3480 C   0  0  1  0  0  3  0  0  0  0  0  0
  189.1920  176.3280  135.9610 C   0  0  2  0  0  3  0  0  0  0  0  0
  190.0710  176.8500  137.0810 C   0  0  2  0  0  3  0  0  0  0  0  0
  188.2970  178.6110  140.9700 C   0  0  0  0  0  1  0  0  0  0  0  0
  189.2380  177.4230  140.8470 C   0  0  2  0  0  3  0  0  0  0  0  0
  189.6830  177.3040  143.3860 C   0  0  0  0  0  0  0  0  0  0  0  0
  190.6170  177.2530  144.3750 N   0  0  0  0  0  0  0  0  0  0  0  0
  188.3210  177.3090  143.7240 C   0  0  0  0  0  3  0  0  0  0  0  0
  190.1130  177.3580  142.0190 N   0  0  0  0  0  2  0  0  0  0  0  0
  188.9240  177.2070  146.0590 C   0  0  0  0  0  3  0  0  0  0  0  0
  190.2700  177.2030  145.6890 C   0  0  0  0  0  3  0  0  0  0  0  0
  187.9450  177.2590  145.0670 C   0  0  0  0  0  3  0  0  0  0  0  0
  194.4600  175.1370  136.9120 C   0  0  0  0  0  2  0  0  0  0  0  0
  194.9010  174.5510  138.2390 C   0  0  0  0  0  3  0  0  0  0  0  0
  195.9260  173.6560  138.0260 O   0  0  0  0  0  0  0  0  0  0  0  0
  196.2150  174.8860  138.4760 O   0  0  0  0  0  0  0  0  0  0  0  0
  1  6  1  0  0  0  0
  1 17  1  1  0  0  0
  2  8  1  0  0  0  0
  2  3  1  0  0  0  0
  3 10  1  1  0  0  0
  3 11  1  0  0  0  0
  8 25  1  1  0  0  0
  8  5  1  0  0  0  0
  9  4  1  0  0  0  0
 11  5  1  1  0  0  0
 11  6  1  0  0  0  0
 12  9  2  0  0  0  0
 13  4  1  6  0  0  0
 13  1  1  0  0  0  0
 14  7  1  6  0  0  0
 14  9  1  0  0  0  0
 14 15  1  0  0  0  0
 15  3  1  0  0  0  0
 15 13  1  0  0  0  0
 17 16  1  0  0  0  0
 17 21  1  0  0  0  0
 18 20  1  0  0  0  0
 18 19  2  0  0  0  0
 19 23  1  0  0  0  0
 20 24  2  0  0  0  0
 21 18  1  0  0  0  0
 23 22  2  0  0  0  0
 24 22  1  0  0  0  0
 25 26  1  0  0  0  0
 26 28  1  0  0  0  0
 27 26  1  0  0  0  0
 27 28  1  0  0  0  0
M  END
>  <MODEL>
7

>  <REMARK>
 VINA RESULT:      -7.4      4.338      7.761
  Name = 
  4 active torsions:
  status: ('A' for Active; 'I' for Inactive)
    1  A    between atoms: C_1  and  C_17
    2  A    between atoms: C_9  and  C_19
    3  A    between atoms: N_12  and  C_17
    4  A    between atoms: C_14  and  C_19
                            x       y       z     vdW  Elec       q    Type
                         _______ _______ _______ _____ _____    ______ ____

>  <TORSDO>
F 4

$$$$
=
 OpenBabel10222416543D

 28 32  0  0  1  0  0  0  0  0999 V2000
  188.9240  177.0090  141.5710 C   0  0  1  0  0  3  0  0  0  0  0  0
  189.7380  176.7310  145.5800 O   0  0  0  0  0  0  0  0  0  0  0  0
  189.5030  177.3510  144.3570 C   0  0  1  0  0  0  0  0  0  0  0  0
  186.2340  177.9450  142.0540 S   0  0  0  0  0  0  0  0  0  0  0  0
  191.3180  176.0460  143.9880 O   0  0  0  0  0  0  0  0  0  0  0  0
  190.2450  176.9800  142.1120 O   0  0  0  0  0  0  0  0  0  0  0  0
  186.4950  177.4480  145.8450 C   0  0  0  0  0  1  0  0  0  0  0  0
  190.9250  175.9770  145.3480 C   0  0  1  0  0  3  0  0  0  0  0  0
  186.0220  178.6050  143.7110 C   0  0  0  0  0  0  0  0  0  0  0  0
  190.1520  178.7420  144.3480 C   0  0  0  0  0  1  0  0  0  0  0  0
  190.1270  176.4070  143.3900 C   0  0  2  0  0  3  0  0  0  0  0  0
  185.1330  179.3990  143.9720 O   0  0  0  0  0  0  0  0  0  0  0  0
  187.9990  177.8900  142.4620 C   0  0  1  0  0  3  0  0  0  0  0  0
  187.0850  178.2580  144.7060 C   0  0  2  0  0  3  0  0  0  0  0  0
  188.0480  177.3980  143.9110 C   0  0  2  0  0  3  0  0  0  0  0  0
  187.6920  178.2560  139.7450 C   0  0  0  0  0  1  0  0  0  0  0  0
  188.9700  177.5260  140.1250 C   0  0  2  0  0  3  0  0  0  0  0  0
  190.5180  176.0880  138.6420 C   0  0  0  0  0  0  0  0  0  0  0  0
  190.6060  175.0650  137.7490 N   0  0  0  0  0  0  0  0  0  0  0  0
  191.6820  176.7690  139.0270 C   0  0  0  0  0  3  0  0  0  0  0  0
  189.2330  176.4500  139.1660 N   0  0  0  0  0  2  0  0  0  0  0  0
  192.9720  175.3340  137.5770 C   0  0  0  0  0  3  0  0  0  0  0  0
  191.7950  174.6770  137.2150 C   0  0  0  0  0  3  0  0  0  0  0  0
  192.9120  176.3860  138.4900 C   0  0  0  0  0  3  0  0  0  0  0  0
  192.0420  176.4870  146.2460 C   0  0  0  0  0  2  0  0  0  0  0  0
  191.6870  176.2690  147.7040 C   0  0  0  0  0  3  0  0  0  0  0  0
  192.8040  175.8450  148.3880 O   0  0  0  0  0  0  0  0  0  0  0  0
  192.4220  177.1270  148.4900 O   0  0  0  0  0  0  0  0  0  0  0  0
  1 17  1  6  0  0  0
  1  6  1  0  0  0  0
  1 13  1  0  0  0  0
  3 10  1  6  0  0  0
  3  2  1  0  0  0  0
  4  9  1  0  0  0  0
  5  8  1  0  0  0  0
  8  2  1  0  0  0  0
  8 25  1  1  0  0  0
  9 12  2  0  0  0  0
  9 14  1  0  0  0  0
 11  6  1  6  0  0  0
 11  5  1  0  0  0  0
 11  3  1  0  0  0  0
 13  4  1  6  0  0  0
 13 15  1  0  0  0  0
 14  7  1  1  0  0  0
 15  3  1  0  0  0  0
 15 14  1  0  0  0  0
 16 17  1  0  0  0  0
 18 20  1  0  0  0  0
 18 21  1  0  0  0  0
 19 18  2  0  0  0  0
 21 17  1  0  0  0  0
 22 24  1  0  0  0  0
 23 22  2  0  0  0  0
 23 19  1  0  0  0  0
 24 20  2  0  0  0  0
 25 26  1  0  0  0  0
 26 27  1  0  0  0  0
 26 28  1  0  0  0  0
 27 28  1  0  0  0  0
M  END
>  <MODEL>
8

>  <REMARK>
 VINA RESULT:      -7.3      3.181      5.722
  Name = 
  4 active torsions:
  status: ('A' for Active; 'I' for Inactive)
    1  A    between atoms: C_1  and  C_17
    2  A    between atoms: C_9  and  C_19
    3  A    between atoms: N_12  and  C_17
    4  A    between atoms: C_14  and  C_19
                            x       y       z     vdW  Elec       q    Type
                         _______ _______ _______ _____ _____    ______ ____

>  <TORSDO>
F 4

$$$$
=
 OpenBabel10222416543D

 28 32  0  0  1  0  0  0  0  0999 V2000
  190.4510  176.5970  141.2820 C   0  0  1  0  0  3  0  0  0  0  0  0
  189.6470  176.9410  145.2870 O   0  0  0  0  0  0  0  0  0  0  0  0
  189.9310  177.3650  143.9930 C   0  0  1  0  0  0  0  0  0  0  0  0
  187.8340  177.5720  140.5440 S   0  0  0  0  0  0  0  0  0  0  0  0
  191.6810  176.0360  144.5490 O   0  0  0  0  0  0  0  0  0  0  0  0
  191.4600  176.6640  142.2900 O   0  0  0  0  0  0  0  0  0  0  0  0
  186.5920  177.6600  144.1690 C   0  0  0  0  0  1  0  0  0  0  0  0
  190.7920  176.1710  145.6450 C   0  0  1  0  0  3  0  0  0  0  0  0
  187.0350  178.4750  141.8750 C   0  0  0  0  0  0  0  0  0  0  0  0
  190.6040  178.7450  144.0370 C   0  0  0  0  0  1  0  0  0  0  0  0
  190.8300  176.2910  143.4910 C   0  0  2  0  0  3  0  0  0  0  0  0
  186.1550  179.2910  141.6540 O   0  0  0  0  0  0  0  0  0  0  0  0
  189.3010  177.5960  141.6080 C   0  0  1  0  0  3  0  0  0  0  0  0
  187.6150  178.2930  143.2430 C   0  0  2  0  0  3  0  0  0  0  0  0
  188.7640  177.3310  143.0160 C   0  0  2  0  0  3  0  0  0  0  0  0
  192.4610  177.5030  140.0370 C   0  0  0  0  0  1  0  0  0  0  0  0
  191.0760  176.8890  139.9080 C   0  0  2  0  0  3  0  0  0  0  0  0
  189.8570  177.5190  137.7220 C   0  0  0  0  0  0  0  0  0  0  0  0
  189.0580  178.4180  137.0860 N   0  0  0  0  0  0  0  0  0  0  0  0
  190.3110  176.3870  137.0280 C   0  0  0  0  0  3  0  0  0  0  0  0
  190.2230  177.7520  139.0890 N   0  0  0  0  0  2  0  0  0  0  0  0
  189.1140  177.1380  135.0710 C   0  0  0  0  0  3  0  0  0  0  0  0
  188.6800  178.2530  135.7900 C   0  0  0  0  0  3  0  0  0  0  0  0
  189.9350  176.2000  135.6970 C   0  0  0  0  0  3  0  0  0  0  0  0
  191.5020  176.8230  146.8220 C   0  0  0  0  0  2  0  0  0  0  0  0
  191.9900  175.7660  147.7930 C   0  0  0  0  0  3  0  0  0  0  0  0
  193.3550  175.6280  147.6710 O   0  0  0  0  0  0  0  0  0  0  0  0
  192.8570  176.3370  148.6960 O   0  0  0  0  0  0  0  0  0  0  0  0
  1 17  1  6  0  0  0
  1 13  1  0  0  0  0
  1  6  1  0  0  0  0
  2  8  1  0  0  0  0
  3 10  1  6  0  0  0
  3  2  1  0  0  0  0
  4  9  1  0  0  0  0
  5  8  1  0  0  0  0
  8 25  1  1  0  0  0
  9 14  1  0  0  0  0
 11  6  1  6  0  0  0
 11  3  1  0  0  0  0
 11  5  1  0  0  0  0
 12  9  2  0  0  0  0
 13  4  1  6  0  0  0
 13 15  1  0  0  0  0
 14  7  1  1  0  0  0
 15 14  1  0  0  0  0
 15  3  1  0  0  0  0
 17 16  1  0  0  0  0
 18 21  1  0  0  0  0
 19 18  2  0  0  0  0
 20 18  1  0  0  0  0
 21 17  1  0  0  0  0
 22 24  1  0  0  0  0
 22 23  2  0  0  0  0
 23 19  1  0  0  0  0
 24 20  2  0  0  0  0
 25 26  1  0  0  0  0
 26 28  1  0  0  0  0
 27 26  1  0  0  0  0
 27 28  1  0  0  0  0
M  END
>  <MODEL>
9

>  <REMARK>
 VINA RESULT:      -7.3      3.469      5.791
  Name = 
  4 active torsions:
  status: ('A' for Active; 'I' for Inactive)
    1  A    between atoms: C_1  and  C_17
    2  A    between atoms: C_9  and  C_19
    3  A    between atoms: N_12  and  C_17
    4  A    between atoms: C_14  and  C_19
                            x       y       z     vdW  Elec       q    Type
                         _______ _______ _______ _____ _____    ______ ____

>  <TORSDO>
F 4

$$$$
