=
 OpenBabel10222421163D

 37 38  0  0  1  0  0  0  0  0999 V2000
  189.2310  177.7560  140.9660 N   0  0  0  0  0  0  0  0  0  0  0  0
  189.4400  177.9450  139.5540 C   0  0  0  0  0  0  0  0  0  0  0  0
  189.0090  178.9950  139.0040 O   0  0  0  0  0  0  0  0  0  0  0  0
  192.2880  175.9040  137.8460 C   0  0  0  0  0  3  0  0  0  0  0  0
  190.1270  176.9230  138.7260 C   0  0  0  0  0  0  0  0  0  0  0  0
  189.4290  176.0690  137.9500 C   0  0  0  0  0  0  0  0  0  0  0  0
  190.1290  175.0620  137.1350 C   0  0  0  0  0  0  0  0  0  0  0  0
  191.6300  176.7930  138.8690 C   0  0  0  0  0  2  0  0  0  0  0  0
  189.4740  174.2140  136.4730 O   0  0  0  0  0  0  0  0  0  0  0  0
  188.0410  176.1450  137.8750 O   0  0  0  0  0  1  0  0  0  0  0  0
  191.5950  175.0760  137.0680 C   0  0  0  0  0  0  0  0  0  0  0  0
  192.2660  174.2400  136.1830 O   0  0  0  0  0  1  0  0  0  0  0  0
  188.4200  178.6600  141.6740 N   0  0  0  0  0  2  0  0  0  0  0  0
  187.0840  178.0850  141.7580 C   0  0  1  0  0  3  0  0  0  0  0  0
  186.9610  177.2770  143.0400 C   0  0  0  0  0  2  0  0  0  0  0  0
  186.4480  178.1350  144.1850 C   0  0  0  0  0  3  0  0  0  0  0  0
  186.9890  177.6340  145.5240 C   0  0  0  0  0  2  0  0  0  0  0  0
  184.9220  178.0940  144.1930 C   0  0  0  0  0  2  0  0  0  0  0  0
  186.4440  178.4840  146.6680 C   0  0  0  0  0  2  0  0  0  0  0  0
  184.9200  178.4410  146.6730 C   0  0  0  0  0  2  0  0  0  0  0  0
  184.3760  178.9440  145.3380 C   0  0  0  0  0  2  0  0  0  0  0  0
  186.0430  179.1960  141.7510 C   0  0  0  0  0  2  0  0  0  0  0  0
  185.6160  179.4480  140.4460 O   0  0  0  0  0  0  0  0  0  0  0  0
  184.2560  179.1340  140.4450 C   0  0  0  0  0  2  0  0  0  0  0  0
  183.6750  179.4550  139.1140 C   0  0  0  0  0  0  0  0  0  0  0  0
  183.4690  178.4440  138.1850 O   0  0  0  0  0  0  0  0  0  0  0  0
  183.3340  180.6370  138.8410 O   0  0  0  0  0  1  0  0  0  0  0  0
  189.9980  176.7590  141.7070 C   0  0  0  0  0  2  0  0  0  0  0  0
  191.0100  177.4390  142.6110 C   0  0  0  0  0  2  0  0  0  0  0  0
  190.5750  177.3120  144.0660 C   0  0  2  0  0  3  0  0  0  0  0  0
  191.1810  179.4480  144.0030 C   0  0  0  0  0  1  0  0  0  0  0  0
  190.2440  178.5780  144.5640 O   0  0  0  0  0  0  0  0  0  0  0  0
  191.7010  176.6970  144.8960 C   0  0  2  0  0  3  0  0  0  0  0  0
  191.9630  175.4000  144.4460 O   0  0  0  0  0  1  0  0  0  0  0  0
  191.3030  176.6490  146.3670 C   0  0  0  0  0  2  0  0  0  0  0  0
  192.7580  176.2540  148.2230 O   0  0  0  0  0  1  0  0  0  0  0  0
  192.1460  175.6410  147.1300 C   0  0  0  0  0  2  0  0  0  0  0  0
  1 13  1  0  0  0  0
  1 28  1  0  0  0  0
  2  1  1  0  0  0  0
  3  2  2  0  0  0  0
  4  8  1  0  0  0  0
  5  8  1  0  0  0  0
  5  2  1  0  0  0  0
  6  5  2  0  0  0  0
  7  6  1  0  0  0  0
  9  7  2  0  0  0  0
 10  6  1  0  0  0  0
 11  7  1  0  0  0  0
 11  4  2  0  0  0  0
 12 11  1  0  0  0  0
 13 14  1  0  0  0  0
 14 22  1  1  0  0  0
 14 15  1  0  0  0  0
 15 16  1  0  0  0  0
 16 18  1  0  0  0  0
 16 17  1  0  0  0  0
 17 19  1  0  0  0  0
 18 21  1  0  0  0  0
 19 20  1  0  0  0  0
 21 20  1  0  0  0  0
 23 22  1  0  0  0  0
 24 23  1  0  0  0  0
 25 24  1  0  0  0  0
 26 25  2  0  0  0  0
 27 25  1  0  0  0  0
 28 29  1  0  0  0  0
 30 29  1  6  0  0  0
 30 32  1  0  0  0  0
 30 33  1  0  0  0  0
 31 32  1  0  0  0  0
 33 34  1  6  0  0  0
 33 35  1  0  0  0  0
 35 37  1  0  0  0  0
 37 36  1  0  0  0  0
M  END
>  <MODEL>
1

>  <REMARK>
 VINA RESULT:      -7.9      0.000      0.000
  Name = 
  16 active torsions:
  status: ('A' for Active; 'I' for Inactive)
    1  A    between atoms: C_1  and  C_22
    2  A    between atoms: C_1  and  C_25
    3  A    between atoms: C_2  and  C_37
    4  A    between atoms: N_3  and  C_4
    5  A    between atoms: N_3  and  N_31
    6  A    between atoms: C_4  and  C_28
    7  A    between atoms: C_5  and  C_19
    8  A    between atoms: C_9  and  C_20
    9  A    between atoms: C_11  and  C_22
   10  A    between atoms: C_11  and  C_28
   11  A    between atoms: C_11  and  O_35
   12  A    between atoms: O_15  and  C_19
   13  A    between atoms: O_15  and  C_21
   14  A    between atoms: C_21  and  C_32
   15  A    between atoms: N_31  and  C_32
   16  A    between atoms: C_32  and  C_37
                            x       y       z     vdW  Elec       q    Type
                         _______ _______ _______ _____ _____    ______ ____

>  <TORSDO>
F 16

$$$$
=
 OpenBabel10222421163D

 37 38  0  0  1  0  0  0  0  0999 V2000
  188.7010  178.0670  140.5980 N   0  0  0  0  0  0  0  0  0  0  0  0
  189.2440  178.1300  139.2670 C   0  0  0  0  0  0  0  0  0  0  0  0
  189.0910  179.1840  138.5890 O   0  0  0  0  0  0  0  0  0  0  0  0
  192.1450  175.8020  138.1020 C   0  0  0  0  0  3  0  0  0  0  0  0
  189.9580  176.9780  138.6630 C   0  0  0  0  0  0  0  0  0  0  0  0
  189.2900  176.0160  137.9930 C   0  0  0  0  0  0  0  0  0  0  0  0
  190.0150  174.8800  137.4000 C   0  0  0  0  0  0  0  0  0  0  0  0
  191.4460  176.8540  138.9200 C   0  0  0  0  0  2  0  0  0  0  0  0
  189.3830  173.9430  136.8460 O   0  0  0  0  0  0  0  0  0  0  0  0
  187.9100  176.0960  137.8180 O   0  0  0  0  0  1  0  0  0  0  0  0
  191.4830  174.8650  137.4270 C   0  0  0  0  0  0  0  0  0  0  0  0
  192.1870  173.8860  136.7350 O   0  0  0  0  0  1  0  0  0  0  0  0
  187.8790  179.1090  141.0620 N   0  0  0  0  0  2  0  0  0  0  0  0
  186.5410  178.5670  141.2530 C   0  0  1  0  0  3  0  0  0  0  0  0
  185.7830  179.4320  142.2470 C   0  0  0  0  0  2  0  0  0  0  0  0
  185.4010  178.6390  143.4870 C   0  0  0  0  0  3  0  0  0  0  0  0
  184.5410  179.4830  144.4270 C   0  0  0  0  0  2  0  0  0  0  0  0
  186.6720  178.1930  144.2050 C   0  0  0  0  0  2  0  0  0  0  0  0
  184.1880  178.6880  145.6810 C   0  0  0  0  0  2  0  0  0  0  0  0
  185.4610  178.2440  146.3950 C   0  0  0  0  0  2  0  0  0  0  0  0
  186.3200  177.3980  145.4590 C   0  0  0  0  0  2  0  0  0  0  0  0
  185.7990  178.5440  139.9230 C   0  0  0  0  0  2  0  0  0  0  0  0
  184.8820  179.5950  139.8640 O   0  0  0  0  0  0  0  0  0  0  0  0
  183.9870  179.2360  138.8550 C   0  0  0  0  0  2  0  0  0  0  0  0
  182.6500  179.8150  139.1510 C   0  0  0  0  0  0  0  0  0  0  0  0
  181.8730  179.2810  140.1700 O   0  0  0  0  0  1  0  0  0  0  0  0
  182.2350  180.8130  138.5030 O   0  0  0  0  0  0  0  0  0  0  0  0
  189.1430  177.0400  141.5370 C   0  0  0  0  0  2  0  0  0  0  0  0
  190.3980  177.4930  142.2610 C   0  0  0  0  0  2  0  0  0  0  0  0
  190.1260  177.5930  143.7560 C   0  0  2  0  0  3  0  0  0  0  0  0
  191.4240  179.3850  143.9540 C   0  0  0  0  0  1  0  0  0  0  0  0
  190.1130  178.9400  144.1370 O   0  0  0  0  0  0  0  0  0  0  0  0
  191.2030  176.8370  144.5340 C   0  0  2  0  0  3  0  0  0  0  0  0
  191.5830  175.6950  143.8230 O   0  0  0  0  0  1  0  0  0  0  0  0
  190.6700  176.4230  145.9010 C   0  0  0  0  0  2  0  0  0  0  0  0
  192.3120  175.4470  147.3410 O   0  0  0  0  0  1  0  0  0  0  0  0
  191.7070  176.6530  146.9870 C   0  0  0  0  0  2  0  0  0  0  0  0
  1 13  1  0  0  0  0
  1 28  1  0  0  0  0
  2  1  1  0  0  0  0
  3  2  2  0  0  0  0
  4  8  1  0  0  0  0
  5  8  1  0  0  0  0
  5  2  1  0  0  0  0
  6  5  2  0  0  0  0
  7 11  1  0  0  0  0
  7  6  1  0  0  0  0
  9  7  2  0  0  0  0
 10  6  1  0  0  0  0
 11  4  2  0  0  0  0
 12 11  1  0  0  0  0
 13 14  1  0  0  0  0
 14 22  1  6  0  0  0
 14 15  1  0  0  0  0
 15 16  1  0  0  0  0
 16 18  1  0  0  0  0
 16 17  1  0  0  0  0
 17 19  1  0  0  0  0
 18 21  1  0  0  0  0
 19 20  1  0  0  0  0
 21 20  1  0  0  0  0
 23 22  1  0  0  0  0
 24 25  1  0  0  0  0
 24 23  1  0  0  0  0
 25 26  1  0  0  0  0
 27 25  2  0  0  0  0
 28 29  1  0  0  0  0
 30 29  1  6  0  0  0
 30 32  1  0  0  0  0
 30 33  1  0  0  0  0
 31 32  1  0  0  0  0
 33 34  1  6  0  0  0
 33 35  1  0  0  0  0
 35 37  1  0  0  0  0
 37 36  1  0  0  0  0
M  END
>  <MODEL>
2

>  <REMARK>
 VINA RESULT:      -7.7      0.861      1.298
  Name = 
  16 active torsions:
  status: ('A' for Active; 'I' for Inactive)
    1  A    between atoms: C_1  and  C_22
    2  A    between atoms: C_1  and  C_25
    3  A    between atoms: C_2  and  C_37
    4  A    between atoms: N_3  and  C_4
    5  A    between atoms: N_3  and  N_31
    6  A    between atoms: C_4  and  C_28
    7  A    between atoms: C_5  and  C_19
    8  A    between atoms: C_9  and  C_20
    9  A    between atoms: C_11  and  C_22
   10  A    between atoms: C_11  and  C_28
   11  A    between atoms: C_11  and  O_35
   12  A    between atoms: O_15  and  C_19
   13  A    between atoms: O_15  and  C_21
   14  A    between atoms: C_21  and  C_32
   15  A    between atoms: N_31  and  C_32
   16  A    between atoms: C_32  and  C_37
                            x       y       z     vdW  Elec       q    Type
                         _______ _______ _______ _____ _____    ______ ____

>  <TORSDO>
F 16

$$$$
=
 OpenBabel10222421163D

 37 38  0  0  1  0  0  0  0  0999 V2000
  185.7780  178.8000  140.5630 N   0  0  0  0  0  0  0  0  0  0  0  0
  185.2520  178.9970  139.2390 C   0  0  0  0  0  0  0  0  0  0  0  0
  184.5130  179.9950  139.0120 O   0  0  0  0  0  0  0  0  0  0  0  0
  184.8990  175.9580  136.8230 C   0  0  0  0  0  3  0  0  0  0  0  0
  185.5370  178.0420  138.1390 C   0  0  0  0  0  0  0  0  0  0  0  0
  186.6680  178.1350  137.4110 C   0  0  0  0  0  0  0  0  0  0  0  0
  186.9340  177.1780  136.3230 C   0  0  0  0  0  0  0  0  0  0  0  0
  184.4640  177.0330  137.7840 C   0  0  0  0  0  2  0  0  0  0  0  0
  187.9510  177.3140  135.5920 O   0  0  0  0  0  0  0  0  0  0  0  0
  187.6220  179.1100  137.6940 O   0  0  0  0  0  1  0  0  0  0  0  0
  186.0260  176.0430  136.1200 C   0  0  0  0  0  0  0  0  0  0  0  0
  186.3450  175.0450  135.2060 O   0  0  0  0  0  1  0  0  0  0  0  0
  185.3370  179.6250  141.6140 N   0  0  0  0  0  2  0  0  0  0  0  0
  184.6050  178.7900  142.5560 C   0  0  1  0  0  3  0  0  0  0  0  0
  184.6710  179.4130  143.9410 C   0  0  0  0  0  2  0  0  0  0  0  0
  185.3610  178.4860  144.9290 C   0  0  0  0  0  3  0  0  0  0  0  0
  185.6820  179.2220  146.2300 C   0  0  0  0  0  2  0  0  0  0  0  0
  186.6480  177.9570  144.3010 C   0  0  0  0  0  2  0  0  0  0  0  0
  186.4010  178.2910  147.2030 C   0  0  0  0  0  2  0  0  0  0  0  0
  187.6860  177.7640  146.5710 C   0  0  0  0  0  2  0  0  0  0  0  0
  187.3680  177.0260  145.2730 C   0  0  0  0  0  2  0  0  0  0  0  0
  183.1520  178.6690  142.1170 C   0  0  0  0  0  2  0  0  0  0  0  0
  182.3000  178.9680  143.1820 O   0  0  0  0  0  0  0  0  0  0  0  0
  181.0670  179.2460  142.5900 C   0  0  0  0  0  2  0  0  0  0  0  0
  180.1090  178.1540  142.9050 C   0  0  0  0  0  0  0  0  0  0  0  0
  179.7020  177.9460  144.2160 O   0  0  0  0  0  1  0  0  0  0  0  0
  179.6370  177.4400  141.9800 O   0  0  0  0  0  0  0  0  0  0  0  0
  186.8960  177.8920  140.7960 C   0  0  0  0  0  2  0  0  0  0  0  0
  188.1300  178.6720  141.2150 C   0  0  0  0  0  2  0  0  0  0  0  0
  189.3860  177.9380  140.7620 C   0  0  2  0  0  3  0  0  0  0  0  0
  190.1190  176.8180  138.9900 C   0  0  0  0  0  1  0  0  0  0  0  0
  189.0330  176.9270  139.8610 O   0  0  0  0  0  0  0  0  0  0  0  0
  190.1050  177.3400  141.9700 C   0  0  2  0  0  3  0  0  0  0  0  0
  189.4360  176.1880  142.3930 O   0  0  0  0  0  1  0  0  0  0  0  0
  190.1400  178.3480  143.1130 C   0  0  0  0  0  2  0  0  0  0  0  0
  191.1960  177.6710  145.1500 O   0  0  0  0  0  1  0  0  0  0  0  0
  191.4360  178.2410  143.8990 C   0  0  0  0  0  2  0  0  0  0  0  0
  1 28  1  0  0  0  0
  1 13  1  0  0  0  0
  2  1  1  0  0  0  0
  3  2  2  0  0  0  0
  4  8  1  0  0  0  0
  5  2  1  0  0  0  0
  6 10  1  0  0  0  0
  6  5  2  0  0  0  0
  7  6  1  0  0  0  0
  8  5  1  0  0  0  0
  9  7  2  0  0  0  0
 11  7  1  0  0  0  0
 11  4  2  0  0  0  0
 12 11  1  0  0  0  0
 13 14  1  0  0  0  0
 14 22  1  6  0  0  0
 14 15  1  0  0  0  0
 15 16  1  0  0  0  0
 16 17  1  0  0  0  0
 17 19  1  0  0  0  0
 18 16  1  0  0  0  0
 18 21  1  0  0  0  0
 20 19  1  0  0  0  0
 21 20  1  0  0  0  0
 22 23  1  0  0  0  0
 24 25  1  0  0  0  0
 24 23  1  0  0  0  0
 25 26  1  0  0  0  0
 27 25  2  0  0  0  0
 28 29  1  0  0  0  0
 30 29  1  1  0  0  0
 30 33  1  0  0  0  0
 31 32  1  0  0  0  0
 32 30  1  0  0  0  0
 33 34  1  1  0  0  0
 33 35  1  0  0  0  0
 35 37  1  0  0  0  0
 37 36  1  0  0  0  0
M  END
>  <MODEL>
3

>  <REMARK>
 VINA RESULT:      -7.6      2.811      4.294
  Name = 
  16 active torsions:
  status: ('A' for Active; 'I' for Inactive)
    1  A    between atoms: C_1  and  C_22
    2  A    between atoms: C_1  and  C_25
    3  A    between atoms: C_2  and  C_37
    4  A    between atoms: N_3  and  C_4
    5  A    between atoms: N_3  and  N_31
    6  A    between atoms: C_4  and  C_28
    7  A    between atoms: C_5  and  C_19
    8  A    between atoms: C_9  and  C_20
    9  A    between atoms: C_11  and  C_22
   10  A    between atoms: C_11  and  C_28
   11  A    between atoms: C_11  and  O_35
   12  A    between atoms: O_15  and  C_19
   13  A    between atoms: O_15  and  C_21
   14  A    between atoms: C_21  and  C_32
   15  A    between atoms: N_31  and  C_32
   16  A    between atoms: C_32  and  C_37
                            x       y       z     vdW  Elec       q    Type
                         _______ _______ _______ _____ _____    ______ ____

>  <TORSDO>
F 16

$$$$
=
 OpenBabel10222421163D

 37 38  0  0  1  0  0  0  0  0999 V2000
  185.9000  178.7840  140.6570 N   0  0  0  0  0  0  0  0  0  0  0  0
  185.4130  178.9520  139.3130 C   0  0  0  0  0  0  0  0  0  0  0  0
  184.6560  179.9260  139.0500 O   0  0  0  0  0  0  0  0  0  0  0  0
  185.1970  175.9040  136.8920 C   0  0  0  0  0  3  0  0  0  0  0  0
  185.7600  177.9930  138.2350 C   0  0  0  0  0  0  0  0  0  0  0  0
  186.9310  178.0810  137.5720 C   0  0  0  0  0  0  0  0  0  0  0  0
  187.2580  177.1200  136.5060 C   0  0  0  0  0  0  0  0  0  0  0  0
  184.7080  176.9820  137.8230 C   0  0  0  0  0  2  0  0  0  0  0  0
  188.3150  177.2520  135.8340 O   0  0  0  0  0  0  0  0  0  0  0  0
  187.8680  179.0560  137.9060 O   0  0  0  0  0  1  0  0  0  0  0  0
  186.3620  175.9850  136.2550 C   0  0  0  0  0  0  0  0  0  0  0  0
  186.7320  174.9830  135.3650 O   0  0  0  0  0  1  0  0  0  0  0  0
  185.4030  179.6080  141.6820 N   0  0  0  0  0  2  0  0  0  0  0  0
  184.6270  178.7720  142.5880 C   0  0  1  0  0  3  0  0  0  0  0  0
  184.5490  179.4400  143.9510 C   0  0  0  0  0  2  0  0  0  0  0  0
  185.1560  178.5580  145.0310 C   0  0  0  0  0  3  0  0  0  0  0  0
  185.6280  179.4000  146.2160 C   0  0  0  0  0  2  0  0  0  0  0  0
  186.3330  177.7850  144.4410 C   0  0  0  0  0  2  0  0  0  0  0  0
  186.2620  178.5080  147.2810 C   0  0  0  0  0  2  0  0  0  0  0  0
  187.4370  177.7380  146.6870 C   0  0  0  0  0  2  0  0  0  0  0  0
  186.9680  176.8940  145.5050 C   0  0  0  0  0  2  0  0  0  0  0  0
  183.2240  178.5740  142.0320 C   0  0  0  0  0  2  0  0  0  0  0  0
  182.2730  178.8440  143.0170 O   0  0  0  0  0  0  0  0  0  0  0  0
  181.0950  179.1120  142.3180 C   0  0  0  0  0  2  0  0  0  0  0  0
  180.0340  178.1670  142.7550 C   0  0  0  0  0  0  0  0  0  0  0  0
  179.7650  178.0030  144.1080 O   0  0  0  0  0  1  0  0  0  0  0  0
  179.3520  177.5410  141.9000 O   0  0  0  0  0  0  0  0  0  0  0  0
  187.0340  177.9090  140.9370 C   0  0  0  0  0  2  0  0  0  0  0  0
  188.2100  178.7190  141.4540 C   0  0  0  0  0  2  0  0  0  0  0  0
  189.1140  177.8360  142.3040 C   0  0  2  0  0  3  0  0  0  0  0  0
  190.1180  178.4870  144.1760 C   0  0  0  0  0  1  0  0  0  0  0  0
  190.1860  178.5970  142.7860 O   0  0  0  0  0  0  0  0  0  0  0  0
  189.6320  176.6650  141.4710 C   0  0  2  0  0  3  0  0  0  0  0  0
  190.2240  175.7160  142.3090 O   0  0  0  0  0  1  0  0  0  0  0  0
  190.6610  177.1540  140.4590 C   0  0  0  0  0  2  0  0  0  0  0  0
  190.8720  175.4890  138.7550 O   0  0  0  0  0  1  0  0  0  0  0  0
  190.2930  176.7230  139.0490 C   0  0  0  0  0  2  0  0  0  0  0  0
  1 28  1  0  0  0  0
  1 13  1  0  0  0  0
  2  1  1  0  0  0  0
  3  2  2  0  0  0  0
  4  8  1  0  0  0  0
  5  2  1  0  0  0  0
  6 10  1  0  0  0  0
  6  5  2  0  0  0  0
  7  6  1  0  0  0  0
  8  5  1  0  0  0  0
  9  7  2  0  0  0  0
 11  7  1  0  0  0  0
 11  4  2  0  0  0  0
 12 11  1  0  0  0  0
 13 14  1  0  0  0  0
 14 22  1  6  0  0  0
 14 15  1  0  0  0  0
 15 16  1  0  0  0  0
 16 17  1  0  0  0  0
 17 19  1  0  0  0  0
 18 16  1  0  0  0  0
 18 21  1  0  0  0  0
 20 19  1  0  0  0  0
 21 20  1  0  0  0  0
 22 23  1  0  0  0  0
 24 25  1  0  0  0  0
 24 23  1  0  0  0  0
 25 26  1  0  0  0  0
 27 25  2  0  0  0  0
 28 29  1  0  0  0  0
 30 29  1  6  0  0  0
 30 32  1  0  0  0  0
 32 31  1  0  0  0  0
 33 30  1  0  0  0  0
 33 34  1  1  0  0  0
 35 33  1  0  0  0  0
 36 37  1  0  0  0  0
 37 35  1  0  0  0  0
M  END
>  <MODEL>
4

>  <REMARK>
 VINA RESULT:      -7.5      2.763      4.465
  Name = 
  16 active torsions:
  status: ('A' for Active; 'I' for Inactive)
    1  A    between atoms: C_1  and  C_22
    2  A    between atoms: C_1  and  C_25
    3  A    between atoms: C_2  and  C_37
    4  A    between atoms: N_3  and  C_4
    5  A    between atoms: N_3  and  N_31
    6  A    between atoms: C_4  and  C_28
    7  A    between atoms: C_5  and  C_19
    8  A    between atoms: C_9  and  C_20
    9  A    between atoms: C_11  and  C_22
   10  A    between atoms: C_11  and  C_28
   11  A    between atoms: C_11  and  O_35
   12  A    between atoms: O_15  and  C_19
   13  A    between atoms: O_15  and  C_21
   14  A    between atoms: C_21  and  C_32
   15  A    between atoms: N_31  and  C_32
   16  A    between atoms: C_32  and  C_37
                            x       y       z     vdW  Elec       q    Type
                         _______ _______ _______ _____ _____    ______ ____

>  <TORSDO>
F 16

$$$$
=
 OpenBabel10222421163D

 37 38  0  0  1  0  0  0  0  0999 V2000
  188.8530  177.8200  143.2160 N   0  0  0  0  0  0  0  0  0  0  0  0
  190.0650  178.2000  143.8930 C   0  0  0  0  0  0  0  0  0  0  0  0
  190.6730  179.2430  143.5260 O   0  0  0  0  0  0  0  0  0  0  0  0
  190.9260  176.9710  147.4910 C   0  0  0  0  0  3  0  0  0  0  0  0
  190.6290  177.3830  144.9960 C   0  0  0  0  0  0  0  0  0  0  0  0
  191.4550  176.3470  144.7440 C   0  0  0  0  0  0  0  0  0  0  0  0
  192.0050  175.5480  145.8520 C   0  0  0  0  0  0  0  0  0  0  0  0
  190.1550  177.6750  146.4050 C   0  0  0  0  0  2  0  0  0  0  0  0
  192.7120  174.5330  145.6130 O   0  0  0  0  0  0  0  0  0  0  0  0
  191.8340  176.0360  143.4410 O   0  0  0  0  0  1  0  0  0  0  0  0
  191.7560  175.9620  147.2380 C   0  0  0  0  0  0  0  0  0  0  0  0
  192.3960  175.3160  148.2890 O   0  0  0  0  0  1  0  0  0  0  0  0
  188.4540  178.5190  142.0630 N   0  0  0  0  0  2  0  0  0  0  0  0
  188.5990  177.6210  140.9260 C   0  0  1  0  0  3  0  0  0  0  0  0
  188.3230  178.3840  139.6410 C   0  0  0  0  0  2  0  0  0  0  0  0
  187.6170  177.5050  138.6200 C   0  0  0  0  0  3  0  0  0  0  0  0
  188.4770  177.3290  137.3690 C   0  0  0  0  0  2  0  0  0  0  0  0
  186.2830  178.1470  138.2480 C   0  0  0  0  0  2  0  0  0  0  0  0
  187.7470  176.4710  136.3390 C   0  0  0  0  0  2  0  0  0  0  0  0
  186.4140  177.1150  135.9710 C   0  0  0  0  0  2  0  0  0  0  0  0
  185.5520  177.2890  137.2180 C   0  0  0  0  0  2  0  0  0  0  0  0
  190.0120  177.0540  140.8930 C   0  0  0  0  0  2  0  0  0  0  0  0
  190.7650  177.6950  139.9080 O   0  0  0  0  0  0  0  0  0  0  0  0
  192.0380  177.1310  140.0030 C   0  0  0  0  0  2  0  0  0  0  0  0
  192.4430  176.5950  138.6770 C   0  0  0  0  0  0  0  0  0  0  0  0
  191.6030  175.7240  137.9950 O   0  0  0  0  0  0  0  0  0  0  0  0
  193.5300  176.9580  138.1530 O   0  0  0  0  0  1  0  0  0  0  0  0
  187.9370  176.8520  143.8120 C   0  0  0  0  0  2  0  0  0  0  0  0
  186.5630  177.4730  143.9980 C   0  0  0  0  0  2  0  0  0  0  0  0
  186.5240  178.2640  145.2990 C   0  0  2  0  0  3  0  0  0  0  0  0
  187.0400  178.0330  147.4470 C   0  0  0  0  0  1  0  0  0  0  0  0
  186.4230  177.3790  146.3780 O   0  0  0  0  0  0  0  0  0  0  0  0
  185.3340  179.2230  145.2900 C   0  0  2  0  0  3  0  0  0  0  0  0
  184.3260  178.7290  146.1240 O   0  0  0  0  0  1  0  0  0  0  0  0
  184.7880  179.3700  143.8740 C   0  0  0  0  0  2  0  0  0  0  0  0
  182.8500  178.7370  142.6230 O   0  0  0  0  0  1  0  0  0  0  0  0
  183.2740  179.2390  143.8540 C   0  0  0  0  0  2  0  0  0  0  0  0
  1 28  1  0  0  0  0
  1  2  1  0  0  0  0
  2  5  1  0  0  0  0
  3  2  2  0  0  0  0
  5  8  1  0  0  0  0
  6  5  2  0  0  0  0
  6  7  1  0  0  0  0
  7 11  1  0  0  0  0
  8  4  1  0  0  0  0
  9  7  2  0  0  0  0
 10  6  1  0  0  0  0
 11  4  2  0  0  0  0
 11 12  1  0  0  0  0
 13  1  1  0  0  0  0
 14 15  1  6  0  0  0
 14 13  1  0  0  0  0
 16 15  1  0  0  0  0
 17 16  1  0  0  0  0
 18 16  1  0  0  0  0
 19 17  1  0  0  0  0
 20 19  1  0  0  0  0
 20 21  1  0  0  0  0
 21 18  1  0  0  0  0
 22 14  1  0  0  0  0
 23 24  1  0  0  0  0
 23 22  1  0  0  0  0
 25 24  1  0  0  0  0
 26 25  2  0  0  0  0
 27 25  1  0  0  0  0
 28 29  1  0  0  0  0
 30 29  1  6  0  0  0
 30 32  1  0  0  0  0
 32 31  1  0  0  0  0
 33 30  1  0  0  0  0
 33 34  1  1  0  0  0
 35 33  1  0  0  0  0
 36 37  1  0  0  0  0
 37 35  1  0  0  0  0
M  END
>  <MODEL>
5

>  <REMARK>
 VINA RESULT:      -7.2      2.173      7.584
  Name = 
  16 active torsions:
  status: ('A' for Active; 'I' for Inactive)
    1  A    between atoms: C_1  and  C_22
    2  A    between atoms: C_1  and  C_25
    3  A    between atoms: C_2  and  C_37
    4  A    between atoms: N_3  and  C_4
    5  A    between atoms: N_3  and  N_31
    6  A    between atoms: C_4  and  C_28
    7  A    between atoms: C_5  and  C_19
    8  A    between atoms: C_9  and  C_20
    9  A    between atoms: C_11  and  C_22
   10  A    between atoms: C_11  and  C_28
   11  A    between atoms: C_11  and  O_35
   12  A    between atoms: O_15  and  C_19
   13  A    between atoms: O_15  and  C_21
   14  A    between atoms: C_21  and  C_32
   15  A    between atoms: N_31  and  C_32
   16  A    between atoms: C_32  and  C_37
                            x       y       z     vdW  Elec       q    Type
                         _______ _______ _______ _____ _____    ______ ____

>  <TORSDO>
F 16

$$$$
=
 OpenBabel10222421163D

 37 38  0  0  1  0  0  0  0  0999 V2000
  186.2320  178.5930  140.5450 N   0  0  0  0  0  0  0  0  0  0  0  0
  185.9110  178.7890  139.1560 C   0  0  0  0  0  0  0  0  0  0  0  0
  185.0820  179.6840  138.8360 O   0  0  0  0  0  0  0  0  0  0  0  0
  186.4050  175.8910  136.5950 C   0  0  0  0  0  3  0  0  0  0  0  0
  186.5150  177.9480  138.0930 C   0  0  0  0  0  0  0  0  0  0  0  0
  187.7400  178.2210  137.5980 C   0  0  0  0  0  0  0  0  0  0  0  0
  188.3220  177.3750  136.5430 C   0  0  0  0  0  0  0  0  0  0  0  0
  185.6650  176.8420  137.4990 C   0  0  0  0  0  2  0  0  0  0  0  0
  189.4300  177.6770  136.0250 O   0  0  0  0  0  0  0  0  0  0  0  0
  188.4910  179.2820  138.0970 O   0  0  0  0  0  1  0  0  0  0  0  0
  187.6210  176.1550  136.1230 C   0  0  0  0  0  0  0  0  0  0  0  0
  188.2290  175.2630  135.2470 O   0  0  0  0  0  1  0  0  0  0  0  0
  185.5040  179.2860  141.5290 N   0  0  0  0  0  2  0  0  0  0  0  0
  184.5320  178.3610  142.0970 C   0  0  1  0  0  3  0  0  0  0  0  0
  184.1580  178.8190  143.4970 C   0  0  0  0  0  2  0  0  0  0  0  0
  185.3580  178.7800  144.4280 C   0  0  0  0  0  3  0  0  0  0  0  0
  186.1140  177.4590  144.2840 C   0  0  0  0  0  2  0  0  0  0  0  0
  184.8790  178.9490  145.8680 C   0  0  0  0  0  2  0  0  0  0  0  0
  187.2990  177.4170  145.2440 C   0  0  0  0  0  2  0  0  0  0  0  0
  186.8160  177.5870  146.6810 C   0  0  0  0  0  2  0  0  0  0  0  0
  186.0630  178.9070  146.8290 C   0  0  0  0  0  2  0  0  0  0  0  0
  183.2880  178.3190  141.2200 C   0  0  0  0  0  2  0  0  0  0  0  0
  183.2400  177.1200  140.5080 O   0  0  0  0  0  0  0  0  0  0  0  0
  182.2480  177.3110  139.5460 C   0  0  0  0  0  2  0  0  0  0  0  0
  182.1780  176.1180  138.6610 C   0  0  0  0  0  0  0  0  0  0  0  0
  181.2400  176.0660  137.6390 O   0  0  0  0  0  0  0  0  0  0  0  0
  182.9930  175.1690  138.8140 O   0  0  0  0  0  1  0  0  0  0  0  0
  187.4170  177.8380  140.9390 C   0  0  0  0  0  2  0  0  0  0  0  0
  188.4250  178.7540  141.6110 C   0  0  0  0  0  2  0  0  0  0  0  0
  189.4080  177.9290  142.4310 C   0  0  2  0  0  3  0  0  0  0  0  0
  190.4690  178.5800  144.2710 C   0  0  0  0  0  1  0  0  0  0  0  0
  190.4420  178.7570  142.8870 O   0  0  0  0  0  0  0  0  0  0  0  0
  189.9780  176.7970  141.5780 C   0  0  2  0  0  3  0  0  0  0  0  0
  190.2800  175.7010  142.3920 O   0  0  0  0  0  1  0  0  0  0  0  0
  191.2460  177.2600  140.8690 C   0  0  0  0  0  2  0  0  0  0  0  0
  190.2130  175.9950  139.1210 O   0  0  0  0  0  1  0  0  0  0  0  0
  191.1790  176.9680  139.3800 C   0  0  0  0  0  2  0  0  0  0  0  0
  1 28  1  0  0  0  0
  1 13  1  0  0  0  0
  2  1  1  0  0  0  0
  3  2  2  0  0  0  0
  4  8  1  0  0  0  0
  5  2  1  0  0  0  0
  6  5  2  0  0  0  0
  6 10  1  0  0  0  0
  7  6  1  0  0  0  0
  8  5  1  0  0  0  0
  9  7  2  0  0  0  0
 11  7  1  0  0  0  0
 11  4  2  0  0  0  0
 12 11  1  0  0  0  0
 13 14  1  0  0  0  0
 14 22  1  6  0  0  0
 14 15  1  0  0  0  0
 15 16  1  0  0  0  0
 16 18  1  0  0  0  0
 17 16  1  0  0  0  0
 17 19  1  0  0  0  0
 18 21  1  0  0  0  0
 19 20  1  0  0  0  0
 20 21  1  0  0  0  0
 23 22  1  0  0  0  0
 24 23  1  0  0  0  0
 25 27  1  0  0  0  0
 25 24  1  0  0  0  0
 26 25  2  0  0  0  0
 28 29  1  0  0  0  0
 30 29  1  6  0  0  0
 30 32  1  0  0  0  0
 32 31  1  0  0  0  0
 33 34  1  1  0  0  0
 33 30  1  0  0  0  0
 35 33  1  0  0  0  0
 36 37  1  0  0  0  0
 37 35  1  0  0  0  0
M  END
>  <MODEL>
6

>  <REMARK>
 VINA RESULT:      -7.1      2.296      3.897
  Name = 
  16 active torsions:
  status: ('A' for Active; 'I' for Inactive)
    1  A    between atoms: C_1  and  C_22
    2  A    between atoms: C_1  and  C_25
    3  A    between atoms: C_2  and  C_37
    4  A    between atoms: N_3  and  C_4
    5  A    between atoms: N_3  and  N_31
    6  A    between atoms: C_4  and  C_28
    7  A    between atoms: C_5  and  C_19
    8  A    between atoms: C_9  and  C_20
    9  A    between atoms: C_11  and  C_22
   10  A    between atoms: C_11  and  C_28
   11  A    between atoms: C_11  and  O_35
   12  A    between atoms: O_15  and  C_19
   13  A    between atoms: O_15  and  C_21
   14  A    between atoms: C_21  and  C_32
   15  A    between atoms: N_31  and  C_32
   16  A    between atoms: C_32  and  C_37
                            x       y       z     vdW  Elec       q    Type
                         _______ _______ _______ _____ _____    ______ ____

>  <TORSDO>
F 16

$$$$
=
 OpenBabel10222421163D

 37 38  0  0  1  0  0  0  0  0999 V2000
  186.8590  178.4100  142.2930 N   0  0  0  0  0  0  0  0  0  0  0  0
  185.7120  179.0120  141.6680 C   0  0  0  0  0  0  0  0  0  0  0  0
  185.8540  179.6050  140.5630 O   0  0  0  0  0  0  0  0  0  0  0  0
  182.9220  179.1800  144.3850 C   0  0  0  0  0  3  0  0  0  0  0  0
  184.3710  178.9730  142.3010 C   0  0  0  0  0  0  0  0  0  0  0  0
  183.2760  178.6200  141.5970 C   0  0  0  0  0  0  0  0  0  0  0  0
  181.9530  178.5870  142.2430 C   0  0  0  0  0  0  0  0  0  0  0  0
  184.2510  179.4550  143.7330 C   0  0  0  0  0  2  0  0  0  0  0  0
  180.9210  178.3350  141.5650 O   0  0  0  0  0  0  0  0  0  0  0  0
  183.3780  178.2440  140.2590 O   0  0  0  0  0  1  0  0  0  0  0  0
  181.8480  178.8130  143.6890 C   0  0  0  0  0  0  0  0  0  0  0  0
  180.6340  178.6290  144.3420 O   0  0  0  0  0  1  0  0  0  0  0  0
  188.1380  178.6260  141.7510 N   0  0  0  0  0  2  0  0  0  0  0  0
  188.2710  177.7760  140.5750 C   0  0  1  0  0  3  0  0  0  0  0  0
  188.6470  178.6300  139.3750 C   0  0  0  0  0  2  0  0  0  0  0  0
  188.3900  177.8910  138.0720 C   0  0  0  0  0  3  0  0  0  0  0  0
  189.0800  178.5940  136.9030 C   0  0  0  0  0  2  0  0  0  0  0  0
  186.8850  177.8270  137.8240 C   0  0  0  0  0  2  0  0  0  0  0  0
  188.7900  177.8610  135.5960 C   0  0  0  0  0  2  0  0  0  0  0  0
  187.2850  177.7990  135.3530 C   0  0  0  0  0  2  0  0  0  0  0  0
  186.5940  177.0940  136.5160 C   0  0  0  0  0  2  0  0  0  0  0  0
  189.3480  176.7270  140.8160 C   0  0  0  0  0  2  0  0  0  0  0  0
  190.2210  177.1540  141.8170 O   0  0  0  0  0  0  0  0  0  0  0  0
  190.4090  176.0360  142.6320 C   0  0  0  0  0  2  0  0  0  0  0  0
  191.5370  176.2890  143.5670 C   0  0  0  0  0  0  0  0  0  0  0  0
  192.0550  175.2480  144.3260 O   0  0  0  0  0  1  0  0  0  0  0  0
  192.0490  177.4380  143.6460 O   0  0  0  0  0  0  0  0  0  0  0  0
  186.6980  177.4280  143.3620 C   0  0  0  0  0  2  0  0  0  0  0  0
  187.9430  177.3860  144.2300 C   0  0  0  0  0  2  0  0  0  0  0  0
  187.5620  177.5760  145.6920 C   0  0  2  0  0  3  0  0  0  0  0  0
  185.8540  178.2560  146.9380 C   0  0  0  0  0  1  0  0  0  0  0  0
  186.5850  178.5730  145.7920 O   0  0  0  0  0  0  0  0  0  0  0  0
  188.7960  177.9640  146.5060 C   0  0  2  0  0  3  0  0  0  0  0  0
  189.7680  178.5020  145.6600 O   0  0  0  0  0  1  0  0  0  0  0  0
  189.3660  176.7390  147.2120 C   0  0  0  0  0  2  0  0  0  0  0  0
  191.4020  175.5360  147.5740 O   0  0  0  0  0  1  0  0  0  0  0  0
  190.8830  176.7950  147.2680 C   0  0  0  0  0  2  0  0  0  0  0  0
  1 28  1  0  0  0  0
  2  1  1  0  0  0  0
  2  5  1  0  0  0  0
  3  2  2  0  0  0  0
  5  8  1  0  0  0  0
  6  7  1  0  0  0  0
  6  5  2  0  0  0  0
  7 11  1  0  0  0  0
  8  4  1  0  0  0  0
  9  7  2  0  0  0  0
 10  6  1  0  0  0  0
 11 12  1  0  0  0  0
 11  4  2  0  0  0  0
 13  1  1  0  0  0  0
 14 15  1  6  0  0  0
 14 22  1  0  0  0  0
 14 13  1  0  0  0  0
 16 15  1  0  0  0  0
 17 16  1  0  0  0  0
 18 16  1  0  0  0  0
 19 17  1  0  0  0  0
 20 19  1  0  0  0  0
 20 21  1  0  0  0  0
 21 18  1  0  0  0  0
 22 23  1  0  0  0  0
 23 24  1  0  0  0  0
 24 25  1  0  0  0  0
 25 27  2  0  0  0  0
 25 26  1  0  0  0  0
 28 29  1  0  0  0  0
 30 29  1  6  0  0  0
 30 32  1  0  0  0  0
 30 33  1  0  0  0  0
 32 31  1  0  0  0  0
 33 34  1  6  0  0  0
 33 35  1  0  0  0  0
 35 37  1  0  0  0  0
 37 36  1  0  0  0  0
M  END
>  <MODEL>
7

>  <REMARK>
 VINA RESULT:      -7.0      2.574      7.512
  Name = 
  16 active torsions:
  status: ('A' for Active; 'I' for Inactive)
    1  A    between atoms: C_1  and  C_22
    2  A    between atoms: C_1  and  C_25
    3  A    between atoms: C_2  and  C_37
    4  A    between atoms: N_3  and  C_4
    5  A    between atoms: N_3  and  N_31
    6  A    between atoms: C_4  and  C_28
    7  A    between atoms: C_5  and  C_19
    8  A    between atoms: C_9  and  C_20
    9  A    between atoms: C_11  and  C_22
   10  A    between atoms: C_11  and  C_28
   11  A    between atoms: C_11  and  O_35
   12  A    between atoms: O_15  and  C_19
   13  A    between atoms: O_15  and  C_21
   14  A    between atoms: C_21  and  C_32
   15  A    between atoms: N_31  and  C_32
   16  A    between atoms: C_32  and  C_37
                            x       y       z     vdW  Elec       q    Type
                         _______ _______ _______ _____ _____    ______ ____

>  <TORSDO>
F 16

$$$$
=
 OpenBabel10222421163D

 37 38  0  0  1  0  0  0  0  0999 V2000
  187.3310  178.2860  142.2530 N   0  0  0  0  0  0  0  0  0  0  0  0
  186.1910  178.9450  141.6730 C   0  0  0  0  0  0  0  0  0  0  0  0
  186.3310  179.5750  140.5890 O   0  0  0  0  0  0  0  0  0  0  0  0
  183.4570  179.0980  144.4470 C   0  0  0  0  0  3  0  0  0  0  0  0
  184.8620  178.9220  142.3300 C   0  0  0  0  0  0  0  0  0  0  0  0
  183.7450  178.6230  141.6360 C   0  0  0  0  0  0  0  0  0  0  0  0
  182.4340  178.6050  142.3060 C   0  0  0  0  0  0  0  0  0  0  0  0
  184.7820  179.3570  143.7800 C   0  0  0  0  0  2  0  0  0  0  0  0
  181.3830  178.4050  141.6400 O   0  0  0  0  0  0  0  0  0  0  0  0
  183.8120  178.2910  140.2850 O   0  0  0  0  0  1  0  0  0  0  0  0
  182.3610  178.7840  143.7610 C   0  0  0  0  0  0  0  0  0  0  0  0
  181.1550  178.6120  144.4300 O   0  0  0  0  0  1  0  0  0  0  0  0
  188.6060  178.4840  141.6940 N   0  0  0  0  0  2  0  0  0  0  0  0
  188.8050  177.4690  140.6690 C   0  0  1  0  0  3  0  0  0  0  0  0
  188.8530  178.1330  139.3030 C   0  0  0  0  0  2  0  0  0  0  0  0
  187.8570  177.4970  138.3460 C   0  0  0  0  0  3  0  0  0  0  0  0
  188.4410  176.2330  137.7160 C   0  0  0  0  0  2  0  0  0  0  0  0
  187.5010  178.5050  137.2550 C   0  0  0  0  0  2  0  0  0  0  0  0
  187.4450  175.6200  136.7350 C   0  0  0  0  0  2  0  0  0  0  0  0
  187.0920  176.6290  135.6480 C   0  0  0  0  0  2  0  0  0  0  0  0
  186.5050  177.8920  136.2740 C   0  0  0  0  0  2  0  0  0  0  0  0
  190.1090  176.7260  140.9250 C   0  0  0  0  0  2  0  0  0  0  0  0
  190.9840  176.9040  139.8510 O   0  0  0  0  0  0  0  0  0  0  0  0
  192.1150  177.5040  140.4050 C   0  0  0  0  0  2  0  0  0  0  0  0
  193.3180  177.1050  139.6270 C   0  0  0  0  0  0  0  0  0  0  0  0
  193.2860  177.1290  138.2390 O   0  0  0  0  0  0  0  0  0  0  0  0
  194.3790  176.7790  140.2240 O   0  0  0  0  0  1  0  0  0  0  0  0
  187.1610  177.2700  143.2870 C   0  0  0  0  0  2  0  0  0  0  0  0
  188.5110  176.8420  143.8330 C   0  0  0  0  0  2  0  0  0  0  0  0
  188.5880  177.1460  145.3240 C   0  0  2  0  0  3  0  0  0  0  0  0
  187.4860  177.9110  147.0940 C   0  0  0  0  0  1  0  0  0  0  0  0
  187.4800  177.9160  145.6980 O   0  0  0  0  0  0  0  0  0  0  0  0
  189.8810  177.8970  145.6370 C   0  0  2  0  0  3  0  0  0  0  0  0
  190.2320  178.7040  144.5520 O   0  0  0  0  0  1  0  0  0  0  0  0
  191.0090  176.9080  145.9130 C   0  0  0  0  0  2  0  0  0  0  0  0
  192.2970  176.3570  147.8510 O   0  0  0  0  0  1  0  0  0  0  0  0
  190.9940  176.4480  147.3610 C   0  0  0  0  0  2  0  0  0  0  0  0
  1 28  1  0  0  0  0
  2  1  1  0  0  0  0
  2  5  1  0  0  0  0
  3  2  2  0  0  0  0
  5  8  1  0  0  0  0
  6  7  1  0  0  0  0
  6  5  2  0  0  0  0
  7 11  1  0  0  0  0
  8  4  1  0  0  0  0
  9  7  2  0  0  0  0
 10  6  1  0  0  0  0
 11 12  1  0  0  0  0
 11  4  2  0  0  0  0
 13  1  1  0  0  0  0
 14 15  1  6  0  0  0
 14 22  1  0  0  0  0
 14 13  1  0  0  0  0
 16 15  1  0  0  0  0
 17 16  1  0  0  0  0
 18 16  1  0  0  0  0
 19 17  1  0  0  0  0
 20 21  1  0  0  0  0
 20 19  1  0  0  0  0
 21 18  1  0  0  0  0
 23 24  1  0  0  0  0
 23 22  1  0  0  0  0
 25 27  1  0  0  0  0
 25 24  1  0  0  0  0
 26 25  2  0  0  0  0
 28 29  1  0  0  0  0
 30 29  1  6  0  0  0
 30 33  1  0  0  0  0
 30 32  1  0  0  0  0
 32 31  1  0  0  0  0
 33 34  1  6  0  0  0
 33 35  1  0  0  0  0
 35 37  1  0  0  0  0
 37 36  1  0  0  0  0
M  END
>  <MODEL>
8

>  <REMARK>
 VINA RESULT:      -6.9      2.362      7.304
  Name = 
  16 active torsions:
  status: ('A' for Active; 'I' for Inactive)
    1  A    between atoms: C_1  and  C_22
    2  A    between atoms: C_1  and  C_25
    3  A    between atoms: C_2  and  C_37
    4  A    between atoms: N_3  and  C_4
    5  A    between atoms: N_3  and  N_31
    6  A    between atoms: C_4  and  C_28
    7  A    between atoms: C_5  and  C_19
    8  A    between atoms: C_9  and  C_20
    9  A    between atoms: C_11  and  C_22
   10  A    between atoms: C_11  and  C_28
   11  A    between atoms: C_11  and  O_35
   12  A    between atoms: O_15  and  C_19
   13  A    between atoms: O_15  and  C_21
   14  A    between atoms: C_21  and  C_32
   15  A    between atoms: N_31  and  C_32
   16  A    between atoms: C_32  and  C_37
                            x       y       z     vdW  Elec       q    Type
                         _______ _______ _______ _____ _____    ______ ____

>  <TORSDO>
F 16

$$$$
=
 OpenBabel10222421163D

 37 38  0  0  1  0  0  0  0  0999 V2000
  189.0370  178.1760  141.4480 N   0  0  0  0  0  0  0  0  0  0  0  0
  190.0150  177.8770  140.4340 C   0  0  0  0  0  0  0  0  0  0  0  0
  191.2240  177.7380  140.7680 O   0  0  0  0  0  0  0  0  0  0  0  0
  188.4690  178.7000  136.9520 C   0  0  0  0  0  3  0  0  0  0  0  0
  189.6390  177.7510  139.0050 C   0  0  0  0  0  0  0  0  0  0  0  0
  189.9220  176.6330  138.3040 C   0  0  0  0  0  0  0  0  0  0  0  0
  189.5400  176.5260  136.8860 C   0  0  0  0  0  0  0  0  0  0  0  0
  189.0310  178.9610  138.3240 C   0  0  0  0  0  2  0  0  0  0  0  0
  189.8760  175.5160  136.2130 O   0  0  0  0  0  0  0  0  0  0  0  0
  190.5440  175.5470  138.9150 O   0  0  0  0  0  1  0  0  0  0  0  0
  188.7340  177.5880  136.2710 C   0  0  0  0  0  0  0  0  0  0  0  0
  188.2310  177.4310  134.9850 O   0  0  0  0  0  1  0  0  0  0  0  0
  189.4620  178.4650  142.7570 N   0  0  0  0  0  2  0  0  0  0  0  0
  189.3880  177.2330  143.5300 C   0  0  1  0  0  3  0  0  0  0  0  0
  188.0650  177.1840  144.2770 C   0  0  0  0  0  2  0  0  0  0  0  0
  188.1690  177.8750  145.6270 C   0  0  0  0  0  3  0  0  0  0  0  0
  189.2210  177.1960  146.5040 C   0  0  0  0  0  2  0  0  0  0  0  0
  186.8080  177.8270  146.3180 C   0  0  0  0  0  2  0  0  0  0  0  0
  189.2960  177.8780  147.8670 C   0  0  0  0  0  2  0  0  0  0  0  0
  187.9350  177.8290  148.5530 C   0  0  0  0  0  2  0  0  0  0  0  0
  186.8830  178.5080  147.6820 C   0  0  0  0  0  2  0  0  0  0  0  0
  189.4970  176.0330  142.6000 C   0  0  0  0  0  2  0  0  0  0  0  0
  190.3840  175.0930  143.1260 O   0  0  0  0  0  0  0  0  0  0  0  0
  191.4660  175.8410  143.5920 C   0  0  0  0  0  2  0  0  0  0  0  0
  192.0330  175.1920  144.8040 C   0  0  0  0  0  0  0  0  0  0  0  0
  192.5680  173.9130  144.7190 O   0  0  0  0  0  0  0  0  0  0  0  0
  192.0620  175.8130  145.9000 O   0  0  0  0  0  1  0  0  0  0  0  0
  187.6130  177.9970  141.1870 C   0  0  0  0  0  2  0  0  0  0  0  0
  186.8490  179.2580  141.5510 C   0  0  0  0  0  2  0  0  0  0  0  0
  185.3520  178.9780  141.5430 C   0  0  2  0  0  3  0  0  0  0  0  0
  184.6070  178.4240  143.5610 C   0  0  0  0  0  1  0  0  0  0  0  0
  185.0810  177.8790  142.3670 O   0  0  0  0  0  0  0  0  0  0  0  0
  184.8810  178.6960  140.1170 C   0  0  2  0  0  3  0  0  0  0  0  0
  184.5950  179.9010  139.4690 O   0  0  0  0  0  1  0  0  0  0  0  0
  183.6280  177.8280  140.1400 C   0  0  0  0  0  2  0  0  0  0  0  0
  181.3430  178.0210  140.8230 O   0  0  0  0  0  1  0  0  0  0  0  0
  182.3700  178.6800  140.1460 C   0  0  0  0  0  2  0  0  0  0  0  0
  1 13  1  0  0  0  0
  2  3  2  0  0  0  0
  2  1  1  0  0  0  0
  4  8  1  0  0  0  0
  5  2  1  0  0  0  0
  6 10  1  0  0  0  0
  6  5  2  0  0  0  0
  7  6  1  0  0  0  0
  8  5  1  0  0  0  0
  9  7  2  0  0  0  0
 11  7  1  0  0  0  0
 11  4  2  0  0  0  0
 12 11  1  0  0  0  0
 13 14  1  0  0  0  0
 14 22  1  6  0  0  0
 14 15  1  0  0  0  0
 15 16  1  0  0  0  0
 16 18  1  0  0  0  0
 16 17  1  0  0  0  0
 17 19  1  0  0  0  0
 18 21  1  0  0  0  0
 19 20  1  0  0  0  0
 21 20  1  0  0  0  0
 22 23  1  0  0  0  0
 23 24  1  0  0  0  0
 24 25  1  0  0  0  0
 25 27  1  0  0  0  0
 26 25  2  0  0  0  0
 28  1  1  0  0  0  0
 28 29  1  0  0  0  0
 30 29  1  6  0  0  0
 30 32  1  0  0  0  0
 32 31  1  0  0  0  0
 33 34  1  1  0  0  0
 33 35  1  0  0  0  0
 33 30  1  0  0  0  0
 35 37  1  0  0  0  0
 37 36  1  0  0  0  0
M  END
>  <MODEL>
9

>  <REMARK>
 VINA RESULT:      -6.8      1.844      6.340
  Name = 
  16 active torsions:
  status: ('A' for Active; 'I' for Inactive)
    1  A    between atoms: C_1  and  C_22
    2  A    between atoms: C_1  and  C_25
    3  A    between atoms: C_2  and  C_37
    4  A    between atoms: N_3  and  C_4
    5  A    between atoms: N_3  and  N_31
    6  A    between atoms: C_4  and  C_28
    7  A    between atoms: C_5  and  C_19
    8  A    between atoms: C_9  and  C_20
    9  A    between atoms: C_11  and  C_22
   10  A    between atoms: C_11  and  C_28
   11  A    between atoms: C_11  and  O_35
   12  A    between atoms: O_15  and  C_19
   13  A    between atoms: O_15  and  C_21
   14  A    between atoms: C_21  and  C_32
   15  A    between atoms: N_31  and  C_32
   16  A    between atoms: C_32  and  C_37
                            x       y       z     vdW  Elec       q    Type
                         _______ _______ _______ _____ _____    ______ ____

>  <TORSDO>
F 16

$$$$
