=
 OpenBabel10222419063D

 50 54  0  0  1  0  0  0  0  0999 V2000
  184.9870  179.1850  141.6860 C   0  0  2  0  0  3  0  0  0  0  0  0
  182.4960  179.1550  142.8330 C   0  0  0  0  0  0  0  0  0  0  0  0
  181.2950  179.4700  143.2180 C   0  0  0  0  0  3  0  0  0  0  0  0
  184.8700  177.8910  142.2750 C   0  0  2  0  0  3  0  0  0  0  0  0
  183.6950  178.8500  142.4230 C   0  0  0  0  0  0  0  0  0  0  0  0
  185.6600  178.5320  139.4250 C   0  0  0  0  0  3  0  0  0  0  0  0
  184.7510  179.0930  140.2170 C   0  0  0  0  0  3  0  0  0  0  0  0
  185.4120  178.4360  137.9570 C   0  0  0  0  0  2  0  0  0  0  0  0
  186.6810  178.0380  137.2250 C   0  0  0  0  0  2  0  0  0  0  0  0
  187.6630  177.3910  138.1890 C   0  0  0  0  0  2  0  0  0  0  0  0
  189.0210  179.1540  137.1230 C   0  0  0  0  0  1  0  0  0  0  0  0
  188.9240  178.2250  138.3180 C   0  0  2  0  0  3  0  0  0  0  0  0
  190.0960  177.3600  138.3620 N   0  0  0  0  0  2  0  0  0  0  0  0
  190.3090  176.8360  137.0210 C   0  0  0  0  0  2  0  0  0  0  0  0
  191.1090  175.5470  137.0830 C   0  0  0  0  0  2  0  0  0  0  0  0
  190.5830  174.7090  138.0660 O   0  0  0  0  0  1  0  0  0  0  0  0
  179.6030  180.9360  141.8720 O   0  0  0  0  0  0  0  0  0  0  0  0
  179.9780  179.4690  142.0350 S   0  0  1  0  0  0  0  0  0  0  0  0
  181.3940  177.3550  138.7480 C   0  0  0  0  0  2  0  0  0  0  0  0
  179.3650  176.6490  141.6830 O   0  0  0  0  0  0  0  0  0  0  0  0
  180.7330  177.7440  140.0280 C   0  0  0  0  0  0  0  0  0  0  0  0
  180.1120  176.5860  140.6710 C   0  0  0  0  0  0  0  0  0  0  0  0
  180.4130  175.0500  139.8340 S   0  0  0  0  0  0  0  0  0  0  0  0
  181.4790  180.0800  139.7480 C   0  0  0  0  0  1  0  0  0  0  0  0
  180.7930  176.0110  138.3210 C   0  0  2  0  0  3  0  0  0  0  0  0
  180.7570  179.0080  140.5000 C   0  0  0  0  0  0  0  0  0  0  0  0
  184.1130  173.8350  136.3400 N   0  0  0  0  0  0  0  0  0  0  0  0
  184.2190  175.0710  137.0600 C   0  0  0  0  0  3  0  0  0  0  0  0
  181.9770  172.9270  135.0550 O   0  0  0  0  0  0  0  0  0  0  0  0
  183.1570  175.6970  137.5840 C   0  0  0  0  0  3  0  0  0  0  0  0
  182.9260  171.5120  136.8370 O   0  0  0  0  0  0  0  0  0  0  0  0
  181.7330  175.2370  137.3930 C   0  0  1  0  0  3  0  0  0  0  0  0
  181.6090  173.7280  137.5980 C   0  0  0  0  0  2  0  0  0  0  0  0
  182.6450  172.9230  136.4020 S   0  0  0  0  0  0  0  0  0  0  0  0
  185.2470  173.3190  135.5880 C   0  0  0  0  0  2  0  0  0  0  0  0
  186.3270  172.8040  136.5270 C   0  0  2  0  0  3  0  0  0  0  0  0
  185.8460  172.7760  137.8370 O   0  0  0  0  0  1  0  0  0  0  0  0
  187.5300  173.7200  136.4560 C   0  0  0  0  0  1  0  0  0  0  0  0
  185.6300  177.8370  143.5880 C   0  0  0  0  0  2  0  0  0  0  0  0
  187.8420  177.5300  144.6270 C   0  0  0  0  0  3  0  0  0  0  0  0
  188.9710  178.0360  142.0280 C   0  0  0  0  0  2  0  0  0  0  0  0
  189.7360  177.1060  146.1060 C   0  0  0  0  0  2  0  0  0  0  0  0
  187.6280  178.3590  142.3660 O   0  0  0  0  0  0  0  0  0  0  0  0
  191.7070  176.1420  145.1130 O   0  0  0  0  0  0  0  0  0  0  0  0
  189.7980  176.2510  143.6540 C   0  0  1  0  0  3  0  0  0  0  0  0
  191.3070  176.4530  143.8030 C   0  0  0  0  0  2  0  0  0  0  0  0
  189.0720  177.0130  144.7620 C   0  0  0  0  0  0  0  0  0  0  0  0
  191.2520  177.1980  145.9220 C   0  0  0  0  0  2  0  0  0  0  0  0
  187.0830  177.4810  143.3340 C   0  0  2  0  0  3  0  0  0  0  0  0
  189.3650  176.5630  142.2130 C   0  0  0  0  0  2  0  0  0  0  0  0
  1  7  1  6  0  0  0
  1  4  1  0  0  0  0
  1  5  1  0  0  0  0
  2  3  2  0  0  0  0
  4  5  1  0  0  0  0
  4 39  1  1  0  0  0
  5  2  2  0  0  0  0
  6  7  2  0  0  0  0
  8  6  1  0  0  0  0
  9  8  1  0  0  0  0
  9 10  1  0  0  0  0
 10 12  1  0  0  0  0
 12 11  1  6  0  0  0
 12 13  1  0  0  0  0
 14 15  1  0  0  0  0
 14 13  1  0  0  0  0
 15 16  1  0  0  0  0
 18 17  2  6  0  0  0
 18  3  1  0  0  0  0
 19 21  1  0  0  0  0
 21 26  2  0  0  0  0
 21 22  1  0  0  0  0
 22 20  2  0  0  0  0
 23 22  1  0  0  0  0
 24 26  1  0  0  0  0
 25 19  1  1  0  0  0
 25 23  1  0  0  0  0
 26 18  1  0  0  0  0
 27 34  1  0  0  0  0
 27 28  1  0  0  0  0
 28 30  2  0  0  0  0
 29 34  2  0  0  0  0
 32 30  1  1  0  0  0
 32 33  1  0  0  0  0
 32 25  1  0  0  0  0
 34 31  2  0  0  0  0
 34 33  1  0  0  0  0
 35 27  1  0  0  0  0
 35 36  1  0  0  0  0
 36 38  1  1  0  0  0
 36 37  1  0  0  0  0
 40 47  2  0  0  0  0
 41 50  1  0  0  0  0
 41 43  1  0  0  0  0
 43 49  1  0  0  0  0
 44 48  1  0  0  0  0
 45 50  1  6  0  0  0
 45 46  1  0  0  0  0
 45 47  1  0  0  0  0
 46 44  1  0  0  0  0
 47 42  1  0  0  0  0
 48 42  1  0  0  0  0
 49 39  1  1  0  0  0
 49 40  1  0  0  0  0
M  END
>  <MODEL>
1

>  <REMARK>
 VINA RESULT:      -7.9      0.000      0.000
  Name = 
  15 active torsions:
  status: ('A' for Active; 'I' for Inactive)
    1  A    between atoms: C_3  and  C_23
    2  A    between atoms: C_5  and  N_17
    3  A    between atoms: C_5  and  C_18
    4  A    between atoms: C_7  and  C_33
    5  A    between atoms: C_8  and  C_28
    6  A    between atoms: C_9  and  C_33
    7  A    between atoms: C_9  and  C_46
    8  A    between atoms: N_14  and  C_23
    9  A    between atoms: N_17  and  C_41
   10  A    between atoms: C_27  and  C_48
   11  A    between atoms: C_34  and  S_42
   12  A    between atoms: C_35  and  C_40
   13  A    between atoms: C_37  and  C_40
   14  A    between atoms: C_41  and  C_46
   15  A    between atoms: S_42  and  C_44
                            x       y       z     vdW  Elec       q    Type
                         _______ _______ _______ _____ _____    ______ ____

>  <TORSDO>
F 15

$$$$
=
 OpenBabel10222419063D

 50 54  0  0  1  0  0  0  0  0999 V2000
  185.1100  179.2850  142.9170 C   0  0  2  0  0  3  0  0  0  0  0  0
  182.4320  178.9350  143.3880 C   0  0  0  0  0  0  0  0  0  0  0  0
  181.1390  179.0710  143.4050 C   0  0  0  0  0  3  0  0  0  0  0  0
  185.0230  178.0610  143.6460 C   0  0  2  0  0  3  0  0  0  0  0  0
  183.7280  178.8070  143.3450 C   0  0  0  0  0  0  0  0  0  0  0  0
  186.5090  178.6980  140.9960 C   0  0  0  0  0  3  0  0  0  0  0  0
  185.3020  178.9950  141.4670 C   0  0  0  0  0  3  0  0  0  0  0  0
  186.6900  178.4010  139.5450 C   0  0  0  0  0  2  0  0  0  0  0  0
  188.1240  177.9920  139.2570 C   0  0  0  0  0  2  0  0  0  0  0  0
  188.4320  178.1680  137.7780 C   0  0  0  0  0  2  0  0  0  0  0  0
  189.7160  176.9790  136.0380 C   0  0  0  0  0  1  0  0  0  0  0  0
  189.7840  177.5710  137.4330 C   0  0  2  0  0  3  0  0  0  0  0  0
  190.1320  176.5290  138.3910 N   0  0  0  0  0  2  0  0  0  0  0  0
  191.4920  176.7820  138.8450 C   0  0  0  0  0  2  0  0  0  0  0  0
  192.4800  175.9950  138.0020 C   0  0  0  0  0  2  0  0  0  0  0  0
  193.6450  176.7390  137.8170 O   0  0  0  0  0  1  0  0  0  0  0  0
  179.4700  180.0010  141.6230 O   0  0  0  0  0  0  0  0  0  0  0  0
  180.2110  178.7090  141.9420 S   0  0  1  0  0  0  0  0  0  0  0  0
  182.5340  177.3210  138.7870 C   0  0  0  0  0  2  0  0  0  0  0  0
  179.5750  176.2160  140.5890 O   0  0  0  0  0  0  0  0  0  0  0  0
  181.4980  177.4660  139.8520 C   0  0  0  0  0  0  0  0  0  0  0  0
  180.6200  176.2980  139.8910 C   0  0  0  0  0  0  0  0  0  0  0  0
  181.0900  175.0050  138.7700 S   0  0  0  0  0  0  0  0  0  0  0  0
  182.4460  179.6410  140.5310 C   0  0  0  0  0  1  0  0  0  0  0  0
  182.0320  176.2500  137.8120 C   0  0  2  0  0  3  0  0  0  0  0  0
  181.4410  178.5430  140.6630 C   0  0  0  0  0  0  0  0  0  0  0  0
  185.8280  174.4720  136.3630 N   0  0  0  0  0  0  0  0  0  0  0  0
  185.6930  175.6870  137.1140 C   0  0  0  0  0  3  0  0  0  0  0  0
  184.0300  173.4070  134.7300 O   0  0  0  0  0  0  0  0  0  0  0  0
  184.5030  176.1900  137.4670 C   0  0  0  0  0  3  0  0  0  0  0  0
  184.8160  172.0290  136.6180 O   0  0  0  0  0  0  0  0  0  0  0  0
  183.1820  175.6020  137.0370 C   0  0  1  0  0  3  0  0  0  0  0  0
  183.1780  174.0820  137.1920 C   0  0  0  0  0  2  0  0  0  0  0  0
  184.4690  173.4210  136.1680 S   0  0  0  0  0  0  0  0  0  0  0  0
  187.1150  174.0930  135.7990 C   0  0  0  0  0  2  0  0  0  0  0  0
  187.8560  173.1470  136.7310 C   0  0  2  0  0  3  0  0  0  0  0  0
  189.0810  173.7050  137.1020 O   0  0  0  0  0  1  0  0  0  0  0  0
  188.1000  171.8330  136.0210 C   0  0  0  0  0  1  0  0  0  0  0  0
  185.3930  178.2850  145.1010 C   0  0  0  0  0  2  0  0  0  0  0  0
  187.3970  177.1940  144.1700 C   0  0  0  0  0  3  0  0  0  0  0  0
  188.4560  177.1830  146.8470 C   0  0  0  0  0  2  0  0  0  0  0  0
  189.1200  176.1880  142.7670 C   0  0  0  0  0  2  0  0  0  0  0  0
  187.0790  177.3950  146.5580 O   0  0  0  0  0  0  0  0  0  0  0  0
  191.4060  176.4560  143.4770 O   0  0  0  0  0  0  0  0  0  0  0  0
  189.8040  177.7230  144.7480 C   0  0  1  0  0  3  0  0  0  0  0  0
  191.0490  176.8340  144.7820 C   0  0  0  0  0  2  0  0  0  0  0  0
  188.7080  177.0280  143.9410 C   0  0  0  0  0  0  0  0  0  0  0  0
  190.4540  175.5040  143.0720 C   0  0  0  0  0  2  0  0  0  0  0  0
  186.8740  178.0240  145.3060 C   0  0  2  0  0  3  0  0  0  0  0  0
  189.4310  178.1600  146.1730 C   0  0  0  0  0  2  0  0  0  0  0  0
  1  7  1  6  0  0  0
  1  5  1  0  0  0  0
  1  4  1  0  0  0  0
  2  3  2  0  0  0  0
  4 39  1  1  0  0  0
  5  2  2  0  0  0  0
  5  4  1  0  0  0  0
  6  7  2  0  0  0  0
  8  6  1  0  0  0  0
  9  8  1  0  0  0  0
 10  9  1  0  0  0  0
 12 11  1  6  0  0  0
 12 10  1  0  0  0  0
 12 13  1  0  0  0  0
 13 14  1  0  0  0  0
 15 14  1  0  0  0  0
 16 15  1  0  0  0  0
 18 17  2  6  0  0  0
 18  3  1  0  0  0  0
 19 21  1  0  0  0  0
 21 22  1  0  0  0  0
 21 26  2  0  0  0  0
 22 20  2  0  0  0  0
 23 22  1  0  0  0  0
 24 26  1  0  0  0  0
 25 23  1  0  0  0  0
 25 19  1  1  0  0  0
 26 18  1  0  0  0  0
 27 28  1  0  0  0  0
 28 30  2  0  0  0  0
 29 34  2  0  0  0  0
 32 33  1  1  0  0  0
 32 30  1  0  0  0  0
 32 25  1  0  0  0  0
 34 27  1  0  0  0  0
 34 31  2  0  0  0  0
 34 33  1  0  0  0  0
 35 27  1  0  0  0  0
 35 36  1  0  0  0  0
 36 38  1  6  0  0  0
 36 37  1  0  0  0  0
 40 49  1  0  0  0  0
 42 48  1  0  0  0  0
 42 47  1  0  0  0  0
 43 41  1  0  0  0  0
 44 46  1  0  0  0  0
 45 46  1  1  0  0  0
 45 50  1  0  0  0  0
 47 40  2  0  0  0  0
 47 45  1  0  0  0  0
 48 44  1  0  0  0  0
 49 39  1  6  0  0  0
 49 43  1  0  0  0  0
 50 41  1  0  0  0  0
M  END
>  <MODEL>
2

>  <REMARK>
 VINA RESULT:      -7.5      1.487      2.061
  Name = 
  15 active torsions:
  status: ('A' for Active; 'I' for Inactive)
    1  A    between atoms: C_3  and  C_23
    2  A    between atoms: C_5  and  N_17
    3  A    between atoms: C_5  and  C_18
    4  A    between atoms: C_7  and  C_33
    5  A    between atoms: C_8  and  C_28
    6  A    between atoms: C_9  and  C_33
    7  A    between atoms: C_9  and  C_46
    8  A    between atoms: N_14  and  C_23
    9  A    between atoms: N_17  and  C_41
   10  A    between atoms: C_27  and  C_48
   11  A    between atoms: C_34  and  S_42
   12  A    between atoms: C_35  and  C_40
   13  A    between atoms: C_37  and  C_40
   14  A    between atoms: C_41  and  C_46
   15  A    between atoms: S_42  and  C_44
                            x       y       z     vdW  Elec       q    Type
                         _______ _______ _______ _____ _____    ______ ____

>  <TORSDO>
F 15

$$$$
=
 OpenBabel10222419063D

 50 54  0  0  1  0  0  0  0  0999 V2000
  187.8200  178.5440  141.3100 C   0  0  2  0  0  3  0  0  0  0  0  0
  186.8770  178.0860  138.7770 C   0  0  0  0  0  0  0  0  0  0  0  0
  186.7770  177.9420  137.4880 C   0  0  0  0  0  3  0  0  0  0  0  0
  186.4640  178.1390  141.4910 C   0  0  2  0  0  3  0  0  0  0  0  0
  187.0000  178.2180  140.0670 C   0  0  0  0  0  0  0  0  0  0  0  0
  189.9150  177.6190  142.1730 C   0  0  0  0  0  3  0  0  0  0  0  0
  188.7310  177.4030  141.6090 C   0  0  0  0  0  3  0  0  0  0  0  0
  190.8180  176.4710  142.4760 C   0  0  0  0  0  2  0  0  0  0  0  0
  190.9650  176.2860  143.9760 C   0  0  0  0  0  2  0  0  0  0  0  0
  190.8880  177.6320  144.6800 C   0  0  0  0  0  2  0  0  0  0  0  0
  190.4880  176.8550  146.9890 C   0  0  0  0  0  1  0  0  0  0  0  0
  189.8770  177.5920  145.8120 C   0  0  2  0  0  3  0  0  0  0  0  0
  188.6660  176.9060  145.3790 N   0  0  0  0  0  2  0  0  0  0  0  0
  187.5990  177.8940  145.3110 C   0  0  0  0  0  2  0  0  0  0  0  0
  186.8760  177.9760  146.6440 C   0  0  0  0  0  2  0  0  0  0  0  0
  185.9270  178.9990  146.6080 O   0  0  0  0  0  1  0  0  0  0  0  0
  187.2880  176.7410  135.2250 O   0  0  0  0  0  0  0  0  0  0  0  0
  187.4990  176.5220  136.7170 S   0  0  1  0  0  0  0  0  0  0  0  0
  191.6030  175.8930  136.9170 C   0  0  0  0  0  2  0  0  0  0  0  0
  188.6930  174.0610  135.7330 O   0  0  0  0  0  0  0  0  0  0  0  0
  190.1360  175.7380  136.6890 C   0  0  0  0  0  0  0  0  0  0  0  0
  189.8270  174.4120  136.1540 C   0  0  0  0  0  0  0  0  0  0  0  0
  191.2330  173.3340  136.0410 S   0  0  0  0  0  0  0  0  0  0  0  0
  189.7190  178.0040  137.5700 C   0  0  0  0  0  1  0  0  0  0  0  0
  192.3060  174.8180  136.0810 C   0  0  2  0  0  3  0  0  0  0  0  0
  189.2510  176.7130  136.9790 C   0  0  0  0  0  0  0  0  0  0  0  0
  196.5500  174.6960  137.3640 N   0  0  0  0  0  0  0  0  0  0  0  0
  196.0640  175.1180  136.0830 C   0  0  0  0  0  3  0  0  0  0  0  0
  195.3990  172.9590  139.0050 O   0  0  0  0  0  0  0  0  0  0  0  0
  194.7670  175.0720  135.7500 C   0  0  0  0  0  3  0  0  0  0  0  0
  195.8400  175.2260  139.8680 O   0  0  0  0  0  0  0  0  0  0  0  0
  193.6940  174.4850  136.6340 C   0  0  1  0  0  3  0  0  0  0  0  0
  193.8520  174.9560  138.0790 C   0  0  0  0  0  2  0  0  0  0  0  0
  195.4410  174.4220  138.6630 S   0  0  0  0  0  0  0  0  0  0  0  0
  197.9790  174.5370  137.5960 C   0  0  0  0  0  2  0  0  0  0  0  0
  198.5570  173.4650  136.6860 C   0  0  2  0  0  3  0  0  0  0  0  0
  198.6200  173.9370  135.3740 O   0  0  0  0  0  1  0  0  0  0  0  0
  197.6710  172.2380  136.7330 C   0  0  0  0  0  1  0  0  0  0  0  0
  185.5820  179.3460  141.7530 C   0  0  0  0  0  2  0  0  0  0  0  0
  183.3720  178.9110  142.7530 C   0  0  0  0  0  3  0  0  0  0  0  0
  182.7350  177.4550  140.3530 C   0  0  0  0  0  2  0  0  0  0  0  0
  181.3740  178.8040  144.1480 C   0  0  0  0  0  2  0  0  0  0  0  0
  184.0650  177.7990  140.7210 O   0  0  0  0  0  0  0  0  0  0  0  0
  179.2550  178.6310  143.0160 O   0  0  0  0  0  0  0  0  0  0  0  0
  181.1370  179.0280  141.5710 C   0  0  1  0  0  3  0  0  0  0  0  0
  179.8380  178.2510  141.7960 C   0  0  0  0  0  2  0  0  0  0  0  0
  182.0320  178.8840  142.8000 C   0  0  0  0  0  0  0  0  0  0  0  0
  180.0470  178.0530  144.0250 C   0  0  0  0  0  2  0  0  0  0  0  0
  184.1320  179.0040  141.4620 C   0  0  2  0  0  3  0  0  0  0  0  0
  181.7580  178.6330  140.2230 C   0  0  0  0  0  2  0  0  0  0  0  0
  1  4  1  0  0  0  0
  1  7  1  1  0  0  0
  2  5  2  0  0  0  0
  3  2  2  0  0  0  0
  4 39  1  6  0  0  0
  5  1  1  0  0  0  0
  5  4  1  0  0  0  0
  6  8  1  0  0  0  0
  7  6  2  0  0  0  0
  8  9  1  0  0  0  0
  9 10  1  0  0  0  0
 10 12  1  0  0  0  0
 12 11  1  1  0  0  0
 13 12  1  0  0  0  0
 14 13  1  0  0  0  0
 14 15  1  0  0  0  0
 16 15  1  0  0  0  0
 18 17  2  6  0  0  0
 18 26  1  0  0  0  0
 18  3  1  0  0  0  0
 20 22  2  0  0  0  0
 21 19  1  0  0  0  0
 21 26  2  0  0  0  0
 22 21  1  0  0  0  0
 23 25  1  0  0  0  0
 23 22  1  0  0  0  0
 25 32  1  0  0  0  0
 25 19  1  1  0  0  0
 26 24  1  0  0  0  0
 27 35  1  0  0  0  0
 27 34  1  0  0  0  0
 28 27  1  0  0  0  0
 30 28  2  0  0  0  0
 32 30  1  6  0  0  0
 32 33  1  0  0  0  0
 33 34  1  0  0  0  0
 34 29  2  0  0  0  0
 34 31  2  0  0  0  0
 36 38  1  6  0  0  0
 36 35  1  0  0  0  0
 37 36  1  0  0  0  0
 40 47  2  0  0  0  0
 41 43  1  0  0  0  0
 43 49  1  0  0  0  0
 44 48  1  0  0  0  0
 45 50  1  6  0  0  0
 45 46  1  0  0  0  0
 45 47  1  0  0  0  0
 46 44  1  0  0  0  0
 47 42  1  0  0  0  0
 48 42  1  0  0  0  0
 49 39  1  1  0  0  0
 49 40  1  0  0  0  0
 50 41  1  0  0  0  0
M  END
>  <MODEL>
3

>  <REMARK>
 VINA RESULT:      -6.8      4.147      9.688
  Name = 
  15 active torsions:
  status: ('A' for Active; 'I' for Inactive)
    1  A    between atoms: C_3  and  C_23
    2  A    between atoms: C_5  and  N_17
    3  A    between atoms: C_5  and  C_18
    4  A    between atoms: C_7  and  C_33
    5  A    between atoms: C_8  and  C_28
    6  A    between atoms: C_9  and  C_33
    7  A    between atoms: C_9  and  C_46
    8  A    between atoms: N_14  and  C_23
    9  A    between atoms: N_17  and  C_41
   10  A    between atoms: C_27  and  C_48
   11  A    between atoms: C_34  and  S_42
   12  A    between atoms: C_35  and  C_40
   13  A    between atoms: C_37  and  C_40
   14  A    between atoms: C_41  and  C_46
   15  A    between atoms: S_42  and  C_44
                            x       y       z     vdW  Elec       q    Type
                         _______ _______ _______ _____ _____    ______ ____

>  <TORSDO>
F 15

$$$$
=
 OpenBabel10222419063D

 50 54  0  0  1  0  0  0  0  0999 V2000
  185.2220  174.4530  135.4850 C   0  0  2  0  0  3  0  0  0  0  0  0
  187.8770  174.9440  135.9590 C   0  0  0  0  0  0  0  0  0  0  0  0
  189.1230  175.2970  135.8380 C   0  0  0  0  0  3  0  0  0  0  0  0
  185.4150  174.1270  136.8610 C   0  0  2  0  0  3  0  0  0  0  0  0
  186.6220  174.6140  136.0670 C   0  0  0  0  0  0  0  0  0  0  0  0
  183.3050  175.9590  135.7010 C   0  0  0  0  0  3  0  0  0  0  0  0
  184.5820  175.7950  135.3710 C   0  0  0  0  0  3  0  0  0  0  0  0
  182.6740  177.3070  135.5920 C   0  0  0  0  0  2  0  0  0  0  0  0
  181.7430  177.5600  136.7640 C   0  0  0  0  0  2  0  0  0  0  0  0
  182.1860  176.7480  137.9710 C   0  0  0  0  0  2  0  0  0  0  0  0
  180.3840  176.6230  139.6520 C   0  0  0  0  0  1  0  0  0  0  0  0
  181.6520  177.3540  139.2560 C   0  0  2  0  0  3  0  0  0  0  0  0
  181.3610  178.7690  139.0600 N   0  0  0  0  0  2  0  0  0  0  0  0
  182.3090  179.5290  139.8610 C   0  0  0  0  0  2  0  0  0  0  0  0
  183.4860  179.9660  139.0060 C   0  0  0  0  0  2  0  0  0  0  0  0
  184.6830  179.6180  139.6310 O   0  0  0  0  0  1  0  0  0  0  0  0
  188.7700  177.5690  134.5990 O   0  0  0  0  0  0  0  0  0  0  0  0
  189.5370  177.0160  135.7930 S   0  0  1  0  0  0  0  0  0  0  0  0
  188.5860  178.1760  139.6700 C   0  0  0  0  0  2  0  0  0  0  0  0
  191.3490  176.4950  138.0060 O   0  0  0  0  0  0  0  0  0  0  0  0
  189.2610  177.6080  138.4660 C   0  0  0  0  0  0  0  0  0  0  0  0
  190.5070  176.9350  138.8330 C   0  0  0  0  0  0  0  0  0  0  0  0
  190.8060  176.8730  140.5820 S   0  0  0  0  0  0  0  0  0  0  0  0
  187.4210  178.3870  137.0190 C   0  0  0  0  0  1  0  0  0  0  0  0
  189.6440  178.2760  140.7750 C   0  0  2  0  0  3  0  0  0  0  0  0
  188.7360  177.7060  137.2280 C   0  0  0  0  0  0  0  0  0  0  0  0
  187.3220  177.5840  144.4910 N   0  0  0  0  0  0  0  0  0  0  0  0
  186.7960  177.6290  143.1570 C   0  0  0  0  0  3  0  0  0  0  0  0
  189.4860  178.8330  145.3840 O   0  0  0  0  0  0  0  0  0  0  0  0
  187.5550  177.9000  142.0880 C   0  0  0  0  0  3  0  0  0  0  0  0
  189.4090  176.3780  145.6060 O   0  0  0  0  0  0  0  0  0  0  0  0
  189.0110  178.2860  142.1690 C   0  0  1  0  0  3  0  0  0  0  0  0
  189.7690  177.3790  143.1370 C   0  0  0  0  0  2  0  0  0  0  0  0
  189.0330  177.5500  144.7440 S   0  0  0  0  0  0  0  0  0  0  0  0
  186.4270  177.5250  145.6370 C   0  0  0  0  0  2  0  0  0  0  0  0
  185.7360  178.8630  145.8520 C   0  0  2  0  0  3  0  0  0  0  0  0
  185.4240  179.0260  147.2030 O   0  0  0  0  0  1  0  0  0  0  0  0
  184.4620  178.9050  145.0360 C   0  0  0  0  0  1  0  0  0  0  0  0
  185.5170  172.6230  137.0380 C   0  0  0  0  0  2  0  0  0  0  0  0
  183.0810  172.2650  137.1300 C   0  0  0  0  0  3  0  0  0  0  0  0
  183.5270  169.8490  135.6300 C   0  0  0  0  0  2  0  0  0  0  0  0
  180.6700  172.4020  137.4720 C   0  0  0  0  0  2  0  0  0  0  0  0
  184.5670  170.5450  136.3060 O   0  0  0  0  0  0  0  0  0  0  0  0
  179.2650  171.3980  135.7920 O   0  0  0  0  0  0  0  0  0  0  0  0
  181.6030  171.4780  135.2310 C   0  0  1  0  0  3  0  0  0  0  0  0
  180.3160  170.6510  135.2340 C   0  0  0  0  0  2  0  0  0  0  0  0
  181.8580  172.0240  136.6350 C   0  0  0  0  0  0  0  0  0  0  0  0
  179.5120  171.4470  137.1760 C   0  0  0  0  0  2  0  0  0  0  0  0
  184.3360  171.9400  136.3730 C   0  0  2  0  0  3  0  0  0  0  0  0
  182.7450  170.6710  134.5940 C   0  0  0  0  0  2  0  0  0  0  0  0
  1  7  1  1  0  0  0
  1  5  1  0  0  0  0
  1  4  1  0  0  0  0
  2  5  2  0  0  0  0
  3  2  2  0  0  0  0
  4 39  1  6  0  0  0
  5  4  1  0  0  0  0
  7  6  2  0  0  0  0
  8  6  1  0  0  0  0
  8  9  1  0  0  0  0
  9 10  1  0  0  0  0
 10 12  1  0  0  0  0
 12 11  1  6  0  0  0
 13 12  1  0  0  0  0
 13 14  1  0  0  0  0
 15 16  1  0  0  0  0
 15 14  1  0  0  0  0
 18 17  2  6  0  0  0
 18  3  1  0  0  0  0
 18 26  1  0  0  0  0
 20 22  2  0  0  0  0
 21 22  1  0  0  0  0
 21 19  1  0  0  0  0
 22 23  1  0  0  0  0
 23 25  1  0  0  0  0
 24 26  1  0  0  0  0
 25 19  1  6  0  0  0
 25 32  1  0  0  0  0
 26 21  2  0  0  0  0
 27 34  1  0  0  0  0
 27 35  1  0  0  0  0
 28 27  1  0  0  0  0
 30 28  2  0  0  0  0
 32 30  1  6  0  0  0
 32 33  1  0  0  0  0
 33 34  1  0  0  0  0
 34 29  2  0  0  0  0
 34 31  2  0  0  0  0
 35 36  1  0  0  0  0
 36 38  1  6  0  0  0
 36 37  1  0  0  0  0
 41 43  1  0  0  0  0
 43 49  1  0  0  0  0
 44 48  1  0  0  0  0
 45 50  1  1  0  0  0
 45 46  1  0  0  0  0
 45 47  1  0  0  0  0
 46 44  1  0  0  0  0
 47 40  2  0  0  0  0
 47 42  1  0  0  0  0
 48 42  1  0  0  0  0
 49 39  1  1  0  0  0
 49 40  1  0  0  0  0
 50 41  1  0  0  0  0
M  END
>  <MODEL>
4

>  <REMARK>
 VINA RESULT:      -6.5      3.450     10.176
  Name = 
  15 active torsions:
  status: ('A' for Active; 'I' for Inactive)
    1  A    between atoms: C_3  and  C_23
    2  A    between atoms: C_5  and  N_17
    3  A    between atoms: C_5  and  C_18
    4  A    between atoms: C_7  and  C_33
    5  A    between atoms: C_8  and  C_28
    6  A    between atoms: C_9  and  C_33
    7  A    between atoms: C_9  and  C_46
    8  A    between atoms: N_14  and  C_23
    9  A    between atoms: N_17  and  C_41
   10  A    between atoms: C_27  and  C_48
   11  A    between atoms: C_34  and  S_42
   12  A    between atoms: C_35  and  C_40
   13  A    between atoms: C_37  and  C_40
   14  A    between atoms: C_41  and  C_46
   15  A    between atoms: S_42  and  C_44
                            x       y       z     vdW  Elec       q    Type
                         _______ _______ _______ _____ _____    ______ ____

>  <TORSDO>
F 15

$$$$
=
 OpenBabel10222419063D

 50 54  0  0  1  0  0  0  0  0999 V2000
  185.2230  174.7020  135.1900 C   0  0  2  0  0  3  0  0  0  0  0  0
  187.8370  175.2440  135.8150 C   0  0  0  0  0  0  0  0  0  0  0  0
  189.0540  175.7010  135.8060 C   0  0  0  0  0  3  0  0  0  0  0  0
  185.4420  174.0560  136.4430 C   0  0  2  0  0  3  0  0  0  0  0  0
  186.6090  174.8100  135.8160 C   0  0  0  0  0  0  0  0  0  0  0  0
  183.6460  176.1080  136.4250 C   0  0  0  0  0  3  0  0  0  0  0  0
  184.4880  175.9820  135.4040 C   0  0  0  0  0  3  0  0  0  0  0  0
  182.9200  177.3950  136.6370 C   0  0  0  0  0  2  0  0  0  0  0  0
  182.5080  177.5440  138.0900 C   0  0  0  0  0  2  0  0  0  0  0  0
  183.7250  177.4330  138.9950 C   0  0  0  0  0  2  0  0  0  0  0  0
  183.6390  179.8960  139.1360 C   0  0  0  0  0  1  0  0  0  0  0  0
  183.8080  178.6200  139.9380 C   0  0  2  0  0  3  0  0  0  0  0  0
  185.0990  178.6340  140.6150 N   0  0  0  0  0  2  0  0  0  0  0  0
  184.9080  179.2590  141.9160 C   0  0  0  0  0  2  0  0  0  0  0  0
  184.2090  178.2970  142.8610 C   0  0  0  0  0  2  0  0  0  0  0  0
  183.7950  178.9740  144.0090 O   0  0  0  0  0  1  0  0  0  0  0  0
  188.4620  178.1800  135.2300 O   0  0  0  0  0  0  0  0  0  0  0  0
  189.3430  177.4020  136.2000 S   0  0  1  0  0  0  0  0  0  0  0  0
  188.6300  177.5710  140.2910 C   0  0  0  0  0  2  0  0  0  0  0  0
  191.4530  176.8390  138.1180 O   0  0  0  0  0  0  0  0  0  0  0  0
  189.2610  177.3950  138.9500 C   0  0  0  0  0  0  0  0  0  0  0  0
  190.6410  176.9300  139.0780 C   0  0  0  0  0  0  0  0  0  0  0  0
  191.1370  176.5930  140.7480 S   0  0  0  0  0  0  0  0  0  0  0  0
  187.1600  178.0520  137.8340 C   0  0  0  0  0  1  0  0  0  0  0  0
  189.7660  177.6670  141.3150 C   0  0  2  0  0  3  0  0  0  0  0  0
  188.5930  177.6240  137.8010 C   0  0  0  0  0  0  0  0  0  0  0  0
  189.0320  177.1770  145.6620 N   0  0  0  0  0  0  0  0  0  0  0  0
  190.3130  177.2430  145.0210 C   0  0  0  0  0  3  0  0  0  0  0  0
  186.7650  176.3120  144.5910 O   0  0  0  0  0  0  0  0  0  0  0  0
  190.4530  177.3350  143.6920 C   0  0  0  0  0  3  0  0  0  0  0  0
  186.8060  178.6130  145.4790 O   0  0  0  0  0  0  0  0  0  0  0  0
  189.3000  177.2780  142.7210 C   0  0  1  0  0  3  0  0  0  0  0  0
  188.1400  178.1540  143.1910 C   0  0  0  0  0  2  0  0  0  0  0  0
  187.5990  177.5500  144.7710 S   0  0  0  0  0  0  0  0  0  0  0  0
  188.9310  176.8370  147.0740 C   0  0  0  0  0  2  0  0  0  0  0  0
  189.0550  178.0820  147.9380 C   0  0  2  0  0  3  0  0  0  0  0  0
  190.2810  178.0790  148.6060 O   0  0  0  0  0  1  0  0  0  0  0  0
  187.9330  178.1000  148.9550 C   0  0  0  0  0  1  0  0  0  0  0  0
  185.6510  172.5670  136.2400 C   0  0  0  0  0  2  0  0  0  0  0  0
  183.2400  172.4780  136.7410 C   0  0  0  0  0  3  0  0  0  0  0  0
  183.2680  169.8010  135.6810 C   0  0  0  0  0  2  0  0  0  0  0  0
  180.9290  172.9150  137.3860 C   0  0  0  0  0  2  0  0  0  0  0  0
  184.4490  170.4980  136.0590 O   0  0  0  0  0  0  0  0  0  0  0  0
  179.2090  171.7760  136.1430 O   0  0  0  0  0  0  0  0  0  0  0  0
  181.4300  171.5190  135.2540 C   0  0  1  0  0  3  0  0  0  0  0  0
  180.1020  170.8400  135.5950 C   0  0  0  0  0  2  0  0  0  0  0  0
  181.9410  172.2770  136.4770 C   0  0  0  0  0  0  0  0  0  0  0  0
  179.6720  172.0440  137.4430 C   0  0  0  0  0  2  0  0  0  0  0  0
  184.3340  171.8990  135.8910 C   0  0  2  0  0  3  0  0  0  0  0  0
  182.3950  170.5010  134.6280 C   0  0  0  0  0  2  0  0  0  0  0  0
  1  7  1  1  0  0  0
  1  5  1  0  0  0  0
  1  4  1  0  0  0  0
  2  5  2  0  0  0  0
  3  2  2  0  0  0  0
  3 18  1  0  0  0  0
  4 39  1  6  0  0  0
  5  4  1  0  0  0  0
  6  8  1  0  0  0  0
  7  6  2  0  0  0  0
  8  9  1  0  0  0  0
  9 10  1  0  0  0  0
 10 12  1  0  0  0  0
 12 11  1  6  0  0  0
 12 13  1  0  0  0  0
 13 14  1  0  0  0  0
 14 15  1  0  0  0  0
 15 16  1  0  0  0  0
 18 17  2  6  0  0  0
 18 26  1  0  0  0  0
 20 22  2  0  0  0  0
 21 22  1  0  0  0  0
 21 19  1  0  0  0  0
 22 23  1  0  0  0  0
 23 25  1  0  0  0  0
 25 19  1  6  0  0  0
 25 32  1  0  0  0  0
 26 24  1  0  0  0  0
 26 21  2  0  0  0  0
 27 35  1  0  0  0  0
 28 27  1  0  0  0  0
 29 34  2  0  0  0  0
 30 28  2  0  0  0  0
 32 33  1  1  0  0  0
 32 30  1  0  0  0  0
 33 34  1  0  0  0  0
 34 31  2  0  0  0  0
 34 27  1  0  0  0  0
 35 36  1  0  0  0  0
 36 37  1  0  0  0  0
 36 38  1  1  0  0  0
 41 43  1  0  0  0  0
 42 48  1  0  0  0  0
 44 48  1  0  0  0  0
 45 50  1  1  0  0  0
 45 46  1  0  0  0  0
 45 47  1  0  0  0  0
 46 44  1  0  0  0  0
 47 40  2  0  0  0  0
 47 42  1  0  0  0  0
 49 43  1  0  0  0  0
 49 39  1  1  0  0  0
 49 40  1  0  0  0  0
 50 41  1  0  0  0  0
M  END
>  <MODEL>
5

>  <REMARK>
 VINA RESULT:      -6.4      3.384     10.232
  Name = 
  15 active torsions:
  status: ('A' for Active; 'I' for Inactive)
    1  A    between atoms: C_3  and  C_23
    2  A    between atoms: C_5  and  N_17
    3  A    between atoms: C_5  and  C_18
    4  A    between atoms: C_7  and  C_33
    5  A    between atoms: C_8  and  C_28
    6  A    between atoms: C_9  and  C_33
    7  A    between atoms: C_9  and  C_46
    8  A    between atoms: N_14  and  C_23
    9  A    between atoms: N_17  and  C_41
   10  A    between atoms: C_27  and  C_48
   11  A    between atoms: C_34  and  S_42
   12  A    between atoms: C_35  and  C_40
   13  A    between atoms: C_37  and  C_40
   14  A    between atoms: C_41  and  C_46
   15  A    between atoms: S_42  and  C_44
                            x       y       z     vdW  Elec       q    Type
                         _______ _______ _______ _____ _____    ______ ____

>  <TORSDO>
F 15

$$$$
=
 OpenBabel10222419063D

 50 54  0  0  1  0  0  0  0  0999 V2000
  185.6660  178.6210  138.3950 C   0  0  2  0  0  3  0  0  0  0  0  0
  183.4750  177.0690  137.8370 C   0  0  0  0  0  0  0  0  0  0  0  0
  182.5610  176.3710  137.2300 C   0  0  0  0  0  3  0  0  0  0  0  0
  185.1150  178.2910  139.6700 C   0  0  2  0  0  3  0  0  0  0  0  0
  184.4100  177.7570  138.4290 C   0  0  0  0  0  0  0  0  0  0  0  0
  187.9460  178.2750  137.5780 C   0  0  0  0  0  3  0  0  0  0  0  0
  186.8480  177.7570  138.1180 C   0  0  0  0  0  3  0  0  0  0  0  0
  189.1290  177.4050  137.3110 C   0  0  0  0  0  2  0  0  0  0  0  0
  190.2290  177.6700  138.3230 C   0  0  0  0  0  2  0  0  0  0  0  0
  190.2840  176.5450  139.3450 C   0  0  0  0  0  2  0  0  0  0  0  0
  192.1120  177.4490  140.7350 C   0  0  0  0  0  1  0  0  0  0  0  0
  190.6400  177.0800  140.7200 C   0  0  2  0  0  3  0  0  0  0  0  0
  190.3790  176.0680  141.7360 N   0  0  0  0  0  2  0  0  0  0  0  0
  189.7460  176.7320  142.8670 C   0  0  0  0  0  2  0  0  0  0  0  0
  190.0230  178.2240  142.8200 C   0  0  0  0  0  2  0  0  0  0  0  0
  190.4610  178.6660  144.0690 O   0  0  0  0  0  1  0  0  0  0  0  0
  181.9590  174.5420  135.4650 O   0  0  0  0  0  0  0  0  0  0  0  0
  182.9770  174.7820  136.5730 S   0  0  1  0  0  0  0  0  0  0  0  0
  186.9360  174.5290  135.3330 C   0  0  0  0  0  2  0  0  0  0  0  0
  184.7650  172.7630  137.6560 O   0  0  0  0  0  0  0  0  0  0  0  0
  185.6320  174.3100  136.0240 C   0  0  0  0  0  0  0  0  0  0  0  0
  185.7420  173.2540  137.0290 C   0  0  0  0  0  0  0  0  0  0  0  0
  187.3870  172.6210  137.2340 S   0  0  0  0  0  0  0  0  0  0  0  0
  184.5890  176.1220  134.7120 C   0  0  0  0  0  1  0  0  0  0  0  0
  187.7880  173.2770  135.5700 C   0  0  2  0  0  3  0  0  0  0  0  0
  184.5310  175.0360  135.7390 C   0  0  0  0  0  0  0  0  0  0  0  0
  191.8640  175.0100  135.3340 N   0  0  0  0  0  0  0  0  0  0  0  0
  190.6860  175.5240  134.6990 C   0  0  0  0  0  3  0  0  0  0  0  0
  192.3460  172.4810  135.9730 O   0  0  0  0  0  0  0  0  0  0  0  0
  189.4980  174.9100  134.7710 C   0  0  0  0  0  3  0  0  0  0  0  0
  192.4050  174.1490  137.7880 O   0  0  0  0  0  0  0  0  0  0  0  0
  189.2840  173.5720  135.4350 C   0  0  1  0  0  3  0  0  0  0  0  0
  189.9950  173.5060  136.7860 C   0  0  0  0  0  2  0  0  0  0  0  0
  191.7320  173.7450  136.5060 S   0  0  0  0  0  0  0  0  0  0  0  0
  193.1720  175.5740  135.0320 C   0  0  0  0  0  2  0  0  0  0  0  0
  194.0020  175.7180  136.2980 C   0  0  2  0  0  3  0  0  0  0  0  0
  194.2890  177.0650  136.5290 O   0  0  0  0  0  1  0  0  0  0  0  0
  195.2980  174.9530  136.1360 C   0  0  0  0  0  1  0  0  0  0  0  0
  184.3210  179.4610  140.2210 C   0  0  0  0  0  2  0  0  0  0  0  0
  185.3020  178.7010  142.3500 C   0  0  0  0  0  3  0  0  0  0  0  0
  182.6090  178.2550  143.2630 C   0  0  0  0  0  2  0  0  0  0  0  0
  186.7490  178.0960  144.2190 C   0  0  0  0  0  2  0  0  0  0  0  0
  182.9440  178.4250  141.8920 O   0  0  0  0  0  0  0  0  0  0  0  0
  185.8510  178.3770  146.4360 O   0  0  0  0  0  0  0  0  0  0  0  0
  184.4770  179.2710  144.6750 C   0  0  1  0  0  3  0  0  0  0  0  0
  184.5250  178.4770  145.9820 C   0  0  0  0  0  2  0  0  0  0  0  0
  185.4690  178.6700  143.6810 C   0  0  0  0  0  0  0  0  0  0  0  0
  186.4880  177.4570  145.5840 C   0  0  0  0  0  2  0  0  0  0  0  0
  184.0690  179.2650  141.7050 C   0  0  2  0  0  3  0  0  0  0  0  0
  183.0240  179.4050  144.1940 C   0  0  0  0  0  2  0  0  0  0  0  0
  1  7  1  1  0  0  0
  1  5  1  0  0  0  0
  1  4  1  0  0  0  0
  2  5  2  0  0  0  0
  3  2  2  0  0  0  0
  4 39  1  6  0  0  0
  5  4  1  0  0  0  0
  6  7  2  0  0  0  0
  8  6  1  0  0  0  0
  8  9  1  0  0  0  0
  9 10  1  0  0  0  0
 10 12  1  0  0  0  0
 12 11  1  6  0  0  0
 12 13  1  0  0  0  0
 13 14  1  0  0  0  0
 15 14  1  0  0  0  0
 15 16  1  0  0  0  0
 18 17  2  6  0  0  0
 18  3  1  0  0  0  0
 19 21  1  0  0  0  0
 21 22  1  0  0  0  0
 22 23  1  0  0  0  0
 22 20  2  0  0  0  0
 24 26  1  0  0  0  0
 25 19  1  1  0  0  0
 25 23  1  0  0  0  0
 26 21  2  0  0  0  0
 26 18  1  0  0  0  0
 27 34  1  0  0  0  0
 28 30  2  0  0  0  0
 28 27  1  0  0  0  0
 29 34  2  0  0  0  0
 32 30  1  1  0  0  0
 32 25  1  0  0  0  0
 32 33  1  0  0  0  0
 34 33  1  0  0  0  0
 34 31  2  0  0  0  0
 35 27  1  0  0  0  0
 35 36  1  0  0  0  0
 36 38  1  6  0  0  0
 36 37  1  0  0  0  0
 40 47  2  0  0  0  0
 41 50  1  0  0  0  0
 42 48  1  0  0  0  0
 43 41  1  0  0  0  0
 45 50  1  6  0  0  0
 45 46  1  0  0  0  0
 46 44  1  0  0  0  0
 47 42  1  0  0  0  0
 47 45  1  0  0  0  0
 48 44  1  0  0  0  0
 49 39  1  6  0  0  0
 49 43  1  0  0  0  0
 49 40  1  0  0  0  0
M  END
>  <MODEL>
6

>  <REMARK>
 VINA RESULT:      -6.2      2.672      6.576
  Name = 
  15 active torsions:
  status: ('A' for Active; 'I' for Inactive)
    1  A    between atoms: C_3  and  C_23
    2  A    between atoms: C_5  and  N_17
    3  A    between atoms: C_5  and  C_18
    4  A    between atoms: C_7  and  C_33
    5  A    between atoms: C_8  and  C_28
    6  A    between atoms: C_9  and  C_33
    7  A    between atoms: C_9  and  C_46
    8  A    between atoms: N_14  and  C_23
    9  A    between atoms: N_17  and  C_41
   10  A    between atoms: C_27  and  C_48
   11  A    between atoms: C_34  and  S_42
   12  A    between atoms: C_35  and  C_40
   13  A    between atoms: C_37  and  C_40
   14  A    between atoms: C_41  and  C_46
   15  A    between atoms: S_42  and  C_44
                            x       y       z     vdW  Elec       q    Type
                         _______ _______ _______ _____ _____    ______ ____

>  <TORSDO>
F 15

$$$$
=
 OpenBabel10222419063D

 50 54  0  0  1  0  0  0  0  0999 V2000
  190.9930  176.1890  137.4250 C   0  0  2  0  0  3  0  0  0  0  0  0
  191.4100  177.1250  139.9680 C   0  0  0  0  0  0  0  0  0  0  0  0
  191.3030  177.7590  141.0990 C   0  0  0  0  0  3  0  0  0  0  0  0
  192.1160  175.4510  137.9090 C   0  0  2  0  0  3  0  0  0  0  0  0
  191.4900  176.4870  138.8350 C   0  0  0  0  0  0  0  0  0  0  0  0
  189.7160  174.1720  136.8880 C   0  0  0  0  0  3  0  0  0  0  0  0
  189.7650  175.3470  137.5060 C   0  0  0  0  0  3  0  0  0  0  0  0
  188.4860  173.3320  136.9800 C   0  0  0  0  0  2  0  0  0  0  0  0
  187.2860  174.0760  136.4240 C   0  0  0  0  0  2  0  0  0  0  0  0
  186.0180  173.6390  137.1420 C   0  0  0  0  0  2  0  0  0  0  0  0
  183.6470  174.3170  137.0430 C   0  0  0  0  0  1  0  0  0  0  0  0
  185.0590  174.8050  137.3050 C   0  0  2  0  0  3  0  0  0  0  0  0
  185.3940  175.8650  136.3610 N   0  0  0  0  0  2  0  0  0  0  0  0
  184.5100  176.9900  136.6300 C   0  0  0  0  0  2  0  0  0  0  0  0
  184.9550  177.7160  137.8870 C   0  0  0  0  0  2  0  0  0  0  0  0
  186.1100  178.4540  137.6260 O   0  0  0  0  0  1  0  0  0  0  0  0
  190.3190  178.1010  143.4950 O   0  0  0  0  0  0  0  0  0  0  0  0
  190.0270  177.2970  142.2340 S   0  0  1  0  0  0  0  0  0  0  0  0
  186.1590  178.7190  141.6930 C   0  0  0  0  0  2  0  0  0  0  0  0
  188.1100  177.3070  144.4190 O   0  0  0  0  0  0  0  0  0  0  0  0
  187.4050  178.1310  142.2670 C   0  0  0  0  0  0  0  0  0  0  0  0
  187.1940  177.7020  143.6490 C   0  0  0  0  0  0  0  0  0  0  0  0
  185.5210  177.8800  144.2120 S   0  0  0  0  0  0  0  0  0  0  0  0
  188.5880  178.4540  140.1250 C   0  0  0  0  0  1  0  0  0  0  0  0
  185.2570  179.1020  142.8720 C   0  0  2  0  0  3  0  0  0  0  0  0
  188.5430  178.0100  141.5520 C   0  0  0  0  0  0  0  0  0  0  0  0
  181.1110  178.4040  141.4590 N   0  0  0  0  0  0  0  0  0  0  0  0
  182.3140  178.0070  140.7870 C   0  0  0  0  0  3  0  0  0  0  0  0
  180.8210  180.4590  143.1120 O   0  0  0  0  0  0  0  0  0  0  0  0
  183.5350  178.3060  141.2510 C   0  0  0  0  0  3  0  0  0  0  0  0
  180.2560  178.2160  143.9660 O   0  0  0  0  0  0  0  0  0  0  0  0
  183.7830  179.1680  142.4630 C   0  0  1  0  0  3  0  0  0  0  0  0
  182.8610  178.7780  143.6170 C   0  0  0  0  0  2  0  0  0  0  0  0
  181.1830  179.0000  143.0800 S   0  0  0  0  0  0  0  0  0  0  0  0
  179.8190  178.2700  140.8010 C   0  0  0  0  0  2  0  0  0  0  0  0
  179.8750  178.8210  139.3850 C   0  0  2  0  0  3  0  0  0  0  0  0
  179.2060  180.0450  139.3220 O   0  0  0  0  0  1  0  0  0  0  0  0
  179.2130  177.8410  138.4400 C   0  0  0  0  0  1  0  0  0  0  0  0
  193.4040  176.0150  137.3390 C   0  0  0  0  0  2  0  0  0  0  0  0
  193.9720  173.6290  137.1050 C   0  0  0  0  0  3  0  0  0  0  0  0
  196.1690  174.1260  138.8980 C   0  0  0  0  0  2  0  0  0  0  0  0
  194.1170  171.2670  136.5120 C   0  0  0  0  0  2  0  0  0  0  0  0
  195.0730  175.0200  138.7480 O   0  0  0  0  0  0  0  0  0  0  0  0
  196.3100  170.2700  136.5110 O   0  0  0  0  0  0  0  0  0  0  0  0
  196.2910  172.6560  136.8150 C   0  0  1  0  0  3  0  0  0  0  0  0
  196.8820  171.3150  137.2550 C   0  0  0  0  0  2  0  0  0  0  0  0
  194.7660  172.5770  136.8580 C   0  0  0  0  0  0  0  0  0  0  0  0
  194.9990  170.1150  136.9980 C   0  0  0  0  0  2  0  0  0  0  0  0
  194.5150  174.9860  137.4470 C   0  0  2  0  0  3  0  0  0  0  0  0
  196.9390  173.8010  137.6090 C   0  0  0  0  0  2  0  0  0  0  0  0
  1  7  1  1  0  0  0
  1  4  1  0  0  0  0
  1  5  1  0  0  0  0
  2  3  2  0  0  0  0
  3 18  1  0  0  0  0
  4 39  1  6  0  0  0
  4  5  1  0  0  0  0
  5  2  2  0  0  0  0
  6  8  1  0  0  0  0
  6  7  2  0  0  0  0
  9  8  1  0  0  0  0
  9 10  1  0  0  0  0
 10 12  1  0  0  0  0
 12 11  1  6  0  0  0
 13 14  1  0  0  0  0
 13 12  1  0  0  0  0
 14 15  1  0  0  0  0
 16 15  1  0  0  0  0
 18 17  2  1  0  0  0
 19 21  1  0  0  0  0
 21 22  1  0  0  0  0
 22 23  1  0  0  0  0
 22 20  2  0  0  0  0
 24 26  1  0  0  0  0
 25 19  1  6  0  0  0
 25 23  1  0  0  0  0
 26 18  1  0  0  0  0
 26 21  2  0  0  0  0
 27 34  1  0  0  0  0
 28 30  2  0  0  0  0
 28 27  1  0  0  0  0
 32 30  1  6  0  0  0
 32 25  1  0  0  0  0
 32 33  1  0  0  0  0
 34 29  2  0  0  0  0
 34 33  1  0  0  0  0
 34 31  2  0  0  0  0
 35 27  1  0  0  0  0
 36 38  1  6  0  0  0
 36 35  1  0  0  0  0
 37 36  1  0  0  0  0
 40 49  1  0  0  0  0
 42 47  1  0  0  0  0
 42 48  1  0  0  0  0
 43 41  1  0  0  0  0
 44 48  1  0  0  0  0
 44 46  1  0  0  0  0
 45 47  1  0  0  0  0
 45 46  1  1  0  0  0
 45 50  1  0  0  0  0
 47 40  2  0  0  0  0
 49 39  1  1  0  0  0
 49 43  1  0  0  0  0
 50 41  1  0  0  0  0
M  END
>  <MODEL>
7

>  <REMARK>
 VINA RESULT:      -6.1      3.684      8.533
  Name = 
  15 active torsions:
  status: ('A' for Active; 'I' for Inactive)
    1  A    between atoms: C_3  and  C_23
    2  A    between atoms: C_5  and  N_17
    3  A    between atoms: C_5  and  C_18
    4  A    between atoms: C_7  and  C_33
    5  A    between atoms: C_8  and  C_28
    6  A    between atoms: C_9  and  C_33
    7  A    between atoms: C_9  and  C_46
    8  A    between atoms: N_14  and  C_23
    9  A    between atoms: N_17  and  C_41
   10  A    between atoms: C_27  and  C_48
   11  A    between atoms: C_34  and  S_42
   12  A    between atoms: C_35  and  C_40
   13  A    between atoms: C_37  and  C_40
   14  A    between atoms: C_41  and  C_46
   15  A    between atoms: S_42  and  C_44
                            x       y       z     vdW  Elec       q    Type
                         _______ _______ _______ _____ _____    ______ ____

>  <TORSDO>
F 15

$$$$
=
 OpenBabel10222419063D

 50 54  0  0  1  0  0  0  0  0999 V2000
  182.2090  174.9100  138.6690 C   0  0  2  0  0  3  0  0  0  0  0  0
  180.3770  176.3510  140.1140 C   0  0  0  0  0  0  0  0  0  0  0  0
  179.7940  177.0740  141.0250 C   0  0  0  0  0  3  0  0  0  0  0  0
  181.0370  174.9350  137.8550 C   0  0  2  0  0  3  0  0  0  0  0  0
  180.9830  175.6420  139.2050 C   0  0  0  0  0  0  0  0  0  0  0  0
  184.0430  175.5830  137.1960 C   0  0  0  0  0  3  0  0  0  0  0  0
  183.1940  175.9090  138.1650 C   0  0  0  0  0  3  0  0  0  0  0  0
  185.0210  176.5900  136.6910 C   0  0  0  0  0  2  0  0  0  0  0  0
  186.1720  176.7560  137.6660 C   0  0  0  0  0  2  0  0  0  0  0  0
  187.3330  177.4700  136.9910 C   0  0  0  0  0  2  0  0  0  0  0  0
  189.0390  178.5630  138.4010 C   0  0  0  0  0  1  0  0  0  0  0  0
  188.6230  177.2520  137.7610 C   0  0  2  0  0  3  0  0  0  0  0  0
  189.6730  176.7920  136.8600 N   0  0  0  0  0  2  0  0  0  0  0  0
  190.1630  175.5180  137.3680 C   0  0  0  0  0  2  0  0  0  0  0  0
  191.6700  175.5710  137.5490 C   0  0  0  0  0  2  0  0  0  0  0  0
  192.2220  176.4970  136.6630 O   0  0  0  0  0  1  0  0  0  0  0  0
  178.9340  179.4490  141.6890 O   0  0  0  0  0  0  0  0  0  0  0  0
  180.2010  178.7910  141.1590 S   0  0  1  0  0  0  0  0  0  0  0  0
  183.6830  178.8590  143.4280 C   0  0  0  0  0  2  0  0  0  0  0  0
  182.8190  178.7150  139.8980 O   0  0  0  0  0  0  0  0  0  0  0  0
  182.7030  178.8040  142.3030 C   0  0  0  0  0  0  0  0  0  0  0  0
  183.3870  178.6450  141.0200 C   0  0  0  0  0  0  0  0  0  0  0  0
  185.1440  178.4430  141.1590 S   0  0  0  0  0  0  0  0  0  0  0  0
  180.8190  178.9830  143.8860 C   0  0  0  0  0  1  0  0  0  0  0  0
  185.0470  179.2090  142.8210 C   0  0  2  0  0  3  0  0  0  0  0  0
  181.3710  178.8690  142.5010 C   0  0  0  0  0  0  0  0  0  0  0  0
  187.7900  177.2280  145.6890 N   0  0  0  0  0  0  0  0  0  0  0  0
  186.4250  177.5940  145.9350 C   0  0  0  0  0  3  0  0  0  0  0  0
  189.4660  178.4000  143.9990 O   0  0  0  0  0  0  0  0  0  0  0  0
  185.6760  178.2430  145.0340 C   0  0  0  0  0  3  0  0  0  0  0  0
  189.0320  175.9920  143.6930 O   0  0  0  0  0  0  0  0  0  0  0  0
  186.2020  178.7480  143.7140 C   0  0  1  0  0  3  0  0  0  0  0  0
  187.0610  177.6920  143.0210 C   0  0  0  0  0  2  0  0  0  0  0  0
  188.4320  177.3130  144.0850 S   0  0  0  0  0  0  0  0  0  0  0  0
  188.6320  176.7440  146.7730 C   0  0  0  0  0  2  0  0  0  0  0  0
  189.3980  177.8900  147.4150 C   0  0  2  0  0  3  0  0  0  0  0  0
  190.5170  177.3980  148.0890 O   0  0  0  0  0  1  0  0  0  0  0  0
  188.4970  178.6060  148.3980 C   0  0  0  0  0  1  0  0  0  0  0  0
  180.2920  173.6170  137.9600 C   0  0  0  0  0  2  0  0  0  0  0  0
  182.3460  172.6610  136.9900 C   0  0  0  0  0  3  0  0  0  0  0  0
  180.7670  171.9910  134.6780 C   0  0  0  0  0  2  0  0  0  0  0  0
  184.5960  171.8440  136.5210 C   0  0  0  0  0  2  0  0  0  0  0  0
  180.3430  172.9250  135.6620 O   0  0  0  0  0  0  0  0  0  0  0  0
  184.7870  169.9240  135.0790 O   0  0  0  0  0  0  0  0  0  0  0  0
  182.5360  170.4770  135.7240 C   0  0  1  0  0  3  0  0  0  0  0  0
  183.4750  170.0480  134.5940 C   0  0  0  0  0  2  0  0  0  0  0  0
  183.1030  171.7190  136.4090 C   0  0  0  0  0  0  0  0  0  0  0  0
  185.2540  171.2350  135.2810 C   0  0  0  0  0  2  0  0  0  0  0  0
  180.8450  172.6260  136.9520 C   0  0  2  0  0  3  0  0  0  0  0  0
  181.0960  170.5830  135.1990 C   0  0  0  0  0  2  0  0  0  0  0  0
  1  7  1  6  0  0  0
  1  5  1  0  0  0  0
  2  3  2  0  0  0  0
  3 18  1  0  0  0  0
  4 39  1  1  0  0  0
  4  1  1  0  0  0  0
  4  5  1  0  0  0  0
  5  2  2  0  0  0  0
  6  7  2  0  0  0  0
  8  6  1  0  0  0  0
  8  9  1  0  0  0  0
 10  9  1  0  0  0  0
 10 12  1  0  0  0  0
 12 11  1  6  0  0  0
 13 14  1  0  0  0  0
 13 12  1  0  0  0  0
 14 15  1  0  0  0  0
 16 15  1  0  0  0  0
 18 17  2  1  0  0  0
 18 26  1  0  0  0  0
 20 22  2  0  0  0  0
 21 26  2  0  0  0  0
 21 19  1  0  0  0  0
 22 23  1  0  0  0  0
 22 21  1  0  0  0  0
 23 25  1  0  0  0  0
 25 19  1  1  0  0  0
 25 32  1  0  0  0  0
 26 24  1  0  0  0  0
 27 28  1  0  0  0  0
 27 35  1  0  0  0  0
 29 34  2  0  0  0  0
 30 28  2  0  0  0  0
 31 34  2  0  0  0  0
 32 33  1  6  0  0  0
 32 30  1  0  0  0  0
 33 34  1  0  0  0  0
 34 27  1  0  0  0  0
 35 36  1  0  0  0  0
 36 37  1  0  0  0  0
 36 38  1  1  0  0  0
 41 50  1  0  0  0  0
 41 43  1  0  0  0  0
 43 49  1  0  0  0  0
 44 48  1  0  0  0  0
 45 46  1  6  0  0  0
 45 47  1  0  0  0  0
 46 44  1  0  0  0  0
 47 42  1  0  0  0  0
 47 40  2  0  0  0  0
 48 42  1  0  0  0  0
 49 40  1  0  0  0  0
 49 39  1  1  0  0  0
 50 45  1  0  0  0  0
M  END
>  <MODEL>
8

>  <REMARK>
 VINA RESULT:      -5.9      2.690      8.390
  Name = 
  15 active torsions:
  status: ('A' for Active; 'I' for Inactive)
    1  A    between atoms: C_3  and  C_23
    2  A    between atoms: C_5  and  N_17
    3  A    between atoms: C_5  and  C_18
    4  A    between atoms: C_7  and  C_33
    5  A    between atoms: C_8  and  C_28
    6  A    between atoms: C_9  and  C_33
    7  A    between atoms: C_9  and  C_46
    8  A    between atoms: N_14  and  C_23
    9  A    between atoms: N_17  and  C_41
   10  A    between atoms: C_27  and  C_48
   11  A    between atoms: C_34  and  S_42
   12  A    between atoms: C_35  and  C_40
   13  A    between atoms: C_37  and  C_40
   14  A    between atoms: C_41  and  C_46
   15  A    between atoms: S_42  and  C_44
                            x       y       z     vdW  Elec       q    Type
                         _______ _______ _______ _____ _____    ______ ____

>  <TORSDO>
F 15

$$$$
=
 OpenBabel10222419063D

 50 54  0  0  1  0  0  0  0  0999 V2000
  183.9530  178.1000  137.8210 C   0  0  2  0  0  3  0  0  0  0  0  0
  185.7090  177.4040  135.8330 C   0  0  0  0  0  0  0  0  0  0  0  0
  186.7090  177.3800  135.0020 C   0  0  0  0  0  3  0  0  0  0  0  0
  183.4850  176.8400  137.3420 C   0  0  2  0  0  3  0  0  0  0  0  0
  184.7240  177.4370  136.6860 C   0  0  0  0  0  0  0  0  0  0  0  0
  184.9310  178.9410  139.9020 C   0  0  0  0  0  3  0  0  0  0  0  0
  184.6990  177.9080  139.0980 C   0  0  0  0  0  3  0  0  0  0  0  0
  185.6710  178.7380  141.1810 C   0  0  0  0  0  2  0  0  0  0  0  0
  184.9330  179.3900  142.3370 C   0  0  0  0  0  2  0  0  0  0  0  0
  183.7670  178.5160  142.7740 C   0  0  0  0  0  2  0  0  0  0  0  0
  183.6870  178.8240  145.2220 C   0  0  0  0  0  1  0  0  0  0  0  0
  183.0020  179.1650  143.9130 C   0  0  2  0  0  3  0  0  0  0  0  0
  181.6280  178.6770  143.9370 N   0  0  0  0  0  2  0  0  0  0  0  0
  180.9780  179.1300  142.7150 C   0  0  0  0  0  2  0  0  0  0  0  0
  179.5690  178.5690  142.6340 C   0  0  0  0  0  2  0  0  0  0  0  0
  179.1100  178.2490  143.9120 O   0  0  0  0  0  1  0  0  0  0  0  0
  189.2790  177.6110  134.5950 O   0  0  0  0  0  0  0  0  0  0  0  0
  188.3250  176.9810  135.6020 S   0  0  1  0  0  0  0  0  0  0  0  0
  189.3650  178.3310  139.3930 C   0  0  0  0  0  2  0  0  0  0  0  0
  190.1130  175.4480  137.3050 O   0  0  0  0  0  0  0  0  0  0  0  0
  189.2250  177.5260  138.1440 C   0  0  0  0  0  0  0  0  0  0  0  0
  189.9410  176.2550  138.2570 C   0  0  0  0  0  0  0  0  0  0  0  0
  190.6590  175.9710  139.8550 S   0  0  0  0  0  0  0  0  0  0  0  0
  187.7830  179.2590  137.1430 C   0  0  0  0  0  1  0  0  0  0  0  0
  190.5760  177.7770  140.1540 C   0  0  2  0  0  3  0  0  0  0  0  0
  188.5010  177.9490  137.0880 C   0  0  0  0  0  0  0  0  0  0  0  0
  189.7480  177.9820  144.5070 N   0  0  0  0  0  0  0  0  0  0  0  0
  188.7720  177.8650  143.4620 C   0  0  0  0  0  3  0  0  0  0  0  0
  192.1450  179.1020  144.3200 O   0  0  0  0  0  0  0  0  0  0  0  0
  189.0980  177.8670  142.1630 C   0  0  0  0  0  3  0  0  0  0  0  0
  192.0390  176.7440  145.0310 O   0  0  0  0  0  0  0  0  0  0  0  0
  190.4990  178.0900  141.6500 C   0  0  1  0  0  3  0  0  0  0  0  0
  191.5150  177.2740  142.4480 C   0  0  0  0  0  2  0  0  0  0  0  0
  191.4280  177.7930  144.1440 S   0  0  0  0  0  0  0  0  0  0  0  0
  189.3330  178.2160  145.8820 C   0  0  0  0  0  2  0  0  0  0  0  0
  188.0670  177.4380  146.2040 C   0  0  2  0  0  3  0  0  0  0  0  0
  186.9750  178.3050  146.2610 O   0  0  0  0  0  1  0  0  0  0  0  0
  188.2290  176.7510  147.5440 C   0  0  0  0  0  1  0  0  0  0  0  0
  182.2970  177.0350  136.4180 C   0  0  0  0  0  2  0  0  0  0  0  0
  182.5000  174.5880  136.2130 C   0  0  0  0  0  3  0  0  0  0  0  0
  179.9050  174.6230  134.9680 C   0  0  0  0  0  2  0  0  0  0  0  0
  183.1730  172.2450  136.2870 C   0  0  0  0  0  2  0  0  0  0  0  0
  180.7050  175.7880  135.1250 O   0  0  0  0  0  0  0  0  0  0  0  0
  181.4160  170.6040  136.4350 O   0  0  0  0  0  0  0  0  0  0  0  0
  180.6840  172.8840  136.6650 C   0  0  1  0  0  3  0  0  0  0  0  0
  180.4160  171.5100  136.0460 C   0  0  0  0  0  2  0  0  0  0  0  0
  182.1170  173.3100  136.3510 C   0  0  0  0  0  0  0  0  0  0  0  0
  182.5700  170.9610  135.7140 C   0  0  0  0  0  2  0  0  0  0  0  0
  181.5310  175.7330  136.2740 C   0  0  2  0  0  3  0  0  0  0  0  0
  179.5740  173.8670  136.2640 C   0  0  0  0  0  2  0  0  0  0  0  0
  1  7  1  1  0  0  0
  2  5  2  0  0  0  0
  3 18  1  0  0  0  0
  3  2  2  0  0  0  0
  4 39  1  6  0  0  0
  4  1  1  0  0  0  0
  5  4  1  0  0  0  0
  5  1  1  0  0  0  0
  6  8  1  0  0  0  0
  7  6  2  0  0  0  0
  8  9  1  0  0  0  0
  9 10  1  0  0  0  0
 10 12  1  0  0  0  0
 12 13  1  0  0  0  0
 12 11  1  1  0  0  0
 14 13  1  0  0  0  0
 15 14  1  0  0  0  0
 15 16  1  0  0  0  0
 18 17  2  6  0  0  0
 18 26  1  0  0  0  0
 20 22  2  0  0  0  0
 21 22  1  0  0  0  0
 21 19  1  0  0  0  0
 22 23  1  0  0  0  0
 23 25  1  0  0  0  0
 25 19  1  6  0  0  0
 25 32  1  0  0  0  0
 26 24  1  0  0  0  0
 26 21  2  0  0  0  0
 27 35  1  0  0  0  0
 28 27  1  0  0  0  0
 30 28  2  0  0  0  0
 32 30  1  1  0  0  0
 32 33  1  0  0  0  0
 33 34  1  0  0  0  0
 34 29  2  0  0  0  0
 34 27  1  0  0  0  0
 34 31  2  0  0  0  0
 35 36  1  0  0  0  0
 36 37  1  0  0  0  0
 36 38  1  1  0  0  0
 40 49  1  0  0  0  0
 40 47  2  0  0  0  0
 41 43  1  0  0  0  0
 41 50  1  0  0  0  0
 42 47  1  0  0  0  0
 43 49  1  0  0  0  0
 45 46  1  6  0  0  0
 46 44  1  0  0  0  0
 47 45  1  0  0  0  0
 48 42  1  0  0  0  0
 48 44  1  0  0  0  0
 49 39  1  6  0  0  0
 50 45  1  0  0  0  0
M  END
>  <MODEL>
9

>  <REMARK>
 VINA RESULT:      -5.9      3.418     10.312
  Name = 
  15 active torsions:
  status: ('A' for Active; 'I' for Inactive)
    1  A    between atoms: C_3  and  C_23
    2  A    between atoms: C_5  and  N_17
    3  A    between atoms: C_5  and  C_18
    4  A    between atoms: C_7  and  C_33
    5  A    between atoms: C_8  and  C_28
    6  A    between atoms: C_9  and  C_33
    7  A    between atoms: C_9  and  C_46
    8  A    between atoms: N_14  and  C_23
    9  A    between atoms: N_17  and  C_41
   10  A    between atoms: C_27  and  C_48
   11  A    between atoms: C_34  and  S_42
   12  A    between atoms: C_35  and  C_40
   13  A    between atoms: C_37  and  C_40
   14  A    between atoms: C_41  and  C_46
   15  A    between atoms: S_42  and  C_44
                            x       y       z     vdW  Elec       q    Type
                         _______ _______ _______ _____ _____    ______ ____

>  <TORSDO>
F 15

$$$$
