=
 OpenBabel10222415123D

 34 40  0  0  1  0  0  0  0  0999 V2000
  191.5440  177.1990  140.2420 C   0  0  0  0  0  0  0  0  0  0  0  0
  192.5690  176.5550  138.4250 C   0  0  0  0  0  0  0  0  0  0  0  0
  192.9800  177.5180  140.3120 C   0  0  0  0  0  3  0  0  0  0  0  0
  192.6830  176.2580  137.1700 N   0  0  0  0  0  0  0  0  0  0  0  0
  189.1710  177.8070  141.6600 C   0  0  1  0  0  0  0  0  0  0  0  0
  188.4430  176.3720  139.0240 S   0  0  0  0  0  0  0  0  0  0  0  0
  190.1600  178.4290  142.3900 C   0  0  1  0  0  3  0  0  0  0  0  0
  189.3310  176.5370  143.7040 C   0  0  1  0  0  3  0  0  0  0  0  0
  188.6590  176.5520  142.3490 C   0  0  0  0  0  2  0  0  0  0  0  0
  190.4400  177.5730  143.6170 C   0  0  0  0  0  2  0  0  0  0  0  0
  191.5330  175.7510  136.3980 C   0  0  0  0  0  2  0  0  0  0  0  0
  193.5860  177.1400  139.2250 N   0  0  0  0  0  0  0  0  0  0  0  0
  190.2330  175.9530  137.0780 N   0  0  0  0  0  0  0  0  0  0  0  0
  188.2720  178.7250  140.8230 C   0  0  1  0  0  3  0  0  0  0  0  0
  191.3100  176.5920  139.0900 C   0  0  0  0  0  0  0  0  0  0  0  0
  190.0930  176.2960  138.3270 C   0  0  0  0  0  0  0  0  0  0  0  0
  190.5640  177.6810  141.1540 N   0  0  0  0  0  0  0  0  0  0  0  0
  188.4080  178.5060  139.0040 S   0  0  0  0  0  0  0  0  0  0  0  0
  188.8320  177.3380  146.0430 N   0  0  0  0  0  2  0  0  0  0  0  0
  187.1080  176.8070  144.5600 O   0  0  0  0  0  0  0  0  0  0  0  0
  188.3490  176.9020  144.7730 C   0  0  0  0  0  0  0  0  0  0  0  0
  188.1880  176.8180  148.2210 O   0  0  0  0  0  0  0  0  0  0  0  0
  188.7140  178.1200  148.3050 C   0  0  0  0  0  2  0  0  0  0  0  0
  187.9330  177.6740  147.1330 C   0  0  1  0  0  3  0  0  0  0  0  0
  186.8200  178.6460  141.2690 C   0  0  0  0  0  2  0  0  0  0  0  0
  185.9620  179.2860  140.2860 N   0  0  0  0  0  2  0  0  0  0  0  0
  184.8140  178.4160  140.0860 C   0  0  0  0  0  2  0  0  0  0  0  0
  183.2150  178.9000  143.4720 C   0  0  0  0  0  0  0  0  0  0  0  0
  182.4480  178.7530  140.8350 C   0  0  0  0  0  3  0  0  0  0  0  0
  184.1890  178.7130  142.4930 C   0  0  0  0  0  3  0  0  0  0  0  0
  183.8000  178.6450  141.1570 C   0  0  0  0  0  0  0  0  0  0  0  0
  181.9090  179.0060  143.1080 N   0  0  0  0  0  0  0  0  0  0  0  0
  183.5990  178.9840  144.9050 C   0  0  0  0  0  1  0  0  0  0  0  0
  181.5370  178.9340  141.8280 N   0  0  0  0  0  0  0  0  0  0  0  0
  1  3  1  0  0  0  0
  1 17  1  0  0  0  0
  2 15  1  0  0  0  0
  2 12  1  0  0  0  0
  4  2  2  0  0  0  0
  5  9  1  1  0  0  0
  5  7  1  0  0  0  0
  7 10  1  1  0  0  0
  8 21  1  1  0  0  0
  9  8  1  0  0  0  0
 10  8  1  0  0  0  0
 11 13  1  0  0  0  0
 11  4  1  0  0  0  0
 12  3  2  0  0  0  0
 13 16  2  0  0  0  0
 14 25  1  1  0  0  0
 14  5  1  0  0  0  0
 15  1  2  0  0  0  0
 16  6  1  0  0  0  0
 16 15  1  0  0  0  0
 17  5  1  0  0  0  0
 17  7  1  0  0  0  0
 18  6  1  0  0  0  0
 18 14  1  0  0  0  0
 20 21  2  0  0  0  0
 21 19  1  0  0  0  0
 22 23  1  0  0  0  0
 24 19  1  6  0  0  0
 24 22  1  0  0  0  0
 24 23  1  0  0  0  0
 26 25  1  0  0  0  0
 27 26  1  0  0  0  0
 27 31  1  0  0  0  0
 28 33  1  0  0  0  0
 29 31  2  0  0  0  0
 29 34  1  0  0  0  0
 30 28  2  0  0  0  0
 31 30  1  0  0  0  0
 32 28  1  0  0  0  0
 34 32  2  0  0  0  0
M  END
>  <MODEL>
1

>  <REMARK>
 VINA RESULT:      -8.1      0.000      0.000
  Name = 
  6 active torsions:
  status: ('A' for Active; 'I' for Inactive)
    1  A    between atoms: N_11  and  C_32
    2  A    between atoms: C_14  and  C_26
    3  A    between atoms: C_16  and  C_34
    4  A    between atoms: N_23  and  C_26
    5  A    between atoms: N_23  and  C_28
    6  A    between atoms: C_27  and  C_28
                            x       y       z     vdW  Elec       q    Type
                         _______ _______ _______ _____ _____    ______ ____

>  <TORSDO>
F 6

$$$$
=
 OpenBabel10222415123D

 34 40  0  0  1  0  0  0  0  0999 V2000
  191.6990  177.0230  139.9070 C   0  0  0  0  0  0  0  0  0  0  0  0
  192.6930  176.3630  138.0790 C   0  0  0  0  0  0  0  0  0  0  0  0
  193.1490  177.2700  139.9830 C   0  0  0  0  0  3  0  0  0  0  0  0
  192.7930  176.0830  136.8190 N   0  0  0  0  0  0  0  0  0  0  0  0
  189.3580  177.7200  141.3360 C   0  0  1  0  0  0  0  0  0  0  0  0
  188.5630  176.3710  138.6760 S   0  0  0  0  0  0  0  0  0  0  0  0
  190.3750  178.2800  142.0780 C   0  0  1  0  0  3  0  0  0  0  0  0
  189.4540  176.4080  143.3570 C   0  0  1  0  0  3  0  0  0  0  0  0
  188.7840  176.4800  142.0030 C   0  0  0  0  0  2  0  0  0  0  0  0
  190.6120  177.3890  143.2890 C   0  0  0  0  0  2  0  0  0  0  0  0
  191.6200  175.6470  136.0380 C   0  0  0  0  0  2  0  0  0  0  0  0
  193.7360  176.8830  138.8900 N   0  0  0  0  0  0  0  0  0  0  0  0
  190.3310  175.9000  136.7210 N   0  0  0  0  0  0  0  0  0  0  0  0
  188.5050  178.6970  140.5170 C   0  0  1  0  0  3  0  0  0  0  0  0
  191.4360  176.4490  138.7440 C   0  0  0  0  0  0  0  0  0  0  0  0
  190.2080  176.2270  137.9770 C   0  0  0  0  0  0  0  0  0  0  0  0
  190.7430  177.5360  140.8290 N   0  0  0  0  0  0  0  0  0  0  0  0
  188.6320  178.5040  138.6940 S   0  0  0  0  0  0  0  0  0  0  0  0
  188.9930  177.3380  145.6560 N   0  0  0  0  0  2  0  0  0  0  0  0
  187.2480  176.6400  144.2680 O   0  0  0  0  0  0  0  0  0  0  0  0
  188.4900  176.8000  144.4330 C   0  0  0  0  0  0  0  0  0  0  0  0
  188.2320  176.7530  147.7780 O   0  0  0  0  0  0  0  0  0  0  0  0
  188.9130  177.9700  147.9650 C   0  0  0  0  0  2  0  0  0  0  0  0
  188.1130  177.7070  146.7510 C   0  0  1  0  0  3  0  0  0  0  0  0
  187.0510  178.6800  140.9610 C   0  0  0  0  0  2  0  0  0  0  0  0
  186.1760  178.7030  139.8010 N   0  0  0  0  0  2  0  0  0  0  0  0
  184.8530  179.0860  140.2680 C   0  0  0  0  0  2  0  0  0  0  0  0
  181.8380  179.6080  138.0550 C   0  0  0  0  0  0  0  0  0  0  0  0
  183.9710  177.8840  138.2550 C   0  0  0  0  0  3  0  0  0  0  0  0
  182.7690  179.7990  139.0740 C   0  0  0  0  0  3  0  0  0  0  0  0
  183.8530  178.9290  139.1720 C   0  0  0  0  0  0  0  0  0  0  0  0
  182.0000  178.5790  137.1820 N   0  0  0  0  0  0  0  0  0  0  0  0
  180.6750  180.5240  137.9220 C   0  0  0  0  0  1  0  0  0  0  0  0
  183.0350  177.7410  137.2800 N   0  0  0  0  0  0  0  0  0  0  0  0
  1  3  1  0  0  0  0
  1 17  1  0  0  0  0
  2 15  1  0  0  0  0
  2 12  1  0  0  0  0
  4  2  2  0  0  0  0
  5  9  1  1  0  0  0
  5  7  1  0  0  0  0
  6 18  1  0  0  0  0
  7 10  1  1  0  0  0
  8 21  1  1  0  0  0
  9  8  1  0  0  0  0
 10  8  1  0  0  0  0
 11 13  1  0  0  0  0
 11  4  1  0  0  0  0
 12  3  2  0  0  0  0
 13 16  2  0  0  0  0
 14 25  1  1  0  0  0
 14  5  1  0  0  0  0
 15  1  2  0  0  0  0
 16  6  1  0  0  0  0
 16 15  1  0  0  0  0
 17  5  1  0  0  0  0
 17  7  1  0  0  0  0
 18 14  1  0  0  0  0
 20 21  2  0  0  0  0
 21 19  1  0  0  0  0
 22 23  1  0  0  0  0
 24 19  1  6  0  0  0
 24 22  1  0  0  0  0
 24 23  1  0  0  0  0
 26 27  1  0  0  0  0
 26 25  1  0  0  0  0
 28 30  1  0  0  0  0
 29 31  1  0  0  0  0
 30 31  2  0  0  0  0
 31 27  1  0  0  0  0
 32 34  1  0  0  0  0
 32 28  2  0  0  0  0
 33 28  1  0  0  0  0
 34 29  2  0  0  0  0
M  END
>  <MODEL>
2

>  <REMARK>
 VINA RESULT:      -7.6      1.751      2.332
  Name = 
  6 active torsions:
  status: ('A' for Active; 'I' for Inactive)
    1  A    between atoms: N_11  and  C_32
    2  A    between atoms: C_14  and  C_26
    3  A    between atoms: C_16  and  C_34
    4  A    between atoms: N_23  and  C_26
    5  A    between atoms: N_23  and  C_28
    6  A    between atoms: C_27  and  C_28
                            x       y       z     vdW  Elec       q    Type
                         _______ _______ _______ _____ _____    ______ ____

>  <TORSDO>
F 6

$$$$
=
 OpenBabel10222415123D

 34 40  0  0  1  0  0  0  0  0999 V2000
  180.2350  176.0690  136.8330 C   0  0  0  0  0  0  0  0  0  0  0  0
  180.5630  174.0860  135.9800 C   0  0  0  0  0  0  0  0  0  0  0  0
  178.9640  175.4790  136.3790 C   0  0  0  0  0  3  0  0  0  0  0  0
  181.1640  172.9520  135.8150 N   0  0  0  0  0  0  0  0  0  0  0  0
  181.1110  178.2740  138.3760 C   0  0  1  0  0  0  0  0  0  0  0  0
  183.5050  176.4050  137.8190 S   0  0  0  0  0  0  0  0  0  0  0  0
  179.7420  178.4270  138.3290 C   0  0  1  0  0  3  0  0  0  0  0  0
  180.7450  180.1970  136.9670 C   0  0  1  0  0  3  0  0  0  0  0  0
  181.8260  179.2680  137.4760 C   0  0  0  0  0  2  0  0  0  0  0  0
  179.4320  179.5150  137.3100 C   0  0  0  0  0  2  0  0  0  0  0  0
  182.6150  172.8140  136.0460 C   0  0  0  0  0  2  0  0  0  0  0  0
  179.1620  174.2950  135.8780 N   0  0  0  0  0  0  0  0  0  0  0  0
  183.2010  173.9520  136.7910 N   0  0  0  0  0  0  0  0  0  0  0  0
  181.6890  177.7910  139.7120 C   0  0  1  0  0  3  0  0  0  0  0  0
  181.2080  175.2140  136.5640 C   0  0  0  0  0  0  0  0  0  0  0  0
  182.5990  175.0870  137.0090 C   0  0  0  0  0  0  0  0  0  0  0  0
  180.3410  177.2430  137.6300 N   0  0  0  0  0  0  0  0  0  0  0  0
  182.4760  176.1320  139.6690 S   0  0  0  0  0  0  0  0  0  0  0  0
  180.6730  182.7160  136.8760 N   0  0  0  0  0  2  0  0  0  0  0  0
  181.0970  181.5970  138.8820 O   0  0  0  0  0  0  0  0  0  0  0  0
  180.8450  181.5270  137.6470 C   0  0  0  0  0  0  0  0  0  0  0  0
  182.0640  184.5610  137.1750 O   0  0  0  0  0  0  0  0  0  0  0  0
  180.9920  185.0430  136.4030 C   0  0  0  0  0  2  0  0  0  0  0  0
  180.7910  184.0380  137.4670 C   0  0  1  0  0  3  0  0  0  0  0  0
  182.6310  178.8190  140.3180 C   0  0  0  0  0  2  0  0  0  0  0  0
  182.7840  178.5750  141.7430 N   0  0  0  0  0  2  0  0  0  0  0  0
  184.2110  178.5190  142.0180 C   0  0  0  0  0  2  0  0  0  0  0  0
  185.8510  178.2390  145.4080 C   0  0  0  0  0  0  0  0  0  0  0  0
  183.4660  179.0960  144.3390 C   0  0  0  0  0  3  0  0  0  0  0  0
  185.6630  178.1670  144.0290 C   0  0  0  0  0  3  0  0  0  0  0  0
  184.4570  178.6080  143.4870 C   0  0  0  0  0  0  0  0  0  0  0  0
  184.8580  178.7280  146.1960 N   0  0  0  0  0  0  0  0  0  0  0  0
  187.1290  177.7830  146.0140 C   0  0  0  0  0  1  0  0  0  0  0  0
  183.7000  179.1440  145.6770 N   0  0  0  0  0  0  0  0  0  0  0  0
  1 17  1  0  0  0  0
  2 15  1  0  0  0  0
  3  1  1  0  0  0  0
  4  2  2  0  0  0  0
  4 11  1  0  0  0  0
  5  9  1  6  0  0  0
  5 14  1  0  0  0  0
  6 18  1  0  0  0  0
  7 10  1  6  0  0  0
  7  5  1  0  0  0  0
  8 10  1  0  0  0  0
  8  9  1  0  0  0  0
  8 21  1  1  0  0  0
 11 13  1  0  0  0  0
 12  2  1  0  0  0  0
 12  3  2  0  0  0  0
 13 16  2  0  0  0  0
 14 25  1  6  0  0  0
 15  1  2  0  0  0  0
 15 16  1  0  0  0  0
 16  6  1  0  0  0  0
 17  7  1  0  0  0  0
 17  5  1  0  0  0  0
 18 14  1  0  0  0  0
 19 21  1  0  0  0  0
 21 20  2  0  0  0  0
 22 24  1  0  0  0  0
 23 22  1  0  0  0  0
 23 24  1  0  0  0  0
 24 19  1  6  0  0  0
 25 26  1  0  0  0  0
 26 27  1  0  0  0  0
 27 31  1  0  0  0  0
 28 33  1  0  0  0  0
 28 32  1  0  0  0  0
 29 34  1  0  0  0  0
 30 28  2  0  0  0  0
 31 30  1  0  0  0  0
 31 29  2  0  0  0  0
 34 32  2  0  0  0  0
M  END
>  <MODEL>
3

>  <REMARK>
 VINA RESULT:      -7.3      5.926      9.670
  Name = 
  6 active torsions:
  status: ('A' for Active; 'I' for Inactive)
    1  A    between atoms: N_11  and  C_32
    2  A    between atoms: C_14  and  C_26
    3  A    between atoms: C_16  and  C_34
    4  A    between atoms: N_23  and  C_26
    5  A    between atoms: N_23  and  C_28
    6  A    between atoms: C_27  and  C_28
                            x       y       z     vdW  Elec       q    Type
                         _______ _______ _______ _____ _____    ______ ____

>  <TORSDO>
F 6

$$$$
=
 OpenBabel10222415123D

 34 40  0  0  1  0  0  0  0  0999 V2000
  191.2100  175.8030  144.5960 C   0  0  0  0  0  0  0  0  0  0  0  0
  192.4260  175.5410  146.3920 C   0  0  0  0  0  0  0  0  0  0  0  0
  192.0760  174.6180  144.4730 C   0  0  0  0  0  3  0  0  0  0  0  0
  192.7220  175.6420  147.6470 N   0  0  0  0  0  0  0  0  0  0  0  0
  189.0140  176.9680  143.2450 C   0  0  1  0  0  0  0  0  0  0  0  0
  189.4460  178.4260  145.9320 S   0  0  0  0  0  0  0  0  0  0  0  0
  189.3360  175.8760  142.4700 C   0  0  1  0  0  3  0  0  0  0  0  0
  189.9510  177.8910  141.2240 C   0  0  1  0  0  3  0  0  0  0  0  0
  189.4520  178.2730  142.5990 C   0  0  0  0  0  2  0  0  0  0  0  0
  190.0990  176.3790  141.2530 C   0  0  0  0  0  2  0  0  0  0  0  0
  192.2030  176.7530  148.4680 C   0  0  0  0  0  2  0  0  0  0  0  0
  192.7920  174.4610  145.5460 N   0  0  0  0  0  0  0  0  0  0  0  0
  191.0870  177.4860  147.8270 N   0  0  0  0  0  0  0  0  0  0  0  0
  187.7410  176.8420  144.0920 C   0  0  1  0  0  3  0  0  0  0  0  0
  191.4490  176.3700  145.7680 C   0  0  0  0  0  0  0  0  0  0  0  0
  190.7410  177.3670  146.5770 C   0  0  0  0  0  0  0  0  0  0  0  0
  190.1470  176.1240  143.7070 N   0  0  0  0  0  0  0  0  0  0  0  0
  188.0080  176.8480  145.9100 S   0  0  0  0  0  0  0  0  0  0  0  0
  189.1970  177.9530  138.8180 N   0  0  0  0  0  2  0  0  0  0  0  0
  187.9400  178.9780  140.4990 O   0  0  0  0  0  0  0  0  0  0  0  0
  188.9610  178.3070  140.1810 C   0  0  0  0  0  0  0  0  0  0  0  0
  188.7290  179.5820  137.2190 O   0  0  0  0  0  0  0  0  0  0  0  0
  189.0310  178.4260  136.4750 C   0  0  0  0  0  2  0  0  0  0  0  0
  188.2940  178.3550  137.7530 C   0  0  1  0  0  3  0  0  0  0  0  0
  186.7000  177.8780  143.6960 C   0  0  0  0  0  2  0  0  0  0  0  0
  185.6120  177.8830  144.6600 N   0  0  0  0  0  2  0  0  0  0  0  0
  184.9190  179.1540  144.5190 C   0  0  0  0  0  2  0  0  0  0  0  0
  181.3310  178.8020  143.3960 C   0  0  0  0  0  0  0  0  0  0  0  0
  183.8460  178.8010  142.2830 C   0  0  0  0  0  3  0  0  0  0  0  0
  182.4370  178.9840  144.2230 C   0  0  0  0  0  3  0  0  0  0  0  0
  183.7110  178.9900  143.6580 C   0  0  0  0  0  0  0  0  0  0  0  0
  181.5130  178.6280  142.0600 N   0  0  0  0  0  0  0  0  0  0  0  0
  179.9590  178.7990  143.9690 C   0  0  0  0  0  1  0  0  0  0  0  0
  182.7340  178.6270  141.5200 N   0  0  0  0  0  0  0  0  0  0  0  0
  1 15  2  0  0  0  0
  2  4  2  0  0  0  0
  3  1  1  0  0  0  0
  3 12  2  0  0  0  0
  4 11  1  0  0  0  0
  5  9  1  6  0  0  0
  5 17  1  0  0  0  0
  5 14  1  0  0  0  0
  6 16  1  0  0  0  0
  7 10  1  6  0  0  0
  7  5  1  0  0  0  0
  7 17  1  0  0  0  0
  8 21  1  6  0  0  0
  8 10  1  0  0  0  0
  8  9  1  0  0  0  0
 12  2  1  0  0  0  0
 13 11  1  0  0  0  0
 14 25  1  1  0  0  0
 14 18  1  0  0  0  0
 15  2  1  0  0  0  0
 15 16  1  0  0  0  0
 16 13  2  0  0  0  0
 17  1  1  0  0  0  0
 18  6  1  0  0  0  0
 19 21  1  0  0  0  0
 21 20  2  0  0  0  0
 22 24  1  0  0  0  0
 23 22  1  0  0  0  0
 23 24  1  0  0  0  0
 24 19  1  1  0  0  0
 25 26  1  0  0  0  0
 27 26  1  0  0  0  0
 28 33  1  0  0  0  0
 28 30  1  0  0  0  0
 29 31  1  0  0  0  0
 31 30  2  0  0  0  0
 31 27  1  0  0  0  0
 32 28  2  0  0  0  0
 34 32  1  0  0  0  0
 34 29  2  0  0  0  0
M  END
>  <MODEL>
4

>  <REMARK>
 VINA RESULT:      -7.0      3.321      6.296
  Name = 
  6 active torsions:
  status: ('A' for Active; 'I' for Inactive)
    1  A    between atoms: N_11  and  C_32
    2  A    between atoms: C_14  and  C_26
    3  A    between atoms: C_16  and  C_34
    4  A    between atoms: N_23  and  C_26
    5  A    between atoms: N_23  and  C_28
    6  A    between atoms: C_27  and  C_28
                            x       y       z     vdW  Elec       q    Type
                         _______ _______ _______ _____ _____    ______ ____

>  <TORSDO>
F 6

$$$$
=
 OpenBabel10222415123D

 34 40  0  0  1  0  0  0  0  0999 V2000
  182.0360  175.5860  136.1390 C   0  0  0  0  0  0  0  0  0  0  0  0
  180.1580  174.5330  136.5060 C   0  0  0  0  0  0  0  0  0  0  0  0
  181.3330  175.3150  134.8740 C   0  0  0  0  0  3  0  0  0  0  0  0
  179.1120  174.1770  137.1790 N   0  0  0  0  0  0  0  0  0  0  0  0
  184.2300  177.1220  137.0530 C   0  0  1  0  0  0  0  0  0  0  0  0
  182.6840  176.0090  139.4830 S   0  0  0  0  0  0  0  0  0  0  0  0
  184.2290  177.3270  135.6900 C   0  0  1  0  0  3  0  0  0  0  0  0
  186.1800  175.9560  136.2440 C   0  0  1  0  0  3  0  0  0  0  0  0
  185.3520  176.1920  137.4870 C   0  0  0  0  0  2  0  0  0  0  0  0
  185.3340  176.4680  135.0910 C   0  0  0  0  0  2  0  0  0  0  0  0
  179.1280  174.1400  138.6540 C   0  0  0  0  0  2  0  0  0  0  0  0
  180.2120  174.6950  135.0970 N   0  0  0  0  0  0  0  0  0  0  0  0
  180.2780  174.8580  139.2480 N   0  0  0  0  0  0  0  0  0  0  0  0
  183.7380  178.2940  137.9110 C   0  0  1  0  0  3  0  0  0  0  0  0
  181.3150  175.0840  137.1290 C   0  0  0  0  0  0  0  0  0  0  0  0
  181.3220  175.2670  138.5830 C   0  0  0  0  0  0  0  0  0  0  0  0
  183.1650  176.4420  136.2690 N   0  0  0  0  0  0  0  0  0  0  0  0
  182.1850  177.9820  138.8410 S   0  0  0  0  0  0  0  0  0  0  0  0
  187.8140  177.3620  137.5530 N   0  0  0  0  0  2  0  0  0  0  0  0
  188.2360  176.7860  135.3290 O   0  0  0  0  0  0  0  0  0  0  0  0
  187.4700  176.7110  136.3300 C   0  0  0  0  0  0  0  0  0  0  0  0
  188.9050  179.0030  138.7960 O   0  0  0  0  0  0  0  0  0  0  0  0
  189.6700  177.8380  138.9920 C   0  0  0  0  0  2  0  0  0  0  0  0
  189.0340  178.1390  137.6930 C   0  0  1  0  0  3  0  0  0  0  0  0
  184.8290  178.8060  138.8380 C   0  0  0  0  0  2  0  0  0  0  0  0
  184.2530  179.2060  140.1120 N   0  0  0  0  0  2  0  0  0  0  0  0
  185.2000  178.8300  141.1490 C   0  0  0  0  0  2  0  0  0  0  0  0
  184.6610  178.7910  144.8860 C   0  0  0  0  0  0  0  0  0  0  0  0
  183.1600  179.0020  142.5910 C   0  0  0  0  0  3  0  0  0  0  0  0
  185.3060  178.7670  143.6510 C   0  0  0  0  0  3  0  0  0  0  0  0
  184.5450  178.8810  142.4890 C   0  0  0  0  0  0  0  0  0  0  0  0
  183.3080  178.9160  144.9340 N   0  0  0  0  0  0  0  0  0  0  0  0
  185.4460  178.6790  146.1430 C   0  0  0  0  0  1  0  0  0  0  0  0
  182.5800  179.0180  143.8200 N   0  0  0  0  0  0  0  0  0  0  0  0
  1 17  1  0  0  0  0
  1 15  2  0  0  0  0
  2 15  1  0  0  0  0
  2  4  2  0  0  0  0
  3 12  2  0  0  0  0
  3  1  1  0  0  0  0
  4 11  1  0  0  0  0
  5  9  1  1  0  0  0
  5 14  1  0  0  0  0
  7 10  1  6  0  0  0
  7 17  1  0  0  0  0
  7  5  1  0  0  0  0
  8 21  1  1  0  0  0
  8  9  1  0  0  0  0
 10  8  1  0  0  0  0
 11 13  1  0  0  0  0
 12  2  1  0  0  0  0
 14 25  1  1  0  0  0
 14 18  1  0  0  0  0
 15 16  1  0  0  0  0
 16 13  2  0  0  0  0
 16  6  1  0  0  0  0
 17  5  1  0  0  0  0
 18  6  1  0  0  0  0
 20 21  2  0  0  0  0
 21 19  1  0  0  0  0
 22 23  1  0  0  0  0
 24 19  1  1  0  0  0
 24 22  1  0  0  0  0
 24 23  1  0  0  0  0
 25 26  1  0  0  0  0
 26 27  1  0  0  0  0
 27 31  1  0  0  0  0
 28 32  1  0  0  0  0
 28 33  1  0  0  0  0
 29 34  1  0  0  0  0
 30 28  2  0  0  0  0
 31 29  2  0  0  0  0
 31 30  1  0  0  0  0
 34 32  2  0  0  0  0
M  END
>  <MODEL>
5

>  <REMARK>
 VINA RESULT:      -6.8      4.621      8.294
  Name = 
  6 active torsions:
  status: ('A' for Active; 'I' for Inactive)
    1  A    between atoms: N_11  and  C_32
    2  A    between atoms: C_14  and  C_26
    3  A    between atoms: C_16  and  C_34
    4  A    between atoms: N_23  and  C_26
    5  A    between atoms: N_23  and  C_28
    6  A    between atoms: C_27  and  C_28
                            x       y       z     vdW  Elec       q    Type
                         _______ _______ _______ _____ _____    ______ ____

>  <TORSDO>
F 6

$$$$
=
 OpenBabel10222415123D

 34 40  0  0  1  0  0  0  0  0999 V2000
  191.0710  174.9360  137.3020 C   0  0  0  0  0  0  0  0  0  0  0  0
  193.0410  174.0220  137.0750 C   0  0  0  0  0  0  0  0  0  0  0  0
  190.9700  173.6450  136.5990 C   0  0  0  0  0  3  0  0  0  0  0  0
  194.2750  173.7760  137.3780 N   0  0  0  0  0  0  0  0  0  0  0  0
  189.3450  176.8260  138.5080 C   0  0  1  0  0  0  0  0  0  0  0  0
  192.2700  177.5240  139.2100 S   0  0  0  0  0  0  0  0  0  0  0  0
  188.4870  175.8880  137.9780 C   0  0  1  0  0  3  0  0  0  0  0  0
  188.2630  177.9400  136.6630 C   0  0  1  0  0  3  0  0  0  0  0  0
  189.3550  178.1110  137.6950 C   0  0  0  0  0  2  0  0  0  0  0  0
  187.9010  176.4650  136.6970 C   0  0  0  0  0  2  0  0  0  0  0  0
  195.0960  174.7650  138.1010 C   0  0  0  0  0  2  0  0  0  0  0  0
  192.1440  173.1010  136.4730 N   0  0  0  0  0  0  0  0  0  0  0  0
  194.3010  175.8500  138.7210 N   0  0  0  0  0  0  0  0  0  0  0  0
  189.5120  176.8020  140.0320 C   0  0  1  0  0  3  0  0  0  0  0  0
  192.3460  175.1630  137.5700 C   0  0  0  0  0  0  0  0  0  0  0  0
  193.0450  176.0890  138.4660 C   0  0  0  0  0  0  0  0  0  0  0  0
  189.9600  175.6710  137.8020 N   0  0  0  0  0  0  0  0  0  0  0  0
  191.1900  176.3480  140.6270 S   0  0  0  0  0  0  0  0  0  0  0  0
  186.1340  178.2920  137.9690 N   0  0  0  0  0  2  0  0  0  0  0  0
  186.9080  179.9090  136.4720 O   0  0  0  0  0  0  0  0  0  0  0  0
  187.0790  178.7840  137.0190 C   0  0  0  0  0  0  0  0  0  0  0  0
  184.0160  178.1780  138.9320 O   0  0  0  0  0  0  0  0  0  0  0  0
  184.7590  179.0030  139.7980 C   0  0  0  0  0  2  0  0  0  0  0  0
  184.9470  179.0460  138.3330 C   0  0  1  0  0  3  0  0  0  0  0  0
  189.0480  178.1030  140.6680 C   0  0  0  0  0  2  0  0  0  0  0  0
  189.1390  178.0110  142.1160 N   0  0  0  0  0  2  0  0  0  0  0  0
  187.9950  177.2370  142.5700 C   0  0  0  0  0  2  0  0  0  0  0  0
  186.5100  177.9190  145.9730 C   0  0  0  0  0  0  0  0  0  0  0  0
  188.9140  177.1280  144.8970 C   0  0  0  0  0  3  0  0  0  0  0  0
  186.6190  177.7780  144.5920 C   0  0  0  0  0  3  0  0  0  0  0  0
  187.8350  177.3710  144.0470 C   0  0  0  0  0  0  0  0  0  0  0  0
  187.5880  177.6650  146.7610 N   0  0  0  0  0  0  0  0  0  0  0  0
  185.2230  178.3450  146.5840 C   0  0  0  0  0  1  0  0  0  0  0  0
  188.7550  177.2820  146.2390 N   0  0  0  0  0  0  0  0  0  0  0  0
  1 15  2  0  0  0  0
  1 17  1  0  0  0  0
  2  4  2  0  0  0  0
  2 15  1  0  0  0  0
  3  1  1  0  0  0  0
  4 11  1  0  0  0  0
  5  9  1  6  0  0  0
  5 14  1  0  0  0  0
  6 18  1  0  0  0  0
  7 10  1  6  0  0  0
  7  5  1  0  0  0  0
  8 10  1  0  0  0  0
  8 21  1  1  0  0  0
  8  9  1  0  0  0  0
 11 13  1  0  0  0  0
 12  3  2  0  0  0  0
 12  2  1  0  0  0  0
 14 18  1  0  0  0  0
 14 25  1  6  0  0  0
 15 16  1  0  0  0  0
 16 13  2  0  0  0  0
 16  6  1  0  0  0  0
 17  7  1  0  0  0  0
 17  5  1  0  0  0  0
 20 21  2  0  0  0  0
 21 19  1  0  0  0  0
 22 23  1  0  0  0  0
 24 19  1  1  0  0  0
 24 22  1  0  0  0  0
 24 23  1  0  0  0  0
 25 26  1  0  0  0  0
 26 27  1  0  0  0  0
 27 31  1  0  0  0  0
 28 33  1  0  0  0  0
 28 32  1  0  0  0  0
 29 34  1  0  0  0  0
 30 28  2  0  0  0  0
 31 30  1  0  0  0  0
 31 29  2  0  0  0  0
 34 32  2  0  0  0  0
M  END
>  <MODEL>
6

>  <REMARK>
 VINA RESULT:      -6.7      3.251      5.800
  Name = 
  6 active torsions:
  status: ('A' for Active; 'I' for Inactive)
    1  A    between atoms: N_11  and  C_32
    2  A    between atoms: C_14  and  C_26
    3  A    between atoms: C_16  and  C_34
    4  A    between atoms: N_23  and  C_26
    5  A    between atoms: N_23  and  C_28
    6  A    between atoms: C_27  and  C_28
                            x       y       z     vdW  Elec       q    Type
                         _______ _______ _______ _____ _____    ______ ____

>  <TORSDO>
F 6

$$$$
=
 OpenBabel10222415123D

 34 40  0  0  1  0  0  0  0  0999 V2000
  193.2670  173.2350  136.1420 C   0  0  0  0  0  0  0  0  0  0  0  0
  195.4010  172.8240  135.9270 C   0  0  0  0  0  0  0  0  0  0  0  0
  193.5220  171.7850  136.1410 C   0  0  0  0  0  3  0  0  0  0  0  0
  196.6690  173.0600  136.0290 N   0  0  0  0  0  0  0  0  0  0  0  0
  191.1350  175.0070  136.7090 C   0  0  1  0  0  0  0  0  0  0  0  0
  193.7390  176.6280  136.3560 S   0  0  0  0  0  0  0  0  0  0  0  0
  190.5750  173.7580  136.8650 C   0  0  1  0  0  3  0  0  0  0  0  0
  189.6200  174.7650  134.8480 C   0  0  1  0  0  3  0  0  0  0  0  0
  190.6800  175.6790  135.4230 C   0  0  0  0  0  2  0  0  0  0  0  0
  189.7420  173.4650  135.6250 C   0  0  0  0  0  2  0  0  0  0  0  0
  197.1930  174.4390  136.0240 C   0  0  0  0  0  2  0  0  0  0  0  0
  194.7940  171.5440  136.0200 N   0  0  0  0  0  0  0  0  0  0  0  0
  196.1480  175.4660  136.2450 N   0  0  0  0  0  0  0  0  0  0  0  0
  191.4180  175.7840  138.0010 C   0  0  1  0  0  3  0  0  0  0  0  0
  194.4240  173.8590  135.9910 C   0  0  0  0  0  0  0  0  0  0  0  0
  194.8650  175.2430  136.1920 C   0  0  0  0  0  0  0  0  0  0  0  0
  192.0240  173.8370  136.4860 N   0  0  0  0  0  0  0  0  0  0  0  0
  193.1940  176.0970  138.3510 S   0  0  0  0  0  0  0  0  0  0  0  0
  188.1560  176.7490  135.3790 N   0  0  0  0  0  2  0  0  0  0  0  0
  187.2250  174.6600  134.9070 O   0  0  0  0  0  0  0  0  0  0  0  0
  188.2620  175.3680  135.0340 C   0  0  0  0  0  0  0  0  0  0  0  0
  186.4770  177.1690  136.9390 O   0  0  0  0  0  0  0  0  0  0  0  0
  187.0100  178.4360  136.6370 C   0  0  0  0  0  2  0  0  0  0  0  0
  186.8700  177.3870  135.6060 C   0  0  1  0  0  3  0  0  0  0  0  0
  190.6200  177.0770  138.0630 C   0  0  0  0  0  2  0  0  0  0  0  0
  189.3970  176.8730  138.8200 N   0  0  0  0  0  2  0  0  0  0  0  0
  189.3140  177.9420  139.8020 C   0  0  0  0  0  2  0  0  0  0  0  0
  188.3770  177.0480  143.3490 C   0  0  0  0  0  0  0  0  0  0  0  0
  190.4930  176.6960  141.6280 C   0  0  0  0  0  3  0  0  0  0  0  0
  188.2910  177.5630  142.0570 C   0  0  0  0  0  3  0  0  0  0  0  0
  189.3610  177.3790  141.1830 C   0  0  0  0  0  0  0  0  0  0  0  0
  189.4990  176.3840  143.7340 N   0  0  0  0  0  0  0  0  0  0  0  0
  187.2490  177.2220  144.3010 C   0  0  0  0  0  1  0  0  0  0  0  0
  190.5270  176.2150  142.8980 N   0  0  0  0  0  0  0  0  0  0  0  0
  1 17  1  0  0  0  0
  2 15  1  0  0  0  0
  2 12  1  0  0  0  0
  2  4  2  0  0  0  0
  3  1  1  0  0  0  0
  5  9  1  6  0  0  0
  5  7  1  0  0  0  0
  5 14  1  0  0  0  0
  6 18  1  0  0  0  0
  7 10  1  6  0  0  0
  8 21  1  1  0  0  0
  8  9  1  0  0  0  0
  8 10  1  0  0  0  0
 11  4  1  0  0  0  0
 11 13  1  0  0  0  0
 12  3  2  0  0  0  0
 14 25  1  6  0  0  0
 14 18  1  0  0  0  0
 15  1  2  0  0  0  0
 15 16  1  0  0  0  0
 16 13  2  0  0  0  0
 16  6  1  0  0  0  0
 17  5  1  0  0  0  0
 17  7  1  0  0  0  0
 20 21  2  0  0  0  0
 21 19  1  0  0  0  0
 23 22  1  0  0  0  0
 24 19  1  1  0  0  0
 24 23  1  0  0  0  0
 24 22  1  0  0  0  0
 25 26  1  0  0  0  0
 26 27  1  0  0  0  0
 27 31  1  0  0  0  0
 28 32  1  0  0  0  0
 28 33  1  0  0  0  0
 29 34  1  0  0  0  0
 30 28  2  0  0  0  0
 31 29  2  0  0  0  0
 31 30  1  0  0  0  0
 34 32  2  0  0  0  0
M  END
>  <MODEL>
7

>  <REMARK>
 VINA RESULT:      -6.6      4.311      7.368
  Name = 
  6 active torsions:
  status: ('A' for Active; 'I' for Inactive)
    1  A    between atoms: N_11  and  C_32
    2  A    between atoms: C_14  and  C_26
    3  A    between atoms: C_16  and  C_34
    4  A    between atoms: N_23  and  C_26
    5  A    between atoms: N_23  and  C_28
    6  A    between atoms: C_27  and  C_28
                            x       y       z     vdW  Elec       q    Type
                         _______ _______ _______ _____ _____    ______ ____

>  <TORSDO>
F 6

$$$$
=
 OpenBabel10222415123D

 34 40  0  0  1  0  0  0  0  0999 V2000
  184.7110  174.4380  137.0360 C   0  0  0  0  0  0  0  0  0  0  0  0
  186.1490  173.1810  135.9760 C   0  0  0  0  0  0  0  0  0  0  0  0
  184.5700  173.0290  137.4390 C   0  0  0  0  0  3  0  0  0  0  0  0
  187.2500  172.9060  135.3540 N   0  0  0  0  0  0  0  0  0  0  0  0
  183.7980  176.9800  137.8770 C   0  0  1  0  0  0  0  0  0  0  0  0
  185.9960  177.3440  135.7400 S   0  0  0  0  0  0  0  0  0  0  0  0
  183.1610  176.1030  138.7280 C   0  0  1  0  0  3  0  0  0  0  0  0
  181.4770  177.0490  137.2250 C   0  0  1  0  0  3  0  0  0  0  0  0
  182.8500  177.5480  136.8330 C   0  0  0  0  0  2  0  0  0  0  0  0
  181.7210  175.9600  138.2560 C   0  0  0  0  0  2  0  0  0  0  0  0
  187.9770  173.9400  134.5940 C   0  0  0  0  0  2  0  0  0  0  0  0
  185.4320  172.2840  136.8120 N   0  0  0  0  0  0  0  0  0  0  0  0
  187.5320  175.3190  134.9030 N   0  0  0  0  0  0  0  0  0  0  0  0
  184.9530  177.7870  138.4820 C   0  0  1  0  0  3  0  0  0  0  0  0
  185.6680  174.5140  136.1250 C   0  0  0  0  0  0  0  0  0  0  0  0
  186.4520  175.6190  135.5660 C   0  0  0  0  0  0  0  0  0  0  0  0
  184.0860  175.5330  137.6940 N   0  0  0  0  0  0  0  0  0  0  0  0
  186.6120  177.4210  137.7820 S   0  0  0  0  0  0  0  0  0  0  0  0
  181.0960  179.5120  137.6110 N   0  0  0  0  0  2  0  0  0  0  0  0
  179.6370  177.9170  138.4960 O   0  0  0  0  0  0  0  0  0  0  0  0
  180.6700  178.1650  137.8140 C   0  0  0  0  0  0  0  0  0  0  0  0
  180.8680  180.8870  139.4780 O   0  0  0  0  0  0  0  0  0  0  0  0
  181.3200  181.7430  138.4560 C   0  0  0  0  0  2  0  0  0  0  0  0
  180.3780  180.6380  138.1830 C   0  0  1  0  0  3  0  0  0  0  0  0
  184.6710  179.2810  138.4480 C   0  0  0  0  0  2  0  0  0  0  0  0
  184.3480  179.7580  139.7830 N   0  0  0  0  0  2  0  0  0  0  0  0
  185.0080  178.8710  140.7280 C   0  0  0  0  0  2  0  0  0  0  0  0
  184.2700  178.8150  144.4300 C   0  0  0  0  0  0  0  0  0  0  0  0
  182.8840  178.8550  142.0550 C   0  0  0  0  0  3  0  0  0  0  0  0
  184.9810  178.8430  143.2330 C   0  0  0  0  0  3  0  0  0  0  0  0
  184.2780  178.8700  142.0300 C   0  0  0  0  0  0  0  0  0  0  0  0
  182.9100  178.8080  144.4040 N   0  0  0  0  0  0  0  0  0  0  0  0
  184.9910  178.7930  145.7300 C   0  0  0  0  0  1  0  0  0  0  0  0
  182.2380  178.8270  143.2510 N   0  0  0  0  0  0  0  0  0  0  0  0
  1  3  1  0  0  0  0
  1 17  1  0  0  0  0
  2 15  1  0  0  0  0
  2 12  1  0  0  0  0
  4  2  2  0  0  0  0
  5  9  1  6  0  0  0
  5 14  1  0  0  0  0
  5  7  1  0  0  0  0
  6 18  1  0  0  0  0
  7 10  1  6  0  0  0
  8 21  1  1  0  0  0
  8 10  1  0  0  0  0
  9  8  1  0  0  0  0
 11 13  1  0  0  0  0
 11  4  1  0  0  0  0
 12  3  2  0  0  0  0
 13 16  2  0  0  0  0
 14 25  1  6  0  0  0
 15  1  2  0  0  0  0
 16  6  1  0  0  0  0
 16 15  1  0  0  0  0
 17  5  1  0  0  0  0
 17  7  1  0  0  0  0
 18 14  1  0  0  0  0
 19 21  1  0  0  0  0
 21 20  2  0  0  0  0
 23 22  1  0  0  0  0
 24 19  1  6  0  0  0
 24 23  1  0  0  0  0
 24 22  1  0  0  0  0
 25 26  1  0  0  0  0
 26 27  1  0  0  0  0
 27 31  1  0  0  0  0
 28 33  1  0  0  0  0
 29 34  1  0  0  0  0
 30 28  2  0  0  0  0
 31 29  2  0  0  0  0
 31 30  1  0  0  0  0
 32 28  1  0  0  0  0
 34 32  2  0  0  0  0
M  END
>  <MODEL>
8

>  <REMARK>
 VINA RESULT:      -6.6      5.021      7.224
  Name = 
  6 active torsions:
  status: ('A' for Active; 'I' for Inactive)
    1  A    between atoms: N_11  and  C_32
    2  A    between atoms: C_14  and  C_26
    3  A    between atoms: C_16  and  C_34
    4  A    between atoms: N_23  and  C_26
    5  A    between atoms: N_23  and  C_28
    6  A    between atoms: C_27  and  C_28
                            x       y       z     vdW  Elec       q    Type
                         _______ _______ _______ _____ _____    ______ ____

>  <TORSDO>
F 6

$$$$
=
 OpenBabel10222415123D

 34 40  0  0  1  0  0  0  0  0999 V2000
  191.1990  175.0580  137.4920 C   0  0  0  0  0  0  0  0  0  0  0  0
  193.1890  174.1690  137.3670 C   0  0  0  0  0  0  0  0  0  0  0  0
  191.1570  173.7880  136.7490 C   0  0  0  0  0  3  0  0  0  0  0  0
  194.4040  173.9260  137.7410 N   0  0  0  0  0  0  0  0  0  0  0  0
  189.3800  176.8990  138.6380 C   0  0  1  0  0  0  0  0  0  0  0  0
  192.2460  177.6030  139.5430 S   0  0  0  0  0  0  0  0  0  0  0  0
  188.5670  175.9680  138.0290 C   0  0  1  0  0  3  0  0  0  0  0  0
  188.4050  178.0540  136.7590 C   0  0  1  0  0  3  0  0  0  0  0  0
  189.4280  178.2060  137.8630 C   0  0  0  0  0  2  0  0  0  0  0  0
  188.0580  176.5760  136.7290 C   0  0  0  0  0  2  0  0  0  0  0  0
  195.1670  174.9020  138.5410 C   0  0  0  0  0  2  0  0  0  0  0  0
  192.3420  173.2570  136.6830 N   0  0  0  0  0  0  0  0  0  0  0  0
  194.3220  175.9620  139.1380 N   0  0  0  0  0  0  0  0  0  0  0  0
  189.4500  176.8340  140.1680 C   0  0  1  0  0  3  0  0  0  0  0  0
  192.4520  175.2900  137.8470 C   0  0  0  0  0  0  0  0  0  0  0  0
  193.0830  176.1960  138.8110 C   0  0  0  0  0  0  0  0  0  0  0  0
  190.0510  175.7700  137.9410 N   0  0  0  0  0  0  0  0  0  0  0  0
  191.0920  176.3790  140.8560 S   0  0  0  0  0  0  0  0  0  0  0  0
  186.2500  178.4010  138.0220 N   0  0  0  0  0  2  0  0  0  0  0  0
  186.9940  179.9710  136.4620 O   0  0  0  0  0  0  0  0  0  0  0  0
  187.1920  178.8780  137.0610 C   0  0  0  0  0  0  0  0  0  0  0  0
  183.9330  178.2680  138.2260 O   0  0  0  0  0  0  0  0  0  0  0  0
  184.3910  178.5430  139.5280 C   0  0  0  0  0  2  0  0  0  0  0  0
  185.0360  179.1340  138.3370 C   0  0  1  0  0  3  0  0  0  0  0  0
  188.9330  178.1120  140.8080 C   0  0  0  0  0  2  0  0  0  0  0  0
  189.0530  178.0300  142.2550 N   0  0  0  0  0  2  0  0  0  0  0  0
  187.8810  177.3220  142.7440 C   0  0  0  0  0  2  0  0  0  0  0  0
  188.7820  177.2380  146.4090 C   0  0  0  0  0  0  0  0  0  0  0  0
  186.5890  177.7780  144.8400 C   0  0  0  0  0  3  0  0  0  0  0  0
  188.9040  177.1520  145.0240 C   0  0  0  0  0  3  0  0  0  0  0  0
  187.7940  177.4320  144.2290 C   0  0  0  0  0  0  0  0  0  0  0  0
  187.5880  177.5860  146.9580 N   0  0  0  0  0  0  0  0  0  0  0  0
  189.9510  176.9530  147.2830 C   0  0  0  0  0  1  0  0  0  0  0  0
  186.5230  177.8470  146.1970 N   0  0  0  0  0  0  0  0  0  0  0  0
  1 15  2  0  0  0  0
  1 17  1  0  0  0  0
  2  4  2  0  0  0  0
  2 15  1  0  0  0  0
  3  1  1  0  0  0  0
  4 11  1  0  0  0  0
  5  9  1  6  0  0  0
  5 14  1  0  0  0  0
  6 18  1  0  0  0  0
  7 10  1  6  0  0  0
  7  5  1  0  0  0  0
  8 21  1  1  0  0  0
  8  9  1  0  0  0  0
 10  8  1  0  0  0  0
 11 13  1  0  0  0  0
 12  3  2  0  0  0  0
 12  2  1  0  0  0  0
 14 25  1  1  0  0  0
 14 18  1  0  0  0  0
 15 16  1  0  0  0  0
 16 13  2  0  0  0  0
 16  6  1  0  0  0  0
 17  7  1  0  0  0  0
 17  5  1  0  0  0  0
 20 21  2  0  0  0  0
 21 19  1  0  0  0  0
 22 24  1  0  0  0  0
 22 23  1  0  0  0  0
 24 19  1  6  0  0  0
 24 23  1  0  0  0  0
 25 26  1  0  0  0  0
 26 27  1  0  0  0  0
 27 31  1  0  0  0  0
 28 32  1  0  0  0  0
 28 33  1  0  0  0  0
 29 34  1  0  0  0  0
 30 28  2  0  0  0  0
 31 29  2  0  0  0  0
 31 30  1  0  0  0  0
 34 32  2  0  0  0  0
M  END
>  <MODEL>
9

>  <REMARK>
 VINA RESULT:      -6.5      3.305      5.903
  Name = 
  6 active torsions:
  status: ('A' for Active; 'I' for Inactive)
    1  A    between atoms: N_11  and  C_32
    2  A    between atoms: C_14  and  C_26
    3  A    between atoms: C_16  and  C_34
    4  A    between atoms: N_23  and  C_26
    5  A    between atoms: N_23  and  C_28
    6  A    between atoms: C_27  and  C_28
                            x       y       z     vdW  Elec       q    Type
                         _______ _______ _______ _____ _____    ______ ____

>  <TORSDO>
F 6

$$$$
