=
 OpenBabel10222420043D

 27 30  0  0  1  0  0  0  0  0999 V2000
  190.5200  176.9820  145.6330 C   0  0  1  0  0  0  0  0  0  0  0  0
  189.9220  177.7610  146.7980 C   0  0  0  0  0  2  0  0  0  0  0  0
  187.6360  177.5140  143.1590 C   0  0  0  0  0  3  0  0  0  0  0  0
  191.9230  177.0850  145.5730 O   0  0  0  0  0  0  0  0  0  0  0  0
  185.4850  178.2670  147.1040 Cl  0  0  0  0  0  0  0  0  0  0  0  0
  186.2830  177.8530  143.1830 C   0  0  0  0  0  3  0  0  0  0  0  0
  188.4410  177.4300  146.8960 C   0  0  0  0  0  2  0  0  0  0  0  0
  185.6450  178.0870  144.4000 C   0  0  0  0  0  3  0  0  0  0  0  0
  187.7180  177.6420  145.5890 C   0  0  0  0  0  0  0  0  0  0  0  0
  186.3510  177.9800  145.6010 C   0  0  0  0  0  0  0  0  0  0  0  0
  191.4000  175.8040  145.8610 C   0  0  1  0  0  3  0  0  0  0  0  0
  188.3670  177.4100  144.3480 C   0  0  0  0  0  0  0  0  0  0  0  0
  189.8400  177.0680  144.2620 C   0  0  1  0  0  3  0  0  0  0  0  0
  191.6300  175.4870  147.3300 C   0  0  0  0  0  2  0  0  0  0  0  0
  193.1200  176.0620  149.0230 C   0  0  0  0  0  1  0  0  0  0  0  0
  193.0400  175.6260  147.6410 N   0  0  0  0  0  2  0  0  0  0  0  0
  190.5590  177.9510  143.3340 N   0  0  0  0  0  0  0  0  0  0  0  0
  192.2000  177.5350  141.5190 C   0  0  0  0  0  3  0  0  0  0  0  0
  193.8250  177.1340  139.7450 N   0  0  0  0  0  1  0  0  0  0  0  0
  190.1630  176.9500  139.7380 C   0  0  0  0  0  0  0  0  0  0  0  0
  189.8480  177.2920  141.0550 C   0  0  0  0  0  3  0  0  0  0  0  0
  192.4780  177.1900  140.1960 C   0  0  0  0  0  0  0  0  0  0  0  0
  191.4620  176.9060  139.3390 N   0  0  0  0  0  0  0  0  0  0  0  0
  190.8730  177.5910  141.9670 C   0  0  0  0  0  0  0  0  0  0  0  0
  188.8860  176.5800  138.6020 Cl  0  0  0  0  0  0  0  0  0  0  0  0
  190.9580  179.1960  143.8470 C   0  0  0  0  0  0  0  0  0  0  0  0
  191.3020  180.2660  144.2880 C   0  0  0  0  0  3  0  0  0  0  0  0
  1 11  1  0  0  0  0
  1  2  1  1  0  0  0
  2  7  1  0  0  0  0
  3  6  2  0  0  0  0
  3 12  1  0  0  0  0
  4  1  1  0  0  0  0
  4 11  1  0  0  0  0
  6  8  1  0  0  0  0
  8 10  2  0  0  0  0
  9 10  1  0  0  0  0
  9  7  1  0  0  0  0
 10  5  1  0  0  0  0
 11 14  1  1  0  0  0
 12  9  2  0  0  0  0
 13 17  1  6  0  0  0
 13 12  1  0  0  0  0
 13  1  1  0  0  0  0
 14 16  1  0  0  0  0
 16 15  1  0  0  0  0
 17 26  1  0  0  0  0
 18 24  1  0  0  0  0
 19 22  1  0  0  0  0
 20 21  1  0  0  0  0
 21 24  2  0  0  0  0
 22 18  2  0  0  0  0
 23 20  2  0  0  0  0
 23 22  1  0  0  0  0
 24 17  1  0  0  0  0
 25 20  1  0  0  0  0
 26 27  3  0  0  0  0
M  END
>  <MODEL>
1

>  <REMARK>
 VINA RESULT:      -7.9      0.000      0.000
  Name = 
  5 active torsions:
  status: ('A' for Active; 'I' for Inactive)
    1  A    between atoms: C_13  and  N_27
    2  A    between atoms: C_18  and  N_27
    3  A    between atoms: N_21  and  C_25
    4  A    between atoms: C_23  and  C_25
    5  A    between atoms: C_26  and  N_27
                            x       y       z     vdW  Elec       q    Type
                         _______ _______ _______ _____ _____    ______ ____

>  <TORSDO>
F 5

$$$$
=
 OpenBabel10222420043D

 27 30  0  0  1  0  0  0  0  0999 V2000
  190.9450  176.4630  144.8230 C   0  0  1  0  0  0  0  0  0  0  0  0
  191.2070  177.0210  146.2160 C   0  0  0  0  0  2  0  0  0  0  0  0
  187.3170  177.6700  144.4880 C   0  0  0  0  0  3  0  0  0  0  0  0
  192.0880  176.4910  144.0020 O   0  0  0  0  0  0  0  0  0  0  0  0
  187.7880  177.7230  149.0190 Cl  0  0  0  0  0  0  0  0  0  0  0  0
  186.2690  178.0790  145.3120 C   0  0  0  0  0  3  0  0  0  0  0  0
  189.9800  176.7680  147.0800 C   0  0  0  0  0  2  0  0  0  0  0  0
  186.4350  178.0960  146.6960 C   0  0  0  0  0  3  0  0  0  0  0  0
  188.7150  177.2890  146.4460 C   0  0  0  0  0  0  0  0  0  0  0  0
  187.6470  177.7000  147.2670 C   0  0  0  0  0  0  0  0  0  0  0  0
  191.6000  175.2130  144.3540 C   0  0  1  0  0  3  0  0  0  0  0  0
  188.5450  177.2780  145.0370 C   0  0  0  0  0  0  0  0  0  0  0  0
  189.6590  176.8720  144.0950 C   0  0  1  0  0  3  0  0  0  0  0  0
  192.5270  174.5850  145.3820 C   0  0  0  0  0  2  0  0  0  0  0  0
  191.7330  172.5160  144.6680 C   0  0  0  0  0  1  0  0  0  0  0  0
  192.9450  173.2740  144.9210 N   0  0  0  0  0  2  0  0  0  0  0  0
  189.9000  177.8810  143.0550 N   0  0  0  0  0  0  0  0  0  0  0  0
  188.4000  178.2180  141.1060 C   0  0  0  0  0  3  0  0  0  0  0  0
  186.9140  178.5540  139.2020 N   0  0  0  0  0  1  0  0  0  0  0  0
  190.1020  176.7640  139.4770 C   0  0  0  0  0  0  0  0  0  0  0  0
  190.4300  176.9490  140.8220 C   0  0  0  0  0  3  0  0  0  0  0  0
  188.1050  178.0130  139.7580 C   0  0  0  0  0  0  0  0  0  0  0  0
  188.9550  177.2960  138.9760 N   0  0  0  0  0  0  0  0  0  0  0  0
  189.5740  177.6850  141.6580 C   0  0  0  0  0  0  0  0  0  0  0  0
  191.1670  175.8460  138.4370 Cl  0  0  0  0  0  0  0  0  0  0  0  0
  190.4930  179.0820  143.4820 C   0  0  0  0  0  0  0  0  0  0  0  0
  191.0010  180.1120  143.8500 C   0  0  0  0  0  3  0  0  0  0  0  0
  1  2  1  1  0  0  0
  2  7  1  0  0  0  0
  3 12  2  0  0  0  0
  3  6  1  0  0  0  0
  4 11  1  0  0  0  0
  4  1  1  0  0  0  0
  6  8  2  0  0  0  0
  8 10  1  0  0  0  0
  9  7  1  0  0  0  0
  9 10  2  0  0  0  0
 10  5  1  0  0  0  0
 11  1  1  0  0  0  0
 11 14  1  1  0  0  0
 12  9  1  0  0  0  0
 13 17  1  6  0  0  0
 13  1  1  0  0  0  0
 13 12  1  0  0  0  0
 15 16  1  0  0  0  0
 16 14  1  0  0  0  0
 17 26  1  0  0  0  0
 18 24  1  0  0  0  0
 19 22  1  0  0  0  0
 20 21  1  0  0  0  0
 21 24  2  0  0  0  0
 22 18  2  0  0  0  0
 23 20  2  0  0  0  0
 23 22  1  0  0  0  0
 24 17  1  0  0  0  0
 25 20  1  0  0  0  0
 26 27  3  0  0  0  0
M  END
>  <MODEL>
2

>  <REMARK>
 VINA RESULT:      -6.9      1.941      2.677
  Name = 
  5 active torsions:
  status: ('A' for Active; 'I' for Inactive)
    1  A    between atoms: C_13  and  N_27
    2  A    between atoms: C_18  and  N_27
    3  A    between atoms: N_21  and  C_25
    4  A    between atoms: C_23  and  C_25
    5  A    between atoms: C_26  and  N_27
                            x       y       z     vdW  Elec       q    Type
                         _______ _______ _______ _____ _____    ______ ____

>  <TORSDO>
F 5

$$$$
=
 OpenBabel10222420043D

 27 30  0  0  1  0  0  0  0  0999 V2000
  186.4030  177.4240  137.4050 C   0  0  1  0  0  0  0  0  0  0  0  0
  185.4450  177.4140  136.2210 C   0  0  0  0  0  2  0  0  0  0  0  0
  187.8690  173.9170  136.8750 C   0  0  0  0  0  3  0  0  0  0  0  0
  186.9340  178.7020  137.6650 O   0  0  0  0  0  0  0  0  0  0  0  0
  183.9460  173.5230  134.5940 Cl  0  0  0  0  0  0  0  0  0  0  0  0
  187.5360  172.7300  136.2260 C   0  0  0  0  0  3  0  0  0  0  0  0
  184.7800  176.0480  136.1460 C   0  0  0  0  0  2  0  0  0  0  0  0
  186.3340  172.6310  135.5260 C   0  0  0  0  0  3  0  0  0  0  0  0
  185.7820  174.9220  136.1240 C   0  0  0  0  0  0  0  0  0  0  0  0
  185.4550  173.7160  135.4750 C   0  0  0  0  0  0  0  0  0  0  0  0
  186.0820  178.1640  138.6550 C   0  0  1  0  0  3  0  0  0  0  0  0
  187.0090  175.0210  136.8300 C   0  0  0  0  0  0  0  0  0  0  0  0
  187.4340  176.2960  137.5280 C   0  0  1  0  0  3  0  0  0  0  0  0
  184.7440  178.8840  138.6130 C   0  0  0  0  0  2  0  0  0  0  0  0
  185.2070  178.9740  140.8930 C   0  0  0  0  0  1  0  0  0  0  0  0
  184.6000  179.7090  139.7980 N   0  0  0  0  0  2  0  0  0  0  0  0
  188.7820  176.7230  137.1290 N   0  0  0  0  0  0  0  0  0  0  0  0
  191.2130  176.6370  137.6200 C   0  0  0  0  0  3  0  0  0  0  0  0
  193.6060  176.5460  138.0860 N   0  0  0  0  0  1  0  0  0  0  0  0
  190.7520  177.2340  140.2830 C   0  0  0  0  0  0  0  0  0  0  0  0
  189.6710  177.1350  139.4040 C   0  0  0  0  0  3  0  0  0  0  0  0
  192.2690  176.7440  138.5260 C   0  0  0  0  0  0  0  0  0  0  0  0
  192.0190  177.0390  139.8300 N   0  0  0  0  0  0  0  0  0  0  0  0
  189.8940  176.8330  138.0500 C   0  0  0  0  0  0  0  0  0  0  0  0
  190.4740  177.6090  141.9690 Cl  0  0  0  0  0  0  0  0  0  0  0  0
  188.9530  177.0450  135.7720 C   0  0  0  0  0  0  0  0  0  0  0  0
  189.0990  177.3230  134.6070 C   0  0  0  0  0  3  0  0  0  0  0  0
  1  2  1  6  0  0  0
  1 13  1  0  0  0  0
  1  4  1  0  0  0  0
  1 11  1  0  0  0  0
  4 11  1  0  0  0  0
  5 10  1  0  0  0  0
  6  3  2  0  0  0  0
  7  2  1  0  0  0  0
  8  6  1  0  0  0  0
  9  7  1  0  0  0  0
  9 12  2  0  0  0  0
 10  8  2  0  0  0  0
 10  9  1  0  0  0  0
 11 14  1  6  0  0  0
 12  3  1  0  0  0  0
 12 13  1  0  0  0  0
 13 17  1  6  0  0  0
 14 16  1  0  0  0  0
 16 15  1  0  0  0  0
 17 24  1  0  0  0  0
 18 24  2  0  0  0  0
 18 22  1  0  0  0  0
 19 22  1  0  0  0  0
 20 25  1  0  0  0  0
 21 20  2  0  0  0  0
 22 23  2  0  0  0  0
 23 20  1  0  0  0  0
 24 21  1  0  0  0  0
 26 17  1  0  0  0  0
 27 26  3  0  0  0  0
M  END
>  <MODEL>
3

>  <REMARK>
 VINA RESULT:      -6.4      5.137      8.575
  Name = 
  5 active torsions:
  status: ('A' for Active; 'I' for Inactive)
    1  A    between atoms: C_13  and  N_27
    2  A    between atoms: C_18  and  N_27
    3  A    between atoms: N_21  and  C_25
    4  A    between atoms: C_23  and  C_25
    5  A    between atoms: C_26  and  N_27
                            x       y       z     vdW  Elec       q    Type
                         _______ _______ _______ _____ _____    ______ ____

>  <TORSDO>
F 5

$$$$
=
 OpenBabel10222420043D

 27 30  0  0  1  0  0  0  0  0999 V2000
  182.2740  177.0390  138.8210 C   0  0  1  0  0  0  0  0  0  0  0  0
  181.0020  176.8330  138.0080 C   0  0  0  0  0  2  0  0  0  0  0  0
  182.1830  180.8750  138.9030 C   0  0  0  0  0  3  0  0  0  0  0  0
  182.4830  176.0220  139.7710 O   0  0  0  0  0  0  0  0  0  0  0  0
  179.5470  180.0670  135.2760 Cl  0  0  0  0  0  0  0  0  0  0  0  0
  181.6010  181.9240  138.1930 C   0  0  0  0  0  3  0  0  0  0  0  0
  180.9680  177.8610  136.8880 C   0  0  0  0  0  2  0  0  0  0  0  0
  180.7910  181.6560  137.0910 C   0  0  0  0  0  3  0  0  0  0  0  0
  181.1410  179.2700  137.3970 C   0  0  0  0  0  0  0  0  0  0  0  0
  180.5610  180.3390  136.6860 C   0  0  0  0  0  0  0  0  0  0  0  0
  183.4200  176.0960  138.7160 C   0  0  1  0  0  3  0  0  0  0  0  0
  181.9600  179.5460  138.5220 C   0  0  0  0  0  0  0  0  0  0  0  0
  182.5940  178.4440  139.3450 C   0  0  1  0  0  3  0  0  0  0  0  0
  183.1810  174.9470  137.7500 C   0  0  0  0  0  2  0  0  0  0  0  0
  184.7900  173.2670  137.6520 C   0  0  0  0  0  1  0  0  0  0  0  0
  184.4360  174.5720  137.1250 N   0  0  0  0  0  2  0  0  0  0  0  0
  182.3030  178.5860  140.7780 N   0  0  0  0  0  0  0  0  0  0  0  0
  182.9940  178.8340  143.1490 C   0  0  0  0  0  3  0  0  0  0  0  0
  183.6570  179.0840  145.4830 N   0  0  0  0  0  1  0  0  0  0  0  0
  185.6520  178.4740  142.4680 C   0  0  0  0  0  0  0  0  0  0  0  0
  184.6770  178.4370  141.4700 C   0  0  0  0  0  3  0  0  0  0  0  0
  183.9950  178.8650  144.1190 C   0  0  0  0  0  0  0  0  0  0  0  0
  185.2950  178.6850  143.7630 N   0  0  0  0  0  0  0  0  0  0  0  0
  183.3250  178.6180  141.8030 C   0  0  0  0  0  0  0  0  0  0  0  0
  187.3370  178.2490  142.0510 Cl  0  0  0  0  0  0  0  0  0  0  0  0
  180.9450  178.6800  141.1280 C   0  0  0  0  0  0  0  0  0  0  0  0
  179.7800  178.7600  141.4300 C   0  0  0  0  0  3  0  0  0  0  0  0
  1  2  1  6  0  0  0
  1 13  1  0  0  0  0
  1  4  1  0  0  0  0
  5 10  1  0  0  0  0
  6  3  2  0  0  0  0
  7  9  1  0  0  0  0
  7  2  1  0  0  0  0
  8  6  1  0  0  0  0
  9 12  2  0  0  0  0
 10  8  2  0  0  0  0
 10  9  1  0  0  0  0
 11 14  1  6  0  0  0
 11  1  1  0  0  0  0
 11  4  1  0  0  0  0
 12  3  1  0  0  0  0
 12 13  1  0  0  0  0
 13 17  1  1  0  0  0
 16 15  1  0  0  0  0
 16 14  1  0  0  0  0
 17 26  1  0  0  0  0
 17 24  1  0  0  0  0
 18 22  1  0  0  0  0
 20 23  1  0  0  0  0
 21 24  1  0  0  0  0
 21 20  2  0  0  0  0
 22 19  1  0  0  0  0
 23 22  2  0  0  0  0
 24 18  2  0  0  0  0
 25 20  1  0  0  0  0
 26 27  3  0  0  0  0
M  END
>  <MODEL>
4

>  <REMARK>
 VINA RESULT:      -6.4      6.846     10.261
  Name = 
  5 active torsions:
  status: ('A' for Active; 'I' for Inactive)
    1  A    between atoms: C_13  and  N_27
    2  A    between atoms: C_18  and  N_27
    3  A    between atoms: N_21  and  C_25
    4  A    between atoms: C_23  and  C_25
    5  A    between atoms: C_26  and  N_27
                            x       y       z     vdW  Elec       q    Type
                         _______ _______ _______ _____ _____    ______ ____

>  <TORSDO>
F 5

$$$$
=
 OpenBabel10222420043D

 27 30  0  0  1  0  0  0  0  0999 V2000
  187.4130  177.8790  142.9230 C   0  0  1  0  0  0  0  0  0  0  0  0
  186.6030  177.1820  144.0090 C   0  0  0  0  0  2  0  0  0  0  0  0
  190.8050  177.7990  144.7160 C   0  0  0  0  0  3  0  0  0  0  0  0
  186.9590  177.5730  141.6260 O   0  0  0  0  0  0  0  0  0  0  0  0
  187.9870  177.3240  148.2640 Cl  0  0  0  0  0  0  0  0  0  0  0  0
  191.3020  177.6600  146.0120 C   0  0  0  0  0  3  0  0  0  0  0  0
  187.0380  177.7240  145.3630 C   0  0  0  0  0  2  0  0  0  0  0  0
  190.4240  177.5080  147.0830 C   0  0  0  0  0  3  0  0  0  0  0  0
  188.5290  177.6340  145.5660 C   0  0  0  0  0  0  0  0  0  0  0  0
  189.0430  177.4990  146.8700 C   0  0  0  0  0  0  0  0  0  0  0  0
  186.8020  178.9130  142.0460 C   0  0  1  0  0  3  0  0  0  0  0  0
  189.4260  177.7830  144.4760 C   0  0  0  0  0  0  0  0  0  0  0  0
  188.9410  177.9070  143.0470 C   0  0  1  0  0  3  0  0  0  0  0  0
  185.3350  179.1780  142.3420 C   0  0  0  0  0  2  0  0  0  0  0  0
  183.6290  178.3170  141.0120 C   0  0  0  0  0  1  0  0  0  0  0  0
  184.6170  179.3770  141.0970 N   0  0  0  0  0  2  0  0  0  0  0  0
  189.5940  176.9400  142.1540 N   0  0  0  0  0  0  0  0  0  0  0  0
  189.1400  178.1580  140.0410 C   0  0  0  0  0  3  0  0  0  0  0  0
  188.6800  179.3620  137.9700 N   0  0  0  0  0  1  0  0  0  0  0  0
  191.1290  176.7430  138.7350 C   0  0  0  0  0  0  0  0  0  0  0  0
  190.8760  176.4870  140.0840 C   0  0  0  0  0  3  0  0  0  0  0  0
  189.4210  178.3880  138.6930 C   0  0  0  0  0  0  0  0  0  0  0  0
  190.4030  177.6820  138.0720 N   0  0  0  0  0  0  0  0  0  0  0  0
  189.8700  177.1980  140.7570 C   0  0  0  0  0  0  0  0  0  0  0  0
  192.3830  175.8550  137.8970 Cl  0  0  0  0  0  0  0  0  0  0  0  0
  189.9390  175.7040  142.7280 C   0  0  0  0  0  0  0  0  0  0  0  0
  190.2360  174.6430  143.2190 C   0  0  0  0  0  3  0  0  0  0  0  0
  1 13  1  0  0  0  0
  1  2  1  1  0  0  0
  2  7  1  0  0  0  0
  3  6  1  0  0  0  0
  4 11  1  0  0  0  0
  4  1  1  0  0  0  0
  6  8  2  0  0  0  0
  7  9  1  0  0  0  0
  9 10  2  0  0  0  0
 10  8  1  0  0  0  0
 10  5  1  0  0  0  0
 11 14  1  1  0  0  0
 11  1  1  0  0  0  0
 12  3  2  0  0  0  0
 12  9  1  0  0  0  0
 13 17  1  6  0  0  0
 13 12  1  0  0  0  0
 15 16  1  0  0  0  0
 16 14  1  0  0  0  0
 17 26  1  0  0  0  0
 18 24  1  0  0  0  0
 19 22  1  0  0  0  0
 20 21  1  0  0  0  0
 21 24  2  0  0  0  0
 22 18  2  0  0  0  0
 23 22  1  0  0  0  0
 23 20  2  0  0  0  0
 24 17  1  0  0  0  0
 25 20  1  0  0  0  0
 26 27  3  0  0  0  0
M  END
>  <MODEL>
5

>  <REMARK>
 VINA RESULT:      -6.1      2.574      5.186
  Name = 
  5 active torsions:
  status: ('A' for Active; 'I' for Inactive)
    1  A    between atoms: C_13  and  N_27
    2  A    between atoms: C_18  and  N_27
    3  A    between atoms: N_21  and  C_25
    4  A    between atoms: C_23  and  C_25
    5  A    between atoms: C_26  and  N_27
                            x       y       z     vdW  Elec       q    Type
                         _______ _______ _______ _____ _____    ______ ____

>  <TORSDO>
F 5

$$$$
=
 OpenBabel10222420043D

 27 30  0  0  1  0  0  0  0  0999 V2000
  181.8420  179.2070  140.3270 C   0  0  1  0  0  0  0  0  0  0  0  0
  181.1400  178.8230  141.6240 C   0  0  0  0  0  2  0  0  0  0  0  0
  185.4110  178.3230  141.4260 C   0  0  0  0  0  3  0  0  0  0  0  0
  181.0550  178.9560  139.1880 O   0  0  0  0  0  0  0  0  0  0  0  0
  183.4080  178.8480  145.4830 Cl  0  0  0  0  0  0  0  0  0  0  0  0
  186.1280  178.1360  142.6080 C   0  0  0  0  0  3  0  0  0  0  0  0
  181.9810  179.3110  142.7950 C   0  0  0  0  0  2  0  0  0  0  0  0
  185.4940  178.2930  143.8390 C   0  0  0  0  0  3  0  0  0  0  0  0
  183.4080  178.8330  142.7140 C   0  0  0  0  0  0  0  0  0  0  0  0
  184.1440  178.6440  143.9000 C   0  0  0  0  0  0  0  0  0  0  0  0
  181.3350  180.3120  139.4700 C   0  0  1  0  0  3  0  0  0  0  0  0
  184.0540  178.6660  141.4610 C   0  0  0  0  0  0  0  0  0  0  0  0
  183.3170  178.8290  140.1490 C   0  0  1  0  0  3  0  0  0  0  0  0
  180.0830  180.9810  140.0130 C   0  0  0  0  0  2  0  0  0  0  0  0
  180.7090  182.3200  138.2140 C   0  0  0  0  0  1  0  0  0  0  0  0
  179.5790  181.9300  139.0370 N   0  0  0  0  0  2  0  0  0  0  0  0
  183.4950  177.6670  139.2660 N   0  0  0  0  0  0  0  0  0  0  0  0
  184.0270  177.0900  136.9120 C   0  0  0  0  0  3  0  0  0  0  0  0
  184.5360  176.5120  134.5980 N   0  0  0  0  0  1  0  0  0  0  0  0
  186.5680  178.1590  137.1680 C   0  0  0  0  0  0  0  0  0  0  0  0
  185.6970  178.1870  138.2590 C   0  0  0  0  0  3  0  0  0  0  0  0
  184.9230  177.0790  135.8430 C   0  0  0  0  0  0  0  0  0  0  0  0
  186.1660  177.6100  135.9910 N   0  0  0  0  0  0  0  0  0  0  0  0
  184.4060  177.6480  138.1410 C   0  0  0  0  0  0  0  0  0  0  0  0
  188.1770  178.8300  137.3160 Cl  0  0  0  0  0  0  0  0  0  0  0  0
  182.7070  176.5410  139.5590 C   0  0  0  0  0  0  0  0  0  0  0  0
  182.0310  175.5740  139.8110 C   0  0  0  0  0  3  0  0  0  0  0  0
  1  2  1  1  0  0  0
  2  7  1  0  0  0  0
  3 12  2  0  0  0  0
  3  6  1  0  0  0  0
  4 11  1  0  0  0  0
  4  1  1  0  0  0  0
  6  8  2  0  0  0  0
  8 10  1  0  0  0  0
  9  7  1  0  0  0  0
  9 10  2  0  0  0  0
 10  5  1  0  0  0  0
 11 14  1  1  0  0  0
 11  1  1  0  0  0  0
 12  9  1  0  0  0  0
 13 17  1  1  0  0  0
 13  1  1  0  0  0  0
 13 12  1  0  0  0  0
 15 16  1  0  0  0  0
 16 14  1  0  0  0  0
 17 26  1  0  0  0  0
 18 24  1  0  0  0  0
 19 22  1  0  0  0  0
 20 25  1  0  0  0  0
 20 21  1  0  0  0  0
 22 23  1  0  0  0  0
 22 18  2  0  0  0  0
 23 20  2  0  0  0  0
 24 21  2  0  0  0  0
 24 17  1  0  0  0  0
 26 27  3  0  0  0  0
M  END
>  <MODEL>
6

>  <REMARK>
 VINA RESULT:      -6.0      6.199      9.194
  Name = 
  5 active torsions:
  status: ('A' for Active; 'I' for Inactive)
    1  A    between atoms: C_13  and  N_27
    2  A    between atoms: C_18  and  N_27
    3  A    between atoms: N_21  and  C_25
    4  A    between atoms: C_23  and  C_25
    5  A    between atoms: C_26  and  N_27
                            x       y       z     vdW  Elec       q    Type
                         _______ _______ _______ _____ _____    ______ ____

>  <TORSDO>
F 5

$$$$
=
 OpenBabel10222420043D

 27 30  0  0  1  0  0  0  0  0999 V2000
  181.4790  179.1850  138.7440 C   0  0  1  0  0  0  0  0  0  0  0  0
  180.1870  178.9300  139.5100 C   0  0  0  0  0  2  0  0  0  0  0  0
  183.9060  178.4450  141.6240 C   0  0  0  0  0  3  0  0  0  0  0  0
  181.3910  178.8130  137.3900 O   0  0  0  0  0  0  0  0  0  0  0  0
  180.1070  179.3650  143.9650 Cl  0  0  0  0  0  0  0  0  0  0  0  0
  183.8910  178.3840  143.0170 C   0  0  0  0  0  3  0  0  0  0  0  0
  180.3150  179.5400  140.8980 C   0  0  0  0  0  2  0  0  0  0  0  0
  182.7160  178.6610  143.7150 C   0  0  0  0  0  3  0  0  0  0  0  0
  181.5510  179.0680  141.6200 C   0  0  0  0  0  0  0  0  0  0  0  0
  181.5500  179.0060  143.0280 C   0  0  0  0  0  0  0  0  0  0  0  0
  181.5460  180.1930  137.6530 C   0  0  1  0  0  3  0  0  0  0  0  0
  182.7470  178.7790  140.9120 C   0  0  0  0  0  0  0  0  0  0  0  0
  182.8110  178.8020  139.4000 C   0  0  1  0  0  3  0  0  0  0  0  0
  180.2270  180.9050  137.3960 C   0  0  0  0  0  2  0  0  0  0  0  0
  180.8050  183.1560  137.5310 C   0  0  0  0  0  1  0  0  0  0  0  0
  180.4660  182.0950  136.6010 N   0  0  0  0  0  2  0  0  0  0  0  0
  183.3690  177.5580  138.8510 N   0  0  0  0  0  0  0  0  0  0  0  0
  185.6940  178.2530  138.3340 C   0  0  0  0  0  3  0  0  0  0  0  0
  187.9790  178.9490  137.8390 N   0  0  0  0  0  1  0  0  0  0  0  0
  185.7140  176.6860  136.0520 C   0  0  0  0  0  0  0  0  0  0  0  0
  184.5700  176.7200  136.8530 C   0  0  0  0  0  3  0  0  0  0  0  0
  186.8190  178.1950  137.5110 C   0  0  0  0  0  0  0  0  0  0  0  0
  186.8070  177.4180  136.3950 N   0  0  0  0  0  0  0  0  0  0  0  0
  184.5490  177.5110  138.0130 C   0  0  0  0  0  0  0  0  0  0  0  0
  185.7390  175.7010  134.6070 Cl  0  0  0  0  0  0  0  0  0  0  0  0
  182.6790  176.3770  139.1690 C   0  0  0  0  0  0  0  0  0  0  0  0
  182.0870  175.3610  139.4430 C   0  0  0  0  0  3  0  0  0  0  0  0
  1 13  1  0  0  0  0
  1  2  1  1  0  0  0
  2  7  1  0  0  0  0
  3  6  1  0  0  0  0
  4 11  1  0  0  0  0
  4  1  1  0  0  0  0
  6  8  2  0  0  0  0
  7  9  1  0  0  0  0
  9 10  2  0  0  0  0
 10  8  1  0  0  0  0
 10  5  1  0  0  0  0
 11 14  1  1  0  0  0
 11  1  1  0  0  0  0
 12  9  1  0  0  0  0
 12  3  2  0  0  0  0
 13 17  1  6  0  0  0
 13 12  1  0  0  0  0
 16 14  1  0  0  0  0
 16 15  1  0  0  0  0
 17 26  1  0  0  0  0
 20 23  2  0  0  0  0
 20 21  1  0  0  0  0
 21 24  2  0  0  0  0
 22 19  1  0  0  0  0
 22 18  2  0  0  0  0
 23 22  1  0  0  0  0
 24 18  1  0  0  0  0
 24 17  1  0  0  0  0
 25 20  1  0  0  0  0
 26 27  3  0  0  0  0
M  END
>  <MODEL>
7

>  <REMARK>
 VINA RESULT:      -6.0      6.936      9.771
  Name = 
  5 active torsions:
  status: ('A' for Active; 'I' for Inactive)
    1  A    between atoms: C_13  and  N_27
    2  A    between atoms: C_18  and  N_27
    3  A    between atoms: N_21  and  C_25
    4  A    between atoms: C_23  and  C_25
    5  A    between atoms: C_26  and  N_27
                            x       y       z     vdW  Elec       q    Type
                         _______ _______ _______ _____ _____    ______ ____

>  <TORSDO>
F 5

$$$$
=
 OpenBabel10222420043D

 27 30  0  0  1  0  0  0  0  0999 V2000
  187.3150  178.1460  143.0040 C   0  0  1  0  0  0  0  0  0  0  0  0
  187.0700  179.1320  141.8690 C   0  0  0  0  0  2  0  0  0  0  0  0
  190.5390  176.5960  141.6140 C   0  0  0  0  0  3  0  0  0  0  0  0
  186.9020  178.6430  144.2540 O   0  0  0  0  0  0  0  0  0  0  0  0
  188.7390  178.3120  137.7970 Cl  0  0  0  0  0  0  0  0  0  0  0  0
  191.1990  176.4710  140.3920 C   0  0  0  0  0  3  0  0  0  0  0  0
  187.3620  178.4360  140.5480 C   0  0  0  0  0  2  0  0  0  0  0  0
  190.6360  177.0100  139.2360 C   0  0  0  0  0  3  0  0  0  0  0  0
  188.7330  177.8090  140.5200 C   0  0  0  0  0  0  0  0  0  0  0  0
  189.4070  177.6730  139.2920 C   0  0  0  0  0  0  0  0  0  0  0  0
  186.1870  177.5320  143.7530 C   0  0  1  0  0  3  0  0  0  0  0  0
  189.3120  177.2650  141.6960 C   0  0  0  0  0  0  0  0  0  0  0  0
  188.6530  177.3980  143.0530 C   0  0  1  0  0  3  0  0  0  0  0  0
  184.8170  177.9890  143.2790 C   0  0  0  0  0  2  0  0  0  0  0  0
  182.8230  179.0440  143.8560 C   0  0  0  0  0  1  0  0  0  0  0  0
  184.1290  178.6640  144.3630 N   0  0  0  0  0  2  0  0  0  0  0  0
  189.5670  177.9510  144.0610 N   0  0  0  0  0  0  0  0  0  0  0  0
  188.6850  177.4470  146.3250 C   0  0  0  0  0  3  0  0  0  0  0  0
  187.8050  176.9630  148.5480 N   0  0  0  0  0  1  0  0  0  0  0  0
  191.0790  176.2640  147.0540 C   0  0  0  0  0  0  0  0  0  0  0  0
  190.9370  176.7930  145.7690 C   0  0  0  0  0  3  0  0  0  0  0  0
  188.8630  176.9090  147.6000 C   0  0  0  0  0  0  0  0  0  0  0  0
  190.0470  176.3320  147.9360 N   0  0  0  0  0  0  0  0  0  0  0  0
  189.7270  177.3950  145.3880 C   0  0  0  0  0  0  0  0  0  0  0  0
  192.5880  175.5150  147.5280 Cl  0  0  0  0  0  0  0  0  0  0  0  0
  190.2970  179.0890  143.6770 C   0  0  0  0  0  0  0  0  0  0  0  0
  190.9230  180.0670  143.3490 C   0  0  0  0  0  3  0  0  0  0  0  0
  1  2  1  6  0  0  0
  1 13  1  0  0  0  0
  1 11  1  0  0  0  0
  1  4  1  0  0  0  0
  3 12  1  0  0  0  0
  5 10  1  0  0  0  0
  6  3  2  0  0  0  0
  7  2  1  0  0  0  0
  8 10  2  0  0  0  0
  8  6  1  0  0  0  0
  9  7  1  0  0  0  0
  9 12  2  0  0  0  0
 10  9  1  0  0  0  0
 11 14  1  6  0  0  0
 11  4  1  0  0  0  0
 12 13  1  0  0  0  0
 13 17  1  1  0  0  0
 14 16  1  0  0  0  0
 15 16  1  0  0  0  0
 17 24  1  0  0  0  0
 18 22  1  0  0  0  0
 20 25  1  0  0  0  0
 20 23  1  0  0  0  0
 21 20  2  0  0  0  0
 22 23  2  0  0  0  0
 22 19  1  0  0  0  0
 24 21  1  0  0  0  0
 24 18  2  0  0  0  0
 26 17  1  0  0  0  0
 27 26  3  0  0  0  0
M  END
>  <MODEL>
8

>  <REMARK>
 VINA RESULT:      -5.8      2.804      6.761
  Name = 
  5 active torsions:
  status: ('A' for Active; 'I' for Inactive)
    1  A    between atoms: C_13  and  N_27
    2  A    between atoms: C_18  and  N_27
    3  A    between atoms: N_21  and  C_25
    4  A    between atoms: C_23  and  C_25
    5  A    between atoms: C_26  and  N_27
                            x       y       z     vdW  Elec       q    Type
                         _______ _______ _______ _____ _____    ______ ____

>  <TORSDO>
F 5

$$$$
=
 OpenBabel10222420043D

 27 30  0  0  1  0  0  0  0  0999 V2000
  184.3320  178.5950  141.8380 C   0  0  1  0  0  0  0  0  0  0  0  0
  183.6250  179.5920  142.7470 C   0  0  0  0  0  2  0  0  0  0  0  0
  181.2150  177.3160  139.9990 C   0  0  0  0  0  3  0  0  0  0  0  0
  185.6150  179.0260  141.4510 O   0  0  0  0  0  0  0  0  0  0  0  0
  179.3080  179.0040  143.7760 Cl  0  0  0  0  0  0  0  0  0  0  0  0
  179.8340  177.2710  140.1850 C   0  0  0  0  0  3  0  0  0  0  0  0
  182.3430  178.9550  143.2640 C   0  0  0  0  0  2  0  0  0  0  0  0
  179.2690  177.8000  141.3440 C   0  0  0  0  0  3  0  0  0  0  0  0
  181.4750  178.4270  142.1500 C   0  0  0  0  0  0  0  0  0  0  0  0
  180.0790  178.3720  142.3280 C   0  0  0  0  0  0  0  0  0  0  0  0
  185.5610  177.8820  142.2790 C   0  0  1  0  0  3  0  0  0  0  0  0
  182.0470  177.8930  140.9670 C   0  0  0  0  0  0  0  0  0  0  0  0
  183.5370  177.9420  140.7010 C   0  0  1  0  0  3  0  0  0  0  0  0
  186.0130  178.2530  143.6810 C   0  0  0  0  0  2  0  0  0  0  0  0
  187.8130  176.8480  143.2240 C   0  0  0  0  0  1  0  0  0  0  0  0
  186.8210  177.1800  144.2300 N   0  0  0  0  0  2  0  0  0  0  0  0
  183.8470  178.5300  139.3910 N   0  0  0  0  0  0  0  0  0  0  0  0
  184.3760  176.7960  137.6960 C   0  0  0  0  0  3  0  0  0  0  0  0
  184.8820  175.0830  136.0350 N   0  0  0  0  0  1  0  0  0  0  0  0
  186.9000  177.8660  137.3110 C   0  0  0  0  0  0  0  0  0  0  0  0
  186.0350  178.4600  138.2320 C   0  0  0  0  0  3  0  0  0  0  0  0
  185.2660  176.2290  136.7840 C   0  0  0  0  0  0  0  0  0  0  0  0
  186.5010  176.7710  136.6100 N   0  0  0  0  0  0  0  0  0  0  0  0
  184.7520  177.9270  138.4350 C   0  0  0  0  0  0  0  0  0  0  0  0
  188.4980  178.5310  137.0580 Cl  0  0  0  0  0  0  0  0  0  0  0  0
  183.2180  179.7520  139.0960 C   0  0  0  0  0  0  0  0  0  0  0  0
  182.6780  180.8000  138.8430 C   0  0  0  0  0  3  0  0  0  0  0  0
  1 11  1  0  0  0  0
  1  2  1  1  0  0  0
  2  7  1  0  0  0  0
  3  6  2  0  0  0  0
  3 12  1  0  0  0  0
  4  1  1  0  0  0  0
  4 11  1  0  0  0  0
  6  8  1  0  0  0  0
  8 10  2  0  0  0  0
  9 10  1  0  0  0  0
  9  7  1  0  0  0  0
 10  5  1  0  0  0  0
 11 14  1  1  0  0  0
 12  9  2  0  0  0  0
 13 17  1  6  0  0  0
 13 12  1  0  0  0  0
 13  1  1  0  0  0  0
 14 16  1  0  0  0  0
 15 16  1  0  0  0  0
 18 24  1  0  0  0  0
 19 22  1  0  0  0  0
 20 21  1  0  0  0  0
 21 24  2  0  0  0  0
 22 18  2  0  0  0  0
 23 22  1  0  0  0  0
 23 20  2  0  0  0  0
 24 17  1  0  0  0  0
 25 20  1  0  0  0  0
 26 17  1  0  0  0  0
 27 26  3  0  0  0  0
M  END
>  <MODEL>
9

>  <REMARK>
 VINA RESULT:      -5.7      5.258      7.384
  Name = 
  5 active torsions:
  status: ('A' for Active; 'I' for Inactive)
    1  A    between atoms: C_13  and  N_27
    2  A    between atoms: C_18  and  N_27
    3  A    between atoms: N_21  and  C_25
    4  A    between atoms: C_23  and  C_25
    5  A    between atoms: C_26  and  N_27
                            x       y       z     vdW  Elec       q    Type
                         _______ _______ _______ _____ _____    ______ ____

>  <TORSDO>
F 5

$$$$
