=
 OpenBabel10222419493D

 50 58  0  0  1  0  0  0  0  0999 V2000
  188.1350  178.3630  139.4750 C   0  0  1  0  0  3  0  0  0  0  0  0
  182.9380  179.0420  140.0440 C   0  0  0  0  0  3  0  0  0  0  0  0
  185.9070  176.4880  137.2650 C   0  0  0  0  0  3  0  0  0  0  0  0
  180.5560  176.4240  138.7700 N   0  0  0  0  0  2  0  0  0  0  0  0
  185.2650  179.2270  139.2920 N   0  0  0  0  0  0  0  0  0  0  0  0
  183.9960  178.7810  139.1810 C   0  0  0  0  0  0  0  0  0  0  0  0
  187.2890  176.7760  137.7190 N   0  0  0  0  0  0  0  0  0  0  0  0
  182.7930  177.0160  138.0970 N   0  0  0  0  0  0  0  0  0  0  0  0
  181.7130  177.2530  138.9010 C   0  0  0  0  0  0  0  0  0  0  0  0
  183.8860  177.8120  138.2160 C   0  0  0  0  0  0  0  0  0  0  0  0
  185.9100  178.5470  138.3100 C   0  0  0  0  0  0  0  0  0  0  0  0
  185.1190  177.6910  137.6350 C   0  0  0  0  0  0  0  0  0  0  0  0
  187.2140  178.0150  138.3970 N   0  0  0  0  0  0  0  0  0  0  0  0
  181.7680  178.2760  139.8840 C   0  0  0  0  0  2  0  0  0  0  0  0
  179.3720  176.5810  139.6040 C   0  0  0  0  0  2  0  0  0  0  0  0
  179.1240  175.2920  140.3690 C   0  0  0  0  0  2  0  0  0  0  0  0
  180.2320  174.4710  140.2940 F   0  0  0  0  0  0  0  0  0  0  0  0
  187.3760  178.3650  141.7700 C   0  0  2  0  0  3  0  0  0  0  0  0
  187.8320  177.5590  140.7420 C   0  0  2  0  0  3  0  0  0  0  0  0
  190.1060  177.9630  142.4000 C   0  0  0  0  0  0  0  0  0  0  0  0
  188.8120  177.9520  141.8040 N   0  0  0  0  0  0  0  0  0  0  0  0
  191.0340  177.2760  141.8980 O   0  0  0  0  0  0  0  0  0  0  0  0
  186.5970  177.5460  142.7840 C   0  0  1  0  0  3  0  0  0  0  0  0
  186.0480  178.4500  143.8740 C   0  0  2  0  0  3  0  0  0  0  0  0
  185.1320  177.9530  142.7820 C   0  0  1  0  0  3  0  0  0  0  0  0
  184.9870  179.3670  143.3000 C   0  0  0  0  0  2  0  0  0  0  0  0
  190.3390  178.7530  143.6420 C   0  0  0  0  0  2  0  0  0  0  0  0
  191.8140  178.7510  143.9930 C   0  0  0  0  0  2  0  0  0  0  0  0
  191.9890  178.2440  145.3120 O   0  0  0  0  0  0  0  0  0  0  0  0
  191.6710  176.9250  145.6370 C   0  0  0  0  0  0  0  0  0  0  0  0
  191.7510  176.0060  144.7730 O   0  0  0  0  0  0  0  0  0  0  0  0
  191.2680  176.5970  147.0380 C   0  0  2  0  0  0  0  0  0  0  0  0
  192.2810  176.0440  147.9600 C   0  0  0  0  0  2  0  0  0  0  0  0
  191.3600  175.2150  147.2820 O   0  0  0  0  0  0  0  0  0  0  0  0
  189.9850  177.1700  147.6220 C   0  0  0  0  0  2  0  0  0  0  0  0
  188.8740  177.2030  146.5820 C   0  0  0  0  0  2  0  0  0  0  0  0
  187.8620  178.0520  148.3470 C   0  0  0  0  0  1  0  0  0  0  0  0
  187.6320  177.2720  147.2150 O   0  0  0  0  0  0  0  0  0  0  0  0
  189.5410  178.1290  139.0320 C   0  0  0  0  0  3  0  0  0  0  0  0
  189.9640  176.9180  138.6780 C   0  0  0  0  0  3  0  0  0  0  0  0
  191.3100  176.6910  138.2530 N   0  0  0  0  0  0  0  0  0  0  0  0
  192.4080  176.9270  138.9960 C   0  0  0  0  0  3  0  0  0  0  0  0
  191.7210  176.2000  137.0700 C   0  0  0  0  0  3  0  0  0  0  0  0
  193.0950  176.1580  137.1320 C   0  0  0  0  0  0  0  0  0  0  0  0
  193.5350  176.6010  138.3280 N   0  0  0  0  0  0  0  0  0  0  0  0
  193.7310  174.1580  135.8430 C   0  0  0  0  0  2  0  0  0  0  0  0
  193.9780  175.6280  136.0530 C   0  0  2  0  0  3  0  0  0  0  0  0
  195.1220  173.6310  135.7160 C   0  0  0  0  0  2  0  0  0  0  0  0
  195.3280  175.7800  136.4030 O   0  0  0  0  0  0  0  0  0  0  0  0
  195.9850  174.8020  135.7190 N   0  0  0  0  0  2  0  0  0  0  0  0
  1 39  1  6  0  0  0
  3 12  1  0  0  0  0
  3  7  2  0  0  0  0
  4  9  1  0  0  0  0
  4 15  1  0  0  0  0
  6  5  1  0  0  0  0
  6  2  2  0  0  0  0
  7 13  1  0  0  0  0
  8 10  1  0  0  0  0
  8  9  2  0  0  0  0
  9 14  1  0  0  0  0
 10  6  1  0  0  0  0
 11 13  1  0  0  0  0
 11  5  2  0  0  0  0
 12 10  2  0  0  0  0
 12 11  1  0  0  0  0
 13  1  1  0  0  0  0
 14  2  1  0  0  0  0
 15 16  1  0  0  0  0
 17 16  1  0  0  0  0
 18 21  1  1  0  0  0
 19  1  1  6  0  0  0
 19 18  1  0  0  0  0
 19 21  1  0  0  0  0
 20 27  1  0  0  0  0
 21 20  1  0  0  0  0
 22 20  2  0  0  0  0
 23 18  1  6  0  0  0
 23 24  1  0  0  0  0
 24 26  1  6  0  0  0
 25 23  1  0  0  0  0
 25 26  1  6  0  0  0
 25 24  1  0  0  0  0
 27 28  1  0  0  0  0
 28 29  1  0  0  0  0
 29 30  1  0  0  0  0
 30 32  1  0  0  0  0
 31 30  2  0  0  0  0
 32 34  1  0  0  0  0
 32 35  1  1  0  0  0
 32 33  1  0  0  0  0
 34 33  1  0  0  0  0
 36 38  1  0  0  0  0
 36 35  1  0  0  0  0
 38 37  1  0  0  0  0
 40 39  2  0  0  0  0
 41 40  1  0  0  0  0
 41 42  1  0  0  0  0
 43 44  2  0  0  0  0
 43 41  1  0  0  0  0
 44 45  1  0  0  0  0
 45 42  2  0  0  0  0
 46 47  1  0  0  0  0
 47 49  1  0  0  0  0
 47 44  1  1  0  0  0
 48 50  1  0  0  0  0
 48 46  1  0  0  0  0
 50 49  1  0  0  0  0
M  END
>  <MODEL>
1

>  <REMARK>
 VINA RESULT:      -7.9      0.000      0.000
  Name = 
  16 active torsions:
  status: ('A' for Active; 'I' for Inactive)
    1  A    between atoms: C_3  and  C_18
    2  A    between atoms: C_3  and  O_21
    3  A    between atoms: N_4  and  C_41
    4  A    between atoms: N_5  and  C_9
    5  A    between atoms: C_7  and  C_18
    6  A    between atoms: C_7  and  C_29
    7  A    between atoms: C_8  and  C_11
    8  A    between atoms: C_9  and  C_32
    9  A    between atoms: C_13  and  C_19
   10  A    between atoms: C_13  and  C_43
   11  A    between atoms: C_15  and  C_44
   12  A    between atoms: C_17  and  C_22
   13  A    between atoms: O_21  and  C_43
   14  A    between atoms: C_29  and  O_35
   15  A    between atoms: C_40  and  C_44
   16  A    between atoms: C_44  and  N_49
                            x       y       z     vdW  Elec       q    Type
                         _______ _______ _______ _____ _____    ______ ____

>  <TORSDO>
F 16

$$$$
=
 OpenBabel10222419493D

 50 58  0  0  1  0  0  0  0  0999 V2000
  189.7220  176.8890  139.7540 C   0  0  1  0  0  3  0  0  0  0  0  0
  187.4200  176.7050  144.4940 C   0  0  0  0  0  3  0  0  0  0  0  0
  191.7930  177.5420  142.6950 C   0  0  0  0  0  3  0  0  0  0  0  0
  189.0080  178.4610  147.4180 N   0  0  0  0  0  2  0  0  0  0  0  0
  188.6400  176.1200  142.4480 N   0  0  0  0  0  0  0  0  0  0  0  0
  188.5710  176.4930  143.7430 C   0  0  0  0  0  0  0  0  0  0  0  0
  191.6820  177.4680  141.2190 N   0  0  0  0  0  0  0  0  0  0  0  0
  189.9470  177.5580  145.3890 N   0  0  0  0  0  0  0  0  0  0  0  0
  188.8510  177.7640  146.1800 C   0  0  0  0  0  0  0  0  0  0  0  0
  189.7960  176.8860  144.2190 C   0  0  0  0  0  0  0  0  0  0  0  0
  189.9650  176.2320  142.1730 C   0  0  0  0  0  0  0  0  0  0  0  0
  190.6970  176.6820  143.2100 C   0  0  0  0  0  0  0  0  0  0  0  0
  190.5180  176.7050  140.9650 N   0  0  0  0  0  0  0  0  0  0  0  0
  187.5690  177.3320  145.7450 C   0  0  0  0  0  2  0  0  0  0  0  0
  187.8930  178.7530  148.3080 C   0  0  0  0  0  2  0  0  0  0  0  0
  187.8590  177.7210  149.4220 C   0  0  0  0  0  2  0  0  0  0  0  0
  187.7020  176.4540  148.8960 F   0  0  0  0  0  0  0  0  0  0  0  0
  187.6120  177.8840  140.3880 C   0  0  2  0  0  3  0  0  0  0  0  0
  188.8580  178.1490  139.8470 C   0  0  2  0  0  3  0  0  0  0  0  0
  187.1220  177.9880  137.6030 C   0  0  0  0  0  0  0  0  0  0  0  0
  187.7050  178.0110  138.9010 N   0  0  0  0  0  0  0  0  0  0  0  0
  187.8260  178.2550  136.5930 O   0  0  0  0  0  0  0  0  0  0  0  0
  186.9990  179.1500  140.9580 C   0  0  1  0  0  3  0  0  0  0  0  0
  185.4830  179.0700  140.8990 C   0  0  2  0  0  3  0  0  0  0  0  0
  186.1940  178.8330  142.2090 C   0  0  1  0  0  3  0  0  0  0  0  0
  184.9850  178.0000  141.8490 C   0  0  0  0  0  2  0  0  0  0  0  0
  185.6680  177.6920  137.4520 C   0  0  0  0  0  2  0  0  0  0  0  0
  185.4080  177.0210  136.1180 C   0  0  0  0  0  2  0  0  0  0  0  0
  184.2000  176.2700  136.1910 O   0  0  0  0  0  0  0  0  0  0  0  0
  183.9940  175.3110  137.1840 C   0  0  0  0  0  0  0  0  0  0  0  0
  184.8670  174.4310  137.4280 O   0  0  0  0  0  0  0  0  0  0  0  0
  182.7360  175.3560  137.9890 C   0  0  2  0  0  0  0  0  0  0  0  0
  181.6180  174.4670  137.6120 C   0  0  0  0  0  2  0  0  0  0  0  0
  181.6570  175.8220  137.2170 O   0  0  0  0  0  0  0  0  0  0  0  0
  182.7320  175.9880  139.3720 C   0  0  0  0  0  2  0  0  0  0  0  0
  182.3820  177.4680  139.3000 C   0  0  0  0  0  2  0  0  0  0  0  0
  181.3190  179.1640  140.2230 C   0  0  0  0  0  1  0  0  0  0  0  0
  181.4080  177.7740  140.2500 O   0  0  0  0  0  0  0  0  0  0  0  0
  190.6210  176.9590  138.5650 C   0  0  0  0  0  3  0  0  0  0  0  0
  190.9880  175.8620  137.9070 C   0  0  0  0  0  3  0  0  0  0  0  0
  191.8480  175.9260  136.7670 N   0  0  0  0  0  0  0  0  0  0  0  0
  191.4370  175.9350  135.4850 C   0  0  0  0  0  3  0  0  0  0  0  0
  193.1910  175.9990  136.7610 C   0  0  0  0  0  3  0  0  0  0  0  0
  193.5630  176.0460  135.4370 C   0  0  0  0  0  0  0  0  0  0  0  0
  192.4810  176.0150  134.6330 N   0  0  0  0  0  0  0  0  0  0  0  0
  195.7790  174.9760  135.3270 C   0  0  0  0  0  2  0  0  0  0  0  0
  194.9680  176.1870  134.9540 C   0  0  2  0  0  3  0  0  0  0  0  0
  197.0510  175.5960  135.8020 C   0  0  0  0  0  2  0  0  0  0  0  0
  195.5820  177.3010  135.5450 O   0  0  0  0  0  0  0  0  0  0  0  0
  196.9150  177.0200  135.5350 N   0  0  0  0  0  2  0  0  0  0  0  0
  1 39  1  6  0  0  0
  1 13  1  0  0  0  0
  2 14  1  0  0  0  0
  3 12  1  0  0  0  0
  4 15  1  0  0  0  0
  5  6  1  0  0  0  0
  6 10  1  0  0  0  0
  6  2  2  0  0  0  0
  7  3  2  0  0  0  0
  8  9  2  0  0  0  0
  9  4  1  0  0  0  0
 10  8  1  0  0  0  0
 11  5  2  0  0  0  0
 11 12  1  0  0  0  0
 12 10  2  0  0  0  0
 13  7  1  0  0  0  0
 13 11  1  0  0  0  0
 14  9  1  0  0  0  0
 15 16  1  0  0  0  0
 17 16  1  0  0  0  0
 18 21  1  6  0  0  0
 19  1  1  6  0  0  0
 19 18  1  0  0  0  0
 20 21  1  0  0  0  0
 21 19  1  0  0  0  0
 22 20  2  0  0  0  0
 23 18  1  6  0  0  0
 23 25  1  0  0  0  0
 24 23  1  0  0  0  0
 24 26  1  6  0  0  0
 24 25  1  0  0  0  0
 25 26  1  6  0  0  0
 27 20  1  0  0  0  0
 28 29  1  0  0  0  0
 28 27  1  0  0  0  0
 29 30  1  0  0  0  0
 30 31  2  0  0  0  0
 30 32  1  0  0  0  0
 32 35  1  1  0  0  0
 33 32  1  0  0  0  0
 34 33  1  0  0  0  0
 34 32  1  0  0  0  0
 36 35  1  0  0  0  0
 36 38  1  0  0  0  0
 37 38  1  0  0  0  0
 40 39  2  0  0  0  0
 41 40  1  0  0  0  0
 42 41  1  0  0  0  0
 43 41  1  0  0  0  0
 44 43  2  0  0  0  0
 45 44  1  0  0  0  0
 45 42  2  0  0  0  0
 46 48  1  0  0  0  0
 47 46  1  0  0  0  0
 47 44  1  1  0  0  0
 47 49  1  0  0  0  0
 50 49  1  0  0  0  0
 50 48  1  0  0  0  0
M  END
>  <MODEL>
2

>  <REMARK>
 VINA RESULT:      -7.3      4.001      7.762
  Name = 
  16 active torsions:
  status: ('A' for Active; 'I' for Inactive)
    1  A    between atoms: C_3  and  C_18
    2  A    between atoms: C_3  and  O_21
    3  A    between atoms: N_4  and  C_41
    4  A    between atoms: N_5  and  C_9
    5  A    between atoms: C_7  and  C_18
    6  A    between atoms: C_7  and  C_29
    7  A    between atoms: C_8  and  C_11
    8  A    between atoms: C_9  and  C_32
    9  A    between atoms: C_13  and  C_19
   10  A    between atoms: C_13  and  C_43
   11  A    between atoms: C_15  and  C_44
   12  A    between atoms: C_17  and  C_22
   13  A    between atoms: O_21  and  C_43
   14  A    between atoms: C_29  and  O_35
   15  A    between atoms: C_40  and  C_44
   16  A    between atoms: C_44  and  N_49
                            x       y       z     vdW  Elec       q    Type
                         _______ _______ _______ _____ _____    ______ ____

>  <TORSDO>
F 16

$$$$
=
 OpenBabel10222419493D

 50 58  0  0  1  0  0  0  0  0999 V2000
  190.0860  175.9350  137.3310 C   0  0  1  0  0  3  0  0  0  0  0  0
  189.5910  176.0880  142.5770 C   0  0  0  0  0  3  0  0  0  0  0  0
  188.0010  178.5640  138.7820 C   0  0  0  0  0  3  0  0  0  0  0  0
  186.6620  177.8640  144.1320 N   0  0  0  0  0  2  0  0  0  0  0  0
  190.3360  176.4790  140.2730 N   0  0  0  0  0  0  0  0  0  0  0  0
  189.6440  176.8020  141.3860 C   0  0  0  0  0  0  0  0  0  0  0  0
  188.5300  177.8960  137.5690 N   0  0  0  0  0  0  0  0  0  0  0  0
  187.7760  178.1640  142.0160 N   0  0  0  0  0  0  0  0  0  0  0  0
  187.7010  177.5120  143.2160 C   0  0  0  0  0  0  0  0  0  0  0  0
  188.7710  177.8350  141.1530 C   0  0  0  0  0  0  0  0  0  0  0  0
  189.9040  177.3990  139.3720 C   0  0  0  0  0  0  0  0  0  0  0  0
  188.9690  178.2360  139.8600 C   0  0  0  0  0  0  0  0  0  0  0  0
  189.6550  177.1570  138.0050 N   0  0  0  0  0  0  0  0  0  0  0  0
  188.6140  176.4670  143.5170 C   0  0  0  0  0  2  0  0  0  0  0  0
  186.4850  177.2030  145.4180 C   0  0  0  0  0  2  0  0  0  0  0  0
  187.0200  178.1010  146.5200 C   0  0  0  0  0  2  0  0  0  0  0  0
  188.2980  177.7140  146.8740 F   0  0  0  0  0  0  0  0  0  0  0  0
  188.0830  175.3710  136.1000 C   0  0  2  0  0  3  0  0  0  0  0  0
  189.3990  175.7820  135.9710 C   0  0  2  0  0  3  0  0  0  0  0  0
  189.4660  172.9890  135.4510 C   0  0  0  0  0  0  0  0  0  0  0  0
  189.0980  174.3320  135.7470 N   0  0  0  0  0  0  0  0  0  0  0  0
  190.6570  172.7160  135.1490 O   0  0  0  0  0  0  0  0  0  0  0  0
  187.2890  175.7340  134.8580 C   0  0  1  0  0  3  0  0  0  0  0  0
  185.8070  175.5010  135.0990 C   0  0  2  0  0  3  0  0  0  0  0  0
  186.3610  176.9040  135.1440 C   0  0  1  0  0  3  0  0  0  0  0  0
  185.2890  176.4870  136.1270 C   0  0  0  0  0  2  0  0  0  0  0  0
  188.4260  171.9210  135.4590 C   0  0  0  0  0  2  0  0  0  0  0  0
  187.4610  172.1390  136.6080 C   0  0  0  0  0  2  0  0  0  0  0  0
  186.1270  171.9350  136.1540 O   0  0  0  0  0  0  0  0  0  0  0  0
  185.0280  172.3990  136.8780 C   0  0  0  0  0  0  0  0  0  0  0  0
  185.1850  173.0460  137.9510 O   0  0  0  0  0  0  0  0  0  0  0  0
  183.6520  172.1550  136.3490 C   0  0  2  0  0  0  0  0  0  0  0  0
  182.9280  170.9420  136.7810 C   0  0  0  0  0  2  0  0  0  0  0  0
  183.6150  171.0000  135.5480 O   0  0  0  0  0  0  0  0  0  0  0  0
  182.8620  173.2880  135.7110 C   0  0  0  0  0  2  0  0  0  0  0  0
  182.4480  174.3230  136.7480 C   0  0  0  0  0  2  0  0  0  0  0  0
  180.2590  174.0630  136.7450 C   0  0  0  0  0  1  0  0  0  0  0  0
  181.3950  173.8280  137.5180 O   0  0  0  0  0  0  0  0  0  0  0  0
  191.5690  175.9460  137.1670 C   0  0  0  0  0  3  0  0  0  0  0  0
  192.3080  174.8810  137.4730 C   0  0  0  0  0  3  0  0  0  0  0  0
  193.7290  174.8880  137.3170 N   0  0  0  0  0  0  0  0  0  0  0  0
  194.3880  175.3400  136.2320 C   0  0  0  0  0  3  0  0  0  0  0  0
  194.6500  174.4680  138.2030 C   0  0  0  0  0  3  0  0  0  0  0  0
  195.8730  174.6790  137.6090 C   0  0  0  0  0  0  0  0  0  0  0  0
  195.7250  175.2290  136.3850 N   0  0  0  0  0  0  0  0  0  0  0  0
  197.0840  174.5550  139.7500 C   0  0  0  0  0  2  0  0  0  0  0  0
  197.1900  174.4070  138.2560 C   0  0  2  0  0  3  0  0  0  0  0  0
  198.3330  175.3090  140.0690 C   0  0  0  0  0  2  0  0  0  0  0  0
  198.1550  175.3220  137.8110 O   0  0  0  0  0  0  0  0  0  0  0  0
  199.0700  175.3920  138.8180 N   0  0  0  0  0  2  0  0  0  0  0  0
  1 39  1  6  0  0  0
  1 13  1  0  0  0  0
  2 14  1  0  0  0  0
  3 12  1  0  0  0  0
  4 15  1  0  0  0  0
  5  6  1  0  0  0  0
  6  2  2  0  0  0  0
  7 13  1  0  0  0  0
  7  3  2  0  0  0  0
  8  9  2  0  0  0  0
  9 14  1  0  0  0  0
  9  4  1  0  0  0  0
 10  6  1  0  0  0  0
 10  8  1  0  0  0  0
 11 12  1  0  0  0  0
 11  5  2  0  0  0  0
 12 10  2  0  0  0  0
 13 11  1  0  0  0  0
 15 16  1  0  0  0  0
 16 17  1  0  0  0  0
 18 21  1  6  0  0  0
 19 18  1  0  0  0  0
 19  1  1  1  0  0  0
 20 27  1  0  0  0  0
 20 21  1  0  0  0  0
 21 19  1  0  0  0  0
 22 20  2  0  0  0  0
 23 24  1  0  0  0  0
 23 25  1  0  0  0  0
 23 18  1  1  0  0  0
 24 25  1  0  0  0  0
 24 26  1  1  0  0  0
 25 26  1  1  0  0  0
 27 28  1  0  0  0  0
 29 28  1  0  0  0  0
 29 30  1  0  0  0  0
 30 31  2  0  0  0  0
 32 35  1  6  0  0  0
 32 33  1  0  0  0  0
 32 30  1  0  0  0  0
 34 32  1  0  0  0  0
 34 33  1  0  0  0  0
 35 36  1  0  0  0  0
 36 38  1  0  0  0  0
 37 38  1  0  0  0  0
 39 40  2  0  0  0  0
 41 40  1  0  0  0  0
 41 43  1  0  0  0  0
 42 45  2  0  0  0  0
 42 41  1  0  0  0  0
 44 43  2  0  0  0  0
 45 44  1  0  0  0  0
 46 48  1  0  0  0  0
 47 44  1  6  0  0  0
 47 46  1  0  0  0  0
 49 47  1  0  0  0  0
 49 50  1  0  0  0  0
 50 48  1  0  0  0  0
M  END
>  <MODEL>
3

>  <REMARK>
 VINA RESULT:      -7.0      4.566      8.347
  Name = 
  16 active torsions:
  status: ('A' for Active; 'I' for Inactive)
    1  A    between atoms: C_3  and  C_18
    2  A    between atoms: C_3  and  O_21
    3  A    between atoms: N_4  and  C_41
    4  A    between atoms: N_5  and  C_9
    5  A    between atoms: C_7  and  C_18
    6  A    between atoms: C_7  and  C_29
    7  A    between atoms: C_8  and  C_11
    8  A    between atoms: C_9  and  C_32
    9  A    between atoms: C_13  and  C_19
   10  A    between atoms: C_13  and  C_43
   11  A    between atoms: C_15  and  C_44
   12  A    between atoms: C_17  and  C_22
   13  A    between atoms: O_21  and  C_43
   14  A    between atoms: C_29  and  O_35
   15  A    between atoms: C_40  and  C_44
   16  A    between atoms: C_44  and  N_49
                            x       y       z     vdW  Elec       q    Type
                         _______ _______ _______ _____ _____    ______ ____

>  <TORSDO>
F 16

$$$$
=
 OpenBabel10222419493D

 50 58  0  0  1  0  0  0  0  0999 V2000
  190.1220  176.7490  139.9890 C   0  0  1  0  0  3  0  0  0  0  0  0
  187.3140  176.3990  144.4370 C   0  0  0  0  0  3  0  0  0  0  0  0
  191.7170  177.7850  143.1100 C   0  0  0  0  0  3  0  0  0  0  0  0
  188.2850  178.4580  147.4320 N   0  0  0  0  0  2  0  0  0  0  0  0
  188.8400  175.9250  142.5750 N   0  0  0  0  0  0  0  0  0  0  0  0
  188.5650  176.3280  143.8340 C   0  0  0  0  0  0  0  0  0  0  0  0
  191.7950  177.6470  141.6370 N   0  0  0  0  0  0  0  0  0  0  0  0
  189.5750  177.6300  145.5720 N   0  0  0  0  0  0  0  0  0  0  0  0
  188.3740  177.7050  146.2210 C   0  0  0  0  0  0  0  0  0  0  0  0
  189.6590  176.9050  144.4270 C   0  0  0  0  0  0  0  0  0  0  0  0
  190.1600  176.2130  142.4490 C   0  0  0  0  0  0  0  0  0  0  0  0
  190.6940  176.7970  143.5390 C   0  0  0  0  0  0  0  0  0  0  0  0
  190.7850  176.7200  141.2900 N   0  0  0  0  0  0  0  0  0  0  0  0
  187.2250  177.0830  145.6640 C   0  0  0  0  0  2  0  0  0  0  0  0
  187.0420  178.6190  148.1740 C   0  0  0  0  0  2  0  0  0  0  0  0
  186.3230  179.8620  147.6810 C   0  0  0  0  0  2  0  0  0  0  0  0
  185.6810  179.6010  146.4860 F   0  0  0  0  0  0  0  0  0  0  0  0
  187.9490  177.7500  140.3360 C   0  0  2  0  0  3  0  0  0  0  0  0
  189.2250  177.9820  139.8530 C   0  0  2  0  0  3  0  0  0  0  0  0
  187.6610  177.4720  137.5350 C   0  0  0  0  0  0  0  0  0  0  0  0
  188.1470  177.6830  138.8560 N   0  0  0  0  0  0  0  0  0  0  0  0
  188.4300  177.6270  136.5500 O   0  0  0  0  0  0  0  0  0  0  0  0
  187.2670  179.0590  140.6900 C   0  0  1  0  0  3  0  0  0  0  0  0
  185.7740  178.8400  140.8630 C   0  0  2  0  0  3  0  0  0  0  0  0
  186.6560  178.9810  142.0800 C   0  0  1  0  0  3  0  0  0  0  0  0
  185.5150  177.9880  142.0890 C   0  0  0  0  0  2  0  0  0  0  0  0
  186.2300  177.1110  137.3250 C   0  0  0  0  0  2  0  0  0  0  0  0
  185.3410  178.3000  137.6350 C   0  0  0  0  0  2  0  0  0  0  0  0
  184.0690  177.8390  138.0800 O   0  0  0  0  0  0  0  0  0  0  0  0
  183.3020  176.9570  137.3170 C   0  0  0  0  0  0  0  0  0  0  0  0
  183.1830  177.1140  136.0690 O   0  0  0  0  0  0  0  0  0  0  0  0
  182.6460  175.7940  137.9880 C   0  0  2  0  0  0  0  0  0  0  0  0
  181.4200  176.0280  138.7780 C   0  0  0  0  0  2  0  0  0  0  0  0
  182.6900  175.9260  139.3880 O   0  0  0  0  0  0  0  0  0  0  0  0
  182.9820  174.3730  137.5630 C   0  0  0  0  0  2  0  0  0  0  0  0
  184.4880  174.1590  137.4950 C   0  0  0  0  0  2  0  0  0  0  0  0
  183.8710  172.0780  137.1090 C   0  0  0  0  0  1  0  0  0  0  0  0
  184.7960  172.8390  137.8230 O   0  0  0  0  0  0  0  0  0  0  0  0
  191.1440  176.7260  138.9010 C   0  0  0  0  0  3  0  0  0  0  0  0
  191.3090  175.6550  138.1270 C   0  0  0  0  0  3  0  0  0  0  0  0
  192.2870  175.6300  137.0850 N   0  0  0  0  0  0  0  0  0  0  0  0
  192.0340  175.8440  135.7790 C   0  0  0  0  0  3  0  0  0  0  0  0
  193.6080  175.4060  137.2090 C   0  0  0  0  0  3  0  0  0  0  0  0
  194.1280  175.4890  135.9380 C   0  0  0  0  0  0  0  0  0  0  0  0
  193.1610  175.7680  135.0390 N   0  0  0  0  0  0  0  0  0  0  0  0
  196.2000  174.2330  136.3810 C   0  0  0  0  0  2  0  0  0  0  0  0
  195.5760  175.3600  135.6030 C   0  0  2  0  0  3  0  0  0  0  0  0
  197.4910  174.8430  136.8170 C   0  0  0  0  0  2  0  0  0  0  0  0
  196.2660  176.5340  135.9400 O   0  0  0  0  0  0  0  0  0  0  0  0
  197.5510  176.1410  136.1630 N   0  0  0  0  0  2  0  0  0  0  0  0
  1 39  1  6  0  0  0
  1 13  1  0  0  0  0
  2 14  1  0  0  0  0
  3 12  1  0  0  0  0
  4 15  1  0  0  0  0
  5  6  1  0  0  0  0
  6 10  1  0  0  0  0
  6  2  2  0  0  0  0
  7  3  2  0  0  0  0
  8  9  2  0  0  0  0
  9  4  1  0  0  0  0
 10  8  1  0  0  0  0
 11  5  2  0  0  0  0
 11 12  1  0  0  0  0
 12 10  2  0  0  0  0
 13  7  1  0  0  0  0
 13 11  1  0  0  0  0
 14  9  1  0  0  0  0
 16 15  1  0  0  0  0
 17 16  1  0  0  0  0
 18 21  1  6  0  0  0
 19  1  1  1  0  0  0
 19 18  1  0  0  0  0
 20 21  1  0  0  0  0
 21 19  1  0  0  0  0
 22 20  2  0  0  0  0
 23 18  1  1  0  0  0
 23 24  1  0  0  0  0
 23 25  1  0  0  0  0
 24 25  1  0  0  0  0
 24 26  1  1  0  0  0
 25 26  1  1  0  0  0
 27 20  1  0  0  0  0
 27 28  1  0  0  0  0
 28 29  1  0  0  0  0
 30 32  1  0  0  0  0
 30 29  1  0  0  0  0
 31 30  2  0  0  0  0
 32 35  1  6  0  0  0
 32 33  1  0  0  0  0
 32 34  1  0  0  0  0
 33 34  1  0  0  0  0
 36 35  1  0  0  0  0
 36 38  1  0  0  0  0
 37 38  1  0  0  0  0
 40 39  2  0  0  0  0
 41 43  1  0  0  0  0
 41 40  1  0  0  0  0
 42 41  1  0  0  0  0
 44 43  2  0  0  0  0
 45 42  2  0  0  0  0
 45 44  1  0  0  0  0
 46 48  1  0  0  0  0
 47 44  1  1  0  0  0
 47 49  1  0  0  0  0
 47 46  1  0  0  0  0
 49 50  1  0  0  0  0
 50 48  1  0  0  0  0
M  END
>  <MODEL>
4

>  <REMARK>
 VINA RESULT:      -7.0      3.874      7.723
  Name = 
  16 active torsions:
  status: ('A' for Active; 'I' for Inactive)
    1  A    between atoms: C_3  and  C_18
    2  A    between atoms: C_3  and  O_21
    3  A    between atoms: N_4  and  C_41
    4  A    between atoms: N_5  and  C_9
    5  A    between atoms: C_7  and  C_18
    6  A    between atoms: C_7  and  C_29
    7  A    between atoms: C_8  and  C_11
    8  A    between atoms: C_9  and  C_32
    9  A    between atoms: C_13  and  C_19
   10  A    between atoms: C_13  and  C_43
   11  A    between atoms: C_15  and  C_44
   12  A    between atoms: C_17  and  C_22
   13  A    between atoms: O_21  and  C_43
   14  A    between atoms: C_29  and  O_35
   15  A    between atoms: C_40  and  C_44
   16  A    between atoms: C_44  and  N_49
                            x       y       z     vdW  Elec       q    Type
                         _______ _______ _______ _____ _____    ______ ____

>  <TORSDO>
F 16

$$$$
=
 OpenBabel10222419493D

 50 58  0  0  1  0  0  0  0  0999 V2000
  187.9230  177.5970  139.0360 C   0  0  1  0  0  3  0  0  0  0  0  0
  184.6830  179.1230  142.9050 C   0  0  0  0  0  3  0  0  0  0  0  0
  184.3780  178.0070  138.2440 C   0  0  0  0  0  3  0  0  0  0  0  0
  180.9910  178.4550  142.6300 N   0  0  0  0  0  2  0  0  0  0  0  0
  186.2030  179.1070  140.9800 N   0  0  0  0  0  0  0  0  0  0  0  0
  184.9790  179.1530  141.5470 C   0  0  0  0  0  0  0  0  0  0  0  0
  185.7350  177.6120  137.7980 N   0  0  0  0  0  0  0  0  0  0  0  0
  182.6970  178.7300  140.9500 N   0  0  0  0  0  0  0  0  0  0  0  0
  182.3490  178.7220  142.2720 C   0  0  0  0  0  0  0  0  0  0  0  0
  183.9860  178.9950  140.6140 C   0  0  0  0  0  0  0  0  0  0  0  0
  185.9170  178.9880  139.6580 C   0  0  0  0  0  0  0  0  0  0  0  0
  184.5990  178.9230  139.3920 C   0  0  0  0  0  0  0  0  0  0  0  0
  186.6240  178.1930  138.7320 N   0  0  0  0  0  0  0  0  0  0  0  0
  183.3380  178.9260  143.2700 C   0  0  0  0  0  2  0  0  0  0  0  0
  180.5340  178.3950  144.0110 C   0  0  0  0  0  2  0  0  0  0  0  0
  179.2170  179.1400  144.1360 C   0  0  0  0  0  2  0  0  0  0  0  0
  179.2910  180.3540  143.4800 F   0  0  0  0  0  0  0  0  0  0  0  0
  189.1350  176.9110  137.0610 C   0  0  2  0  0  3  0  0  0  0  0  0
  188.9570  177.9460  137.9630 C   0  0  2  0  0  3  0  0  0  0  0  0
  191.3360  176.6500  138.8200 C   0  0  0  0  0  0  0  0  0  0  0  0
  190.1530  177.0630  138.1450 N   0  0  0  0  0  0  0  0  0  0  0  0
  191.7700  177.3190  139.7950 O   0  0  0  0  0  0  0  0  0  0  0  0
  189.7130  177.4340  135.7580 C   0  0  1  0  0  3  0  0  0  0  0  0
  190.6610  176.4100  135.1590 C   0  0  2  0  0  3  0  0  0  0  0  0
  189.2700  176.5620  134.5930 C   0  0  1  0  0  3  0  0  0  0  0  0
  189.8870  175.1860  134.7130 C   0  0  0  0  0  2  0  0  0  0  0  0
  192.0800  175.4500  138.3380 C   0  0  0  0  0  2  0  0  0  0  0  0
  193.3650  175.8730  137.6540 C   0  0  0  0  0  2  0  0  0  0  0  0
  194.4790  175.4540  138.4350 O   0  0  0  0  0  0  0  0  0  0  0  0
  195.1960  174.2970  138.1250 C   0  0  0  0  0  0  0  0  0  0  0  0
  195.0500  173.2420  138.8050 O   0  0  0  0  0  0  0  0  0  0  0  0
  196.1190  174.3040  136.9500 C   0  0  2  0  0  0  0  0  0  0  0  0
  197.5760  174.3510  137.1900 C   0  0  0  0  0  2  0  0  0  0  0  0
  196.8350  175.5120  136.8760 O   0  0  0  0  0  0  0  0  0  0  0  0
  195.6180  173.8820  135.5780 C   0  0  0  0  0  2  0  0  0  0  0  0
  194.2780  173.1650  135.6780 C   0  0  0  0  0  2  0  0  0  0  0  0
  193.7950  171.0550  136.0970 C   0  0  0  0  0  1  0  0  0  0  0  0
  194.3850  171.8810  135.1410 O   0  0  0  0  0  0  0  0  0  0  0  0
  188.3870  178.0600  140.3770 C   0  0  0  0  0  3  0  0  0  0  0  0
  188.7150  177.1940  141.3340 C   0  0  0  0  0  3  0  0  0  0  0  0
  189.1610  177.6340  142.6190 N   0  0  0  0  0  0  0  0  0  0  0  0
  190.3210  178.2750  142.8600 C   0  0  0  0  0  3  0  0  0  0  0  0
  188.5190  177.5050  143.7940 C   0  0  0  0  0  3  0  0  0  0  0  0
  189.3360  178.0840  144.7390 C   0  0  0  0  0  0  0  0  0  0  0  0
  190.4570  178.5740  144.1690 N   0  0  0  0  0  0  0  0  0  0  0  0
  189.5600  177.0630  146.9690 C   0  0  0  0  0  2  0  0  0  0  0  0
  188.9980  178.2180  146.1860 C   0  0  2  0  0  3  0  0  0  0  0  0
  188.4190  176.7250  147.8710 C   0  0  0  0  0  2  0  0  0  0  0  0
  187.6080  178.2130  146.3690 O   0  0  0  0  0  0  0  0  0  0  0  0
  187.4180  177.7530  147.6380 N   0  0  0  0  0  2  0  0  0  0  0  0
  1 39  1  1  0  0  0
  2 14  1  0  0  0  0
  3 12  1  0  0  0  0
  4 15  1  0  0  0  0
  5  6  1  0  0  0  0
  6  2  2  0  0  0  0
  7  3  2  0  0  0  0
  7 13  1  0  0  0  0
  8  9  2  0  0  0  0
  9  4  1  0  0  0  0
  9 14  1  0  0  0  0
 10  8  1  0  0  0  0
 10  6  1  0  0  0  0
 11  5  2  0  0  0  0
 12 11  1  0  0  0  0
 12 10  2  0  0  0  0
 13  1  1  0  0  0  0
 13 11  1  0  0  0  0
 15 16  1  0  0  0  0
 17 16  1  0  0  0  0
 18 19  1  0  0  0  0
 18 21  1  1  0  0  0
 19 21  1  0  0  0  0
 19  1  1  1  0  0  0
 20 22  2  0  0  0  0
 21 20  1  0  0  0  0
 23 18  1  1  0  0  0
 24 26  1  1  0  0  0
 24 23  1  0  0  0  0
 25 26  1  1  0  0  0
 25 24  1  0  0  0  0
 25 23  1  0  0  0  0
 27 20  1  0  0  0  0
 28 27  1  0  0  0  0
 28 29  1  0  0  0  0
 30 29  1  0  0  0  0
 30 31  2  0  0  0  0
 32 35  1  6  0  0  0
 32 33  1  0  0  0  0
 32 30  1  0  0  0  0
 34 32  1  0  0  0  0
 34 33  1  0  0  0  0
 35 36  1  0  0  0  0
 38 36  1  0  0  0  0
 38 37  1  0  0  0  0
 39 40  2  0  0  0  0
 40 41  1  0  0  0  0
 41 42  1  0  0  0  0
 41 43  1  0  0  0  0
 42 45  2  0  0  0  0
 43 44  2  0  0  0  0
 45 44  1  0  0  0  0
 46 48  1  0  0  0  0
 47 44  1  6  0  0  0
 47 49  1  0  0  0  0
 47 46  1  0  0  0  0
 49 50  1  0  0  0  0
 50 48  1  0  0  0  0
M  END
>  <MODEL>
5

>  <REMARK>
 VINA RESULT:      -6.7      2.598      8.072
  Name = 
  16 active torsions:
  status: ('A' for Active; 'I' for Inactive)
    1  A    between atoms: C_3  and  C_18
    2  A    between atoms: C_3  and  O_21
    3  A    between atoms: N_4  and  C_41
    4  A    between atoms: N_5  and  C_9
    5  A    between atoms: C_7  and  C_18
    6  A    between atoms: C_7  and  C_29
    7  A    between atoms: C_8  and  C_11
    8  A    between atoms: C_9  and  C_32
    9  A    between atoms: C_13  and  C_19
   10  A    between atoms: C_13  and  C_43
   11  A    between atoms: C_15  and  C_44
   12  A    between atoms: C_17  and  C_22
   13  A    between atoms: O_21  and  C_43
   14  A    between atoms: C_29  and  O_35
   15  A    between atoms: C_40  and  C_44
   16  A    between atoms: C_44  and  N_49
                            x       y       z     vdW  Elec       q    Type
                         _______ _______ _______ _____ _____    ______ ____

>  <TORSDO>
F 16

$$$$
=
 OpenBabel10222419493D

 50 58  0  0  1  0  0  0  0  0999 V2000
  183.7620  178.2070  139.0330 C   0  0  1  0  0  3  0  0  0  0  0  0
  188.6460  178.0890  141.0150 C   0  0  0  0  0  3  0  0  0  0  0  0
  184.1390  178.2500  142.6680 C   0  0  0  0  0  3  0  0  0  0  0  0
  189.2040  176.9450  144.5550 N   0  0  0  0  0  2  0  0  0  0  0  0
  186.4690  178.8380  140.1680 N   0  0  0  0  0  0  0  0  0  0  0  0
  187.3360  178.5340  141.1570 C   0  0  0  0  0  0  0  0  0  0  0  0
  183.2390  178.2110  141.4920 N   0  0  0  0  0  0  0  0  0  0  0  0
  187.2890  177.9340  143.4750 N   0  0  0  0  0  0  0  0  0  0  0  0
  188.5870  177.5110  143.3970 C   0  0  0  0  0  0  0  0  0  0  0  0
  186.7100  178.4810  142.3760 C   0  0  0  0  0  0  0  0  0  0  0  0
  185.3060  179.0400  140.8390 C   0  0  0  0  0  0  0  0  0  0  0  0
  185.4070  178.8420  142.1670 C   0  0  0  0  0  0  0  0  0  0  0  0
  184.0240  178.6490  140.4000 N   0  0  0  0  0  0  0  0  0  0  0  0
  189.2870  177.5900  142.1640 C   0  0  0  0  0  2  0  0  0  0  0  0
  190.5690  176.4400  144.5570 C   0  0  0  0  0  2  0  0  0  0  0  0
  191.2330  176.7950  145.8760 C   0  0  0  0  0  2  0  0  0  0  0  0
  190.3430  176.6250  146.9190 F   0  0  0  0  0  0  0  0  0  0  0  0
  181.8150  179.6190  138.7930 C   0  0  2  0  0  3  0  0  0  0  0  0
  183.0360  179.2890  138.2310 C   0  0  2  0  0  3  0  0  0  0  0  0
  181.1250  177.8650  136.6810 C   0  0  0  0  0  0  0  0  0  0  0  0
  181.8060  178.6900  137.6210 N   0  0  0  0  0  0  0  0  0  0  0  0
  181.7730  177.2870  135.7700 O   0  0  0  0  0  0  0  0  0  0  0  0
  181.3750  180.9990  138.3390 C   0  0  1  0  0  3  0  0  0  0  0  0
  179.8780  181.0120  138.0820 C   0  0  2  0  0  3  0  0  0  0  0  0
  180.4250  181.6140  139.3540 C   0  0  1  0  0  3  0  0  0  0  0  0
  179.1280  180.8350  139.3870 C   0  0  0  0  0  2  0  0  0  0  0  0
  179.6430  177.7290  136.7570 C   0  0  0  0  0  2  0  0  0  0  0  0
  179.2680  176.3100  137.1370 C   0  0  0  0  0  2  0  0  0  0  0  0
  180.1170  175.8590  138.1870 O   0  0  0  0  0  0  0  0  0  0  0  0
  180.2140  174.5070  138.5200 C   0  0  0  0  0  0  0  0  0  0  0  0
  180.0020  174.1120  139.7010 O   0  0  0  0  0  0  0  0  0  0  0  0
  180.5390  173.5150  137.4500 C   0  0  2  0  0  0  0  0  0  0  0  0
  179.4940  172.5620  137.0220 C   0  0  0  0  0  2  0  0  0  0  0  0
  180.4980  172.2010  137.9480 O   0  0  0  0  0  0  0  0  0  0  0  0
  181.7500  173.7220  136.5530 C   0  0  0  0  0  2  0  0  0  0  0  0
  183.0040  173.9880  137.3740 C   0  0  0  0  0  2  0  0  0  0  0  0
  185.0840  173.2860  137.5790 C   0  0  0  0  0  1  0  0  0  0  0  0
  184.1380  173.6640  136.6280 O   0  0  0  0  0  0  0  0  0  0  0  0
  185.0460  177.8370  138.3680 C   0  0  0  0  0  3  0  0  0  0  0  0
  185.0700  177.0520  137.2930 C   0  0  0  0  0  3  0  0  0  0  0  0
  186.2980  176.6970  136.6540 N   0  0  0  0  0  0  0  0  0  0  0  0
  186.5040  176.6860  135.3230 C   0  0  0  0  0  3  0  0  0  0  0  0
  187.4500  176.3300  137.2440 C   0  0  0  0  0  3  0  0  0  0  0  0
  188.3420  176.0960  136.2220 C   0  0  0  0  0  0  0  0  0  0  0  0
  187.7690  176.3210  135.0220 N   0  0  0  0  0  0  0  0  0  0  0  0
  190.0180  174.3160  135.9190 C   0  0  0  0  0  2  0  0  0  0  0  0
  189.7720  175.7160  136.4140 C   0  0  2  0  0  3  0  0  0  0  0  0
  190.8730  173.7550  137.0070 C   0  0  0  0  0  2  0  0  0  0  0  0
  190.1110  175.7450  137.7750 O   0  0  0  0  0  0  0  0  0  0  0  0
  191.1460  174.8680  137.9030 N   0  0  0  0  0  2  0  0  0  0  0  0
  1 39  1  6  0  0  0
  1 13  1  0  0  0  0
  2  6  2  0  0  0  0
  2 14  1  0  0  0  0
  4 15  1  0  0  0  0
  5 11  2  0  0  0  0
  5  6  1  0  0  0  0
  6 10  1  0  0  0  0
  7  3  2  0  0  0  0
  9  8  2  0  0  0  0
  9  4  1  0  0  0  0
 10  8  1  0  0  0  0
 11 12  1  0  0  0  0
 12 10  2  0  0  0  0
 12  3  1  0  0  0  0
 13 11  1  0  0  0  0
 13  7  1  0  0  0  0
 14  9  1  0  0  0  0
 15 16  1  0  0  0  0
 16 17  1  0  0  0  0
 18 21  1  6  0  0  0
 19 18  1  0  0  0  0
 19  1  1  1  0  0  0
 20 27  1  0  0  0  0
 20 21  1  0  0  0  0
 21 19  1  0  0  0  0
 22 20  2  0  0  0  0
 23 18  1  1  0  0  0
 23 25  1  0  0  0  0
 24 23  1  0  0  0  0
 24 25  1  0  0  0  0
 24 26  1  1  0  0  0
 25 26  1  1  0  0  0
 27 28  1  0  0  0  0
 28 29  1  0  0  0  0
 29 30  1  0  0  0  0
 30 31  2  0  0  0  0
 32 35  1  6  0  0  0
 32 34  1  0  0  0  0
 32 30  1  0  0  0  0
 33 32  1  0  0  0  0
 33 34  1  0  0  0  0
 35 36  1  0  0  0  0
 38 36  1  0  0  0  0
 38 37  1  0  0  0  0
 40 39  2  0  0  0  0
 41 43  1  0  0  0  0
 41 40  1  0  0  0  0
 42 41  1  0  0  0  0
 44 43  2  0  0  0  0
 45 42  2  0  0  0  0
 45 44  1  0  0  0  0
 46 47  1  0  0  0  0
 46 48  1  0  0  0  0
 47 44  1  1  0  0  0
 47 49  1  0  0  0  0
 48 50  1  0  0  0  0
 49 50  1  0  0  0  0
M  END
>  <MODEL>
6

>  <REMARK>
 VINA RESULT:      -6.6      4.582      9.138
  Name = 
  16 active torsions:
  status: ('A' for Active; 'I' for Inactive)
    1  A    between atoms: C_3  and  C_18
    2  A    between atoms: C_3  and  O_21
    3  A    between atoms: N_4  and  C_41
    4  A    between atoms: N_5  and  C_9
    5  A    between atoms: C_7  and  C_18
    6  A    between atoms: C_7  and  C_29
    7  A    between atoms: C_8  and  C_11
    8  A    between atoms: C_9  and  C_32
    9  A    between atoms: C_13  and  C_19
   10  A    between atoms: C_13  and  C_43
   11  A    between atoms: C_15  and  C_44
   12  A    between atoms: C_17  and  C_22
   13  A    between atoms: O_21  and  C_43
   14  A    between atoms: C_29  and  O_35
   15  A    between atoms: C_40  and  C_44
   16  A    between atoms: C_44  and  N_49
                            x       y       z     vdW  Elec       q    Type
                         _______ _______ _______ _____ _____    ______ ____

>  <TORSDO>
F 16

$$$$
=
 OpenBabel10222419493D

 50 58  0  0  1  0  0  0  0  0999 V2000
  190.1110  178.0440  138.8820 C   0  0  1  0  0  3  0  0  0  0  0  0
  187.2380  177.2030  143.2210 C   0  0  0  0  0  3  0  0  0  0  0  0
  191.8660  177.0920  141.9440 C   0  0  0  0  0  3  0  0  0  0  0  0
  188.8590  177.4030  146.6100 N   0  0  0  0  0  2  0  0  0  0  0  0
  188.4990  176.8960  141.1390 N   0  0  0  0  0  0  0  0  0  0  0  0
  188.3670  176.8680  142.4830 C   0  0  0  0  0  0  0  0  0  0  0  0
  191.9380  177.5010  140.5210 N   0  0  0  0  0  0  0  0  0  0  0  0
  189.7590  176.8950  144.4320 N   0  0  0  0  0  0  0  0  0  0  0  0
  188.6740  177.1950  145.2080 C   0  0  0  0  0  0  0  0  0  0  0  0
  189.5770  176.6880  143.1030 C   0  0  0  0  0  0  0  0  0  0  0  0
  189.8230  176.6550  140.9620 C   0  0  0  0  0  0  0  0  0  0  0  0
  190.5070  176.5170  142.1140 C   0  0  0  0  0  0  0  0  0  0  0  0
  190.6480  177.2630  139.9930 N   0  0  0  0  0  0  0  0  0  0  0  0
  187.3930  177.3470  144.6120 C   0  0  0  0  0  2  0  0  0  0  0  0
  187.7690  177.7570  147.5070 C   0  0  0  0  0  2  0  0  0  0  0  0
  188.3440  178.2510  148.8240 C   0  0  0  0  0  2  0  0  0  0  0  0
  189.7240  178.2540  148.7710 F   0  0  0  0  0  0  0  0  0  0  0  0
  190.0880  175.9630  137.6530 C   0  0  2  0  0  3  0  0  0  0  0  0
  190.3200  177.3240  137.5480 C   0  0  2  0  0  3  0  0  0  0  0  0
  192.9080  176.1680  137.7600 C   0  0  0  0  0  0  0  0  0  0  0  0
  191.5100  176.4220  137.6710 N   0  0  0  0  0  0  0  0  0  0  0  0
  193.7270  177.1170  137.6490 O   0  0  0  0  0  0  0  0  0  0  0  0
  189.7720  175.3700  136.2910 C   0  0  1  0  0  3  0  0  0  0  0  0
  189.8920  173.8570  136.3400 C   0  0  2  0  0  3  0  0  0  0  0  0
  188.5270  174.5000  136.3670 C   0  0  1  0  0  3  0  0  0  0  0  0
  188.8000  173.2790  137.2170 C   0  0  0  0  0  2  0  0  0  0  0  0
  193.3930  174.7700  137.9410 C   0  0  0  0  0  2  0  0  0  0  0  0
  193.6560  174.1300  136.5920 C   0  0  0  0  0  2  0  0  0  0  0  0
  194.7470  173.2220  136.7010 O   0  0  0  0  0  0  0  0  0  0  0  0
  195.9060  173.3760  135.9380 C   0  0  0  0  0  0  0  0  0  0  0  0
  196.0770  172.7120  134.8770 O   0  0  0  0  0  0  0  0  0  0  0  0
  196.9370  174.3660  136.3720 C   0  0  2  0  0  0  0  0  0  0  0  0
  196.8640  175.7460  135.8480 C   0  0  0  0  0  2  0  0  0  0  0  0
  197.7300  174.7810  135.2870 O   0  0  0  0  0  0  0  0  0  0  0  0
  197.7920  174.0970  137.6010 C   0  0  0  0  0  2  0  0  0  0  0  0
  197.0660  174.5010  138.8770 C   0  0  0  0  0  2  0  0  0  0  0  0
  197.6770  175.2530  140.8570 C   0  0  0  0  0  1  0  0  0  0  0  0
  197.7430  175.5510  139.4970 O   0  0  0  0  0  0  0  0  0  0  0  0
  188.6610  178.3130  139.1080 C   0  0  0  0  0  3  0  0  0  0  0  0
  187.7390  177.9340  138.2260 C   0  0  0  0  0  3  0  0  0  0  0  0
  186.3490  178.1890  138.4400 N   0  0  0  0  0  0  0  0  0  0  0  0
  185.3620  177.8750  137.5800 C   0  0  0  0  0  3  0  0  0  0  0  0
  185.7800  178.7620  139.5170 C   0  0  0  0  0  3  0  0  0  0  0  0
  184.4270  178.7830  139.2650 C   0  0  0  0  0  0  0  0  0  0  0  0
  184.1530  178.2280  138.0660 N   0  0  0  0  0  0  0  0  0  0  0  0
  183.5440  178.6180  141.5580 C   0  0  0  0  0  2  0  0  0  0  0  0
  183.3940  179.2850  140.2170 C   0  0  2  0  0  3  0  0  0  0  0  0
  182.1240  178.3140  141.9060 C   0  0  0  0  0  2  0  0  0  0  0  0
  182.1070  178.9930  139.7450 O   0  0  0  0  0  0  0  0  0  0  0  0
  181.3240  178.9300  140.8590 N   0  0  0  0  0  2  0  0  0  0  0  0
  1 39  1  1  0  0  0
  1 13  1  0  0  0  0
  2 14  1  0  0  0  0
  3 12  1  0  0  0  0
  4 15  1  0  0  0  0
  5  6  1  0  0  0  0
  6 10  1  0  0  0  0
  6  2  2  0  0  0  0
  7  3  2  0  0  0  0
  8  9  2  0  0  0  0
  9  4  1  0  0  0  0
 10  8  1  0  0  0  0
 11  5  2  0  0  0  0
 11 12  1  0  0  0  0
 12 10  2  0  0  0  0
 13  7  1  0  0  0  0
 13 11  1  0  0  0  0
 14  9  1  0  0  0  0
 15 16  1  0  0  0  0
 17 16  1  0  0  0  0
 18 21  1  6  0  0  0
 19 18  1  0  0  0  0
 19 21  1  0  0  0  0
 19  1  1  1  0  0  0
 20 27  1  0  0  0  0
 21 20  1  0  0  0  0
 22 20  2  0  0  0  0
 23 24  1  0  0  0  0
 23 25  1  0  0  0  0
 23 18  1  1  0  0  0
 24 25  1  0  0  0  0
 24 26  1  1  0  0  0
 25 26  1  1  0  0  0
 28 29  1  0  0  0  0
 28 27  1  0  0  0  0
 30 32  1  0  0  0  0
 30 29  1  0  0  0  0
 31 30  2  0  0  0  0
 32 35  1  1  0  0  0
 33 32  1  0  0  0  0
 34 33  1  0  0  0  0
 34 32  1  0  0  0  0
 35 36  1  0  0  0  0
 36 38  1  0  0  0  0
 38 37  1  0  0  0  0
 40 41  1  0  0  0  0
 40 39  2  0  0  0  0
 41 43  1  0  0  0  0
 42 45  2  0  0  0  0
 42 41  1  0  0  0  0
 44 43  2  0  0  0  0
 45 44  1  0  0  0  0
 46 48  1  0  0  0  0
 47 44  1  6  0  0  0
 47 46  1  0  0  0  0
 49 47  1  0  0  0  0
 49 50  1  0  0  0  0
 50 48  1  0  0  0  0
M  END
>  <MODEL>
7

>  <REMARK>
 VINA RESULT:      -6.6      3.801      9.511
  Name = 
  16 active torsions:
  status: ('A' for Active; 'I' for Inactive)
    1  A    between atoms: C_3  and  C_18
    2  A    between atoms: C_3  and  O_21
    3  A    between atoms: N_4  and  C_41
    4  A    between atoms: N_5  and  C_9
    5  A    between atoms: C_7  and  C_18
    6  A    between atoms: C_7  and  C_29
    7  A    between atoms: C_8  and  C_11
    8  A    between atoms: C_9  and  C_32
    9  A    between atoms: C_13  and  C_19
   10  A    between atoms: C_13  and  C_43
   11  A    between atoms: C_15  and  C_44
   12  A    between atoms: C_17  and  C_22
   13  A    between atoms: O_21  and  C_43
   14  A    between atoms: C_29  and  O_35
   15  A    between atoms: C_40  and  C_44
   16  A    between atoms: C_44  and  N_49
                            x       y       z     vdW  Elec       q    Type
                         _______ _______ _______ _____ _____    ______ ____

>  <TORSDO>
F 16

$$$$
=
 OpenBabel10222419493D

 50 58  0  0  1  0  0  0  0  0999 V2000
  187.1490  177.1800  137.6330 C   0  0  1  0  0  3  0  0  0  0  0  0
  191.7500  174.6060  137.6170 C   0  0  0  0  0  3  0  0  0  0  0  0
  189.2850  177.5020  134.6840 C   0  0  0  0  0  3  0  0  0  0  0  0
  194.5140  175.7230  135.3230 N   0  0  0  0  0  2  0  0  0  0  0  0
  189.3970  175.2190  137.2920 N   0  0  0  0  0  0  0  0  0  0  0  0
  190.6750  175.0850  136.8770 C   0  0  0  0  0  0  0  0  0  0  0  0
  188.0450  177.8930  135.3950 N   0  0  0  0  0  0  0  0  0  0  0  0
  192.1190  175.9530  135.1750 N   0  0  0  0  0  0  0  0  0  0  0  0
  193.2080  175.4740  135.8480 C   0  0  0  0  0  0  0  0  0  0  0  0
  190.8800  175.7060  135.6710 C   0  0  0  0  0  0  0  0  0  0  0  0
  188.8140  175.8820  136.2600 C   0  0  0  0  0  0  0  0  0  0  0  0
  189.6660  176.1880  135.2630 C   0  0  0  0  0  0  0  0  0  0  0  0
  187.8420  176.8980  136.3790 N   0  0  0  0  0  0  0  0  0  0  0  0
  193.0380  174.7860  137.0790 C   0  0  0  0  0  2  0  0  0  0  0  0
  195.7310  175.2800  135.9880 C   0  0  0  0  0  2  0  0  0  0  0  0
  196.0750  173.8760  135.5190 C   0  0  0  0  0  2  0  0  0  0  0  0
  197.2790  173.4730  136.0640 F   0  0  0  0  0  0  0  0  0  0  0  0
  188.5610  177.3780  139.5840 C   0  0  2  0  0  3  0  0  0  0  0  0
  187.9890  178.0820  138.5390 C   0  0  2  0  0  3  0  0  0  0  0  0
  186.3090  178.6140  140.7690 C   0  0  0  0  0  0  0  0  0  0  0  0
  187.3260  178.1650  139.8800 N   0  0  0  0  0  0  0  0  0  0  0  0
  185.4360  179.4270  140.3660 O   0  0  0  0  0  0  0  0  0  0  0  0
  189.7690  178.1190  140.1280 C   0  0  1  0  0  3  0  0  0  0  0  0
  189.9070  177.8690  141.6200 C   0  0  2  0  0  3  0  0  0  0  0  0
  190.8040  177.1360  140.6520 C   0  0  1  0  0  3  0  0  0  0  0  0
  190.2660  176.4190  141.8700 C   0  0  0  0  0  2  0  0  0  0  0  0
  186.3110  178.1500  142.1860 C   0  0  0  0  0  2  0  0  0  0  0  0
  185.3030  178.9420  142.9960 C   0  0  0  0  0  2  0  0  0  0  0  0
  185.8280  179.1880  144.2970 O   0  0  0  0  0  0  0  0  0  0  0  0
  186.2570  178.1480  145.1220 C   0  0  0  0  0  0  0  0  0  0  0  0
  186.7670  177.1000  144.6330 O   0  0  0  0  0  0  0  0  0  0  0  0
  186.1410  178.2990  146.6040 C   0  0  2  0  0  0  0  0  0  0  0  0
  184.8220  178.1010  147.2390 C   0  0  0  0  0  2  0  0  0  0  0  0
  185.3190  179.3890  146.9400 O   0  0  0  0  0  0  0  0  0  0  0  0
  187.3850  178.2640  147.4790 C   0  0  0  0  0  2  0  0  0  0  0  0
  188.3000  177.1110  147.0890 C   0  0  0  0  0  2  0  0  0  0  0  0
  190.4870  177.0390  147.3580 C   0  0  0  0  0  1  0  0  0  0  0  0
  189.4930  177.6080  146.5630 O   0  0  0  0  0  0  0  0  0  0  0  0
  185.8280  177.8130  137.3460 C   0  0  0  0  0  3  0  0  0  0  0  0
  184.6850  177.1800  137.6040 C   0  0  0  0  0  3  0  0  0  0  0  0
  183.4180  177.7840  137.3310 N   0  0  0  0  0  0  0  0  0  0  0  0
  182.6340  177.4980  136.2740 C   0  0  0  0  0  3  0  0  0  0  0  0
  182.7830  178.7160  138.0650 C   0  0  0  0  0  3  0  0  0  0  0  0
  181.6020  178.9770  137.4080 C   0  0  0  0  0  0  0  0  0  0  0  0
  181.4940  178.2200  136.2960 N   0  0  0  0  0  0  0  0  0  0  0  0
  180.4110  181.0850  136.9580 C   0  0  0  0  0  2  0  0  0  0  0  0
  180.5490  179.9150  137.8940 C   0  0  2  0  0  3  0  0  0  0  0  0
  180.3070  182.2270  137.9140 C   0  0  0  0  0  2  0  0  0  0  0  0
  180.8890  180.4250  139.1560 O   0  0  0  0  0  0  0  0  0  0  0  0
  180.2520  181.6260  139.2370 N   0  0  0  0  0  2  0  0  0  0  0  0
  1 39  1  6  0  0  0
  3 12  1  0  0  0  0
  3  7  2  0  0  0  0
  4  9  1  0  0  0  0
  4 15  1  0  0  0  0
  6  5  1  0  0  0  0
  6  2  2  0  0  0  0
  7 13  1  0  0  0  0
  8 10  1  0  0  0  0
  8  9  2  0  0  0  0
  9 14  1  0  0  0  0
 10  6  1  0  0  0  0
 11 13  1  0  0  0  0
 11  5  2  0  0  0  0
 12 10  2  0  0  0  0
 12 11  1  0  0  0  0
 13  1  1  0  0  0  0
 14  2  1  0  0  0  0
 16 15  1  0  0  0  0
 16 17  1  0  0  0  0
 18 21  1  1  0  0  0
 19  1  1  6  0  0  0
 19 18  1  0  0  0  0
 19 21  1  0  0  0  0
 20 27  1  0  0  0  0
 21 20  1  0  0  0  0
 22 20  2  0  0  0  0
 23 18  1  6  0  0  0
 23 25  1  0  0  0  0
 23 24  1  0  0  0  0
 24 26  1  6  0  0  0
 25 24  1  0  0  0  0
 25 26  1  6  0  0  0
 27 28  1  0  0  0  0
 28 29  1  0  0  0  0
 29 30  1  0  0  0  0
 30 32  1  0  0  0  0
 31 30  2  0  0  0  0
 32 34  1  0  0  0  0
 32 33  1  0  0  0  0
 32 35  1  1  0  0  0
 34 33  1  0  0  0  0
 36 35  1  0  0  0  0
 38 36  1  0  0  0  0
 38 37  1  0  0  0  0
 39 40  2  0  0  0  0
 41 40  1  0  0  0  0
 41 43  1  0  0  0  0
 42 45  2  0  0  0  0
 42 41  1  0  0  0  0
 44 43  2  0  0  0  0
 45 44  1  0  0  0  0
 46 47  1  0  0  0  0
 46 48  1  0  0  0  0
 47 44  1  6  0  0  0
 47 49  1  0  0  0  0
 48 50  1  0  0  0  0
 49 50  1  0  0  0  0
M  END
>  <MODEL>
8

>  <REMARK>
 VINA RESULT:      -6.6      3.781      9.193
  Name = 
  16 active torsions:
  status: ('A' for Active; 'I' for Inactive)
    1  A    between atoms: C_3  and  C_18
    2  A    between atoms: C_3  and  O_21
    3  A    between atoms: N_4  and  C_41
    4  A    between atoms: N_5  and  C_9
    5  A    between atoms: C_7  and  C_18
    6  A    between atoms: C_7  and  C_29
    7  A    between atoms: C_8  and  C_11
    8  A    between atoms: C_9  and  C_32
    9  A    between atoms: C_13  and  C_19
   10  A    between atoms: C_13  and  C_43
   11  A    between atoms: C_15  and  C_44
   12  A    between atoms: C_17  and  C_22
   13  A    between atoms: O_21  and  C_43
   14  A    between atoms: C_29  and  O_35
   15  A    between atoms: C_40  and  C_44
   16  A    between atoms: C_44  and  N_49
                            x       y       z     vdW  Elec       q    Type
                         _______ _______ _______ _____ _____    ______ ____

>  <TORSDO>
F 16

$$$$
=
 OpenBabel10222419493D

 50 58  0  0  1  0  0  0  0  0999 V2000
  188.3240  178.1290  138.5750 C   0  0  1  0  0  3  0  0  0  0  0  0
  188.5350  176.6290  143.6250 C   0  0  0  0  0  3  0  0  0  0  0  0
  191.6060  177.4140  140.0170 C   0  0  0  0  0  3  0  0  0  0  0  0
  191.7380  177.0100  145.5610 N   0  0  0  0  0  2  0  0  0  0  0  0
  188.4330  176.6290  141.1740 N   0  0  0  0  0  0  0  0  0  0  0  0
  189.0850  176.5320  142.3520 C   0  0  0  0  0  0  0  0  0  0  0  0
  190.8100  177.8760  138.8560 N   0  0  0  0  0  0  0  0  0  0  0  0
  191.3140  176.7500  143.2020 N   0  0  0  0  0  0  0  0  0  0  0  0
  190.8260  176.8190  144.4770 C   0  0  0  0  0  0  0  0  0  0  0  0
  190.4460  176.5570  142.1770 C   0  0  0  0  0  0  0  0  0  0  0  0
  189.4450  176.6410  140.2700 C   0  0  0  0  0  0  0  0  0  0  0  0
  190.6700  176.5930  140.8280 C   0  0  0  0  0  0  0  0  0  0  0  0
  189.4920  177.4230  139.0970 N   0  0  0  0  0  0  0  0  0  0  0  0
  189.4260  176.7520  144.7080 C   0  0  0  0  0  2  0  0  0  0  0  0
  191.3070  177.1270  146.9460 C   0  0  0  0  0  2  0  0  0  0  0  0
  191.7490  175.8940  147.7150 C   0  0  0  0  0  2  0  0  0  0  0  0
  193.0810  175.6280  147.4650 F   0  0  0  0  0  0  0  0  0  0  0  0
  187.8960  175.9620  137.5920 C   0  0  2  0  0  3  0  0  0  0  0  0
  187.6300  177.3160  137.4800 C   0  0  2  0  0  3  0  0  0  0  0  0
  189.6680  176.8230  135.5610 C   0  0  0  0  0  0  0  0  0  0  0  0
  188.6760  176.7350  136.5780 N   0  0  0  0  0  0  0  0  0  0  0  0
  189.8600  177.9140  134.9630 O   0  0  0  0  0  0  0  0  0  0  0  0
  186.8270  175.1490  136.8860 C   0  0  1  0  0  3  0  0  0  0  0  0
  187.4720  174.1020  135.9940 C   0  0  2  0  0  3  0  0  0  0  0  0
  186.8890  173.6950  137.3260 C   0  0  1  0  0  3  0  0  0  0  0  0
  188.1750  173.0620  136.8420 C   0  0  0  0  0  2  0  0  0  0  0  0
  190.4430  175.6070  135.1800 C   0  0  0  0  0  2  0  0  0  0  0  0
  191.3090  175.1550  136.3390 C   0  0  0  0  0  2  0  0  0  0  0  0
  192.4130  176.0420  136.4820 O   0  0  0  0  0  0  0  0  0  0  0  0
  193.6600  175.7550  135.9240 C   0  0  0  0  0  0  0  0  0  0  0  0
  194.0880  176.3990  134.9250 O   0  0  0  0  0  0  0  0  0  0  0  0
  194.5080  174.6930  136.5450 C   0  0  2  0  0  0  0  0  0  0  0  0
  194.6170  174.6400  138.0170 C   0  0  0  0  0  2  0  0  0  0  0  0
  195.6080  175.2530  137.2190 O   0  0  0  0  0  0  0  0  0  0  0  0
  194.9260  173.4740  135.7370 C   0  0  0  0  0  2  0  0  0  0  0  0
  193.7180  172.7800  135.1220 C   0  0  0  0  0  2  0  0  0  0  0  0
  193.9250  170.9660  136.3570 C   0  0  0  0  0  1  0  0  0  0  0  0
  193.0590  172.0250  136.0930 O   0  0  0  0  0  0  0  0  0  0  0  0
  187.3740  178.4220  139.6890 C   0  0  0  0  0  3  0  0  0  0  0  0
  186.0560  178.3650  139.5090 C   0  0  0  0  0  3  0  0  0  0  0  0
  185.1440  178.6450  140.5730 N   0  0  0  0  0  0  0  0  0  0  0  0
  183.8030  178.5550  140.4870 C   0  0  0  0  0  3  0  0  0  0  0  0
  185.4440  179.0260  141.8270 C   0  0  0  0  0  3  0  0  0  0  0  0
  184.2410  179.1660  142.4800 C   0  0  0  0  0  0  0  0  0  0  0  0
  183.2110  178.8680  141.6600 N   0  0  0  0  0  0  0  0  0  0  0  0
  185.3770  179.2720  144.6630 C   0  0  0  0  0  2  0  0  0  0  0  0
  184.0930  179.5260  143.9200 C   0  0  2  0  0  3  0  0  0  0  0  0
  184.8810  178.6280  145.9150 C   0  0  0  0  0  2  0  0  0  0  0  0
  183.0980  178.7430  144.5240 O   0  0  0  0  0  0  0  0  0  0  0  0
  183.4300  178.7000  145.8440 N   0  0  0  0  0  2  0  0  0  0  0  0
  1 13  1  0  0  0  0
  1 39  1  1  0  0  0
  2 14  1  0  0  0  0
  3 12  1  0  0  0  0
  4 15  1  0  0  0  0
  5  6  1  0  0  0  0
  6  2  2  0  0  0  0
  7 13  1  0  0  0  0
  7  3  2  0  0  0  0
  8  9  2  0  0  0  0
  9 14  1  0  0  0  0
  9  4  1  0  0  0  0
 10  6  1  0  0  0  0
 10  8  1  0  0  0  0
 11 12  1  0  0  0  0
 11  5  2  0  0  0  0
 12 10  2  0  0  0  0
 13 11  1  0  0  0  0
 15 16  1  0  0  0  0
 17 16  1  0  0  0  0
 18 21  1  6  0  0  0
 19 18  1  0  0  0  0
 19  1  1  1  0  0  0
 20 21  1  0  0  0  0
 21 19  1  0  0  0  0
 22 20  2  0  0  0  0
 23 25  1  0  0  0  0
 23 18  1  1  0  0  0
 24 26  1  1  0  0  0
 24 23  1  0  0  0  0
 24 25  1  0  0  0  0
 25 26  1  1  0  0  0
 27 20  1  0  0  0  0
 27 28  1  0  0  0  0
 28 29  1  0  0  0  0
 30 29  1  0  0  0  0
 30 32  1  0  0  0  0
 31 30  2  0  0  0  0
 32 35  1  6  0  0  0
 32 34  1  0  0  0  0
 32 33  1  0  0  0  0
 34 33  1  0  0  0  0
 36 35  1  0  0  0  0
 36 38  1  0  0  0  0
 38 37  1  0  0  0  0
 40 39  2  0  0  0  0
 40 41  1  0  0  0  0
 41 43  1  0  0  0  0
 42 41  1  0  0  0  0
 42 45  2  0  0  0  0
 43 44  2  0  0  0  0
 45 44  1  0  0  0  0
 46 48  1  0  0  0  0
 47 44  1  6  0  0  0
 47 49  1  0  0  0  0
 47 46  1  0  0  0  0
 49 50  1  0  0  0  0
 50 48  1  0  0  0  0
M  END
>  <MODEL>
9

>  <REMARK>
 VINA RESULT:      -6.5      3.942      9.914
  Name = 
  16 active torsions:
  status: ('A' for Active; 'I' for Inactive)
    1  A    between atoms: C_3  and  C_18
    2  A    between atoms: C_3  and  O_21
    3  A    between atoms: N_4  and  C_41
    4  A    between atoms: N_5  and  C_9
    5  A    between atoms: C_7  and  C_18
    6  A    between atoms: C_7  and  C_29
    7  A    between atoms: C_8  and  C_11
    8  A    between atoms: C_9  and  C_32
    9  A    between atoms: C_13  and  C_19
   10  A    between atoms: C_13  and  C_43
   11  A    between atoms: C_15  and  C_44
   12  A    between atoms: C_17  and  C_22
   13  A    between atoms: O_21  and  C_43
   14  A    between atoms: C_29  and  O_35
   15  A    between atoms: C_40  and  C_44
   16  A    between atoms: C_44  and  N_49
                            x       y       z     vdW  Elec       q    Type
                         _______ _______ _______ _____ _____    ______ ____

>  <TORSDO>
F 16

$$$$
