=
 OpenBabel10222419203D

 49 53  0  0  1  0  0  0  0  0999 V2000
  189.9320  177.5280  143.4330 C   0  0  2  0  0  3  0  0  0  0  0  0
  189.2820  177.7070  145.8370 C   0  0  0  0  0  3  0  0  0  0  0  0
  189.5470  177.5060  147.1940 C   0  0  0  0  0  3  0  0  0  0  0  0
  191.4360  176.7450  145.3130 C   0  0  0  0  0  3  0  0  0  0  0  0
  191.6640  176.5630  146.6790 C   0  0  0  0  0  3  0  0  0  0  0  0
  190.7230  176.9440  147.5830 N   0  0  0  0  0  0  0  0  0  0  0  0
  190.2330  177.3260  144.8890 C   0  0  0  0  0  0  0  0  0  0  0  0
  186.7710  178.9210  141.8680 C   0  0  0  0  0  3  0  0  0  0  0  0
  187.4690  177.1920  143.9510 C   0  0  0  0  0  3  0  0  0  0  0  0
  188.1170  178.6480  142.1270 C   0  0  0  0  0  3  0  0  0  0  0  0
  188.4720  177.7810  143.1660 C   0  0  0  0  0  0  0  0  0  0  0  0
  186.1230  177.4630  143.6910 C   0  0  0  0  0  3  0  0  0  0  0  0
  185.7720  178.3280  142.6490 C   0  0  0  0  0  0  0  0  0  0  0  0
  184.3370  178.6370  142.3790 C   0  0  0  0  0  2  0  0  0  0  0  0
  185.4710  178.9990  138.4020 O   0  0  0  0  0  1  0  0  0  0  0  0
  183.2430  178.1200  138.2710 C   0  0  2  0  0  3  0  0  0  0  0  0
  184.1400  179.2790  138.7180 C   0  0  1  0  0  3  0  0  0  0  0  0
  184.0170  179.5770  140.1520 N   0  0  0  0  0  2  0  0  0  0  0  0
  182.9580  178.1970  136.8900 O   0  0  0  0  0  0  0  0  0  0  0  0
  183.1470  175.8920  136.9840 O   0  0  0  0  0  0  0  0  0  0  0  0
  181.9580  178.0730  139.1080 C   0  0  2  0  0  3  0  0  0  0  0  0
  181.4620  176.0080  137.4540 P   0  0  1  0  0  4  0  0  0  0  0  0
  182.3190  177.5540  140.8240 S   0  0  0  0  0  0  0  0  0  0  0  0
  183.9800  178.3390  140.9310 C   0  0  2  0  0  3  0  0  0  0  0  0
  182.5700  176.9320  136.3500 C   0  0  0  0  0  2  0  0  0  0  0  0
  180.8710  177.2670  138.5350 N   0  0  0  0  0  2  0  0  0  0  0  0
  180.4310  175.3620  136.5600 O   0  0  0  0  0  0  0  0  0  0  0  0
  190.1790  175.1870  142.8450 O   0  0  0  0  0  1  0  0  0  0  0  0
  190.5950  176.4810  142.5260 C   0  0  1  0  0  3  0  0  0  0  0  0
  190.3170  176.7590  141.1130 C   0  0  0  0  0  0  0  0  0  0  0  0
  190.0810  176.9790  139.9510 C   0  0  0  0  0  0  0  0  0  0  0  0
  189.0650  176.1440  135.8960 C   0  0  0  0  0  2  0  0  0  0  0  0
  189.7890  177.2390  138.5410 C   0  0  1  0  0  0  0  0  0  0  0  0
  190.4830  176.6330  136.1910 C   0  0  1  0  0  3  0  0  0  0  0  0
  188.3750  176.7510  138.2240 C   0  0  0  0  0  2  0  0  0  0  0  0
  189.8790  178.6010  138.3100 F   0  0  0  0  0  0  0  0  0  0  0  0
  188.0550  176.9170  136.7380 C   0  0  2  0  0  3  0  0  0  0  0  0
  190.8130  176.5000  137.6790 C   0  0  0  0  0  2  0  0  0  0  0  0
  186.6590  176.4040  136.4440 C   0  0  0  0  0  2  0  0  0  0  0  0
  185.9900  177.2940  135.6040 O   0  0  0  0  0  1  0  0  0  0  0  0
  191.5130  175.9080  135.3310 C   0  0  0  0  0  2  0  0  0  0  0  0
  191.4350  174.0970  135.5290 S   0  0  0  0  0  0  0  0  0  0  0  0
  193.1870  174.0070  135.9860 C   0  0  0  0  0  2  0  0  0  0  0  0
  193.8440  175.3450  135.7160 C   0  0  0  0  0  2  0  0  0  0  0  0
  194.6280  175.7390  136.8730 N   0  0  0  0  0  2  0  0  0  0  0  0
  194.2280  174.8760  137.9720 C   0  0  0  0  0  2  0  0  0  0  0  0
  196.6010  174.8730  138.1270 O   0  0  0  0  0  1  0  0  0  0  0  0
  195.4410  174.5020  138.8060 C   0  0  0  0  0  3  0  0  0  0  0  0
  195.4560  173.1250  139.0290 O   0  0  0  0  0  1  0  0  0  0  0  0
  1 29  1  6  0  0  0
  1  7  1  0  0  0  0
  2  3  1  0  0  0  0
  3  6  2  0  0  0  0
  4  5  2  0  0  0  0
  5  6  1  0  0  0  0
  7  4  1  0  0  0  0
  7  2  2  0  0  0  0
  8 10  2  0  0  0  0
  8 13  1  0  0  0  0
 10 11  1  0  0  0  0
 11  1  1  0  0  0  0
 11  9  2  0  0  0  0
 12  9  1  0  0  0  0
 13 12  2  0  0  0  0
 14 13  1  0  0  0  0
 16 19  1  6  0  0  0
 16 17  1  0  0  0  0
 16 21  1  0  0  0  0
 17 15  1  1  0  0  0
 17 18  1  0  0  0  0
 18 24  1  0  0  0  0
 20 22  1  0  0  0  0
 21 26  1  6  0  0  0
 21 23  1  0  0  0  0
 22 27  2  6  0  0  0
 22 26  1  0  0  0  0
 23 24  1  0  0  0  0
 24 14  1  1  0  0  0
 25 19  1  0  0  0  0
 25 20  1  0  0  0  0
 29 28  1  1  0  0  0
 30 29  1  0  0  0  0
 31 30  3  0  0  0  0
 32 34  1  0  0  0  0
 32 37  1  0  0  0  0
 33 36  1  6  0  0  0
 33 31  1  0  0  0  0
 34 41  1  6  0  0  0
 34 38  1  0  0  0  0
 35 33  1  0  0  0  0
 37 39  1  1  0  0  0
 37 35  1  0  0  0  0
 38 33  1  0  0  0  0
 40 39  1  0  0  0  0
 41 42  1  0  0  0  0
 42 43  1  0  0  0  0
 44 43  1  0  0  0  0
 44 45  1  0  0  0  0
 45 46  1  0  0  0  0
 46 48  1  0  0  0  0
 47 48  1  0  0  0  0
 48 49  1  0  0  0  0
M  END
>  <MODEL>
1

>  <REMARK>
 VINA RESULT:      -8.2      0.000      0.000
  Name = 
  15 active torsions:
  status: ('A' for Active; 'I' for Inactive)
    1  A    between atoms: N_2  and  C_6
    2  A    between atoms: N_2  and  C_21
    3  A    between atoms: S_3  and  C_23
    4  A    between atoms: S_3  and  C_34
    5  A    between atoms: C_6  and  C_34
    6  A    between atoms: C_8  and  C_40
    7  A    between atoms: C_11  and  C_23
    8  A    between atoms: C_17  and  C_43
    9  A    between atoms: C_19  and  C_47
   10  A    between atoms: C_20  and  C_45
   11  A    between atoms: C_21  and  C_24
   12  A    between atoms: C_28  and  C_31
   13  A    between atoms: C_28  and  C_38
   14  A    between atoms: C_42  and  C_47
   15  A    between atoms: C_45  and  C_47
                            x       y       z     vdW  Elec       q    Type
                         _______ _______ _______ _____ _____    ______ ____

>  <TORSDO>
F 15

$$$$
=
 OpenBabel10222419203D

 49 53  0  0  1  0  0  0  0  0999 V2000
  188.1910  177.8090  143.7880 C   0  0  2  0  0  3  0  0  0  0  0  0
  189.5210  177.3420  145.8500 C   0  0  0  0  0  3  0  0  0  0  0  0
  189.6470  177.3020  147.2400 C   0  0  0  0  0  3  0  0  0  0  0  0
  187.2480  178.1190  146.1170 C   0  0  0  0  0  3  0  0  0  0  0  0
  187.4140  178.0640  147.5020 C   0  0  0  0  0  3  0  0  0  0  0  0
  188.6000  177.6600  148.0310 N   0  0  0  0  0  0  0  0  0  0  0  0
  188.3120  177.7510  145.2820 C   0  0  0  0  0  0  0  0  0  0  0  0
  184.4130  178.1360  143.7790 C   0  0  0  0  0  3  0  0  0  0  0  0
  186.5450  178.6530  142.0470 C   0  0  0  0  0  3  0  0  0  0  0  0
  185.7230  177.8690  144.1860 C   0  0  0  0  0  3  0  0  0  0  0  0
  186.7950  178.1300  143.3260 C   0  0  0  0  0  0  0  0  0  0  0  0
  185.2350  178.9210  141.6410 C   0  0  0  0  0  3  0  0  0  0  0  0
  184.1670  178.6620  142.5060 C   0  0  0  0  0  0  0  0  0  0  0  0
  182.7640  178.9280  142.0710 C   0  0  0  0  0  2  0  0  0  0  0  0
  182.3290  180.7500  138.3660 O   0  0  0  0  0  1  0  0  0  0  0  0
  182.0130  178.4220  137.8850 C   0  0  2  0  0  3  0  0  0  0  0  0
  181.5090  179.6550  138.6430 C   0  0  1  0  0  3  0  0  0  0  0  0
  181.4300  179.4410  140.0950 N   0  0  0  0  0  2  0  0  0  0  0  0
  181.5820  178.4370  136.5410 O   0  0  0  0  0  0  0  0  0  0  0  0
  183.6800  177.5530  136.1270 O   0  0  0  0  0  0  0  0  0  0  0  0
  181.5830  177.1330  138.5980 C   0  0  2  0  0  3  0  0  0  0  0  0
  182.8610  176.0470  136.4910 P   0  0  1  0  0  4  0  0  0  0  0  0
  182.4880  176.9290  140.1740 S   0  0  0  0  0  0  0  0  0  0  0  0
  182.6130  178.7230  140.5710 C   0  0  2  0  0  3  0  0  0  0  0  0
  182.4030  177.6190  135.7040 C   0  0  0  0  0  2  0  0  0  0  0  0
  181.6700  175.9120  137.7830 N   0  0  0  0  0  2  0  0  0  0  0  0
  182.7830  175.0010  135.4050 O   0  0  0  0  0  0  0  0  0  0  0  0
  188.1220  175.4500  143.2250 O   0  0  0  0  0  1  0  0  0  0  0  0
  188.8620  176.6250  143.0790 C   0  0  1  0  0  3  0  0  0  0  0  0
  189.0630  176.9110  141.6540 C   0  0  0  0  0  0  0  0  0  0  0  0
  189.2350  177.1540  140.4850 C   0  0  0  0  0  0  0  0  0  0  0  0
  189.5440  176.4650  136.2900 C   0  0  0  0  0  2  0  0  0  0  0  0
  189.4500  177.4550  139.0700 C   0  0  1  0  0  0  0  0  0  0  0  0
  190.8230  176.8040  137.0540 C   0  0  1  0  0  3  0  0  0  0  0  0
  188.1820  177.1160  138.2860 C   0  0  0  0  0  2  0  0  0  0  0  0
  189.7380  178.8040  138.9390 F   0  0  0  0  0  0  0  0  0  0  0  0
  188.3890  177.3280  136.7860 C   0  0  2  0  0  3  0  0  0  0  0  0
  190.6290  176.6250  138.5610 C   0  0  0  0  0  2  0  0  0  0  0  0
  187.1270  176.9620  136.0290 C   0  0  0  0  0  2  0  0  0  0  0  0
  186.8220  177.9560  135.0990 O   0  0  0  0  0  1  0  0  0  0  0  0
  192.0080  175.9860  136.5490 C   0  0  0  0  0  2  0  0  0  0  0  0
  192.2680  174.4650  137.5210 S   0  0  0  0  0  0  0  0  0  0  0  0
  194.0530  174.7640  137.6280 C   0  0  0  0  0  2  0  0  0  0  0  0
  194.7850  173.4390  137.5990 C   0  0  0  0  0  2  0  0  0  0  0  0
  195.4920  173.2490  138.8520 N   0  0  0  0  0  2  0  0  0  0  0  0
  195.8120  174.5720  139.3630 C   0  0  0  0  0  2  0  0  0  0  0  0
  197.6330  175.6640  140.4350 O   0  0  0  0  0  1  0  0  0  0  0  0
  197.3180  174.7560  139.4230 C   0  0  0  0  0  3  0  0  0  0  0  0
  197.7850  175.2450  138.2030 O   0  0  0  0  0  1  0  0  0  0  0  0
  1 29  1  6  0  0  0
  1  7  1  0  0  0  0
  2  3  1  0  0  0  0
  3  6  2  0  0  0  0
  4  5  2  0  0  0  0
  5  6  1  0  0  0  0
  7  2  2  0  0  0  0
  7  4  1  0  0  0  0
  8 10  1  0  0  0  0
  9 11  1  0  0  0  0
 11  1  1  0  0  0  0
 11 10  2  0  0  0  0
 12  9  2  0  0  0  0
 12 13  1  0  0  0  0
 13  8  2  0  0  0  0
 14 13  1  0  0  0  0
 16 19  1  6  0  0  0
 16 21  1  0  0  0  0
 16 17  1  0  0  0  0
 17 15  1  1  0  0  0
 17 18  1  0  0  0  0
 18 24  1  0  0  0  0
 20 22  1  0  0  0  0
 21 26  1  6  0  0  0
 21 23  1  0  0  0  0
 22 27  2  6  0  0  0
 22 26  1  0  0  0  0
 23 24  1  0  0  0  0
 24 14  1  1  0  0  0
 25 20  1  0  0  0  0
 25 19  1  0  0  0  0
 29 28  1  6  0  0  0
 30 29  1  0  0  0  0
 31 30  3  0  0  0  0
 32 37  1  0  0  0  0
 32 34  1  0  0  0  0
 33 36  1  6  0  0  0
 33 31  1  0  0  0  0
 34 41  1  6  0  0  0
 34 38  1  0  0  0  0
 35 33  1  0  0  0  0
 37 39  1  6  0  0  0
 37 35  1  0  0  0  0
 38 33  1  0  0  0  0
 40 39  1  0  0  0  0
 41 42  1  0  0  0  0
 42 43  1  0  0  0  0
 44 43  1  0  0  0  0
 44 45  1  0  0  0  0
 45 46  1  0  0  0  0
 46 48  1  0  0  0  0
 48 47  1  0  0  0  0
 49 48  1  0  0  0  0
M  END
>  <MODEL>
2

>  <REMARK>
 VINA RESULT:      -7.9      1.603      2.122
  Name = 
  15 active torsions:
  status: ('A' for Active; 'I' for Inactive)
    1  A    between atoms: N_2  and  C_6
    2  A    between atoms: N_2  and  C_21
    3  A    between atoms: S_3  and  C_23
    4  A    between atoms: S_3  and  C_34
    5  A    between atoms: C_6  and  C_34
    6  A    between atoms: C_8  and  C_40
    7  A    between atoms: C_11  and  C_23
    8  A    between atoms: C_17  and  C_43
    9  A    between atoms: C_19  and  C_47
   10  A    between atoms: C_20  and  C_45
   11  A    between atoms: C_21  and  C_24
   12  A    between atoms: C_28  and  C_31
   13  A    between atoms: C_28  and  C_38
   14  A    between atoms: C_42  and  C_47
   15  A    between atoms: C_45  and  C_47
                            x       y       z     vdW  Elec       q    Type
                         _______ _______ _______ _____ _____    ______ ____

>  <TORSDO>
F 15

$$$$
=
 OpenBabel10222419203D

 49 53  0  0  1  0  0  0  0  0999 V2000
  188.4720  176.8930  145.5830 C   0  0  2  0  0  3  0  0  0  0  0  0
  190.8670  176.1960  145.7000 C   0  0  0  0  0  3  0  0  0  0  0  0
  192.0850  176.1160  146.3800 C   0  0  0  0  0  3  0  0  0  0  0  0
  189.9140  177.3090  147.6220 C   0  0  0  0  0  3  0  0  0  0  0  0
  191.1480  177.2090  148.2670 C   0  0  0  0  0  3  0  0  0  0  0  0
  192.1990  176.6190  147.6380 N   0  0  0  0  0  0  0  0  0  0  0  0
  189.7720  176.7950  146.3260 C   0  0  0  0  0  0  0  0  0  0  0  0
  188.2490  177.0370  141.7990 C   0  0  0  0  0  3  0  0  0  0  0  0
  189.3650  178.5450  143.8720 C   0  0  0  0  0  3  0  0  0  0  0  0
  188.0890  176.6260  143.1250 C   0  0  0  0  0  3  0  0  0  0  0  0
  188.6420  177.3790  144.1670 C   0  0  0  0  0  0  0  0  0  0  0  0
  189.5230  178.9570  142.5460 C   0  0  0  0  0  3  0  0  0  0  0  0
  188.9650  178.2040  141.5080 C   0  0  0  0  0  0  0  0  0  0  0  0
  189.1470  178.6280  140.0880 C   0  0  0  0  0  2  0  0  0  0  0  0
  190.4500  175.0890  138.3540 O   0  0  0  0  0  1  0  0  0  0  0  0
  188.4170  175.5720  137.1790 C   0  0  2  0  0  3  0  0  0  0  0  0
  189.8400  176.0260  137.5190 C   0  0  1  0  0  3  0  0  0  0  0  0
  189.8820  177.3570  138.1420 N   0  0  0  0  0  2  0  0  0  0  0  0
  188.4200  174.6130  136.1430 O   0  0  0  0  0  0  0  0  0  0  0  0
  186.7020  173.6600  137.3670 O   0  0  0  0  0  0  0  0  0  0  0  0
  187.5320  176.7760  136.8270 C   0  0  2  0  0  3  0  0  0  0  0  0
  185.7340  174.8050  136.4590 P   0  0  1  0  0  4  0  0  0  0  0  0
  187.1960  177.7910  138.3110 S   0  0  0  0  0  0  0  0  0  0  0  0
  188.8150  177.4910  139.1350 C   0  0  2  0  0  3  0  0  0  0  0  0
  187.2290  173.8230  136.1380 C   0  0  0  0  0  2  0  0  0  0  0  0
  186.2830  176.4460  136.1250 N   0  0  0  0  0  2  0  0  0  0  0  0
  184.6730  174.2590  135.5330 O   0  0  0  0  0  0  0  0  0  0  0  0
  187.8710  178.6300  147.1660 O   0  0  0  0  0  1  0  0  0  0  0  0
  187.3650  177.5880  146.3870 C   0  0  1  0  0  3  0  0  0  0  0  0
  186.3120  178.0970  145.5010 C   0  0  0  0  0  0  0  0  0  0  0  0
  185.4520  178.5240  144.7710 C   0  0  0  0  0  0  0  0  0  0  0  0
  182.1220  178.4890  142.1100 C   0  0  0  0  0  2  0  0  0  0  0  0
  184.4140  179.0500  143.8850 C   0  0  1  0  0  0  0  0  0  0  0  0
  183.4850  178.8870  141.5440 C   0  0  1  0  0  3  0  0  0  0  0  0
  183.0410  178.6570  144.4320 C   0  0  0  0  0  2  0  0  0  0  0  0
  184.5240  180.4300  143.8390 F   0  0  0  0  0  0  0  0  0  0  0  0
  181.9240  179.1070  143.4900 C   0  0  2  0  0  3  0  0  0  0  0  0
  184.6160  178.4690  142.4850 C   0  0  0  0  0  2  0  0  0  0  0  0
  180.5760  178.6840  144.0410 C   0  0  0  0  0  2  0  0  0  0  0  0
  179.5650  179.4700  143.4850 O   0  0  0  0  0  1  0  0  0  0  0  0
  183.6950  178.3190  140.1440 C   0  0  0  0  0  2  0  0  0  0  0  0
  183.6250  179.6050  138.8530 S   0  0  0  0  0  0  0  0  0  0  0  0
  181.8660  179.2910  138.5460 C   0  0  0  0  0  2  0  0  0  0  0  0
  181.3810  180.1980  137.4340 C   0  0  0  0  0  2  0  0  0  0  0  0
  180.5810  181.2690  137.9990 N   0  0  0  0  0  2  0  0  0  0  0  0
  181.4000  182.4700  137.9720 C   0  0  0  0  0  2  0  0  0  0  0  0
  181.6560  184.4260  136.6440 O   0  0  0  0  0  1  0  0  0  0  0  0
  180.7020  183.5570  137.1740 C   0  0  0  0  0  3  0  0  0  0  0  0
  179.8350  184.2710  138.0010 O   0  0  0  0  0  1  0  0  0  0  0  0
  1  7  1  0  0  0  0
  1 29  1  1  0  0  0
  2  7  2  0  0  0  0
  2  3  1  0  0  0  0
  3  6  2  0  0  0  0
  4  5  2  0  0  0  0
  6  5  1  0  0  0  0
  7  4  1  0  0  0  0
  8 10  1  0  0  0  0
  9 11  1  0  0  0  0
 10 11  2  0  0  0  0
 11  1  1  0  0  0  0
 12  9  2  0  0  0  0
 13  8  2  0  0  0  0
 13 12  1  0  0  0  0
 14 13  1  0  0  0  0
 16 19  1  6  0  0  0
 16 17  1  0  0  0  0
 17 18  1  0  0  0  0
 17 15  1  1  0  0  0
 18 24  1  0  0  0  0
 21 26  1  1  0  0  0
 21 16  1  0  0  0  0
 21 23  1  0  0  0  0
 22 27  2  6  0  0  0
 22 20  1  0  0  0  0
 23 24  1  0  0  0  0
 24 14  1  1  0  0  0
 25 19  1  0  0  0  0
 25 20  1  0  0  0  0
 26 22  1  0  0  0  0
 29 28  1  6  0  0  0
 30 29  1  0  0  0  0
 31 30  3  0  0  0  0
 32 37  1  0  0  0  0
 33 36  1  6  0  0  0
 33 35  1  0  0  0  0
 33 31  1  0  0  0  0
 34 41  1  6  0  0  0
 34 32  1  0  0  0  0
 34 38  1  0  0  0  0
 37 39  1  1  0  0  0
 37 35  1  0  0  0  0
 38 33  1  0  0  0  0
 40 39  1  0  0  0  0
 42 41  1  0  0  0  0
 43 42  1  0  0  0  0
 44 45  1  0  0  0  0
 44 43  1  0  0  0  0
 46 45  1  0  0  0  0
 47 48  1  0  0  0  0
 48 46  1  0  0  0  0
 48 49  1  0  0  0  0
M  END
>  <MODEL>
3

>  <REMARK>
 VINA RESULT:      -7.8      3.445      8.317
  Name = 
  15 active torsions:
  status: ('A' for Active; 'I' for Inactive)
    1  A    between atoms: N_2  and  C_6
    2  A    between atoms: N_2  and  C_21
    3  A    between atoms: S_3  and  C_23
    4  A    between atoms: S_3  and  C_34
    5  A    between atoms: C_6  and  C_34
    6  A    between atoms: C_8  and  C_40
    7  A    between atoms: C_11  and  C_23
    8  A    between atoms: C_17  and  C_43
    9  A    between atoms: C_19  and  C_47
   10  A    between atoms: C_20  and  C_45
   11  A    between atoms: C_21  and  C_24
   12  A    between atoms: C_28  and  C_31
   13  A    between atoms: C_28  and  C_38
   14  A    between atoms: C_42  and  C_47
   15  A    between atoms: C_45  and  C_47
                            x       y       z     vdW  Elec       q    Type
                         _______ _______ _______ _____ _____    ______ ____

>  <TORSDO>
F 15

$$$$
=
 OpenBabel10222419203D

 49 53  0  0  1  0  0  0  0  0999 V2000
  188.6590  177.4990  144.0830 C   0  0  2  0  0  3  0  0  0  0  0  0
  190.6810  176.8750  145.4090 C   0  0  0  0  0  3  0  0  0  0  0  0
  191.3720  176.7970  146.6210 C   0  0  0  0  0  3  0  0  0  0  0  0
  188.8080  177.8480  146.5860 C   0  0  0  0  0  3  0  0  0  0  0  0
  189.5320  177.7520  147.7770 C   0  0  0  0  0  3  0  0  0  0  0  0
  190.7880  177.2320  147.7690 N   0  0  0  0  0  0  0  0  0  0  0  0
  189.3880  177.4020  145.3910 C   0  0  0  0  0  0  0  0  0  0  0  0
  185.2780  179.0800  143.4090 C   0  0  0  0  0  3  0  0  0  0  0  0
  186.4640  177.4700  145.3610 C   0  0  0  0  0  3  0  0  0  0  0  0
  186.6130  178.6900  143.2750 C   0  0  0  0  0  3  0  0  0  0  0  0
  187.2120  177.8810  144.2470 C   0  0  0  0  0  0  0  0  0  0  0  0
  185.1280  177.8580  145.4940 C   0  0  0  0  0  3  0  0  0  0  0  0
  184.5330  178.6640  144.5180 C   0  0  0  0  0  0  0  0  0  0  0  0
  183.1130  179.0980  144.6640 C   0  0  0  0  0  2  0  0  0  0  0  0
  180.0650  180.8860  142.4860 O   0  0  0  0  0  1  0  0  0  0  0  0
  180.9880  179.2920  140.9520 C   0  0  2  0  0  3  0  0  0  0  0  0
  180.2780  179.5210  142.2900 C   0  0  1  0  0  3  0  0  0  0  0  0
  181.0140  178.9580  143.4310 N   0  0  0  0  0  2  0  0  0  0  0  0
  180.0750  179.3300  139.8750 O   0  0  0  0  0  0  0  0  0  0  0  0
  181.8110  180.3950  138.7750 O   0  0  0  0  0  0  0  0  0  0  0  0
  181.7760  177.9760  140.9730 C   0  0  2  0  0  3  0  0  0  0  0  0
  182.3040  178.7450  138.4470 P   0  0  1  0  0  4  0  0  0  0  0  0
  183.2240  178.1020  142.0830 S   0  0  0  0  0  0  0  0  0  0  0  0
  182.4450  179.2380  143.3060 C   0  0  2  0  0  3  0  0  0  0  0  0
  180.7210  179.6170  138.6330 C   0  0  0  0  0  2  0  0  0  0  0  0
  182.1730  177.4660  139.6520 N   0  0  0  0  0  2  0  0  0  0  0  0
  182.3640  178.2960  137.0060 O   0  0  0  0  0  0  0  0  0  0  0  0
  187.9200  175.3440  143.2500 O   0  0  0  0  0  1  0  0  0  0  0  0
  188.9240  176.3090  143.1510 C   0  0  1  0  0  3  0  0  0  0  0  0
  189.0530  176.7520  141.7580 C   0  0  0  0  0  0  0  0  0  0  0  0
  189.1680  177.1130  140.6140 C   0  0  0  0  0  0  0  0  0  0  0  0
  189.2350  176.8410  136.3600 C   0  0  0  0  0  2  0  0  0  0  0  0
  189.3190  177.5490  139.2250 C   0  0  1  0  0  0  0  0  0  0  0  0
  190.5630  177.0690  137.0820 C   0  0  1  0  0  3  0  0  0  0  0  0
  188.0010  177.3230  138.4830 C   0  0  0  0  0  2  0  0  0  0  0  0
  189.6400  178.8960  139.2120 F   0  0  0  0  0  0  0  0  0  0  0  0
  188.1350  177.6790  137.0020 C   0  0  2  0  0  3  0  0  0  0  0  0
  190.4430  176.7440  138.5720 C   0  0  0  0  0  2  0  0  0  0  0  0
  186.8240  177.4230  136.2840 C   0  0  0  0  0  2  0  0  0  0  0  0
  185.7520  177.7110  137.1280 O   0  0  0  0  0  1  0  0  0  0  0  0
  191.6930  176.2760  136.4340 C   0  0  0  0  0  2  0  0  0  0  0  0
  193.0650  175.9490  137.5900 S   0  0  0  0  0  0  0  0  0  0  0  0
  193.1890  174.2210  137.0540 C   0  0  0  0  0  2  0  0  0  0  0  0
  194.6490  173.8360  136.9390 C   0  0  0  0  0  2  0  0  0  0  0  0
  195.4650  174.8240  137.6190 N   0  0  0  0  0  2  0  0  0  0  0  0
  196.5050  174.0990  138.3310 C   0  0  0  0  0  2  0  0  0  0  0  0
  195.6650  175.5730  139.9980 O   0  0  0  0  0  1  0  0  0  0  0  0
  196.7280  174.7200  139.6990 C   0  0  0  0  0  3  0  0  0  0  0  0
  197.9190  175.4470  139.7010 O   0  0  0  0  0  1  0  0  0  0  0  0
  1 29  1  1  0  0  0
  1 11  1  0  0  0  0
  1  7  1  0  0  0  0
  2  3  1  0  0  0  0
  3  6  2  0  0  0  0
  4  5  2  0  0  0  0
  6  5  1  0  0  0  0
  7  2  2  0  0  0  0
  7  4  1  0  0  0  0
  8 13  1  0  0  0  0
  9 12  1  0  0  0  0
 10  8  2  0  0  0  0
 10 11  1  0  0  0  0
 11  9  2  0  0  0  0
 13 14  1  0  0  0  0
 13 12  2  0  0  0  0
 16 19  1  6  0  0  0
 16 21  1  0  0  0  0
 16 17  1  0  0  0  0
 17 15  1  1  0  0  0
 17 18  1  0  0  0  0
 21 26  1  6  0  0  0
 21 23  1  0  0  0  0
 22 27  2  6  0  0  0
 22 20  1  0  0  0  0
 22 26  1  0  0  0  0
 23 24  1  0  0  0  0
 24 18  1  0  0  0  0
 24 14  1  1  0  0  0
 25 20  1  0  0  0  0
 25 19  1  0  0  0  0
 29 28  1  6  0  0  0
 30 29  1  0  0  0  0
 31 30  3  0  0  0  0
 32 37  1  0  0  0  0
 32 34  1  0  0  0  0
 33 36  1  6  0  0  0
 33 31  1  0  0  0  0
 34 41  1  6  0  0  0
 34 38  1  0  0  0  0
 35 33  1  0  0  0  0
 37 39  1  6  0  0  0
 37 35  1  0  0  0  0
 38 33  1  0  0  0  0
 39 40  1  0  0  0  0
 41 42  1  0  0  0  0
 43 42  1  0  0  0  0
 44 43  1  0  0  0  0
 44 45  1  0  0  0  0
 45 46  1  0  0  0  0
 46 48  1  0  0  0  0
 48 49  1  0  0  0  0
 48 47  1  0  0  0  0
M  END
>  <MODEL>
4

>  <REMARK>
 VINA RESULT:      -7.7      2.118      2.609
  Name = 
  15 active torsions:
  status: ('A' for Active; 'I' for Inactive)
    1  A    between atoms: N_2  and  C_6
    2  A    between atoms: N_2  and  C_21
    3  A    between atoms: S_3  and  C_23
    4  A    between atoms: S_3  and  C_34
    5  A    between atoms: C_6  and  C_34
    6  A    between atoms: C_8  and  C_40
    7  A    between atoms: C_11  and  C_23
    8  A    between atoms: C_17  and  C_43
    9  A    between atoms: C_19  and  C_47
   10  A    between atoms: C_20  and  C_45
   11  A    between atoms: C_21  and  C_24
   12  A    between atoms: C_28  and  C_31
   13  A    between atoms: C_28  and  C_38
   14  A    between atoms: C_42  and  C_47
   15  A    between atoms: C_45  and  C_47
                            x       y       z     vdW  Elec       q    Type
                         _______ _______ _______ _____ _____    ______ ____

>  <TORSDO>
F 15

$$$$
=
 OpenBabel10222419203D

 49 53  0  0  1  0  0  0  0  0999 V2000
  188.4520  176.8800  145.6570 C   0  0  2  0  0  3  0  0  0  0  0  0
  190.8420  176.1830  145.8580 C   0  0  0  0  0  3  0  0  0  0  0  0
  192.0530  176.1550  146.5530 C   0  0  0  0  0  3  0  0  0  0  0  0
  189.8780  177.4620  147.6670 C   0  0  0  0  0  3  0  0  0  0  0  0
  191.1050  177.4100  148.3310 C   0  0  0  0  0  3  0  0  0  0  0  0
  192.1580  176.7630  147.7650 N   0  0  0  0  0  0  0  0  0  0  0  0
  189.7440  176.8390  146.4190 C   0  0  0  0  0  0  0  0  0  0  0  0
  188.1230  177.1330  141.8870 C   0  0  0  0  0  3  0  0  0  0  0  0
  189.4310  178.4890  143.9520 C   0  0  0  0  0  3  0  0  0  0  0  0
  187.9700  176.7050  143.2090 C   0  0  0  0  0  3  0  0  0  0  0  0
  188.6190  177.3830  144.2480 C   0  0  0  0  0  0  0  0  0  0  0  0
  189.5820  178.9170  142.6310 C   0  0  0  0  0  3  0  0  0  0  0  0
  188.9280  178.2400  141.5960 C   0  0  0  0  0  0  0  0  0  0  0  0
  189.1010  178.6800  140.1810 C   0  0  0  0  0  2  0  0  0  0  0  0
  190.5410  175.1670  138.5020 O   0  0  0  0  0  1  0  0  0  0  0  0
  188.5410  175.6060  137.2530 C   0  0  2  0  0  3  0  0  0  0  0  0
  189.9410  176.0900  137.6440 C   0  0  1  0  0  3  0  0  0  0  0  0
  189.9330  177.4230  138.2650 N   0  0  0  0  0  2  0  0  0  0  0  0
  188.6020  174.6460  136.2200 O   0  0  0  0  0  0  0  0  0  0  0  0
  186.8620  173.6590  137.3840 O   0  0  0  0  0  0  0  0  0  0  0  0
  187.6450  176.7900  136.8680 C   0  0  2  0  0  3  0  0  0  0  0  0
  185.9030  174.7820  136.4390 P   0  0  1  0  0  4  0  0  0  0  0  0
  187.2340  177.8000  138.3360 S   0  0  0  0  0  0  0  0  0  0  0  0
  188.8290  177.5360  139.2180 C   0  0  2  0  0  3  0  0  0  0  0  0
  187.4290  173.8310  136.1740 C   0  0  0  0  0  2  0  0  0  0  0  0
  186.4290  176.4330  136.1220 N   0  0  0  0  0  2  0  0  0  0  0  0
  184.8880  174.2120  135.4770 O   0  0  0  0  0  0  0  0  0  0  0  0
  187.7560  178.5370  147.2870 O   0  0  0  0  0  1  0  0  0  0  0  0
  187.3020  177.5170  146.4500 C   0  0  1  0  0  3  0  0  0  0  0  0
  186.2680  178.0370  145.5480 C   0  0  0  0  0  0  0  0  0  0  0  0
  185.4250  178.4640  144.7990 C   0  0  0  0  0  0  0  0  0  0  0  0
  182.1210  178.4160  142.1060 C   0  0  0  0  0  2  0  0  0  0  0  0
  184.4100  178.9840  143.8830 C   0  0  1  0  0  0  0  0  0  0  0  0
  183.4990  178.7570  141.5400 C   0  0  1  0  0  3  0  0  0  0  0  0
  183.0220  178.6470  144.4300 C   0  0  0  0  0  2  0  0  0  0  0  0
  184.5560  180.3580  143.7860 F   0  0  0  0  0  0  0  0  0  0  0  0
  181.9260  179.0900  143.4600 C   0  0  2  0  0  3  0  0  0  0  0  0
  184.6100  178.3460  142.5080 C   0  0  0  0  0  2  0  0  0  0  0  0
  180.5620  178.7230  144.0120 C   0  0  0  0  0  2  0  0  0  0  0  0
  179.8400  178.0010  143.0610 O   0  0  0  0  0  1  0  0  0  0  0  0
  183.7070  178.1310  140.1640 C   0  0  0  0  0  2  0  0  0  0  0  0
  183.5060  179.3380  138.8130 S   0  0  0  0  0  0  0  0  0  0  0  0
  181.9010  178.6390  138.3420 C   0  0  0  0  0  2  0  0  0  0  0  0
  181.9700  178.1420  136.9130 C   0  0  0  0  0  2  0  0  0  0  0  0
  182.8520  176.9910  136.8450 N   0  0  0  0  0  2  0  0  0  0  0  0
  182.1590  175.8860  137.4850 C   0  0  0  0  0  2  0  0  0  0  0  0
  180.0790  174.7400  137.3570 O   0  0  0  0  0  1  0  0  0  0  0  0
  181.0500  175.3750  136.5820 C   0  0  0  0  0  3  0  0  0  0  0  0
  181.5700  174.4690  135.6580 O   0  0  0  0  0  1  0  0  0  0  0  0
  1  7  1  0  0  0  0
  1 29  1  1  0  0  0
  2  7  2  0  0  0  0
  2  3  1  0  0  0  0
  3  6  2  0  0  0  0
  4  5  2  0  0  0  0
  6  5  1  0  0  0  0
  7  4  1  0  0  0  0
  8 10  1  0  0  0  0
  9 11  1  0  0  0  0
 10 11  2  0  0  0  0
 11  1  1  0  0  0  0
 12  9  2  0  0  0  0
 13  8  2  0  0  0  0
 13 12  1  0  0  0  0
 14 13  1  0  0  0  0
 16 19  1  6  0  0  0
 16 17  1  0  0  0  0
 17 18  1  0  0  0  0
 17 15  1  1  0  0  0
 18 24  1  0  0  0  0
 21 26  1  1  0  0  0
 21 16  1  0  0  0  0
 21 23  1  0  0  0  0
 22 27  2  6  0  0  0
 22 20  1  0  0  0  0
 23 24  1  0  0  0  0
 24 14  1  1  0  0  0
 25 19  1  0  0  0  0
 25 20  1  0  0  0  0
 26 22  1  0  0  0  0
 29 28  1  6  0  0  0
 30 29  1  0  0  0  0
 31 30  3  0  0  0  0
 32 37  1  0  0  0  0
 33 36  1  6  0  0  0
 33 35  1  0  0  0  0
 33 31  1  0  0  0  0
 34 41  1  6  0  0  0
 34 32  1  0  0  0  0
 34 38  1  0  0  0  0
 37 39  1  1  0  0  0
 37 35  1  0  0  0  0
 38 33  1  0  0  0  0
 40 39  1  0  0  0  0
 42 41  1  0  0  0  0
 43 42  1  0  0  0  0
 44 43  1  0  0  0  0
 45 44  1  0  0  0  0
 45 46  1  0  0  0  0
 48 47  1  0  0  0  0
 48 46  1  0  0  0  0
 49 48  1  0  0  0  0
M  END
>  <MODEL>
5

>  <REMARK>
 VINA RESULT:      -7.6      3.164      7.673
  Name = 
  15 active torsions:
  status: ('A' for Active; 'I' for Inactive)
    1  A    between atoms: N_2  and  C_6
    2  A    between atoms: N_2  and  C_21
    3  A    between atoms: S_3  and  C_23
    4  A    between atoms: S_3  and  C_34
    5  A    between atoms: C_6  and  C_34
    6  A    between atoms: C_8  and  C_40
    7  A    between atoms: C_11  and  C_23
    8  A    between atoms: C_17  and  C_43
    9  A    between atoms: C_19  and  C_47
   10  A    between atoms: C_20  and  C_45
   11  A    between atoms: C_21  and  C_24
   12  A    between atoms: C_28  and  C_31
   13  A    between atoms: C_28  and  C_38
   14  A    between atoms: C_42  and  C_47
   15  A    between atoms: C_45  and  C_47
                            x       y       z     vdW  Elec       q    Type
                         _______ _______ _______ _____ _____    ______ ____

>  <TORSDO>
F 15

$$$$
=
 OpenBabel10222419203D

 49 53  0  0  1  0  0  0  0  0999 V2000
  189.2820  176.9010  138.7690 C   0  0  2  0  0  3  0  0  0  0  0  0
  190.5220  176.1570  136.7330 C   0  0  0  0  0  3  0  0  0  0  0  0
  191.7140  175.8660  136.0660 C   0  0  0  0  0  3  0  0  0  0  0  0
  191.8040  176.6960  138.7090 C   0  0  0  0  0  3  0  0  0  0  0  0
  192.9740  176.3940  138.0080 C   0  0  0  0  0  3  0  0  0  0  0  0
  192.9050  175.9890  136.7120 N   0  0  0  0  0  0  0  0  0  0  0  0
  190.5660  176.5730  138.0650 C   0  0  0  0  0  0  0  0  0  0  0  0
  186.2520  175.7780  136.7830 C   0  0  0  0  0  3  0  0  0  0  0  0
  187.7570  178.1070  137.1340 C   0  0  0  0  0  3  0  0  0  0  0  0
  187.3440  175.7780  137.6560 C   0  0  0  0  0  3  0  0  0  0  0  0
  188.0980  176.9430  137.8400 C   0  0  0  0  0  0  0  0  0  0  0  0
  186.6650  178.1070  136.2630 C   0  0  0  0  0  3  0  0  0  0  0  0
  185.9110  176.9420  136.0860 C   0  0  0  0  0  0  0  0  0  0  0  0
  184.7550  176.9300  135.1420 C   0  0  0  0  0  2  0  0  0  0  0  0
  181.4800  174.3790  135.1150 O   0  0  0  0  0  1  0  0  0  0  0  0
  180.9910  175.9000  136.9030 C   0  0  2  0  0  3  0  0  0  0  0  0
  181.2440  175.7250  135.4020 C   0  0  1  0  0  3  0  0  0  0  0  0
  182.3590  176.5470  134.9100 N   0  0  0  0  0  2  0  0  0  0  0  0
  179.6600  175.5680  137.2390 O   0  0  0  0  0  0  0  0  0  0  0  0
  180.6330  174.6870  139.1460 O   0  0  0  0  0  0  0  0  0  0  0  0
  181.3440  177.3240  137.3510 C   0  0  2  0  0  3  0  0  0  0  0  0
  180.4810  176.3410  139.7040 P   0  0  1  0  0  4  0  0  0  0  0  0
  183.1530  177.5920  137.3000 S   0  0  0  0  0  0  0  0  0  0  0  0
  183.4790  176.5040  135.8500 C   0  0  2  0  0  3  0  0  0  0  0  0
  179.5210  175.2410  138.6240 C   0  0  0  0  0  2  0  0  0  0  0  0
  180.7930  177.7220  138.6550 N   0  0  0  0  0  2  0  0  0  0  0  0
  179.6080  176.6060  140.9080 O   0  0  0  0  0  0  0  0  0  0  0  0
  189.0170  179.2870  139.1220 O   0  0  0  0  0  1  0  0  0  0  0  0
  189.4050  178.0920  139.7300 C   0  0  1  0  0  3  0  0  0  0  0  0
  188.6110  177.8710  140.9440 C   0  0  0  0  0  0  0  0  0  0  0  0
  187.9550  177.7000  141.9410 C   0  0  0  0  0  0  0  0  0  0  0  0
  185.8820  178.7000  145.5290 C   0  0  0  0  0  2  0  0  0  0  0  0
  187.1550  177.5020  143.1500 C   0  0  1  0  0  0  0  0  0  0  0  0
  187.1520  177.8580  145.6490 C   0  0  1  0  0  3  0  0  0  0  0  0
  185.8810  178.3410  143.0520 C   0  0  0  0  0  2  0  0  0  0  0  0
  186.8270  176.1600  143.2530 F   0  0  0  0  0  0  0  0  0  0  0  0
  185.0540  178.2390  144.3340 C   0  0  2  0  0  3  0  0  0  0  0  0
  187.9810  177.9260  144.3650 C   0  0  0  0  0  2  0  0  0  0  0  0
  183.8100  179.0990  144.2230 C   0  0  0  0  0  2  0  0  0  0  0  0
  183.0800  178.7380  143.0910 O   0  0  0  0  0  1  0  0  0  0  0  0
  187.9810  178.2680  146.8620 C   0  0  0  0  0  2  0  0  0  0  0  0
  188.5680  176.8330  147.8210 S   0  0  0  0  0  0  0  0  0  0  0  0
  190.2720  177.4540  147.8270 C   0  0  0  0  0  2  0  0  0  0  0  0
  191.1120  176.6230  146.8800 C   0  0  0  0  0  2  0  0  0  0  0  0
  191.1650  177.2730  145.5840 N   0  0  0  0  0  2  0  0  0  0  0  0
  191.6720  176.2930  144.6380 C   0  0  0  0  0  2  0  0  0  0  0  0
  190.4800  175.3100  142.8300 O   0  0  0  0  0  1  0  0  0  0  0  0
  191.0370  176.5090  143.2750 C   0  0  0  0  0  3  0  0  0  0  0  0
  192.0030  176.9370  142.3640 O   0  0  0  0  0  1  0  0  0  0  0  0
  1 29  1  6  0  0  0
  2  7  1  0  0  0  0
  3  6  1  0  0  0  0
  3  2  2  0  0  0  0
  5  4  1  0  0  0  0
  6  5  2  0  0  0  0
  7  4  2  0  0  0  0
  7  1  1  0  0  0  0
  8 10  1  0  0  0  0
  9 11  1  0  0  0  0
 10 11  2  0  0  0  0
 11  1  1  0  0  0  0
 12  9  2  0  0  0  0
 13 12  1  0  0  0  0
 13  8  2  0  0  0  0
 14 13  1  0  0  0  0
 16 19  1  6  0  0  0
 16 21  1  0  0  0  0
 17 15  1  1  0  0  0
 17 16  1  0  0  0  0
 18 17  1  0  0  0  0
 18 24  1  0  0  0  0
 19 25  1  0  0  0  0
 20 22  1  0  0  0  0
 21 23  1  1  0  0  0
 21 26  1  0  0  0  0
 22 27  2  6  0  0  0
 24 14  1  6  0  0  0
 24 23  1  0  0  0  0
 25 20  1  0  0  0  0
 26 22  1  0  0  0  0
 29 28  1  6  0  0  0
 29 30  1  0  0  0  0
 30 31  3  0  0  0  0
 31 33  1  0  0  0  0
 32 34  1  0  0  0  0
 33 36  1  1  0  0  0
 33 38  1  0  0  0  0
 34 41  1  1  0  0  0
 35 33  1  0  0  0  0
 35 37  1  0  0  0  0
 37 39  1  6  0  0  0
 37 32  1  0  0  0  0
 38 34  1  0  0  0  0
 40 39  1  0  0  0  0
 41 42  1  0  0  0  0
 42 43  1  0  0  0  0
 44 43  1  0  0  0  0
 45 44  1  0  0  0  0
 46 45  1  0  0  0  0
 47 48  1  0  0  0  0
 48 46  1  0  0  0  0
 49 48  1  0  0  0  0
M  END
>  <MODEL>
6

>  <REMARK>
 VINA RESULT:      -7.5      2.875      7.303
  Name = 
  15 active torsions:
  status: ('A' for Active; 'I' for Inactive)
    1  A    between atoms: N_2  and  C_6
    2  A    between atoms: N_2  and  C_21
    3  A    between atoms: S_3  and  C_23
    4  A    between atoms: S_3  and  C_34
    5  A    between atoms: C_6  and  C_34
    6  A    between atoms: C_8  and  C_40
    7  A    between atoms: C_11  and  C_23
    8  A    between atoms: C_17  and  C_43
    9  A    between atoms: C_19  and  C_47
   10  A    between atoms: C_20  and  C_45
   11  A    between atoms: C_21  and  C_24
   12  A    between atoms: C_28  and  C_31
   13  A    between atoms: C_28  and  C_38
   14  A    between atoms: C_42  and  C_47
   15  A    between atoms: C_45  and  C_47
                            x       y       z     vdW  Elec       q    Type
                         _______ _______ _______ _____ _____    ______ ____

>  <TORSDO>
F 15

$$$$
=
 OpenBabel10222419203D

 49 53  0  0  1  0  0  0  0  0999 V2000
  191.3460  176.2560  139.3630 C   0  0  2  0  0  3  0  0  0  0  0  0
  193.3090  175.5410  137.9950 C   0  0  0  0  0  3  0  0  0  0  0  0
  193.8640  174.8130  136.9400 C   0  0  0  0  0  3  0  0  0  0  0  0
  191.1300  174.6970  137.3800 C   0  0  0  0  0  3  0  0  0  0  0  0
  191.7220  173.9850  136.3350 C   0  0  0  0  0  3  0  0  0  0  0  0
  193.0660  174.0570  136.1380 N   0  0  0  0  0  0  0  0  0  0  0  0
  191.9320  175.4860  138.2160 C   0  0  0  0  0  0  0  0  0  0  0  0
  187.8410  177.6960  139.5010 C   0  0  0  0  0  3  0  0  0  0  0  0
  190.0370  177.7430  137.7740 C   0  0  0  0  0  3  0  0  0  0  0  0
  189.0080  177.0070  139.8390 C   0  0  0  0  0  3  0  0  0  0  0  0
  190.1130  177.0300  138.9800 C   0  0  0  0  0  0  0  0  0  0  0  0
  188.8710  178.4340  137.4370 C   0  0  0  0  0  3  0  0  0  0  0  0
  187.7700  178.4120  138.3010 C   0  0  0  0  0  0  0  0  0  0  0  0
  186.5140  179.1310  137.9380 C   0  0  0  0  0  2  0  0  0  0  0  0
  184.9410  175.3370  137.3370 O   0  0  0  0  0  1  0  0  0  0  0  0
  183.0480  176.6200  138.0580 C   0  0  2  0  0  3  0  0  0  0  0  0
  184.1370  176.4260  136.9980 C   0  0  1  0  0  3  0  0  0  0  0  0
  184.9680  177.6240  136.8060 N   0  0  0  0  0  2  0  0  0  0  0  0
  181.9720  175.7290  137.8540 O   0  0  0  0  0  0  0  0  0  0  0  0
  181.9470  175.6340  140.1660 O   0  0  0  0  0  0  0  0  0  0  0  0
  182.5720  178.0780  138.0880 C   0  0  2  0  0  3  0  0  0  0  0  0
  180.9480  177.0620  139.9800 P   0  0  1  0  0  4  0  0  0  0  0  0
  183.8720  179.1730  138.7630 S   0  0  0  0  0  0  0  0  0  0  0  0
  185.3030  178.2250  138.0970 C   0  0  2  0  0  3  0  0  0  0  0  0
  181.2080  175.5270  139.0450 C   0  0  0  0  0  2  0  0  0  0  0  0
  181.2910  178.3010  138.7740 N   0  0  0  0  0  2  0  0  0  0  0  0
  179.5260  177.0040  140.4860 O   0  0  0  0  0  0  0  0  0  0  0  0
  192.7010  178.2600  139.5510 O   0  0  0  0  0  1  0  0  0  0  0  0
  192.3940  177.0430  140.1630 C   0  0  1  0  0  3  0  0  0  0  0  0
  191.9380  177.2780  141.5370 C   0  0  0  0  0  0  0  0  0  0  0  0
  191.5710  177.4780  142.6680 C   0  0  0  0  0  0  0  0  0  0  0  0
  189.6350  176.7700  146.3990 C   0  0  0  0  0  2  0  0  0  0  0  0
  191.1340  177.7260  144.0420 C   0  0  1  0  0  0  0  0  0  0  0  0
  189.0880  177.8870  145.5120 C   0  0  1  0  0  3  0  0  0  0  0  0
  191.6670  176.6140  144.9460 C   0  0  0  0  0  2  0  0  0  0  0  0
  191.6350  178.9490  144.4560 F   0  0  0  0  0  0  0  0  0  0  0  0
  191.1600  176.7790  146.3800 C   0  0  2  0  0  3  0  0  0  0  0  0
  189.6050  177.7550  144.0780 C   0  0  0  0  0  2  0  0  0  0  0  0
  191.6810  175.6520  147.2500 C   0  0  0  0  0  2  0  0  0  0  0  0
  192.8740  176.0340  147.8630 O   0  0  0  0  0  1  0  0  0  0  0  0
  187.5630  177.9300  145.5460 C   0  0  0  0  0  2  0  0  0  0  0  0
  186.9030  177.8810  147.2450 S   0  0  0  0  0  0  0  0  0  0  0  0
  185.2260  178.2640  146.6720 C   0  0  0  0  0  2  0  0  0  0  0  0
  185.2720  178.6530  145.2090 C   0  0  0  0  0  2  0  0  0  0  0  0
  183.9460  179.0480  144.7730 N   0  0  0  0  0  2  0  0  0  0  0  0
  184.0870  179.6070  143.4380 C   0  0  0  0  0  2  0  0  0  0  0  0
  185.8220  179.6360  141.8120 O   0  0  0  0  0  1  0  0  0  0  0  0
  185.0800  178.7870  142.6340 C   0  0  0  0  0  3  0  0  0  0  0  0
  184.4000  177.8590  141.8450 O   0  0  0  0  0  1  0  0  0  0  0  0
  1 29  1  6  0  0  0
  2  7  1  0  0  0  0
  3  2  2  0  0  0  0
  4  7  2  0  0  0  0
  5  4  1  0  0  0  0
  6  5  2  0  0  0  0
  6  3  1  0  0  0  0
  7  1  1  0  0  0  0
  8 10  1  0  0  0  0
  9 11  1  0  0  0  0
 11  1  1  0  0  0  0
 11 10  2  0  0  0  0
 12  9  2  0  0  0  0
 12 13  1  0  0  0  0
 13  8  2  0  0  0  0
 14 13  1  0  0  0  0
 16 19  1  6  0  0  0
 16 21  1  0  0  0  0
 17 15  1  1  0  0  0
 17 16  1  0  0  0  0
 18 17  1  0  0  0  0
 18 24  1  0  0  0  0
 19 25  1  0  0  0  0
 21 23  1  1  0  0  0
 21 26  1  0  0  0  0
 22 20  1  0  0  0  0
 22 27  2  6  0  0  0
 24 14  1  6  0  0  0
 24 23  1  0  0  0  0
 25 20  1  0  0  0  0
 26 22  1  0  0  0  0
 29 28  1  6  0  0  0
 29 30  1  0  0  0  0
 30 31  3  0  0  0  0
 31 33  1  0  0  0  0
 33 38  1  0  0  0  0
 33 36  1  1  0  0  0
 33 35  1  0  0  0  0
 34 41  1  6  0  0  0
 34 32  1  0  0  0  0
 35 37  1  0  0  0  0
 37 32  1  0  0  0  0
 37 39  1  1  0  0  0
 38 34  1  0  0  0  0
 39 40  1  0  0  0  0
 41 42  1  0  0  0  0
 43 42  1  0  0  0  0
 44 43  1  0  0  0  0
 45 44  1  0  0  0  0
 46 45  1  0  0  0  0
 47 48  1  0  0  0  0
 48 46  1  0  0  0  0
 49 48  1  0  0  0  0
M  END
>  <MODEL>
7

>  <REMARK>
 VINA RESULT:      -7.3      2.985      8.124
  Name = 
  15 active torsions:
  status: ('A' for Active; 'I' for Inactive)
    1  A    between atoms: N_2  and  C_6
    2  A    between atoms: N_2  and  C_21
    3  A    between atoms: S_3  and  C_23
    4  A    between atoms: S_3  and  C_34
    5  A    between atoms: C_6  and  C_34
    6  A    between atoms: C_8  and  C_40
    7  A    between atoms: C_11  and  C_23
    8  A    between atoms: C_17  and  C_43
    9  A    between atoms: C_19  and  C_47
   10  A    between atoms: C_20  and  C_45
   11  A    between atoms: C_21  and  C_24
   12  A    between atoms: C_28  and  C_31
   13  A    between atoms: C_28  and  C_38
   14  A    between atoms: C_42  and  C_47
   15  A    between atoms: C_45  and  C_47
                            x       y       z     vdW  Elec       q    Type
                         _______ _______ _______ _____ _____    ______ ____

>  <TORSDO>
F 15

$$$$
=
 OpenBabel10222419203D

 49 53  0  0  1  0  0  0  0  0999 V2000
  191.6920  176.0040  138.8720 C   0  0  2  0  0  3  0  0  0  0  0  0
  193.7020  175.2470  137.5960 C   0  0  0  0  0  3  0  0  0  0  0  0
  194.3120  174.4030  136.6660 C   0  0  0  0  0  3  0  0  0  0  0  0
  191.6050  174.1170  137.1880 C   0  0  0  0  0  3  0  0  0  0  0  0
  192.2520  173.2930  136.2640 C   0  0  0  0  0  3  0  0  0  0  0  0
  193.5810  173.4530  136.0250 N   0  0  0  0  0  0  0  0  0  0  0  0
  192.3370  175.1060  137.8580 C   0  0  0  0  0  0  0  0  0  0  0  0
  188.5750  178.1530  138.6430 C   0  0  0  0  0  3  0  0  0  0  0  0
  190.4800  177.0680  136.9090 C   0  0  0  0  0  3  0  0  0  0  0  0
  189.6270  177.3870  139.1530 C   0  0  0  0  0  3  0  0  0  0  0  0
  190.5860  176.8440  138.2910 C   0  0  0  0  0  0  0  0  0  0  0  0
  189.4300  177.8350  136.3990 C   0  0  0  0  0  3  0  0  0  0  0  0
  188.4750  178.3780  137.2660 C   0  0  0  0  0  0  0  0  0  0  0  0
  187.3400  179.1820  136.7250 C   0  0  0  0  0  2  0  0  0  0  0  0
  183.9910  179.8160  139.0960 O   0  0  0  0  0  1  0  0  0  0  0  0
  183.7360  177.5480  138.3610 C   0  0  2  0  0  3  0  0  0  0  0  0
  184.5840  178.5530  139.1460 C   0  0  1  0  0  3  0  0  0  0  0  0
  185.9710  178.6290  138.6660 N   0  0  0  0  0  2  0  0  0  0  0  0
  182.6400  177.0940  139.1280 O   0  0  0  0  0  0  0  0  0  0  0  0
  181.5190  177.1740  137.1050 O   0  0  0  0  0  0  0  0  0  0  0  0
  184.5970  176.3800  137.8650 C   0  0  2  0  0  3  0  0  0  0  0  0
  182.2070  175.5710  136.9270 P   0  0  1  0  0  4  0  0  0  0  0  0
  185.7410  176.9290  136.5480 S   0  0  0  0  0  0  0  0  0  0  0  0
  186.0070  178.6290  137.2030 C   0  0  2  0  0  3  0  0  0  0  0  0
  181.5890  176.5760  138.3090 C   0  0  0  0  0  2  0  0  0  0  0  0
  183.8470  175.1880  137.4430 N   0  0  0  0  0  2  0  0  0  0  0  0
  181.2580  174.4020  136.8090 O   0  0  0  0  0  0  0  0  0  0  0  0
  193.1750  177.9110  139.1040 O   0  0  0  0  0  1  0  0  0  0  0  0
  192.7060  176.7620  139.7420 C   0  0  1  0  0  3  0  0  0  0  0  0
  192.1200  177.1180  141.0400 C   0  0  0  0  0  0  0  0  0  0  0  0
  191.6350  177.4180  142.1020 C   0  0  0  0  0  0  0  0  0  0  0  0
  189.5340  176.9510  145.7810 C   0  0  0  0  0  2  0  0  0  0  0  0
  191.0410  177.7920  143.3860 C   0  0  1  0  0  0  0  0  0  0  0  0
  188.8780  177.7910  144.6860 C   0  0  1  0  0  3  0  0  0  0  0  0
  191.6820  176.9570  144.4960 C   0  0  0  0  0  2  0  0  0  0  0  0
  191.2790  179.1370  143.6130 F   0  0  0  0  0  0  0  0  0  0  0  0
  191.0290  177.2460  145.8480 C   0  0  2  0  0  3  0  0  0  0  0  0
  189.5350  177.5360  143.3280 C   0  0  0  0  0  2  0  0  0  0  0  0
  191.6630  176.3890  146.9270 C   0  0  0  0  0  2  0  0  0  0  0  0
  191.8160  177.1310  148.0980 O   0  0  0  0  0  1  0  0  0  0  0  0
  187.3730  177.5490  144.6250 C   0  0  0  0  0  2  0  0  0  0  0  0
  186.5360  177.9720  146.1880 S   0  0  0  0  0  0  0  0  0  0  0  0
  185.2580  178.9230  145.3200 C   0  0  0  0  0  2  0  0  0  0  0  0
  185.1630  178.4430  143.8870 C   0  0  0  0  0  2  0  0  0  0  0  0
  184.1050  179.1650  143.2050 N   0  0  0  0  0  2  0  0  0  0  0  0
  182.9210  179.0750  144.0430 C   0  0  0  0  0  2  0  0  0  0  0  0
  182.0630  178.6790  141.8610 O   0  0  0  0  0  1  0  0  0  0  0  0
  181.6810  178.9400  143.1770 C   0  0  0  0  0  3  0  0  0  0  0  0
  180.9420  180.1230  143.2180 O   0  0  0  0  0  1  0  0  0  0  0  0
  1 29  1  6  0  0  0
  2  7  1  0  0  0  0
  3  2  2  0  0  0  0
  4  7  2  0  0  0  0
  5  4  1  0  0  0  0
  6  5  2  0  0  0  0
  6  3  1  0  0  0  0
  7  1  1  0  0  0  0
  8 10  1  0  0  0  0
  9 11  1  0  0  0  0
 11  1  1  0  0  0  0
 11 10  2  0  0  0  0
 12  9  2  0  0  0  0
 12 13  1  0  0  0  0
 13  8  2  0  0  0  0
 14 13  1  0  0  0  0
 16 19  1  1  0  0  0
 16 17  1  0  0  0  0
 17 15  1  6  0  0  0
 18 17  1  0  0  0  0
 20 25  1  0  0  0  0
 21 23  1  6  0  0  0
 21 16  1  0  0  0  0
 22 27  2  1  0  0  0
 22 20  1  0  0  0  0
 22 26  1  0  0  0  0
 23 24  1  0  0  0  0
 24 14  1  1  0  0  0
 24 18  1  0  0  0  0
 25 19  1  0  0  0  0
 26 21  1  0  0  0  0
 29 28  1  6  0  0  0
 29 30  1  0  0  0  0
 30 31  3  0  0  0  0
 31 33  1  0  0  0  0
 32 37  1  0  0  0  0
 33 36  1  1  0  0  0
 33 35  1  0  0  0  0
 34 41  1  6  0  0  0
 34 32  1  0  0  0  0
 35 37  1  0  0  0  0
 37 39  1  1  0  0  0
 38 33  1  0  0  0  0
 38 34  1  0  0  0  0
 39 40  1  0  0  0  0
 41 42  1  0  0  0  0
 43 42  1  0  0  0  0
 44 43  1  0  0  0  0
 45 44  1  0  0  0  0
 45 46  1  0  0  0  0
 47 48  1  0  0  0  0
 48 49  1  0  0  0  0
 48 46  1  0  0  0  0
M  END
>  <MODEL>
8

>  <REMARK>
 VINA RESULT:      -7.2      2.818      8.438
  Name = 
  15 active torsions:
  status: ('A' for Active; 'I' for Inactive)
    1  A    between atoms: N_2  and  C_6
    2  A    between atoms: N_2  and  C_21
    3  A    between atoms: S_3  and  C_23
    4  A    between atoms: S_3  and  C_34
    5  A    between atoms: C_6  and  C_34
    6  A    between atoms: C_8  and  C_40
    7  A    between atoms: C_11  and  C_23
    8  A    between atoms: C_17  and  C_43
    9  A    between atoms: C_19  and  C_47
   10  A    between atoms: C_20  and  C_45
   11  A    between atoms: C_21  and  C_24
   12  A    between atoms: C_28  and  C_31
   13  A    between atoms: C_28  and  C_38
   14  A    between atoms: C_42  and  C_47
   15  A    between atoms: C_45  and  C_47
                            x       y       z     vdW  Elec       q    Type
                         _______ _______ _______ _____ _____    ______ ____

>  <TORSDO>
F 15

$$$$
=
 OpenBabel10222419203D

 49 53  0  0  1  0  0  0  0  0999 V2000
  189.4390  177.0040  139.2970 C   0  0  2  0  0  3  0  0  0  0  0  0
  191.8220  177.2240  140.0120 C   0  0  0  0  0  3  0  0  0  0  0  0
  193.1900  177.1130  139.7560 C   0  0  0  0  0  3  0  0  0  0  0  0
  191.3780  176.4630  137.7620 C   0  0  0  0  0  3  0  0  0  0  0  0
  192.7540  176.3670  137.5450 C   0  0  0  0  0  3  0  0  0  0  0  0
  193.6240  176.6910  138.5380 N   0  0  0  0  0  0  0  0  0  0  0  0
  190.9080  176.8990  139.0080 C   0  0  0  0  0  0  0  0  0  0  0  0
  187.5110  174.8460  136.8450 C   0  0  0  0  0  3  0  0  0  0  0  0
  188.1030  177.5530  137.2070 C   0  0  0  0  0  3  0  0  0  0  0  0
  188.2860  175.2510  137.9360 C   0  0  0  0  0  3  0  0  0  0  0  0
  188.5820  176.6050  138.1250 C   0  0  0  0  0  0  0  0  0  0  0  0
  187.3280  177.1490  136.1180 C   0  0  0  0  0  3  0  0  0  0  0  0
  187.0300  175.7940  135.9350 C   0  0  0  0  0  0  0  0  0  0  0  0
  186.2190  175.3540  134.7630 C   0  0  0  0  0  2  0  0  0  0  0  0
  182.4170  176.7710  135.6400 O   0  0  0  0  0  1  0  0  0  0  0  0
  182.3090  174.4570  136.2600 C   0  0  2  0  0  3  0  0  0  0  0  0
  182.9630  175.8200  136.5050 C   0  0  1  0  0  3  0  0  0  0  0  0
  184.4250  175.7880  136.3560 N   0  0  0  0  0  2  0  0  0  0  0  0
  181.0580  174.3660  136.9100 O   0  0  0  0  0  0  0  0  0  0  0  0
  180.4440  173.1970  135.0090 O   0  0  0  0  0  0  0  0  0  0  0  0
  183.2460  173.3200  136.6870 C   0  0  2  0  0  3  0  0  0  0  0  0
  181.1310  171.8520  135.8980 P   0  0  1  0  0  4  0  0  0  0  0  0
  184.6750  173.1950  135.5520 S   0  0  0  0  0  0  0  0  0  0  0  0
  184.8030  174.9950  135.1860 C   0  0  2  0  0  3  0  0  0  0  0  0
  180.2210  173.3650  136.3270 C   0  0  0  0  0  2  0  0  0  0  0  0
  182.6000  172.0110  136.8600 N   0  0  0  0  0  2  0  0  0  0  0  0
  180.2210  170.7030  136.2620 O   0  0  0  0  0  0  0  0  0  0  0  0
  187.6940  178.6110  139.8020 O   0  0  0  0  0  1  0  0  0  0  0  0
  189.0480  178.3210  139.9800 C   0  0  1  0  0  3  0  0  0  0  0  0
  189.3640  178.2840  141.4120 C   0  0  0  0  0  0  0  0  0  0  0  0
  189.6230  178.2640  142.5890 C   0  0  0  0  0  0  0  0  0  0  0  0
  189.8370  176.7940  146.5850 C   0  0  0  0  0  2  0  0  0  0  0  0
  189.9370  178.2500  144.0180 C   0  0  1  0  0  0  0  0  0  0  0  0
  188.9110  177.9770  146.3080 C   0  0  1  0  0  3  0  0  0  0  0  0
  190.8600  177.0680  144.3170 C   0  0  0  0  0  2  0  0  0  0  0  0
  190.5720  179.4360  144.3480 F   0  0  0  0  0  0  0  0  0  0  0  0
  191.1440  176.9560  145.8160 C   0  0  2  0  0  3  0  0  0  0  0  0
  188.6360  178.1230  144.8100 C   0  0  0  0  0  2  0  0  0  0  0  0
  192.0390  175.7630  146.0890 C   0  0  0  0  0  2  0  0  0  0  0  0
  191.9060  175.3600  147.4180 O   0  0  0  0  0  1  0  0  0  0  0  0
  187.6110  177.8650  147.0990 C   0  0  0  0  0  2  0  0  0  0  0  0
  186.1980  177.3890  146.0510 S   0  0  0  0  0  0  0  0  0  0  0  0
  185.3280  178.9390  146.4100 C   0  0  0  0  0  2  0  0  0  0  0  0
  184.0470  178.9930  145.6030 C   0  0  0  0  0  2  0  0  0  0  0  0
  184.3200  178.5920  144.2350 N   0  0  0  0  0  2  0  0  0  0  0  0
  184.8060  179.7700  143.5350 C   0  0  0  0  0  2  0  0  0  0  0  0
  185.0610  179.7110  141.1720 O   0  0  0  0  0  1  0  0  0  0  0  0
  185.6840  179.3550  142.3680 C   0  0  0  0  0  3  0  0  0  0  0  0
  185.8840  177.9750  142.3910 O   0  0  0  0  0  1  0  0  0  0  0  0
  1 29  1  6  0  0  0
  3  2  1  0  0  0  0
  4  7  1  0  0  0  0
  5  4  2  0  0  0  0
  5  6  1  0  0  0  0
  6  3  2  0  0  0  0
  7  1  1  0  0  0  0
  7  2  2  0  0  0  0
  8 10  1  0  0  0  0
  9 11  1  0  0  0  0
 10 11  2  0  0  0  0
 11  1  1  0  0  0  0
 12  9  2  0  0  0  0
 13 12  1  0  0  0  0
 13  8  2  0  0  0  0
 14 13  1  0  0  0  0
 16 17  1  0  0  0  0
 16 21  1  0  0  0  0
 16 19  1  1  0  0  0
 17 15  1  6  0  0  0
 18 17  1  0  0  0  0
 20 22  1  0  0  0  0
 20 25  1  0  0  0  0
 21 23  1  6  0  0  0
 21 26  1  0  0  0  0
 22 27  2  1  0  0  0
 22 26  1  0  0  0  0
 24 14  1  1  0  0  0
 24 23  1  0  0  0  0
 24 18  1  0  0  0  0
 25 19  1  0  0  0  0
 29 28  1  1  0  0  0
 29 30  1  0  0  0  0
 30 31  3  0  0  0  0
 31 33  1  0  0  0  0
 33 35  1  0  0  0  0
 33 36  1  1  0  0  0
 33 38  1  0  0  0  0
 34 32  1  0  0  0  0
 34 41  1  1  0  0  0
 35 37  1  0  0  0  0
 37 39  1  6  0  0  0
 37 32  1  0  0  0  0
 38 34  1  0  0  0  0
 39 40  1  0  0  0  0
 42 43  1  0  0  0  0
 42 41  1  0  0  0  0
 44 43  1  0  0  0  0
 45 44  1  0  0  0  0
 46 45  1  0  0  0  0
 47 48  1  0  0  0  0
 48 49  1  0  0  0  0
 48 46  1  0  0  0  0
M  END
>  <MODEL>
9

>  <REMARK>
 VINA RESULT:      -7.0      3.503      8.267
  Name = 
  15 active torsions:
  status: ('A' for Active; 'I' for Inactive)
    1  A    between atoms: N_2  and  C_6
    2  A    between atoms: N_2  and  C_21
    3  A    between atoms: S_3  and  C_23
    4  A    between atoms: S_3  and  C_34
    5  A    between atoms: C_6  and  C_34
    6  A    between atoms: C_8  and  C_40
    7  A    between atoms: C_11  and  C_23
    8  A    between atoms: C_17  and  C_43
    9  A    between atoms: C_19  and  C_47
   10  A    between atoms: C_20  and  C_45
   11  A    between atoms: C_21  and  C_24
   12  A    between atoms: C_28  and  C_31
   13  A    between atoms: C_28  and  C_38
   14  A    between atoms: C_42  and  C_47
   15  A    between atoms: C_45  and  C_47
                            x       y       z     vdW  Elec       q    Type
                         _______ _______ _______ _____ _____    ______ ____

>  <TORSDO>
F 15

$$$$
