=
 OpenBabel10222419363D

 39 43  0  0  1  0  0  0  0  0999 V2000
  189.4160  177.5960  143.0990 C   0  0  0  0  0  0  0  0  0  0  0  0
  190.7770  177.8490  142.7300 N   0  0  0  0  0  0  0  0  0  0  0  0
  191.8990  177.5780  143.3260 C   0  0  0  0  0  3  0  0  0  0  0  0
  191.6170  176.3720  146.8940 C   0  0  2  0  0  3  0  0  0  0  0  0
  187.0830  178.1170  142.3610 C   0  0  0  0  0  0  0  0  0  0  0  0
  189.4550  177.7500  146.7950 C   0  0  2  0  0  3  0  0  0  0  0  0
  191.3090  174.8950  147.0540 C   0  0  0  0  0  1  0  0  0  0  0  0
  192.0420  176.9430  144.5990 N   0  0  0  0  0  0  0  0  0  0  0  0
  187.5050  177.1150  144.5590 C   0  0  0  0  0  2  0  0  0  0  0  0
  188.4250  177.5670  141.9610 C   0  0  0  0  0  2  0  0  0  0  0  0
  190.6430  177.3370  148.0890 S   0  0  0  0  0  0  0  0  0  0  0  0
  191.1770  176.8390  145.5560 C   0  0  0  0  0  0  0  0  0  0  0  0
  188.9710  177.4370  144.3650 C   0  0  1  0  0  3  0  0  0  0  0  0
  186.6260  177.8960  143.6150 C   0  0  0  0  0  0  0  0  0  0  0  0
  189.8550  177.4430  145.5550 C   0  0  0  0  0  0  0  0  0  0  0  0
  183.1240  178.7320  144.2500 C   0  0  0  0  0  3  0  0  0  0  0  0
  185.3460  178.3620  144.0850 N   0  0  0  0  0  0  0  0  0  0  0  0
  184.1770  178.3300  143.3230 N   0  0  0  0  0  0  0  0  0  0  0  0
  183.7080  179.0840  145.5460 N   0  0  0  0  0  0  0  0  0  0  0  0
  185.1220  178.7760  145.4450 C   0  0  0  0  0  3  0  0  0  0  0  0
  188.1300  178.3950  147.1020 C   0  0  0  0  0  2  0  0  0  0  0  0
  187.7720  178.3680  148.5780 C   0  0  0  0  0  1  0  0  0  0  0  0
  186.3190  178.8850  141.3300 C   0  0  0  0  0  2  0  0  0  0  0  0
  186.1360  178.0660  140.0610 C   0  0  0  0  0  2  0  0  0  0  0  0
  186.8070  178.6700  138.9960 O   0  0  0  0  0  0  0  0  0  0  0  0
  189.1870  178.5730  138.9330 C   0  0  0  0  0  2  0  0  0  0  0  0
  190.3640  177.6300  138.6990 C   0  0  0  0  0  2  0  0  0  0  0  0
  187.8290  177.3810  137.2680 C   0  0  0  0  0  2  0  0  0  0  0  0
  191.2900  175.9990  136.9800 N   0  0  0  0  0  2  0  0  0  0  0  0
  187.8830  177.8230  138.7250 C   0  0  2  0  0  3  0  0  0  0  0  0
  190.1940  176.7740  137.4650 C   0  0  0  0  0  0  0  0  0  0  0  0
  189.0310  176.6310  136.8950 N   0  0  0  0  0  0  0  0  0  0  0  0
  192.9130  176.0830  137.6780 S   0  0  0  0  0  0  0  0  0  0  0  0
  193.0460  175.9530  135.0370 O   0  0  0  0  0  0  0  0  0  0  0  0
  194.9720  176.8840  135.9820 N   0  0  0  0  0  2  0  0  0  0  0  0
  193.6680  176.3080  136.0740 C   0  0  0  0  0  0  0  0  0  0  0  0
  196.1290  178.5460  134.6350 C   0  0  0  0  0  1  0  0  0  0  0  0
  196.8270  176.1780  134.5940 C   0  0  0  0  0  1  0  0  0  0  0  0
  195.6420  177.1120  134.7120 C   0  0  0  0  0  3  0  0  0  0  0  0
  1 13  1  0  0  0  0
  2  1  2  0  0  0  0
  2  3  1  0  0  0  0
  3  8  2  0  0  0  0
  4  7  1  6  0  0  0
  4 11  1  0  0  0  0
  5 14  2  0  0  0  0
  6 21  1  6  0  0  0
  6 11  1  0  0  0  0
  8 12  1  0  0  0  0
 10  5  1  0  0  0  0
 10  1  1  0  0  0  0
 12  4  1  0  0  0  0
 13  9  1  6  0  0  0
 13 15  1  0  0  0  0
 14 17  1  0  0  0  0
 14  9  1  0  0  0  0
 15 12  2  0  0  0  0
 15  6  1  0  0  0  0
 16 19  1  0  0  0  0
 17 20  1  0  0  0  0
 18 17  1  0  0  0  0
 18 16  2  0  0  0  0
 20 19  2  0  0  0  0
 21 22  1  0  0  0  0
 23  5  1  0  0  0  0
 24 23  1  0  0  0  0
 25 24  1  0  0  0  0
 27 26  1  0  0  0  0
 28 30  1  0  0  0  0
 29 31  1  0  0  0  0
 29 33  1  0  0  0  0
 30 26  1  0  0  0  0
 30 25  1  6  0  0  0
 31 27  1  0  0  0  0
 32 28  1  0  0  0  0
 32 31  2  0  0  0  0
 34 36  2  0  0  0  0
 35 36  1  0  0  0  0
 36 33  1  0  0  0  0
 37 39  1  0  0  0  0
 38 39  1  0  0  0  0
 39 35  1  0  0  0  0
M  END
>  <MODEL>
1

>  <REMARK>
 VINA RESULT:      -8.4      0.000      0.000
  Name = 
  9 active torsions:
  status: ('A' for Active; 'I' for Inactive)
    1  A    between atoms: C_2  and  C_15
    2  A    between atoms: C_2  and  O_35
    3  A    between atoms: C_9  and  C_20
    4  A    between atoms: N_11  and  C_34
    5  A    between atoms: C_15  and  C_17
    6  A    between atoms: C_19  and  N_32
    7  A    between atoms: N_29  and  S_38
    8  A    between atoms: C_30  and  O_35
    9  A    between atoms: S_38  and  C_39
                            x       y       z     vdW  Elec       q    Type
                         _______ _______ _______ _____ _____    ______ ____

>  <TORSDO>
F 9

$$$$
=
 OpenBabel10222419363D

 39 43  0  0  1  0  0  0  0  0999 V2000
  189.1860  177.6850  142.3080 C   0  0  0  0  0  0  0  0  0  0  0  0
  190.4620  177.9750  141.7230 N   0  0  0  0  0  0  0  0  0  0  0  0
  191.6650  177.6060  142.0450 C   0  0  0  0  0  3  0  0  0  0  0  0
  192.0180  175.8860  145.3890 C   0  0  2  0  0  3  0  0  0  0  0  0
  186.7780  178.3350  142.1190 C   0  0  0  0  0  0  0  0  0  0  0  0
  189.9330  177.2870  145.9100 C   0  0  2  0  0  3  0  0  0  0  0  0
  191.6880  174.4050  145.3920 C   0  0  0  0  0  1  0  0  0  0  0  0
  192.0220  176.7880  143.1620 N   0  0  0  0  0  0  0  0  0  0  0  0
  187.5710  177.0130  144.0260 C   0  0  0  0  0  2  0  0  0  0  0  0
  187.9980  177.8370  141.3920 C   0  0  0  0  0  2  0  0  0  0  0  0
  191.3270  176.6730  146.8760 S   0  0  0  0  0  0  0  0  0  0  0  0
  191.3510  176.5520  144.2430 C   0  0  0  0  0  0  0  0  0  0  0  0
  188.9840  177.3440  143.6000 C   0  0  1  0  0  3  0  0  0  0  0  0
  186.5600  177.9350  143.3920 C   0  0  0  0  0  0  0  0  0  0  0  0
  190.0780  177.1640  144.5850 C   0  0  0  0  0  0  0  0  0  0  0  0
  183.2780  178.6480  144.8380 C   0  0  0  0  0  3  0  0  0  0  0  0
  185.4110  178.3400  144.1640 N   0  0  0  0  0  0  0  0  0  0  0  0
  184.1030  178.3330  143.6760 N   0  0  0  0  0  0  0  0  0  0  0  0
  184.1310  178.9270  145.9960 N   0  0  0  0  0  0  0  0  0  0  0  0
  185.4900  178.6580  145.5650 C   0  0  0  0  0  3  0  0  0  0  0  0
  188.7160  177.8930  146.5570 C   0  0  0  0  0  2  0  0  0  0  0  0
  188.3870  177.2880  147.9110 C   0  0  0  0  0  1  0  0  0  0  0  0
  185.8640  179.2570  141.3760 C   0  0  0  0  0  2  0  0  0  0  0  0
  185.1650  178.5320  140.2360 C   0  0  0  0  0  2  0  0  0  0  0  0
  185.5270  179.0990  139.0120 O   0  0  0  0  0  0  0  0  0  0  0  0
  187.0990  178.6970  137.2670 C   0  0  0  0  0  2  0  0  0  0  0  0
  187.8960  177.5960  136.5720 C   0  0  0  0  0  2  0  0  0  0  0  0
  185.2110  177.1710  137.6440 C   0  0  0  0  0  2  0  0  0  0  0  0
  187.5850  175.3660  135.3900 N   0  0  0  0  0  2  0  0  0  0  0  0
  186.2100  178.0870  138.3370 C   0  0  2  0  0  3  0  0  0  0  0  0
  187.0530  176.3890  136.2310 C   0  0  0  0  0  0  0  0  0  0  0  0
  185.8890  176.1980  136.7840 N   0  0  0  0  0  0  0  0  0  0  0  0
  189.1610  175.4910  134.5970 S   0  0  0  0  0  0  0  0  0  0  0  0
  189.6610  173.8290  136.5960 O   0  0  0  0  0  0  0  0  0  0  0  0
  191.0990  175.6730  136.5880 N   0  0  0  0  0  2  0  0  0  0  0  0
  190.0190  174.9080  136.0510 C   0  0  0  0  0  0  0  0  0  0  0  0
  192.9150  174.2480  137.3550 C   0  0  0  0  0  1  0  0  0  0  0  0
  192.5220  176.4590  138.3840 C   0  0  0  0  0  1  0  0  0  0  0  0
  191.8530  175.2530  137.7590 C   0  0  0  0  0  3  0  0  0  0  0  0
  1 13  1  0  0  0  0
  2  3  1  0  0  0  0
  2  1  2  0  0  0  0
  3  8  2  0  0  0  0
  4  7  1  1  0  0  0
  4 11  1  0  0  0  0
  5 14  2  0  0  0  0
  6 21  1  6  0  0  0
  6 11  1  0  0  0  0
  8 12  1  0  0  0  0
 10  5  1  0  0  0  0
 10  1  1  0  0  0  0
 12 15  2  0  0  0  0
 12  4  1  0  0  0  0
 13  9  1  6  0  0  0
 13 15  1  0  0  0  0
 14  9  1  0  0  0  0
 14 17  1  0  0  0  0
 15  6  1  0  0  0  0
 16 19  1  0  0  0  0
 17 20  1  0  0  0  0
 18 17  1  0  0  0  0
 18 16  2  0  0  0  0
 20 19  2  0  0  0  0
 21 22  1  0  0  0  0
 23  5  1  0  0  0  0
 24 23  1  0  0  0  0
 25 24  1  0  0  0  0
 26 30  1  0  0  0  0
 27 26  1  0  0  0  0
 28 30  1  0  0  0  0
 29 31  1  0  0  0  0
 30 25  1  6  0  0  0
 31 27  1  0  0  0  0
 31 32  2  0  0  0  0
 32 28  1  0  0  0  0
 33 29  1  0  0  0  0
 33 36  1  0  0  0  0
 35 39  1  0  0  0  0
 36 35  1  0  0  0  0
 36 34  2  0  0  0  0
 37 39  1  0  0  0  0
 39 38  1  0  0  0  0
M  END
>  <MODEL>
2

>  <REMARK>
 VINA RESULT:      -8.3      2.259      2.601
  Name = 
  9 active torsions:
  status: ('A' for Active; 'I' for Inactive)
    1  A    between atoms: C_2  and  C_15
    2  A    between atoms: C_2  and  O_35
    3  A    between atoms: C_9  and  C_20
    4  A    between atoms: N_11  and  C_34
    5  A    between atoms: C_15  and  C_17
    6  A    between atoms: C_19  and  N_32
    7  A    between atoms: N_29  and  S_38
    8  A    between atoms: C_30  and  O_35
    9  A    between atoms: S_38  and  C_39
                            x       y       z     vdW  Elec       q    Type
                         _______ _______ _______ _____ _____    ______ ____

>  <TORSDO>
F 9

$$$$
=
 OpenBabel10222419363D

 39 43  0  0  1  0  0  0  0  0999 V2000
  189.0240  177.7020  142.1020 C   0  0  0  0  0  0  0  0  0  0  0  0
  190.2300  177.9840  141.3820 N   0  0  0  0  0  0  0  0  0  0  0  0
  191.4520  177.5740  141.5460 C   0  0  0  0  0  3  0  0  0  0  0  0
  192.1420  175.7140  144.7610 C   0  0  2  0  0  3  0  0  0  0  0  0
  186.6300  178.4170  142.2210 C   0  0  0  0  0  0  0  0  0  0  0  0
  190.1730  177.1440  145.5740 C   0  0  2  0  0  3  0  0  0  0  0  0
  191.7720  174.2430  144.7480 C   0  0  0  0  0  1  0  0  0  0  0  0
  191.9130  176.7030  142.5830 N   0  0  0  0  0  0  0  0  0  0  0  0
  187.6010  177.0020  143.9720 C   0  0  0  0  0  2  0  0  0  0  0  0
  187.7420  177.9190  141.3380 C   0  0  0  0  0  2  0  0  0  0  0  0
  191.6530  176.4590  146.3470 S   0  0  0  0  0  0  0  0  0  0  0  0
  191.3660  176.4410  143.7260 C   0  0  0  0  0  0  0  0  0  0  0  0
  188.9640  177.3150  143.3950 C   0  0  1  0  0  3  0  0  0  0  0  0
  186.5500  177.9730  143.4950 C   0  0  0  0  0  0  0  0  0  0  0  0
  190.1590  177.0700  144.2370 C   0  0  0  0  0  0  0  0  0  0  0  0
  183.4810  178.7070  145.3420 C   0  0  0  0  0  3  0  0  0  0  0  0
  185.5110  178.3750  144.4110 N   0  0  0  0  0  0  0  0  0  0  0  0
  184.1550  178.4170  144.0810 N   0  0  0  0  0  0  0  0  0  0  0  0
  184.4700  178.9200  146.4000 N   0  0  0  0  0  0  0  0  0  0  0  0
  185.7620  178.6360  145.8040 C   0  0  0  0  0  3  0  0  0  0  0  0
  189.0580  177.7540  146.3810 C   0  0  0  0  0  2  0  0  0  0  0  0
  188.9730  177.2140  147.7990 C   0  0  0  0  0  1  0  0  0  0  0  0
  185.6620  179.3890  141.6250 C   0  0  0  0  0  2  0  0  0  0  0  0
  184.8960  178.7610  140.4700 C   0  0  0  0  0  2  0  0  0  0  0  0
  184.0130  177.7910  140.9500 O   0  0  0  0  0  0  0  0  0  0  0  0
  183.0710  178.9940  139.1210 C   0  0  0  0  0  2  0  0  0  0  0  0
  181.7850  179.1920  138.3240 C   0  0  0  0  0  2  0  0  0  0  0  0
  181.8000  178.6480  141.1950 C   0  0  0  0  0  2  0  0  0  0  0  0
  179.3330  179.7950  138.6310 N   0  0  0  0  0  2  0  0  0  0  0  0
  182.8220  178.0180  140.2580 C   0  0  2  0  0  3  0  0  0  0  0  0
  180.5720  179.3820  139.2060 C   0  0  0  0  0  0  0  0  0  0  0  0
  180.5970  179.0610  140.4680 N   0  0  0  0  0  0  0  0  0  0  0  0
  179.1600  180.2370  136.9270 S   0  0  0  0  0  0  0  0  0  0  0  0
  178.9450  182.4890  138.3020 O   0  0  0  0  0  0  0  0  0  0  0  0
  180.2440  182.7410  136.3740 N   0  0  0  0  0  2  0  0  0  0  0  0
  179.4490  181.9650  137.2720 C   0  0  0  0  0  0  0  0  0  0  0  0
  181.7670  184.2890  137.4720 C   0  0  0  0  0  1  0  0  0  0  0  0
  180.7890  184.8270  135.2690 C   0  0  0  0  0  1  0  0  0  0  0  0
  180.5350  184.1490  136.5980 C   0  0  0  0  0  3  0  0  0  0  0  0
  1 13  1  0  0  0  0
  2  3  1  0  0  0  0
  2  1  2  0  0  0  0
  3  8  2  0  0  0  0
  4  7  1  1  0  0  0
  4 11  1  0  0  0  0
  5 14  2  0  0  0  0
  6 11  1  0  0  0  0
  6 21  1  6  0  0  0
  8 12  1  0  0  0  0
 10  1  1  0  0  0  0
 10  5  1  0  0  0  0
 12 15  2  0  0  0  0
 12  4  1  0  0  0  0
 13  9  1  6  0  0  0
 13 15  1  0  0  0  0
 14  9  1  0  0  0  0
 14 17  1  0  0  0  0
 15  6  1  0  0  0  0
 16 19  1  0  0  0  0
 17 20  1  0  0  0  0
 18 17  1  0  0  0  0
 18 16  2  0  0  0  0
 20 19  2  0  0  0  0
 21 22  1  0  0  0  0
 23  5  1  0  0  0  0
 24 25  1  0  0  0  0
 24 23  1  0  0  0  0
 26 30  1  0  0  0  0
 27 26  1  0  0  0  0
 27 31  1  0  0  0  0
 29 31  1  0  0  0  0
 30 25  1  1  0  0  0
 30 28  1  0  0  0  0
 31 32  2  0  0  0  0
 32 28  1  0  0  0  0
 33 36  1  0  0  0  0
 33 29  1  0  0  0  0
 35 39  1  0  0  0  0
 35 36  1  0  0  0  0
 36 34  2  0  0  0  0
 38 39  1  0  0  0  0
 39 37  1  0  0  0  0
M  END
>  <MODEL>
3

>  <REMARK>
 VINA RESULT:      -8.3      4.760      7.872
  Name = 
  9 active torsions:
  status: ('A' for Active; 'I' for Inactive)
    1  A    between atoms: C_2  and  C_15
    2  A    between atoms: C_2  and  O_35
    3  A    between atoms: C_9  and  C_20
    4  A    between atoms: N_11  and  C_34
    5  A    between atoms: C_15  and  C_17
    6  A    between atoms: C_19  and  N_32
    7  A    between atoms: N_29  and  S_38
    8  A    between atoms: C_30  and  O_35
    9  A    between atoms: S_38  and  C_39
                            x       y       z     vdW  Elec       q    Type
                         _______ _______ _______ _____ _____    ______ ____

>  <TORSDO>
F 9

$$$$
=
 OpenBabel10222419363D

 39 43  0  0  1  0  0  0  0  0999 V2000
  185.5370  178.4270  138.8100 C   0  0  0  0  0  0  0  0  0  0  0  0
  186.7870  178.6050  139.4850 N   0  0  0  0  0  2  0  0  0  0  0  0
  188.0040  178.3000  139.1470 C   0  0  0  0  0  3  0  0  0  0  0  0
  188.3600  176.0960  136.1000 C   0  0  2  0  0  3  0  0  0  0  0  0
  183.0780  178.6790  139.1930 C   0  0  0  0  0  0  0  0  0  0  0  0
  186.0250  175.3340  136.8390 C   0  0  2  0  0  3  0  0  0  0  0  0
  188.2960  176.8210  134.7680 C   0  0  0  0  0  1  0  0  0  0  0  0
  188.4000  177.6370  137.9440 N   0  0  0  0  0  0  0  0  0  0  0  0
  183.9200  177.4840  137.2250 C   0  0  0  0  0  2  0  0  0  0  0  0
  184.4240  179.3500  139.2410 C   0  0  0  0  0  2  0  0  0  0  0  0
  187.4160  174.5450  136.0040 S   0  0  0  0  0  0  0  0  0  0  0  0
  187.6890  176.9040  137.1490 C   0  0  0  0  0  0  0  0  0  0  0  0
  185.2860  177.4820  137.8770 C   0  0  0  0  0  0  0  0  0  0  0  0
  182.8230  177.7800  138.2160 C   0  0  0  0  0  0  0  0  0  0  0  0
  186.3040  176.5280  137.3770 C   0  0  0  0  0  0  0  0  0  0  0  0
  179.8090  175.7220  138.4390 C   0  0  0  0  0  3  0  0  0  0  0  0
  181.5580  177.1030  138.0730 N   0  0  0  0  0  0  0  0  0  0  0  0
  181.2140  175.9400  138.7650 N   0  0  0  0  0  0  0  0  0  0  0  0
  179.3580  176.7280  137.4740 N   0  0  0  0  0  0  0  0  0  0  0  0
  180.4690  177.6450  137.3030 C   0  0  0  0  0  3  0  0  0  0  0  0
  184.6700  174.6840  136.9240 C   0  0  0  0  0  2  0  0  0  0  0  0
  184.6940  173.3210  137.5930 C   0  0  0  0  0  1  0  0  0  0  0  0
  182.0840  179.0560  140.2460 C   0  0  0  0  0  2  0  0  0  0  0  0
  182.3380  178.2930  141.5370 C   0  0  0  0  0  2  0  0  0  0  0  0
  182.6410  179.1820  142.5700 O   0  0  0  0  0  0  0  0  0  0  0  0
  184.0560  179.4270  144.4710 C   0  0  0  0  0  2  0  0  0  0  0  0
  185.0570  178.6830  145.3510 C   0  0  0  0  0  2  0  0  0  0  0  0
  184.8170  178.2080  142.4780 C   0  0  0  0  0  2  0  0  0  0  0  0
  187.2240  177.3590  145.2090 N   0  0  0  0  0  2  0  0  0  0  0  0
  183.6010  178.5230  143.3390 C   0  0  2  0  0  3  0  0  0  0  0  0
  186.0910  177.9250  144.5510 C   0  0  0  0  0  0  0  0  0  0  0  0
  185.9150  177.6720  143.2850 N   0  0  0  0  0  0  0  0  0  0  0  0
  187.5670  177.6080  146.9260 S   0  0  0  0  0  0  0  0  0  0  0  0
  190.1120  177.4800  147.6430 O   0  0  0  0  0  0  0  0  0  0  0  0
  189.8430  177.5800  145.3230 N   0  0  0  0  0  2  0  0  0  0  0  0
  189.3310  177.5470  146.6560 C   0  0  0  0  0  0  0  0  0  0  0  0
  191.5790  176.2450  144.2640 C   0  0  0  0  0  1  0  0  0  0  0  0
  191.6550  178.7120  144.1800 C   0  0  0  0  0  1  0  0  0  0  0  0
  191.2660  177.5180  145.0260 C   0  0  0  0  0  3  0  0  0  0  0  0
  1 10  1  0  0  0  0
  1  2  1  0  0  0  0
  3  2  1  0  0  0  0
  4  7  1  6  0  0  0
  4 12  1  0  0  0  0
  5 10  1  0  0  0  0
  5 23  1  0  0  0  0
  6 21  1  1  0  0  0
  6 15  1  0  0  0  0
  8  3  2  0  0  0  0
  9 13  1  0  0  0  0
  9 14  1  0  0  0  0
 11  4  1  0  0  0  0
 11  6  1  0  0  0  0
 12 15  2  0  0  0  0
 12  8  1  0  0  0  0
 13  1  2  0  0  0  0
 14  5  2  0  0  0  0
 15 13  1  0  0  0  0
 16 18  2  0  0  0  0
 17 14  1  0  0  0  0
 17 18  1  0  0  0  0
 19 16  1  0  0  0  0
 20 19  2  0  0  0  0
 20 17  1  0  0  0  0
 21 22  1  0  0  0  0
 23 24  1  0  0  0  0
 24 25  1  0  0  0  0
 26 27  1  0  0  0  0
 28 32  1  0  0  0  0
 28 30  1  0  0  0  0
 29 33  1  0  0  0  0
 30 25  1  6  0  0  0
 30 26  1  0  0  0  0
 31 29  1  0  0  0  0
 31 27  1  0  0  0  0
 32 31  2  0  0  0  0
 35 36  1  0  0  0  0
 36 33  1  0  0  0  0
 36 34  2  0  0  0  0
 37 39  1  0  0  0  0
 38 39  1  0  0  0  0
 39 35  1  0  0  0  0
M  END
>  <MODEL>
4

>  <REMARK>
 VINA RESULT:      -8.3      4.046      8.907
  Name = 
  9 active torsions:
  status: ('A' for Active; 'I' for Inactive)
    1  A    between atoms: C_2  and  C_15
    2  A    between atoms: C_2  and  O_35
    3  A    between atoms: C_9  and  C_20
    4  A    between atoms: N_11  and  C_34
    5  A    between atoms: C_15  and  C_17
    6  A    between atoms: C_19  and  N_32
    7  A    between atoms: N_29  and  S_38
    8  A    between atoms: C_30  and  O_35
    9  A    between atoms: S_38  and  C_39
                            x       y       z     vdW  Elec       q    Type
                         _______ _______ _______ _____ _____    ______ ____

>  <TORSDO>
F 9

$$$$
=
 OpenBabel10222419363D

 39 43  0  0  1  0  0  0  0  0999 V2000
  189.2830  177.6450  142.6880 C   0  0  0  0  0  0  0  0  0  0  0  0
  190.5990  177.9240  142.1940 N   0  0  0  0  0  0  0  0  0  0  0  0
  191.7760  177.6160  142.6470 C   0  0  0  0  0  3  0  0  0  0  0  0
  191.8700  176.1730  146.1360 C   0  0  2  0  0  3  0  0  0  0  0  0
  186.8880  178.2090  142.2410 C   0  0  0  0  0  0  0  0  0  0  0  0
  189.7180  177.5510  146.3610 C   0  0  2  0  0  3  0  0  0  0  0  0
  191.5730  174.6880  146.2300 C   0  0  0  0  0  1  0  0  0  0  0  0
  192.0510  176.8980  143.8520 N   0  0  0  0  0  0  0  0  0  0  0  0
  187.5370  177.0630  144.3090 C   0  0  0  0  0  2  0  0  0  0  0  0
  188.1770  177.6900  141.6640 C   0  0  0  0  0  2  0  0  0  0  0  0
  191.0350  177.0550  147.4900 S   0  0  0  0  0  0  0  0  0  0  0  0
  191.2930  176.7280  144.8870 C   0  0  0  0  0  0  0  0  0  0  0  0
  188.9750  177.4000  143.9810 C   0  0  1  0  0  3  0  0  0  0  0  0
  186.5670  177.9040  143.5180 C   0  0  0  0  0  0  0  0  0  0  0  0
  189.9810  177.3290  145.0680 C   0  0  0  0  0  0  0  0  0  0  0  0
  183.1560  178.6540  144.6000 C   0  0  0  0  0  3  0  0  0  0  0  0
  185.3460  178.3360  144.1530 N   0  0  0  0  0  0  0  0  0  0  0  0
  184.0910  178.2880  143.5420 N   0  0  0  0  0  0  0  0  0  0  0  0
  183.8900  179.0020  145.8190 N   0  0  0  0  0  0  0  0  0  0  0  0
  185.2860  178.7260  145.5370 C   0  0  0  0  0  3  0  0  0  0  0  0
  188.4360  178.1720  146.8500 C   0  0  0  0  0  2  0  0  0  0  0  0
  188.2020  177.9810  148.3390 C   0  0  0  0  0  1  0  0  0  0  0  0
  186.0230  179.0430  141.3500 C   0  0  0  0  0  2  0  0  0  0  0  0
  185.5670  178.2530  140.1330 C   0  0  0  0  0  2  0  0  0  0  0  0
  185.9280  178.9230  138.9610 O   0  0  0  0  0  0  0  0  0  0  0  0
  188.1340  178.2510  138.3630 C   0  0  0  0  0  2  0  0  0  0  0  0
  188.9220  177.1870  137.6050 C   0  0  0  0  0  2  0  0  0  0  0  0
  186.2900  178.1190  136.7450 C   0  0  0  0  0  2  0  0  0  0  0  0
  189.0890  176.0970  135.3120 N   0  0  0  0  0  2  0  0  0  0  0  0
  186.6460  177.9840  138.2190 C   0  0  2  0  0  3  0  0  0  0  0  0
  188.3530  176.9010  136.2340 C   0  0  0  0  0  0  0  0  0  0  0  0
  187.1460  177.2720  135.9110 N   0  0  0  0  0  0  0  0  0  0  0  0
  190.7250  175.5100  135.6370 S   0  0  0  0  0  0  0  0  0  0  0  0
  190.6930  173.3830  137.2120 O   0  0  0  0  0  0  0  0  0  0  0  0
  188.9970  173.3280  135.6040 N   0  0  0  0  0  2  0  0  0  0  0  0
  190.1200  173.9410  136.2380 C   0  0  0  0  0  0  0  0  0  0  0  0
  187.4600  172.2950  137.1820 C   0  0  0  0  0  1  0  0  0  0  0  0
  187.7150  171.3980  134.8950 C   0  0  0  0  0  1  0  0  0  0  0  0
  188.4400  172.0600  136.0480 C   0  0  0  0  0  3  0  0  0  0  0  0
  1 13  1  0  0  0  0
  2  3  1  0  0  0  0
  2  1  2  0  0  0  0
  3  8  2  0  0  0  0
  4  7  1  1  0  0  0
  4 11  1  0  0  0  0
  5 14  2  0  0  0  0
  6 21  1  6  0  0  0
  6 11  1  0  0  0  0
  8 12  1  0  0  0  0
 10  5  1  0  0  0  0
 10  1  1  0  0  0  0
 12 15  2  0  0  0  0
 12  4  1  0  0  0  0
 13  9  1  6  0  0  0
 13 15  1  0  0  0  0
 14 17  1  0  0  0  0
 14  9  1  0  0  0  0
 15  6  1  0  0  0  0
 16 19  1  0  0  0  0
 17 20  1  0  0  0  0
 18 17  1  0  0  0  0
 18 16  2  0  0  0  0
 20 19  2  0  0  0  0
 21 22  1  0  0  0  0
 23  5  1  0  0  0  0
 24 23  1  0  0  0  0
 25 24  1  0  0  0  0
 27 26  1  0  0  0  0
 28 30  1  0  0  0  0
 29 33  1  0  0  0  0
 29 31  1  0  0  0  0
 30 26  1  0  0  0  0
 30 25  1  1  0  0  0
 31 27  1  0  0  0  0
 32 31  2  0  0  0  0
 32 28  1  0  0  0  0
 33 36  1  0  0  0  0
 35 39  1  0  0  0  0
 35 36  1  0  0  0  0
 36 34  2  0  0  0  0
 38 39  1  0  0  0  0
 39 37  1  0  0  0  0
M  END
>  <MODEL>
5

>  <REMARK>
 VINA RESULT:      -8.1      2.591      3.334
  Name = 
  9 active torsions:
  status: ('A' for Active; 'I' for Inactive)
    1  A    between atoms: C_2  and  C_15
    2  A    between atoms: C_2  and  O_35
    3  A    between atoms: C_9  and  C_20
    4  A    between atoms: N_11  and  C_34
    5  A    between atoms: C_15  and  C_17
    6  A    between atoms: C_19  and  N_32
    7  A    between atoms: N_29  and  S_38
    8  A    between atoms: C_30  and  O_35
    9  A    between atoms: S_38  and  C_39
                            x       y       z     vdW  Elec       q    Type
                         _______ _______ _______ _____ _____    ______ ____

>  <TORSDO>
F 9

$$$$
=
 OpenBabel10222419363D

 39 43  0  0  1  0  0  0  0  0999 V2000
  189.2310  177.6680  142.3650 C   0  0  0  0  0  0  0  0  0  0  0  0
  190.5050  177.9410  141.7690 N   0  0  0  0  0  0  0  0  0  0  0  0
  191.7020  177.5290  142.0610 C   0  0  0  0  0  3  0  0  0  0  0  0
  192.0560  175.7000  145.3460 C   0  0  2  0  0  3  0  0  0  0  0  0
  186.8400  178.3890  142.2330 C   0  0  0  0  0  0  0  0  0  0  0  0
  190.0190  177.1410  145.9410 C   0  0  2  0  0  3  0  0  0  0  0  0
  191.6850  174.2290  145.3100 C   0  0  0  0  0  1  0  0  0  0  0  0
  192.0530  176.6680  143.1470 N   0  0  0  0  0  0  0  0  0  0  0  0
  187.6230  176.9890  144.0880 C   0  0  0  0  0  2  0  0  0  0  0  0
  188.0340  177.8800  141.4720 C   0  0  0  0  0  2  0  0  0  0  0  0
  191.4100  176.4610  146.8670 S   0  0  0  0  0  0  0  0  0  0  0  0
  191.3910  176.4180  144.2310 C   0  0  0  0  0  0  0  0  0  0  0  0
  189.0380  177.2940  143.6490 C   0  0  1  0  0  3  0  0  0  0  0  0
  186.6290  177.9580  143.4970 C   0  0  0  0  0  0  0  0  0  0  0  0
  190.1410  177.0540  144.6110 C   0  0  0  0  0  0  0  0  0  0  0  0
  183.3930  178.6620  145.0460 C   0  0  0  0  0  3  0  0  0  0  0  0
  185.5030  178.3710  144.2980 N   0  0  0  0  0  0  0  0  0  0  0  0
  184.1770  178.3150  143.8660 N   0  0  0  0  0  0  0  0  0  0  0  0
  184.2850  179.0070  146.1550 N   0  0  0  0  0  0  0  0  0  0  0  0
  185.6320  178.7490  145.6810 C   0  0  0  0  0  3  0  0  0  0  0  0
  188.8300  177.7610  146.6250 C   0  0  0  0  0  2  0  0  0  0  0  0
  188.9870  177.8670  148.1320 C   0  0  0  0  0  1  0  0  0  0  0  0
  185.9400  179.3580  141.5320 C   0  0  0  0  0  2  0  0  0  0  0  0
  185.3420  178.7400  140.2770 C   0  0  0  0  0  2  0  0  0  0  0  0
  184.5740  179.6860  139.5950 O   0  0  0  0  0  0  0  0  0  0  0  0
  182.7330  178.1730  139.6230 C   0  0  0  0  0  2  0  0  0  0  0  0
  181.7710  177.4050  138.7210 C   0  0  0  0  0  2  0  0  0  0  0  0
  184.5550  177.9170  137.9940 C   0  0  0  0  0  2  0  0  0  0  0  0
  181.7560  175.7530  136.7870 N   0  0  0  0  0  2  0  0  0  0  0  0
  183.7320  178.9360  138.7710 C   0  0  2  0  0  3  0  0  0  0  0  0
  182.4730  176.6900  137.5890 C   0  0  0  0  0  0  0  0  0  0  0  0
  183.6930  176.9960  137.2490 N   0  0  0  0  0  0  0  0  0  0  0  0
  180.0890  175.2680  137.1270 S   0  0  0  0  0  0  0  0  0  0  0  0
  179.8910  172.8440  138.1730 O   0  0  0  0  0  0  0  0  0  0  0  0
  181.7010  173.0370  136.7040 N   0  0  0  0  0  2  0  0  0  0  0  0
  180.5620  173.5660  137.3860 C   0  0  0  0  0  0  0  0  0  0  0  0
  181.5550  170.8090  135.7380 C   0  0  0  0  0  1  0  0  0  0  0  0
  183.6470  171.5970  136.7890 C   0  0  0  0  0  1  0  0  0  0  0  0
  182.1350  171.6570  136.8540 C   0  0  0  0  0  3  0  0  0  0  0  0
  1 13  1  0  0  0  0
  2  3  1  0  0  0  0
  2  1  2  0  0  0  0
  3  8  2  0  0  0  0
  4  7  1  1  0  0  0
  4 11  1  0  0  0  0
  5 14  2  0  0  0  0
  6 21  1  6  0  0  0
  6 11  1  0  0  0  0
  8 12  1  0  0  0  0
 10  5  1  0  0  0  0
 10  1  1  0  0  0  0
 12 15  2  0  0  0  0
 12  4  1  0  0  0  0
 13  9  1  6  0  0  0
 13 15  1  0  0  0  0
 14  9  1  0  0  0  0
 14 17  1  0  0  0  0
 15  6  1  0  0  0  0
 16 19  1  0  0  0  0
 17 20  1  0  0  0  0
 18 17  1  0  0  0  0
 18 16  2  0  0  0  0
 20 19  2  0  0  0  0
 21 22  1  0  0  0  0
 23  5  1  0  0  0  0
 24 23  1  0  0  0  0
 25 24  1  0  0  0  0
 27 26  1  0  0  0  0
 28 30  1  0  0  0  0
 29 33  1  0  0  0  0
 29 31  1  0  0  0  0
 30 25  1  1  0  0  0
 30 26  1  0  0  0  0
 31 27  1  0  0  0  0
 32 31  2  0  0  0  0
 32 28  1  0  0  0  0
 33 36  1  0  0  0  0
 35 39  1  0  0  0  0
 35 36  1  0  0  0  0
 36 34  2  0  0  0  0
 37 39  1  0  0  0  0
 38 39  1  0  0  0  0
M  END
>  <MODEL>
6

>  <REMARK>
 VINA RESULT:      -8.0      4.407      6.755
  Name = 
  9 active torsions:
  status: ('A' for Active; 'I' for Inactive)
    1  A    between atoms: C_2  and  C_15
    2  A    between atoms: C_2  and  O_35
    3  A    between atoms: C_9  and  C_20
    4  A    between atoms: N_11  and  C_34
    5  A    between atoms: C_15  and  C_17
    6  A    between atoms: C_19  and  N_32
    7  A    between atoms: N_29  and  S_38
    8  A    between atoms: C_30  and  O_35
    9  A    between atoms: S_38  and  C_39
                            x       y       z     vdW  Elec       q    Type
                         _______ _______ _______ _____ _____    ______ ____

>  <TORSDO>
F 9

$$$$
=
 OpenBabel10222419363D

 39 43  0  0  1  0  0  0  0  0999 V2000
  189.1730  177.6750  142.6090 C   0  0  0  0  0  0  0  0  0  0  0  0
  190.4410  177.9820  142.0160 N   0  0  0  0  0  0  0  0  0  0  0  0
  191.6510  177.6300  142.3310 C   0  0  0  0  0  3  0  0  0  0  0  0
  192.0470  175.9190  145.6750 C   0  0  2  0  0  3  0  0  0  0  0  0
  186.7560  178.2920  142.4330 C   0  0  0  0  0  0  0  0  0  0  0  0
  189.9460  177.2920  146.2070 C   0  0  2  0  0  3  0  0  0  0  0  0
  191.7370  174.4330  145.6820 C   0  0  0  0  0  1  0  0  0  0  0  0
  192.0260  176.8180  143.4470 N   0  0  0  0  0  0  0  0  0  0  0  0
  187.5770  176.9830  144.3370 C   0  0  0  0  0  2  0  0  0  0  0  0
  187.9770  177.8090  141.6990 C   0  0  0  0  0  2  0  0  0  0  0  0
  191.3540  176.6990  147.1650 S   0  0  0  0  0  0  0  0  0  0  0  0
  191.3640  176.5740  144.5320 C   0  0  0  0  0  0  0  0  0  0  0  0
  188.9830  177.3330  143.9020 C   0  0  1  0  0  3  0  0  0  0  0  0
  186.5500  177.8910  143.7080 C   0  0  0  0  0  0  0  0  0  0  0  0
  190.0850  177.1690  144.8810 C   0  0  0  0  0  0  0  0  0  0  0  0
  183.2740  178.7400  145.0920 C   0  0  0  0  0  3  0  0  0  0  0  0
  185.4000  178.2810  144.4860 N   0  0  0  0  0  0  0  0  0  0  0  0
  184.1490  178.5660  143.9370 N   0  0  0  0  0  0  0  0  0  0  0  0
  184.0530  178.6370  146.3280 N   0  0  0  0  0  0  0  0  0  0  0  0
  185.3980  178.2750  145.9250 C   0  0  0  0  0  3  0  0  0  0  0  0
  188.7250  177.8830  146.8600 C   0  0  0  0  0  2  0  0  0  0  0  0
  188.9020  178.1450  148.3460 C   0  0  0  0  0  1  0  0  0  0  0  0
  185.8240  179.2000  141.6950 C   0  0  0  0  0  2  0  0  0  0  0  0
  185.4840  178.6380  140.3230 C   0  0  0  0  0  2  0  0  0  0  0  0
  184.8980  179.6260  139.5290 O   0  0  0  0  0  0  0  0  0  0  0  0
  183.1570  178.3360  138.5380 C   0  0  0  0  0  2  0  0  0  0  0  0
  182.7200  177.6730  137.2350 C   0  0  0  0  0  2  0  0  0  0  0  0
  185.5180  177.8520  138.0590 C   0  0  0  0  0  2  0  0  0  0  0  0
  183.5270  176.0120  135.4860 N   0  0  0  0  0  2  0  0  0  0  0  0
  184.5250  178.9690  138.3560 C   0  0  2  0  0  3  0  0  0  0  0  0
  183.8240  176.8690  136.5880 C   0  0  0  0  0  0  0  0  0  0  0  0
  185.0700  177.0280  136.9340 N   0  0  0  0  0  0  0  0  0  0  0  0
  181.8820  175.7260  134.9020 S   0  0  0  0  0  0  0  0  0  0  0  0
  182.4140  173.3170  135.8610 O   0  0  0  0  0  0  0  0  0  0  0  0
  180.6390  174.3500  136.9790 N   0  0  0  0  0  2  0  0  0  0  0  0
  181.6650  174.3230  135.9860 C   0  0  0  0  0  0  0  0  0  0  0  0
  179.6810  173.7550  139.1350 C   0  0  0  0  0  1  0  0  0  0  0  0
  179.5750  172.1880  137.2290 C   0  0  0  0  0  1  0  0  0  0  0  0
  180.4140  173.2520  137.9060 C   0  0  0  0  0  3  0  0  0  0  0  0
  1 13  1  0  0  0  0
  2  3  1  0  0  0  0
  2  1  2  0  0  0  0
  3  8  2  0  0  0  0
  4  7  1  1  0  0  0
  4 11  1  0  0  0  0
  5 14  2  0  0  0  0
  6 21  1  6  0  0  0
  6 11  1  0  0  0  0
  8 12  1  0  0  0  0
 10  5  1  0  0  0  0
 10  1  1  0  0  0  0
 12 15  2  0  0  0  0
 12  4  1  0  0  0  0
 13  9  1  6  0  0  0
 13 15  1  0  0  0  0
 14  9  1  0  0  0  0
 14 17  1  0  0  0  0
 15  6  1  0  0  0  0
 16 19  1  0  0  0  0
 17 20  1  0  0  0  0
 18 17  1  0  0  0  0
 18 16  2  0  0  0  0
 20 19  2  0  0  0  0
 21 22  1  0  0  0  0
 23  5  1  0  0  0  0
 24 23  1  0  0  0  0
 25 24  1  0  0  0  0
 27 26  1  0  0  0  0
 28 30  1  0  0  0  0
 29 31  1  0  0  0  0
 30 26  1  0  0  0  0
 30 25  1  1  0  0  0
 31 32  2  0  0  0  0
 31 27  1  0  0  0  0
 32 28  1  0  0  0  0
 33 29  1  0  0  0  0
 33 36  1  0  0  0  0
 34 36  2  0  0  0  0
 35 39  1  0  0  0  0
 36 35  1  0  0  0  0
 38 39  1  0  0  0  0
 39 37  1  0  0  0  0
M  END
>  <MODEL>
7

>  <REMARK>
 VINA RESULT:      -7.8      4.139      6.721
  Name = 
  9 active torsions:
  status: ('A' for Active; 'I' for Inactive)
    1  A    between atoms: C_2  and  C_15
    2  A    between atoms: C_2  and  O_35
    3  A    between atoms: C_9  and  C_20
    4  A    between atoms: N_11  and  C_34
    5  A    between atoms: C_15  and  C_17
    6  A    between atoms: C_19  and  N_32
    7  A    between atoms: N_29  and  S_38
    8  A    between atoms: C_30  and  O_35
    9  A    between atoms: S_38  and  C_39
                            x       y       z     vdW  Elec       q    Type
                         _______ _______ _______ _____ _____    ______ ____

>  <TORSDO>
F 9

$$$$
=
 OpenBabel10222419363D

 39 43  0  0  1  0  0  0  0  0999 V2000
  189.3170  177.6420  142.7660 C   0  0  0  0  0  0  0  0  0  0  0  0
  190.6570  177.9260  142.3470 N   0  0  0  0  0  0  0  0  0  0  0  0
  191.8080  177.6490  142.8820 C   0  0  0  0  0  3  0  0  0  0  0  0
  191.6990  176.3160  146.4150 C   0  0  2  0  0  3  0  0  0  0  0  0
  186.9480  178.1570  142.1520 C   0  0  0  0  0  0  0  0  0  0  0  0
  189.5200  177.6680  146.4600 C   0  0  2  0  0  3  0  0  0  0  0  0
  191.4160  174.8300  146.5360 C   0  0  0  0  0  1  0  0  0  0  0  0
  192.0150  176.9730  144.1250 N   0  0  0  0  0  0  0  0  0  0  0  0
  187.4800  177.0850  144.2920 C   0  0  0  0  0  2  0  0  0  0  0  0
  188.2770  177.6400  141.6730 C   0  0  0  0  0  2  0  0  0  0  0  0
  190.7690  177.2270  147.6850 S   0  0  0  0  0  0  0  0  0  0  0  0
  191.1950  176.8240  145.1150 C   0  0  0  0  0  0  0  0  0  0  0  0
  188.9310  177.4330  144.0440 C   0  0  1  0  0  3  0  0  0  0  0  0
  186.5500  177.8870  143.4150 C   0  0  0  0  0  0  0  0  0  0  0  0
  189.8670  177.4100  145.1940 C   0  0  0  0  0  0  0  0  0  0  0  0
  183.0690  178.6300  144.2500 C   0  0  0  0  0  3  0  0  0  0  0  0
  185.2860  178.3200  143.9580 N   0  0  0  0  0  0  0  0  0  0  0  0
  184.0770  178.2540  143.2640 N   0  0  0  0  0  0  0  0  0  0  0  0
  183.7160  179.0010  145.5100 N   0  0  0  0  0  0  0  0  0  0  0  0
  185.1300  178.7310  145.3290 C   0  0  0  0  0  3  0  0  0  0  0  0
  188.2020  178.2850  146.8480 C   0  0  0  0  0  2  0  0  0  0  0  0
  187.9370  178.2540  148.3430 C   0  0  0  0  0  1  0  0  0  0  0  0
  186.1300  178.9500  141.1820 C   0  0  0  0  0  2  0  0  0  0  0  0
  185.8870  178.1670  139.9010 C   0  0  0  0  0  2  0  0  0  0  0  0
  185.9410  179.0210  138.7970 O   0  0  0  0  0  0  0  0  0  0  0  0
  187.0080  176.9380  138.3490 C   0  0  0  0  0  2  0  0  0  0  0  0
  187.5660  176.0700  137.2250 C   0  0  0  0  0  2  0  0  0  0  0  0
  187.7000  178.9890  137.1850 C   0  0  0  0  0  2  0  0  0  0  0  0
  189.2190  176.1460  135.2920 N   0  0  0  0  0  2  0  0  0  0  0  0
  186.5060  178.2530  137.7780 C   0  0  2  0  0  3  0  0  0  0  0  0
  188.4450  176.8440  136.2680 C   0  0  0  0  0  0  0  0  0  0  0  0
  188.4240  178.1450  136.2320 N   0  0  0  0  0  0  0  0  0  0  0  0
  189.3150  174.3820  135.2190 S   0  0  0  0  0  0  0  0  0  0  0  0
  190.3030  173.7550  137.5930 O   0  0  0  0  0  0  0  0  0  0  0  0
  191.8330  174.9310  136.2730 N   0  0  0  0  0  2  0  0  0  0  0  0
  190.5590  174.3240  136.4980 C   0  0  0  0  0  0  0  0  0  0  0  0
  193.9840  173.9420  136.8310 C   0  0  0  0  0  1  0  0  0  0  0  0
  193.4930  176.2970  137.3890 C   0  0  0  0  0  1  0  0  0  0  0  0
  192.8990  174.9100  137.2620 C   0  0  0  0  0  3  0  0  0  0  0  0
  1 13  1  0  0  0  0
  2  1  2  0  0  0  0
  2  3  1  0  0  0  0
  3  8  2  0  0  0  0
  4  7  1  6  0  0  0
  4 11  1  0  0  0  0
  5 14  2  0  0  0  0
  6 21  1  6  0  0  0
  6 11  1  0  0  0  0
  8 12  1  0  0  0  0
 10  5  1  0  0  0  0
 10  1  1  0  0  0  0
 12 15  2  0  0  0  0
 12  4  1  0  0  0  0
 13  9  1  6  0  0  0
 13 15  1  0  0  0  0
 14 17  1  0  0  0  0
 14  9  1  0  0  0  0
 15  6  1  0  0  0  0
 16 19  1  0  0  0  0
 17 20  1  0  0  0  0
 18 17  1  0  0  0  0
 18 16  2  0  0  0  0
 20 19  2  0  0  0  0
 21 22  1  0  0  0  0
 23  5  1  0  0  0  0
 24 23  1  0  0  0  0
 25 24  1  0  0  0  0
 27 26  1  0  0  0  0
 28 30  1  0  0  0  0
 29 31  1  0  0  0  0
 30 26  1  0  0  0  0
 30 25  1  1  0  0  0
 31 27  1  0  0  0  0
 32 31  2  0  0  0  0
 32 28  1  0  0  0  0
 33 29  1  0  0  0  0
 33 36  1  0  0  0  0
 35 36  1  0  0  0  0
 35 39  1  0  0  0  0
 36 34  2  0  0  0  0
 37 39  1  0  0  0  0
 39 38  1  0  0  0  0
M  END
>  <MODEL>
8

>  <REMARK>
 VINA RESULT:      -7.8      1.883      2.154
  Name = 
  9 active torsions:
  status: ('A' for Active; 'I' for Inactive)
    1  A    between atoms: C_2  and  C_15
    2  A    between atoms: C_2  and  O_35
    3  A    between atoms: C_9  and  C_20
    4  A    between atoms: N_11  and  C_34
    5  A    between atoms: C_15  and  C_17
    6  A    between atoms: C_19  and  N_32
    7  A    between atoms: N_29  and  S_38
    8  A    between atoms: C_30  and  O_35
    9  A    between atoms: S_38  and  C_39
                            x       y       z     vdW  Elec       q    Type
                         _______ _______ _______ _____ _____    ______ ____

>  <TORSDO>
F 9

$$$$
=
 OpenBabel10222419363D

 39 43  0  0  1  0  0  0  0  0999 V2000
  186.7620  178.2690  142.4990 C   0  0  0  0  0  0  0  0  0  0  0  0
  186.4110  177.8770  143.8320 N   0  0  0  0  0  2  0  0  0  0  0  0
  187.1270  177.7190  144.9040 C   0  0  0  0  0  3  0  0  0  0  0  0
  190.8710  177.7860  144.4050 C   0  0  2  0  0  3  0  0  0  0  0  0
  185.7590  178.4810  140.2180 C   0  0  0  0  0  0  0  0  0  0  0  0
  190.1980  176.9690  142.0680 C   0  0  2  0  0  3  0  0  0  0  0  0
  191.4880  179.1710  144.3360 C   0  0  0  0  0  1  0  0  0  0  0  0
  188.5440  177.8840  144.9990 N   0  0  0  0  0  0  0  0  0  0  0  0
  188.1850  178.6440  140.5380 C   0  0  0  0  0  2  0  0  0  0  0  0
  185.6410  178.8480  141.6720 C   0  0  0  0  0  2  0  0  0  0  0  0
  191.6230  176.7120  143.1450 S   0  0  0  0  0  0  0  0  0  0  0  0
  189.4300  177.8560  144.0560 C   0  0  0  0  0  0  0  0  0  0  0  0
  187.9820  178.1120  141.9400 C   0  0  0  0  0  0  0  0  0  0  0  0
  186.9870  178.3870  139.6580 C   0  0  0  0  0  0  0  0  0  0  0  0
  189.1530  177.5590  142.6600 C   0  0  0  0  0  0  0  0  0  0  0  0
  187.6380  178.2600  136.0630 C   0  0  0  0  0  3  0  0  0  0  0  0
  187.2020  178.0640  138.2700 N   0  0  0  0  0  0  0  0  0  0  0  0
  187.2260  179.0100  137.2440 N   0  0  0  0  0  0  0  0  0  0  0  0
  187.7720  176.8390  136.3950 N   0  0  0  0  0  0  0  0  0  0  0  0
  187.5560  176.7410  137.8270 C   0  0  0  0  0  3  0  0  0  0  0  0
  190.1990  176.5390  140.6250 C   0  0  0  0  0  2  0  0  0  0  0  0
  191.3820  177.0710  139.8360 C   0  0  0  0  0  1  0  0  0  0  0  0
  184.4900  178.2410  139.4640 C   0  0  0  0  0  2  0  0  0  0  0  0
  183.8130  179.5530  139.0980 C   0  0  0  0  0  2  0  0  0  0  0  0
  182.4370  179.4630  139.3190 O   0  0  0  0  0  0  0  0  0  0  0  0
  181.5340  178.0190  137.6530 C   0  0  0  0  0  2  0  0  0  0  0  0
  181.2450  176.5540  137.3340 C   0  0  0  0  0  2  0  0  0  0  0  0
  181.0600  177.6520  140.0360 C   0  0  0  0  0  2  0  0  0  0  0  0
  180.0360  174.5210  138.2690 N   0  0  0  0  0  2  0  0  0  0  0  0
  182.1170  178.1320  139.0500 C   0  0  2  0  0  3  0  0  0  0  0  0
  180.5710  175.8280  138.4760 C   0  0  0  0  0  0  0  0  0  0  0  0
  180.5710  176.3170  139.6830 N   0  0  0  0  0  0  0  0  0  0  0  0
  179.9960  173.7340  136.6860 S   0  0  0  0  0  0  0  0  0  0  0  0
  181.0490  171.4980  137.6350 O   0  0  0  0  0  0  0  0  0  0  0  0
  182.6760  173.0110  136.9070 N   0  0  0  0  0  2  0  0  0  0  0  0
  181.3200  172.6190  137.1270 C   0  0  0  0  0  0  0  0  0  0  0  0
  184.1530  171.2890  136.0270 C   0  0  0  0  0  1  0  0  0  0  0  0
  185.0010  173.0040  137.5890 C   0  0  0  0  0  1  0  0  0  0  0  0
  183.8040  172.1500  137.2260 C   0  0  0  0  0  3  0  0  0  0  0  0
  1  2  1  0  0  0  0
  2  3  1  0  0  0  0
  3  8  2  0  0  0  0
  4  7  1  6  0  0  0
  5 10  1  0  0  0  0
  6 21  1  1  0  0  0
  6 15  1  0  0  0  0
  6 11  1  0  0  0  0
  9 13  1  0  0  0  0
 10  1  1  0  0  0  0
 11  4  1  0  0  0  0
 12  4  1  0  0  0  0
 12  8  1  0  0  0  0
 13  1  2  0  0  0  0
 13 15  1  0  0  0  0
 14  5  2  0  0  0  0
 14  9  1  0  0  0  0
 15 12  2  0  0  0  0
 16 19  1  0  0  0  0
 16 18  2  0  0  0  0
 17 14  1  0  0  0  0
 18 17  1  0  0  0  0
 19 20  2  0  0  0  0
 20 17  1  0  0  0  0
 22 21  1  0  0  0  0
 23  5  1  0  0  0  0
 24 25  1  0  0  0  0
 24 23  1  0  0  0  0
 26 30  1  0  0  0  0
 27 26  1  0  0  0  0
 27 31  1  0  0  0  0
 29 31  1  0  0  0  0
 30 25  1  1  0  0  0
 30 28  1  0  0  0  0
 31 32  2  0  0  0  0
 32 28  1  0  0  0  0
 33 36  1  0  0  0  0
 33 29  1  0  0  0  0
 35 36  1  0  0  0  0
 35 39  1  0  0  0  0
 36 34  2  0  0  0  0
 37 39  1  0  0  0  0
 39 38  1  0  0  0  0
M  END
>  <MODEL>
9

>  <REMARK>
 VINA RESULT:      -7.8      4.634      7.990
  Name = 
  9 active torsions:
  status: ('A' for Active; 'I' for Inactive)
    1  A    between atoms: C_2  and  C_15
    2  A    between atoms: C_2  and  O_35
    3  A    between atoms: C_9  and  C_20
    4  A    between atoms: N_11  and  C_34
    5  A    between atoms: C_15  and  C_17
    6  A    between atoms: C_19  and  N_32
    7  A    between atoms: N_29  and  S_38
    8  A    between atoms: C_30  and  O_35
    9  A    between atoms: S_38  and  C_39
                            x       y       z     vdW  Elec       q    Type
                         _______ _______ _______ _____ _____    ______ ____

>  <TORSDO>
F 9

$$$$
