=
 OpenBabel10222416363D

 32 34  0  0  1  0  0  0  0  0999 V2000
  188.0730  177.4200  144.0890 C   0  0  0  0  0  0  0  0  0  0  0  0
  187.1050  178.1910  147.6750 C   0  0  0  0  0  1  0  0  0  0  0  0
  187.3090  177.7210  145.1880 C   0  0  0  0  0  0  0  0  0  0  0  0
  190.0600  177.3700  145.4400 C   0  0  0  0  0  0  0  0  0  0  0  0
  191.5230  177.1610  145.5800 C   0  0  0  0  0  1  0  0  0  0  0  0
  187.2130  177.2710  142.8850 C   0  0  1  0  0  3  0  0  0  0  0  0
  185.9320  177.8110  144.8490 N   0  0  0  0  0  0  0  0  0  0  0  0
  189.2870  177.6950  146.5690 C   0  0  0  0  0  3  0  0  0  0  0  0
  187.8990  177.8740  146.4550 C   0  0  0  0  0  0  0  0  0  0  0  0
  189.4510  177.2270  144.1860 C   0  0  0  0  0  3  0  0  0  0  0  0
  185.7980  177.5820  143.4090 C   0  0  0  0  0  2  0  0  0  0  0  0
  186.7080  179.0420  141.3050 C   0  0  0  0  0  2  0  0  0  0  0  0
  187.6120  178.1810  141.7510 C   0  0  0  0  0  0  0  0  0  0  0  0
  190.3340  176.6740  140.0670 C   0  0  0  0  0  0  0  0  0  0  0  0
  190.4080  176.7360  137.6520 C   0  0  0  0  0  0  0  0  0  0  0  0
  189.0960  178.3250  138.8620 N   0  0  0  0  0  0  0  0  0  0  0  0
  190.9120  176.1700  136.3710 C   0  0  0  0  0  1  0  0  0  0  0  0
  189.5500  177.8440  137.6700 C   0  0  0  0  0  0  0  0  0  0  0  0
  190.7290  176.0960  141.2670 O   0  0  0  0  0  1  0  0  0  0  0  0
  190.8040  176.1570  138.8580 C   0  0  0  0  0  3  0  0  0  0  0  0
  188.9620  178.3060  141.2760 N   0  0  0  0  0  2  0  0  0  0  0  0
  189.4550  177.7640  140.0500 C   0  0  0  0  0  0  0  0  0  0  0  0
  189.1760  178.4520  136.4660 O   0  0  0  0  0  0  0  0  0  0  0  0
  187.9870  178.1730  135.8480 C   0  0  0  0  0  0  0  0  0  0  0  0
  186.9340  177.9320  135.3110 C   0  0  0  0  0  3  0  0  0  0  0  0
  184.9580  178.5890  145.6030 C   0  0  0  0  0  2  0  0  0  0  0  0
  184.1660  179.8300  144.5380 S   0  0  0  0  0  0  0  0  0  0  0  0
  182.6710  178.8090  144.3770 C   0  0  0  0  0  2  0  0  0  0  0  0
  182.0360  179.0150  143.0120 C   0  0  0  0  0  2  0  0  0  0  0  0
  180.5950  178.8270  143.0910 N   0  0  0  0  0  0  0  0  0  0  0  0
  180.2970  178.6040  144.3950 O   0  0  0  0  0  1  0  0  0  0  0  0
  179.9870  180.0960  142.7350 C   0  0  0  0  0  1  0  0  0  0  0  0
  1 10  2  0  0  0  0
  1  3  1  0  0  0  0
  3  9  2  0  0  0  0
  4  5  1  0  0  0  0
  4  8  2  0  0  0  0
  6 13  1  6  0  0  0
  6 11  1  0  0  0  0
  6  1  1  0  0  0  0
  7  3  1  0  0  0  0
  7 26  1  0  0  0  0
  9  8  1  0  0  0  0
  9  2  1  0  0  0  0
 10  4  1  0  0  0  0
 11  7  1  0  0  0  0
 12 13  2  0  0  0  0
 14 19  1  0  0  0  0
 15 18  1  0  0  0  0
 15 20  2  0  0  0  0
 16 22  1  0  0  0  0
 17 15  1  0  0  0  0
 18 16  2  0  0  0  0
 20 14  1  0  0  0  0
 21 13  1  0  0  0  0
 22 14  2  0  0  0  0
 22 21  1  0  0  0  0
 23 18  1  0  0  0  0
 24 23  1  0  0  0  0
 25 24  3  0  0  0  0
 27 26  1  0  0  0  0
 28 27  1  0  0  0  0
 29 30  1  0  0  0  0
 29 28  1  0  0  0  0
 30 31  1  0  0  0  0
 32 30  1  0  0  0  0
M  END
>  <MODEL>
1

>  <REMARK>
 VINA RESULT:      -8.0      0.000      0.000
  Name = 
  9 active torsions:
  status: ('A' for Active; 'I' for Inactive)
    1  A    between atoms: C_1  and  O_3
    2  A    between atoms: O_3  and  C_17
    3  A    between atoms: N_6  and  C_15
    4  A    between atoms: C_7  and  S_16
    5  A    between atoms: C_7  and  N_23
    6  A    between atoms: C_15  and  C_30
    7  A    between atoms: S_16  and  C_30
    8  A    between atoms: C_18  and  C_21
    9  A    between atoms: C_18  and  N_27
                            x       y       z     vdW  Elec       q    Type
                         _______ _______ _______ _____ _____    ______ ____

>  <TORSDO>
F 9

$$$$
=
 OpenBabel10222416363D

 32 34  0  0  1  0  0  0  0  0999 V2000
  188.1980  177.1390  145.0130 C   0  0  0  0  0  0  0  0  0  0  0  0
  185.0440  179.1710  145.5690 C   0  0  0  0  0  1  0  0  0  0  0  0
  187.0050  177.7670  144.7700 C   0  0  0  0  0  0  0  0  0  0  0  0
  188.1520  177.8580  147.3060 C   0  0  0  0  0  0  0  0  0  0  0  0
  188.7510  177.8880  148.6640 C   0  0  0  0  0  1  0  0  0  0  0  0
  188.6650  176.4230  143.7960 C   0  0  1  0  0  3  0  0  0  0  0  0
  186.5750  177.5590  143.4310 N   0  0  0  0  0  0  0  0  0  0  0  0
  186.9360  178.5200  147.0620 C   0  0  0  0  0  3  0  0  0  0  0  0
  186.3460  178.4810  145.7870 C   0  0  0  0  0  0  0  0  0  0  0  0
  188.7920  177.1560  146.2760 C   0  0  0  0  0  3  0  0  0  0  0  0
  187.5900  176.7580  142.7440 C   0  0  0  0  0  2  0  0  0  0  0  0
  191.0800  176.1970  143.8730 C   0  0  0  0  0  2  0  0  0  0  0  0
  190.0440  176.8400  143.3510 C   0  0  0  0  0  0  0  0  0  0  0  0
  191.6010  177.3870  140.2220 C   0  0  0  0  0  0  0  0  0  0  0  0
  190.5020  176.6270  138.2070 C   0  0  0  0  0  0  0  0  0  0  0  0
  189.2430  177.0010  140.2050 N   0  0  0  0  0  0  0  0  0  0  0  0
  190.5850  176.2220  136.7780 C   0  0  0  0  0  1  0  0  0  0  0  0
  189.2770  176.6390  138.8900 C   0  0  0  0  0  0  0  0  0  0  0  0
  192.7580  177.7670  140.8890 O   0  0  0  0  0  1  0  0  0  0  0  0
  191.6630  177.0100  138.8790 C   0  0  0  0  0  3  0  0  0  0  0  0
  190.2830  177.7400  142.2570 N   0  0  0  0  0  2  0  0  0  0  0  0
  190.3670  177.3610  140.8830 C   0  0  0  0  0  0  0  0  0  0  0  0
  188.1020  176.2900  138.2150 O   0  0  0  0  0  0  0  0  0  0  0  0
  187.2590  177.2300  137.6860 C   0  0  0  0  0  0  0  0  0  0  0  0
  186.5170  178.0630  137.2300 C   0  0  0  0  0  3  0  0  0  0  0  0
  185.6830  178.4600  142.7150 C   0  0  0  0  0  2  0  0  0  0  0  0
  186.3410  178.8330  141.0620 S   0  0  0  0  0  0  0  0  0  0  0  0
  184.6670  178.9560  140.3690 C   0  0  0  0  0  2  0  0  0  0  0  0
  183.6290  178.6860  141.4450 C   0  0  0  0  0  2  0  0  0  0  0  0
  182.4120  178.1500  140.8520 N   0  0  0  0  0  0  0  0  0  0  0  0
  181.8720  179.1390  140.0970 O   0  0  0  0  0  1  0  0  0  0  0  0
  182.8200  177.1010  139.9360 C   0  0  0  0  0  1  0  0  0  0  0  0
  1 10  1  0  0  0  0
  2  9  1  0  0  0  0
  3  1  2  0  0  0  0
  3  9  1  0  0  0  0
  4  5  1  0  0  0  0
  6 13  1  6  0  0  0
  6  1  1  0  0  0  0
  7  3  1  0  0  0  0
  8  4  1  0  0  0  0
  9  8  2  0  0  0  0
 10  4  2  0  0  0  0
 11  7  1  0  0  0  0
 11  6  1  0  0  0  0
 13 12  2  0  0  0  0
 14 22  2  0  0  0  0
 14 19  1  0  0  0  0
 15 20  2  0  0  0  0
 15 18  1  0  0  0  0
 16 22  1  0  0  0  0
 17 15  1  0  0  0  0
 18 16  2  0  0  0  0
 20 14  1  0  0  0  0
 21 13  1  0  0  0  0
 22 21  1  0  0  0  0
 23 18  1  0  0  0  0
 24 23  1  0  0  0  0
 25 24  3  0  0  0  0
 26  7  1  0  0  0  0
 27 26  1  0  0  0  0
 28 27  1  0  0  0  0
 28 29  1  0  0  0  0
 30 29  1  0  0  0  0
 31 30  1  0  0  0  0
 32 30  1  0  0  0  0
M  END
>  <MODEL>
2

>  <REMARK>
 VINA RESULT:      -7.9      2.061      2.805
  Name = 
  9 active torsions:
  status: ('A' for Active; 'I' for Inactive)
    1  A    between atoms: C_1  and  O_3
    2  A    between atoms: O_3  and  C_17
    3  A    between atoms: N_6  and  C_15
    4  A    between atoms: C_7  and  S_16
    5  A    between atoms: C_7  and  N_23
    6  A    between atoms: C_15  and  C_30
    7  A    between atoms: S_16  and  C_30
    8  A    between atoms: C_18  and  C_21
    9  A    between atoms: C_18  and  N_27
                            x       y       z     vdW  Elec       q    Type
                         _______ _______ _______ _____ _____    ______ ____

>  <TORSDO>
F 9

$$$$
=
 OpenBabel10222416363D

 32 34  0  0  1  0  0  0  0  0999 V2000
  185.9300  178.7290  142.3230 C   0  0  0  0  0  0  0  0  0  0  0  0
  187.9830  176.8780  144.9210 C   0  0  0  0  0  1  0  0  0  0  0  0
  186.9610  178.0380  142.9060 C   0  0  0  0  0  0  0  0  0  0  0  0
  184.6820  178.6700  144.3760 C   0  0  0  0  0  0  0  0  0  0  0  0
  183.4770  179.0250  145.1680 C   0  0  0  0  0  1  0  0  0  0  0  0
  186.2730  179.0880  140.9210 C   0  0  1  0  0  3  0  0  0  0  0  0
  188.0410  177.8620  141.9990 N   0  0  0  0  0  0  0  0  0  0  0  0
  185.7270  177.9470  144.9770 C   0  0  0  0  0  3  0  0  0  0  0  0
  186.8820  177.6220  144.2460 C   0  0  0  0  0  0  0  0  0  0  0  0
  184.7800  179.0700  143.0370 C   0  0  0  0  0  3  0  0  0  0  0  0
  187.6640  178.4580  140.7160 C   0  0  0  0  0  2  0  0  0  0  0  0
  184.1310  178.0840  140.3770 C   0  0  0  0  0  2  0  0  0  0  0  0
  185.2680  178.5860  139.9150 C   0  0  0  0  0  0  0  0  0  0  0  0
  187.2230  178.2140  136.9900 C   0  0  0  0  0  0  0  0  0  0  0  0
  187.1310  176.1320  135.7640 C   0  0  0  0  0  0  0  0  0  0  0  0
  185.3480  176.7530  137.2320 N   0  0  0  0  0  0  0  0  0  0  0  0
  187.7560  175.1820  134.8060 C   0  0  0  0  0  1  0  0  0  0  0  0
  185.8820  175.8650  136.3440 C   0  0  0  0  0  0  0  0  0  0  0  0
  187.8870  179.3920  137.3090 O   0  0  0  0  0  1  0  0  0  0  0  0
  187.7950  177.3160  136.0870 C   0  0  0  0  0  3  0  0  0  0  0  0
  185.3880  178.8100  138.5000 N   0  0  0  0  0  2  0  0  0  0  0  0
  185.9890  177.9050  137.5730 C   0  0  0  0  0  0  0  0  0  0  0  0
  185.1930  174.6980  136.0000 O   0  0  0  0  0  0  0  0  0  0  0  0
  185.0210  173.6660  136.8840 C   0  0  0  0  0  0  0  0  0  0  0  0
  184.8780  172.7530  137.6570 C   0  0  0  0  0  3  0  0  0  0  0  0
  189.0150  176.7840  142.0950 C   0  0  0  0  0  2  0  0  0  0  0  0
  190.2380  176.9040  140.7560 S   0  0  0  0  0  0  0  0  0  0  0  0
  191.5040  177.5280  141.9010 C   0  0  0  0  0  2  0  0  0  0  0  0
  191.3610  176.8620  143.2600 C   0  0  0  0  0  2  0  0  0  0  0  0
  191.7240  177.7900  144.3190 N   0  0  0  0  0  0  0  0  0  0  0  0
  190.8100  178.7910  144.2980 O   0  0  0  0  0  1  0  0  0  0  0  0
  191.5410  177.0850  145.5750 C   0  0  0  0  0  1  0  0  0  0  0  0
  1  3  2  0  0  0  0
  1 10  1  0  0  0  0
  3  9  1  0  0  0  0
  4  8  1  0  0  0  0
  4  5  1  0  0  0  0
  6 13  1  6  0  0  0
  6  1  1  0  0  0  0
  7 26  1  0  0  0  0
  7  3  1  0  0  0  0
  9  2  1  0  0  0  0
  9  8  2  0  0  0  0
 10  4  2  0  0  0  0
 11  6  1  0  0  0  0
 11  7  1  0  0  0  0
 13 12  2  0  0  0  0
 14 19  1  0  0  0  0
 14 22  2  0  0  0  0
 15 20  2  0  0  0  0
 15 18  1  0  0  0  0
 16 22  1  0  0  0  0
 17 15  1  0  0  0  0
 18 16  2  0  0  0  0
 20 14  1  0  0  0  0
 21 13  1  0  0  0  0
 22 21  1  0  0  0  0
 23 18  1  0  0  0  0
 23 24  1  0  0  0  0
 24 25  3  0  0  0  0
 27 28  1  0  0  0  0
 27 26  1  0  0  0  0
 28 29  1  0  0  0  0
 29 30  1  0  0  0  0
 30 32  1  0  0  0  0
 31 30  1  0  0  0  0
M  END
>  <MODEL>
3

>  <REMARK>
 VINA RESULT:      -7.8      3.378      6.009
  Name = 
  9 active torsions:
  status: ('A' for Active; 'I' for Inactive)
    1  A    between atoms: C_1  and  O_3
    2  A    between atoms: O_3  and  C_17
    3  A    between atoms: N_6  and  C_15
    4  A    between atoms: C_7  and  S_16
    5  A    between atoms: C_7  and  N_23
    6  A    between atoms: C_15  and  C_30
    7  A    between atoms: S_16  and  C_30
    8  A    between atoms: C_18  and  C_21
    9  A    between atoms: C_18  and  N_27
                            x       y       z     vdW  Elec       q    Type
                         _______ _______ _______ _____ _____    ______ ____

>  <TORSDO>
F 9

$$$$
=
 OpenBabel10222416363D

 32 34  0  0  1  0  0  0  0  0999 V2000
  187.0850  178.5950  141.6420 C   0  0  0  0  0  0  0  0  0  0  0  0
  186.5330  177.3460  145.1810 C   0  0  0  0  0  1  0  0  0  0  0  0
  187.3440  178.1190  142.9020 C   0  0  0  0  0  0  0  0  0  0  0  0
  184.7250  178.6120  142.0940 C   0  0  0  0  0  0  0  0  0  0  0  0
  183.3300  178.8960  141.6730 C   0  0  0  0  0  1  0  0  0  0  0  0
  188.3560  178.8300  140.9060 C   0  0  1  0  0  3  0  0  0  0  0  0
  188.7410  177.9820  143.1240 N   0  0  0  0  0  0  0  0  0  0  0  0
  184.9790  178.1080  143.3810 C   0  0  0  0  0  3  0  0  0  0  0  0
  186.2960  177.8550  143.8010 C   0  0  0  0  0  0  0  0  0  0  0  0
  185.7850  178.8630  141.2130 C   0  0  0  0  0  3  0  0  0  0  0  0
  189.4410  178.3700  141.8980 C   0  0  0  0  0  2  0  0  0  0  0  0
  188.7850  176.8100  139.6320 C   0  0  0  0  0  2  0  0  0  0  0  0
  188.4320  178.0870  139.5960 C   0  0  0  0  0  0  0  0  0  0  0  0
  187.3370  177.4490  136.2930 C   0  0  0  0  0  0  0  0  0  0  0  0
  185.0290  176.8380  135.9120 C   0  0  0  0  0  0  0  0  0  0  0  0
  185.6590  178.0030  137.9020 N   0  0  0  0  0  0  0  0  0  0  0  0
  184.0010  176.1940  135.0510 C   0  0  0  0  0  1  0  0  0  0  0  0
  184.6860  177.4370  137.1320 C   0  0  0  0  0  0  0  0  0  0  0  0
  188.6610  177.4630  135.8750 O   0  0  0  0  0  1  0  0  0  0  0  0
  186.3600  176.8540  135.4930 C   0  0  0  0  0  3  0  0  0  0  0  0
  187.9500  178.6250  138.3540 N   0  0  0  0  0  2  0  0  0  0  0  0
  186.9660  178.0130  137.5200 C   0  0  0  0  0  0  0  0  0  0  0  0
  183.3480  177.4570  137.5430 O   0  0  0  0  0  0  0  0  0  0  0  0
  182.8910  176.6760  138.5700 C   0  0  0  0  0  0  0  0  0  0  0  0
  182.4850  175.9970  139.4800 C   0  0  0  0  0  3  0  0  0  0  0  0
  189.3230  177.0600  144.0900 C   0  0  0  0  0  2  0  0  0  0  0  0
  190.4480  175.8950  143.2650 S   0  0  0  0  0  0  0  0  0  0  0  0
  191.6780  176.0680  144.5910 C   0  0  0  0  0  2  0  0  0  0  0  0
  191.3490  177.2670  145.4640 C   0  0  0  0  0  2  0  0  0  0  0  0
  191.6830  176.9900  146.8520 N   0  0  0  0  0  0  0  0  0  0  0  0
  190.5310  177.0830  147.5620 O   0  0  0  0  0  1  0  0  0  0  0  0
  192.0980  175.6000  146.9140 C   0  0  0  0  0  1  0  0  0  0  0  0
  1  3  1  0  0  0  0
  3  7  1  0  0  0  0
  3  9  2  0  0  0  0
  4  8  2  0  0  0  0
  5  4  1  0  0  0  0
  6 13  1  6  0  0  0
  6  1  1  0  0  0  0
  6 11  1  0  0  0  0
  7 26  1  0  0  0  0
  8  9  1  0  0  0  0
  9  2  1  0  0  0  0
 10  1  2  0  0  0  0
 10  4  1  0  0  0  0
 11  7  1  0  0  0  0
 13 12  2  0  0  0  0
 14 22  2  0  0  0  0
 15 18  1  0  0  0  0
 17 15  1  0  0  0  0
 18 23  1  0  0  0  0
 18 16  2  0  0  0  0
 19 14  1  0  0  0  0
 20 15  2  0  0  0  0
 20 14  1  0  0  0  0
 21 13  1  0  0  0  0
 22 16  1  0  0  0  0
 22 21  1  0  0  0  0
 23 24  1  0  0  0  0
 24 25  3  0  0  0  0
 27 26  1  0  0  0  0
 27 28  1  0  0  0  0
 28 29  1  0  0  0  0
 29 30  1  0  0  0  0
 30 32  1  0  0  0  0
 30 31  1  0  0  0  0
M  END
>  <MODEL>
4

>  <REMARK>
 VINA RESULT:      -7.8      3.108      6.408
  Name = 
  9 active torsions:
  status: ('A' for Active; 'I' for Inactive)
    1  A    between atoms: C_1  and  O_3
    2  A    between atoms: O_3  and  C_17
    3  A    between atoms: N_6  and  C_15
    4  A    between atoms: C_7  and  S_16
    5  A    between atoms: C_7  and  N_23
    6  A    between atoms: C_15  and  C_30
    7  A    between atoms: S_16  and  C_30
    8  A    between atoms: C_18  and  C_21
    9  A    between atoms: C_18  and  N_27
                            x       y       z     vdW  Elec       q    Type
                         _______ _______ _______ _____ _____    ______ ____

>  <TORSDO>
F 9

$$$$
=
 OpenBabel10222416363D

 32 34  0  0  1  0  0  0  0  0999 V2000
  187.7070  178.1950  143.2350 C   0  0  0  0  0  0  0  0  0  0  0  0
  185.5660  177.7710  146.3370 C   0  0  0  0  0  1  0  0  0  0  0  0
  187.3500  177.9960  144.5440 C   0  0  0  0  0  0  0  0  0  0  0  0
  185.3980  178.3980  142.5980 C   0  0  0  0  0  0  0  0  0  0  0  0
  184.3580  178.6350  141.5660 C   0  0  0  0  0  1  0  0  0  0  0  0
  189.1880  178.2160  143.0990 C   0  0  1  0  0  3  0  0  0  0  0  0
  188.4940  177.8590  145.3750 N   0  0  0  0  0  0  0  0  0  0  0  0
  185.0220  178.1780  143.9350 C   0  0  0  0  0  3  0  0  0  0  0  0
  185.9970  177.9750  144.9260 C   0  0  0  0  0  0  0  0  0  0  0  0
  186.7530  178.4110  142.2400 C   0  0  0  0  0  3  0  0  0  0  0  0
  189.6870  177.9440  144.5300 C   0  0  0  0  0  2  0  0  0  0  0  0
  189.5530  175.9190  142.4060 C   0  0  0  0  0  2  0  0  0  0  0  0
  189.7100  177.2030  142.1130 C   0  0  0  0  0  0  0  0  0  0  0  0
  189.9110  176.3220  138.6920 C   0  0  0  0  0  0  0  0  0  0  0  0
  188.0690  176.8610  137.2230 C   0  0  0  0  0  0  0  0  0  0  0  0
  188.3670  178.0500  139.2760 N   0  0  0  0  0  0  0  0  0  0  0  0
  187.3190  176.6070  135.9640 C   0  0  0  0  0  1  0  0  0  0  0  0
  187.6640  177.8570  138.1230 C   0  0  0  0  0  0  0  0  0  0  0  0
  191.0390  175.5620  138.9760 O   0  0  0  0  0  1  0  0  0  0  0  0
  189.2020  176.0990  137.5110 C   0  0  0  0  0  3  0  0  0  0  0  0
  190.1760  177.5470  140.7980 N   0  0  0  0  0  2  0  0  0  0  0  0
  189.4650  177.3050  139.5840 C   0  0  0  0  0  0  0  0  0  0  0  0
  186.5500  178.6490  137.8270 O   0  0  0  0  0  0  0  0  0  0  0  0
  185.2690  178.1900  137.9770 C   0  0  0  0  0  0  0  0  0  0  0  0
  184.1440  177.7770  138.1150 C   0  0  0  0  0  3  0  0  0  0  0  0
  188.4940  177.1500  146.6470 C   0  0  0  0  0  2  0  0  0  0  0  0
  188.6500  178.3170  148.0320 S   0  0  0  0  0  0  0  0  0  0  0  0
  190.4200  177.9480  148.2080 C   0  0  0  0  0  2  0  0  0  0  0  0
  190.7300  176.5680  147.6540 C   0  0  0  0  0  2  0  0  0  0  0  0
  192.0980  176.5150  147.1610 N   0  0  0  0  0  0  0  0  0  0  0  0
  192.8520  175.9720  148.1480 O   0  0  0  0  0  1  0  0  0  0  0  0
  192.1100  175.5710  146.0590 C   0  0  0  0  0  1  0  0  0  0  0  0
  1  3  1  0  0  0  0
  3  9  2  0  0  0  0
  3  7  1  0  0  0  0
  4  8  2  0  0  0  0
  5  4  1  0  0  0  0
  6 13  1  6  0  0  0
  6  1  1  0  0  0  0
  6 11  1  0  0  0  0
  7 26  1  0  0  0  0
  8  9  1  0  0  0  0
  9  2  1  0  0  0  0
 10  4  1  0  0  0  0
 10  1  2  0  0  0  0
 11  7  1  0  0  0  0
 13 12  2  0  0  0  0
 14 19  1  0  0  0  0
 14 22  2  0  0  0  0
 15 20  2  0  0  0  0
 15 18  1  0  0  0  0
 16 22  1  0  0  0  0
 17 15  1  0  0  0  0
 18 16  2  0  0  0  0
 20 14  1  0  0  0  0
 21 13  1  0  0  0  0
 22 21  1  0  0  0  0
 23 24  1  0  0  0  0
 23 18  1  0  0  0  0
 24 25  3  0  0  0  0
 26 27  1  0  0  0  0
 27 28  1  0  0  0  0
 29 28  1  0  0  0  0
 30 29  1  0  0  0  0
 30 31  1  0  0  0  0
 32 30  1  0  0  0  0
M  END
>  <MODEL>
5

>  <REMARK>
 VINA RESULT:      -7.8      2.967      5.641
  Name = 
  9 active torsions:
  status: ('A' for Active; 'I' for Inactive)
    1  A    between atoms: C_1  and  O_3
    2  A    between atoms: O_3  and  C_17
    3  A    between atoms: N_6  and  C_15
    4  A    between atoms: C_7  and  S_16
    5  A    between atoms: C_7  and  N_23
    6  A    between atoms: C_15  and  C_30
    7  A    between atoms: S_16  and  C_30
    8  A    between atoms: C_18  and  C_21
    9  A    between atoms: C_18  and  N_27
                            x       y       z     vdW  Elec       q    Type
                         _______ _______ _______ _____ _____    ______ ____

>  <TORSDO>
F 9

$$$$
=
 OpenBabel10222416363D

 32 34  0  0  1  0  0  0  0  0999 V2000
  188.8770  177.1460  143.7680 C   0  0  0  0  0  0  0  0  0  0  0  0
  185.7140  178.7100  145.1600 C   0  0  0  0  0  1  0  0  0  0  0  0
  187.6470  177.7480  143.8220 C   0  0  0  0  0  0  0  0  0  0  0  0
  188.9980  177.0980  146.1680 C   0  0  0  0  0  0  0  0  0  0  0  0
  189.7070  176.7300  147.4200 C   0  0  0  0  0  1  0  0  0  0  0  0
  189.2640  176.8820  142.3570 C   0  0  1  0  0  3  0  0  0  0  0  0
  187.1150  177.9500  142.5190 N   0  0  0  0  0  0  0  0  0  0  0  0
  187.7440  177.7300  146.2320 C   0  0  0  0  0  3  0  0  0  0  0  0
  187.0520  178.0630  145.0560 C   0  0  0  0  0  0  0  0  0  0  0  0
  189.5730  176.7970  144.9260 C   0  0  0  0  0  3  0  0  0  0  0  0
  188.0950  177.4690  141.5440 C   0  0  0  0  0  2  0  0  0  0  0  0
  191.5300  177.5540  142.9060 C   0  0  0  0  0  2  0  0  0  0  0  0
  190.5870  177.4980  141.9760 C   0  0  0  0  0  0  0  0  0  0  0  0
  192.7530  176.9410  139.2350 C   0  0  0  0  0  0  0  0  0  0  0  0
  192.3060  175.1020  137.7310 C   0  0  0  0  0  0  0  0  0  0  0  0
  190.5580  176.0090  139.0870 N   0  0  0  0  0  0  0  0  0  0  0  0
  192.7950  174.1300  136.7170 C   0  0  0  0  0  1  0  0  0  0  0  0
  190.9660  175.1130  138.1420 C   0  0  0  0  0  0  0  0  0  0  0  0
  193.6410  177.8600  139.7790 O   0  0  0  0  0  1  0  0  0  0  0  0
  193.1960  176.0270  138.2780 C   0  0  0  0  0  3  0  0  0  0  0  0
  190.9430  177.8330  140.6250 N   0  0  0  0  0  2  0  0  0  0  0  0
  191.4150  176.9070  139.6460 C   0  0  0  0  0  0  0  0  0  0  0  0
  190.0580  174.2130  137.5740 O   0  0  0  0  0  0  0  0  0  0  0  0
  189.1550  174.5940  136.6190 C   0  0  0  0  0  0  0  0  0  0  0  0
  188.3510  174.9260  135.7830 C   0  0  0  0  0  3  0  0  0  0  0  0
  186.1360  178.9780  142.1920 C   0  0  0  0  0  2  0  0  0  0  0  0
  184.5950  178.2270  141.5910 S   0  0  0  0  0  0  0  0  0  0  0  0
  184.7530  179.0660  139.9870 C   0  0  0  0  0  2  0  0  0  0  0  0
  184.5860  178.0710  138.8520 C   0  0  0  0  0  2  0  0  0  0  0  0
  185.5840  178.3070  137.8200 N   0  0  0  0  0  0  0  0  0  0  0  0
  186.7920  178.3230  138.4350 O   0  0  0  0  0  1  0  0  0  0  0  0
  185.5730  177.1430  136.9530 C   0  0  0  0  0  1  0  0  0  0  0  0
  1  3  2  0  0  0  0
  1 10  1  0  0  0  0
  3  9  1  0  0  0  0
  4  8  1  0  0  0  0
  4  5  1  0  0  0  0
  6 13  1  6  0  0  0
  6  1  1  0  0  0  0
  7  3  1  0  0  0  0
  9  2  1  0  0  0  0
  9  8  2  0  0  0  0
 10  4  2  0  0  0  0
 11  6  1  0  0  0  0
 11  7  1  0  0  0  0
 13 12  2  0  0  0  0
 14 22  2  0  0  0  0
 14 19  1  0  0  0  0
 15 18  1  0  0  0  0
 15 20  2  0  0  0  0
 16 22  1  0  0  0  0
 17 15  1  0  0  0  0
 18 16  2  0  0  0  0
 20 14  1  0  0  0  0
 21 13  1  0  0  0  0
 22 21  1  0  0  0  0
 23 18  1  0  0  0  0
 24 23  1  0  0  0  0
 25 24  3  0  0  0  0
 26  7  1  0  0  0  0
 27 26  1  0  0  0  0
 28 27  1  0  0  0  0
 29 28  1  0  0  0  0
 30 31  1  0  0  0  0
 30 29  1  0  0  0  0
 32 30  1  0  0  0  0
M  END
>  <MODEL>
6

>  <REMARK>
 VINA RESULT:      -7.6      2.986      3.848
  Name = 
  9 active torsions:
  status: ('A' for Active; 'I' for Inactive)
    1  A    between atoms: C_1  and  O_3
    2  A    between atoms: O_3  and  C_17
    3  A    between atoms: N_6  and  C_15
    4  A    between atoms: C_7  and  S_16
    5  A    between atoms: C_7  and  N_23
    6  A    between atoms: C_15  and  C_30
    7  A    between atoms: S_16  and  C_30
    8  A    between atoms: C_18  and  C_21
    9  A    between atoms: C_18  and  N_27
                            x       y       z     vdW  Elec       q    Type
                         _______ _______ _______ _____ _____    ______ ____

>  <TORSDO>
F 9

$$$$
=
 OpenBabel10222416363D

 32 34  0  0  1  0  0  0  0  0999 V2000
  186.2590  178.6060  143.0400 C   0  0  0  0  0  0  0  0  0  0  0  0
  189.0620  176.6690  144.7080 C   0  0  0  0  0  1  0  0  0  0  0  0
  187.4450  177.9410  143.2190 C   0  0  0  0  0  0  0  0  0  0  0  0
  185.6710  178.2500  145.3430 C   0  0  0  0  0  0  0  0  0  0  0  0
  184.7370  178.4340  146.4830 C   0  0  0  0  0  1  0  0  0  0  0  0
  186.1610  179.1270  141.6510 C   0  0  1  0  0  3  0  0  0  0  0  0
  188.2190  177.9380  142.0270 N   0  0  0  0  0  0  0  0  0  0  0  0
  186.8770  177.5520  145.5310 C   0  0  0  0  0  3  0  0  0  0  0  0
  187.7810  177.3900  144.4680 C   0  0  0  0  0  0  0  0  0  0  0  0
  185.3560  178.7870  144.0880 C   0  0  0  0  0  3  0  0  0  0  0  0
  187.4570  178.6280  140.9840 C   0  0  0  0  0  2  0  0  0  0  0  0
  183.9400  178.1500  141.6480 C   0  0  0  0  0  2  0  0  0  0  0  0
  184.9290  178.6530  140.9230 C   0  0  0  0  0  0  0  0  0  0  0  0
  185.7420  177.8750  137.5690 C   0  0  0  0  0  0  0  0  0  0  0  0
  184.6860  175.9770  136.5070 C   0  0  0  0  0  0  0  0  0  0  0  0
  183.6770  177.0160  138.4090 N   0  0  0  0  0  0  0  0  0  0  0  0
  184.6950  174.9360  135.4450 C   0  0  0  0  0  1  0  0  0  0  0  0
  183.6420  176.0580  137.4390 C   0  0  0  0  0  0  0  0  0  0  0  0
  186.7860  178.7890  137.6330 O   0  0  0  0  0  1  0  0  0  0  0  0
  185.7340  176.8970  136.5730 C   0  0  0  0  0  3  0  0  0  0  0  0
  184.6900  178.9040  139.5280 N   0  0  0  0  0  2  0  0  0  0  0  0
  184.6990  177.9110  138.5020 C   0  0  0  0  0  0  0  0  0  0  0  0
  182.5700  175.1620  137.3590 O   0  0  0  0  0  0  0  0  0  0  0  0
  181.5190  175.2050  138.2350 C   0  0  0  0  0  0  0  0  0  0  0  0
  180.5860  175.2460  138.9980 C   0  0  0  0  0  3  0  0  0  0  0  0
  189.2250  176.9330  141.7140 C   0  0  0  0  0  2  0  0  0  0  0  0
  190.8940  177.5720  142.0440 S   0  0  0  0  0  0  0  0  0  0  0  0
  191.3280  177.4870  140.2810 C   0  0  0  0  0  2  0  0  0  0  0  0
  190.3490  176.5930  139.5390 C   0  0  0  0  0  2  0  0  0  0  0  0
  191.0650  175.6250  138.7230 N   0  0  0  0  0  0  0  0  0  0  0  0
  190.1390  174.9830  137.9680 O   0  0  0  0  0  1  0  0  0  0  0  0
  191.8970  176.3840  137.8070 C   0  0  0  0  0  1  0  0  0  0  0  0
  1  3  2  0  0  0  0
  1 10  1  0  0  0  0
  3  9  1  0  0  0  0
  4  8  1  0  0  0  0
  4  5  1  0  0  0  0
  6 13  1  6  0  0  0
  6  1  1  0  0  0  0
  7  3  1  0  0  0  0
  9  2  1  0  0  0  0
  9  8  2  0  0  0  0
 10  4  2  0  0  0  0
 11  6  1  0  0  0  0
 11  7  1  0  0  0  0
 13 12  2  0  0  0  0
 14 19  1  0  0  0  0
 14 22  2  0  0  0  0
 15 20  2  0  0  0  0
 15 18  1  0  0  0  0
 16 22  1  0  0  0  0
 17 15  1  0  0  0  0
 18 16  2  0  0  0  0
 20 14  1  0  0  0  0
 21 13  1  0  0  0  0
 22 21  1  0  0  0  0
 23 18  1  0  0  0  0
 23 24  1  0  0  0  0
 24 25  3  0  0  0  0
 26  7  1  0  0  0  0
 26 27  1  0  0  0  0
 28 27  1  0  0  0  0
 29 28  1  0  0  0  0
 30 29  1  0  0  0  0
 31 30  1  0  0  0  0
 32 30  1  0  0  0  0
M  END
>  <MODEL>
7

>  <REMARK>
 VINA RESULT:      -7.2      3.346      6.551
  Name = 
  9 active torsions:
  status: ('A' for Active; 'I' for Inactive)
    1  A    between atoms: C_1  and  O_3
    2  A    between atoms: O_3  and  C_17
    3  A    between atoms: N_6  and  C_15
    4  A    between atoms: C_7  and  S_16
    5  A    between atoms: C_7  and  N_23
    6  A    between atoms: C_15  and  C_30
    7  A    between atoms: S_16  and  C_30
    8  A    between atoms: C_18  and  C_21
    9  A    between atoms: C_18  and  N_27
                            x       y       z     vdW  Elec       q    Type
                         _______ _______ _______ _____ _____    ______ ____

>  <TORSDO>
F 9

$$$$
=
 OpenBabel10222416363D

 32 34  0  0  1  0  0  0  0  0999 V2000
  187.0690  178.3600  141.1760 C   0  0  0  0  0  0  0  0  0  0  0  0
  187.7050  177.1380  144.7100 C   0  0  0  0  0  1  0  0  0  0  0  0
  187.7220  177.8740  142.2800 C   0  0  0  0  0  0  0  0  0  0  0  0
  185.0060  178.4750  142.4030 C   0  0  0  0  0  0  0  0  0  0  0  0
  183.5620  178.8160  142.4760 C   0  0  0  0  0  1  0  0  0  0  0  0
  188.0220  178.5410  140.0490 C   0  0  1  0  0  3  0  0  0  0  0  0
  189.1050  177.6790  142.0170 N   0  0  0  0  0  0  0  0  0  0  0  0
  185.6630  177.9620  143.5340 C   0  0  0  0  0  3  0  0  0  0  0  0
  187.0330  177.6550  143.4860 C   0  0  0  0  0  0  0  0  0  0  0  0
  185.7120  178.6810  141.2100 C   0  0  0  0  0  3  0  0  0  0  0  0
  189.3610  178.0370  140.6200 C   0  0  0  0  0  2  0  0  0  0  0  0
  186.9370  178.4600  137.8790 C   0  0  0  0  0  2  0  0  0  0  0  0
  187.6190  177.7950  138.8020 C   0  0  0  0  0  0  0  0  0  0  0  0
  188.7700  175.5780  136.2970 C   0  0  0  0  0  0  0  0  0  0  0  0
  191.0940  175.6440  135.6380 C   0  0  0  0  0  0  0  0  0  0  0  0
  190.4140  176.5010  137.7630 N   0  0  0  0  0  0  0  0  0  0  0  0
  192.1470  175.3570  134.6270 C   0  0  0  0  0  1  0  0  0  0  0  0
  191.4090  176.2380  136.8680 C   0  0  0  0  0  0  0  0  0  0  0  0
  187.4510  175.2430  136.0180 O   0  0  0  0  0  1  0  0  0  0  0  0
  189.7690  175.3080  135.3600 C   0  0  0  0  0  3  0  0  0  0  0  0
  188.1050  176.4830  138.4750 N   0  0  0  0  0  2  0  0  0  0  0  0
  189.1120  176.1980  137.5050 C   0  0  0  0  0  0  0  0  0  0  0  0
  192.7400  176.5470  137.1690 O   0  0  0  0  0  0  0  0  0  0  0  0
  193.1650  176.7630  138.4530 C   0  0  0  0  0  0  0  0  0  0  0  0
  193.5410  176.9630  139.5810 C   0  0  0  0  0  3  0  0  0  0  0  0
  189.9450  176.7350  142.7400 C   0  0  0  0  0  2  0  0  0  0  0  0
  191.6520  177.3480  142.8490 S   0  0  0  0  0  0  0  0  0  0  0  0
  191.4630  177.7060  144.6200 C   0  0  0  0  0  2  0  0  0  0  0  0
  191.6710  176.4430  145.4390 C   0  0  0  0  0  2  0  0  0  0  0  0
  191.6540  176.7520  146.8610 N   0  0  0  0  0  0  0  0  0  0  0  0
  190.3540  176.7670  147.2450 O   0  0  0  0  0  1  0  0  0  0  0  0
  192.2770  175.6320  147.5410 C   0  0  0  0  0  1  0  0  0  0  0  0
  1 10  2  0  0  0  0
  1  3  1  0  0  0  0
  3  9  2  0  0  0  0
  4  5  1  0  0  0  0
  4  8  2  0  0  0  0
  6 13  1  6  0  0  0
  6 11  1  0  0  0  0
  6  1  1  0  0  0  0
  7  3  1  0  0  0  0
  7 26  1  0  0  0  0
  9  8  1  0  0  0  0
  9  2  1  0  0  0  0
 10  4  1  0  0  0  0
 11  7  1  0  0  0  0
 12 13  2  0  0  0  0
 14 22  2  0  0  0  0
 15 18  1  0  0  0  0
 17 15  1  0  0  0  0
 18 23  1  0  0  0  0
 18 16  2  0  0  0  0
 19 14  1  0  0  0  0
 20 15  2  0  0  0  0
 20 14  1  0  0  0  0
 21 13  1  0  0  0  0
 22 16  1  0  0  0  0
 22 21  1  0  0  0  0
 23 24  1  0  0  0  0
 24 25  3  0  0  0  0
 26 27  1  0  0  0  0
 27 28  1  0  0  0  0
 28 29  1  0  0  0  0
 29 30  1  0  0  0  0
 30 31  1  0  0  0  0
 30 32  1  0  0  0  0
M  END
>  <MODEL>
8

>  <REMARK>
 VINA RESULT:      -7.2      3.499      6.205
  Name = 
  9 active torsions:
  status: ('A' for Active; 'I' for Inactive)
    1  A    between atoms: C_1  and  O_3
    2  A    between atoms: O_3  and  C_17
    3  A    between atoms: N_6  and  C_15
    4  A    between atoms: C_7  and  S_16
    5  A    between atoms: C_7  and  N_23
    6  A    between atoms: C_15  and  C_30
    7  A    between atoms: S_16  and  C_30
    8  A    between atoms: C_18  and  C_21
    9  A    between atoms: C_18  and  N_27
                            x       y       z     vdW  Elec       q    Type
                         _______ _______ _______ _____ _____    ______ ____

>  <TORSDO>
F 9

$$$$
=
 OpenBabel10222416363D

 32 34  0  0  1  0  0  0  0  0999 V2000
  186.2640  178.6250  142.9000 C   0  0  0  0  0  0  0  0  0  0  0  0
  188.9020  176.6620  144.7920 C   0  0  0  0  0  1  0  0  0  0  0  0
  187.4150  177.9300  143.1700 C   0  0  0  0  0  0  0  0  0  0  0  0
  185.5360  178.3730  145.1770 C   0  0  0  0  0  0  0  0  0  0  0  0
  184.5460  178.6280  146.2530 C   0  0  0  0  0  1  0  0  0  0  0  0
  186.2610  179.0960  141.4900 C   0  0  1  0  0  3  0  0  0  0  0  0
  188.2540  177.8570  142.0240 N   0  0  0  0  0  0  0  0  0  0  0  0
  186.7060  177.6450  145.4580 C   0  0  0  0  0  3  0  0  0  0  0  0
  187.6610  177.4150  144.4540 C   0  0  0  0  0  0  0  0  0  0  0  0
  185.3100  178.8730  143.8870 C   0  0  0  0  0  3  0  0  0  0  0  0
  187.5750  178.5320  140.9160 C   0  0  0  0  0  2  0  0  0  0  0  0
  184.0530  178.0950  141.3870 C   0  0  0  0  0  2  0  0  0  0  0  0
  185.0570  178.6350  140.7090 C   0  0  0  0  0  0  0  0  0  0  0  0
  183.0260  178.2460  137.8380 C   0  0  0  0  0  0  0  0  0  0  0  0
  181.1320  179.7140  137.5240 C   0  0  0  0  0  0  0  0  0  0  0  0
  182.9410  180.3620  138.9460 N   0  0  0  0  0  0  0  0  0  0  0  0
  179.8090  179.9810  136.8970 C   0  0  0  0  0  1  0  0  0  0  0  0
  181.7350  180.6490  138.3770 C   0  0  0  0  0  0  0  0  0  0  0  0
  183.6780  177.0500  137.5660 O   0  0  0  0  0  1  0  0  0  0  0  0
  181.7880  178.5130  137.2520 C   0  0  0  0  0  3  0  0  0  0  0  0
  184.8550  178.9330  139.3180 N   0  0  0  0  0  2  0  0  0  0  0  0
  183.5890  179.1890  138.7080 C   0  0  0  0  0  0  0  0  0  0  0  0
  181.1000  181.8700  138.6280 O   0  0  0  0  0  0  0  0  0  0  0  0
  181.1820  182.9260  137.7600 C   0  0  0  0  0  0  0  0  0  0  0  0
  181.2490  183.8620  137.0020 C   0  0  0  0  0  3  0  0  0  0  0  0
  189.2410  176.8100  141.8050 C   0  0  0  0  0  2  0  0  0  0  0  0
  190.9220  177.4990  141.8300 S   0  0  0  0  0  0  0  0  0  0  0  0
  190.9760  177.5630  140.0140 C   0  0  0  0  0  2  0  0  0  0  0  0
  190.2310  176.3780  139.4230 C   0  0  0  0  0  2  0  0  0  0  0  0
  191.1520  175.5050  138.7120 N   0  0  0  0  0  0  0  0  0  0  0  0
  190.4160  174.7960  137.8210 O   0  0  0  0  0  1  0  0  0  0  0  0
  192.0310  176.3630  137.9380 C   0  0  0  0  0  1  0  0  0  0  0  0
  1  3  2  0  0  0  0
  1 10  1  0  0  0  0
  3  9  1  0  0  0  0
  4  8  1  0  0  0  0
  4  5  1  0  0  0  0
  6 13  1  6  0  0  0
  6  1  1  0  0  0  0
  7  3  1  0  0  0  0
  9  2  1  0  0  0  0
  9  8  2  0  0  0  0
 10  4  2  0  0  0  0
 11  6  1  0  0  0  0
 11  7  1  0  0  0  0
 13 12  2  0  0  0  0
 14 22  2  0  0  0  0
 15 18  1  0  0  0  0
 17 15  1  0  0  0  0
 18 23  1  0  0  0  0
 18 16  2  0  0  0  0
 19 14  1  0  0  0  0
 20 15  2  0  0  0  0
 20 14  1  0  0  0  0
 21 13  1  0  0  0  0
 22 16  1  0  0  0  0
 22 21  1  0  0  0  0
 24 23  1  0  0  0  0
 25 24  3  0  0  0  0
 26 27  1  0  0  0  0
 26  7  1  0  0  0  0
 28 27  1  0  0  0  0
 29 28  1  0  0  0  0
 30 29  1  0  0  0  0
 31 30  1  0  0  0  0
 32 30  1  0  0  0  0
M  END
>  <MODEL>
9

>  <REMARK>
 VINA RESULT:      -7.2      3.836      7.442
  Name = 
  9 active torsions:
  status: ('A' for Active; 'I' for Inactive)
    1  A    between atoms: C_1  and  O_3
    2  A    between atoms: O_3  and  C_17
    3  A    between atoms: N_6  and  C_15
    4  A    between atoms: C_7  and  S_16
    5  A    between atoms: C_7  and  N_23
    6  A    between atoms: C_15  and  C_30
    7  A    between atoms: S_16  and  C_30
    8  A    between atoms: C_18  and  C_21
    9  A    between atoms: C_18  and  N_27
                            x       y       z     vdW  Elec       q    Type
                         _______ _______ _______ _____ _____    ______ ____

>  <TORSDO>
F 9

$$$$
