=
 OpenBabel10222416493D

 45 50  0  0  1  0  0  0  0  0999 V2000
  185.4240  179.6790  141.0170 O   0  0  0  0  0  0  0  0  0  0  0  0
  185.3710  178.5020  140.2300 C   0  0  1  0  0  3  0  0  0  0  0  0
  185.6560  178.4660  141.6880 C   0  0  1  0  0  0  0  0  0  0  0  0
  189.7100  177.6380  142.8580 C   0  0  0  0  0  0  0  0  0  0  0  0
  187.3410  177.1100  142.9330 C   0  0  0  0  0  3  0  0  0  0  0  0
  189.4340  178.6950  141.9810 C   0  0  0  0  0  3  0  0  0  0  0  0
  188.6540  176.8370  143.3190 C   0  0  0  0  0  3  0  0  0  0  0  0
  187.0710  178.1800  142.0770 C   0  0  0  0  0  0  0  0  0  0  0  0
  188.1220  178.9720  141.6000 C   0  0  0  0  0  3  0  0  0  0  0  0
  191.5730  177.9280  144.5470 C   0  0  0  0  0  2  0  0  0  0  0  0
  191.8650  177.4340  146.8750 O   0  0  0  0  0  1  0  0  0  0  0  0
  191.1370  177.3250  143.2030 C   0  0  1  0  0  3  0  0  0  0  0  0
  191.9940  175.1950  144.3370 C   0  0  0  0  0  2  0  0  0  0  0  0
  191.4260  175.8230  143.0640 C   0  0  0  0  0  2  0  0  0  0  0  0
  191.1010  177.1020  145.7560 C   0  0  2  0  0  3  0  0  0  0  0  0
  191.1290  175.5860  145.5320 C   0  0  0  0  0  2  0  0  0  0  0  0
  183.0440  178.3760  144.2760 O   0  0  0  0  0  0  0  0  0  0  0  0
  184.5510  178.0430  142.5460 N   0  0  0  0  0  2  0  0  0  0  0  0
  184.1390  178.6970  143.7500 C   0  0  0  0  0  0  0  0  0  0  0  0
  185.0020  179.7180  144.4170 C   0  0  0  0  0  2  0  0  0  0  0  0
  185.2870  179.3410  145.8690 C   0  0  0  0  0  2  0  0  0  0  0  0
  186.0870  178.0510  145.9770 C   0  0  0  0  0  2  0  0  0  0  0  0
  187.5190  178.2940  146.4340 C   0  0  0  0  0  2  0  0  0  0  0  0
  188.7190  177.9790  148.5950 C   0  0  0  0  0  1  0  0  0  0  0  0
  187.9270  177.2850  147.5030 C   0  0  0  0  0  2  0  0  0  0  0  0
  184.0320  178.1970  139.9340 O   0  0  0  0  0  0  0  0  0  0  0  0
  183.9060  178.3300  138.5450 C   0  0  1  0  0  3  0  0  0  0  0  0
  182.8690  176.9430  136.8790 O   0  0  0  0  0  1  0  0  0  0  0  0
  186.2380  176.3750  136.6680 C   0  0  1  0  0  3  0  0  0  0  0  0
  185.2090  177.2860  137.3040 C   0  0  2  0  0  0  0  0  0  0  0  0
  185.2900  178.6400  137.9400 C   0  0  0  0  0  2  0  0  0  0  0  0
  183.8590  176.9410  137.8680 C   0  0  1  0  0  3  0  0  0  0  0  0
  185.3840  177.3100  135.8010 C   0  0  0  0  0  2  0  0  0  0  0  0
  188.0400  176.6820  138.3520 C   0  0  0  0  0  2  0  0  0  0  0  0
  190.0370  176.7120  136.2220 C   0  0  2  0  0  3  0  0  0  0  0  0
  190.4060  176.2280  137.6120 C   0  0  0  0  0  0  0  0  0  0  0  0
  187.6400  176.9300  136.8810 C   0  0  1  0  0  3  0  0  0  0  0  0
  189.4630  176.2320  138.5670 C   0  0  0  0  0  3  0  0  0  0  0  0
  188.6140  176.2880  135.8920 C   0  0  0  0  0  2  0  0  0  0  0  0
  190.8960  176.2150  135.2380 O   0  0  0  0  0  0  0  0  0  0  0  0
  190.2340  175.0920  134.7230 C   0  0  0  0  0  1  0  0  0  0  0  0
  191.7810  175.7730  137.9620 C   0  0  0  0  0  0  0  0  0  0  0  0
  192.0630  174.5440  137.9790 O   0  0  0  0  0  0  0  0  0  0  0  0
  193.8810  176.3870  138.8960 O   0  0  0  0  0  0  0  0  0  0  0  0
  192.8310  176.7460  138.2980 C   0  0  0  0  0  3  0  0  0  0  0  0
  1  3  1  0  0  0  0
  2 26  1  1  0  0  0
  2  1  1  0  0  0  0
  2  3  1  0  0  0  0
  3  8  1  0  0  0  0
  3 18  1  1  0  0  0
  4  7  1  0  0  0  0
  5  7  2  0  0  0  0
  6  4  2  0  0  0  0
  8  5  1  0  0  0  0
  9  6  1  0  0  0  0
  9  8  2  0  0  0  0
 10 15  1  0  0  0  0
 12  4  1  1  0  0  0
 12 10  1  0  0  0  0
 13 16  1  0  0  0  0
 14 12  1  0  0  0  0
 14 13  1  0  0  0  0
 15 11  1  1  0  0  0
 16 15  1  0  0  0  0
 18 19  1  0  0  0  0
 19 17  2  0  0  0  0
 19 20  1  0  0  0  0
 20 21  1  0  0  0  0
 21 22  1  0  0  0  0
 22 23  1  0  0  0  0
 23 25  1  0  0  0  0
 25 24  1  0  0  0  0
 27 26  1  1  0  0  0
 29 33  1  6  0  0  0
 29 37  1  0  0  0  0
 29 30  1  0  0  0  0
 30 33  1  6  0  0  0
 30 32  1  0  0  0  0
 30 31  1  0  0  0  0
 31 27  1  0  0  0  0
 32 28  1  6  0  0  0
 32 27  1  0  0  0  0
 34 38  1  0  0  0  0
 35 40  1  6  0  0  0
 35 36  1  0  0  0  0
 36 42  1  0  0  0  0
 36 38  2  0  0  0  0
 37 39  1  6  0  0  0
 37 34  1  0  0  0  0
 39 35  1  0  0  0  0
 41 40  1  0  0  0  0
 42 43  2  0  0  0  0
 42 45  1  0  0  0  0
 45 44  2  0  0  0  0
M  END
>  <MODEL>
1

>  <REMARK>
 VINA RESULT:      -7.4      0.000      0.000
  Name = 
  14 active torsions:
  status: ('A' for Active; 'I' for Inactive)
    1  A    between atoms: C_2  and  O_32
    2  A    between atoms: C_3  and  C_34
    3  A    between atoms: C_3  and  C_41
    4  A    between atoms: O_4  and  C_24
    5  A    between atoms: C_7  and  C_18
    6  A    between atoms: C_10  and  C_30
    7  A    between atoms: C_13  and  C_29
    8  A    between atoms: C_13  and  C_33
    9  A    between atoms: C_15  and  C_22
   10  A    between atoms: C_15  and  C_40
   11  A    between atoms: C_22  and  C_41
   12  A    between atoms: N_27  and  C_43
   13  A    between atoms: C_31  and  O_32
   14  A    between atoms: C_37  and  C_43
                            x       y       z     vdW  Elec       q    Type
                         _______ _______ _______ _____ _____    ______ ____

>  <TORSDO>
F 14

$$$$
=
 OpenBabel10222416493D

 45 50  0  0  1  0  0  0  0  0999 V2000
  190.1470  175.6520  139.0880 O   0  0  0  0  0  0  0  0  0  0  0  0
  191.0500  176.4600  139.8230 C   0  0  1  0  0  3  0  0  0  0  0  0
  191.0150  176.4640  138.3380 C   0  0  1  0  0  0  0  0  0  0  0  0
  194.2710  174.4340  136.3950 C   0  0  0  0  0  0  0  0  0  0  0  0
  192.0930  174.3870  137.4690 C   0  0  0  0  0  3  0  0  0  0  0  0
  194.3080  175.8250  136.5580 C   0  0  0  0  0  3  0  0  0  0  0  0
  193.1470  173.7210  136.8420 C   0  0  0  0  0  3  0  0  0  0  0  0
  192.1470  175.7710  137.6490 C   0  0  0  0  0  0  0  0  0  0  0  0
  193.2580  176.4900  137.1900 C   0  0  0  0  0  3  0  0  0  0  0  0
  196.6300  174.6400  135.5010 C   0  0  0  0  0  2  0  0  0  0  0  0
  198.7820  175.1240  136.4410 O   0  0  0  0  0  1  0  0  0  0  0  0
  195.3860  173.7520  135.6580 C   0  0  1  0  0  3  0  0  0  0  0  0
  197.1330  172.1740  136.6660 C   0  0  0  0  0  2  0  0  0  0  0  0
  195.6750  172.3640  136.2470 C   0  0  0  0  0  2  0  0  0  0  0  0
  197.4980  174.6840  136.7700 C   0  0  2  0  0  3  0  0  0  0  0  0
  197.5770  173.3540  137.5260 C   0  0  0  0  0  2  0  0  0  0  0  0
  188.7130  178.5820  136.4030 O   0  0  0  0  0  0  0  0  0  0  0  0
  190.3600  177.6130  137.7140 N   0  0  0  0  0  2  0  0  0  0  0  0
  189.3580  177.5440  136.6960 C   0  0  0  0  0  0  0  0  0  0  0  0
  189.0930  176.2800  135.9470 C   0  0  0  0  0  2  0  0  0  0  0  0
  187.5970  176.0660  135.7290 C   0  0  0  0  0  2  0  0  0  0  0  0
  186.8300  176.0210  137.0430 C   0  0  0  0  0  2  0  0  0  0  0  0
  185.5610  176.8600  137.0020 C   0  0  0  0  0  2  0  0  0  0  0  0
  184.4860  178.1750  138.8250 C   0  0  0  0  0  1  0  0  0  0  0  0
  185.6880  178.0840  137.9050 C   0  0  0  0  0  2  0  0  0  0  0  0
  190.3560  177.5470  140.3810 O   0  0  0  0  0  0  0  0  0  0  0  0
  190.6470  177.5250  141.7510 C   0  0  1  0  0  3  0  0  0  0  0  0
  191.0400  175.7190  143.2880 O   0  0  0  0  0  1  0  0  0  0  0  0
  187.8350  176.7930  143.8360 C   0  0  1  0  0  3  0  0  0  0  0  0
  189.1150  177.1480  143.1070 C   0  0  2  0  0  0  0  0  0  0  0  0
  189.6320  178.4140  142.4970 C   0  0  0  0  0  2  0  0  0  0  0  0
  190.0860  176.2410  142.4060 C   0  0  1  0  0  3  0  0  0  0  0  0
  189.1010  177.1640  144.6210 C   0  0  0  0  0  2  0  0  0  0  0  0
  186.1020  177.8800  142.4240 C   0  0  0  0  0  2  0  0  0  0  0  0
  184.8180  178.9570  144.8150 C   0  0  2  0  0  3  0  0  0  0  0  0
  184.0000  178.6640  143.5720 C   0  0  0  0  0  0  0  0  0  0  0  0
  186.8510  177.9530  143.7730 C   0  0  1  0  0  3  0  0  0  0  0  0
  184.6240  178.1730  142.4900 C   0  0  0  0  0  3  0  0  0  0  0  0
  185.9050  177.9040  144.9740 C   0  0  0  0  0  2  0  0  0  0  0  0
  184.0380  178.9780  145.9750 O   0  0  0  0  0  0  0  0  0  0  0  0
  184.7880  178.2650  146.9200 C   0  0  0  0  0  1  0  0  0  0  0  0
  182.5350  178.9270  143.4980 C   0  0  0  0  0  0  0  0  0  0  0  0
  181.8730  179.1530  144.5470 O   0  0  0  0  0  0  0  0  0  0  0  0
  180.8020  179.6230  142.0250 O   0  0  0  0  0  0  0  0  0  0  0  0
  181.8360  178.9240  142.2040 C   0  0  0  0  0  3  0  0  0  0  0  0
  1  2  1  0  0  0  0
  2 26  1  1  0  0  0
  3 18  1  6  0  0  0
  3  1  1  0  0  0  0
  3  2  1  0  0  0  0
  4  6  2  0  0  0  0
  4  7  1  0  0  0  0
  5  8  1  0  0  0  0
  6  9  1  0  0  0  0
  7  5  2  0  0  0  0
  8  3  1  0  0  0  0
  9  8  2  0  0  0  0
 10 12  1  0  0  0  0
 10 15  1  0  0  0  0
 12 14  1  0  0  0  0
 12  4  1  1  0  0  0
 13 16  1  0  0  0  0
 14 13  1  0  0  0  0
 15 11  1  6  0  0  0
 15 16  1  0  0  0  0
 17 19  2  0  0  0  0
 19 18  1  0  0  0  0
 20 19  1  0  0  0  0
 21 20  1  0  0  0  0
 21 22  1  0  0  0  0
 23 22  1  0  0  0  0
 23 25  1  0  0  0  0
 25 24  1  0  0  0  0
 27 26  1  6  0  0  0
 27 32  1  0  0  0  0
 27 31  1  0  0  0  0
 29 33  1  1  0  0  0
 30 31  1  6  0  0  0
 30 29  1  0  0  0  0
 30 33  1  0  0  0  0
 32 30  1  0  0  0  0
 32 28  1  1  0  0  0
 34 38  1  0  0  0  0
 35 39  1  0  0  0  0
 35 40  1  1  0  0  0
 36 35  1  0  0  0  0
 37 34  1  6  0  0  0
 37 29  1  0  0  0  0
 37 39  1  0  0  0  0
 38 36  2  0  0  0  0
 40 41  1  0  0  0  0
 42 36  1  0  0  0  0
 42 43  2  0  0  0  0
 44 45  2  0  0  0  0
 45 42  1  0  0  0  0
M  END
>  <MODEL>
2

>  <REMARK>
 VINA RESULT:      -7.0      3.004      9.414
  Name = 
  14 active torsions:
  status: ('A' for Active; 'I' for Inactive)
    1  A    between atoms: C_2  and  O_32
    2  A    between atoms: C_3  and  C_34
    3  A    between atoms: C_3  and  C_41
    4  A    between atoms: O_4  and  C_24
    5  A    between atoms: C_7  and  C_18
    6  A    between atoms: C_10  and  C_30
    7  A    between atoms: C_13  and  C_29
    8  A    between atoms: C_13  and  C_33
    9  A    between atoms: C_15  and  C_22
   10  A    between atoms: C_15  and  C_40
   11  A    between atoms: C_22  and  C_41
   12  A    between atoms: N_27  and  C_43
   13  A    between atoms: C_31  and  O_32
   14  A    between atoms: C_37  and  C_43
                            x       y       z     vdW  Elec       q    Type
                         _______ _______ _______ _____ _____    ______ ____

>  <TORSDO>
F 14

$$$$
=
 OpenBabel10222416493D

 45 50  0  0  1  0  0  0  0  0999 V2000
  184.6890  179.6480  141.4990 O   0  0  0  0  0  0  0  0  0  0  0  0
  184.3120  178.4340  140.8720 C   0  0  1  0  0  3  0  0  0  0  0  0
  184.9550  178.4660  142.2120 C   0  0  1  0  0  0  0  0  0  0  0  0
  189.0670  177.2110  142.3210 C   0  0  0  0  0  0  0  0  0  0  0  0
  187.3270  178.6700  141.4600 C   0  0  0  0  0  3  0  0  0  0  0  0
  188.1210  176.5890  143.1460 C   0  0  0  0  0  3  0  0  0  0  0  0
  188.6620  178.2660  141.4880 C   0  0  0  0  0  3  0  0  0  0  0  0
  186.3850  178.0300  142.2680 C   0  0  0  0  0  0  0  0  0  0  0  0
  186.7850  176.9880  143.1140 C   0  0  0  0  0  3  0  0  0  0  0  0
  191.4440  177.9810  142.7250 C   0  0  0  0  0  2  0  0  0  0  0  0
  192.6000  179.1160  144.4930 O   0  0  0  0  0  1  0  0  0  0  0  0
  190.5080  176.8020  142.4200 C   0  0  1  0  0  3  0  0  0  0  0  0
  191.6800  175.8550  144.4900 C   0  0  0  0  0  2  0  0  0  0  0  0
  190.6820  175.6010  143.3610 C   0  0  0  0  0  2  0  0  0  0  0  0
  191.4540  178.3690  144.2130 C   0  0  2  0  0  3  0  0  0  0  0  0
  191.3540  177.1800  145.1750 C   0  0  0  0  0  2  0  0  0  0  0  0
  183.2380  178.8010  145.4470 O   0  0  0  0  0  0  0  0  0  0  0  0
  184.0690  178.2510  143.3540 N   0  0  0  0  0  2  0  0  0  0  0  0
  184.1840  178.8960  144.6260 C   0  0  0  0  0  0  0  0  0  0  0  0
  185.4190  179.6400  145.0130 C   0  0  0  0  0  2  0  0  0  0  0  0
  185.8660  179.2770  146.4280 C   0  0  0  0  0  2  0  0  0  0  0  0
  186.4110  177.8590  146.5080 C   0  0  0  0  0  2  0  0  0  0  0  0
  187.9290  177.8160  146.4030 C   0  0  0  0  0  2  0  0  0  0  0  0
  188.3100  178.0060  148.8580 C   0  0  0  0  0  1  0  0  0  0  0  0
  188.5410  177.1460  147.6300 C   0  0  0  0  0  2  0  0  0  0  0  0
  182.9170  178.2830  140.9480 O   0  0  0  0  0  0  0  0  0  0  0  0
  182.3940  179.0040  139.8670 C   0  0  1  0  0  3  0  0  0  0  0  0
  180.1430  179.5690  139.2420 O   0  0  0  0  0  1  0  0  0  0  0  0
  181.0930  176.9630  137.2360 C   0  0  1  0  0  3  0  0  0  0  0  0
  181.6260  177.9690  138.2340 C   0  0  2  0  0  0  0  0  0  0  0  0
  183.0030  178.4630  138.5580 C   0  0  0  0  0  2  0  0  0  0  0  0
  180.9870  178.4820  139.4940 C   0  0  1  0  0  3  0  0  0  0  0  0
  181.1020  178.4610  136.9020 C   0  0  0  0  0  2  0  0  0  0  0  0
  183.1610  177.2770  135.8940 C   0  0  0  0  0  2  0  0  0  0  0  0
  184.2270  174.7660  136.9360 C   0  0  2  0  0  3  0  0  0  0  0  0
  185.1650  175.8800  136.5140 C   0  0  0  0  0  0  0  0  0  0  0  0
  182.2410  176.2280  136.5580 C   0  0  1  0  0  3  0  0  0  0  0  0
  184.6400  177.0190  136.0360 C   0  0  0  0  0  3  0  0  0  0  0  0
  182.9800  175.3580  137.5750 C   0  0  0  0  0  2  0  0  0  0  0  0
  184.8210  173.8810  137.8400 O   0  0  0  0  0  0  0  0  0  0  0  0
  184.4250  172.6090  137.4030 C   0  0  0  0  0  1  0  0  0  0  0  0
  186.6480  175.7480  136.5860 C   0  0  0  0  0  0  0  0  0  0  0  0
  187.2520  174.9190  135.8520 O   0  0  0  0  0  0  0  0  0  0  0  0
  188.2750  177.4100  137.0840 O   0  0  0  0  0  0  0  0  0  0  0  0
  187.4320  176.5770  137.5130 C   0  0  0  0  0  3  0  0  0  0  0  0
  1  3  1  0  0  0  0
  2 26  1  1  0  0  0
  2  1  1  0  0  0  0
  2  3  1  0  0  0  0
  3  8  1  0  0  0  0
  3 18  1  1  0  0  0
  4  6  1  0  0  0  0
  5  7  1  0  0  0  0
  5  8  2  0  0  0  0
  7  4  2  0  0  0  0
  8  9  1  0  0  0  0
  9  6  2  0  0  0  0
 10 15  1  0  0  0  0
 12  4  1  1  0  0  0
 12 10  1  0  0  0  0
 12 14  1  0  0  0  0
 13 16  1  0  0  0  0
 14 13  1  0  0  0  0
 15 11  1  1  0  0  0
 15 16  1  0  0  0  0
 18 19  1  0  0  0  0
 19 20  1  0  0  0  0
 19 17  2  0  0  0  0
 20 21  1  0  0  0  0
 21 22  1  0  0  0  0
 23 22  1  0  0  0  0
 23 25  1  0  0  0  0
 25 24  1  0  0  0  0
 27 26  1  1  0  0  0
 29 33  1  6  0  0  0
 29 30  1  0  0  0  0
 30 33  1  6  0  0  0
 30 31  1  0  0  0  0
 30 32  1  0  0  0  0
 31 27  1  0  0  0  0
 32 28  1  6  0  0  0
 32 27  1  0  0  0  0
 34 38  1  0  0  0  0
 35 39  1  0  0  0  0
 35 40  1  1  0  0  0
 36 42  1  0  0  0  0
 36 35  1  0  0  0  0
 37 34  1  1  0  0  0
 37 29  1  0  0  0  0
 37 39  1  0  0  0  0
 38 36  2  0  0  0  0
 41 40  1  0  0  0  0
 42 45  1  0  0  0  0
 43 42  2  0  0  0  0
 44 45  2  0  0  0  0
M  END
>  <MODEL>
3

>  <REMARK>
 VINA RESULT:      -6.8      2.181      3.577
  Name = 
  14 active torsions:
  status: ('A' for Active; 'I' for Inactive)
    1  A    between atoms: C_2  and  O_32
    2  A    between atoms: C_3  and  C_34
    3  A    between atoms: C_3  and  C_41
    4  A    between atoms: O_4  and  C_24
    5  A    between atoms: C_7  and  C_18
    6  A    between atoms: C_10  and  C_30
    7  A    between atoms: C_13  and  C_29
    8  A    between atoms: C_13  and  C_33
    9  A    between atoms: C_15  and  C_22
   10  A    between atoms: C_15  and  C_40
   11  A    between atoms: C_22  and  C_41
   12  A    between atoms: N_27  and  C_43
   13  A    between atoms: C_31  and  O_32
   14  A    between atoms: C_37  and  C_43
                            x       y       z     vdW  Elec       q    Type
                         _______ _______ _______ _____ _____    ______ ____

>  <TORSDO>
F 14

$$$$
=
 OpenBabel10222416493D

 45 50  0  0  1  0  0  0  0  0999 V2000
  184.3560  179.5690  141.6710 O   0  0  0  0  0  0  0  0  0  0  0  0
  183.9890  178.3040  141.1490 C   0  0  1  0  0  3  0  0  0  0  0  0
  184.7350  178.4470  142.4270 C   0  0  1  0  0  0  0  0  0  0  0  0
  188.9010  177.3820  142.3740 C   0  0  0  0  0  0  0  0  0  0  0  0
  186.6540  177.0780  143.2450 C   0  0  0  0  0  3  0  0  0  0  0  0
  188.4160  178.3660  141.5020 C   0  0  0  0  0  3  0  0  0  0  0  0
  188.0060  176.7290  143.2360 C   0  0  0  0  0  3  0  0  0  0  0  0
  186.1830  178.0760  142.3900 C   0  0  0  0  0  0  0  0  0  0  0  0
  187.0680  178.7190  141.5160 C   0  0  0  0  0  3  0  0  0  0  0  0
  191.3040  178.1200  142.6670 C   0  0  0  0  0  2  0  0  0  0  0  0
  192.6100  179.0330  144.4590 O   0  0  0  0  0  1  0  0  0  0  0  0
  190.3450  176.9790  142.2960 C   0  0  1  0  0  3  0  0  0  0  0  0
  191.6910  175.7890  144.1200 C   0  0  0  0  0  2  0  0  0  0  0  0
  190.5990  175.6700  143.0580 C   0  0  0  0  0  2  0  0  0  0  0  0
  191.4440  178.3160  144.1860 C   0  0  2  0  0  3  0  0  0  0  0  0
  191.4270  177.0130  144.9930 C   0  0  0  0  0  2  0  0  0  0  0  0
  183.3100  178.8760  145.7900 O   0  0  0  0  0  0  0  0  0  0  0  0
  183.9540  178.2650  143.6490 N   0  0  0  0  0  2  0  0  0  0  0  0
  184.1790  178.9470  144.8860 C   0  0  0  0  0  0  0  0  0  0  0  0
  185.4420  179.7030  145.1410 C   0  0  0  0  0  2  0  0  0  0  0  0
  186.0040  179.3950  146.5270 C   0  0  0  0  0  2  0  0  0  0  0  0
  186.5660  177.9830  146.6140 C   0  0  0  0  0  2  0  0  0  0  0  0
  188.0710  177.9450  146.3920 C   0  0  0  0  0  2  0  0  0  0  0  0
  188.0170  177.5900  148.8580 C   0  0  0  0  0  1  0  0  0  0  0  0
  188.8210  178.1580  147.7040 C   0  0  0  0  0  2  0  0  0  0  0  0
  182.6130  178.0990  141.3490 O   0  0  0  0  0  0  0  0  0  0  0  0
  181.9730  178.7040  140.2600 C   0  0  1  0  0  3  0  0  0  0  0  0
  179.6530  178.9480  139.6830 O   0  0  0  0  0  1  0  0  0  0  0  0
  180.8840  176.4110  137.7410 C   0  0  1  0  0  3  0  0  0  0  0  0
  181.3060  177.5160  138.6870 C   0  0  2  0  0  0  0  0  0  0  0  0
  182.6140  178.1960  138.9520 C   0  0  0  0  0  2  0  0  0  0  0  0
  180.6380  177.9890  139.9470 C   0  0  1  0  0  3  0  0  0  0  0  0
  180.6880  177.8840  137.3550 C   0  0  0  0  0  2  0  0  0  0  0  0
  183.0720  175.3060  138.1470 C   0  0  0  0  0  2  0  0  0  0  0  0
  182.8920  173.9780  135.5530 C   0  0  2  0  0  3  0  0  0  0  0  0
  183.6610  173.3350  136.6920 C   0  0  0  0  0  0  0  0  0  0  0  0
  182.1010  175.8060  137.0550 C   0  0  1  0  0  3  0  0  0  0  0  0
  183.7260  173.9760  137.8690 C   0  0  0  0  0  3  0  0  0  0  0  0
  181.6660  174.6940  136.1010 C   0  0  0  0  0  2  0  0  0  0  0  0
  182.4810  173.0480  134.5940 O   0  0  0  0  0  0  0  0  0  0  0  0
  181.1750  172.7050  134.9690 C   0  0  0  0  0  1  0  0  0  0  0  0
  184.3680  172.0320  136.5440 C   0  0  0  0  0  0  0  0  0  0  0  0
  183.7730  170.9490  136.7970 O   0  0  0  0  0  0  0  0  0  0  0  0
  186.2300  172.8440  135.3070 O   0  0  0  0  0  0  0  0  0  0  0  0
  185.7710  171.9840  136.1060 C   0  0  0  0  0  3  0  0  0  0  0  0
  1  3  1  0  0  0  0
  2 26  1  1  0  0  0
  2  1  1  0  0  0  0
  2  3  1  0  0  0  0
  3 18  1  1  0  0  0
  4  7  1  0  0  0  0
  6  9  1  0  0  0  0
  6  4  2  0  0  0  0
  7  5  2  0  0  0  0
  8  3  1  0  0  0  0
  8  5  1  0  0  0  0
  9  8  2  0  0  0  0
 10 15  1  0  0  0  0
 12  4  1  1  0  0  0
 12 10  1  0  0  0  0
 12 14  1  0  0  0  0
 13 16  1  0  0  0  0
 14 13  1  0  0  0  0
 15 11  1  6  0  0  0
 15 16  1  0  0  0  0
 18 19  1  0  0  0  0
 19 20  1  0  0  0  0
 19 17  2  0  0  0  0
 20 21  1  0  0  0  0
 21 22  1  0  0  0  0
 23 22  1  0  0  0  0
 23 25  1  0  0  0  0
 25 24  1  0  0  0  0
 27 26  1  1  0  0  0
 29 33  1  6  0  0  0
 29 30  1  0  0  0  0
 30 33  1  6  0  0  0
 30 31  1  0  0  0  0
 30 32  1  0  0  0  0
 31 27  1  0  0  0  0
 32 28  1  6  0  0  0
 32 27  1  0  0  0  0
 35 40  1  6  0  0  0
 35 39  1  0  0  0  0
 35 36  1  0  0  0  0
 36 38  2  0  0  0  0
 37 39  1  6  0  0  0
 37 29  1  0  0  0  0
 37 34  1  0  0  0  0
 38 34  1  0  0  0  0
 40 41  1  0  0  0  0
 42 36  1  0  0  0  0
 42 43  2  0  0  0  0
 44 45  2  0  0  0  0
 45 42  1  0  0  0  0
M  END
>  <MODEL>
4

>  <REMARK>
 VINA RESULT:      -6.8      3.113      4.518
  Name = 
  14 active torsions:
  status: ('A' for Active; 'I' for Inactive)
    1  A    between atoms: C_2  and  O_32
    2  A    between atoms: C_3  and  C_34
    3  A    between atoms: C_3  and  C_41
    4  A    between atoms: O_4  and  C_24
    5  A    between atoms: C_7  and  C_18
    6  A    between atoms: C_10  and  C_30
    7  A    between atoms: C_13  and  C_29
    8  A    between atoms: C_13  and  C_33
    9  A    between atoms: C_15  and  C_22
   10  A    between atoms: C_15  and  C_40
   11  A    between atoms: C_22  and  C_41
   12  A    between atoms: N_27  and  C_43
   13  A    between atoms: C_31  and  O_32
   14  A    between atoms: C_37  and  C_43
                            x       y       z     vdW  Elec       q    Type
                         _______ _______ _______ _____ _____    ______ ____

>  <TORSDO>
F 14

$$$$
=
 OpenBabel10222416493D

 45 50  0  0  1  0  0  0  0  0999 V2000
  188.9660  178.9660  139.7570 O   0  0  0  0  0  0  0  0  0  0  0  0
  188.9930  177.6190  140.1940 C   0  0  1  0  0  3  0  0  0  0  0  0
  188.6440  177.9920  138.7980 C   0  0  1  0  0  0  0  0  0  0  0  0
  184.4810  177.6500  137.7770 C   0  0  0  0  0  0  0  0  0  0  0  0
  186.2500  178.6120  139.1350 C   0  0  0  0  0  3  0  0  0  0  0  0
  185.4420  176.9320  137.0550 C   0  0  0  0  0  3  0  0  0  0  0  0
  184.8960  178.5040  138.8110 C   0  0  0  0  0  3  0  0  0  0  0  0
  187.2000  177.8750  138.4250 C   0  0  0  0  0  0  0  0  0  0  0  0
  186.7930  177.0350  137.3820 C   0  0  0  0  0  3  0  0  0  0  0  0
  182.5950  176.1360  137.0310 C   0  0  0  0  0  2  0  0  0  0  0  0
  181.4940  174.2030  137.9250 O   0  0  0  0  0  1  0  0  0  0  0  0
  183.0390  177.5680  137.3650 C   0  0  1  0  0  3  0  0  0  0  0  0
  181.0180  177.4040  138.9280 C   0  0  0  0  0  2  0  0  0  0  0  0
  182.1310  178.2900  138.3700 C   0  0  0  0  0  2  0  0  0  0  0  0
  182.2820  175.2980  138.2820 C   0  0  2  0  0  3  0  0  0  0  0  0
  181.6090  176.0830  139.4130 C   0  0  0  0  0  2  0  0  0  0  0  0
  190.7380  176.5270  136.1530 O   0  0  0  0  0  0  0  0  0  0  0  0
  189.6870  177.7780  137.7970 N   0  0  0  0  0  2  0  0  0  0  0  0
  189.9750  176.5350  137.1520 C   0  0  0  0  0  0  0  0  0  0  0  0
  189.4260  175.2440  137.6650 C   0  0  0  0  0  2  0  0  0  0  0  0
  189.4670  174.1580  136.5930 C   0  0  0  0  0  2  0  0  0  0  0  0
  188.1120  173.9570  135.9310 C   0  0  0  0  0  2  0  0  0  0  0  0
  187.4330  172.6710  136.3810 C   0  0  0  0  0  2  0  0  0  0  0  0
  185.0280  173.1070  136.8660 C   0  0  0  0  0  1  0  0  0  0  0  0
  186.4080  172.9510  137.4760 C   0  0  0  0  0  2  0  0  0  0  0  0
  190.3270  177.1960  140.3200 O   0  0  0  0  0  0  0  0  0  0  0  0
  190.6110  177.2310  141.6920 C   0  0  1  0  0  3  0  0  0  0  0  0
  190.9560  175.4910  143.3130 O   0  0  0  0  0  1  0  0  0  0  0  0
  187.7740  176.6590  143.7920 C   0  0  1  0  0  3  0  0  0  0  0  0
  189.0650  176.9510  143.0550 C   0  0  2  0  0  0  0  0  0  0  0  0
  189.6130  178.1760  142.3900 C   0  0  0  0  0  2  0  0  0  0  0  0
  190.0190  175.9910  142.4020 C   0  0  1  0  0  3  0  0  0  0  0  0
  189.0440  177.0390  144.5660 C   0  0  0  0  0  2  0  0  0  0  0  0
  186.0710  177.7160  142.3220 C   0  0  0  0  0  2  0  0  0  0  0  0
  184.8030  178.9330  144.6530 C   0  0  2  0  0  3  0  0  0  0  0  0
  183.9830  178.6010  143.4210 C   0  0  0  0  0  0  0  0  0  0  0  0
  186.8160  177.8370  143.6700 C   0  0  1  0  0  3  0  0  0  0  0  0
  184.6000  178.0450  142.3670 C   0  0  0  0  0  3  0  0  0  0  0  0
  185.8650  177.8660  144.8660 C   0  0  0  0  0  2  0  0  0  0  0  0
  184.0190  179.0270  145.8070 O   0  0  0  0  0  0  0  0  0  0  0  0
  184.8150  178.4810  146.8220 C   0  0  0  0  0  1  0  0  0  0  0  0
  182.5240  178.8920  143.3270 C   0  0  0  0  0  0  0  0  0  0  0  0
  181.8190  178.9630  144.3700 O   0  0  0  0  0  0  0  0  0  0  0  0
  180.6760  179.4560  141.9410 O   0  0  0  0  0  0  0  0  0  0  0  0
  181.8820  179.0980  142.0210 C   0  0  0  0  0  3  0  0  0  0  0  0
  1  2  1  0  0  0  0
  2 26  1  6  0  0  0
  3 18  1  6  0  0  0
  3  1  1  0  0  0  0
  3  2  1  0  0  0  0
  4  7  1  0  0  0  0
  6  9  1  0  0  0  0
  6  4  2  0  0  0  0
  7  5  2  0  0  0  0
  8  3  1  0  0  0  0
  8  5  1  0  0  0  0
  9  8  2  0  0  0  0
 10 12  1  0  0  0  0
 10 15  1  0  0  0  0
 12  4  1  1  0  0  0
 12 14  1  0  0  0  0
 13 16  1  0  0  0  0
 14 13  1  0  0  0  0
 15 11  1  6  0  0  0
 15 16  1  0  0  0  0
 17 19  2  0  0  0  0
 19 20  1  0  0  0  0
 19 18  1  0  0  0  0
 21 20  1  0  0  0  0
 22 23  1  0  0  0  0
 22 21  1  0  0  0  0
 23 25  1  0  0  0  0
 24 25  1  0  0  0  0
 27 26  1  6  0  0  0
 27 31  1  0  0  0  0
 27 32  1  0  0  0  0
 29 33  1  1  0  0  0
 30 31  1  6  0  0  0
 30 29  1  0  0  0  0
 30 33  1  0  0  0  0
 32 30  1  0  0  0  0
 32 28  1  1  0  0  0
 34 38  1  0  0  0  0
 35 39  1  0  0  0  0
 35 40  1  1  0  0  0
 36 35  1  0  0  0  0
 37 34  1  6  0  0  0
 37 29  1  0  0  0  0
 37 39  1  0  0  0  0
 38 36  2  0  0  0  0
 40 41  1  0  0  0  0
 42 36  1  0  0  0  0
 42 43  2  0  0  0  0
 44 45  2  0  0  0  0
 45 42  1  0  0  0  0
M  END
>  <MODEL>
5

>  <REMARK>
 VINA RESULT:      -6.6      2.359      9.532
  Name = 
  14 active torsions:
  status: ('A' for Active; 'I' for Inactive)
    1  A    between atoms: C_2  and  O_32
    2  A    between atoms: C_3  and  C_34
    3  A    between atoms: C_3  and  C_41
    4  A    between atoms: O_4  and  C_24
    5  A    between atoms: C_7  and  C_18
    6  A    between atoms: C_10  and  C_30
    7  A    between atoms: C_13  and  C_29
    8  A    between atoms: C_13  and  C_33
    9  A    between atoms: C_15  and  C_22
   10  A    between atoms: C_15  and  C_40
   11  A    between atoms: C_22  and  C_41
   12  A    between atoms: N_27  and  C_43
   13  A    between atoms: C_31  and  O_32
   14  A    between atoms: C_37  and  C_43
                            x       y       z     vdW  Elec       q    Type
                         _______ _______ _______ _____ _____    ______ ____

>  <TORSDO>
F 14

$$$$
=
 OpenBabel10222416493D

 45 50  0  0  1  0  0  0  0  0999 V2000
  184.6210  177.7740  136.4750 O   0  0  0  0  0  0  0  0  0  0  0  0
  185.1130  178.3280  137.6820 C   0  0  1  0  0  3  0  0  0  0  0  0
  183.7070  177.8690  137.5380 C   0  0  1  0  0  0  0  0  0  0  0  0
  180.7360  180.9570  137.1820 C   0  0  0  0  0  0  0  0  0  0  0  0
  181.7320  178.8860  136.3990 C   0  0  0  0  0  3  0  0  0  0  0  0
  181.6650  180.9940  138.2300 C   0  0  0  0  0  3  0  0  0  0  0  0
  180.7670  179.8860  136.2760 C   0  0  0  0  0  3  0  0  0  0  0  0
  182.6700  178.9420  137.4320 C   0  0  0  0  0  0  0  0  0  0  0  0
  182.6340  179.9990  138.3490 C   0  0  0  0  0  3  0  0  0  0  0  0
  180.0610  183.3100  137.8260 C   0  0  0  0  0  2  0  0  0  0  0  0
  180.9570  185.5060  137.4720 O   0  0  0  0  0  1  0  0  0  0  0  0
  179.6670  182.0090  137.1130 C   0  0  1  0  0  3  0  0  0  0  0  0
  179.2760  183.6530  135.1890 C   0  0  0  0  0  2  0  0  0  0  0  0
  179.1740  182.2060  135.6720 C   0  0  0  0  0  2  0  0  0  0  0  0
  180.9890  184.2000  136.9810 C   0  0  2  0  0  3  0  0  0  0  0  0
  180.6720  184.1950  135.4820 C   0  0  0  0  0  2  0  0  0  0  0  0
  182.2780  175.2710  139.7140 O   0  0  0  0  0  0  0  0  0  0  0  0
  183.3850  176.5850  138.1580 N   0  0  0  0  0  2  0  0  0  0  0  0
  182.6940  176.4140  139.3990 C   0  0  0  0  0  0  0  0  0  0  0  0
  182.4960  177.5530  140.3440 C   0  0  0  0  0  2  0  0  0  0  0  0
  183.7500  177.8070  141.1780 C   0  0  0  0  0  2  0  0  0  0  0  0
  183.4490  178.6260  142.4260 C   0  0  0  0  0  2  0  0  0  0  0  0
  184.6880  179.3190  142.9750 C   0  0  0  0  0  2  0  0  0  0  0  0
  183.8290  178.9790  145.2900 C   0  0  0  0  0  1  0  0  0  0  0  0
  185.0240  178.8050  144.3720 C   0  0  0  0  0  2  0  0  0  0  0  0
  185.9240  177.3820  138.3330 O   0  0  0  0  0  0  0  0  0  0  0  0
  187.2400  177.8420  138.1890 C   0  0  1  0  0  3  0  0  0  0  0  0
  189.2510  176.7670  137.4300 O   0  0  0  0  0  1  0  0  0  0  0  0
  189.4280  176.8770  140.8470 C   0  0  1  0  0  3  0  0  0  0  0  0
  188.6360  177.3980  139.6660 C   0  0  2  0  0  0  0  0  0  0  0  0
  187.6770  178.5360  139.4950 C   0  0  0  0  0  2  0  0  0  0  0  0
  188.2460  176.6870  138.4010 C   0  0  1  0  0  3  0  0  0  0  0  0
  190.0750  177.8370  139.8380 C   0  0  0  0  0  2  0  0  0  0  0  0
  187.9480  176.7380  142.8380 C   0  0  0  0  0  2  0  0  0  0  0  0
  189.7990  178.4220  144.3430 C   0  0  2  0  0  3  0  0  0  0  0  0
  188.9320  177.4050  145.0610 C   0  0  0  0  0  0  0  0  0  0  0  0
  189.0130  177.5970  142.1230 C   0  0  1  0  0  3  0  0  0  0  0  0
  188.0890  176.6510  144.3370 C   0  0  0  0  0  3  0  0  0  0  0  0
  190.2390  177.8630  142.9980 C   0  0  0  0  0  2  0  0  0  0  0  0
  190.9340  178.7700  145.0800 O   0  0  0  0  0  0  0  0  0  0  0  0
  192.0120  178.3080  144.3120 C   0  0  0  0  0  1  0  0  0  0  0  0
  188.9600  177.2320  146.5400 C   0  0  0  0  0  0  0  0  0  0  0  0
  189.7840  176.4420  147.0760 O   0  0  0  0  0  0  0  0  0  0  0  0
  188.3720  178.3550  148.5530 O   0  0  0  0  0  0  0  0  0  0  0  0
  188.0270  177.9730  147.4020 C   0  0  0  0  0  3  0  0  0  0  0  0
  1  3  1  0  0  0  0
  1  2  1  0  0  0  0
  2 26  1  1  0  0  0
  3  2  1  0  0  0  0
  3 18  1  1  0  0  0
  4  6  1  0  0  0  0
  5  8  2  0  0  0  0
  6  9  2  0  0  0  0
  7  5  1  0  0  0  0
  7  4  2  0  0  0  0
  8  3  1  0  0  0  0
  8  9  1  0  0  0  0
 12  4  1  6  0  0  0
 12 10  1  0  0  0  0
 13 16  1  0  0  0  0
 13 14  1  0  0  0  0
 14 12  1  0  0  0  0
 15 11  1  1  0  0  0
 15 10  1  0  0  0  0
 16 15  1  0  0  0  0
 18 19  1  0  0  0  0
 19 17  2  0  0  0  0
 19 20  1  0  0  0  0
 20 21  1  0  0  0  0
 21 22  1  0  0  0  0
 22 23  1  0  0  0  0
 23 25  1  0  0  0  0
 25 24  1  0  0  0  0
 27 26  1  1  0  0  0
 27 32  1  0  0  0  0
 27 31  1  0  0  0  0
 29 33  1  6  0  0  0
 29 37  1  0  0  0  0
 30 31  1  1  0  0  0
 30 33  1  0  0  0  0
 30 29  1  0  0  0  0
 32 28  1  6  0  0  0
 32 30  1  0  0  0  0
 34 38  1  0  0  0  0
 35 36  1  0  0  0  0
 35 40  1  1  0  0  0
 36 42  1  0  0  0  0
 37 34  1  1  0  0  0
 37 39  1  0  0  0  0
 38 36  2  0  0  0  0
 39 35  1  0  0  0  0
 41 40  1  0  0  0  0
 42 43  2  0  0  0  0
 42 45  1  0  0  0  0
 45 44  2  0  0  0  0
M  END
>  <MODEL>
6

>  <REMARK>
 VINA RESULT:      -6.5      3.479      8.913
  Name = 
  14 active torsions:
  status: ('A' for Active; 'I' for Inactive)
    1  A    between atoms: C_2  and  O_32
    2  A    between atoms: C_3  and  C_34
    3  A    between atoms: C_3  and  C_41
    4  A    between atoms: O_4  and  C_24
    5  A    between atoms: C_7  and  C_18
    6  A    between atoms: C_10  and  C_30
    7  A    between atoms: C_13  and  C_29
    8  A    between atoms: C_13  and  C_33
    9  A    between atoms: C_15  and  C_22
   10  A    between atoms: C_15  and  C_40
   11  A    between atoms: C_22  and  C_41
   12  A    between atoms: N_27  and  C_43
   13  A    between atoms: C_31  and  O_32
   14  A    between atoms: C_37  and  C_43
                            x       y       z     vdW  Elec       q    Type
                         _______ _______ _______ _____ _____    ______ ____

>  <TORSDO>
F 14

$$$$
=
 OpenBabel10222416493D

 45 50  0  0  1  0  0  0  0  0999 V2000
  190.0930  177.7930  139.2150 O   0  0  0  0  0  0  0  0  0  0  0  0
  189.6240  177.1610  140.3930 C   0  0  1  0  0  3  0  0  0  0  0  0
  189.0810  176.8330  139.0500 C   0  0  1  0  0  0  0  0  0  0  0  0
  185.1290  178.3140  138.2270 C   0  0  0  0  0  0  0  0  0  0  0  0
  187.0860  178.2020  139.6610 C   0  0  0  0  0  3  0  0  0  0  0  0
  185.7720  177.4810  137.3040 C   0  0  0  0  0  3  0  0  0  0  0  0
  185.8020  178.6850  139.4020 C   0  0  0  0  0  3  0  0  0  0  0  0
  187.7110  177.3520  138.7460 C   0  0  0  0  0  0  0  0  0  0  0  0
  187.0520  176.9930  137.5650 C   0  0  0  0  0  3  0  0  0  0  0  0
  182.9180  177.9060  137.0640 C   0  0  0  0  0  2  0  0  0  0  0  0
  181.1830  176.2570  137.2140 O   0  0  0  0  0  1  0  0  0  0  0  0
  183.7760  178.8730  137.8930 C   0  0  1  0  0  3  0  0  0  0  0  0
  181.6950  178.8090  139.3830 C   0  0  0  0  0  2  0  0  0  0  0  0
  183.0750  179.4200  139.1450 C   0  0  0  0  0  2  0  0  0  0  0  0
  182.2530  176.8120  137.9170 C   0  0  2  0  0  3  0  0  0  0  0  0
  181.7850  177.2870  139.2970 C   0  0  0  0  0  2  0  0  0  0  0  0
  191.1720  174.2320  137.5040 O   0  0  0  0  0  0  0  0  0  0  0  0
  189.5460  175.5790  138.4590 N   0  0  0  0  0  2  0  0  0  0  0  0
  190.7840  175.3980  137.7660 C   0  0  0  0  0  0  0  0  0  0  0  0
  191.6000  176.5620  137.3110 C   0  0  0  0  0  2  0  0  0  0  0  0
  193.0780  176.3690  137.6440 C   0  0  0  0  0  2  0  0  0  0  0  0
  193.8930  175.9790  136.4180 C   0  0  0  0  0  2  0  0  0  0  0  0
  195.0540  175.0590  136.7650 C   0  0  0  0  0  2  0  0  0  0  0  0
  195.7830  174.1260  138.9580 C   0  0  0  0  0  1  0  0  0  0  0  0
  194.6840  174.1230  137.9120 C   0  0  0  0  0  2  0  0  0  0  0  0
  190.5770  176.2270  140.8320 O   0  0  0  0  0  0  0  0  0  0  0  0
  191.1140  176.7530  142.0140 C   0  0  1  0  0  3  0  0  0  0  0  0
  191.8990  175.7110  144.0330 O   0  0  0  0  0  1  0  0  0  0  0  0
  188.7830  176.9520  144.7190 C   0  0  1  0  0  3  0  0  0  0  0  0
  189.8820  176.9690  143.6780 C   0  0  2  0  0  0  0  0  0  0  0  0
  190.1940  177.8780  142.5290 C   0  0  0  0  0  2  0  0  0  0  0  0
  190.7690  175.8460  143.2190 C   0  0  1  0  0  3  0  0  0  0  0  0
  190.1420  177.5920  145.0330 C   0  0  0  0  0  2  0  0  0  0  0  0
  186.9340  177.5210  143.1590 C   0  0  0  0  0  2  0  0  0  0  0  0
  185.6800  179.1550  145.2290 C   0  0  2  0  0  3  0  0  0  0  0  0
  184.8340  178.4920  144.1600 C   0  0  0  0  0  0  0  0  0  0  0  0
  187.7280  178.0010  144.3940 C   0  0  1  0  0  3  0  0  0  0  0  0
  185.4440  177.7510  143.2220 C   0  0  0  0  0  3  0  0  0  0  0  0
  186.8350  178.2410  145.6110 C   0  0  0  0  0  2  0  0  0  0  0  0
  184.9460  179.4600  146.3790 O   0  0  0  0  0  0  0  0  0  0  0  0
  185.6310  178.8170  147.4180 C   0  0  0  0  0  1  0  0  0  0  0  0
  183.3540  178.6530  144.0960 C   0  0  0  0  0  0  0  0  0  0  0  0
  182.6390  178.3970  145.1030 O   0  0  0  0  0  0  0  0  0  0  0  0
  181.5010  178.8100  142.6130 O   0  0  0  0  0  0  0  0  0  0  0  0
  182.7000  179.1080  142.8600 C   0  0  0  0  0  3  0  0  0  0  0  0
  1  2  1  0  0  0  0
  2 26  1  6  0  0  0
  3 18  1  6  0  0  0
  3  1  1  0  0  0  0
  3  2  1  0  0  0  0
  4  7  1  0  0  0  0
  6  9  1  0  0  0  0
  6  4  2  0  0  0  0
  7  5  2  0  0  0  0
  8  3  1  0  0  0  0
  8  5  1  0  0  0  0
  9  8  2  0  0  0  0
 10 12  1  0  0  0  0
 10 15  1  0  0  0  0
 12  4  1  1  0  0  0
 12 14  1  0  0  0  0
 14 13  1  0  0  0  0
 15 11  1  6  0  0  0
 15 16  1  0  0  0  0
 16 13  1  0  0  0  0
 17 19  2  0  0  0  0
 19 18  1  0  0  0  0
 20 21  1  0  0  0  0
 20 19  1  0  0  0  0
 22 23  1  0  0  0  0
 22 21  1  0  0  0  0
 23 25  1  0  0  0  0
 25 24  1  0  0  0  0
 27 26  1  6  0  0  0
 27 31  1  0  0  0  0
 27 32  1  0  0  0  0
 29 33  1  1  0  0  0
 30 31  1  6  0  0  0
 30 29  1  0  0  0  0
 30 33  1  0  0  0  0
 32 30  1  0  0  0  0
 32 28  1  1  0  0  0
 34 38  1  0  0  0  0
 35 39  1  0  0  0  0
 35 40  1  1  0  0  0
 36 35  1  0  0  0  0
 37 34  1  6  0  0  0
 37 29  1  0  0  0  0
 37 39  1  0  0  0  0
 38 36  2  0  0  0  0
 40 41  1  0  0  0  0
 42 36  1  0  0  0  0
 42 43  2  0  0  0  0
 44 45  2  0  0  0  0
 45 42  1  0  0  0  0
M  END
>  <MODEL>
7

>  <REMARK>
 VINA RESULT:      -6.2      2.139      9.719
  Name = 
  14 active torsions:
  status: ('A' for Active; 'I' for Inactive)
    1  A    between atoms: C_2  and  O_32
    2  A    between atoms: C_3  and  C_34
    3  A    between atoms: C_3  and  C_41
    4  A    between atoms: O_4  and  C_24
    5  A    between atoms: C_7  and  C_18
    6  A    between atoms: C_10  and  C_30
    7  A    between atoms: C_13  and  C_29
    8  A    between atoms: C_13  and  C_33
    9  A    between atoms: C_15  and  C_22
   10  A    between atoms: C_15  and  C_40
   11  A    between atoms: C_22  and  C_41
   12  A    between atoms: N_27  and  C_43
   13  A    between atoms: C_31  and  O_32
   14  A    between atoms: C_37  and  C_43
                            x       y       z     vdW  Elec       q    Type
                         _______ _______ _______ _____ _____    ______ ____

>  <TORSDO>
F 14

$$$$
=
 OpenBabel10222416493D

 45 50  0  0  1  0  0  0  0  0999 V2000
  185.4080  177.6060  136.2710 O   0  0  0  0  0  0  0  0  0  0  0  0
  185.7770  177.7700  137.6290 C   0  0  1  0  0  3  0  0  0  0  0  0
  184.4320  177.2800  137.2280 C   0  0  1  0  0  0  0  0  0  0  0  0
  181.1880  180.0740  137.6280 C   0  0  0  0  0  0  0  0  0  0  0  0
  182.2710  178.2510  136.4440 C   0  0  0  0  0  3  0  0  0  0  0  0
  182.2140  180.0490  138.5810 C   0  0  0  0  0  3  0  0  0  0  0  0
  181.2160  179.1560  136.5660 C   0  0  0  0  0  3  0  0  0  0  0  0
  183.3030  178.2470  137.3850 C   0  0  0  0  0  0  0  0  0  0  0  0
  183.2720  179.1480  138.4560 C   0  0  0  0  0  3  0  0  0  0  0  0
  180.4630  182.3970  138.3240 C   0  0  0  0  0  2  0  0  0  0  0  0
  180.9700  184.6330  137.6200 O   0  0  0  0  0  1  0  0  0  0  0  0
  180.0320  181.0120  137.8190 C   0  0  1  0  0  3  0  0  0  0  0  0
  178.9310  182.4550  136.0140 C   0  0  0  0  0  2  0  0  0  0  0  0
  179.1330  181.0480  136.5750 C   0  0  0  0  0  2  0  0  0  0  0  0
  181.0080  183.3000  137.2050 C   0  0  2  0  0  3  0  0  0  0  0  0
  180.2830  183.1470  135.8630 C   0  0  0  0  0  2  0  0  0  0  0  0
  182.9950  174.0190  138.1380 O   0  0  0  0  0  0  0  0  0  0  0  0
  184.2040  175.8440  137.3750 N   0  0  0  0  0  2  0  0  0  0  0  0
  183.2590  175.2410  138.2630 C   0  0  0  0  0  0  0  0  0  0  0  0
  182.6140  176.0210  139.3620 C   0  0  0  0  0  2  0  0  0  0  0  0
  181.1240  175.7040  139.4680 C   0  0  0  0  0  2  0  0  0  0  0  0
  180.2750  176.9660  139.5350 C   0  0  0  0  0  2  0  0  0  0  0  0
  179.8810  177.3220  140.9610 C   0  0  0  0  0  2  0  0  0  0  0  0
  181.4470  178.9500  142.0140 C   0  0  0  0  0  1  0  0  0  0  0  0
  180.1470  178.7970  141.2480 C   0  0  0  0  0  2  0  0  0  0  0  0
  186.6390  176.7280  138.0080 O   0  0  0  0  0  0  0  0  0  0  0  0
  187.9370  177.2000  137.7720 C   0  0  1  0  0  3  0  0  0  0  0  0
  189.9700  176.0840  137.1420 O   0  0  0  0  0  1  0  0  0  0  0  0
  190.1940  176.7060  140.5010 C   0  0  1  0  0  3  0  0  0  0  0  0
  189.3690  177.0220  139.2720 C   0  0  2  0  0  0  0  0  0  0  0  0
  188.3710  178.0930  138.9520 C   0  0  0  0  0  2  0  0  0  0  0  0
  188.9830  176.1190  138.1340 C   0  0  1  0  0  3  0  0  0  0  0  0
  190.7950  177.5240  139.3490 C   0  0  0  0  0  2  0  0  0  0  0  0
  188.2830  177.3310  141.9620 C   0  0  0  0  0  2  0  0  0  0  0  0
  190.1410  178.0920  144.0820 C   0  0  2  0  0  3  0  0  0  0  0  0
  188.7480  177.6000  144.4240 C   0  0  0  0  0  0  0  0  0  0  0  0
  189.7760  177.5950  141.6640 C   0  0  1  0  0  3  0  0  0  0  0  0
  187.9190  177.2620  143.4240 C   0  0  0  0  0  3  0  0  0  0  0  0
  190.6720  177.3330  142.8750 C   0  0  0  0  0  2  0  0  0  0  0  0
  191.0380  177.9380  145.1430 O   0  0  0  0  0  0  0  0  0  0  0  0
  191.6810  176.7190  144.8890 C   0  0  0  0  0  1  0  0  0  0  0  0
  188.2560  177.5030  145.8270 C   0  0  0  0  0  0  0  0  0  0  0  0
  188.8690  176.7930  146.6710 O   0  0  0  0  0  0  0  0  0  0  0  0
  186.7460  178.3220  147.4720 O   0  0  0  0  0  0  0  0  0  0  0  0
  187.0490  178.2260  146.2520 C   0  0  0  0  0  3  0  0  0  0  0  0
  1  3  1  0  0  0  0
  1  2  1  0  0  0  0
  2 26  1  1  0  0  0
  3 18  1  1  0  0  0
  3  8  1  0  0  0  0
  3  2  1  0  0  0  0
  4  6  1  0  0  0  0
  5  7  1  0  0  0  0
  5  8  2  0  0  0  0
  7  4  2  0  0  0  0
  8  9  1  0  0  0  0
  9  6  2  0  0  0  0
 12  4  1  6  0  0  0
 12 10  1  0  0  0  0
 13 14  1  0  0  0  0
 14 12  1  0  0  0  0
 15 11  1  1  0  0  0
 15 10  1  0  0  0  0
 16 13  1  0  0  0  0
 16 15  1  0  0  0  0
 17 19  2  0  0  0  0
 18 19  1  0  0  0  0
 19 20  1  0  0  0  0
 20 21  1  0  0  0  0
 21 22  1  0  0  0  0
 22 23  1  0  0  0  0
 23 25  1  0  0  0  0
 25 24  1  0  0  0  0
 27 26  1  1  0  0  0
 27 32  1  0  0  0  0
 27 31  1  0  0  0  0
 29 33  1  6  0  0  0
 29 37  1  0  0  0  0
 30 31  1  1  0  0  0
 30 33  1  0  0  0  0
 30 29  1  0  0  0  0
 32 28  1  6  0  0  0
 32 30  1  0  0  0  0
 34 38  1  0  0  0  0
 35 36  1  0  0  0  0
 35 40  1  1  0  0  0
 36 42  1  0  0  0  0
 37 34  1  1  0  0  0
 37 39  1  0  0  0  0
 38 36  2  0  0  0  0
 39 35  1  0  0  0  0
 41 40  1  0  0  0  0
 42 45  1  0  0  0  0
 42 43  2  0  0  0  0
 45 44  2  0  0  0  0
M  END
>  <MODEL>
8

>  <REMARK>
 VINA RESULT:      -6.2      3.416      9.117
  Name = 
  14 active torsions:
  status: ('A' for Active; 'I' for Inactive)
    1  A    between atoms: C_2  and  O_32
    2  A    between atoms: C_3  and  C_34
    3  A    between atoms: C_3  and  C_41
    4  A    between atoms: O_4  and  C_24
    5  A    between atoms: C_7  and  C_18
    6  A    between atoms: C_10  and  C_30
    7  A    between atoms: C_13  and  C_29
    8  A    between atoms: C_13  and  C_33
    9  A    between atoms: C_15  and  C_22
   10  A    between atoms: C_15  and  C_40
   11  A    between atoms: C_22  and  C_41
   12  A    between atoms: N_27  and  C_43
   13  A    between atoms: C_31  and  O_32
   14  A    between atoms: C_37  and  C_43
                            x       y       z     vdW  Elec       q    Type
                         _______ _______ _______ _____ _____    ______ ____

>  <TORSDO>
F 14

$$$$
=
 OpenBabel10222416493D

 45 50  0  0  1  0  0  0  0  0999 V2000
  187.1280  177.3940  136.1860 O   0  0  0  0  0  0  0  0  0  0  0  0
  187.0990  176.9080  137.5170 C   0  0  1  0  0  3  0  0  0  0  0  0
  186.0750  176.5240  136.5110 C   0  0  1  0  0  0  0  0  0  0  0  0
  182.1850  178.2820  137.0280 C   0  0  0  0  0  0  0  0  0  0  0  0
  184.3670  177.6880  137.9110 C   0  0  0  0  0  3  0  0  0  0  0  0
  182.5580  177.7570  135.7840 C   0  0  0  0  0  3  0  0  0  0  0  0
  183.1050  178.2580  138.0870 C   0  0  0  0  0  3  0  0  0  0  0  0
  184.7240  177.1440  136.6750 C   0  0  0  0  0  0  0  0  0  0  0  0
  183.8160  177.1820  135.6100 C   0  0  0  0  0  3  0  0  0  0  0  0
  180.4650  179.2150  138.6340 C   0  0  0  0  0  2  0  0  0  0  0  0
  180.4540  180.8920  140.3480 O   0  0  0  0  0  1  0  0  0  0  0  0
  180.8470  178.9490  137.1710 C   0  0  1  0  0  3  0  0  0  0  0  0
  180.3760  181.4610  137.0090 C   0  0  0  0  0  2  0  0  0  0  0  0
  180.7390  180.1800  136.2590 C   0  0  0  0  0  2  0  0  0  0  0  0
  181.1480  180.4650  139.2140 C   0  0  2  0  0  3  0  0  0  0  0  0
  181.2920  181.6230  138.2200 C   0  0  0  0  0  2  0  0  0  0  0  0
  185.4960  173.0090  135.5970 O   0  0  0  0  0  0  0  0  0  0  0  0
  186.2110  175.1870  135.9350 N   0  0  0  0  0  2  0  0  0  0  0  0
  185.4470  174.0390  136.3150 C   0  0  0  0  0  0  0  0  0  0  0  0
  184.6310  174.0240  137.5650 C   0  0  0  0  0  2  0  0  0  0  0  0
  183.1660  173.7130  137.2680 C   0  0  0  0  0  2  0  0  0  0  0  0
  182.2230  174.6820  137.9680 C   0  0  0  0  0  2  0  0  0  0  0  0
  180.8420  174.7100  137.3280 C   0  0  0  0  0  2  0  0  0  0  0  0
  180.2690  175.4920  139.6230 C   0  0  0  0  0  1  0  0  0  0  0  0
  179.8730  175.5450  138.1600 C   0  0  0  0  0  2  0  0  0  0  0  0
  188.0910  175.9260  137.6770 O   0  0  0  0  0  0  0  0  0  0  0  0
  189.3070  176.6180  137.7490 C   0  0  1  0  0  3  0  0  0  0  0  0
  191.5910  175.8700  137.7550 O   0  0  0  0  0  1  0  0  0  0  0  0
  190.7990  176.6280  140.9980 C   0  0  1  0  0  3  0  0  0  0  0  0
  190.2930  176.7500  139.5760 C   0  0  2  0  0  0  0  0  0  0  0  0
  189.2540  177.6110  138.9270 C   0  0  0  0  0  2  0  0  0  0  0  0
  190.3830  175.7570  138.4520 C   0  0  1  0  0  3  0  0  0  0  0  0
  191.5420  177.5040  139.9800 C   0  0  0  0  0  2  0  0  0  0  0  0
  188.5500  176.8000  142.0410 C   0  0  0  0  0  2  0  0  0  0  0  0
  189.6940  178.2770  144.2850 C   0  0  2  0  0  3  0  0  0  0  0  0
  188.4500  177.4310  144.4790 C   0  0  0  0  0  0  0  0  0  0  0  0
  189.9410  177.4620  141.9400 C   0  0  1  0  0  3  0  0  0  0  0  0
  187.9500  176.7690  143.4250 C   0  0  0  0  0  3  0  0  0  0  0  0
  190.6300  177.5940  143.2990 C   0  0  0  0  0  2  0  0  0  0  0  0
  190.3820  178.4970  145.4820 O   0  0  0  0  0  0  0  0  0  0  0  0
  191.4000  177.5340  145.4880 C   0  0  0  0  0  1  0  0  0  0  0  0
  187.7480  177.3290  145.7900 C   0  0  0  0  0  0  0  0  0  0  0  0
  188.3050  176.7670  146.7710 O   0  0  0  0  0  0  0  0  0  0  0  0
  186.1570  178.7590  146.8310 O   0  0  0  0  0  0  0  0  0  0  0  0
  186.3940  177.8770  145.9610 C   0  0  0  0  0  3  0  0  0  0  0  0
  1  3  1  0  0  0  0
  1  2  1  0  0  0  0
  2 26  1  6  0  0  0
  3 18  1  6  0  0  0
  3  8  1  0  0  0  0
  3  2  1  0  0  0  0
  4  7  1  0  0  0  0
  5  7  2  0  0  0  0
  6  4  2  0  0  0  0
  8  5  1  0  0  0  0
  9  6  1  0  0  0  0
  9  8  2  0  0  0  0
 10 15  1  0  0  0  0
 12  4  1  1  0  0  0
 12 10  1  0  0  0  0
 13 16  1  0  0  0  0
 14 13  1  0  0  0  0
 14 12  1  0  0  0  0
 15 11  1  1  0  0  0
 16 15  1  0  0  0  0
 17 19  2  0  0  0  0
 18 19  1  0  0  0  0
 19 20  1  0  0  0  0
 21 20  1  0  0  0  0
 21 22  1  0  0  0  0
 23 22  1  0  0  0  0
 23 25  1  0  0  0  0
 25 24  1  0  0  0  0
 27 26  1  1  0  0  0
 27 32  1  0  0  0  0
 27 31  1  0  0  0  0
 29 33  1  6  0  0  0
 29 37  1  0  0  0  0
 30 31  1  6  0  0  0
 30 33  1  0  0  0  0
 30 29  1  0  0  0  0
 32 28  1  6  0  0  0
 32 30  1  0  0  0  0
 34 38  1  0  0  0  0
 35 36  1  0  0  0  0
 35 40  1  1  0  0  0
 36 42  1  0  0  0  0
 37 34  1  1  0  0  0
 37 39  1  0  0  0  0
 38 36  2  0  0  0  0
 39 35  1  0  0  0  0
 40 41  1  0  0  0  0
 42 45  1  0  0  0  0
 42 43  2  0  0  0  0
 45 44  2  0  0  0  0
M  END
>  <MODEL>
9

>  <REMARK>
 VINA RESULT:      -6.1      2.951      9.276
  Name = 
  14 active torsions:
  status: ('A' for Active; 'I' for Inactive)
    1  A    between atoms: C_2  and  O_32
    2  A    between atoms: C_3  and  C_34
    3  A    between atoms: C_3  and  C_41
    4  A    between atoms: O_4  and  C_24
    5  A    between atoms: C_7  and  C_18
    6  A    between atoms: C_10  and  C_30
    7  A    between atoms: C_13  and  C_29
    8  A    between atoms: C_13  and  C_33
    9  A    between atoms: C_15  and  C_22
   10  A    between atoms: C_15  and  C_40
   11  A    between atoms: C_22  and  C_41
   12  A    between atoms: N_27  and  C_43
   13  A    between atoms: C_31  and  O_32
   14  A    between atoms: C_37  and  C_43
                            x       y       z     vdW  Elec       q    Type
                         _______ _______ _______ _____ _____    ______ ____

>  <TORSDO>
F 14

$$$$
