=
 OpenBabel10222420063D

 27 30  0  0  1  0  0  0  0  0999 V2000
  189.9920  176.8720  145.3730 C   0  0  2  0  0  3  0  0  0  0  0  0
  187.0020  178.1660  147.3570 C   0  0  0  0  0  3  0  0  0  0  0  0
  185.4650  178.2350  144.0020 C   0  0  0  0  0  3  0  0  0  0  0  0
  183.9150  178.9870  145.6480 N   0  0  0  0  0  0  0  0  0  0  0  0
  188.6260  177.3820  145.7260 C   0  0  0  0  0  0  0  0  0  0  0  0
  188.2790  177.6860  147.0530 C   0  0  0  0  0  3  0  0  0  0  0  0
  184.8200  178.8070  146.6160 N   0  0  0  0  0  0  0  0  0  0  0  0
  186.4100  178.0460  145.0050 C   0  0  0  0  0  0  0  0  0  0  0  0
  186.0660  178.3440  146.3360 C   0  0  0  0  0  0  0  0  0  0  0  0
  187.6880  177.5670  144.7030 C   0  0  0  0  0  3  0  0  0  0  0  0
  184.2010  178.7140  144.3460 C   0  0  0  0  0  3  0  0  0  0  0  0
  192.1650  176.4040  146.2680 O   0  0  0  0  0  0  0  0  0  0  0  0
  191.0260  177.2110  146.4490 C   0  0  2  0  0  3  0  0  0  0  0  0
  191.2870  176.0300  147.3010 C   0  0  0  0  0  2  0  0  0  0  0  0
  191.5350  178.2370  144.0130 N   0  0  0  0  0  1  0  0  0  0  0  0
  190.4110  177.3110  143.9650 C   0  0  1  0  0  3  0  0  0  0  0  0
  190.7580  176.1030  143.1080 C   0  0  0  0  0  2  0  0  0  0  0  0
  190.0600  176.1730  141.8340 N   0  0  0  0  0  2  0  0  0  0  0  0
  190.1330  177.5050  141.3970 N   0  0  0  0  0  0  0  0  0  0  0  0
  189.8480  177.7580  139.2630 C   0  0  2  0  0  3  0  0  0  0  0  0
  190.9960  177.5250  140.2240 C   0  0  0  0  0  2  0  0  0  0  0  0
  188.9930  177.7280  140.5190 C   0  0  0  0  0  2  0  0  0  0  0  0
  188.4130  176.2310  137.9650 C   0  0  0  0  0  2  0  0  0  0  0  0
  189.6400  176.5470  138.3830 C   0  0  0  0  0  0  0  0  0  0  0  0
  191.0690  174.5020  138.0160 N   0  0  0  0  0  1  0  0  0  0  0  0
  190.8020  175.8770  137.7580 C   0  0  0  0  0  0  0  0  0  0  0  0
  191.5720  176.5160  136.9910 O   0  0  0  0  0  0  0  0  0  0  0  0
  1 16  1  6  0  0  0
  1  5  1  0  0  0  0
  3 11  2  0  0  0  0
  3  8  1  0  0  0  0
  4  7  2  0  0  0  0
  5  6  2  0  0  0  0
  6  2  1  0  0  0  0
  8  9  1  0  0  0  0
  9  7  1  0  0  0  0
  9  2  2  0  0  0  0
 10  8  2  0  0  0  0
 10  5  1  0  0  0  0
 11  4  1  0  0  0  0
 12 13  1  0  0  0  0
 12 14  1  0  0  0  0
 13  1  1  6  0  0  0
 13 14  1  0  0  0  0
 16 15  1  1  0  0  0
 17 16  1  0  0  0  0
 18 17  1  0  0  0  0
 19 18  1  0  0  0  0
 20 24  1  6  0  0  0
 20 21  1  0  0  0  0
 20 22  1  0  0  0  0
 21 19  1  0  0  0  0
 22 19  1  0  0  0  0
 23 24  2  0  0  0  0
 26 25  1  0  0  0  0
 26 24  1  0  0  0  0
 27 26  2  0  0  0  0
M  END
>  <MODEL>
1

>  <REMARK>
 VINA RESULT:      -8.8      0.000      0.000
  Name = 
  8 active torsions:
  status: ('A' for Active; 'I' for Inactive)
    1  A    between atoms: N_2  and  N_14
    2  A    between atoms: C_3  and  C_13
    3  A    between atoms: C_10  and  C_19
    4  A    between atoms: C_12  and  C_19
    5  A    between atoms: C_13  and  C_20
    6  A    between atoms: N_14  and  C_15
    7  A    between atoms: C_15  and  C_22
    8  A    between atoms: C_19  and  C_22
                            x       y       z     vdW  Elec       q    Type
                         _______ _______ _______ _____ _____    ______ ____

>  <TORSDO>
F 8

$$$$
=
 OpenBabel10222420063D

 27 30  0  0  1  0  0  0  0  0999 V2000
  189.8640  177.0280  145.2650 C   0  0  2  0  0  3  0  0  0  0  0  0
  186.8270  178.1780  147.2660 C   0  0  0  0  0  3  0  0  0  0  0  0
  185.3100  178.3100  143.9040 C   0  0  0  0  0  3  0  0  0  0  0  0
  183.7300  178.9680  145.5620 N   0  0  0  0  0  0  0  0  0  0  0  0
  188.4830  177.4890  145.6230 C   0  0  0  0  0  0  0  0  0  0  0  0
  188.1190  177.7430  146.9570 C   0  0  0  0  0  3  0  0  0  0  0  0
  184.6330  178.7820  146.5300 N   0  0  0  0  0  0  0  0  0  0  0  0
  186.2540  178.1150  144.9080 C   0  0  0  0  0  0  0  0  0  0  0  0
  185.8930  178.3620  146.2450 C   0  0  0  0  0  0  0  0  0  0  0  0
  187.5460  177.6810  144.6000 C   0  0  0  0  0  3  0  0  0  0  0  0
  184.0310  178.7430  144.2540 C   0  0  0  0  0  3  0  0  0  0  0  0
  192.0390  176.5840  146.1670 O   0  0  0  0  0  0  0  0  0  0  0  0
  190.8810  177.3620  146.3570 C   0  0  2  0  0  3  0  0  0  0  0  0
  191.1600  176.1670  147.1830 C   0  0  0  0  0  2  0  0  0  0  0  0
  191.1750  178.6670  143.9650 N   0  0  0  0  0  1  0  0  0  0  0  0
  190.2800  177.5210  143.8730 C   0  0  1  0  0  3  0  0  0  0  0  0
  190.9340  176.4000  143.0810 C   0  0  0  0  0  2  0  0  0  0  0  0
  190.1280  176.0700  141.9170 N   0  0  0  0  0  2  0  0  0  0  0  0
  190.8960  176.3770  140.7820 N   0  0  0  0  0  0  0  0  0  0  0  0
  189.9230  177.7230  139.3890 C   0  0  2  0  0  3  0  0  0  0  0  0
  190.0250  176.2290  139.6240 C   0  0  0  0  0  2  0  0  0  0  0  0
  190.8310  177.8200  140.6030 C   0  0  0  0  0  2  0  0  0  0  0  0
  188.1920  178.6400  140.8850 C   0  0  0  0  0  2  0  0  0  0  0  0
  188.5180  178.2070  139.6660 C   0  0  0  0  0  0  0  0  0  0  0  0
  188.0840  178.9110  137.2840 N   0  0  0  0  0  1  0  0  0  0  0  0
  187.5890  178.4660  138.5430 C   0  0  0  0  0  0  0  0  0  0  0  0
  186.3490  178.2960  138.6880 O   0  0  0  0  0  0  0  0  0  0  0  0
  1 16  1  6  0  0  0
  1  5  1  0  0  0  0
  3 11  2  0  0  0  0
  3  8  1  0  0  0  0
  4  7  2  0  0  0  0
  5  6  2  0  0  0  0
  6  2  1  0  0  0  0
  8  9  1  0  0  0  0
  9  7  1  0  0  0  0
  9  2  2  0  0  0  0
 10  8  2  0  0  0  0
 10  5  1  0  0  0  0
 11  4  1  0  0  0  0
 12 13  1  0  0  0  0
 12 14  1  0  0  0  0
 13  1  1  6  0  0  0
 13 14  1  0  0  0  0
 16 15  1  1  0  0  0
 17 16  1  0  0  0  0
 18 17  1  0  0  0  0
 19 18  1  0  0  0  0
 20 21  1  0  0  0  0
 20 24  1  1  0  0  0
 20 22  1  0  0  0  0
 21 19  1  0  0  0  0
 22 19  1  0  0  0  0
 24 23  2  0  0  0  0
 25 26  1  0  0  0  0
 26 27  2  0  0  0  0
 26 24  1  0  0  0  0
M  END
>  <MODEL>
2

>  <REMARK>
 VINA RESULT:      -8.5      1.613      2.015
  Name = 
  8 active torsions:
  status: ('A' for Active; 'I' for Inactive)
    1  A    between atoms: N_2  and  N_14
    2  A    between atoms: C_3  and  C_13
    3  A    between atoms: C_10  and  C_19
    4  A    between atoms: C_12  and  C_19
    5  A    between atoms: C_13  and  C_20
    6  A    between atoms: N_14  and  C_15
    7  A    between atoms: C_15  and  C_22
    8  A    between atoms: C_19  and  C_22
                            x       y       z     vdW  Elec       q    Type
                         _______ _______ _______ _____ _____    ______ ____

>  <TORSDO>
F 8

$$$$
=
 OpenBabel10222420063D

 27 30  0  0  1  0  0  0  0  0999 V2000
  189.6770  177.1070  144.6660 C   0  0  2  0  0  3  0  0  0  0  0  0
  186.8590  178.1620  147.0110 C   0  0  0  0  0  3  0  0  0  0  0  0
  185.0000  178.4010  143.8310 C   0  0  0  0  0  3  0  0  0  0  0  0
  183.5980  178.9870  145.6660 N   0  0  0  0  0  0  0  0  0  0  0  0
  188.3380  177.5450  145.1820 C   0  0  0  0  0  0  0  0  0  0  0  0
  188.1140  177.7470  146.5540 C   0  0  0  0  0  3  0  0  0  0  0  0
  184.5980  178.7740  146.5280 N   0  0  0  0  0  0  0  0  0  0  0  0
  186.0440  178.1780  144.7240 C   0  0  0  0  0  0  0  0  0  0  0  0
  185.8230  178.3740  146.1000 C   0  0  0  0  0  0  0  0  0  0  0  0
  187.3000  177.7660  144.2690 C   0  0  0  0  0  3  0  0  0  0  0  0
  183.7640  178.8110  144.3280 C   0  0  0  0  0  3  0  0  0  0  0  0
  191.9350  176.6650  145.3320 O   0  0  0  0  0  0  0  0  0  0  0  0
  190.8050  177.4460  145.6410 C   0  0  2  0  0  3  0  0  0  0  0  0
  191.1700  176.2540  146.4380 C   0  0  0  0  0  2  0  0  0  0  0  0
  191.0840  178.5050  143.1950 N   0  0  0  0  0  1  0  0  0  0  0  0
  189.9270  177.6210  143.2420 C   0  0  1  0  0  3  0  0  0  0  0  0
  190.1110  176.4580  142.2780 C   0  0  0  0  0  2  0  0  0  0  0  0
  189.5020  176.7690  140.9940 N   0  0  0  0  0  2  0  0  0  0  0  0
  190.4090  176.3680  140.0000 N   0  0  0  0  0  0  0  0  0  0  0  0
  190.0810  177.3020  138.0720 C   0  0  2  0  0  3  0  0  0  0  0  0
  189.6290  176.0580  138.8100 C   0  0  0  0  0  2  0  0  0  0  0  0
  190.8740  177.5780  139.3370 C   0  0  0  0  0  2  0  0  0  0  0  0
  189.1030  179.3940  137.2110 C   0  0  0  0  0  2  0  0  0  0  0  0
  188.9240  178.2560  137.8830 C   0  0  0  0  0  0  0  0  0  0  0  0
  186.7910  178.4630  139.2130 N   0  0  0  0  0  1  0  0  0  0  0  0
  187.5440  177.8170  138.1910 C   0  0  0  0  0  0  0  0  0  0  0  0
  187.0190  176.8660  137.5530 O   0  0  0  0  0  0  0  0  0  0  0  0
  1 16  1  6  0  0  0
  1  5  1  0  0  0  0
  3 11  2  0  0  0  0
  3  8  1  0  0  0  0
  4  7  2  0  0  0  0
  5  6  2  0  0  0  0
  6  2  1  0  0  0  0
  8  9  1  0  0  0  0
  9  7  1  0  0  0  0
  9  2  2  0  0  0  0
 10  8  2  0  0  0  0
 10  5  1  0  0  0  0
 11  4  1  0  0  0  0
 12 13  1  0  0  0  0
 12 14  1  0  0  0  0
 13  1  1  6  0  0  0
 13 14  1  0  0  0  0
 16 15  1  1  0  0  0
 17 16  1  0  0  0  0
 18 17  1  0  0  0  0
 19 18  1  0  0  0  0
 20 24  1  1  0  0  0
 20 21  1  0  0  0  0
 20 22  1  0  0  0  0
 21 19  1  0  0  0  0
 22 19  1  0  0  0  0
 23 24  2  0  0  0  0
 24 26  1  0  0  0  0
 26 25  1  0  0  0  0
 27 26  2  0  0  0  0
M  END
>  <MODEL>
3

>  <REMARK>
 VINA RESULT:      -8.1      1.572      2.034
  Name = 
  8 active torsions:
  status: ('A' for Active; 'I' for Inactive)
    1  A    between atoms: N_2  and  N_14
    2  A    between atoms: C_3  and  C_13
    3  A    between atoms: C_10  and  C_19
    4  A    between atoms: C_12  and  C_19
    5  A    between atoms: C_13  and  C_20
    6  A    between atoms: N_14  and  C_15
    7  A    between atoms: C_15  and  C_22
    8  A    between atoms: C_19  and  C_22
                            x       y       z     vdW  Elec       q    Type
                         _______ _______ _______ _____ _____    ______ ____

>  <TORSDO>
F 8

$$$$
=
 OpenBabel10222420063D

 27 30  0  0  1  0  0  0  0  0999 V2000
  188.5240  177.3010  145.2100 C   0  0  2  0  0  3  0  0  0  0  0  0
  185.0410  178.5990  146.0680 C   0  0  0  0  0  3  0  0  0  0  0  0
  184.5870  178.2760  142.4190 C   0  0  0  0  0  3  0  0  0  0  0  0
  182.5930  179.0850  143.4430 N   0  0  0  0  0  0  0  0  0  0  0  0
  187.1020  177.7630  145.0850 C   0  0  0  0  0  0  0  0  0  0  0  0
  186.3630  178.1660  146.2100 C   0  0  0  0  0  3  0  0  0  0  0  0
  183.1680  179.0460  144.6490 N   0  0  0  0  0  0  0  0  0  0  0  0
  185.1900  178.2320  143.6730 C   0  0  0  0  0  0  0  0  0  0  0  0
  184.4520  178.6300  144.8030 C   0  0  0  0  0  0  0  0  0  0  0  0
  186.5120  177.8010  143.8160 C   0  0  0  0  0  3  0  0  0  0  0  0
  183.2660  178.7110  142.3210 C   0  0  0  0  0  3  0  0  0  0  0  0
  190.2610  176.9050  146.8120 O   0  0  0  0  0  0  0  0  0  0  0  0
  189.1500  177.7250  146.5400 C   0  0  2  0  0  3  0  0  0  0  0  0
  189.0800  176.6160  147.5170 C   0  0  0  0  0  2  0  0  0  0  0  0
  190.4580  178.5810  144.3660 N   0  0  0  0  0  1  0  0  0  0  0  0
  189.3570  177.7050  143.9880 C   0  0  1  0  0  3  0  0  0  0  0  0
  189.8850  176.4740  143.2670 C   0  0  0  0  0  2  0  0  0  0  0  0
  189.4410  176.4730  141.8820 N   0  0  0  0  0  2  0  0  0  0  0  0
  189.7920  177.7170  141.3360 N   0  0  0  0  0  0  0  0  0  0  0  0
  190.0290  177.7060  139.1810 C   0  0  2  0  0  3  0  0  0  0  0  0
  190.8900  177.4830  140.4080 C   0  0  0  0  0  2  0  0  0  0  0  0
  188.9190  177.9410  140.1930 C   0  0  0  0  0  2  0  0  0  0  0  0
  188.6610  176.0850  137.9260 C   0  0  0  0  0  2  0  0  0  0  0  0
  189.8580  176.4170  138.4110 C   0  0  0  0  0  0  0  0  0  0  0  0
  192.2040  176.3530  137.4880 N   0  0  0  0  0  1  0  0  0  0  0  0
  191.0480  175.6640  137.9550 C   0  0  0  0  0  0  0  0  0  0  0  0
  191.0530  174.4040  137.9730 O   0  0  0  0  0  0  0  0  0  0  0  0
  1 16  1  6  0  0  0
  2  6  1  0  0  0  0
  3  8  1  0  0  0  0
  4  7  2  0  0  0  0
  5  1  1  0  0  0  0
  5  6  2  0  0  0  0
  7  9  1  0  0  0  0
  8 10  2  0  0  0  0
  8  9  1  0  0  0  0
  9  2  2  0  0  0  0
 10  5  1  0  0  0  0
 11  3  2  0  0  0  0
 11  4  1  0  0  0  0
 12 14  1  0  0  0  0
 13  1  1  6  0  0  0
 13 12  1  0  0  0  0
 13 14  1  0  0  0  0
 16 15  1  1  0  0  0
 17 16  1  0  0  0  0
 18 17  1  0  0  0  0
 19 18  1  0  0  0  0
 20 24  1  6  0  0  0
 20 22  1  0  0  0  0
 20 21  1  0  0  0  0
 21 19  1  0  0  0  0
 22 19  1  0  0  0  0
 23 24  2  0  0  0  0
 25 26  1  0  0  0  0
 26 27  2  0  0  0  0
 26 24  1  0  0  0  0
M  END
>  <MODEL>
4

>  <REMARK>
 VINA RESULT:      -8.1      1.276      1.681
  Name = 
  8 active torsions:
  status: ('A' for Active; 'I' for Inactive)
    1  A    between atoms: N_2  and  N_14
    2  A    between atoms: C_3  and  C_13
    3  A    between atoms: C_10  and  C_19
    4  A    between atoms: C_12  and  C_19
    5  A    between atoms: C_13  and  C_20
    6  A    between atoms: N_14  and  C_15
    7  A    between atoms: C_15  and  C_22
    8  A    between atoms: C_19  and  C_22
                            x       y       z     vdW  Elec       q    Type
                         _______ _______ _______ _____ _____    ______ ____

>  <TORSDO>
F 8

$$$$
=
 OpenBabel10222420063D

 27 30  0  0  1  0  0  0  0  0999 V2000
  189.5870  177.1670  144.4920 C   0  0  2  0  0  3  0  0  0  0  0  0
  186.8220  178.0290  146.9740 C   0  0  0  0  0  3  0  0  0  0  0  0
  184.9090  178.5690  143.8630 C   0  0  0  0  0  3  0  0  0  0  0  0
  183.5460  178.9990  145.7690 N   0  0  0  0  0  0  0  0  0  0  0  0
  188.2620  177.5670  145.0700 C   0  0  0  0  0  0  0  0  0  0  0  0
  188.0640  177.6480  146.4580 C   0  0  0  0  0  3  0  0  0  0  0  0
  184.5580  178.7020  146.5900 N   0  0  0  0  0  0  0  0  0  0  0  0
  185.9670  178.2580  144.7130 C   0  0  0  0  0  0  0  0  0  0  0  0
  185.7720  178.3320  146.1050 C   0  0  0  0  0  0  0  0  0  0  0  0
  187.2090  177.8780  144.2000 C   0  0  0  0  0  3  0  0  0  0  0  0
  183.6860  178.9430  144.4170 C   0  0  0  0  0  3  0  0  0  0  0  0
  191.8750  176.6950  145.0210 O   0  0  0  0  0  0  0  0  0  0  0  0
  190.7310  177.3690  145.4870 C   0  0  2  0  0  3  0  0  0  0  0  0
  191.1540  176.0700  146.0540 C   0  0  0  0  0  2  0  0  0  0  0  0
  190.9980  178.7120  143.1810 N   0  0  0  0  0  1  0  0  0  0  0  0
  189.8340  177.8360  143.1340 C   0  0  1  0  0  3  0  0  0  0  0  0
  190.0040  176.7890  142.0430 C   0  0  0  0  0  2  0  0  0  0  0  0
  189.1930  177.1320  140.8860 N   0  0  0  0  0  2  0  0  0  0  0  0
  190.0590  177.6660  139.9190 N   0  0  0  0  0  0  0  0  0  0  0  0
  189.2320  177.7130  137.9160 C   0  0  2  0  0  3  0  0  0  0  0  0
  190.0360  176.7610  138.7780 C   0  0  0  0  0  2  0  0  0  0  0  0
  189.2860  178.6180  139.1350 C   0  0  0  0  0  2  0  0  0  0  0  0
  186.7740  177.8740  137.9800 C   0  0  0  0  0  2  0  0  0  0  0  0
  187.8510  177.1560  137.6580 C   0  0  0  0  0  0  0  0  0  0  0  0
  186.8250  174.8950  137.2140 N   0  0  0  0  0  1  0  0  0  0  0  0
  187.6830  175.9570  136.8070 C   0  0  0  0  0  0  0  0  0  0  0  0
  188.2980  175.8600  135.7110 O   0  0  0  0  0  0  0  0  0  0  0  0
  1 16  1  6  0  0  0
  1  5  1  0  0  0  0
  3 11  2  0  0  0  0
  3  8  1  0  0  0  0
  4  7  2  0  0  0  0
  5  6  2  0  0  0  0
  6  2  1  0  0  0  0
  8  9  1  0  0  0  0
  9  7  1  0  0  0  0
  9  2  2  0  0  0  0
 10  8  2  0  0  0  0
 10  5  1  0  0  0  0
 11  4  1  0  0  0  0
 12 13  1  0  0  0  0
 12 14  1  0  0  0  0
 13  1  1  6  0  0  0
 13 14  1  0  0  0  0
 16 15  1  1  0  0  0
 17 16  1  0  0  0  0
 18 17  1  0  0  0  0
 19 18  1  0  0  0  0
 20 24  1  1  0  0  0
 20 21  1  0  0  0  0
 20 22  1  0  0  0  0
 21 19  1  0  0  0  0
 22 19  1  0  0  0  0
 24 23  2  0  0  0  0
 26 25  1  0  0  0  0
 26 24  1  0  0  0  0
 27 26  2  0  0  0  0
M  END
>  <MODEL>
5

>  <REMARK>
 VINA RESULT:      -7.8      1.486      1.704
  Name = 
  8 active torsions:
  status: ('A' for Active; 'I' for Inactive)
    1  A    between atoms: N_2  and  N_14
    2  A    between atoms: C_3  and  C_13
    3  A    between atoms: C_10  and  C_19
    4  A    between atoms: C_12  and  C_19
    5  A    between atoms: C_13  and  C_20
    6  A    between atoms: N_14  and  C_15
    7  A    between atoms: C_15  and  C_22
    8  A    between atoms: C_19  and  C_22
                            x       y       z     vdW  Elec       q    Type
                         _______ _______ _______ _____ _____    ______ ____

>  <TORSDO>
F 8

$$$$
=
 OpenBabel10222420063D

 27 30  0  0  1  0  0  0  0  0999 V2000
  189.2840  177.0970  144.9010 C   0  0  2  0  0  3  0  0  0  0  0  0
  186.2950  177.8820  142.6630 C   0  0  0  0  0  3  0  0  0  0  0  0
  184.7160  178.6290  145.9150 C   0  0  0  0  0  3  0  0  0  0  0  0
  183.1760  178.9900  144.1330 N   0  0  0  0  0  0  0  0  0  0  0  0
  187.9170  177.5040  144.4360 C   0  0  0  0  0  0  0  0  0  0  0  0
  187.5780  177.5050  143.0730 C   0  0  0  0  0  3  0  0  0  0  0  0
  184.0960  178.6300  143.2330 N   0  0  0  0  0  0  0  0  0  0  0  0
  185.6780  178.2540  144.9820 C   0  0  0  0  0  0  0  0  0  0  0  0
  185.3460  178.2590  143.6150 C   0  0  0  0  0  0  0  0  0  0  0  0
  186.9610  177.8760  145.3890 C   0  0  0  0  0  3  0  0  0  0  0  0
  183.4490  179.0000  145.4660 C   0  0  0  0  0  3  0  0  0  0  0  0
  190.6800  176.9810  146.8440 O   0  0  0  0  0  0  0  0  0  0  0  0
  189.6380  177.7200  146.2520 C   0  0  2  0  0  3  0  0  0  0  0  0
  189.3850  176.7550  147.3440 C   0  0  0  0  0  2  0  0  0  0  0  0
  191.4870  178.0690  144.3560 N   0  0  0  0  0  1  0  0  0  0  0  0
  190.3430  177.3450  143.8190 C   0  0  1  0  0  3  0  0  0  0  0  0
  190.7930  176.0300  143.1990 C   0  0  0  0  0  2  0  0  0  0  0  0
  190.4900  176.0150  141.7770 N   0  0  0  0  0  2  0  0  0  0  0  0
  190.6690  177.3240  141.3040 N   0  0  0  0  0  0  0  0  0  0  0  0
  190.6110  177.5020  139.1440 C   0  0  2  0  0  3  0  0  0  0  0  0
  191.6450  177.2590  140.2240 C   0  0  0  0  0  2  0  0  0  0  0  0
  189.6350  177.5600  140.3070 C   0  0  0  0  0  2  0  0  0  0  0  0
  189.2280  175.9510  137.8180 C   0  0  0  0  0  2  0  0  0  0  0  0
  190.4350  176.2670  138.2900 C   0  0  0  0  0  0  0  0  0  0  0  0
  192.5860  176.2740  136.9740 N   0  0  0  0  0  1  0  0  0  0  0  0
  191.6210  175.5670  137.7480 C   0  0  0  0  0  0  0  0  0  0  0  0
  191.7910  174.3370  137.9620 O   0  0  0  0  0  0  0  0  0  0  0  0
  1 16  1  6  0  0  0
  2  6  2  0  0  0  0
  2  9  1  0  0  0  0
  4 11  2  0  0  0  0
  5  1  1  0  0  0  0
  5 10  2  0  0  0  0
  6  5  1  0  0  0  0
  7  9  2  0  0  0  0
  7  4  1  0  0  0  0
  8 10  1  0  0  0  0
  8  3  2  0  0  0  0
  9  8  1  0  0  0  0
 11  3  1  0  0  0  0
 12 14  1  0  0  0  0
 13  1  1  6  0  0  0
 13 12  1  0  0  0  0
 13 14  1  0  0  0  0
 16 15  1  1  0  0  0
 17 16  1  0  0  0  0
 18 17  1  0  0  0  0
 19 18  1  0  0  0  0
 20 24  1  6  0  0  0
 20 21  1  0  0  0  0
 20 22  1  0  0  0  0
 21 19  1  0  0  0  0
 22 19  1  0  0  0  0
 23 24  2  0  0  0  0
 25 26  1  0  0  0  0
 26 27  2  0  0  0  0
 26 24  1  0  0  0  0
M  END
>  <MODEL>
6

>  <REMARK>
 VINA RESULT:      -7.6      1.366      1.913
  Name = 
  8 active torsions:
  status: ('A' for Active; 'I' for Inactive)
    1  A    between atoms: N_2  and  N_14
    2  A    between atoms: C_3  and  C_13
    3  A    between atoms: C_10  and  C_19
    4  A    between atoms: C_12  and  C_19
    5  A    between atoms: C_13  and  C_20
    6  A    between atoms: N_14  and  C_15
    7  A    between atoms: C_15  and  C_22
    8  A    between atoms: C_19  and  C_22
                            x       y       z     vdW  Elec       q    Type
                         _______ _______ _______ _____ _____    ______ ____

>  <TORSDO>
F 8

$$$$
=
 OpenBabel10222420063D

 27 30  0  0  1  0  0  0  0  0999 V2000
  185.1940  178.2580  144.1970 C   0  0  2  0  0  3  0  0  0  0  0  0
  188.3320  176.2990  143.2660 C   0  0  0  0  0  3  0  0  0  0  0  0
  188.3080  178.6280  140.4020 C   0  0  0  0  0  3  0  0  0  0  0  0
  190.1670  177.1440  140.2590 N   0  0  0  0  0  0  0  0  0  0  0  0
  186.4210  177.7890  143.4740 C   0  0  0  0  0  0  0  0  0  0  0  0
  187.1950  176.7230  143.9610 C   0  0  0  0  0  3  0  0  0  0  0  0
  189.8040  176.5430  141.3960 N   0  0  0  0  0  0  0  0  0  0  0  0
  187.9260  178.0050  141.5870 C   0  0  0  0  0  0  0  0  0  0  0  0
  188.7010  176.9400  142.0820 C   0  0  0  0  0  0  0  0  0  0  0  0
  186.7890  178.4260  142.2820 C   0  0  0  0  0  3  0  0  0  0  0  0
  189.4500  178.1770  139.7400 C   0  0  0  0  0  3  0  0  0  0  0  0
  183.0840  179.3420  143.8620 O   0  0  0  0  0  0  0  0  0  0  0  0
  184.4060  179.2850  143.3830 C   0  0  2  0  0  3  0  0  0  0  0  0
  183.2890  178.6280  142.6690 C   0  0  0  0  0  2  0  0  0  0  0  0
  184.3610  178.6270  146.4920 N   0  0  0  0  0  1  0  0  0  0  0  0
  185.5230  178.7290  145.6190 C   0  0  1  0  0  3  0  0  0  0  0  0
  186.6860  177.9340  146.1920 C   0  0  0  0  0  2  0  0  0  0  0  0
  187.4530  178.7570  147.1130 N   0  0  0  0  0  2  0  0  0  0  0  0
  187.9520  177.9040  148.1100 N   0  0  0  0  0  0  0  0  0  0  0  0
  189.8090  176.9150  147.5860 C   0  0  2  0  0  3  0  0  0  0  0  0
  188.3210  176.6540  147.4590 C   0  0  0  0  0  2  0  0  0  0  0  0
  189.3690  178.2050  148.2570 C   0  0  0  0  0  2  0  0  0  0  0  0
  190.1470  178.2560  145.5460 C   0  0  0  0  0  2  0  0  0  0  0  0
  190.4250  177.1420  146.2240 C   0  0  0  0  0  0  0  0  0  0  0  0
  191.7090  176.0030  144.3770 N   0  0  0  0  0  1  0  0  0  0  0  0
  191.5380  176.2820  145.7630 C   0  0  0  0  0  0  0  0  0  0  0  0
  192.3480  175.7860  146.5910 O   0  0  0  0  0  0  0  0  0  0  0  0
  1 16  1  1  0  0  0
  2  6  1  0  0  0  0
  3  8  1  0  0  0  0
  4  7  2  0  0  0  0
  5  6  2  0  0  0  0
  5  1  1  0  0  0  0
  7  9  1  0  0  0  0
  8  9  1  0  0  0  0
  8 10  2  0  0  0  0
  9  2  2  0  0  0  0
 10  5  1  0  0  0  0
 11  4  1  0  0  0  0
 11  3  2  0  0  0  0
 13 12  1  0  0  0  0
 13  1  1  1  0  0  0
 14 13  1  0  0  0  0
 14 12  1  0  0  0  0
 16 17  1  0  0  0  0
 16 15  1  1  0  0  0
 17 18  1  0  0  0  0
 18 19  1  0  0  0  0
 19 22  1  0  0  0  0
 20 24  1  6  0  0  0
 20 22  1  0  0  0  0
 21 20  1  0  0  0  0
 21 19  1  0  0  0  0
 23 24  2  0  0  0  0
 25 26  1  0  0  0  0
 26 24  1  0  0  0  0
 26 27  2  0  0  0  0
M  END
>  <MODEL>
7

>  <REMARK>
 VINA RESULT:      -7.3      2.486      6.912
  Name = 
  8 active torsions:
  status: ('A' for Active; 'I' for Inactive)
    1  A    between atoms: N_2  and  N_14
    2  A    between atoms: C_3  and  C_13
    3  A    between atoms: C_10  and  C_19
    4  A    between atoms: C_12  and  C_19
    5  A    between atoms: C_13  and  C_20
    6  A    between atoms: N_14  and  C_15
    7  A    between atoms: C_15  and  C_22
    8  A    between atoms: C_19  and  C_22
                            x       y       z     vdW  Elec       q    Type
                         _______ _______ _______ _____ _____    ______ ____

>  <TORSDO>
F 8

$$$$
=
 OpenBabel10222420063D

 27 30  0  0  1  0  0  0  0  0999 V2000
  189.1300  177.0710  143.2690 C   0  0  2  0  0  3  0  0  0  0  0  0
  186.9690  177.8910  146.3030 C   0  0  0  0  0  3  0  0  0  0  0  0
  184.4880  178.6570  143.6790 C   0  0  0  0  0  3  0  0  0  0  0  0
  183.5610  179.0290  145.8420 N   0  0  0  0  0  0  0  0  0  0  0  0
  187.9690  177.4830  144.1240 C   0  0  0  0  0  0  0  0  0  0  0  0
  188.0620  177.4960  145.5260 C   0  0  0  0  0  3  0  0  0  0  0  0
  184.7050  178.6560  146.4230 N   0  0  0  0  0  0  0  0  0  0  0  0
  185.6810  178.2670  144.2790 C   0  0  0  0  0  0  0  0  0  0  0  0
  185.7780  178.2730  145.6830 C   0  0  0  0  0  0  0  0  0  0  0  0
  186.7760  177.8740  143.5040 C   0  0  0  0  0  3  0  0  0  0  0  0
  183.4200  179.0410  144.4890 C   0  0  0  0  0  3  0  0  0  0  0  0
  191.4020  176.3100  143.2720 O   0  0  0  0  0  0  0  0  0  0  0  0
  190.2790  176.4980  144.1000 C   0  0  2  0  0  3  0  0  0  0  0  0
  190.6610  175.1600  143.5960 C   0  0  0  0  0  2  0  0  0  0  0  0
  190.8670  178.7310  142.7020 N   0  0  0  0  0  1  0  0  0  0  0  0
  189.5640  178.2000  142.3260 C   0  0  1  0  0  3  0  0  0  0  0  0
  189.5870  177.7140  140.8840 C   0  0  0  0  0  2  0  0  0  0  0  0
  188.2450  177.7300  140.3270 N   0  0  0  0  0  2  0  0  0  0  0  0
  188.2560  178.6290  139.2490 N   0  0  0  0  0  0  0  0  0  0  0  0
  188.6850  177.7110  137.3320 C   0  0  2  0  0  3  0  0  0  0  0  0
  189.4550  178.3480  138.4700 C   0  0  0  0  0  2  0  0  0  0  0  0
  187.4670  178.0260  138.1840 C   0  0  0  0  0  2  0  0  0  0  0  0
  187.9990  175.3690  136.9890 C   0  0  0  0  0  2  0  0  0  0  0  0
  188.9810  176.2310  137.2550 C   0  0  0  0  0  0  0  0  0  0  0  0
  191.0420  175.3000  138.3720 N   0  0  0  0  0  1  0  0  0  0  0  0
  190.3830  175.7580  137.1950 C   0  0  0  0  0  0  0  0  0  0  0  0
  191.0110  175.7570  136.1030 O   0  0  0  0  0  0  0  0  0  0  0  0
  1 16  1  1  0  0  0
  1  5  1  0  0  0  0
  3  8  2  0  0  0  0
  3 11  1  0  0  0  0
  4  7  1  0  0  0  0
  5  6  1  0  0  0  0
  6  2  2  0  0  0  0
  8  9  1  0  0  0  0
  9  2  1  0  0  0  0
  9  7  2  0  0  0  0
 10  5  2  0  0  0  0
 10  8  1  0  0  0  0
 11  4  2  0  0  0  0
 12 14  1  0  0  0  0
 12 13  1  0  0  0  0
 13  1  1  6  0  0  0
 14 13  1  0  0  0  0
 16 15  1  1  0  0  0
 17 16  1  0  0  0  0
 18 17  1  0  0  0  0
 19 18  1  0  0  0  0
 20 24  1  1  0  0  0
 20 22  1  0  0  0  0
 20 21  1  0  0  0  0
 21 19  1  0  0  0  0
 22 19  1  0  0  0  0
 23 24  2  0  0  0  0
 26 24  1  0  0  0  0
 26 25  1  0  0  0  0
 27 26  2  0  0  0  0
M  END
>  <MODEL>
8

>  <REMARK>
 VINA RESULT:      -7.2      1.511      1.997
  Name = 
  8 active torsions:
  status: ('A' for Active; 'I' for Inactive)
    1  A    between atoms: N_2  and  N_14
    2  A    between atoms: C_3  and  C_13
    3  A    between atoms: C_10  and  C_19
    4  A    between atoms: C_12  and  C_19
    5  A    between atoms: C_13  and  C_20
    6  A    between atoms: N_14  and  C_15
    7  A    between atoms: C_15  and  C_22
    8  A    between atoms: C_19  and  C_22
                            x       y       z     vdW  Elec       q    Type
                         _______ _______ _______ _____ _____    ______ ____

>  <TORSDO>
F 8

$$$$
=
 OpenBabel10222420063D

 27 30  0  0  1  0  0  0  0  0999 V2000
  185.9810  178.4310  144.5110 C   0  0  2  0  0  3  0  0  0  0  0  0
  188.7870  176.4480  142.8540 C   0  0  0  0  0  3  0  0  0  0  0  0
  190.4680  177.1340  146.0690 C   0  0  0  0  0  3  0  0  0  0  0  0
  191.8860  175.8630  144.6370 N   0  0  0  0  0  0  0  0  0  0  0  0
  187.2890  177.7370  144.2710 C   0  0  0  0  0  0  0  0  0  0  0  0
  187.5580  177.0830  143.0580 C   0  0  0  0  0  3  0  0  0  0  0  0
  190.9510  175.8510  143.6820 N   0  0  0  0  0  0  0  0  0  0  0  0
  189.4900  177.1240  145.0780 C   0  0  0  0  0  0  0  0  0  0  0  0
  189.7530  176.4650  143.8630 C   0  0  0  0  0  0  0  0  0  0  0  0
  188.2620  177.7590  145.2780 C   0  0  0  0  0  3  0  0  0  0  0  0
  191.6800  176.4880  145.8280 C   0  0  0  0  0  3  0  0  0  0  0  0
  184.4350  179.0040  146.2480 O   0  0  0  0  0  0  0  0  0  0  0  0
  185.3460  178.0130  145.8380 C   0  0  2  0  0  3  0  0  0  0  0  0
  185.6820  178.9890  146.8980 C   0  0  0  0  0  2  0  0  0  0  0  0
  183.6430  178.3980  143.7180 N   0  0  0  0  0  1  0  0  0  0  0  0
  185.0370  178.2840  143.3110 C   0  0  1  0  0  3  0  0  0  0  0  0
  185.3620  179.3190  142.2430 C   0  0  0  0  0  2  0  0  0  0  0  0
  185.4690  178.6810  140.9410 N   0  0  0  0  0  2  0  0  0  0  0  0
  184.8670  179.5420  140.0100 N   0  0  0  0  0  0  0  0  0  0  0  0
  183.4560  178.5680  138.6840 C   0  0  2  0  0  3  0  0  0  0  0  0
  184.9370  178.8850  138.7120 C   0  0  0  0  0  2  0  0  0  0  0  0
  183.4380  179.2620  140.0350 C   0  0  0  0  0  2  0  0  0  0  0  0
  182.5920  176.5720  139.8430 C   0  0  0  0  0  2  0  0  0  0  0  0
  183.2310  177.0770  138.7860 C   0  0  0  0  0  0  0  0  0  0  0  0
  183.8030  174.8380  137.7770 N   0  0  0  0  0  1  0  0  0  0  0  0
  183.4620  176.2100  137.6090 C   0  0  0  0  0  0  0  0  0  0  0  0
  183.3600  176.6770  136.4420 O   0  0  0  0  0  0  0  0  0  0  0  0
  1 16  1  6  0  0  0
  2  6  2  0  0  0  0
  2  9  1  0  0  0  0
  4 11  2  0  0  0  0
  5  1  1  0  0  0  0
  5 10  2  0  0  0  0
  6  5  1  0  0  0  0
  7  9  2  0  0  0  0
  7  4  1  0  0  0  0
  8 10  1  0  0  0  0
  8  3  2  0  0  0  0
  9  8  1  0  0  0  0
 11  3  1  0  0  0  0
 12 14  1  0  0  0  0
 13  1  1  6  0  0  0
 13 12  1  0  0  0  0
 13 14  1  0  0  0  0
 16 15  1  1  0  0  0
 17 16  1  0  0  0  0
 18 17  1  0  0  0  0
 19 22  1  0  0  0  0
 19 18  1  0  0  0  0
 20 21  1  0  0  0  0
 20 24  1  1  0  0  0
 20 22  1  0  0  0  0
 21 19  1  0  0  0  0
 24 23  2  0  0  0  0
 26 25  1  0  0  0  0
 26 24  1  0  0  0  0
 27 26  2  0  0  0  0
M  END
>  <MODEL>
9

>  <REMARK>
 VINA RESULT:      -7.1      3.976      6.172
  Name = 
  8 active torsions:
  status: ('A' for Active; 'I' for Inactive)
    1  A    between atoms: N_2  and  N_14
    2  A    between atoms: C_3  and  C_13
    3  A    between atoms: C_10  and  C_19
    4  A    between atoms: C_12  and  C_19
    5  A    between atoms: C_13  and  C_20
    6  A    between atoms: N_14  and  C_15
    7  A    between atoms: C_15  and  C_22
    8  A    between atoms: C_19  and  C_22
                            x       y       z     vdW  Elec       q    Type
                         _______ _______ _______ _____ _____    ______ ____

>  <TORSDO>
F 8

$$$$
