=
 OpenBabel10222418093D

 25 29  0  0  1  0  0  0  0  0999 V2000
  189.0780  176.9030  141.4800 C   0  0  0  0  0  2  0  0  0  0  0  0
  188.3960  177.6550  142.5330 N   0  0  2  0  0  0  0  0  0  0  0  0
  188.6390  177.8530  140.3890 C   0  0  0  0  0  2  0  0  0  0  0  0
  187.9810  178.6190  141.5150 C   0  0  1  0  0  3  0  0  0  0  0  0
  190.8480  176.5590  147.5460 C   0  0  0  0  0  3  0  0  0  0  0  0
  188.7750  177.9260  147.8810 C   0  0  0  0  0  1  0  0  0  0  0  0
  190.8300  177.0660  144.8400 C   0  0  0  0  0  0  0  0  0  0  0  0
  191.8400  176.0290  146.7030 C   0  0  0  0  0  0  0  0  0  0  0  0
  190.6860  177.4230  143.4170 C   0  0  0  0  0  2  0  0  0  0  0  0
  191.8160  176.2900  145.3640 N   0  0  0  0  0  0  0  0  0  0  0  0
  192.8720  175.2170  147.2490 N   0  0  0  0  0  1  0  0  0  0  0  0
  189.4080  178.2870  143.3810 C   0  0  2  0  0  3  0  0  0  0  0  0
  189.8480  177.6010  145.6240 C   0  0  0  0  0  0  0  0  0  0  0  0
  188.8920  178.4040  144.8320 C   0  0  0  0  0  2  0  0  0  0  0  0
  189.8340  177.3590  147.0000 C   0  0  0  0  0  0  0  0  0  0  0  0
  184.3180  178.5760  139.9670 C   0  0  0  0  0  3  0  0  0  0  0  0
  183.6560  178.6690  141.1140 C   0  0  0  0  0  0  0  0  0  0  0  0
  185.8380  178.5550  139.9860 C   0  0  0  0  0  3  0  0  0  0  0  0
  182.2540  178.7030  141.3220 N   0  0  0  0  0  0  0  0  0  0  0  0
  186.4870  178.6420  141.3770 C   0  0  0  0  0  0  0  0  0  0  0  0
  184.3060  178.7490  142.3770 C   0  0  2  0  0  3  0  0  0  0  0  0
  182.0640  178.7950  142.5820 N   0  0  0  0  0  0  0  0  0  0  0  0
  185.7590  178.7340  142.5030 C   0  0  0  0  0  3  0  0  0  0  0  0
  183.4870  178.9230  144.7380 C   0  0  0  0  0  1  0  0  0  0  0  0
  183.3280  178.8250  143.2600 C   0  0  0  0  0  0  0  0  0  0  0  0
  2  1  1  6  0  0  0
  2 12  1  0  0  0  0
  3  1  1  0  0  0  0
  3  4  1  0  0  0  0
  4 20  1  6  0  0  0
  4  2  1  0  0  0  0
  7 10  2  0  0  0  0
  7 13  1  0  0  0  0
  8 11  1  0  0  0  0
  8  5  2  0  0  0  0
  9  7  1  0  0  0  0
 10  8  1  0  0  0  0
 12  9  1  1  0  0  0
 12 14  1  0  0  0  0
 13 15  2  0  0  0  0
 14 13  1  0  0  0  0
 15  5  1  0  0  0  0
 15  6  1  0  0  0  0
 16 18  2  0  0  0  0
 16 17  1  0  0  0  0
 17 19  2  0  0  0  0
 17 21  1  0  0  0  0
 18 20  1  0  0  0  0
 19 22  1  0  0  0  0
 20 23  2  0  0  0  0
 21 23  1  1  0  0  0
 21 25  1  0  0  0  0
 22 25  2  0  0  0  0
 25 24  1  0  0  0  0
M  END
>  <MODEL>
1

>  <REMARK>
 VINA RESULT:      -9.2      0.000      0.000
  Name = 
  2 active torsions:
  status: ('A' for Active; 'I' for Inactive)
    1  A    between atoms: N_11  and  C_17
    2  A    between atoms: C_14  and  C_24
                            x       y       z     vdW  Elec       q    Type
                         _______ _______ _______ _____ _____    ______ ____

>  <TORSDO>
F 2

$$$$
=
 OpenBabel10222418093D

 25 29  0  0  1  0  0  0  0  0999 V2000
  188.5020  178.6830  141.4700 C   0  0  0  0  0  2  0  0  0  0  0  0
  189.3220  177.5340  141.8530 N   0  0  2  0  0  0  0  0  0  0  0  0
  188.3170  178.1950  140.0510 C   0  0  0  0  0  2  0  0  0  0  0  0
  189.1370  177.0070  140.5020 C   0  0  1  0  0  3  0  0  0  0  0  0
  187.4120  177.9970  147.1900 C   0  0  0  0  0  3  0  0  0  0  0  0
  189.7100  176.9970  147.1800 C   0  0  0  0  0  1  0  0  0  0  0  0
  187.1530  177.6040  144.4780 C   0  0  0  0  0  0  0  0  0  0  0  0
  186.2430  178.3790  146.5120 C   0  0  0  0  0  0  0  0  0  0  0  0
  187.1630  177.3320  143.0290 C   0  0  0  0  0  2  0  0  0  0  0  0
  186.1310  178.1770  145.1660 N   0  0  0  0  0  0  0  0  0  0  0  0
  185.1710  178.9780  147.2300 N   0  0  0  0  0  1  0  0  0  0  0  0
  188.5510  176.7040  142.7810 C   0  0  2  0  0  3  0  0  0  0  0  0
  188.3060  177.2180  145.0990 C   0  0  0  0  0  0  0  0  0  0  0  0
  189.2680  176.6220  144.1460 C   0  0  0  0  0  2  0  0  0  0  0  0
  188.4630  177.4060  146.4740 C   0  0  0  0  0  0  0  0  0  0  0  0
  193.0140  177.2260  139.6450 C   0  0  0  0  0  3  0  0  0  0  0  0
  192.9330  176.7510  138.4080 C   0  0  0  0  0  0  0  0  0  0  0  0
  191.7450  177.3650  140.4700 C   0  0  0  0  0  2  0  0  0  0  0  0
  193.9800  176.5390  137.4750 N   0  0  0  0  0  0  0  0  0  0  0  0
  190.4470  176.9240  139.7750 C   0  0  0  0  0  0  0  0  0  0  0  0
  191.7050  176.3560  137.8090 C   0  0  0  0  0  0  0  0  0  0  0  0
  193.4480  176.0660  136.4150 N   0  0  0  0  0  0  0  0  0  0  0  0
  190.4330  176.4480  138.5190 C   0  0  0  0  0  3  0  0  0  0  0  0
  191.0900  175.4210  135.5690 C   0  0  0  0  0  1  0  0  0  0  0  0
  192.0300  175.9430  136.5990 C   0  0  0  0  0  0  0  0  0  0  0  0
  2  1  1  6  0  0  0
  2 12  1  0  0  0  0
  3  4  1  0  0  0  0
  3  1  1  0  0  0  0
  4 20  1  6  0  0  0
  4  2  1  0  0  0  0
  7 13  2  0  0  0  0
  7 10  1  0  0  0  0
  8  5  1  0  0  0  0
  8 11  1  0  0  0  0
  9  7  1  0  0  0  0
 10  8  2  0  0  0  0
 12  9  1  1  0  0  0
 12 14  1  0  0  0  0
 13 15  1  0  0  0  0
 14 13  1  0  0  0  0
 15  6  1  0  0  0  0
 15  5  2  0  0  0  0
 16 18  1  0  0  0  0
 17 16  2  0  0  0  0
 19 17  1  0  0  0  0
 20 18  1  0  0  0  0
 21 17  1  0  0  0  0
 21 23  1  0  0  0  0
 22 25  1  0  0  0  0
 22 19  2  0  0  0  0
 23 20  2  0  0  0  0
 24 25  1  0  0  0  0
 25 21  2  0  0  0  0
M  END
>  <MODEL>
2

>  <REMARK>
 VINA RESULT:      -9.1      3.716      6.878
  Name = 
  2 active torsions:
  status: ('A' for Active; 'I' for Inactive)
    1  A    between atoms: N_11  and  C_17
    2  A    between atoms: C_14  and  C_24
                            x       y       z     vdW  Elec       q    Type
                         _______ _______ _______ _____ _____    ______ ____

>  <TORSDO>
F 2

$$$$
=
 OpenBabel10222418093D

 25 29  0  0  1  0  0  0  0  0999 V2000
  190.5190  176.5830  142.5990 C   0  0  0  0  0  2  0  0  0  0  0  0
  189.7530  177.8200  142.4490 N   0  0  2  0  0  0  0  0  0  0  0  0
  189.2820  175.7270  142.7480 C   0  0  0  0  0  2  0  0  0  0  0  0
  188.5310  177.0240  142.5500 C   0  0  1  0  0  3  0  0  0  0  0  0
  189.4530  175.4900  137.2690 C   0  0  0  0  0  3  0  0  0  0  0  0
  191.7970  175.3530  138.1420 C   0  0  0  0  0  1  0  0  0  0  0  0
  188.7480  177.2790  139.2400 C   0  0  0  0  0  0  0  0  0  0  0  0
  188.1480  176.0070  137.3470 C   0  0  0  0  0  0  0  0  0  0  0  0
  188.5240  178.2240  140.3490 C   0  0  0  0  0  2  0  0  0  0  0  0
  187.8160  176.8930  138.3300 N   0  0  0  0  0  0  0  0  0  0  0  0
  187.1700  175.6040  136.3960 N   0  0  0  0  0  1  0  0  0  0  0  0
  189.8880  178.2830  141.0670 C   0  0  2  0  0  3  0  0  0  0  0  0
  190.0280  176.8020  139.2000 C   0  0  0  0  0  0  0  0  0  0  0  0
  190.8560  177.3650  140.2880 C   0  0  0  0  0  2  0  0  0  0  0  0
  190.4110  175.8930  138.2100 C   0  0  0  0  0  0  0  0  0  0  0  0
  187.4970  177.7320  146.3250 C   0  0  0  0  0  3  0  0  0  0  0  0
  186.2590  178.1440  146.0790 C   0  0  0  0  0  0  0  0  0  0  0  0
  188.3830  177.3090  145.1640 C   0  0  0  0  0  3  0  0  0  0  0  0
  185.2750  178.5800  147.0030 N   0  0  0  0  0  2  0  0  0  0  0  0
  187.7430  177.4060  143.7700 C   0  0  0  0  0  0  0  0  0  0  0  0
  185.7130  178.2130  144.7670 C   0  0  0  0  0  0  0  0  0  0  0  0
  184.2350  178.8850  146.3270 N   0  0  0  0  0  0  0  0  0  0  0  0
  186.4820  177.8330  143.5870 C   0  0  0  0  0  3  0  0  0  0  0  0
  183.4910  178.9170  143.8500 C   0  0  0  0  0  1  0  0  0  0  0  0
  184.4840  178.6640  144.9310 C   0  0  0  0  0  0  0  0  0  0  0  0
  1  3  1  0  0  0  0
  2  4  1  0  0  0  0
  2  1  1  6  0  0  0
  4  3  1  0  0  0  0
  4 20  1  1  0  0  0
  5  8  2  0  0  0  0
  5 15  1  0  0  0  0
  6 15  1  0  0  0  0
  7  9  1  0  0  0  0
  8 10  1  0  0  0  0
  9 12  1  0  0  0  0
 10  7  2  0  0  0  0
 11  8  1  0  0  0  0
 12 14  1  6  0  0  0
 12  2  1  0  0  0  0
 13  7  1  0  0  0  0
 13 14  1  0  0  0  0
 15 13  2  0  0  0  0
 17 16  1  0  0  0  0
 17 19  1  0  0  0  0
 18 16  2  0  0  0  0
 20 18  1  0  0  0  0
 21 25  1  0  0  0  0
 21 17  2  0  0  0  0
 22 19  1  0  0  0  0
 23 20  2  0  0  0  0
 23 21  1  0  0  0  0
 24 25  1  0  0  0  0
 25 22  2  0  0  0  0
M  END
>  <MODEL>
3

>  <REMARK>
 VINA RESULT:      -9.1      2.968      6.203
  Name = 
  2 active torsions:
  status: ('A' for Active; 'I' for Inactive)
    1  A    between atoms: N_11  and  C_17
    2  A    between atoms: C_14  and  C_24
                            x       y       z     vdW  Elec       q    Type
                         _______ _______ _______ _____ _____    ______ ____

>  <TORSDO>
F 2

$$$$
=
 OpenBabel10222418093D

 25 29  0  0  1  0  0  0  0  0999 V2000
  189.9990  178.2310  145.3500 C   0  0  0  0  0  2  0  0  0  0  0  0
  189.1150  177.7280  144.2990 N   0  0  2  0  0  0  0  0  0  0  0  0
  189.1590  177.6440  146.4630 C   0  0  0  0  0  2  0  0  0  0  0  0
  188.2950  177.1130  145.3410 C   0  0  1  0  0  3  0  0  0  0  0  0
  191.5600  177.1290  139.1980 C   0  0  0  0  0  3  0  0  0  0  0  0
  189.1350  176.5150  139.0690 C   0  0  0  0  0  1  0  0  0  0  0  0
  191.4970  177.0870  141.9510 C   0  0  0  0  0  0  0  0  0  0  0  0
  192.7100  177.4140  139.9540 C   0  0  0  0  0  0  0  0  0  0  0  0
  191.3060  177.0260  143.4110 C   0  0  0  0  0  2  0  0  0  0  0  0
  192.6610  177.3890  141.3180 N   0  0  0  0  0  0  0  0  0  0  0  0
  193.9300  177.7300  139.2950 N   0  0  0  0  0  1  0  0  0  0  0  0
  189.8150  176.6660  143.5750 C   0  0  2  0  0  3  0  0  0  0  0  0
  190.3570  176.8030  141.2540 C   0  0  0  0  0  0  0  0  0  0  0  0
  189.2240  176.5060  142.1570 C   0  0  0  0  0  2  0  0  0  0  0  0
  190.3620  176.8170  139.8570 C   0  0  0  0  0  0  0  0  0  0  0  0
  184.9120  178.7860  146.5920 C   0  0  0  0  0  3  0  0  0  0  0  0
  184.3200  178.8600  145.4060 C   0  0  0  0  0  0  0  0  0  0  0  0
  186.3050  178.1870  146.6900 C   0  0  0  0  0  2  0  0  0  0  0  0
  183.0370  179.3780  145.0920 N   0  0  0  0  0  0  0  0  0  0  0  0
  186.9190  177.7110  145.3630 C   0  0  0  0  0  0  0  0  0  0  0  0
  184.9320  178.4030  144.2060 C   0  0  0  0  0  0  0  0  0  0  0  0
  182.8800  179.2510  143.8310 N   0  0  0  0  0  0  0  0  0  0  0  0
  186.2670  177.8150  144.1940 C   0  0  0  0  0  3  0  0  0  0  0  0
  184.2150  178.3500  141.8070 C   0  0  0  0  0  1  0  0  0  0  0  0
  184.0480  178.6460  143.2570 C   0  0  0  0  0  0  0  0  0  0  0  0
  1  3  1  0  0  0  0
  2  4  1  0  0  0  0
  2  1  1  1  0  0  0
  4 20  1  1  0  0  0
  4  3  1  0  0  0  0
  5 15  2  0  0  0  0
  5  8  1  0  0  0  0
  6 15  1  0  0  0  0
  7  9  1  0  0  0  0
  8 10  2  0  0  0  0
  9 12  1  0  0  0  0
 10  7  1  0  0  0  0
 11  8  1  0  0  0  0
 12 14  1  6  0  0  0
 12  2  1  0  0  0  0
 13  7  2  0  0  0  0
 13 14  1  0  0  0  0
 15 13  1  0  0  0  0
 16 18  1  0  0  0  0
 17 16  2  0  0  0  0
 19 17  1  0  0  0  0
 20 18  1  0  0  0  0
 21 17  1  0  0  0  0
 22 19  2  0  0  0  0
 23 21  1  0  0  0  0
 23 20  2  0  0  0  0
 24 25  1  0  0  0  0
 25 22  1  0  0  0  0
 25 21  2  0  0  0  0
M  END
>  <MODEL>
4

>  <REMARK>
 VINA RESULT:      -8.9      2.406      4.974
  Name = 
  2 active torsions:
  status: ('A' for Active; 'I' for Inactive)
    1  A    between atoms: N_11  and  C_17
    2  A    between atoms: C_14  and  C_24
                            x       y       z     vdW  Elec       q    Type
                         _______ _______ _______ _____ _____    ______ ____

>  <TORSDO>
F 2

$$$$
=
 OpenBabel10222418093D

 25 29  0  0  1  0  0  0  0  0999 V2000
  184.7530  177.9460  146.3010 C   0  0  0  0  0  2  0  0  0  0  0  0
  185.6060  178.1970  145.1390 N   0  0  2  0  0  0  0  0  0  0  0  0
  185.7140  178.6060  147.2640 C   0  0  0  0  0  2  0  0  0  0  0  0
  186.5440  178.8780  146.0290 C   0  0  1  0  0  3  0  0  0  0  0  0
  181.5740  178.2420  141.1280 C   0  0  0  0  0  3  0  0  0  0  0  0
  183.8230  177.8780  140.0860 C   0  0  0  0  0  1  0  0  0  0  0  0
  182.7230  178.9990  143.5130 C   0  0  0  0  0  0  0  0  0  0  0  0
  180.7820  178.6070  142.2300 C   0  0  0  0  0  0  0  0  0  0  0  0
  183.4810  179.3780  144.7190 C   0  0  0  0  0  2  0  0  0  0  0  0
  181.3680  178.9800  143.4050 N   0  0  0  0  0  0  0  0  0  0  0  0
  179.3640  178.5880  142.1210 N   0  0  0  0  0  1  0  0  0  0  0  0
  184.9560  179.2040  144.2980 C   0  0  2  0  0  3  0  0  0  0  0  0
  183.5290  178.6520  142.4660 C   0  0  0  0  0  0  0  0  0  0  0  0
  184.9610  178.7500  142.8220 C   0  0  0  0  0  2  0  0  0  0  0  0
  182.9710  178.2640  141.2450 C   0  0  0  0  0  0  0  0  0  0  0  0
  189.8100  177.0260  147.3420 C   0  0  0  0  0  3  0  0  0  0  0  0
  190.3450  176.7800  146.1530 C   0  0  0  0  0  0  0  0  0  0  0  0
  188.4810  177.7610  147.4200 C   0  0  0  0  0  2  0  0  0  0  0  0
  191.5620  176.1150  145.8550 N   0  0  0  0  0  0  0  0  0  0  0  0
  187.8610  178.1580  146.0710 C   0  0  0  0  0  0  0  0  0  0  0  0
  189.7300  177.1710  144.9320 C   0  0  0  0  0  0  0  0  0  0  0  0
  191.6800  176.1010  144.5830 N   0  0  0  0  0  0  0  0  0  0  0  0
  188.4540  177.8780  144.8990 C   0  0  0  0  0  3  0  0  0  0  0  0
  190.3530  176.9180  142.5190 C   0  0  0  0  0  1  0  0  0  0  0  0
  190.5500  176.7530  143.9860 C   0  0  0  0  0  0  0  0  0  0  0  0
  1  3  1  0  0  0  0
  2  4  1  0  0  0  0
  2  1  1  1  0  0  0
  4 20  1  1  0  0  0
  4  3  1  0  0  0  0
  5 15  2  0  0  0  0
  5  8  1  0  0  0  0
  6 15  1  0  0  0  0
  7  9  1  0  0  0  0
  8 10  2  0  0  0  0
 10  7  1  0  0  0  0
 11  8  1  0  0  0  0
 12 14  1  6  0  0  0
 12  9  1  0  0  0  0
 12  2  1  0  0  0  0
 13 14  1  0  0  0  0
 13  7  2  0  0  0  0
 15 13  1  0  0  0  0
 16 18  1  0  0  0  0
 17 16  2  0  0  0  0
 19 17  1  0  0  0  0
 20 18  1  0  0  0  0
 21 17  1  0  0  0  0
 22 19  2  0  0  0  0
 23 21  1  0  0  0  0
 23 20  2  0  0  0  0
 24 25  1  0  0  0  0
 25 22  1  0  0  0  0
 25 21  2  0  0  0  0
M  END
>  <MODEL>
5

>  <REMARK>
 VINA RESULT:      -8.8      1.702      8.423
  Name = 
  2 active torsions:
  status: ('A' for Active; 'I' for Inactive)
    1  A    between atoms: N_11  and  C_17
    2  A    between atoms: C_14  and  C_24
                            x       y       z     vdW  Elec       q    Type
                         _______ _______ _______ _____ _____    ______ ____

>  <TORSDO>
F 2

$$$$
=
 OpenBabel10222418093D

 25 29  0  0  1  0  0  0  0  0999 V2000
  190.8020  178.2360  144.3620 C   0  0  0  0  0  2  0  0  0  0  0  0
  190.4740  176.9480  143.7500 N   0  0  2  0  0  0  0  0  0  0  0  0
  190.1980  179.0320  143.2280 C   0  0  0  0  0  2  0  0  0  0  0  0
  189.8450  177.6790  142.6520 C   0  0  1  0  0  3  0  0  0  0  0  0
  186.2390  178.6860  147.1260 C   0  0  0  0  0  3  0  0  0  0  0  0
  188.3360  178.3780  148.4630 C   0  0  0  0  0  1  0  0  0  0  0  0
  187.3230  177.3410  144.9830 C   0  0  0  0  0  0  0  0  0  0  0  0
  185.5050  178.4960  145.9430 C   0  0  0  0  0  0  0  0  0  0  0  0
  188.0380  176.6040  143.9240 C   0  0  0  0  0  2  0  0  0  0  0  0
  186.0580  177.8260  144.8900 N   0  0  0  0  0  0  0  0  0  0  0  0
  184.1800  179.0030  145.8440 N   0  0  0  0  0  1  0  0  0  0  0  0
  189.4210  176.3140  144.5450 C   0  0  2  0  0  3  0  0  0  0  0  0
  188.0710  177.5030  146.1140 C   0  0  0  0  0  0  0  0  0  0  0  0
  189.4110  176.8910  145.9770 C   0  0  0  0  0  2  0  0  0  0  0  0
  187.5450  178.1820  147.2160 C   0  0  0  0  0  0  0  0  0  0  0  0
  192.7090  177.2090  139.9320 C   0  0  0  0  0  3  0  0  0  0  0  0
  191.9150  176.9110  138.9110 C   0  0  0  0  0  0  0  0  0  0  0  0
  192.0930  177.5030  141.2900 C   0  0  0  0  0  2  0  0  0  0  0  0
  192.2760  176.6050  137.5740 N   0  0  0  0  0  0  0  0  0  0  0  0
  190.5590  177.4190  141.3570 C   0  0  0  0  0  0  0  0  0  0  0  0
  190.4990  176.8470  139.0260 C   0  0  0  0  0  0  0  0  0  0  0  0
  191.1930  176.3780  136.9360 N   0  0  0  0  0  0  0  0  0  0  0  0
  189.8110  177.1100  140.2860 C   0  0  0  0  0  3  0  0  0  0  0  0
  188.6520  176.3290  137.4150 C   0  0  0  0  0  1  0  0  0  0  0  0
  190.0720  176.5230  137.8200 C   0  0  0  0  0  0  0  0  0  0  0  0
  2  1  1  1  0  0  0
  2 12  1  0  0  0  0
  3  1  1  0  0  0  0
  4 20  1  6  0  0  0
  4  3  1  0  0  0  0
  4  2  1  0  0  0  0
  5 15  1  0  0  0  0
  7 13  1  0  0  0  0
  8  5  2  0  0  0  0
  9  7  1  0  0  0  0
 10  7  2  0  0  0  0
 10  8  1  0  0  0  0
 11  8  1  0  0  0  0
 12  9  1  6  0  0  0
 12 14  1  0  0  0  0
 13 15  2  0  0  0  0
 14 13  1  0  0  0  0
 15  6  1  0  0  0  0
 16 18  1  0  0  0  0
 17 21  1  0  0  0  0
 17 16  2  0  0  0  0
 18 20  1  0  0  0  0
 19 17  1  0  0  0  0
 21 23  1  0  0  0  0
 22 19  2  0  0  0  0
 22 25  1  0  0  0  0
 23 20  2  0  0  0  0
 24 25  1  0  0  0  0
 25 21  2  0  0  0  0
M  END
>  <MODEL>
6

>  <REMARK>
 VINA RESULT:      -8.6      3.058      6.228
  Name = 
  2 active torsions:
  status: ('A' for Active; 'I' for Inactive)
    1  A    between atoms: N_11  and  C_17
    2  A    between atoms: C_14  and  C_24
                            x       y       z     vdW  Elec       q    Type
                         _______ _______ _______ _____ _____    ______ ____

>  <TORSDO>
F 2

$$$$
=
 OpenBabel10222418093D

 25 29  0  0  1  0  0  0  0  0999 V2000
  185.4930  179.3250  144.9300 C   0  0  0  0  0  2  0  0  0  0  0  0
  185.8720  178.3980  143.8640 N   0  0  2  0  0  0  0  0  0  0  0  0
  184.0120  179.1170  144.7100 C   0  0  0  0  0  2  0  0  0  0  0  0
  184.4500  178.1390  143.6440 C   0  0  1  0  0  3  0  0  0  0  0  0
  191.1080  176.6420  145.2240 C   0  0  0  0  0  3  0  0  0  0  0  0
  190.5510  175.9570  142.8800 C   0  0  0  0  0  1  0  0  0  0  0  0
  188.4770  177.2650  145.7430 C   0  0  0  0  0  0  0  0  0  0  0  0
  190.7130  177.1290  146.4820 C   0  0  0  0  0  0  0  0  0  0  0  0
  187.0370  177.5550  145.8680 C   0  0  0  0  0  2  0  0  0  0  0  0
  189.4040  177.4330  146.7220 N   0  0  0  0  0  0  0  0  0  0  0  0
  191.6810  177.3060  147.5090 N   0  0  0  0  0  1  0  0  0  0  0  0
  186.4680  177.2090  144.4760 C   0  0  2  0  0  3  0  0  0  0  0  0
  188.8180  176.7940  144.5070 C   0  0  0  0  0  0  0  0  0  0  0  0
  187.6430  176.6970  143.6140 C   0  0  0  0  0  2  0  0  0  0  0  0
  190.1460  176.4700  144.2180 C   0  0  0  0  0  0  0  0  0  0  0  0
  184.5540  179.3780  139.8660 C   0  0  0  0  0  3  0  0  0  0  0  0
  183.2410  179.4040  139.6680 C   0  0  0  0  0  0  0  0  0  0  0  0
  185.0920  178.9560  141.2230 C   0  0  0  0  0  2  0  0  0  0  0  0
  182.5340  179.7620  138.4920 N   0  0  0  0  0  0  0  0  0  0  0  0
  184.0310  178.5820  142.2720 C   0  0  0  0  0  0  0  0  0  0  0  0
  182.3000  179.0490  140.6740 C   0  0  0  0  0  0  0  0  0  0  0  0
  181.2890  179.6390  138.7510 N   0  0  0  0  0  0  0  0  0  0  0  0
  182.7150  178.6280  142.0080 C   0  0  0  0  0  3  0  0  0  0  0  0
  179.7990  178.9430  140.7470 C   0  0  0  0  0  1  0  0  0  0  0  0
  181.1190  179.1960  140.1050 C   0  0  0  0  0  0  0  0  0  0  0  0
  2 12  1  0  0  0  0
  2  1  1  1  0  0  0
  3  1  1  0  0  0  0
  4 20  1  6  0  0  0
  4  2  1  0  0  0  0
  4  3  1  0  0  0  0
  5  8  1  0  0  0  0
  6 15  1  0  0  0  0
  7  9  1  0  0  0  0
  7 10  1  0  0  0  0
  8 10  2  0  0  0  0
  8 11  1  0  0  0  0
 12 14  1  6  0  0  0
 12  9  1  0  0  0  0
 13  7  2  0  0  0  0
 14 13  1  0  0  0  0
 15 13  1  0  0  0  0
 15  5  2  0  0  0  0
 16 18  1  0  0  0  0
 17 16  2  0  0  0  0
 17 21  1  0  0  0  0
 18 20  1  0  0  0  0
 19 22  2  0  0  0  0
 19 17  1  0  0  0  0
 21 23  1  0  0  0  0
 22 25  1  0  0  0  0
 23 20  2  0  0  0  0
 25 21  2  0  0  0  0
 25 24  1  0  0  0  0
M  END
>  <MODEL>
7

>  <REMARK>
 VINA RESULT:      -8.5      2.062      3.499
  Name = 
  2 active torsions:
  status: ('A' for Active; 'I' for Inactive)
    1  A    between atoms: N_11  and  C_17
    2  A    between atoms: C_14  and  C_24
                            x       y       z     vdW  Elec       q    Type
                         _______ _______ _______ _____ _____    ______ ____

>  <TORSDO>
F 2

$$$$
=
 OpenBabel10222418093D

 25 29  0  0  1  0  0  0  0  0999 V2000
  190.5450  178.0660  143.4800 C   0  0  0  0  0  2  0  0  0  0  0  0
  189.9950  176.8480  142.8840 N   0  0  2  0  0  0  0  0  0  0  0  0
  189.7380  178.9780  142.5830 C   0  0  0  0  0  2  0  0  0  0  0  0
  189.1680  177.6930  142.0250 C   0  0  1  0  0  3  0  0  0  0  0  0
  186.5750  178.5420  147.1020 C   0  0  0  0  0  3  0  0  0  0  0  0
  188.9020  178.1980  147.9640 C   0  0  0  0  0  1  0  0  0  0  0  0
  187.1750  177.2320  144.7560 C   0  0  0  0  0  0  0  0  0  0  0  0
  185.6080  178.3770  146.0960 C   0  0  0  0  0  0  0  0  0  0  0  0
  187.6460  176.5120  143.5580 C   0  0  0  0  0  2  0  0  0  0  0  0
  185.9220  177.7260  144.9390 N   0  0  0  0  0  0  0  0  0  0  0  0
  184.2950  178.8930  146.2850 N   0  0  0  0  0  1  0  0  0  0  0  0
  189.1250  176.2040  143.8710 C   0  0  2  0  0  3  0  0  0  0  0  0
  188.1440  177.3690  145.7080 C   0  0  0  0  0  0  0  0  0  0  0  0
  189.4200  176.7540  145.2830 C   0  0  0  0  0  2  0  0  0  0  0  0
  187.8660  178.0300  146.9080 C   0  0  0  0  0  0  0  0  0  0  0  0
  191.1530  176.7630  138.7060 C   0  0  0  0  0  3  0  0  0  0  0  0
  190.2090  177.1250  137.8460 C   0  0  0  0  0  0  0  0  0  0  0  0
  190.9000  176.9220  140.1960 C   0  0  0  0  0  2  0  0  0  0  0  0
  190.2350  177.0610  136.4300 N   0  0  0  0  0  0  0  0  0  0  0  0
  189.5290  177.5030  140.5800 C   0  0  0  0  0  0  0  0  0  0  0  0
  188.9550  177.6600  138.2540 C   0  0  0  0  0  0  0  0  0  0  0  0
  189.1150  177.5100  136.0130 N   0  0  0  0  0  0  0  0  0  0  0  0
  188.6150  177.8500  139.6590 C   0  0  0  0  0  3  0  0  0  0  0  0
  186.9250  178.4510  137.0180 C   0  0  0  0  0  1  0  0  0  0  0  0
  188.3000  177.8900  137.1310 C   0  0  0  0  0  0  0  0  0  0  0  0
  2  1  1  1  0  0  0
  2 12  1  0  0  0  0
  3  1  1  0  0  0  0
  4 20  1  6  0  0  0
  4  3  1  0  0  0  0
  4  2  1  0  0  0  0
  7 10  2  0  0  0  0
  7 13  1  0  0  0  0
  8 11  1  0  0  0  0
  8  5  2  0  0  0  0
  9  7  1  0  0  0  0
 10  8  1  0  0  0  0
 12  9  1  6  0  0  0
 12 14  1  0  0  0  0
 13 15  2  0  0  0  0
 14 13  1  0  0  0  0
 15  5  1  0  0  0  0
 15  6  1  0  0  0  0
 16 18  1  0  0  0  0
 17 21  1  0  0  0  0
 17 16  2  0  0  0  0
 18 20  1  0  0  0  0
 19 17  1  0  0  0  0
 21 23  1  0  0  0  0
 22 19  2  0  0  0  0
 22 25  1  0  0  0  0
 23 20  2  0  0  0  0
 24 25  1  0  0  0  0
 25 21  2  0  0  0  0
M  END
>  <MODEL>
8

>  <REMARK>
 VINA RESULT:      -8.5      2.979      5.568
  Name = 
  2 active torsions:
  status: ('A' for Active; 'I' for Inactive)
    1  A    between atoms: N_11  and  C_17
    2  A    between atoms: C_14  and  C_24
                            x       y       z     vdW  Elec       q    Type
                         _______ _______ _______ _____ _____    ______ ____

>  <TORSDO>
F 2

$$$$
=
 OpenBabel10222418093D

 25 29  0  0  1  0  0  0  0  0999 V2000
  190.6620  176.4320  141.0110 C   0  0  0  0  0  2  0  0  0  0  0  0
  189.4540  177.1910  141.3360 N   0  0  2  0  0  0  0  0  0  0  0  0
  190.8430  177.1170  139.6750 C   0  0  0  0  0  2  0  0  0  0  0  0
  189.6140  177.9040  140.0690 C   0  0  1  0  0  3  0  0  0  0  0  0
  189.7870  176.9150  147.0070 C   0  0  0  0  0  3  0  0  0  0  0  0
  187.4540  177.5030  146.3080 C   0  0  0  0  0  1  0  0  0  0  0  0
  190.7490  177.4230  144.4770 C   0  0  0  0  0  0  0  0  0  0  0  0
  191.1510  176.7600  146.7050 C   0  0  0  0  0  0  0  0  0  0  0  0
  191.1110  177.7300  143.0820 C   0  0  0  0  0  2  0  0  0  0  0  0
  191.6110  177.0160  145.4460 N   0  0  0  0  0  0  0  0  0  0  0  0
  192.0560  176.3350  147.7170 N   0  0  0  0  0  1  0  0  0  0  0  0
  189.7680  178.1150  142.4270 C   0  0  2  0  0  3  0  0  0  0  0  0
  189.4160  177.5870  144.7280 C   0  0  0  0  0  0  0  0  0  0  0  0
  188.6830  178.0330  143.5240 C   0  0  0  0  0  2  0  0  0  0  0  0
  188.9030  177.3360  146.0030 C   0  0  0  0  0  0  0  0  0  0  0  0
  187.3830  176.4560  137.1130 C   0  0  0  0  0  3  0  0  0  0  0  0
  186.2650  177.1010  137.4230 C   0  0  0  0  0  0  0  0  0  0  0  0
  188.6220  176.6660  137.9670 C   0  0  0  0  0  2  0  0  0  0  0  0
  185.0080  177.0510  136.7680 N   0  0  0  0  0  0  0  0  0  0  0  0
  188.4580  177.6320  139.1520 C   0  0  0  0  0  0  0  0  0  0  0  0
  186.1650  177.9880  138.5310 C   0  0  0  0  0  0  0  0  0  0  0  0
  184.2200  177.8260  137.4090 N   0  0  0  0  0  0  0  0  0  0  0  0
  187.2960  178.2540  139.4130 C   0  0  0  0  0  3  0  0  0  0  0  0
  184.3090  179.3770  139.4760 C   0  0  0  0  0  1  0  0  0  0  0  0
  184.9190  178.4220  138.5120 C   0  0  0  0  0  0  0  0  0  0  0  0
  2  1  1  6  0  0  0
  2 12  1  0  0  0  0
  3  4  1  0  0  0  0
  3  1  1  0  0  0  0
  4 20  1  6  0  0  0
  4  2  1  0  0  0  0
  7 13  2  0  0  0  0
  7 10  1  0  0  0  0
  8  5  1  0  0  0  0
  8 11  1  0  0  0  0
  9  7  1  0  0  0  0
 10  8  2  0  0  0  0
 12  9  1  1  0  0  0
 12 14  1  0  0  0  0
 13 15  1  0  0  0  0
 14 13  1  0  0  0  0
 15  6  1  0  0  0  0
 15  5  2  0  0  0  0
 16 17  2  0  0  0  0
 16 18  1  0  0  0  0
 17 21  1  0  0  0  0
 18 20  1  0  0  0  0
 19 22  2  0  0  0  0
 19 17  1  0  0  0  0
 20 23  2  0  0  0  0
 21 23  1  0  0  0  0
 22 25  1  0  0  0  0
 25 21  2  0  0  0  0
 25 24  1  0  0  0  0
M  END
>  <MODEL>
9

>  <REMARK>
 VINA RESULT:      -8.4      2.370      3.171
  Name = 
  2 active torsions:
  status: ('A' for Active; 'I' for Inactive)
    1  A    between atoms: N_11  and  C_17
    2  A    between atoms: C_14  and  C_24
                            x       y       z     vdW  Elec       q    Type
                         _______ _______ _______ _____ _____    ______ ____

>  <TORSDO>
F 2

$$$$
