=
 OpenBabel10222418053D

 35 40  0  0  0  0  0  0  0  0999 V2000
  182.6780  179.1690  143.5970 C   0  0  0  0  0  0  0  0  0  0  0  0
  186.0470  178.1440  143.9070 C   0  0  0  0  0  3  0  0  0  0  0  0
  181.5710  177.9980  140.5270 C   0  0  0  0  0  3  0  0  0  0  0  0
  179.4870  177.7850  142.5730 C   0  0  0  0  0  2  0  0  0  0  0  0
  180.7170  178.5600  142.7080 N   0  0  0  0  0  0  0  0  0  0  0  0
  186.2850  178.1070  145.2970 C   0  0  0  0  0  0  0  0  0  0  0  0
  181.3130  178.9020  143.9350 N   0  0  0  0  0  2  0  0  0  0  0  0
  179.2580  177.3980  141.1270 C   0  0  0  0  0  3  0  0  0  0  0  0
  184.2420  178.5690  142.1950 C   0  0  0  0  0  0  0  0  0  0  0  0
  182.9610  178.9810  142.3020 N   0  0  0  0  0  0  0  0  0  0  0  0
  181.7450  178.5420  141.7270 C   0  0  0  0  0  0  0  0  0  0  0  0
  185.2460  178.4470  146.1990 C   0  0  0  0  0  3  0  0  0  0  0  0
  183.8010  178.9270  144.3570 C   0  0  0  0  0  0  0  0  0  0  0  0
  183.9800  178.8430  145.7340 C   0  0  0  0  0  3  0  0  0  0  0  0
  180.2290  177.4710  140.2010 C   0  0  0  0  0  3  0  0  0  0  0  0
  184.7980  178.5730  143.4670 C   0  0  0  0  0  0  0  0  0  0  0  0
  187.8790  177.2870  147.1010 C   0  0  0  0  0  3  0  0  0  0  0  0
  189.1820  176.9660  147.2010 N   0  0  0  0  0  2  0  0  0  0  0  0
  188.7700  177.6130  145.0700 C   0  0  0  0  0  3  0  0  0  0  0  0
  189.7090  177.1720  145.9800 C   0  0  0  0  0  0  0  0  0  0  0  0
  187.6030  177.6860  145.8060 C   0  0  0  0  0  0  0  0  0  0  0  0
  191.1310  176.8880  145.6490 C   0  0  0  0  0  2  0  0  0  0  0  0
  191.8890  176.8640  146.8190 O   0  0  0  0  0  1  0  0  0  0  0  0
  184.8740  178.0250  140.9530 C   0  0  0  0  0  2  0  0  0  0  0  0
  184.9750  179.0960  139.8710 C   0  0  0  0  0  2  0  0  0  0  0  0
  184.9120  178.4980  138.4700 C   0  0  0  0  0  2  0  0  0  0  0  0
  186.2330  177.8520  138.0980 C   0  0  0  0  0  2  0  0  0  0  0  0
  187.3260  178.6650  138.6090 N   0  0  0  0  0  2  0  0  0  0  0  0
  189.5850  177.6240  141.4950 C   0  0  0  0  0  2  0  0  0  0  0  0
  188.4240  178.1250  139.3500 C   0  0  0  0  0  0  0  0  0  0  0  0
  191.6620  176.4770  138.6570 C   0  0  0  0  0  1  0  0  0  0  0  0
  188.4320  178.1560  140.6900 C   0  0  0  0  0  3  0  0  0  0  0  0
  190.7580  177.3530  139.3770 N   0  0  0  0  0  0  0  0  0  0  0  0
  190.4630  176.7030  140.6510 C   0  0  0  0  0  2  0  0  0  0  0  0
  189.5190  177.4130  138.5990 C   0  0  0  0  0  2  0  0  0  0  0  0
  1  7  1  0  0  0  0
  1 13  2  0  0  0  0
  2  6  2  0  0  0  0
  3 11  2  0  0  0  0
  4  5  1  0  0  0  0
  5  7  1  0  0  0  0
  6 21  1  0  0  0  0
  6 12  1  0  0  0  0
  8  4  1  0  0  0  0
  9 10  1  0  0  0  0
  9 16  2  0  0  0  0
 10  1  1  0  0  0  0
 11 10  1  0  0  0  0
 11  5  1  0  0  0  0
 13 14  1  0  0  0  0
 14 12  2  0  0  0  0
 15  3  1  0  0  0  0
 15  8  2  0  0  0  0
 16  2  1  0  0  0  0
 16 13  1  0  0  0  0
 17 18  1  0  0  0  0
 19 21  1  0  0  0  0
 19 20  2  0  0  0  0
 20 18  1  0  0  0  0
 21 17  2  0  0  0  0
 22 20  1  0  0  0  0
 22 23  1  0  0  0  0
 24  9  1  0  0  0  0
 25 24  1  0  0  0  0
 26 25  1  0  0  0  0
 27 26  1  0  0  0  0
 27 28  1  0  0  0  0
 28 30  1  0  0  0  0
 30 32  2  0  0  0  0
 31 33  1  0  0  0  0
 32 29  1  0  0  0  0
 33 34  1  0  0  0  0
 34 29  1  0  0  0  0
 35 30  1  0  0  0  0
 35 33  1  0  0  0  0
M  END
>  <MODEL>
1

>  <REMARK>
 VINA RESULT:      -9.6      0.000      0.000
  Name = 
  8 active torsions:
  status: ('A' for Active; 'I' for Inactive)
    1  A    between atoms: C_5  and  CA_20
    2  A    between atoms: C_6  and  N_21
    3  A    between atoms: C_8  and  C_23
    4  A    between atoms: C_8  and  C_27
    5  A    between atoms: C_13  and  C_17
    6  A    between atoms: C_13  and  C_27
    7  A    between atoms: C_14  and  C_31
    8  A    between atoms: C_17  and  N_21
                            x       y       z     vdW  Elec       q    Type
                         _______ _______ _______ _____ _____    ______ ____

>  <TORSDO>
F 8

$$$$
=
 OpenBabel10222418053D

 35 40  0  0  0  0  0  0  0  0999 V2000
  183.2780  179.1750  143.9620 C   0  0  0  0  0  0  0  0  0  0  0  0
  186.6360  178.1450  144.3590 C   0  0  0  0  0  3  0  0  0  0  0  0
  182.3490  178.2860  140.7410 C   0  0  0  0  0  3  0  0  0  0  0  0
  180.1610  177.8730  142.6420 C   0  0  0  0  0  2  0  0  0  0  0  0
  181.3740  178.6400  142.9150 N   0  0  0  0  0  0  0  0  0  0  0  0
  186.7990  177.9810  145.7510 C   0  0  0  0  0  0  0  0  0  0  0  0
  181.8990  178.8700  144.1990 N   0  0  0  0  0  2  0  0  0  0  0  0
  180.0150  177.6190  141.1560 C   0  0  0  0  0  3  0  0  0  0  0  0
  184.9210  178.7160  142.5970 C   0  0  0  0  0  0  0  0  0  0  0  0
  183.6310  179.1090  142.6720 N   0  0  0  0  0  0  0  0  0  0  0  0
  182.4530  178.7170  141.9940 C   0  0  0  0  0  0  0  0  0  0  0  0
  185.7090  178.2300  146.6220 C   0  0  0  0  0  3  0  0  0  0  0  0
  184.3600  178.8700  144.7560 C   0  0  0  0  0  0  0  0  0  0  0  0
  184.4660  178.6600  146.1270 C   0  0  0  0  0  3  0  0  0  0  0  0
  181.0330  177.7840  140.2950 C   0  0  0  0  0  3  0  0  0  0  0  0
  185.4080  178.6050  143.8930 C   0  0  0  0  0  0  0  0  0  0  0  0
  188.3270  177.1150  147.5900 C   0  0  0  0  0  3  0  0  0  0  0  0
  189.6170  176.7570  147.7200 N   0  0  0  0  0  2  0  0  0  0  0  0
  189.2740  177.4170  145.5810 C   0  0  0  0  0  3  0  0  0  0  0  0
  190.1780  176.9490  146.5120 C   0  0  0  0  0  0  0  0  0  0  0  0
  188.0930  177.5220  146.2900 C   0  0  0  0  0  0  0  0  0  0  0  0
  191.5990  176.6250  146.2140 C   0  0  0  0  0  2  0  0  0  0  0  0
  192.0440  175.6260  147.0800 O   0  0  0  0  0  1  0  0  0  0  0  0
  185.6240  178.2930  141.3470 C   0  0  0  0  0  2  0  0  0  0  0  0
  186.9860  178.9700  141.2230 C   0  0  0  0  0  2  0  0  0  0  0  0
  188.1130  177.9580  141.0590 C   0  0  0  0  0  2  0  0  0  0  0  0
  188.9630  178.2870  139.8460 C   0  0  0  0  0  2  0  0  0  0  0  0
  188.0940  178.6290  138.7300 N   0  0  0  0  0  2  0  0  0  0  0  0
  185.2500  176.8720  136.9030 C   0  0  0  0  0  2  0  0  0  0  0  0
  187.3470  177.6590  137.9920 C   0  0  0  0  0  0  0  0  0  0  0  0
  187.8790  174.2940  136.5520 C   0  0  0  0  0  1  0  0  0  0  0  0
  186.0700  177.8850  137.6530 C   0  0  0  0  0  3  0  0  0  0  0  0
  187.1190  175.3400  137.2090 N   0  0  0  0  0  0  0  0  0  0  0  0
  186.1450  175.8290  136.2370 C   0  0  0  0  0  2  0  0  0  0  0  0
  188.0580  176.4250  137.4980 C   0  0  0  0  0  2  0  0  0  0  0  0
  1  7  1  0  0  0  0
  1 13  2  0  0  0  0
  2  6  2  0  0  0  0
  3 11  2  0  0  0  0
  4  5  1  0  0  0  0
  5  7  1  0  0  0  0
  6 21  1  0  0  0  0
  6 12  1  0  0  0  0
  8  4  1  0  0  0  0
  9 10  1  0  0  0  0
  9 16  2  0  0  0  0
 10  1  1  0  0  0  0
 11 10  1  0  0  0  0
 11  5  1  0  0  0  0
 13 14  1  0  0  0  0
 14 12  2  0  0  0  0
 15  3  1  0  0  0  0
 15  8  2  0  0  0  0
 16  2  1  0  0  0  0
 16 13  1  0  0  0  0
 17 18  1  0  0  0  0
 19 21  1  0  0  0  0
 19 20  2  0  0  0  0
 20 18  1  0  0  0  0
 21 17  2  0  0  0  0
 22 20  1  0  0  0  0
 22 23  1  0  0  0  0
 24  9  1  0  0  0  0
 25 24  1  0  0  0  0
 26 25  1  0  0  0  0
 27 26  1  0  0  0  0
 28 27  1  0  0  0  0
 29 32  1  0  0  0  0
 30 28  1  0  0  0  0
 31 33  1  0  0  0  0
 32 30  2  0  0  0  0
 33 35  1  0  0  0  0
 34 29  1  0  0  0  0
 34 33  1  0  0  0  0
 35 30  1  0  0  0  0
M  END
>  <MODEL>
2

>  <REMARK>
 VINA RESULT:      -8.9      1.360      2.367
  Name = 
  8 active torsions:
  status: ('A' for Active; 'I' for Inactive)
    1  A    between atoms: C_5  and  CA_20
    2  A    between atoms: C_6  and  N_21
    3  A    between atoms: C_8  and  C_23
    4  A    between atoms: C_8  and  C_27
    5  A    between atoms: C_13  and  C_17
    6  A    between atoms: C_13  and  C_27
    7  A    between atoms: C_14  and  C_31
    8  A    between atoms: C_17  and  N_21
                            x       y       z     vdW  Elec       q    Type
                         _______ _______ _______ _____ _____    ______ ____

>  <TORSDO>
F 8

$$$$
=
 OpenBabel10222418053D

 35 40  0  0  0  0  0  0  0  0999 V2000
  185.9420  178.0770  137.7970 C   0  0  0  0  0  0  0  0  0  0  0  0
  186.3280  178.6270  141.2680 C   0  0  0  0  0  3  0  0  0  0  0  0
  188.9720  176.8360  136.6550 C   0  0  0  0  0  3  0  0  0  0  0  0
  186.7100  175.5260  135.3360 C   0  0  0  0  0  2  0  0  0  0  0  0
  186.6230  176.7500  136.1300 N   0  0  0  0  0  0  0  0  0  0  0  0
  185.0180  178.5660  141.7890 C   0  0  0  0  0  0  0  0  0  0  0  0
  185.4580  177.2010  136.7740 N   0  0  0  0  0  2  0  0  0  0  0  0
  188.1510  175.2180  134.9890 C   0  0  0  0  0  3  0  0  0  0  0  0
  187.6470  178.3690  139.1320 C   0  0  0  0  0  0  0  0  0  0  0  0
  187.2780  178.1580  137.8500 N   0  0  0  0  0  0  0  0  0  0  0  0
  187.7340  177.2830  136.8370 C   0  0  0  0  0  0  0  0  0  0  0  0
  183.9250  178.3220  140.9210 C   0  0  0  0  0  3  0  0  0  0  0  0
  185.4140  178.2860  139.0520 C   0  0  0  0  0  0  0  0  0  0  0  0
  184.1170  178.1580  139.5370 C   0  0  0  0  0  3  0  0  0  0  0  0
  189.1830  175.8030  135.6200 C   0  0  0  0  0  3  0  0  0  0  0  0
  186.4930  178.4970  139.8920 C   0  0  0  0  0  0  0  0  0  0  0  0
  183.6800  179.2950  143.8250 C   0  0  0  0  0  3  0  0  0  0  0  0
  183.8160  179.2640  145.1640 N   0  0  0  0  0  2  0  0  0  0  0  0
  185.6590  178.3260  144.2390 C   0  0  0  0  0  3  0  0  0  0  0  0
  185.0100  178.6890  145.4010 C   0  0  0  0  0  0  0  0  0  0  0  0
  184.7950  178.7270  143.2380 C   0  0  0  0  0  0  0  0  0  0  0  0
  185.5250  178.4210  146.7710 C   0  0  0  0  0  2  0  0  0  0  0  0
  185.7380  179.6280  147.4360 O   0  0  0  0  0  1  0  0  0  0  0  0
  189.0460  178.2840  139.6530 C   0  0  0  0  0  2  0  0  0  0  0  0
  189.3000  176.9450  140.3380 C   0  0  0  0  0  2  0  0  0  0  0  0
  190.2560  177.0780  141.5170 C   0  0  0  0  0  2  0  0  0  0  0  0
  189.7170  178.0600  142.5400 C   0  0  0  0  0  2  0  0  0  0  0  0
  190.7050  178.2480  143.5920 N   0  0  0  0  0  2  0  0  0  0  0  0
  189.1960  177.6330  147.0350 C   0  0  0  0  0  2  0  0  0  0  0  0
  190.5200  177.7850  144.9320 C   0  0  0  0  0  0  0  0  0  0  0  0
  192.3810  175.7940  147.4320 C   0  0  0  0  0  1  0  0  0  0  0  0
  189.4060  178.0810  145.6150 C   0  0  0  0  0  3  0  0  0  0  0  0
  191.5060  176.8600  146.9850 N   0  0  0  0  0  0  0  0  0  0  0  0
  190.1530  176.4990  147.3990 C   0  0  0  0  0  2  0  0  0  0  0  0
  191.5510  176.8580  145.5230 C   0  0  0  0  0  2  0  0  0  0  0  0
  1 10  1  0  0  0  0
  1 13  2  0  0  0  0
  2  6  2  0  0  0  0
  3 11  2  0  0  0  0
  4  5  1  0  0  0  0
  5  7  1  0  0  0  0
  5 11  1  0  0  0  0
  6 21  1  0  0  0  0
  7  1  1  0  0  0  0
  8  4  1  0  0  0  0
  8 15  2  0  0  0  0
  9 24  1  0  0  0  0
  9 16  2  0  0  0  0
 10  9  1  0  0  0  0
 11 10  1  0  0  0  0
 12  6  1  0  0  0  0
 13 14  1  0  0  0  0
 13 16  1  0  0  0  0
 14 12  2  0  0  0  0
 15  3  1  0  0  0  0
 16  2  1  0  0  0  0
 17 18  1  0  0  0  0
 18 20  1  0  0  0  0
 19 20  2  0  0  0  0
 20 22  1  0  0  0  0
 21 17  2  0  0  0  0
 21 19  1  0  0  0  0
 22 23  1  0  0  0  0
 24 25  1  0  0  0  0
 25 26  1  0  0  0  0
 26 27  1  0  0  0  0
 27 28  1  0  0  0  0
 28 30  1  0  0  0  0
 29 34  1  0  0  0  0
 30 35  1  0  0  0  0
 30 32  2  0  0  0  0
 32 29  1  0  0  0  0
 33 34  1  0  0  0  0
 33 31  1  0  0  0  0
 35 33  1  0  0  0  0
M  END
>  <MODEL>
3

>  <REMARK>
 VINA RESULT:      -8.8      2.400      6.639
  Name = 
  8 active torsions:
  status: ('A' for Active; 'I' for Inactive)
    1  A    between atoms: C_5  and  CA_20
    2  A    between atoms: C_6  and  N_21
    3  A    between atoms: C_8  and  C_23
    4  A    between atoms: C_8  and  C_27
    5  A    between atoms: C_13  and  C_17
    6  A    between atoms: C_13  and  C_27
    7  A    between atoms: C_14  and  C_31
    8  A    between atoms: C_17  and  N_21
                            x       y       z     vdW  Elec       q    Type
                         _______ _______ _______ _____ _____    ______ ____

>  <TORSDO>
F 8

$$$$
=
 OpenBabel10222418053D

 35 40  0  0  0  0  0  0  0  0999 V2000
  184.6440  178.8090  141.9610 C   0  0  0  0  0  0  0  0  0  0  0  0
  187.6440  178.1800  143.7220 C   0  0  0  0  0  3  0  0  0  0  0  0
  185.3250  178.2110  138.6130 C   0  0  0  0  0  3  0  0  0  0  0  0
  182.6440  177.2880  139.3460 C   0  0  0  0  0  2  0  0  0  0  0  0
  183.4800  178.1650  140.1620 N   0  0  0  0  0  0  0  0  0  0  0  0
  187.2310  177.8680  145.0350 C   0  0  0  0  0  0  0  0  0  0  0  0
  183.3680  178.3010  141.5560 N   0  0  0  0  0  2  0  0  0  0  0  0
  183.1830  177.2030  137.9330 C   0  0  0  0  0  3  0  0  0  0  0  0
  186.7610  178.7370  141.4250 C   0  0  0  0  0  0  0  0  0  0  0  0
  185.5140  178.9480  140.9520 N   0  0  0  0  0  0  0  0  0  0  0  0
  184.8170  178.4950  139.8080 C   0  0  0  0  0  0  0  0  0  0  0  0
  185.8510  177.8650  145.3580 C   0  0  0  0  0  3  0  0  0  0  0  0
  185.3260  178.5500  143.1290 C   0  0  0  0  0  0  0  0  0  0  0  0
  184.8780  178.1890  144.3950 C   0  0  0  0  0  3  0  0  0  0  0  0
  184.4250  177.6020  137.6120 C   0  0  0  0  0  3  0  0  0  0  0  0
  186.6680  178.5320  142.7940 C   0  0  0  0  0  0  0  0  0  0  0  0
  188.0340  177.5370  147.4250 C   0  0  0  0  0  3  0  0  0  0  0  0
  189.1630  177.1490  148.0460 N   0  0  0  0  0  2  0  0  0  0  0  0
  189.5300  177.1030  145.8120 C   0  0  0  0  0  3  0  0  0  0  0  0
  190.0560  176.8990  147.0710 C   0  0  0  0  0  0  0  0  0  0  0  0
  188.2340  177.5170  146.0570 C   0  0  0  0  0  0  0  0  0  0  0  0
  191.4300  176.3950  147.3360 C   0  0  0  0  0  2  0  0  0  0  0  0
  192.0890  176.1740  146.1270 O   0  0  0  0  0  1  0  0  0  0  0  0
  187.9860  178.5660  140.5840 C   0  0  0  0  0  2  0  0  0  0  0  0
  188.7410  177.2940  140.9600 C   0  0  0  0  0  2  0  0  0  0  0  0
  190.2340  177.4140  140.6820 C   0  0  0  0  0  2  0  0  0  0  0  0
  190.6660  176.4280  139.6130 C   0  0  0  0  0  2  0  0  0  0  0  0
  190.6940  177.0980  138.3230 N   0  0  0  0  0  2  0  0  0  0  0  0
  187.9030  178.4850  136.1330 C   0  0  0  0  0  2  0  0  0  0  0  0
  189.5590  177.1800  137.4560 C   0  0  0  0  0  0  0  0  0  0  0  0
  187.1580  174.8730  135.8470 C   0  0  0  0  0  1  0  0  0  0  0  0
  189.1100  178.3650  137.0200 C   0  0  0  0  0  3  0  0  0  0  0  0
  187.5680  176.1010  136.5010 N   0  0  0  0  0  0  0  0  0  0  0  0
  187.5670  177.1450  135.4820 C   0  0  0  0  0  2  0  0  0  0  0  0
  188.9480  175.9010  136.9470 C   0  0  0  0  0  2  0  0  0  0  0  0
  1 13  2  0  0  0  0
  2  6  2  0  0  0  0
  3 11  2  0  0  0  0
  4  5  1  0  0  0  0
  5  7  1  0  0  0  0
  6 12  1  0  0  0  0
  6 21  1  0  0  0  0
  7  1  1  0  0  0  0
  8  4  1  0  0  0  0
  9 16  2  0  0  0  0
 10  9  1  0  0  0  0
 10  1  1  0  0  0  0
 11  5  1  0  0  0  0
 11 10  1  0  0  0  0
 13 14  1  0  0  0  0
 14 12  2  0  0  0  0
 15  8  2  0  0  0  0
 15  3  1  0  0  0  0
 16 13  1  0  0  0  0
 16  2  1  0  0  0  0
 17 18  1  0  0  0  0
 19 21  1  0  0  0  0
 19 20  2  0  0  0  0
 20 22  1  0  0  0  0
 20 18  1  0  0  0  0
 21 17  2  0  0  0  0
 23 22  1  0  0  0  0
 24 25  1  0  0  0  0
 24  9  1  0  0  0  0
 26 25  1  0  0  0  0
 27 26  1  0  0  0  0
 28 27  1  0  0  0  0
 29 32  1  0  0  0  0
 30 28  1  0  0  0  0
 31 33  1  0  0  0  0
 32 30  2  0  0  0  0
 33 35  1  0  0  0  0
 34 29  1  0  0  0  0
 34 33  1  0  0  0  0
 35 30  1  0  0  0  0
M  END
>  <MODEL>
4

>  <REMARK>
 VINA RESULT:      -8.4      1.810      3.451
  Name = 
  8 active torsions:
  status: ('A' for Active; 'I' for Inactive)
    1  A    between atoms: C_5  and  CA_20
    2  A    between atoms: C_6  and  N_21
    3  A    between atoms: C_8  and  C_23
    4  A    between atoms: C_8  and  C_27
    5  A    between atoms: C_13  and  C_17
    6  A    between atoms: C_13  and  C_27
    7  A    between atoms: C_14  and  C_31
    8  A    between atoms: C_17  and  N_21
                            x       y       z     vdW  Elec       q    Type
                         _______ _______ _______ _____ _____    ______ ____

>  <TORSDO>
F 8

$$$$
=
 OpenBabel10222418053D

 35 40  0  0  1  0  0  0  0  0999 V2000
  186.6080  177.5020  146.1650 C   0  0  0  0  0  0  0  0  0  0  0  0
  186.1000  177.8340  142.6830 C   0  0  0  0  0  3  0  0  0  0  0  0
  189.9880  176.8660  146.6100 C   0  0  0  0  0  3  0  0  0  0  0  0
  188.9420  178.6280  148.7020 C   0  0  0  0  0  2  0  0  0  0  0  0
  188.1230  177.8520  147.7730 N   0  0  0  0  0  0  0  0  0  0  0  0
  184.9350  178.6220  142.5630 C   0  0  0  0  0  0  0  0  0  0  0  0
  186.8040  178.1760  147.4120 N   0  0  0  0  0  2  0  0  0  0  0  0
  190.3760  178.1410  148.6820 C   0  0  0  0  0  3  0  0  0  0  0  0
  187.6920  176.8580  144.3800 C   0  0  0  0  0  0  0  0  0  0  0  0
  187.6910  176.8450  145.7310 N   0  0  0  0  0  0  0  0  0  0  0  0
  188.6830  177.0970  146.7070 C   0  0  0  0  0  0  0  0  0  0  0  0
  184.2710  179.0790  143.7290 C   0  0  0  0  0  3  0  0  0  0  0  0
  185.8530  177.9150  145.0900 C   0  0  0  0  0  0  0  0  0  0  0  0
  184.7390  178.7440  145.0110 C   0  0  0  0  0  3  0  0  0  0  0  0
  190.8550  177.3570  147.7020 C   0  0  0  0  0  3  0  0  0  0  0  0
  186.5260  177.4840  143.9610 C   0  0  0  0  0  0  0  0  0  0  0  0
  185.2090  179.3780  140.1500 C   0  0  0  0  0  3  0  0  0  0  0  0
  184.4130  179.6300  139.0950 N   0  0  0  0  0  0  0  0  0  0  0  0
  183.1070  179.0030  140.8350 C   0  0  0  0  0  3  0  0  0  0  0  0
  183.1550  179.4110  139.5180 C   0  0  0  0  0  0  0  0  0  0  0  0
  184.4320  178.9920  141.2270 C   0  0  1  0  0  3  0  0  0  0  0  0
  181.9650  179.5330  138.6330 C   0  0  0  0  0  2  0  0  0  0  0  0
  181.9200  180.8150  138.0850 O   0  0  0  0  0  1  0  0  0  0  0  0
  188.8370  176.4450  143.5130 C   0  0  0  0  0  2  0  0  0  0  0  0
  189.7160  177.6390  143.1520 C   0  0  0  0  0  2  0  0  0  0  0  0
  191.1330  177.2150  142.7850 C   0  0  0  0  0  2  0  0  0  0  0  0
  191.4220  177.5030  141.3240 C   0  0  0  0  0  2  0  0  0  0  0  0
  190.6360  176.6040  140.4930 N   0  0  0  0  0  2  0  0  0  0  0  0
  188.0760  178.2540  138.2040 C   0  0  0  0  0  2  0  0  0  0  0  0
  189.9360  177.0310  139.3210 C   0  0  0  0  0  0  0  0  0  0  0  0
  190.1860  176.5980  135.6570 C   0  0  0  0  0  1  0  0  0  0  0  0
  188.8510  177.8130  139.4150 C   0  0  0  0  0  3  0  0  0  0  0  0
  189.4910  176.7410  136.9210 N   0  0  0  0  0  0  0  0  0  0  0  0
  188.9030  178.0770  136.9320 C   0  0  0  0  0  2  0  0  0  0  0  0
  190.5080  176.6830  137.9720 C   0  0  0  0  0  2  0  0  0  0  0  0
  1  7  1  0  0  0  0
  2 16  1  0  0  0  0
  3 11  2  0  0  0  0
  3 15  1  0  0  0  0
  5  4  1  0  0  0  0
  6  2  2  0  0  0  0
  6 12  1  0  0  0  0
  7  5  1  0  0  0  0
  8  4  1  0  0  0  0
  9 10  1  0  0  0  0
 10  1  1  0  0  0  0
 10 11  1  0  0  0  0
 11  5  1  0  0  0  0
 12 14  2  0  0  0  0
 13  1  2  0  0  0  0
 14 13  1  0  0  0  0
 15  8  2  0  0  0  0
 16  9  2  0  0  0  0
 16 13  1  0  0  0  0
 17 21  1  0  0  0  0
 18 20  1  0  0  0  0
 18 17  2  0  0  0  0
 19 21  1  0  0  0  0
 20 19  2  0  0  0  0
 21  6  1  6  0  0  0
 22 20  1  0  0  0  0
 23 22  1  0  0  0  0
 24  9  1  0  0  0  0
 25 24  1  0  0  0  0
 26 25  1  0  0  0  0
 27 26  1  0  0  0  0
 28 27  1  0  0  0  0
 29 32  1  0  0  0  0
 30 32  2  0  0  0  0
 30 28  1  0  0  0  0
 31 33  1  0  0  0  0
 33 34  1  0  0  0  0
 33 35  1  0  0  0  0
 34 29  1  0  0  0  0
 35 30  1  0  0  0  0
M  END
>  <MODEL>
5

>  <REMARK>
 VINA RESULT:      -8.3      3.225      7.159
  Name = 
  8 active torsions:
  status: ('A' for Active; 'I' for Inactive)
    1  A    between atoms: C_5  and  CA_20
    2  A    between atoms: C_6  and  N_21
    3  A    between atoms: C_8  and  C_23
    4  A    between atoms: C_8  and  C_27
    5  A    between atoms: C_13  and  C_17
    6  A    between atoms: C_13  and  C_27
    7  A    between atoms: C_14  and  C_31
    8  A    between atoms: C_17  and  N_21
                            x       y       z     vdW  Elec       q    Type
                         _______ _______ _______ _____ _____    ______ ____

>  <TORSDO>
F 8

$$$$
=
 OpenBabel10222418053D

 35 40  0  0  0  0  0  0  0  0999 V2000
  187.7360  178.3780  138.4970 C   0  0  0  0  0  0  0  0  0  0  0  0
  185.8350  178.6340  141.4660 C   0  0  0  0  0  3  0  0  0  0  0  0
  190.7660  176.9470  139.3890 C   0  0  0  0  0  3  0  0  0  0  0  0
  189.8310  175.9540  136.7980 C   0  0  0  0  0  2  0  0  0  0  0  0
  189.2890  177.1190  137.4930 N   0  0  0  0  0  0  0  0  0  0  0  0
  184.4930  178.6580  141.0330 C   0  0  0  0  0  0  0  0  0  0  0  0
  187.9930  177.6280  137.3050 N   0  0  0  0  0  2  0  0  0  0  0  0
  191.1540  175.5390  137.4050 C   0  0  0  0  0  3  0  0  0  0  0  0
  188.2060  178.4120  140.6300 C   0  0  0  0  0  0  0  0  0  0  0  0
  188.7330  178.3310  139.3900 N   0  0  0  0  0  0  0  0  0  0  0  0
  189.7080  177.4930  138.7990 C   0  0  0  0  0  0  0  0  0  0  0  0
  184.1980  178.5810  139.6480 C   0  0  0  0  0  3  0  0  0  0  0  0
  186.5350  178.5430  139.1510 C   0  0  0  0  0  0  0  0  0  0  0  0
  185.2230  178.5020  138.6900 C   0  0  0  0  0  3  0  0  0  0  0  0
  191.5620  175.9770  138.6080 C   0  0  0  0  0  3  0  0  0  0  0  0
  186.8360  178.5910  140.5000 C   0  0  0  0  0  0  0  0  0  0  0  0
  183.5560  178.9320  143.3810 C   0  0  0  0  0  3  0  0  0  0  0  0
  182.3460  178.9530  143.9700 N   0  0  0  0  0  2  0  0  0  0  0  0
  182.0510  178.6250  141.7480 C   0  0  0  0  0  3  0  0  0  0  0  0
  181.4510  178.7600  142.9830 C   0  0  0  0  0  0  0  0  0  0  0  0
  183.4020  178.7320  142.0220 C   0  0  0  0  0  0  0  0  0  0  0  0
  179.9810  178.7630  143.2070 C   0  0  0  0  0  2  0  0  0  0  0  0
  179.6660  177.9060  144.2610 O   0  0  0  0  0  1  0  0  0  0  0  0
  188.9490  178.1590  141.9030 C   0  0  0  0  0  2  0  0  0  0  0  0
  188.7990  176.7080  142.3520 C   0  0  0  0  0  2  0  0  0  0  0  0
  189.9280  176.2790  143.2810 C   0  0  0  0  0  2  0  0  0  0  0  0
  190.4500  177.4600  144.0770 C   0  0  0  0  0  2  0  0  0  0  0  0
  190.4300  177.1310  145.4940 N   0  0  0  0  0  2  0  0  0  0  0  0
  188.3660  177.8260  148.6200 C   0  0  0  0  0  2  0  0  0  0  0  0
  189.3350  177.4500  146.3570 C   0  0  0  0  0  0  0  0  0  0  0  0
  185.7300  178.2180  146.0550 C   0  0  0  0  0  1  0  0  0  0  0  0
  189.5030  177.5220  147.6850 C   0  0  0  0  0  3  0  0  0  0  0  0
  186.9050  177.6420  146.6790 N   0  0  0  0  0  0  0  0  0  0  0  0
  187.1880  178.4420  147.8670 C   0  0  0  0  0  2  0  0  0  0  0  0
  188.0120  177.8180  145.7370 C   0  0  0  0  0  2  0  0  0  0  0  0
  1 13  2  0  0  0  0
  1 10  1  0  0  0  0
  4  8  1  0  0  0  0
  4  5  1  0  0  0  0
  5 11  1  0  0  0  0
  6  2  2  0  0  0  0
  6 21  1  0  0  0  0
  7  5  1  0  0  0  0
  7  1  1  0  0  0  0
  8 15  2  0  0  0  0
  9 24  1  0  0  0  0
 10  9  1  0  0  0  0
 11  3  2  0  0  0  0
 11 10  1  0  0  0  0
 12  6  1  0  0  0  0
 13 16  1  0  0  0  0
 14 13  1  0  0  0  0
 14 12  2  0  0  0  0
 15  3  1  0  0  0  0
 16  9  2  0  0  0  0
 16  2  1  0  0  0  0
 17 18  1  0  0  0  0
 19 21  1  0  0  0  0
 19 20  2  0  0  0  0
 20 22  1  0  0  0  0
 20 18  1  0  0  0  0
 21 17  2  0  0  0  0
 22 23  1  0  0  0  0
 24 25  1  0  0  0  0
 25 26  1  0  0  0  0
 26 27  1  0  0  0  0
 27 28  1  0  0  0  0
 28 30  1  0  0  0  0
 30 32  2  0  0  0  0
 31 33  1  0  0  0  0
 32 29  1  0  0  0  0
 33 34  1  0  0  0  0
 34 29  1  0  0  0  0
 35 30  1  0  0  0  0
 35 33  1  0  0  0  0
M  END
>  <MODEL>
6

>  <REMARK>
 VINA RESULT:      -8.3      2.535      8.059
  Name = 
  8 active torsions:
  status: ('A' for Active; 'I' for Inactive)
    1  A    between atoms: C_5  and  CA_20
    2  A    between atoms: C_6  and  N_21
    3  A    between atoms: C_8  and  C_23
    4  A    between atoms: C_8  and  C_27
    5  A    between atoms: C_13  and  C_17
    6  A    between atoms: C_13  and  C_27
    7  A    between atoms: C_14  and  C_31
    8  A    between atoms: C_17  and  N_21
                            x       y       z     vdW  Elec       q    Type
                         _______ _______ _______ _____ _____    ______ ____

>  <TORSDO>
F 8

$$$$
=
 OpenBabel10222418053D

 35 40  0  0  1  0  0  0  0  0999 V2000
  190.8270  178.1140  143.0990 C   0  0  0  0  0  0  0  0  0  0  0  0
  189.0320  177.2290  140.1860 C   0  0  0  0  0  3  0  0  0  0  0  0
  188.7490  177.4140  145.7860 C   0  0  0  0  0  3  0  0  0  0  0  0
  191.5390  176.7550  146.3850 C   0  0  0  0  0  2  0  0  0  0  0  0
  191.0930  177.5600  145.2500 N   0  0  0  0  0  0  0  0  0  0  0  0
  190.0250  176.9730  139.2160 C   0  0  0  0  0  0  0  0  0  0  0  0
  191.8170  177.7240  144.0560 N   0  0  0  0  0  2  0  0  0  0  0  0
  190.4250  176.6030  147.3990 C   0  0  0  0  0  3  0  0  0  0  0  0
  188.7150  177.8380  142.6140 C   0  0  0  0  0  0  0  0  0  0  0  0
  189.5840  178.1590  143.5960 N   0  0  0  0  0  0  0  0  0  0  0  0
  189.7200  177.7590  144.9460 C   0  0  0  0  0  0  0  0  0  0  0  0
  191.3940  177.1040  139.5580 C   0  0  0  0  0  3  0  0  0  0  0  0
  190.7800  177.8080  141.7570 C   0  0  0  0  0  0  0  0  0  0  0  0
  191.7870  177.5050  140.8470 C   0  0  0  0  0  3  0  0  0  0  0  0
  189.1430  176.8800  147.1060 C   0  0  0  0  0  3  0  0  0  0  0  0
  189.4410  177.6590  141.4440 C   0  0  0  0  0  0  0  0  0  0  0  0
  189.7940  177.2800  136.7020 C   0  0  0  0  0  3  0  0  0  0  0  0
  189.3350  176.5700  135.6550 N   0  0  0  0  0  0  0  0  0  0  0  0
  189.0590  175.3310  137.5300 C   0  0  0  0  0  3  0  0  0  0  0  0
  188.8900  175.4060  136.1630 C   0  0  0  0  0  0  0  0  0  0  0  0
  189.6350  176.5430  137.8600 C   0  0  1  0  0  3  0  0  0  0  0  0
  188.3410  174.3090  135.3220 C   0  0  0  0  0  2  0  0  0  0  0  0
  187.0860  174.6740  134.8350 O   0  0  0  0  0  1  0  0  0  0  0  0
  187.2620  177.5420  142.8090 C   0  0  0  0  0  2  0  0  0  0  0  0
  186.3880  178.6140  142.1640 C   0  0  0  0  0  2  0  0  0  0  0  0
  184.9050  178.2860  142.2780 C   0  0  0  0  0  2  0  0  0  0  0  0
  184.1090  179.0020  141.2040 C   0  0  0  0  0  2  0  0  0  0  0  0
  184.9690  179.2620  140.0600 N   0  0  0  0  0  2  0  0  0  0  0  0
  186.0380  177.4640  136.8760 C   0  0  0  0  0  2  0  0  0  0  0  0
  184.9320  178.4860  138.8590 C   0  0  0  0  0  0  0  0  0  0  0  0
  182.4160  176.7150  136.8070 C   0  0  0  0  0  1  0  0  0  0  0  0
  186.0500  178.2500  138.1570 C   0  0  0  0  0  3  0  0  0  0  0  0
  183.6080  177.5110  137.0320 N   0  0  0  0  0  0  0  0  0  0  0  0
  184.7520  176.6510  136.7440 C   0  0  0  0  0  2  0  0  0  0  0  0
  183.6320  177.8390  138.4590 C   0  0  0  0  0  2  0  0  0  0  0  0
  1 10  1  0  0  0  0
  1  7  1  0  0  0  0
  2 16  1  0  0  0  0
  3 15  1  0  0  0  0
  4  8  1  0  0  0  0
  5  4  1  0  0  0  0
  6 12  1  0  0  0  0
  6  2  2  0  0  0  0
  7  5  1  0  0  0  0
  9 24  1  0  0  0  0
  9 10  1  0  0  0  0
 10 11  1  0  0  0  0
 11  5  1  0  0  0  0
 11  3  2  0  0  0  0
 12 14  2  0  0  0  0
 13  1  2  0  0  0  0
 14 13  1  0  0  0  0
 15  8  2  0  0  0  0
 16 13  1  0  0  0  0
 16  9  2  0  0  0  0
 17 21  1  0  0  0  0
 18 20  1  0  0  0  0
 18 17  2  0  0  0  0
 19 21  1  0  0  0  0
 20 19  2  0  0  0  0
 21  6  1  6  0  0  0
 22 20  1  0  0  0  0
 23 22  1  0  0  0  0
 25 26  1  0  0  0  0
 25 24  1  0  0  0  0
 27 26  1  0  0  0  0
 28 27  1  0  0  0  0
 29 32  1  0  0  0  0
 30 28  1  0  0  0  0
 31 33  1  0  0  0  0
 32 30  2  0  0  0  0
 33 35  1  0  0  0  0
 34 29  1  0  0  0  0
 34 33  1  0  0  0  0
 35 30  1  0  0  0  0
M  END
>  <MODEL>
7

>  <REMARK>
 VINA RESULT:      -8.3      3.444      8.296
  Name = 
  8 active torsions:
  status: ('A' for Active; 'I' for Inactive)
    1  A    between atoms: C_5  and  CA_20
    2  A    between atoms: C_6  and  N_21
    3  A    between atoms: C_8  and  C_23
    4  A    between atoms: C_8  and  C_27
    5  A    between atoms: C_13  and  C_17
    6  A    between atoms: C_13  and  C_27
    7  A    between atoms: C_14  and  C_31
    8  A    between atoms: C_17  and  N_21
                            x       y       z     vdW  Elec       q    Type
                         _______ _______ _______ _____ _____    ______ ____

>  <TORSDO>
F 8

$$$$
=
 OpenBabel10222418053D

 35 40  0  0  1  0  0  0  0  0999 V2000
  186.8400  177.3080  144.5940 C   0  0  0  0  0  0  0  0  0  0  0  0
  188.4780  177.4720  141.4660 C   0  0  0  0  0  3  0  0  0  0  0  0
  189.3310  177.1240  147.0010 C   0  0  0  0  0  3  0  0  0  0  0  0
  187.0980  178.7960  147.8910 C   0  0  0  0  0  2  0  0  0  0  0  0
  187.0630  177.8960  146.7410 N   0  0  0  0  0  0  0  0  0  0  0  0
  187.5510  178.1010  140.6080 C   0  0  0  0  0  0  0  0  0  0  0  0
  186.1960  178.0380  145.6440 N   0  0  0  0  0  2  0  0  0  0  0  0
  188.2970  178.4970  148.7660 C   0  0  0  0  0  3  0  0  0  0  0  0
  188.8240  176.7580  143.8620 C   0  0  0  0  0  0  0  0  0  0  0  0
  188.0200  176.7840  144.9470 N   0  0  0  0  0  0  0  0  0  0  0  0
  188.2100  177.1890  146.2890 C   0  0  0  0  0  0  0  0  0  0  0  0
  186.2870  178.5020  141.1080 C   0  0  0  0  0  3  0  0  0  0  0  0
  186.8410  177.5900  143.2460 C   0  0  0  0  0  0  0  0  0  0  0  0
  185.9260  178.2660  142.4460 C   0  0  0  0  0  3  0  0  0  0  0  0
  189.3310  177.7530  148.3380 C   0  0  0  0  0  3  0  0  0  0  0  0
  188.0880  177.2160  142.7770 C   0  0  0  0  0  0  0  0  0  0  0  0
  189.0590  179.0050  138.7700 C   0  0  0  0  0  3  0  0  0  0  0  0
  189.0590  179.0600  137.4260 N   0  0  0  0  0  0  0  0  0  0  0  0
  187.1690  178.0070  138.0940 C   0  0  0  0  0  3  0  0  0  0  0  0
  187.9180  178.4660  137.0300 C   0  0  0  0  0  0  0  0  0  0  0  0
  187.9120  178.3650  139.2030 C   0  0  1  0  0  3  0  0  0  0  0  0
  187.5530  178.2750  135.6010 C   0  0  0  0  0  2  0  0  0  0  0  0
  186.4800  177.3890  135.5060 O   0  0  0  0  0  1  0  0  0  0  0  0
  190.2910  176.4710  143.8790 C   0  0  0  0  0  2  0  0  0  0  0  0
  191.1030  177.7510  144.0530 C   0  0  0  0  0  2  0  0  0  0  0  0
  191.8040  178.1610  142.7640 C   0  0  0  0  0  2  0  0  0  0  0  0
  191.8520  177.0040  141.7830 C   0  0  0  0  0  2  0  0  0  0  0  0
  192.2080  177.5060  140.4650 N   0  0  0  0  0  2  0  0  0  0  0  0
  190.6400  175.3740  137.7240 C   0  0  0  0  0  2  0  0  0  0  0  0
  192.0330  176.7490  139.2640 C   0  0  0  0  0  0  0  0  0  0  0  0
  194.0690  175.6760  136.3690 C   0  0  0  0  0  1  0  0  0  0  0  0
  190.8470  176.2000  138.9640 C   0  0  0  0  0  3  0  0  0  0  0  0
  193.0480  175.5270  137.3890 N   0  0  0  0  0  0  0  0  0  0  0  0
  191.7580  175.6170  136.7120 C   0  0  0  0  0  2  0  0  0  0  0  0
  193.1740  176.6780  138.2840 C   0  0  0  0  0  2  0  0  0  0  0  0
  1 10  1  0  0  0  0
  1  7  1  0  0  0  0
  2 16  1  0  0  0  0
  3 15  1  0  0  0  0
  4  8  1  0  0  0  0
  5  4  1  0  0  0  0
  6 12  1  0  0  0  0
  6  2  2  0  0  0  0
  7  5  1  0  0  0  0
  9 24  1  0  0  0  0
  9 10  1  0  0  0  0
 10 11  1  0  0  0  0
 11  5  1  0  0  0  0
 11  3  2  0  0  0  0
 12 14  2  0  0  0  0
 13  1  2  0  0  0  0
 14 13  1  0  0  0  0
 15  8  2  0  0  0  0
 16 13  1  0  0  0  0
 16  9  2  0  0  0  0
 17 21  1  0  0  0  0
 18 17  2  0  0  0  0
 19 21  1  0  0  0  0
 20 18  1  0  0  0  0
 20 19  2  0  0  0  0
 21  6  1  6  0  0  0
 22 20  1  0  0  0  0
 23 22  1  0  0  0  0
 24 25  1  0  0  0  0
 26 25  1  0  0  0  0
 27 26  1  0  0  0  0
 28 27  1  0  0  0  0
 29 32  1  0  0  0  0
 30 28  1  0  0  0  0
 31 33  1  0  0  0  0
 32 30  2  0  0  0  0
 33 35  1  0  0  0  0
 34 33  1  0  0  0  0
 34 29  1  0  0  0  0
 35 30  1  0  0  0  0
M  END
>  <MODEL>
8

>  <REMARK>
 VINA RESULT:      -8.2      3.797      7.149
  Name = 
  8 active torsions:
  status: ('A' for Active; 'I' for Inactive)
    1  A    between atoms: C_5  and  CA_20
    2  A    between atoms: C_6  and  N_21
    3  A    between atoms: C_8  and  C_23
    4  A    between atoms: C_8  and  C_27
    5  A    between atoms: C_13  and  C_17
    6  A    between atoms: C_13  and  C_27
    7  A    between atoms: C_14  and  C_31
    8  A    between atoms: C_17  and  N_21
                            x       y       z     vdW  Elec       q    Type
                         _______ _______ _______ _____ _____    ______ ____

>  <TORSDO>
F 8

$$$$
=
 OpenBabel10222418053D

 35 40  0  0  0  0  0  0  0  0999 V2000
  184.2490  178.7940  139.5120 C   0  0  0  0  0  0  0  0  0  0  0  0
  185.9650  178.4990  142.5880 C   0  0  0  0  0  3  0  0  0  0  0  0
  186.1670  177.1290  137.1510 C   0  0  0  0  0  3  0  0  0  0  0  0
  183.3050  176.7060  136.7020 C   0  0  0  0  0  2  0  0  0  0  0  0
  183.8730  177.7210  137.5860 N   0  0  0  0  0  0  0  0  0  0  0  0
  184.9650  178.6470  143.5730 C   0  0  0  0  0  0  0  0  0  0  0  0
  183.1990  178.2930  138.6780 N   0  0  0  0  0  2  0  0  0  0  0  0
  184.3710  176.1400  135.7870 C   0  0  0  0  0  3  0  0  0  0  0  0
  186.3150  178.3850  140.0920 C   0  0  0  0  0  0  0  0  0  0  0  0
  185.4770  178.5400  139.0440 N   0  0  0  0  0  0  0  0  0  0  0  0
  185.2660  177.8120  137.8500 C   0  0  0  0  0  0  0  0  0  0  0  0
  183.6190  178.8590  143.1850 C   0  0  0  0  0  3  0  0  0  0  0  0
  184.2800  178.8570  140.8880 C   0  0  0  0  0  0  0  0  0  0  0  0
  183.2590  178.9460  141.8280 C   0  0  0  0  0  3  0  0  0  0  0  0
  185.6830  176.3150  136.0170 C   0  0  0  0  0  3  0  0  0  0  0  0
  185.5930  178.6240  141.2530 C   0  0  0  0  0  0  0  0  0  0  0  0
  184.4510  178.7240  146.0630 C   0  0  0  0  0  3  0  0  0  0  0  0
  185.1190  178.5530  147.2180 N   0  0  0  0  0  2  0  0  0  0  0  0
  186.5730  178.2610  145.5070 C   0  0  0  0  0  3  0  0  0  0  0  0
  186.3920  178.2840  146.8740 C   0  0  0  0  0  0  0  0  0  0  0  0
  185.3200  178.5500  145.0010 C   0  0  0  0  0  0  0  0  0  0  0  0
  187.4570  177.9810  147.8680 C   0  0  0  0  0  2  0  0  0  0  0  0
  188.5210  177.3410  147.2340 O   0  0  0  0  0  1  0  0  0  0  0  0
  187.7130  177.8590  140.0100 C   0  0  0  0  0  2  0  0  0  0  0  0
  188.5810  178.7360  139.1130 C   0  0  0  0  0  2  0  0  0  0  0  0
  189.9490  178.1150  138.8600 C   0  0  0  0  0  2  0  0  0  0  0  0
  189.9350  176.6310  139.1740 C   0  0  0  0  0  2  0  0  0  0  0  0
  190.8400  176.3660  140.2820 N   0  0  0  0  0  2  0  0  0  0  0  0
  189.2190  176.4960  143.7260 C   0  0  0  0  0  2  0  0  0  0  0  0
  190.5500  176.7260  141.6350 C   0  0  0  0  0  0  0  0  0  0  0  0
  191.7970  179.1100  144.1730 C   0  0  0  0  0  1  0  0  0  0  0  0
  189.5660  176.1190  142.3130 C   0  0  0  0  0  3  0  0  0  0  0  0
  190.7850  178.3430  143.4710 N   0  0  0  0  0  0  0  0  0  0  0  0
  190.3530  177.2840  144.3780 C   0  0  0  0  0  2  0  0  0  0  0  0
  191.4480  177.7200  142.3250 C   0  0  0  0  0  2  0  0  0  0  0  0
  1 13  2  0  0  0  0
  2  6  2  0  0  0  0
  3 11  2  0  0  0  0
  4  5  1  0  0  0  0
  5 11  1  0  0  0  0
  5  7  1  0  0  0  0
  6 21  1  0  0  0  0
  7  1  1  0  0  0  0
  8 15  2  0  0  0  0
  8  4  1  0  0  0  0
  9 16  2  0  0  0  0
 10  1  1  0  0  0  0
 10  9  1  0  0  0  0
 11 10  1  0  0  0  0
 12  6  1  0  0  0  0
 13 16  1  0  0  0  0
 13 14  1  0  0  0  0
 14 12  2  0  0  0  0
 15  3  1  0  0  0  0
 16  2  1  0  0  0  0
 17 18  1  0  0  0  0
 19 20  2  0  0  0  0
 20 18  1  0  0  0  0
 20 22  1  0  0  0  0
 21 19  1  0  0  0  0
 21 17  2  0  0  0  0
 23 22  1  0  0  0  0
 24  9  1  0  0  0  0
 25 24  1  0  0  0  0
 26 25  1  0  0  0  0
 26 27  1  0  0  0  0
 27 28  1  0  0  0  0
 28 30  1  0  0  0  0
 29 34  1  0  0  0  0
 30 32  2  0  0  0  0
 30 35  1  0  0  0  0
 32 29  1  0  0  0  0
 33 31  1  0  0  0  0
 33 34  1  0  0  0  0
 35 33  1  0  0  0  0
M  END
>  <MODEL>
9

>  <REMARK>
 VINA RESULT:      -8.1      2.291      4.379
  Name = 
  8 active torsions:
  status: ('A' for Active; 'I' for Inactive)
    1  A    between atoms: C_5  and  CA_20
    2  A    between atoms: C_6  and  N_21
    3  A    between atoms: C_8  and  C_23
    4  A    between atoms: C_8  and  C_27
    5  A    between atoms: C_13  and  C_17
    6  A    between atoms: C_13  and  C_27
    7  A    between atoms: C_14  and  C_31
    8  A    between atoms: C_17  and  N_21
                            x       y       z     vdW  Elec       q    Type
                         _______ _______ _______ _____ _____    ______ ____

>  <TORSDO>
F 8

$$$$
