=
 OpenBabel10222420353D

 41 46  0  0  1  0  0  0  0  0999 V2000
  188.8910  177.4260  141.1480 C   0  0  0  0  0  3  0  0  0  0  0  0
  188.2570  178.2880  141.9410 C   0  0  0  0  0  3  0  0  0  0  0  0
  189.7580  176.8300  145.0150 C   0  0  0  0  0  0  0  0  0  0  0  0
  188.8050  176.8510  143.8460 C   0  0  2  0  0  3  0  0  0  0  0  0
  188.5100  178.2700  143.4080 C   0  0  2  0  0  3  0  0  0  0  0  0
  191.9650  175.9400  145.8660 C   0  0  0  0  0  2  0  0  0  0  0  0
  187.5100  177.3650  147.7330 O   0  0  0  0  0  0  0  0  0  0  0  0
  187.9680  177.4440  146.5590 C   0  0  0  0  0  0  0  0  0  0  0  0
  187.4210  177.4650  144.0920 C   0  0  2  0  0  3  0  0  0  0  0  0
  191.1960  176.5220  144.6860 C   0  0  0  0  0  2  0  0  0  0  0  0
  191.7470  176.8250  147.0790 C   0  0  0  0  0  2  0  0  0  0  0  0
  189.3540  177.0420  146.2870 C   0  0  0  0  0  0  0  0  0  0  0  0
  190.2710  176.7890  147.4610 C   0  0  0  0  0  2  0  0  0  0  0  0
  187.1590  178.0850  145.4690 C   0  0  1  0  0  3  0  0  0  0  0  0
  185.6670  178.0370  145.7740 C   0  0  0  0  0  2  0  0  0  0  0  0
  184.9440  179.1700  145.0630 C   0  0  0  0  0  2  0  0  0  0  0  0
  184.1120  178.6310  143.9070 C   0  0  1  0  0  3  0  0  0  0  0  0
  181.8590  178.8590  143.2030 O   0  0  0  0  0  0  0  0  0  0  0  0
  182.6740  178.9940  144.1040 C   0  0  0  0  0  3  0  0  0  0  0  0
  184.6050  179.1770  142.5720 C   0  0  0  0  0  2  0  0  0  0  0  0
  184.5410  178.1110  141.4950 C   0  0  0  0  0  1  0  0  0  0  0  0
  188.6530  177.4240  139.6710 C   0  0  1  0  0  3  0  0  0  0  0  0
  188.7450  178.8320  139.1090 C   0  0  0  0  0  1  0  0  0  0  0  0
  191.5820  175.5470  138.3820 C   0  0  2  0  0  3  0  0  0  0  0  0
  190.6250  175.3210  136.0730 C   0  0  1  0  0  3  0  0  0  0  0  0
  189.4670  175.9210  135.6000 C   0  0  0  0  0  3  0  0  0  0  0  0
  191.9070  175.2410  135.3810 C   0  0  0  0  0  2  0  0  0  0  0  0
  190.8740  176.3800  139.3670 N   0  0  0  0  0  0  0  0  0  0  0  0
  189.4230  175.8440  137.7350 C   0  0  2  0  0  3  0  0  0  0  0  0
  193.0230  175.5840  136.0330 C   0  0  2  0  0  3  0  0  0  0  0  0
  189.6370  176.5330  138.9870 C   0  0  0  0  0  0  0  0  0  0  0  0
  192.9240  176.5230  137.5980 S   0  0  0  0  0  0  0  0  0  0  0  0
  190.5510  175.2520  137.4020 N   0  0  2  0  0  0  0  0  0  0  0  0
  188.7120  176.2810  136.6730 N   0  0  0  0  0  0  0  0  0  0  0  0
  198.3100  174.8750  136.9110 O   0  0  0  0  0  0  0  0  0  0  0  0
  196.7240  175.0880  135.1970 N   0  0  0  0  0  2  0  0  0  0  0  0
  195.5570  175.2020  136.0200 C   0  0  0  0  0  0  0  0  0  0  0  0
  195.6550  175.1590  137.2750 O   0  0  0  0  0  0  0  0  0  0  0  0
  199.1800  174.8300  134.7040 C   0  0  0  0  0  1  0  0  0  0  0  0
  198.0630  174.9300  135.6770 C   0  0  0  0  0  0  0  0  0  0  0  0
  194.2790  175.3410  135.3880 N   0  0  0  0  0  2  0  0  0  0  0  0
  1  2  2  0  0  0  0
  3 12  2  0  0  0  0
  4  9  1  0  0  0  0
  4  3  1  1  0  0  0
  5  2  1  6  0  0  0
  5  4  1  0  0  0  0
  5  9  1  0  0  0  0
  6 11  1  0  0  0  0
  8  7  2  0  0  0  0
  9 14  1  0  0  0  0
 10  3  1  0  0  0  0
 10  6  1  0  0  0  0
 11 13  1  0  0  0  0
 12  8  1  0  0  0  0
 12 13  1  0  0  0  0
 14 15  1  0  0  0  0
 14  8  1  0  0  0  0
 16 15  1  0  0  0  0
 17 19  1  0  0  0  0
 17 16  1  0  0  0  0
 18 19  2  0  0  0  0
 20 17  1  0  0  0  0
 21 20  1  0  0  0  0
 22  1  1  0  0  0  0
 23 22  1  0  0  0  0
 24 28  1  0  0  0  0
 25 33  1  0  0  0  0
 26 25  1  0  0  0  0
 26 34  2  0  0  0  0
 27 30  1  0  0  0  0
 27 25  1  0  0  0  0
 29 31  1  0  0  0  0
 30 32  1  0  0  0  0
 31 28  2  0  0  0  0
 31 22  1  0  0  0  0
 32 24  1  0  0  0  0
 33 29  1  0  0  0  0
 33 24  1  0  0  0  0
 34 29  1  0  0  0  0
 36 40  1  0  0  0  0
 36 37  1  0  0  0  0
 37 38  2  0  0  0  0
 39 40  1  0  0  0  0
 40 35  2  0  0  0  0
 41 37  1  0  0  0  0
 41 30  1  0  0  0  0
M  END
>  <MODEL>
1

>  <REMARK>
 VINA RESULT:      -9.6      0.000      0.000
  Name = 
  9 active torsions:
  status: ('A' for Active; 'I' for Inactive)
    1  A    between atoms: C_4  and  C_6
    2  A    between atoms: C_6  and  C_31
    3  A    between atoms: C_7  and  C_13
    4  A    between atoms: C_10  and  C_26
    5  A    between atoms: C_11  and  C_25
    6  A    between atoms: C_11  and  C_38
    7  A    between atoms: C_25  and  C_26
    8  A    between atoms: C_26  and  C_40
    9  A    between atoms: C_27  and  N_41
                            x       y       z     vdW  Elec       q    Type
                         _______ _______ _______ _____ _____    ______ ____

>  <TORSDO>
F 9

$$$$
=
 OpenBabel10222420353D

 41 46  0  0  1  0  0  0  0  0999 V2000
  188.1420  178.2450  140.7870 C   0  0  0  0  0  3  0  0  0  0  0  0
  186.9620  178.3080  141.4000 C   0  0  0  0  0  3  0  0  0  0  0  0
  187.6280  177.5170  144.9720 C   0  0  0  0  0  0  0  0  0  0  0  0
  186.9490  177.3190  143.6400 C   0  0  2  0  0  3  0  0  0  0  0  0
  186.8980  178.6140  142.8550 C   0  0  2  0  0  3  0  0  0  0  0  0
  189.5040  176.7320  146.4710 C   0  0  0  0  0  2  0  0  0  0  0  0
  184.9250  178.7780  146.9300 O   0  0  0  0  0  0  0  0  0  0  0  0
  185.6250  178.5620  145.9030 C   0  0  0  0  0  0  0  0  0  0  0  0
  185.6140  178.0450  143.4290 C   0  0  2  0  0  3  0  0  0  0  0  0
  189.0640  177.0670  145.0520 C   0  0  0  0  0  2  0  0  0  0  0  0
  189.1270  177.8820  147.3880 C   0  0  0  0  0  2  0  0  0  0  0  0
  186.9890  178.0360  146.0440 C   0  0  0  0  0  0  0  0  0  0  0  0
  187.6090  178.0110  147.4220 C   0  0  0  0  0  2  0  0  0  0  0  0
  185.1330  178.9770  144.5460 C   0  0  1  0  0  3  0  0  0  0  0  0
  183.6130  179.0790  144.5070 C   0  0  0  0  0  2  0  0  0  0  0  0
  183.0930  178.7060  143.1280 C   0  0  0  0  0  2  0  0  0  0  0  0
  181.6570  179.1850  142.9510 C   0  0  1  0  0  3  0  0  0  0  0  0
  181.2450  177.8940  141.0050 O   0  0  0  0  0  0  0  0  0  0  0  0
  181.2320  178.9980  141.5290 C   0  0  0  0  0  3  0  0  0  0  0  0
  180.7080  178.4340  143.8780 C   0  0  0  0  0  2  0  0  0  0  0  0
  179.3640  179.1310  143.9550 C   0  0  0  0  0  1  0  0  0  0  0  0
  188.2320  177.9370  139.3250 C   0  0  1  0  0  3  0  0  0  0  0  0
  188.4280  179.2110  138.5190 C   0  0  0  0  0  1  0  0  0  0  0  0
  191.3750  175.9730  139.1490 C   0  0  2  0  0  3  0  0  0  0  0  0
  191.0850  175.4240  136.7170 C   0  0  1  0  0  3  0  0  0  0  0  0
  190.1110  175.9310  135.8700 C   0  0  0  0  0  3  0  0  0  0  0  0
  192.5070  175.2830  136.4200 C   0  0  0  0  0  2  0  0  0  0  0  0
  190.4360  176.9130  139.7830 N   0  0  0  0  0  0  0  0  0  0  0  0
  189.4810  176.1340  137.9010 C   0  0  2  0  0  3  0  0  0  0  0  0
  193.4060  175.7340  137.3020 C   0  0  2  0  0  3  0  0  0  0  0  0
  189.3530  176.9860  139.0620 C   0  0  0  0  0  0  0  0  0  0  0  0
  192.8950  176.8680  138.6410 S   0  0  0  0  0  0  0  0  0  0  0  0
  190.6480  175.5290  137.9730 N   0  0  2  0  0  0  0  0  0  0  0  0
  189.0960  176.4120  136.6370 N   0  0  0  0  0  0  0  0  0  0  0  0
  197.1550  171.8570  137.6720 O   0  0  0  0  0  0  0  0  0  0  0  0
  196.8710  174.1200  137.1290 N   0  0  0  0  0  2  0  0  0  0  0  0
  195.4530  174.1910  137.3100 C   0  0  0  0  0  0  0  0  0  0  0  0
  194.8020  173.1700  137.6580 O   0  0  0  0  0  0  0  0  0  0  0  0
  199.1390  173.0260  137.1000 C   0  0  0  0  0  1  0  0  0  0  0  0
  197.6730  172.9500  137.3200 C   0  0  0  0  0  0  0  0  0  0  0  0
  194.7870  175.4350  137.0650 N   0  0  0  0  0  2  0  0  0  0  0  0
  1  2  2  0  0  0  0
  3 10  1  0  0  0  0
  3 12  2  0  0  0  0
  4  3  1  1  0  0  0
  5  2  1  6  0  0  0
  5  9  1  0  0  0  0
  5  4  1  0  0  0  0
  6 11  1  0  0  0  0
  8 12  1  0  0  0  0
  8  7  2  0  0  0  0
  9  4  1  0  0  0  0
  9 14  1  0  0  0  0
 10  6  1  0  0  0  0
 11 13  1  0  0  0  0
 12 13  1  0  0  0  0
 14  8  1  0  0  0  0
 15 14  1  0  0  0  0
 16 15  1  0  0  0  0
 17 16  1  0  0  0  0
 17 20  1  0  0  0  0
 18 19  2  0  0  0  0
 19 17  1  0  0  0  0
 20 21  1  0  0  0  0
 22  1  1  0  0  0  0
 23 22  1  0  0  0  0
 24 28  1  0  0  0  0
 25 33  1  0  0  0  0
 26 34  2  0  0  0  0
 26 25  1  0  0  0  0
 27 25  1  0  0  0  0
 27 30  1  0  0  0  0
 29 33  1  0  0  0  0
 29 31  1  0  0  0  0
 30 32  1  0  0  0  0
 31 22  1  0  0  0  0
 31 28  2  0  0  0  0
 32 24  1  0  0  0  0
 33 24  1  0  0  0  0
 34 29  1  0  0  0  0
 36 37  1  0  0  0  0
 36 40  1  0  0  0  0
 37 38  2  0  0  0  0
 39 40  1  0  0  0  0
 40 35  2  0  0  0  0
 41 30  1  0  0  0  0
 41 37  1  0  0  0  0
M  END
>  <MODEL>
2

>  <REMARK>
 VINA RESULT:      -9.0      1.615      2.293
  Name = 
  9 active torsions:
  status: ('A' for Active; 'I' for Inactive)
    1  A    between atoms: C_4  and  C_6
    2  A    between atoms: C_6  and  C_31
    3  A    between atoms: C_7  and  C_13
    4  A    between atoms: C_10  and  C_26
    5  A    between atoms: C_11  and  C_25
    6  A    between atoms: C_11  and  C_38
    7  A    between atoms: C_25  and  C_26
    8  A    between atoms: C_26  and  C_40
    9  A    between atoms: C_27  and  N_41
                            x       y       z     vdW  Elec       q    Type
                         _______ _______ _______ _____ _____    ______ ____

>  <TORSDO>
F 9

$$$$
=
 OpenBabel10222420353D

 41 46  0  0  1  0  0  0  0  0999 V2000
  188.4620  178.6270  140.6410 C   0  0  0  0  0  3  0  0  0  0  0  0
  188.7420  177.8540  141.6870 C   0  0  0  0  0  3  0  0  0  0  0  0
  188.4320  177.3270  145.3560 C   0  0  0  0  0  0  0  0  0  0  0  0
  188.2060  176.9710  143.9080 C   0  0  2  0  0  3  0  0  0  0  0  0
  188.2140  178.2080  143.0340 C   0  0  2  0  0  3  0  0  0  0  0  0
  189.8760  176.9030  147.3860 C   0  0  0  0  0  2  0  0  0  0  0  0
  185.1320  178.2430  146.3540 O   0  0  0  0  0  0  0  0  0  0  0  0
  186.1250  178.0920  145.5890 C   0  0  0  0  0  0  0  0  0  0  0  0
  186.9060  177.4750  143.2670 C   0  0  2  0  0  3  0  0  0  0  0  0
  189.8290  177.1060  145.8770 C   0  0  0  0  0  2  0  0  0  0  0  0
  189.0970  178.0200  148.0570 C   0  0  0  0  0  2  0  0  0  0  0  0
  187.4450  177.7880  146.1550 C   0  0  0  0  0  0  0  0  0  0  0  0
  187.6320  177.9170  147.6490 C   0  0  0  0  0  2  0  0  0  0  0  0
  186.0000  178.3690  144.1190 C   0  0  1  0  0  3  0  0  0  0  0  0
  184.5580  178.2350  143.6420 C   0  0  0  0  0  2  0  0  0  0  0  0
  184.4940  178.2970  142.1250 C   0  0  0  0  0  2  0  0  0  0  0  0
  183.1740  178.9070  141.6700 C   0  0  1  0  0  3  0  0  0  0  0  0
  182.8250  176.9530  140.3730 O   0  0  0  0  0  0  0  0  0  0  0  0
  182.6500  178.1570  140.4860 C   0  0  0  0  0  3  0  0  0  0  0  0
  182.1430  178.8880  142.7920 C   0  0  0  0  0  2  0  0  0  0  0  0
  180.7450  179.0990  142.2450 C   0  0  0  0  0  1  0  0  0  0  0  0
  188.9810  178.2920  139.2780 C   0  0  1  0  0  3  0  0  0  0  0  0
  189.7040  176.9550  139.2920 C   0  0  0  0  0  1  0  0  0  0  0  0
  185.7960  178.0660  137.3900 C   0  0  2  0  0  3  0  0  0  0  0  0
  186.8950  177.1420  135.3310 C   0  0  1  0  0  3  0  0  0  0  0  0
  188.2210  176.7520  135.2110 C   0  0  0  0  0  3  0  0  0  0  0  0
  185.7270  176.4120  134.8470 C   0  0  0  0  0  2  0  0  0  0  0  0
  186.6010  178.2380  138.6100 N   0  0  0  0  0  0  0  0  0  0  0  0
  188.0070  178.0940  136.8600 C   0  0  2  0  0  3  0  0  0  0  0  0
  184.6930  176.2150  135.6710 C   0  0  2  0  0  3  0  0  0  0  0  0
  187.8640  178.2610  138.2880 C   0  0  0  0  0  0  0  0  0  0  0  0
  184.8860  176.4740  137.4700 S   0  0  0  0  0  0  0  0  0  0  0  0
  186.7990  178.0070  136.3410 N   0  0  2  0  0  0  0  0  0  0  0  0
  188.9250  177.3440  136.2120 N   0  0  0  0  0  0  0  0  0  0  0  0
  180.6070  172.8300  136.7070 O   0  0  0  0  0  0  0  0  0  0  0  0
  181.5370  174.1550  135.0100 N   0  0  0  0  0  2  0  0  0  0  0  0
  182.6170  174.7140  135.7650 C   0  0  0  0  0  0  0  0  0  0  0  0
  182.7750  174.4080  136.9770 O   0  0  0  0  0  0  0  0  0  0  0  0
  179.5040  172.7240  134.6090 C   0  0  0  0  0  1  0  0  0  0  0  0
  180.5700  173.2270  135.5120 C   0  0  0  0  0  0  0  0  0  0  0  0
  183.4980  175.6440  135.1240 N   0  0  0  0  0  2  0  0  0  0  0  0
  1  2  2  0  0  0  0
  3 10  1  0  0  0  0
  3 12  2  0  0  0  0
  4  3  1  1  0  0  0
  5  2  1  6  0  0  0
  5  9  1  0  0  0  0
  5  4  1  0  0  0  0
  6 11  1  0  0  0  0
  8 12  1  0  0  0  0
  8  7  2  0  0  0  0
  9  4  1  0  0  0  0
  9 14  1  0  0  0  0
 10  6  1  0  0  0  0
 12 13  1  0  0  0  0
 13 11  1  0  0  0  0
 14  8  1  0  0  0  0
 15 14  1  0  0  0  0
 16 15  1  0  0  0  0
 17 16  1  0  0  0  0
 17 20  1  0  0  0  0
 18 19  2  0  0  0  0
 19 17  1  0  0  0  0
 21 20  1  0  0  0  0
 22 23  1  0  0  0  0
 22  1  1  0  0  0  0
 24 32  1  0  0  0  0
 24 28  1  0  0  0  0
 25 33  1  0  0  0  0
 26 25  1  0  0  0  0
 26 34  2  0  0  0  0
 27 25  1  0  0  0  0
 27 30  1  0  0  0  0
 29 31  1  0  0  0  0
 30 32  1  0  0  0  0
 31 28  2  0  0  0  0
 31 22  1  0  0  0  0
 33 29  1  0  0  0  0
 33 24  1  0  0  0  0
 34 29  1  0  0  0  0
 36 40  1  0  0  0  0
 36 37  1  0  0  0  0
 37 38  2  0  0  0  0
 39 40  1  0  0  0  0
 40 35  2  0  0  0  0
 41 30  1  0  0  0  0
 41 37  1  0  0  0  0
M  END
>  <MODEL>
3

>  <REMARK>
 VINA RESULT:      -8.9      4.829      7.204
  Name = 
  9 active torsions:
  status: ('A' for Active; 'I' for Inactive)
    1  A    between atoms: C_4  and  C_6
    2  A    between atoms: C_6  and  C_31
    3  A    between atoms: C_7  and  C_13
    4  A    between atoms: C_10  and  C_26
    5  A    between atoms: C_11  and  C_25
    6  A    between atoms: C_11  and  C_38
    7  A    between atoms: C_25  and  C_26
    8  A    between atoms: C_26  and  C_40
    9  A    between atoms: C_27  and  N_41
                            x       y       z     vdW  Elec       q    Type
                         _______ _______ _______ _____ _____    ______ ____

>  <TORSDO>
F 9

$$$$
=
 OpenBabel10222420353D

 41 46  0  0  1  0  0  0  0  0999 V2000
  186.1720  178.0340  140.6670 C   0  0  0  0  0  3  0  0  0  0  0  0
  185.9430  179.1780  141.3080 C   0  0  0  0  0  3  0  0  0  0  0  0
  186.9990  177.9020  144.6380 C   0  0  0  0  0  0  0  0  0  0  0  0
  186.2640  177.8250  143.3230 C   0  0  2  0  0  3  0  0  0  0  0  0
  185.9390  179.2070  142.7960 C   0  0  2  0  0  3  0  0  0  0  0  0
  189.0880  177.2110  145.8800 C   0  0  0  0  0  2  0  0  0  0  0  0
  184.2820  178.3010  146.9140 O   0  0  0  0  0  0  0  0  0  0  0  0
  184.9280  178.3960  145.8340 C   0  0  0  0  0  0  0  0  0  0  0  0
  184.8150  178.3280  143.3100 C   0  0  2  0  0  3  0  0  0  0  0  0
  188.4920  177.7070  144.5680 C   0  0  0  0  0  2  0  0  0  0  0  0
  188.5970  178.0960  147.0100 C   0  0  0  0  0  2  0  0  0  0  0  0
  186.3670  178.1030  145.8150 C   0  0  0  0  0  0  0  0  0  0  0  0
  187.0850  177.9470  147.1350 C   0  0  0  0  0  2  0  0  0  0  0  0
  184.2720  178.9500  144.6020 C   0  0  1  0  0  3  0  0  0  0  0  0
  182.7580  178.7860  144.6490 C   0  0  0  0  0  2  0  0  0  0  0  0
  182.1080  179.5300  143.4950 C   0  0  0  0  0  2  0  0  0  0  0  0
  181.4900  178.5490  142.5060 C   0  0  1  0  0  3  0  0  0  0  0  0
  179.3770  177.9990  143.4310 O   0  0  0  0  0  0  0  0  0  0  0  0
  179.9980  178.6230  142.5830 C   0  0  0  0  0  3  0  0  0  0  0  0
  181.9510  178.8400  141.0820 C   0  0  0  0  0  2  0  0  0  0  0  0
  182.4670  177.5800  140.4140 C   0  0  0  0  0  1  0  0  0  0  0  0
  186.1800  177.9780  139.1730 C   0  0  1  0  0  3  0  0  0  0  0  0
  185.3170  179.0850  138.5890 C   0  0  0  0  0  1  0  0  0  0  0  0
  189.3560  178.0650  137.2570 C   0  0  2  0  0  3  0  0  0  0  0  0
  190.7410  177.3030  139.2070 C   0  0  1  0  0  3  0  0  0  0  0  0
  190.2640  176.8750  140.4370 C   0  0  0  0  0  3  0  0  0  0  0  0
  191.7900  176.6720  138.4140 C   0  0  0  0  0  2  0  0  0  0  0  0
  187.8900  178.0850  137.3890 N   0  0  0  0  0  0  0  0  0  0  0  0
  188.7780  178.0560  139.4560 C   0  0  2  0  0  3  0  0  0  0  0  0
  191.5750  176.4370  137.1150 C   0  0  0  0  0  0  0  0  0  0  0  0
  187.5760  178.0890  138.6550 C   0  0  0  0  0  0  0  0  0  0  0  0
  189.8810  176.5110  136.4340 S   0  0  0  0  0  0  0  0  0  0  0  0
  189.8090  178.0690  138.6370 N   0  0  2  0  0  0  0  0  0  0  0  0
  188.9930  177.3380  140.5790 N   0  0  0  0  0  0  0  0  0  0  0  0
  196.7760  174.9750  137.3190 O   0  0  0  0  0  0  0  0  0  0  0  0
  195.0050  175.3370  135.8240 N   0  0  0  0  0  2  0  0  0  0  0  0
  193.9990  175.6710  136.7870 C   0  0  0  0  0  0  0  0  0  0  0  0
  194.2710  175.6810  138.0170 O   0  0  0  0  0  0  0  0  0  0  0  0
  197.3010  174.6810  135.0240 C   0  0  0  0  0  1  0  0  0  0  0  0
  196.3630  175.0010  136.1290 C   0  0  0  0  0  0  0  0  0  0  0  0
  192.6760  175.9700  136.3260 N   0  0  0  0  0  0  0  0  0  0  0  0
  1  2  2  0  0  0  0
  3 12  2  0  0  0  0
  4  3  1  1  0  0  0
  5  2  1  6  0  0  0
  5  9  1  0  0  0  0
  5  4  1  0  0  0  0
  6 11  1  0  0  0  0
  8  7  2  0  0  0  0
  9  4  1  0  0  0  0
  9 14  1  0  0  0  0
 10  3  1  0  0  0  0
 10  6  1  0  0  0  0
 11 13  1  0  0  0  0
 12  8  1  0  0  0  0
 12 13  1  0  0  0  0
 14 15  1  0  0  0  0
 14  8  1  0  0  0  0
 16 15  1  0  0  0  0
 17 19  1  0  0  0  0
 17 16  1  0  0  0  0
 19 18  2  0  0  0  0
 20 17  1  0  0  0  0
 21 20  1  0  0  0  0
 22  1  1  0  0  0  0
 23 22  1  0  0  0  0
 24 28  1  0  0  0  0
 24 33  1  0  0  0  0
 25 26  1  0  0  0  0
 26 34  2  0  0  0  0
 27 25  1  0  0  0  0
 28 31  2  0  0  0  0
 29 34  1  0  0  0  0
 30 27  1  0  0  0  0
 31 22  1  0  0  0  0
 31 29  1  0  0  0  0
 32 30  1  0  0  0  0
 32 24  1  0  0  0  0
 33 25  1  0  0  0  0
 33 29  1  0  0  0  0
 36 40  1  0  0  0  0
 36 37  1  0  0  0  0
 37 38  2  0  0  0  0
 39 40  1  0  0  0  0
 40 35  2  0  0  0  0
 41 37  1  0  0  0  0
 41 30  2  0  0  0  0
M  END
>  <MODEL>
4

>  <REMARK>
 VINA RESULT:      -8.8      1.816      2.999
  Name = 
  9 active torsions:
  status: ('A' for Active; 'I' for Inactive)
    1  A    between atoms: C_4  and  C_6
    2  A    between atoms: C_6  and  C_31
    3  A    between atoms: C_7  and  C_13
    4  A    between atoms: C_10  and  C_26
    5  A    between atoms: C_11  and  C_25
    6  A    between atoms: C_11  and  C_38
    7  A    between atoms: C_25  and  C_26
    8  A    between atoms: C_26  and  C_40
    9  A    between atoms: C_27  and  N_41
                            x       y       z     vdW  Elec       q    Type
                         _______ _______ _______ _____ _____    ______ ____

>  <TORSDO>
F 9

$$$$
=
 OpenBabel10222420353D

 41 46  0  0  1  0  0  0  0  0999 V2000
  189.7230  177.8790  140.3720 C   0  0  0  0  0  3  0  0  0  0  0  0
  190.3940  177.4510  141.4390 C   0  0  0  0  0  3  0  0  0  0  0  0
  190.1840  176.7540  145.0850 C   0  0  0  0  0  0  0  0  0  0  0  0
  189.9690  176.4380  143.6260 C   0  0  2  0  0  3  0  0  0  0  0  0
  189.8570  177.7040  142.8040 C   0  0  2  0  0  3  0  0  0  0  0  0
  191.6870  176.3780  147.0810 C   0  0  0  0  0  2  0  0  0  0  0  0
  186.8300  177.3350  146.1550 O   0  0  0  0  0  0  0  0  0  0  0  0
  187.8210  177.3040  145.3740 C   0  0  0  0  0  0  0  0  0  0  0  0
  188.6210  176.8500  143.0200 C   0  0  2  0  0  3  0  0  0  0  0  0
  191.6020  176.6360  145.5820 C   0  0  0  0  0  2  0  0  0  0  0  0
  190.8230  177.3940  147.8050 C   0  0  0  0  0  2  0  0  0  0  0  0
  189.1710  177.0940  145.9130 C   0  0  0  0  0  0  0  0  0  0  0  0
  189.3670  177.1790  147.4090 C   0  0  0  0  0  2  0  0  0  0  0  0
  187.6520  177.6270  143.9180 C   0  0  1  0  0  3  0  0  0  0  0  0
  186.2210  177.3860  143.4510 C   0  0  0  0  0  2  0  0  0  0  0  0
  185.4430  178.6910  143.4330 C   0  0  0  0  0  2  0  0  0  0  0  0
  183.9540  178.4230  143.2530 C   0  0  1  0  0  3  0  0  0  0  0  0
  183.6930  179.1130  145.5060 O   0  0  0  0  0  0  0  0  0  0  0  0
  183.1910  179.0120  144.3970 C   0  0  0  0  0  3  0  0  0  0  0  0
  183.4460  179.0030  141.9380 C   0  0  0  0  0  2  0  0  0  0  0  0
  183.4220  177.9430  140.8530 C   0  0  0  0  0  1  0  0  0  0  0  0
  190.2430  177.6380  138.9900 C   0  0  1  0  0  3  0  0  0  0  0  0
  190.8190  176.2370  138.8690 C   0  0  0  0  0  1  0  0  0  0  0  0
  187.2000  178.4520  137.0290 C   0  0  2  0  0  3  0  0  0  0  0  0
  187.3610  176.3830  135.6180 C   0  0  1  0  0  3  0  0  0  0  0  0
  188.2510  175.3340  135.7930 C   0  0  0  0  0  3  0  0  0  0  0  0
  185.9320  176.2730  135.3430 C   0  0  0  0  0  2  0  0  0  0  0  0
  188.1290  178.6150  138.1600 N   0  0  0  0  0  0  0  0  0  0  0  0
  188.9990  177.0880  136.7560 C   0  0  2  0  0  3  0  0  0  0  0  0
  185.0700  176.9910  136.0690 C   0  0  2  0  0  3  0  0  0  0  0  0
  189.1580  177.8350  137.9830 C   0  0  0  0  0  0  0  0  0  0  0  0
  185.6070  177.7690  137.6330 S   0  0  0  0  0  0  0  0  0  0  0  0
  187.8710  177.4710  136.1940 N   0  0  2  0  0  0  0  0  0  0  0  0
  189.2870  175.7850  136.5490 N   0  0  0  0  0  0  0  0  0  0  0  0
  180.2850  174.6230  136.9200 O   0  0  0  0  0  0  0  0  0  0  0  0
  181.3590  176.2050  135.5620 N   0  0  0  0  0  2  0  0  0  0  0  0
  182.6520  176.1450  136.1740 C   0  0  0  0  0  0  0  0  0  0  0  0
  182.8620  175.3780  137.1510 O   0  0  0  0  0  0  0  0  0  0  0  0
  178.9390  175.5970  135.2260 C   0  0  0  0  0  1  0  0  0  0  0  0
  180.2200  175.4360  135.9600 C   0  0  0  0  0  0  0  0  0  0  0  0
  183.6930  176.9910  135.6710 N   0  0  0  0  0  2  0  0  0  0  0  0
  1  2  2  0  0  0  0
  3 10  1  0  0  0  0
  3 12  2  0  0  0  0
  4  3  1  1  0  0  0
  5  2  1  6  0  0  0
  5  9  1  0  0  0  0
  5  4  1  0  0  0  0
  6 11  1  0  0  0  0
  8 12  1  0  0  0  0
  8  7  2  0  0  0  0
  9  4  1  0  0  0  0
  9 14  1  0  0  0  0
 10  6  1  0  0  0  0
 12 13  1  0  0  0  0
 13 11  1  0  0  0  0
 14  8  1  0  0  0  0
 15 14  1  0  0  0  0
 16 15  1  0  0  0  0
 17 16  1  0  0  0  0
 17 19  1  0  0  0  0
 19 18  2  0  0  0  0
 20 17  1  0  0  0  0
 21 20  1  0  0  0  0
 22  1  1  0  0  0  0
 23 22  1  0  0  0  0
 24 32  1  0  0  0  0
 24 28  1  0  0  0  0
 25 26  1  0  0  0  0
 25 33  1  0  0  0  0
 26 34  2  0  0  0  0
 27 25  1  0  0  0  0
 27 30  1  0  0  0  0
 29 31  1  0  0  0  0
 30 32  1  0  0  0  0
 31 28  2  0  0  0  0
 31 22  1  0  0  0  0
 33 29  1  0  0  0  0
 33 24  1  0  0  0  0
 34 29  1  0  0  0  0
 36 40  1  0  0  0  0
 36 37  1  0  0  0  0
 37 38  2  0  0  0  0
 39 40  1  0  0  0  0
 40 35  2  0  0  0  0
 41 30  1  0  0  0  0
 41 37  1  0  0  0  0
M  END
>  <MODEL>
5

>  <REMARK>
 VINA RESULT:      -8.7      4.429      7.046
  Name = 
  9 active torsions:
  status: ('A' for Active; 'I' for Inactive)
    1  A    between atoms: C_4  and  C_6
    2  A    between atoms: C_6  and  C_31
    3  A    between atoms: C_7  and  C_13
    4  A    between atoms: C_10  and  C_26
    5  A    between atoms: C_11  and  C_25
    6  A    between atoms: C_11  and  C_38
    7  A    between atoms: C_25  and  C_26
    8  A    between atoms: C_26  and  C_40
    9  A    between atoms: C_27  and  N_41
                            x       y       z     vdW  Elec       q    Type
                         _______ _______ _______ _____ _____    ______ ____

>  <TORSDO>
F 9

$$$$
=
 OpenBabel10222420353D

 41 46  0  0  1  0  0  0  0  0999 V2000
  187.8320  177.9070  139.5280 C   0  0  0  0  0  3  0  0  0  0  0  0
  188.5110  178.5640  140.4640 C   0  0  0  0  0  3  0  0  0  0  0  0
  188.0680  177.5280  144.0090 C   0  0  0  0  0  0  0  0  0  0  0  0
  187.8990  177.3790  142.5170 C   0  0  2  0  0  3  0  0  0  0  0  0
  187.9310  178.7260  141.8260 C   0  0  2  0  0  3  0  0  0  0  0  0
  189.4370  176.8250  146.0130 C   0  0  0  0  0  2  0  0  0  0  0  0
  184.7270  178.2910  144.9990 O   0  0  0  0  0  0  0  0  0  0  0  0
  185.7490  178.2510  144.2590 C   0  0  0  0  0  0  0  0  0  0  0  0
  186.6210  177.9660  141.9040 C   0  0  2  0  0  3  0  0  0  0  0  0
  189.4460  177.2370  144.5460 C   0  0  0  0  0  2  0  0  0  0  0  0
  188.6270  177.8350  146.8030 C   0  0  0  0  0  2  0  0  0  0  0  0
  187.0480  177.8710  144.8260 C   0  0  0  0  0  0  0  0  0  0  0  0
  187.1790  177.7890  146.3300 C   0  0  0  0  0  2  0  0  0  0  0  0
  185.6770  178.7310  142.8380 C   0  0  1  0  0  3  0  0  0  0  0  0
  184.2560  178.6640  142.2930 C   0  0  0  0  0  2  0  0  0  0  0  0
  184.2260  177.8940  140.9830 C   0  0  0  0  0  2  0  0  0  0  0  0
  183.1710  178.4700  140.0480 C   0  0  1  0  0  3  0  0  0  0  0  0
  184.2950  180.3250  139.0890 O   0  0  0  0  0  0  0  0  0  0  0  0
  183.8340  179.2050  138.9260 C   0  0  0  0  0  3  0  0  0  0  0  0
  182.2720  177.3730  139.4880 C   0  0  0  0  0  2  0  0  0  0  0  0
  180.9680  177.2980  140.2590 C   0  0  0  0  0  1  0  0  0  0  0  0
  188.3930  177.7320  138.1520 C   0  0  1  0  0  3  0  0  0  0  0  0
  188.8620  179.0630  137.5900 C   0  0  0  0  0  1  0  0  0  0  0  0
  191.6150  175.8930  138.1760 C   0  0  2  0  0  3  0  0  0  0  0  0
  190.7020  173.9530  136.8710 C   0  0  1  0  0  3  0  0  0  0  0  0
  189.4490  173.8750  136.2810 C   0  0  0  0  0  3  0  0  0  0  0  0
  191.9730  173.5620  136.2680 C   0  0  0  0  0  2  0  0  0  0  0  0
  190.7690  177.0820  138.3680 N   0  0  0  0  0  0  0  0  0  0  0  0
  189.4340  175.3560  137.8200 C   0  0  2  0  0  3  0  0  0  0  0  0
  193.0080  174.4060  136.3200 C   0  0  2  0  0  3  0  0  0  0  0  0
  189.5230  176.7560  138.1710 C   0  0  0  0  0  0  0  0  0  0  0  0
  192.7440  176.1620  136.7540 S   0  0  0  0  0  0  0  0  0  0  0  0
  190.6520  174.8550  137.8510 N   0  0  2  0  0  0  0  0  0  0  0  0
  188.6470  174.7980  136.8750 N   0  0  0  0  0  0  0  0  0  0  0  0
  198.1880  173.8100  137.7460 O   0  0  0  0  0  0  0  0  0  0  0  0
  196.7170  173.5480  135.9390 N   0  0  0  0  0  2  0  0  0  0  0  0
  195.5140  173.9480  136.6040 C   0  0  0  0  0  0  0  0  0  0  0  0
  195.5370  174.2850  137.8170 O   0  0  0  0  0  0  0  0  0  0  0  0
  199.1790  173.0660  135.7230 C   0  0  0  0  0  1  0  0  0  0  0  0
  198.0160  173.4960  136.5380 C   0  0  0  0  0  0  0  0  0  0  0  0
  194.2830  173.9330  135.8700 N   0  0  0  0  0  2  0  0  0  0  0  0
  1  2  2  0  0  0  0
  3 10  1  0  0  0  0
  3 12  2  0  0  0  0
  4  3  1  1  0  0  0
  5  2  1  6  0  0  0
  5  9  1  0  0  0  0
  5  4  1  0  0  0  0
  6 11  1  0  0  0  0
  8 12  1  0  0  0  0
  8  7  2  0  0  0  0
  9  4  1  0  0  0  0
  9 14  1  0  0  0  0
 10  6  1  0  0  0  0
 12 13  1  0  0  0  0
 13 11  1  0  0  0  0
 14  8  1  0  0  0  0
 15 14  1  0  0  0  0
 16 15  1  0  0  0  0
 17 16  1  0  0  0  0
 19 18  2  0  0  0  0
 19 17  1  0  0  0  0
 20 17  1  0  0  0  0
 20 21  1  0  0  0  0
 22 31  1  0  0  0  0
 22  1  1  0  0  0  0
 23 22  1  0  0  0  0
 24 28  1  0  0  0  0
 25 33  1  0  0  0  0
 26 25  1  0  0  0  0
 26 34  2  0  0  0  0
 27 30  1  0  0  0  0
 27 25  1  0  0  0  0
 29 33  1  0  0  0  0
 29 31  1  0  0  0  0
 30 32  1  0  0  0  0
 31 28  2  0  0  0  0
 32 24  1  0  0  0  0
 33 24  1  0  0  0  0
 34 29  1  0  0  0  0
 36 40  1  0  0  0  0
 36 37  1  0  0  0  0
 37 38  2  0  0  0  0
 39 40  1  0  0  0  0
 40 35  2  0  0  0  0
 41 30  1  0  0  0  0
 41 37  1  0  0  0  0
M  END
>  <MODEL>
6

>  <REMARK>
 VINA RESULT:      -8.4      1.762      2.594
  Name = 
  9 active torsions:
  status: ('A' for Active; 'I' for Inactive)
    1  A    between atoms: C_4  and  C_6
    2  A    between atoms: C_6  and  C_31
    3  A    between atoms: C_7  and  C_13
    4  A    between atoms: C_10  and  C_26
    5  A    between atoms: C_11  and  C_25
    6  A    between atoms: C_11  and  C_38
    7  A    between atoms: C_25  and  C_26
    8  A    between atoms: C_26  and  C_40
    9  A    between atoms: C_27  and  N_41
                            x       y       z     vdW  Elec       q    Type
                         _______ _______ _______ _____ _____    ______ ____

>  <TORSDO>
F 9

$$$$
=
 OpenBabel10222420353D

 41 46  0  0  1  0  0  0  0  0999 V2000
  183.7530  177.8820  139.2520 C   0  0  0  0  0  3  0  0  0  0  0  0
  183.3460  177.9490  137.9870 C   0  0  0  0  0  3  0  0  0  0  0  0
  184.6780  174.6780  136.8200 C   0  0  0  0  0  0  0  0  0  0  0  0
  184.6990  175.9350  137.6540 C   0  0  2  0  0  3  0  0  0  0  0  0
  183.9610  177.0620  136.9610 C   0  0  2  0  0  3  0  0  0  0  0  0
  184.0610  172.2280  136.7920 C   0  0  0  0  0  2  0  0  0  0  0  0
  187.3960  175.2950  134.5940 O   0  0  0  0  0  0  0  0  0  0  0  0
  186.4190  175.5560  135.3490 C   0  0  0  0  0  0  0  0  0  0  0  0
  185.4720  177.1310  137.0830 C   0  0  2  0  0  3  0  0  0  0  0  0
  183.6710  173.6340  137.2300 C   0  0  0  0  0  2  0  0  0  0  0  0
  184.4150  172.2520  135.3170 C   0  0  0  0  0  2  0  0  0  0  0  0
  185.5250  174.4760  135.7870 C   0  0  0  0  0  0  0  0  0  0  0  0
  185.6470  173.1280  135.1160 C   0  0  0  0  0  2  0  0  0  0  0  0
  186.0740  176.9780  135.6830 C   0  0  1  0  0  3  0  0  0  0  0  0
  187.2830  177.8970  135.5450 C   0  0  0  0  0  2  0  0  0  0  0  0
  187.5120  178.6680  136.8340 C   0  0  0  0  0  2  0  0  0  0  0  0
  188.9710  178.5730  137.2610 C   0  0  1  0  0  3  0  0  0  0  0  0
  188.0720  178.6080  139.4550 O   0  0  0  0  0  0  0  0  0  0  0  0
  189.0700  178.6630  138.7510 C   0  0  0  0  0  3  0  0  0  0  0  0
  189.6030  177.2730  136.7770 C   0  0  0  0  0  2  0  0  0  0  0  0
  190.4580  176.6510  137.8640 C   0  0  0  0  0  1  0  0  0  0  0  0
  183.1510  178.7630  140.3010 C   0  0  1  0  0  3  0  0  0  0  0  0
  181.8770  178.1470  140.8530 C   0  0  0  0  0  1  0  0  0  0  0  0
  186.0210  178.9500  142.6450 C   0  0  2  0  0  3  0  0  0  0  0  0
  184.5580  179.0130  144.6840 C   0  0  1  0  0  3  0  0  0  0  0  0
  183.1810  178.8420  144.7150 C   0  0  0  0  0  3  0  0  0  0  0  0
  185.5290  178.4080  145.5900 C   0  0  0  0  0  2  0  0  0  0  0  0
  185.3990  178.7200  141.3310 N   0  0  0  0  0  0  0  0  0  0  0  0
  183.7970  179.4120  142.7500 C   0  0  2  0  0  3  0  0  0  0  0  0
  186.6060  177.8010  145.0810 C   0  0  2  0  0  3  0  0  0  0  0  0
  184.1280  178.9990  141.4050 C   0  0  0  0  0  0  0  0  0  0  0  0
  186.6660  177.3640  143.3070 S   0  0  0  0  0  0  0  0  0  0  0  0
  184.9070  179.4050  143.4590 N   0  0  2  0  0  0  0  0  0  0  0  0
  182.7020  179.0710  143.4630 N   0  0  0  0  0  0  0  0  0  0  0  0
  191.9380  177.1190  145.6640 O   0  0  0  0  0  0  0  0  0  0  0  0
  189.8880  176.7440  146.7410 N   0  0  0  0  0  2  0  0  0  0  0  0
  189.0350  177.3370  145.7550 C   0  0  0  0  0  0  0  0  0  0  0  0
  189.5240  177.8450  144.7110 O   0  0  0  0  0  0  0  0  0  0  0  0
  192.0720  176.0050  147.7550 C   0  0  0  0  0  1  0  0  0  0  0  0
  191.3140  176.6560  146.6560 C   0  0  0  0  0  0  0  0  0  0  0  0
  187.6230  177.3630  145.9910 N   0  0  0  0  0  2  0  0  0  0  0  0
  1 22  1  0  0  0  0
  2  1  2  0  0  0  0
  3 10  1  0  0  0  0
  4  3  1  6  0  0  0
  5  9  1  0  0  0  0
  5  4  1  0  0  0  0
  5  2  1  1  0  0  0
  6 10  1  0  0  0  0
  7  8  2  0  0  0  0
  8 14  1  0  0  0  0
  8 12  1  0  0  0  0
  9  4  1  0  0  0  0
 11  6  1  0  0  0  0
 12  3  2  0  0  0  0
 13 11  1  0  0  0  0
 13 12  1  0  0  0  0
 14  9  1  0  0  0  0
 15 14  1  0  0  0  0
 15 16  1  0  0  0  0
 16 17  1  0  0  0  0
 17 19  1  0  0  0  0
 19 18  2  0  0  0  0
 20 17  1  0  0  0  0
 20 21  1  0  0  0  0
 22 23  1  0  0  0  0
 22 31  1  0  0  0  0
 24 32  1  0  0  0  0
 24 33  1  0  0  0  0
 25 26  1  0  0  0  0
 25 27  1  0  0  0  0
 28 31  2  0  0  0  0
 28 24  1  0  0  0  0
 29 33  1  0  0  0  0
 29 34  1  0  0  0  0
 30 27  1  0  0  0  0
 30 41  1  0  0  0  0
 31 29  1  0  0  0  0
 32 30  1  0  0  0  0
 33 25  1  0  0  0  0
 34 26  2  0  0  0  0
 35 40  2  0  0  0  0
 37 41  1  0  0  0  0
 37 36  1  0  0  0  0
 38 37  2  0  0  0  0
 40 36  1  0  0  0  0
 40 39  1  0  0  0  0
M  END
>  <MODEL>
7

>  <REMARK>
 VINA RESULT:      -8.3      5.032     10.149
  Name = 
  9 active torsions:
  status: ('A' for Active; 'I' for Inactive)
    1  A    between atoms: C_4  and  C_6
    2  A    between atoms: C_6  and  C_31
    3  A    between atoms: C_7  and  C_13
    4  A    between atoms: C_10  and  C_26
    5  A    between atoms: C_11  and  C_25
    6  A    between atoms: C_11  and  C_38
    7  A    between atoms: C_25  and  C_26
    8  A    between atoms: C_26  and  C_40
    9  A    between atoms: C_27  and  N_41
                            x       y       z     vdW  Elec       q    Type
                         _______ _______ _______ _____ _____    ______ ____

>  <TORSDO>
F 9

$$$$
=
 OpenBabel10222420353D

 41 46  0  0  1  0  0  0  0  0999 V2000
  186.1100  177.4860  137.4840 C   0  0  0  0  0  3  0  0  0  0  0  0
  185.8570  178.2620  138.5350 C   0  0  0  0  0  3  0  0  0  0  0  0
  182.3940  179.3510  139.3410 C   0  0  0  0  0  0  0  0  0  0  0  0
  183.8960  179.4840  139.3440 C   0  0  2  0  0  3  0  0  0  0  0  0
  184.5650  178.1280  139.2630 C   0  0  2  0  0  3  0  0  0  0  0  0
  180.2590  180.0530  138.1850 C   0  0  0  0  0  2  0  0  0  0  0  0
  181.7660  178.6620  142.7850 O   0  0  0  0  0  0  0  0  0  0  0  0
  182.3910  178.6740  141.6880 C   0  0  0  0  0  0  0  0  0  0  0  0
  184.6390  178.9130  140.5590 C   0  0  2  0  0  3  0  0  0  0  0  0
  181.7120  179.6220  138.0250 C   0  0  0  0  0  2  0  0  0  0  0  0
  179.5520  179.0680  139.0970 C   0  0  0  0  0  2  0  0  0  0  0  0
  181.6890  179.0370  140.4510 C   0  0  0  0  0  0  0  0  0  0  0  0
  180.1810  179.1350  140.4840 C   0  0  0  0  0  2  0  0  0  0  0  0
  183.8060  178.1780  141.6140 C   0  0  1  0  0  3  0  0  0  0  0  0
  184.5040  178.2640  142.9660 C   0  0  0  0  0  2  0  0  0  0  0  0
  185.9590  178.6630  142.7860 C   0  0  0  0  0  2  0  0  0  0  0  0
  186.8810  177.5260  143.2080 C   0  0  1  0  0  3  0  0  0  0  0  0
  188.3570  177.4890  141.3520 O   0  0  0  0  0  0  0  0  0  0  0  0
  188.2160  177.6850  142.5500 C   0  0  0  0  0  3  0  0  0  0  0  0
  187.0520  177.4880  144.7220 C   0  0  0  0  0  2  0  0  0  0  0  0
  188.4970  177.2240  145.0970 C   0  0  0  0  0  1  0  0  0  0  0  0
  187.4000  177.6020  136.7350 C   0  0  1  0  0  3  0  0  0  0  0  0
  187.9170  179.0300  136.7740 C   0  0  0  0  0  1  0  0  0  0  0  0
  190.2260  175.8880  138.4210 C   0  0  2  0  0  3  0  0  0  0  0  0
  190.4000  174.1020  136.6660 C   0  0  1  0  0  3  0  0  0  0  0  0
  189.7050  174.0560  135.4660 C   0  0  0  0  0  3  0  0  0  0  0  0
  191.8220  173.8350  136.8570 C   0  0  0  0  0  2  0  0  0  0  0  0
  189.3020  177.0130  138.2020 N   0  0  0  0  0  0  0  0  0  0  0  0
  188.6830  175.3260  136.8480 C   0  0  2  0  0  3  0  0  0  0  0  0
  192.5600  174.7020  137.5590 C   0  0  2  0  0  3  0  0  0  0  0  0
  188.4190  176.6710  137.3060 C   0  0  0  0  0  0  0  0  0  0  0  0
  191.9220  176.3770  137.9170 S   0  0  0  0  0  0  0  0  0  0  0  0
  189.7200  174.8680  137.5190 N   0  0  2  0  0  0  0  0  0  0  0  0
  188.6190  174.8670  135.5800 N   0  0  0  0  0  0  0  0  0  0  0  0
  197.7400  175.7930  136.4610 O   0  0  0  0  0  0  0  0  0  0  0  0
  196.3660  174.3230  137.6670 N   0  0  0  0  0  2  0  0  0  0  0  0
  195.1040  174.9090  137.3280 C   0  0  0  0  0  0  0  0  0  0  0  0
  195.0510  175.9230  136.5820 O   0  0  0  0  0  0  0  0  0  0  0  0
  198.8720  174.0770  137.6450 C   0  0  0  0  0  1  0  0  0  0  0  0
  197.6420  174.7890  137.2170 C   0  0  0  0  0  0  0  0  0  0  0  0
  193.9090  174.3350  137.8720 N   0  0  0  0  0  2  0  0  0  0  0  0
  1  2  2  0  0  0  0
  3 12  2  0  0  0  0
  4  3  1  1  0  0  0
  4  9  1  0  0  0  0
  5  2  1  6  0  0  0
  5  4  1  0  0  0  0
  5  9  1  0  0  0  0
  6 11  1  0  0  0  0
  8  7  2  0  0  0  0
  9 14  1  0  0  0  0
 10  6  1  0  0  0  0
 10  3  1  0  0  0  0
 11 13  1  0  0  0  0
 12 13  1  0  0  0  0
 12  8  1  0  0  0  0
 14  8  1  0  0  0  0
 14 15  1  0  0  0  0
 16 15  1  0  0  0  0
 16 17  1  0  0  0  0
 17 20  1  0  0  0  0
 18 19  2  0  0  0  0
 19 17  1  0  0  0  0
 20 21  1  0  0  0  0
 22 23  1  0  0  0  0
 22 31  1  0  0  0  0
 22  1  1  0  0  0  0
 25 27  1  0  0  0  0
 25 33  1  0  0  0  0
 26 34  2  0  0  0  0
 26 25  1  0  0  0  0
 27 30  1  0  0  0  0
 28 24  1  0  0  0  0
 29 31  1  0  0  0  0
 29 33  1  0  0  0  0
 30 41  1  0  0  0  0
 30 32  1  0  0  0  0
 31 28  2  0  0  0  0
 32 24  1  0  0  0  0
 33 24  1  0  0  0  0
 34 29  1  0  0  0  0
 35 40  2  0  0  0  0
 37 36  1  0  0  0  0
 37 41  1  0  0  0  0
 38 37  2  0  0  0  0
 40 39  1  0  0  0  0
 40 36  1  0  0  0  0
M  END
>  <MODEL>
8

>  <REMARK>
 VINA RESULT:      -8.3      2.616      5.915
  Name = 
  9 active torsions:
  status: ('A' for Active; 'I' for Inactive)
    1  A    between atoms: C_4  and  C_6
    2  A    between atoms: C_6  and  C_31
    3  A    between atoms: C_7  and  C_13
    4  A    between atoms: C_10  and  C_26
    5  A    between atoms: C_11  and  C_25
    6  A    between atoms: C_11  and  C_38
    7  A    between atoms: C_25  and  C_26
    8  A    between atoms: C_26  and  C_40
    9  A    between atoms: C_27  and  N_41
                            x       y       z     vdW  Elec       q    Type
                         _______ _______ _______ _____ _____    ______ ____

>  <TORSDO>
F 9

$$$$
=
 OpenBabel10222420353D

 41 46  0  0  1  0  0  0  0  0999 V2000
  185.4780  178.1670  143.7350 C   0  0  0  0  0  3  0  0  0  0  0  0
  185.9150  177.5630  144.8380 C   0  0  0  0  0  3  0  0  0  0  0  0
  189.4780  177.3940  145.8910 C   0  0  0  0  0  0  0  0  0  0  0  0
  188.3090  177.9800  145.1390 C   0  0  2  0  0  3  0  0  0  0  0  0
  187.2610  176.9260  144.8510 C   0  0  2  0  0  3  0  0  0  0  0  0
  190.8990  177.5820  147.9720 C   0  0  0  0  0  2  0  0  0  0  0  0
  191.3840  176.0110  143.2110 O   0  0  0  0  0  0  0  0  0  0  0  0
  190.3610  176.3870  143.8480 C   0  0  0  0  0  0  0  0  0  0  0  0
  188.0870  177.4800  143.7060 C   0  0  2  0  0  3  0  0  0  0  0  0
  189.4980  177.6480  147.3760 C   0  0  0  0  0  2  0  0  0  0  0  0
  191.5660  176.2960  147.5190 C   0  0  0  0  0  2  0  0  0  0  0  0
  190.4670  176.7080  145.2770 C   0  0  0  0  0  0  0  0  0  0  0  0
  191.7370  176.3320  146.0050 C   0  0  0  0  0  2  0  0  0  0  0  0
  189.0090  176.3670  143.1970 C   0  0  1  0  0  3  0  0  0  0  0  0
  189.1150  176.4490  141.6780 C   0  0  0  0  0  2  0  0  0  0  0  0
  189.1210  177.8990  141.2240 C   0  0  0  0  0  2  0  0  0  0  0  0
  189.7760  178.0280  139.8550 C   0  0  1  0  0  3  0  0  0  0  0  0
  191.4150  176.8220  138.6370 O   0  0  0  0  0  0  0  0  0  0  0  0
  190.8500  176.9970  139.7070 C   0  0  0  0  0  3  0  0  0  0  0  0
  188.7510  177.8720  138.7380 C   0  0  0  0  0  2  0  0  0  0  0  0
  189.0570  178.8150  137.5890 C   0  0  0  0  0  1  0  0  0  0  0  0
  184.1290  178.8130  143.6960 C   0  0  1  0  0  3  0  0  0  0  0  0
  184.2110  180.2560  144.1660 C   0  0  0  0  0  1  0  0  0  0  0  0
  182.2130  178.2580  140.5680 C   0  0  2  0  0  3  0  0  0  0  0  0
  184.2630  178.2750  139.1190 C   0  0  1  0  0  3  0  0  0  0  0  0
  185.5790  178.3110  139.5560 C   0  0  0  0  0  3  0  0  0  0  0  0
  183.7180  177.4180  138.0710 C   0  0  0  0  0  2  0  0  0  0  0  0
  182.3760  178.2980  142.0310 N   0  0  0  0  0  0  0  0  0  0  0  0
  184.2850  179.0330  141.0950 C   0  0  2  0  0  3  0  0  0  0  0  0
  182.5990  176.7270  138.3090 C   0  0  2  0  0  3  0  0  0  0  0  0
  183.5630  178.7540  142.3160 C   0  0  0  0  0  0  0  0  0  0  0  0
  181.9890  176.5210  140.0200 S   0  0  0  0  0  0  0  0  0  0  0  0
  183.4850  178.7670  140.0840 N   0  0  2  0  0  0  0  0  0  0  0  0
  185.5840  178.7720  140.8360 N   0  0  0  0  0  0  0  0  0  0  0  0
  179.5610  172.4470  137.0140 O   0  0  0  0  0  0  0  0  0  0  0  0
  180.7890  174.2080  136.0690 N   0  0  0  0  0  2  0  0  0  0  0  0
  181.2000  174.8380  137.2870 C   0  0  0  0  0  0  0  0  0  0  0  0
  180.8470  174.3660  138.4010 O   0  0  0  0  0  0  0  0  0  0  0  0
  179.6370  172.4820  134.6420 C   0  0  0  0  0  1  0  0  0  0  0  0
  179.9820  173.0290  135.9790 C   0  0  0  0  0  0  0  0  0  0  0  0
  181.9970  176.0260  137.2140 N   0  0  0  0  0  2  0  0  0  0  0  0
  1  2  2  0  0  0  0
  3 10  1  0  0  0  0
  4  3  1  1  0  0  0
  5  2  1  6  0  0  0
  5  4  1  0  0  0  0
  7  8  2  0  0  0  0
  8 12  1  0  0  0  0
  9  5  1  0  0  0  0
  9  4  1  0  0  0  0
 10  6  1  0  0  0  0
 11  6  1  0  0  0  0
 12  3  2  0  0  0  0
 12 13  1  0  0  0  0
 13 11  1  0  0  0  0
 14  9  1  0  0  0  0
 14  8  1  0  0  0  0
 15 14  1  0  0  0  0
 16 15  1  0  0  0  0
 17 16  1  0  0  0  0
 18 19  2  0  0  0  0
 19 17  1  0  0  0  0
 20 17  1  0  0  0  0
 21 20  1  0  0  0  0
 22  1  1  0  0  0  0
 22 23  1  0  0  0  0
 24 28  1  0  0  0  0
 25 26  1  0  0  0  0
 25 33  1  0  0  0  0
 26 34  2  0  0  0  0
 27 30  1  0  0  0  0
 27 25  1  0  0  0  0
 28 31  2  0  0  0  0
 29 31  1  0  0  0  0
 30 32  1  0  0  0  0
 31 22  1  0  0  0  0
 32 24  1  0  0  0  0
 33 24  1  0  0  0  0
 33 29  1  0  0  0  0
 34 29  1  0  0  0  0
 36 37  1  0  0  0  0
 37 38  2  0  0  0  0
 39 40  1  0  0  0  0
 40 36  1  0  0  0  0
 40 35  2  0  0  0  0
 41 37  1  0  0  0  0
 41 30  1  0  0  0  0
M  END
>  <MODEL>
9

>  <REMARK>
 VINA RESULT:      -8.0      4.951      9.007
  Name = 
  9 active torsions:
  status: ('A' for Active; 'I' for Inactive)
    1  A    between atoms: C_4  and  C_6
    2  A    between atoms: C_6  and  C_31
    3  A    between atoms: C_7  and  C_13
    4  A    between atoms: C_10  and  C_26
    5  A    between atoms: C_11  and  C_25
    6  A    between atoms: C_11  and  C_38
    7  A    between atoms: C_25  and  C_26
    8  A    between atoms: C_26  and  C_40
    9  A    between atoms: C_27  and  N_41
                            x       y       z     vdW  Elec       q    Type
                         _______ _______ _______ _____ _____    ______ ____

>  <TORSDO>
F 9

$$$$
