=
 OpenBabel10222418103D

 25 26  0  0  1  0  0  0  0  0999 V2000
  187.8990  177.5350  144.5700 C   0  0  0  0  0  3  0  0  0  0  0  0
  187.4920  177.8430  147.3230 C   0  0  0  0  0  3  0  0  0  0  0  0
  188.9450  177.2820  145.4630 C   0  0  0  0  0  0  0  0  0  0  0  0
  185.7720  178.0660  142.6700 C   0  0  0  0  0  1  0  0  0  0  0  0
  184.1620  178.7880  146.0450 C   0  0  0  0  0  3  0  0  0  0  0  0
  184.3360  178.6420  144.6650 C   0  0  0  0  0  0  0  0  0  0  0  0
  186.4480  178.1070  146.4340 C   0  0  0  0  0  0  0  0  0  0  0  0
  185.5810  178.2220  144.1500 C   0  0  0  0  0  0  0  0  0  0  0  0
  185.2100  178.5210  146.9240 C   0  0  0  0  0  3  0  0  0  0  0  0
  186.6430  177.9520  145.0390 C   0  0  0  0  0  0  0  0  0  0  0  0
  188.7360  177.4300  146.8400 C   0  0  0  0  0  3  0  0  0  0  0  0
  182.3250  179.1620  143.1040 N   0  0  0  0  0  0  0  0  0  0  0  0
  183.2210  178.9310  143.8000 C   0  0  0  0  0  0  0  0  0  0  0  0
  190.2700  176.8430  144.9290 C   0  0  2  0  0  3  0  0  0  0  0  0
  191.3250  177.2270  145.8550 N   0  0  0  0  0  2  0  0  0  0  0  0
  192.0480  176.0200  146.2160 C   0  0  0  0  0  2  0  0  0  0  0  0
  192.1350  175.9050  147.7250 C   0  0  0  0  0  1  0  0  0  0  0  0
  190.5200  177.4200  143.6490 O   0  0  0  0  0  0  0  0  0  0  0  0
  190.4130  175.4610  142.4660 O   0  0  0  0  0  0  0  0  0  0  0  0
  190.3570  176.7190  142.4500 C   0  0  0  0  0  0  0  0  0  0  0  0
  188.7950  177.2480  140.7380 O   0  0  0  0  0  1  0  0  0  0  0  0
  190.1140  177.4350  141.1540 C   0  0  2  0  0  3  0  0  0  0  0  0
  192.2470  177.3980  140.0880 O   0  0  0  0  0  0  0  0  0  0  0  0
  191.0630  176.9740  140.0940 C   0  0  0  0  0  0  0  0  0  0  0  0
  190.6380  176.0520  139.0940 N   0  0  0  0  0  1  0  0  0  0  0  0
  1 10  2  0  0  0  0
  1  3  1  0  0  0  0
  3 11  2  0  0  0  0
  4  8  1  0  0  0  0
  5  9  2  0  0  0  0
  6  5  1  0  0  0  0
  7  9  1  0  0  0  0
  7  2  2  0  0  0  0
  8  6  2  0  0  0  0
  8 10  1  0  0  0  0
 10  7  1  0  0  0  0
 11  2  1  0  0  0  0
 12 13  3  0  0  0  0
 13  6  1  0  0  0  0
 14 18  1  6  0  0  0
 14  3  1  0  0  0  0
 14 15  1  0  0  0  0
 15 16  1  0  0  0  0
 16 17  1  0  0  0  0
 20 19  2  0  0  0  0
 20 18  1  0  0  0  0
 22 21  1  6  0  0  0
 22 20  1  0  0  0  0
 23 24  2  0  0  0  0
 24 22  1  0  0  0  0
 25 24  1  0  0  0  0
M  END
>  <MODEL>
1

>  <REMARK>
 VINA RESULT:      -8.9      0.000      0.000
  Name = 
  8 active torsions:
  status: ('A' for Active; 'I' for Inactive)
    1  A    between atoms: C_3  and  C_5
    2  A    between atoms: N_4  and  C_5
    3  A    between atoms: N_4  and  C_15
    4  A    between atoms: C_5  and  O_10
    5  A    between atoms: O_10  and  C_19
    6  A    between atoms: C_11  and  C_12
    7  A    between atoms: C_11  and  C_19
    8  A    between atoms: C_16  and  C_22
                            x       y       z     vdW  Elec       q    Type
                         _______ _______ _______ _____ _____    ______ ____

>  <TORSDO>
F 8

$$$$
=
 OpenBabel10222418103D

 25 26  0  0  1  0  0  0  0  0999 V2000
  186.4690  178.1960  144.5630 C   0  0  0  0  0  3  0  0  0  0  0  0
  185.5250  178.5040  147.1810 C   0  0  0  0  0  3  0  0  0  0  0  0
  185.1440  178.5810  144.7870 C   0  0  0  0  0  0  0  0  0  0  0  0
  189.2030  177.3790  144.0410 C   0  0  0  0  0  1  0  0  0  0  0  0
  189.0070  177.4770  147.8430 C   0  0  0  0  0  3  0  0  0  0  0  0
  189.5050  177.3150  146.5470 C   0  0  0  0  0  0  0  0  0  0  0  0
  186.8470  178.1100  146.9630 C   0  0  0  0  0  0  0  0  0  0  0  0
  188.6720  177.5530  145.4330 C   0  0  0  0  0  0  0  0  0  0  0  0
  187.6860  177.8720  148.0500 C   0  0  0  0  0  3  0  0  0  0  0  0
  187.3340  177.9530  145.6420 C   0  0  0  0  0  0  0  0  0  0  0  0
  184.6760  178.7410  146.0980 C   0  0  0  0  0  3  0  0  0  0  0  0
  191.9800  176.5760  146.2590 N   0  0  0  0  0  0  0  0  0  0  0  0
  190.8780  176.9050  146.3870 C   0  0  0  0  0  0  0  0  0  0  0  0
  184.2480  178.8280  143.6160 C   0  0  2  0  0  3  0  0  0  0  0  0
  182.9070  178.3470  143.9120 N   0  0  0  0  0  2  0  0  0  0  0  0
  181.9690  179.2340  143.2440 C   0  0  0  0  0  2  0  0  0  0  0  0
  180.5510  178.7540  143.4810 C   0  0  0  0  0  1  0  0  0  0  0  0
  184.7460  178.1790  142.4480 O   0  0  0  0  0  0  0  0  0  0  0  0
  186.0880  179.7910  141.5270 O   0  0  0  0  0  0  0  0  0  0  0  0
  185.2470  178.8720  141.3420 C   0  0  0  0  0  0  0  0  0  0  0  0
  185.9010  178.5380  139.0810 O   0  0  0  0  0  1  0  0  0  0  0  0
  184.8070  178.5390  139.9460 C   0  0  2  0  0  3  0  0  0  0  0  0
  184.1120  180.5540  138.8780 O   0  0  0  0  0  0  0  0  0  0  0  0
  183.7650  179.4970  139.4650 C   0  0  0  0  0  0  0  0  0  0  0  0
  182.3810  179.2180  139.6580 N   0  0  0  0  0  1  0  0  0  0  0  0
  1  3  2  0  0  0  0
  1 10  1  0  0  0  0
  3 11  1  0  0  0  0
  4  8  1  0  0  0  0
  5  9  1  0  0  0  0
  6  5  2  0  0  0  0
  7  2  1  0  0  0  0
  7  9  2  0  0  0  0
  8 10  2  0  0  0  0
  8  6  1  0  0  0  0
 10  7  1  0  0  0  0
 11  2  2  0  0  0  0
 12 13  3  0  0  0  0
 13  6  1  0  0  0  0
 14 18  1  6  0  0  0
 14 15  1  0  0  0  0
 14  3  1  0  0  0  0
 16 17  1  0  0  0  0
 16 15  1  0  0  0  0
 20 19  2  0  0  0  0
 20 18  1  0  0  0  0
 22 21  1  6  0  0  0
 22 20  1  0  0  0  0
 23 24  2  0  0  0  0
 24 25  1  0  0  0  0
 24 22  1  0  0  0  0
M  END
>  <MODEL>
2

>  <REMARK>
 VINA RESULT:      -8.6      3.034      6.576
  Name = 
  8 active torsions:
  status: ('A' for Active; 'I' for Inactive)
    1  A    between atoms: C_3  and  C_5
    2  A    between atoms: N_4  and  C_5
    3  A    between atoms: N_4  and  C_15
    4  A    between atoms: C_5  and  O_10
    5  A    between atoms: O_10  and  C_19
    6  A    between atoms: C_11  and  C_12
    7  A    between atoms: C_11  and  C_19
    8  A    between atoms: C_16  and  C_22
                            x       y       z     vdW  Elec       q    Type
                         _______ _______ _______ _____ _____    ______ ____

>  <TORSDO>
F 8

$$$$
=
 OpenBabel10222418103D

 25 26  0  0  1  0  0  0  0  0999 V2000
  186.6220  177.9880  144.1420 C   0  0  0  0  0  3  0  0  0  0  0  0
  185.2680  178.5720  146.5220 C   0  0  0  0  0  3  0  0  0  0  0  0
  185.2840  178.3920  144.1040 C   0  0  0  0  0  0  0  0  0  0  0  0
  189.3920  177.1260  144.1640 C   0  0  0  0  0  1  0  0  0  0  0  0
  188.5800  177.6300  147.8510 C   0  0  0  0  0  3  0  0  0  0  0  0
  189.2800  177.3310  146.6780 C   0  0  0  0  0  0  0  0  0  0  0  0
  186.6020  178.1600  146.5670 C   0  0  0  0  0  0  0  0  0  0  0  0
  188.6440  177.4470  145.4240 C   0  0  0  0  0  0  0  0  0  0  0  0
  187.2480  178.0420  147.7960 C   0  0  0  0  0  3  0  0  0  0  0  0
  187.2960  177.8630  145.3680 C   0  0  0  0  0  0  0  0  0  0  0  0
  184.6110  178.6900  145.2960 C   0  0  0  0  0  3  0  0  0  0  0  0
  191.7560  176.5690  146.8800 N   0  0  0  0  0  0  0  0  0  0  0  0
  190.6540  176.9090  146.7900 C   0  0  0  0  0  0  0  0  0  0  0  0
  184.5950  178.5110  142.7820 C   0  0  2  0  0  3  0  0  0  0  0  0
  185.2870  179.4850  141.9530 N   0  0  0  0  0  2  0  0  0  0  0  0
  185.7490  178.7940  140.7610 C   0  0  0  0  0  2  0  0  0  0  0  0
  187.2470  178.5790  140.8390 C   0  0  0  0  0  1  0  0  0  0  0  0
  183.2340  178.9010  142.9510 O   0  0  0  0  0  0  0  0  0  0  0  0
  182.5330  177.9640  140.9810 O   0  0  0  0  0  0  0  0  0  0  0  0
  182.2410  178.6430  142.0010 C   0  0  0  0  0  0  0  0  0  0  0  0
  180.8250  180.2230  143.0740 O   0  0  0  0  0  1  0  0  0  0  0  0
  180.8400  179.1530  142.1780 C   0  0  2  0  0  3  0  0  0  0  0  0
  179.7290  177.9080  143.8810 O   0  0  0  0  0  0  0  0  0  0  0  0
  179.9250  178.0690  142.6490 C   0  0  0  0  0  0  0  0  0  0  0  0
  179.2660  177.2200  141.7130 N   0  0  0  0  0  1  0  0  0  0  0  0
  1 10  1  0  0  0  0
  2  7  1  0  0  0  0
  3  1  2  0  0  0  0
  3 11  1  0  0  0  0
  4  8  1  0  0  0  0
  6 13  1  0  0  0  0
  6  5  2  0  0  0  0
  7  9  2  0  0  0  0
  8  6  1  0  0  0  0
  9  5  1  0  0  0  0
 10  8  2  0  0  0  0
 10  7  1  0  0  0  0
 11  2  2  0  0  0  0
 13 12  3  0  0  0  0
 14 15  1  6  0  0  0
 14 18  1  0  0  0  0
 14  3  1  0  0  0  0
 16 17  1  0  0  0  0
 16 15  1  0  0  0  0
 19 20  2  0  0  0  0
 20 22  1  0  0  0  0
 20 18  1  0  0  0  0
 22 24  1  0  0  0  0
 22 21  1  1  0  0  0
 24 23  2  0  0  0  0
 25 24  1  0  0  0  0
M  END
>  <MODEL>
3

>  <REMARK>
 VINA RESULT:      -8.5      3.788      7.398
  Name = 
  8 active torsions:
  status: ('A' for Active; 'I' for Inactive)
    1  A    between atoms: C_3  and  C_5
    2  A    between atoms: N_4  and  C_5
    3  A    between atoms: N_4  and  C_15
    4  A    between atoms: C_5  and  O_10
    5  A    between atoms: O_10  and  C_19
    6  A    between atoms: C_11  and  C_12
    7  A    between atoms: C_11  and  C_19
    8  A    between atoms: C_16  and  C_22
                            x       y       z     vdW  Elec       q    Type
                         _______ _______ _______ _____ _____    ______ ____

>  <TORSDO>
F 8

$$$$
=
 OpenBabel10222418103D

 25 26  0  0  1  0  0  0  0  0999 V2000
  188.3030  177.7240  143.6830 C   0  0  0  0  0  3  0  0  0  0  0  0
  186.1860  177.9690  145.4980 C   0  0  0  0  0  3  0  0  0  0  0  0
  187.0220  178.0420  143.2220 C   0  0  0  0  0  0  0  0  0  0  0  0
  190.9780  177.0470  144.5800 C   0  0  0  0  0  1  0  0  0  0  0  0
  188.9420  177.1110  147.7970 C   0  0  0  0  0  3  0  0  0  0  0  0
  190.0180  176.9820  146.9140 C   0  0  0  0  0  0  0  0  0  0  0  0
  187.4620  177.6420  145.9610 C   0  0  0  0  0  0  0  0  0  0  0  0
  189.8260  177.1860  145.5300 C   0  0  0  0  0  0  0  0  0  0  0  0
  187.6710  177.4390  147.3250 C   0  0  0  0  0  3  0  0  0  0  0  0
  188.5400  177.5170  145.0510 C   0  0  0  0  0  0  0  0  0  0  0  0
  185.9660  178.1710  144.1340 C   0  0  0  0  0  3  0  0  0  0  0  0
  192.3480  176.3670  147.8860 N   0  0  0  0  0  0  0  0  0  0  0  0
  191.3100  176.6410  147.4540 C   0  0  0  0  0  0  0  0  0  0  0  0
  186.8040  178.2520  141.7580 C   0  0  2  0  0  3  0  0  0  0  0  0
  188.0540  178.6430  141.1260 N   0  0  0  0  0  2  0  0  0  0  0  0
  188.1480  177.9240  139.8660 C   0  0  0  0  0  2  0  0  0  0  0  0
  189.1570  178.6040  138.9610 C   0  0  0  0  0  1  0  0  0  0  0  0
  185.8150  179.2540  141.5300 O   0  0  0  0  0  0  0  0  0  0  0  0
  184.6560  179.7960  139.6300 O   0  0  0  0  0  0  0  0  0  0  0  0
  184.7330  179.0780  140.6620 C   0  0  0  0  0  0  0  0  0  0  0  0
  183.2530  177.4620  139.7410 O   0  0  0  0  0  1  0  0  0  0  0  0
  183.6730  178.0520  140.9340 C   0  0  2  0  0  3  0  0  0  0  0  0
  181.4440  178.8950  141.0270 O   0  0  0  0  0  0  0  0  0  0  0  0
  182.5090  178.6540  141.6530 C   0  0  0  0  0  0  0  0  0  0  0  0
  182.5920  178.9510  143.0440 N   0  0  0  0  0  1  0  0  0  0  0  0
  1 10  1  0  0  0  0
  2  7  1  0  0  0  0
  3  1  2  0  0  0  0
  3 11  1  0  0  0  0
  4  8  1  0  0  0  0
  6 13  1  0  0  0  0
  6  5  2  0  0  0  0
  7  9  2  0  0  0  0
  8  6  1  0  0  0  0
  9  5  1  0  0  0  0
 10  8  2  0  0  0  0
 10  7  1  0  0  0  0
 11  2  2  0  0  0  0
 13 12  3  0  0  0  0
 14 15  1  6  0  0  0
 14  3  1  0  0  0  0
 16 15  1  0  0  0  0
 17 16  1  0  0  0  0
 18 14  1  0  0  0  0
 19 20  2  0  0  0  0
 20 22  1  0  0  0  0
 20 18  1  0  0  0  0
 22 21  1  6  0  0  0
 22 24  1  0  0  0  0
 23 24  2  0  0  0  0
 24 25  1  0  0  0  0
M  END
>  <MODEL>
4

>  <REMARK>
 VINA RESULT:      -8.5      2.797      6.580
  Name = 
  8 active torsions:
  status: ('A' for Active; 'I' for Inactive)
    1  A    between atoms: C_3  and  C_5
    2  A    between atoms: N_4  and  C_5
    3  A    between atoms: N_4  and  C_15
    4  A    between atoms: C_5  and  O_10
    5  A    between atoms: O_10  and  C_19
    6  A    between atoms: C_11  and  C_12
    7  A    between atoms: C_11  and  C_19
    8  A    between atoms: C_16  and  C_22
                            x       y       z     vdW  Elec       q    Type
                         _______ _______ _______ _____ _____    ______ ____

>  <TORSDO>
F 8

$$$$
=
 OpenBabel10222418103D

 25 26  0  0  1  0  0  0  0  0999 V2000
  186.8780  178.0720  144.5540 C   0  0  0  0  0  3  0  0  0  0  0  0
  185.6520  178.6430  147.0050 C   0  0  0  0  0  3  0  0  0  0  0  0
  185.5580  178.5310  144.5840 C   0  0  0  0  0  0  0  0  0  0  0  0
  189.6080  177.0980  144.4330 C   0  0  0  0  0  1  0  0  0  0  0  0
  188.9740  177.5290  148.1630 C   0  0  0  0  0  3  0  0  0  0  0  0
  189.6110  177.2360  146.9540 C   0  0  0  0  0  0  0  0  0  0  0  0
  186.9680  178.1760  146.9810 C   0  0  0  0  0  0  0  0  0  0  0  0
  188.9280  177.4130  145.7320 C   0  0  0  0  0  0  0  0  0  0  0  0
  187.6600  177.9970  148.1770 C   0  0  0  0  0  3  0  0  0  0  0  0
  187.5970  177.8860  145.7460 C   0  0  0  0  0  0  0  0  0  0  0  0
  184.9490  178.8220  145.8120 C   0  0  0  0  0  3  0  0  0  0  0  0
  192.0600  176.3700  147.0270 N   0  0  0  0  0  0  0  0  0  0  0  0
  190.9690  176.7550  146.9950 C   0  0  0  0  0  0  0  0  0  0  0  0
  184.8190  178.7150  143.2970 C   0  0  2  0  0  3  0  0  0  0  0  0
  183.4490  178.2520  143.4460 N   0  0  0  0  0  2  0  0  0  0  0  0
  182.5860  179.2250  142.7980 C   0  0  0  0  0  2  0  0  0  0  0  0
  182.0320  178.6440  141.5120 C   0  0  0  0  0  1  0  0  0  0  0  0
  185.4570  178.0030  142.2390 O   0  0  0  0  0  0  0  0  0  0  0  0
  185.5710  179.5840  140.5850 O   0  0  0  0  0  0  0  0  0  0  0  0
  186.1340  178.6350  141.1920 C   0  0  0  0  0  0  0  0  0  0  0  0
  188.4730  178.9870  141.4330 O   0  0  0  0  0  1  0  0  0  0  0  0
  187.5140  178.2080  140.7840 C   0  0  2  0  0  3  0  0  0  0  0  0
  186.8360  177.7760  138.5390 O   0  0  0  0  0  0  0  0  0  0  0  0
  187.6920  178.2940  139.3020 C   0  0  0  0  0  0  0  0  0  0  0  0
  188.8200  178.9640  138.7470 N   0  0  0  0  0  1  0  0  0  0  0  0
  1  3  2  0  0  0  0
  1 10  1  0  0  0  0
  3 11  1  0  0  0  0
  4  8  1  0  0  0  0
  5  9  1  0  0  0  0
  6 13  1  0  0  0  0
  6  5  2  0  0  0  0
  7  2  1  0  0  0  0
  7  9  2  0  0  0  0
  8 10  2  0  0  0  0
  8  6  1  0  0  0  0
 10  7  1  0  0  0  0
 11  2  2  0  0  0  0
 13 12  3  0  0  0  0
 14 18  1  6  0  0  0
 14 15  1  0  0  0  0
 14  3  1  0  0  0  0
 16 15  1  0  0  0  0
 17 16  1  0  0  0  0
 19 20  2  0  0  0  0
 20 18  1  0  0  0  0
 22 20  1  0  0  0  0
 22 21  1  1  0  0  0
 23 24  2  0  0  0  0
 24 22  1  0  0  0  0
 25 24  1  0  0  0  0
M  END
>  <MODEL>
5

>  <REMARK>
 VINA RESULT:      -8.4      2.086      5.881
  Name = 
  8 active torsions:
  status: ('A' for Active; 'I' for Inactive)
    1  A    between atoms: C_3  and  C_5
    2  A    between atoms: N_4  and  C_5
    3  A    between atoms: N_4  and  C_15
    4  A    between atoms: C_5  and  O_10
    5  A    between atoms: O_10  and  C_19
    6  A    between atoms: C_11  and  C_12
    7  A    between atoms: C_11  and  C_19
    8  A    between atoms: C_16  and  C_22
                            x       y       z     vdW  Elec       q    Type
                         _______ _______ _______ _____ _____    ______ ____

>  <TORSDO>
F 8

$$$$
=
 OpenBabel10222418103D

 25 26  0  0  1  0  0  0  0  0999 V2000
  187.1020  177.5930  143.1250 C   0  0  0  0  0  3  0  0  0  0  0  0
  187.3930  177.7720  145.9040 C   0  0  0  0  0  3  0  0  0  0  0  0
  188.3270  177.2780  143.7210 C   0  0  0  0  0  0  0  0  0  0  0  0
  184.5900  178.2540  141.8340 C   0  0  0  0  0  1  0  0  0  0  0  0
  183.8800  178.8370  145.5290 C   0  0  0  0  0  3  0  0  0  0  0  0
  183.7060  178.7570  144.1440 C   0  0  0  0  0  0  0  0  0  0  0  0
  186.1700  178.0970  145.3130 C   0  0  0  0  0  0  0  0  0  0  0  0
  184.7730  178.3400  143.3200 C   0  0  0  0  0  0  0  0  0  0  0  0
  185.1040  178.5090  146.1110 C   0  0  0  0  0  3  0  0  0  0  0  0
  186.0130  178.0080  143.9080 C   0  0  0  0  0  0  0  0  0  0  0  0
  188.4670  177.3610  145.1130 C   0  0  0  0  0  3  0  0  0  0  0  0
  181.3890  179.3890  143.1510 N   0  0  0  0  0  0  0  0  0  0  0  0
  182.4210  179.1070  143.5940 C   0  0  0  0  0  0  0  0  0  0  0  0
  189.4680  176.8420  142.8590 C   0  0  2  0  0  3  0  0  0  0  0  0
  190.6840  176.7670  143.6530 N   0  0  0  0  0  2  0  0  0  0  0  0
  191.5920  177.7880  143.1570 C   0  0  0  0  0  2  0  0  0  0  0  0
  191.6520  178.9420  144.1380 C   0  0  0  0  0  1  0  0  0  0  0  0
  189.6570  177.7450  141.7710 O   0  0  0  0  0  0  0  0  0  0  0  0
  190.3430  176.2840  140.1450 O   0  0  0  0  0  0  0  0  0  0  0  0
  189.7100  177.3330  140.4360 C   0  0  0  0  0  0  0  0  0  0  0  0
  187.7800  178.5630  139.7910 O   0  0  0  0  0  1  0  0  0  0  0  0
  189.0260  178.1130  139.3510 C   0  0  2  0  0  3  0  0  0  0  0  0
  187.9170  176.4830  138.0100 O   0  0  0  0  0  0  0  0  0  0  0  0
  188.8730  177.2940  138.1100 C   0  0  0  0  0  0  0  0  0  0  0  0
  189.7990  177.4290  137.0350 N   0  0  0  0  0  1  0  0  0  0  0  0
  1  3  2  0  0  0  0
  1 10  1  0  0  0  0
  3 11  1  0  0  0  0
  4  8  1  0  0  0  0
  5  9  1  0  0  0  0
  6  5  2  0  0  0  0
  7  2  1  0  0  0  0
  7  9  2  0  0  0  0
  8 10  2  0  0  0  0
  8  6  1  0  0  0  0
 10  7  1  0  0  0  0
 11  2  2  0  0  0  0
 12 13  3  0  0  0  0
 13  6  1  0  0  0  0
 14 18  1  6  0  0  0
 14 15  1  0  0  0  0
 14  3  1  0  0  0  0
 16 15  1  0  0  0  0
 16 17  1  0  0  0  0
 19 20  2  0  0  0  0
 20 18  1  0  0  0  0
 22 21  1  1  0  0  0
 22 20  1  0  0  0  0
 23 24  2  0  0  0  0
 24 22  1  0  0  0  0
 25 24  1  0  0  0  0
M  END
>  <MODEL>
6

>  <REMARK>
 VINA RESULT:      -8.4      1.836      2.280
  Name = 
  8 active torsions:
  status: ('A' for Active; 'I' for Inactive)
    1  A    between atoms: C_3  and  C_5
    2  A    between atoms: N_4  and  C_5
    3  A    between atoms: N_4  and  C_15
    4  A    between atoms: C_5  and  O_10
    5  A    between atoms: O_10  and  C_19
    6  A    between atoms: C_11  and  C_12
    7  A    between atoms: C_11  and  C_19
    8  A    between atoms: C_16  and  C_22
                            x       y       z     vdW  Elec       q    Type
                         _______ _______ _______ _____ _____    ______ ____

>  <TORSDO>
F 8

$$$$
=
 OpenBabel10222418103D

 25 26  0  0  1  0  0  0  0  0999 V2000
  186.8200  177.8820  144.3170 C   0  0  0  0  0  3  0  0  0  0  0  0
  185.4390  178.6120  146.6410 C   0  0  0  0  0  3  0  0  0  0  0  0
  187.4790  177.8820  145.5510 C   0  0  0  0  0  0  0  0  0  0  0  0
  185.5100  177.8840  141.7290 C   0  0  0  0  0  1  0  0  0  0  0  0
  182.7710  179.0130  144.1220 C   0  0  0  0  0  3  0  0  0  0  0  0
  183.4360  178.6540  142.9470 C   0  0  0  0  0  0  0  0  0  0  0  0
  184.7790  178.6230  145.4090 C   0  0  0  0  0  0  0  0  0  0  0  0
  184.7930  178.2690  142.9890 C   0  0  0  0  0  0  0  0  0  0  0  0
  183.4380  178.9980  145.3470 C   0  0  0  0  0  3  0  0  0  0  0  0
  185.4690  178.2540  144.2290 C   0  0  0  0  0  0  0  0  0  0  0  0
  186.7830  178.2410  146.7130 C   0  0  0  0  0  3  0  0  0  0  0  0
  182.1100  178.7140  140.7130 N   0  0  0  0  0  0  0  0  0  0  0  0
  182.7010  178.6870  141.7070 C   0  0  0  0  0  0  0  0  0  0  0  0
  188.9190  177.4840  145.6100 C   0  0  2  0  0  3  0  0  0  0  0  0
  189.4530  177.7640  146.9340 N   0  0  0  0  0  2  0  0  0  0  0  0
  190.0530  176.5360  147.4290 C   0  0  0  0  0  2  0  0  0  0  0  0
  191.5060  176.4670  147.0030 C   0  0  0  0  0  1  0  0  0  0  0  0
  189.6800  178.1820  144.6260 O   0  0  0  0  0  0  0  0  0  0  0  0
  191.6530  177.8330  143.5160 O   0  0  0  0  0  0  0  0  0  0  0  0
  190.4360  177.5360  143.6430 C   0  0  0  0  0  0  0  0  0  0  0  0
  190.5560  175.3100  142.8170 O   0  0  0  0  0  1  0  0  0  0  0  0
  189.8270  176.4970  142.7470 C   0  0  2  0  0  3  0  0  0  0  0  0
  188.9800  177.9260  141.0360 O   0  0  0  0  0  0  0  0  0  0  0  0
  189.7520  176.9790  141.3330 C   0  0  0  0  0  0  0  0  0  0  0  0
  190.5550  176.3780  140.3210 N   0  0  0  0  0  1  0  0  0  0  0  0
  1  3  1  0  0  0  0
  2 11  1  0  0  0  0
  3 14  1  0  0  0  0
  3 11  2  0  0  0  0
  4  8  1  0  0  0  0
  5  9  2  0  0  0  0
  6  8  2  0  0  0  0
  6  5  1  0  0  0  0
  7  2  2  0  0  0  0
  8 10  1  0  0  0  0
  9  7  1  0  0  0  0
 10  1  2  0  0  0  0
 10  7  1  0  0  0  0
 12 13  3  0  0  0  0
 13  6  1  0  0  0  0
 14 18  1  6  0  0  0
 14 15  1  0  0  0  0
 15 16  1  0  0  0  0
 17 16  1  0  0  0  0
 19 20  2  0  0  0  0
 20 18  1  0  0  0  0
 22 21  1  6  0  0  0
 22 20  1  0  0  0  0
 23 24  2  0  0  0  0
 24 22  1  0  0  0  0
 25 24  1  0  0  0  0
M  END
>  <MODEL>
7

>  <REMARK>
 VINA RESULT:      -8.3      1.309      2.073
  Name = 
  8 active torsions:
  status: ('A' for Active; 'I' for Inactive)
    1  A    between atoms: C_3  and  C_5
    2  A    between atoms: N_4  and  C_5
    3  A    between atoms: N_4  and  C_15
    4  A    between atoms: C_5  and  O_10
    5  A    between atoms: O_10  and  C_19
    6  A    between atoms: C_11  and  C_12
    7  A    between atoms: C_11  and  C_19
    8  A    between atoms: C_16  and  C_22
                            x       y       z     vdW  Elec       q    Type
                         _______ _______ _______ _____ _____    ______ ____

>  <TORSDO>
F 8

$$$$
=
 OpenBabel10222418103D

 25 26  0  0  1  0  0  0  0  0999 V2000
  187.0140  177.6700  143.4880 C   0  0  0  0  0  3  0  0  0  0  0  0
  186.9090  177.9270  146.2740 C   0  0  0  0  0  3  0  0  0  0  0  0
  188.1480  177.3930  144.2590 C   0  0  0  0  0  0  0  0  0  0  0  0
  184.6990  178.2520  141.8400 C   0  0  0  0  0  1  0  0  0  0  0  0
  183.4690  178.9180  145.3810 C   0  0  0  0  0  3  0  0  0  0  0  0
  183.4930  178.7990  143.9890 C   0  0  0  0  0  0  0  0  0  0  0  0
  185.7770  178.2150  145.5080 C   0  0  0  0  0  0  0  0  0  0  0  0
  184.6700  178.3800  143.3340 C   0  0  0  0  0  0  0  0  0  0  0  0
  184.6040  178.6280  146.1380 C   0  0  0  0  0  3  0  0  0  0  0  0
  185.8200  178.0860  144.0990 C   0  0  0  0  0  0  0  0  0  0  0  0
  188.0900  177.5160  145.6530 C   0  0  0  0  0  3  0  0  0  0  0  0
  181.3290  179.3630  142.6640 N   0  0  0  0  0  0  0  0  0  0  0  0
  182.2920  179.1120  143.2540 C   0  0  0  0  0  0  0  0  0  0  0  0
  189.4050  176.9560  143.5770 C   0  0  2  0  0  3  0  0  0  0  0  0
  190.3620  178.0510  143.5610 N   0  0  0  0  0  2  0  0  0  0  0  0
  191.6560  177.5040  143.9340 C   0  0  0  0  0  2  0  0  0  0  0  0
  191.5360  176.7470  145.2420 C   0  0  0  0  0  1  0  0  0  0  0  0
  189.1380  176.5300  142.2420 O   0  0  0  0  0  0  0  0  0  0  0  0
  188.9790  178.2290  140.7140 O   0  0  0  0  0  0  0  0  0  0  0  0
  189.6040  177.2110  141.1140 C   0  0  0  0  0  0  0  0  0  0  0  0
  191.8300  177.7270  140.4590 O   0  0  0  0  0  1  0  0  0  0  0  0
  190.8310  176.7560  140.3790 C   0  0  2  0  0  3  0  0  0  0  0  0
  190.5560  175.2550  138.5470 O   0  0  0  0  0  0  0  0  0  0  0  0
  190.5220  176.4460  138.9500 C   0  0  0  0  0  0  0  0  0  0  0  0
  190.1820  177.4890  138.0400 N   0  0  0  0  0  1  0  0  0  0  0  0
  1 10  2  0  0  0  0
  1  3  1  0  0  0  0
  3 11  2  0  0  0  0
  4  8  1  0  0  0  0
  5  9  2  0  0  0  0
  6  5  1  0  0  0  0
  7  9  1  0  0  0  0
  7  2  2  0  0  0  0
  8  6  2  0  0  0  0
  8 10  1  0  0  0  0
 10  7  1  0  0  0  0
 11  2  1  0  0  0  0
 12 13  3  0  0  0  0
 13  6  1  0  0  0  0
 14 18  1  6  0  0  0
 14  3  1  0  0  0  0
 15 14  1  0  0  0  0
 15 16  1  0  0  0  0
 16 17  1  0  0  0  0
 19 20  2  0  0  0  0
 20 18  1  0  0  0  0
 22 21  1  6  0  0  0
 22 20  1  0  0  0  0
 23 24  2  0  0  0  0
 24 22  1  0  0  0  0
 25 24  1  0  0  0  0
M  END
>  <MODEL>
8

>  <REMARK>
 VINA RESULT:      -8.0      1.348      1.894
  Name = 
  8 active torsions:
  status: ('A' for Active; 'I' for Inactive)
    1  A    between atoms: C_3  and  C_5
    2  A    between atoms: N_4  and  C_5
    3  A    between atoms: N_4  and  C_15
    4  A    between atoms: C_5  and  O_10
    5  A    between atoms: O_10  and  C_19
    6  A    between atoms: C_11  and  C_12
    7  A    between atoms: C_11  and  C_19
    8  A    between atoms: C_16  and  C_22
                            x       y       z     vdW  Elec       q    Type
                         _______ _______ _______ _____ _____    ______ ____

>  <TORSDO>
F 8

$$$$
=
 OpenBabel10222418103D

 25 26  0  0  1  0  0  0  0  0999 V2000
  186.8980  177.8640  143.2180 C   0  0  0  0  0  3  0  0  0  0  0  0
  186.7930  178.0840  146.0070 C   0  0  0  0  0  3  0  0  0  0  0  0
  188.0480  177.6350  143.9810 C   0  0  0  0  0  0  0  0  0  0  0  0
  184.5500  178.3450  141.5850 C   0  0  0  0  0  1  0  0  0  0  0  0
  183.3030  178.9110  145.1390 C   0  0  0  0  0  3  0  0  0  0  0  0
  183.3260  178.8070  143.7450 C   0  0  0  0  0  0  0  0  0  0  0  0
  185.6440  178.3230  145.2490 C   0  0  0  0  0  0  0  0  0  0  0  0
  184.5210  178.4550  143.0810 C   0  0  0  0  0  0  0  0  0  0  0  0
  184.4550  178.6700  145.8870 C   0  0  0  0  0  3  0  0  0  0  0  0
  185.6870  178.2120  143.8380 C   0  0  0  0  0  0  0  0  0  0  0  0
  187.9900  177.7400  145.3770 C   0  0  0  0  0  3  0  0  0  0  0  0
  181.1310  179.2750  142.4350 N   0  0  0  0  0  0  0  0  0  0  0  0
  182.1090  179.0670  143.0190 C   0  0  0  0  0  0  0  0  0  0  0  0
  189.3220  177.2690  143.2890 C   0  0  2  0  0  3  0  0  0  0  0  0
  189.0250  176.5310  142.0710 N   0  0  0  0  0  2  0  0  0  0  0  0
  189.8450  177.0930  141.0110 C   0  0  0  0  0  2  0  0  0  0  0  0
  188.9570  177.6200  139.9010 C   0  0  0  0  0  1  0  0  0  0  0  0
  190.1540  176.4830  144.1390 O   0  0  0  0  0  0  0  0  0  0  0  0
  191.5770  178.2080  144.6380 O   0  0  0  0  0  0  0  0  0  0  0  0
  191.2800  176.9940  144.7930 C   0  0  0  0  0  0  0  0  0  0  0  0
  192.0940  174.8050  145.2330 O   0  0  0  0  0  1  0  0  0  0  0  0
  192.1310  176.1280  145.6750 C   0  0  2  0  0  3  0  0  0  0  0  0
  190.4800  176.4050  147.3720 O   0  0  0  0  0  0  0  0  0  0  0  0
  191.6930  176.2120  147.1010 C   0  0  0  0  0  0  0  0  0  0  0  0
  192.6370  176.0670  148.1580 N   0  0  0  0  0  1  0  0  0  0  0  0
  1 10  2  0  0  0  0
  1  3  1  0  0  0  0
  3 11  2  0  0  0  0
  4  8  1  0  0  0  0
  5  9  2  0  0  0  0
  6  5  1  0  0  0  0
  7  9  1  0  0  0  0
  7  2  2  0  0  0  0
  8  6  2  0  0  0  0
  8 10  1  0  0  0  0
 10  7  1  0  0  0  0
 11  2  1  0  0  0  0
 12 13  3  0  0  0  0
 13  6  1  0  0  0  0
 14 15  1  6  0  0  0
 14  3  1  0  0  0  0
 14 18  1  0  0  0  0
 16 15  1  0  0  0  0
 17 16  1  0  0  0  0
 18 20  1  0  0  0  0
 19 20  2  0  0  0  0
 20 22  1  0  0  0  0
 22 21  1  6  0  0  0
 22 24  1  0  0  0  0
 24 23  2  0  0  0  0
 24 25  1  0  0  0  0
M  END
>  <MODEL>
9

>  <REMARK>
 VINA RESULT:      -8.0      1.811      4.190
  Name = 
  8 active torsions:
  status: ('A' for Active; 'I' for Inactive)
    1  A    between atoms: C_3  and  C_5
    2  A    between atoms: N_4  and  C_5
    3  A    between atoms: N_4  and  C_15
    4  A    between atoms: C_5  and  O_10
    5  A    between atoms: O_10  and  C_19
    6  A    between atoms: C_11  and  C_12
    7  A    between atoms: C_11  and  C_19
    8  A    between atoms: C_16  and  C_22
                            x       y       z     vdW  Elec       q    Type
                         _______ _______ _______ _____ _____    ______ ____

>  <TORSDO>
F 8

$$$$
