=
 OpenBabel10222421203D

 45 49  0  0  1  0  0  0  0  0999 V2000
  191.4290  177.8560  139.0480 C   0  0  0  0  0  2  0  0  0  0  0  0
  192.3190  177.0250  139.9600 C   0  0  0  0  0  2  0  0  0  0  0  0
  191.0850  176.4080  139.3280 C   0  0  0  0  0  0  0  0  0  0  0  0
  189.8870  176.2970  140.1550 N   0  0  0  0  0  2  0  0  0  0  0  0
  189.2060  177.5850  140.1910 C   0  0  0  0  0  2  0  0  0  0  0  0
  188.8110  177.9460  141.6120 C   0  0  1  0  0  3  0  0  0  0  0  0
  186.7750  179.0480  140.8380 N   0  0  0  0  0  0  0  0  0  0  0  0
  185.1690  178.2270  142.3650 N   0  0  0  0  0  0  0  0  0  0  0  0
  186.4540  177.7260  142.6120 N   0  0  0  0  0  2  0  0  0  0  0  0
  187.3550  178.2880  141.6860 C   0  0  0  0  0  0  0  0  0  0  0  0
  185.3540  179.0730  141.1770 C   0  0  0  0  0  2  0  0  0  0  0  0
  184.8590  179.0850  143.4230 N   0  0  0  0  0  2  0  0  0  0  0  0
  185.4700  179.2610  145.7570 C   0  0  0  0  0  2  0  0  0  0  0  0
  184.0300  178.8030  145.6780 C   0  0  0  0  0  2  0  0  0  0  0  0
  185.0320  178.3270  144.6490 C   0  0  0  0  0  3  0  0  0  0  0  0
  189.2090  176.5600  142.7260 S   0  0  0  0  0  0  0  0  0  0  0  0
  190.2170  178.5450  144.1120 O   0  0  0  0  0  0  0  0  0  0  0  0
  189.4200  177.6230  144.1540 C   0  0  0  0  0  0  0  0  0  0  0  0
  188.6150  177.3720  145.3920 C   0  0  0  0  0  2  0  0  0  0  0  0
  189.6290  178.3060  147.3340 F   0  0  0  0  0  0  0  0  0  0  0  0
  188.9370  176.1570  147.4180 F   0  0  0  0  0  0  0  0  0  0  0  0
  190.7490  176.7110  146.1950 F   0  0  0  0  0  0  0  0  0  0  0  0
  189.4950  177.1320  146.6110 C   0  0  0  0  0  0  0  0  0  0  0  0
  191.2430  175.5110  138.0990 C   0  0  2  0  0  3  0  0  0  0  0  0
  192.1020  176.1350  136.9950 C   0  0  0  0  0  2  0  0  0  0  0  0
  193.2870  175.2380  136.6700 C   0  0  1  0  0  3  0  0  0  0  0  0
  195.1210  174.0410  137.7530 C   0  0  0  0  0  2  0  0  0  0  0  0
  195.2720  172.8290  136.9640 N   0  0  0  0  0  0  0  0  0  0  0  0
  193.6610  174.4120  137.8860 C   0  0  0  0  0  2  0  0  0  0  0  0
  195.5640  171.9910  134.8090 O   0  0  0  0  0  0  0  0  0  0  0  0
  194.8980  172.7400  135.5750 C   0  0  0  0  0  0  0  0  0  0  0  0
  192.9570  174.3840  135.4900 C   0  0  0  0  0  3  0  0  0  0  0  0
  193.6760  173.3590  135.0190 C   0  0  0  0  0  3  0  0  0  0  0  0
  195.2400  170.6100  137.9940 C   0  0  0  0  0  1  0  0  0  0  0  0
  196.0970  171.7830  137.5580 C   0  0  0  0  0  2  0  0  0  0  0  0
  189.9300  174.8530  137.6320 C   0  0  2  0  0  3  0  0  0  0  0  0
  188.9860  173.0230  136.8220 C   0  0  0  0  0  1  0  0  0  0  0  0
  190.1670  173.5000  137.3920 O   0  0  0  0  0  0  0  0  0  0  0  0
  189.3360  175.4690  136.3660 C   0  0  0  0  0  2  0  0  0  0  0  0
  186.3880  177.4800  137.5970 C   0  0  0  0  0  3  0  0  0  0  0  0
  188.4380  176.6160  136.6660 C   0  0  0  0  0  0  0  0  0  0  0  0
  186.8010  178.7430  137.3150 N   0  0  0  0  0  0  0  0  0  0  0  0
  188.8490  177.9240  136.3960 C   0  0  0  0  0  3  0  0  0  0  0  0
  188.0030  178.9860  136.7240 C   0  0  0  0  0  3  0  0  0  0  0  0
  187.2030  176.3910  137.2800 C   0  0  0  0  0  3  0  0  0  0  0  0
  1  3  1  0  0  0  0
  1  2  1  0  0  0  0
  3  2  1  0  0  0  0
  3  4  1  0  0  0  0
  4  5  1  0  0  0  0
  6  5  1  6  0  0  0
  6 10  1  0  0  0  0
  6 16  1  0  0  0  0
  7 11  1  0  0  0  0
  7 10  2  0  0  0  0
  8  9  1  0  0  0  0
  8 12  1  0  0  0  0
 10  9  1  0  0  0  0
 11  8  1  0  0  0  0
 12 15  1  0  0  0  0
 14 13  1  0  0  0  0
 15 14  1  0  0  0  0
 15 13  1  0  0  0  0
 16 18  1  0  0  0  0
 17 18  2  0  0  0  0
 18 19  1  0  0  0  0
 19 23  1  0  0  0  0
 22 23  1  0  0  0  0
 23 20  1  0  0  0  0
 23 21  1  0  0  0  0
 24 25  1  6  0  0  0
 24  3  1  0  0  0  0
 26 25  1  1  0  0  0
 26 29  1  0  0  0  0
 27 29  1  0  0  0  0
 28 35  1  0  0  0  0
 28 27  1  0  0  0  0
 30 31  2  0  0  0  0
 31 28  1  0  0  0  0
 32 26  1  0  0  0  0
 33 32  2  0  0  0  0
 33 31  1  0  0  0  0
 35 34  1  0  0  0  0
 36 39  1  6  0  0  0
 36 24  1  0  0  0  0
 37 38  1  0  0  0  0
 38 36  1  0  0  0  0
 39 41  1  0  0  0  0
 41 45  1  0  0  0  0
 42 40  1  0  0  0  0
 43 41  2  0  0  0  0
 43 44  1  0  0  0  0
 44 42  2  0  0  0  0
 45 40  2  0  0  0  0
M  END
>  <MODEL>
1

>  <REMARK>
 VINA RESULT:      -6.4      0.000      0.000
  Name = 
  18 active torsions:
  status: ('A' for Active; 'I' for Inactive)
    1  A    between atoms: C_1  and  C_22
    2  A    between atoms: C_1  and  C_29
    3  A    between atoms: C_1  and  C_43
    4  A    between atoms: N_3  and  C_22
    5  A    between atoms: N_3  and  C_42
    6  A    between atoms: C_6  and  C_21
    7  A    between atoms: C_6  and  C_43
    8  A    between atoms: C_12  and  C_29
    9  A    between atoms: S_14  and  C_36
   10  A    between atoms: S_14  and  C_41
   11  A    between atoms: N_16  and  N_31
   12  A    between atoms: C_18  and  C_28
   13  A    between atoms: N_19  and  C_40
   14  A    between atoms: C_27  and  C_41
   15  A    between atoms: C_28  and  C_36
   16  A    between atoms: N_31  and  C_44
   17  A    between atoms: O_37  and  C_43
   18  A    between atoms: C_41  and  C_42
                            x       y       z     vdW  Elec       q    Type
                         _______ _______ _______ _____ _____    ______ ____

>  <TORSDO>
F 18

$$$$
=
 OpenBabel10222421203D

 45 49  0  0  1  0  0  0  0  0999 V2000
  190.2620  176.3530  141.6780 C   0  0  0  0  0  2  0  0  0  0  0  0
  190.6640  177.7710  142.0550 C   0  0  0  0  0  2  0  0  0  0  0  0
  189.3320  177.5090  141.3770 C   0  0  0  0  0  0  0  0  0  0  0  0
  189.2440  177.7610  139.9410 N   0  0  0  0  0  2  0  0  0  0  0  0
  190.5560  177.5670  139.3380 C   0  0  0  0  0  2  0  0  0  0  0  0
  190.4260  176.9970  137.9360 C   0  0  1  0  0  3  0  0  0  0  0  0
  191.4850  174.7980  137.9560 N   0  0  0  0  0  0  0  0  0  0  0  0
  193.4980  175.2180  136.7930 N   0  0  0  0  0  0  0  0  0  0  0  0
  192.6980  176.3610  136.9170 N   0  0  0  0  0  2  0  0  0  0  0  0
  191.5390  176.0370  137.6500 C   0  0  0  0  0  0  0  0  0  0  0  0
  192.6980  174.1690  137.4410 C   0  0  0  0  0  2  0  0  0  0  0  0
  194.6210  175.4220  137.5980 N   0  0  0  0  0  2  0  0  0  0  0  0
  196.6670  174.1740  137.9250 C   0  0  0  0  0  2  0  0  0  0  0  0
  195.9090  174.1900  139.2340 C   0  0  0  0  0  2  0  0  0  0  0  0
  195.1550  174.1120  137.9250 C   0  0  0  0  0  3  0  0  0  0  0  0
  188.8060  176.1840  137.7580 S   0  0  0  0  0  0  0  0  0  0  0  0
  188.9500  177.6640  135.5980 O   0  0  0  0  0  0  0  0  0  0  0  0
  188.2280  177.3570  136.5310 C   0  0  0  0  0  0  0  0  0  0  0  0
  186.8600  177.9520  136.6580 C   0  0  0  0  0  2  0  0  0  0  0  0
  186.2220  175.9490  135.5380 F   0  0  0  0  0  0  0  0  0  0  0  0
  185.3710  176.3420  137.5930 F   0  0  0  0  0  0  0  0  0  0  0  0
  184.6690  177.5610  135.8300 F   0  0  0  0  0  0  0  0  0  0  0  0
  185.7620  176.9280  136.4030 C   0  0  0  0  0  0  0  0  0  0  0  0
  188.0560  177.4810  142.2200 C   0  0  2  0  0  3  0  0  0  0  0  0
  187.2240  178.7630  142.1100 C   0  0  0  0  0  2  0  0  0  0  0  0
  185.7980  178.4380  141.6910 C   0  0  1  0  0  3  0  0  0  0  0  0
  183.5320  178.3090  142.5940 C   0  0  0  0  0  2  0  0  0  0  0  0
  182.6840  178.7540  141.5000 N   0  0  0  0  0  0  0  0  0  0  0  0
  184.8150  179.1070  142.6340 C   0  0  0  0  0  2  0  0  0  0  0  0
  182.1580  178.4280  139.2530 O   0  0  0  0  0  0  0  0  0  0  0  0
  183.0570  178.6320  140.1130 C   0  0  0  0  0  0  0  0  0  0  0  0
  185.5880  178.8560  140.2720 C   0  0  0  0  0  3  0  0  0  0  0  0
  184.4250  178.8880  139.6120 C   0  0  0  0  0  3  0  0  0  0  0  0
  181.1100  179.0170  143.3550 C   0  0  0  0  0  1  0  0  0  0  0  0
  181.3030  179.0620  141.8510 C   0  0  0  0  0  2  0  0  0  0  0  0
  188.2620  176.9400  143.6490 C   0  0  2  0  0  3  0  0  0  0  0  0
  186.5570  177.1330  145.0460 C   0  0  0  0  0  1  0  0  0  0  0  0
  187.0910  176.3040  144.0600 O   0  0  0  0  0  0  0  0  0  0  0  0
  188.6150  178.0110  144.6800 C   0  0  0  0  0  2  0  0  0  0  0  0
  191.7720  176.5140  146.1060 C   0  0  0  0  0  3  0  0  0  0  0  0
  189.6390  177.5410  145.6500 C   0  0  0  0  0  0  0  0  0  0  0  0
  191.5920  176.7460  147.4330 N   0  0  0  0  0  0  0  0  0  0  0  0
  189.4790  177.7820  147.0180 C   0  0  0  0  0  3  0  0  0  0  0  0
  190.4750  177.3650  147.9040 C   0  0  0  0  0  3  0  0  0  0  0  0
  190.7970  176.9110  145.1880 C   0  0  0  0  0  3  0  0  0  0  0  0
  1  2  1  0  0  0  0
  3  1  1  0  0  0  0
  3  2  1  0  0  0  0
  3 24  1  0  0  0  0
  4  3  1  0  0  0  0
  5  4  1  0  0  0  0
  6  5  1  1  0  0  0
  8  9  1  0  0  0  0
  8 11  1  0  0  0  0
  8 12  1  0  0  0  0
  9 10  1  0  0  0  0
 10  6  1  0  0  0  0
 10  7  2  0  0  0  0
 11  7  1  0  0  0  0
 12 15  1  0  0  0  0
 13 15  1  0  0  0  0
 13 14  1  0  0  0  0
 15 14  1  0  0  0  0
 16  6  1  0  0  0  0
 17 18  2  0  0  0  0
 18 19  1  0  0  0  0
 18 16  1  0  0  0  0
 20 23  1  0  0  0  0
 22 23  1  0  0  0  0
 23 19  1  0  0  0  0
 23 21  1  0  0  0  0
 24 25  1  1  0  0  0
 24 36  1  0  0  0  0
 26 25  1  1  0  0  0
 26 29  1  0  0  0  0
 27 29  1  0  0  0  0
 28 35  1  0  0  0  0
 28 27  1  0  0  0  0
 30 31  2  0  0  0  0
 31 28  1  0  0  0  0
 32 26  1  0  0  0  0
 33 31  1  0  0  0  0
 33 32  2  0  0  0  0
 35 34  1  0  0  0  0
 36 38  1  0  0  0  0
 36 39  1  1  0  0  0
 38 37  1  0  0  0  0
 39 41  1  0  0  0  0
 40 42  1  0  0  0  0
 41 43  2  0  0  0  0
 42 44  2  0  0  0  0
 43 44  1  0  0  0  0
 45 41  1  0  0  0  0
 45 40  2  0  0  0  0
M  END
>  <MODEL>
2

>  <REMARK>
 VINA RESULT:      -6.3      4.041     10.290
  Name = 
  18 active torsions:
  status: ('A' for Active; 'I' for Inactive)
    1  A    between atoms: C_1  and  C_22
    2  A    between atoms: C_1  and  C_29
    3  A    between atoms: C_1  and  C_43
    4  A    between atoms: N_3  and  C_22
    5  A    between atoms: N_3  and  C_42
    6  A    between atoms: C_6  and  C_21
    7  A    between atoms: C_6  and  C_43
    8  A    between atoms: C_12  and  C_29
    9  A    between atoms: S_14  and  C_36
   10  A    between atoms: S_14  and  C_41
   11  A    between atoms: N_16  and  N_31
   12  A    between atoms: C_18  and  C_28
   13  A    between atoms: N_19  and  C_40
   14  A    between atoms: C_27  and  C_41
   15  A    between atoms: C_28  and  C_36
   16  A    between atoms: N_31  and  C_44
   17  A    between atoms: O_37  and  C_43
   18  A    between atoms: C_41  and  C_42
                            x       y       z     vdW  Elec       q    Type
                         _______ _______ _______ _____ _____    ______ ____

>  <TORSDO>
F 18

$$$$
=
 OpenBabel10222421203D

 45 49  0  0  1  0  0  0  0  0999 V2000
  188.8970  177.1710  140.2120 C   0  0  0  0  0  2  0  0  0  0  0  0
  189.3580  178.6140  140.0720 C   0  0  0  0  0  2  0  0  0  0  0  0
  187.8800  178.2920  140.1860 C   0  0  0  0  0  0  0  0  0  0  0  0
  187.0960  178.2710  138.9530 N   0  0  0  0  0  2  0  0  0  0  0  0
  187.9990  178.2110  137.8120 C   0  0  0  0  0  2  0  0  0  0  0  0
  187.8300  176.9030  137.0590 C   0  0  1  0  0  3  0  0  0  0  0  0
  185.7210  177.4060  135.9360 N   0  0  0  0  0  0  0  0  0  0  0  0
  184.3590  175.6060  136.6360 N   0  0  0  0  0  0  0  0  0  0  0  0
  185.6540  175.5400  137.1660 N   0  0  0  0  0  2  0  0  0  0  0  0
  186.3890  176.6620  136.7330 C   0  0  0  0  0  0  0  0  0  0  0  0
  184.3950  176.8110  135.7940 C   0  0  0  0  0  2  0  0  0  0  0  0
  183.5000  175.8870  137.7010 N   0  0  0  0  0  2  0  0  0  0  0  0
  181.3860  175.2690  138.7000 C   0  0  0  0  0  2  0  0  0  0  0  0
  181.1060  175.9060  137.3570 C   0  0  0  0  0  2  0  0  0  0  0  0
  182.3320  175.0400  137.5410 C   0  0  0  0  0  3  0  0  0  0  0  0
  188.8410  176.9380  135.5430 S   0  0  0  0  0  0  0  0  0  0  0  0
  189.4350  174.6160  136.6050 O   0  0  0  0  0  0  0  0  0  0  0  0
  189.9160  175.6140  136.0960 C   0  0  0  0  0  0  0  0  0  0  0  0
  191.3980  175.7410  135.9280 C   0  0  0  0  0  2  0  0  0  0  0  0
  191.3410  177.0380  137.9250 F   0  0  0  0  0  0  0  0  0  0  0  0
  192.2610  174.9770  138.0140 F   0  0  0  0  0  0  0  0  0  0  0  0
  193.3400  176.6480  136.9520 F   0  0  0  0  0  0  0  0  0  0  0  0
  192.0950  176.1050  137.2320 C   0  0  0  0  0  0  0  0  0  0  0  0
  187.1730  178.4850  141.5290 C   0  0  2  0  0  3  0  0  0  0  0  0
  187.2920  177.2750  142.4600 C   0  0  0  0  0  2  0  0  0  0  0  0
  188.2420  177.5780  143.6090 C   0  0  1  0  0  3  0  0  0  0  0  0
  188.2380  178.0800  146.0000 C   0  0  0  0  0  2  0  0  0  0  0  0
  189.4370  177.4310  146.5050 N   0  0  0  0  0  0  0  0  0  0  0  0
  187.5820  177.2340  144.9320 C   0  0  0  0  0  2  0  0  0  0  0  0
  191.7410  177.2160  146.2220 O   0  0  0  0  0  0  0  0  0  0  0  0
  190.5980  177.1750  145.6890 C   0  0  0  0  0  0  0  0  0  0  0  0
  189.5210  176.8320  143.4090 C   0  0  0  0  0  3  0  0  0  0  0  0
  190.5220  176.7110  144.2870 C   0  0  0  0  0  3  0  0  0  0  0  0
  188.4150  178.0830  148.6300 C   0  0  0  0  0  1  0  0  0  0  0  0
  189.5340  177.3130  147.9550 C   0  0  0  0  0  2  0  0  0  0  0  0
  185.7650  179.1020  141.4120 C   0  0  2  0  0  3  0  0  0  0  0  0
  184.8520  179.4020  143.4050 C   0  0  0  0  0  1  0  0  0  0  0  0
  185.6050  180.0470  142.4240 O   0  0  0  0  0  0  0  0  0  0  0  0
  184.6270  178.0880  141.5160 C   0  0  0  0  0  2  0  0  0  0  0  0
  181.1150  178.6000  140.2300 C   0  0  0  0  0  3  0  0  0  0  0  0
  183.4880  178.4290  140.6220 C   0  0  0  0  0  0  0  0  0  0  0  0
  181.3630  179.1420  139.0090 N   0  0  0  0  0  0  0  0  0  0  0  0
  183.7210  178.9990  139.3680 C   0  0  0  0  0  3  0  0  0  0  0  0
  182.6330  179.3450  138.5640 C   0  0  0  0  0  3  0  0  0  0  0  0
  182.1760  178.2360  141.0620 C   0  0  0  0  0  3  0  0  0  0  0  0
  2  3  1  0  0  0  0
  2  1  1  0  0  0  0
  3  1  1  0  0  0  0
  3 24  1  0  0  0  0
  4  3  1  0  0  0  0
  5  4  1  0  0  0  0
  6  5  1  6  0  0  0
  7 10  2  0  0  0  0
  8  9  1  0  0  0  0
  8 12  1  0  0  0  0
 10  6  1  0  0  0  0
 10  9  1  0  0  0  0
 11  7  1  0  0  0  0
 11  8  1  0  0  0  0
 14 15  1  0  0  0  0
 14 13  1  0  0  0  0
 15 12  1  0  0  0  0
 15 13  1  0  0  0  0
 16 18  1  0  0  0  0
 16  6  1  0  0  0  0
 18 17  2  0  0  0  0
 19 18  1  0  0  0  0
 19 23  1  0  0  0  0
 22 23  1  0  0  0  0
 23 20  1  0  0  0  0
 23 21  1  0  0  0  0
 24 25  1  6  0  0  0
 26 25  1  6  0  0  0
 26 29  1  0  0  0  0
 27 28  1  0  0  0  0
 28 35  1  0  0  0  0
 29 27  1  0  0  0  0
 31 30  2  0  0  0  0
 31 28  1  0  0  0  0
 32 26  1  0  0  0  0
 32 33  2  0  0  0  0
 33 31  1  0  0  0  0
 35 34  1  0  0  0  0
 36 39  1  1  0  0  0
 36 24  1  0  0  0  0
 36 38  1  0  0  0  0
 38 37  1  0  0  0  0
 40 45  1  0  0  0  0
 41 45  2  0  0  0  0
 41 39  1  0  0  0  0
 42 40  2  0  0  0  0
 43 41  1  0  0  0  0
 44 42  1  0  0  0  0
 44 43  2  0  0  0  0
M  END
>  <MODEL>
3

>  <REMARK>
 VINA RESULT:      -6.2      4.059      8.381
  Name = 
  18 active torsions:
  status: ('A' for Active; 'I' for Inactive)
    1  A    between atoms: C_1  and  C_22
    2  A    between atoms: C_1  and  C_29
    3  A    between atoms: C_1  and  C_43
    4  A    between atoms: N_3  and  C_22
    5  A    between atoms: N_3  and  C_42
    6  A    between atoms: C_6  and  C_21
    7  A    between atoms: C_6  and  C_43
    8  A    between atoms: C_12  and  C_29
    9  A    between atoms: S_14  and  C_36
   10  A    between atoms: S_14  and  C_41
   11  A    between atoms: N_16  and  N_31
   12  A    between atoms: C_18  and  C_28
   13  A    between atoms: N_19  and  C_40
   14  A    between atoms: C_27  and  C_41
   15  A    between atoms: C_28  and  C_36
   16  A    between atoms: N_31  and  C_44
   17  A    between atoms: O_37  and  C_43
   18  A    between atoms: C_41  and  C_42
                            x       y       z     vdW  Elec       q    Type
                         _______ _______ _______ _____ _____    ______ ____

>  <TORSDO>
F 18

$$$$
=
 OpenBabel10222421203D

 45 49  0  0  1  0  0  0  0  0999 V2000
  188.8070  177.1850  139.7370 C   0  0  0  0  0  2  0  0  0  0  0  0
  189.2500  178.6330  139.5930 C   0  0  0  0  0  2  0  0  0  0  0  0
  187.7920  178.3030  139.8540 C   0  0  0  0  0  0  0  0  0  0  0  0
  186.8820  178.3160  138.7110 N   0  0  0  0  0  2  0  0  0  0  0  0
  187.6400  178.5840  137.4960 C   0  0  0  0  0  2  0  0  0  0  0  0
  187.2880  177.5840  136.4090 C   0  0  1  0  0  3  0  0  0  0  0  0
  188.4060  175.6830  135.3610 N   0  0  0  0  0  0  0  0  0  0  0  0
  190.6820  176.1900  135.7390 N   0  0  0  0  0  0  0  0  0  0  0  0
  189.8190  177.1600  136.2670 N   0  0  0  0  0  2  0  0  0  0  0  0
  188.4860  176.7680  136.0320 C   0  0  0  0  0  0  0  0  0  0  0  0
  189.7700  175.2270  135.1070 C   0  0  0  0  0  2  0  0  0  0  0  0
  191.2660  175.5360  136.8270 N   0  0  0  0  0  2  0  0  0  0  0  0
  193.2750  176.0200  138.0840 C   0  0  0  0  0  2  0  0  0  0  0  0
  193.4110  174.6350  137.4910 C   0  0  0  0  0  2  0  0  0  0  0  0
  192.7020  175.7230  136.7150 C   0  0  0  0  0  3  0  0  0  0  0  0
  185.9300  176.5130  136.9840 S   0  0  0  0  0  0  0  0  0  0  0  0
  185.2870  177.3890  134.5970 O   0  0  0  0  0  0  0  0  0  0  0  0
  184.8270  177.0160  135.6630 C   0  0  0  0  0  0  0  0  0  0  0  0
  183.3450  176.9720  135.8750 C   0  0  0  0  0  2  0  0  0  0  0  0
  183.5600  174.7380  135.0800 F   0  0  0  0  0  0  0  0  0  0  0  0
  182.8780  175.0530  137.2100 F   0  0  0  0  0  0  0  0  0  0  0  0
  181.4910  175.5370  135.4990 F   0  0  0  0  0  0  0  0  0  0  0  0
  182.8120  175.5460  135.9200 C   0  0  0  0  0  0  0  0  0  0  0  0
  187.2320  178.4530  141.2690 C   0  0  2  0  0  3  0  0  0  0  0  0
  187.4400  177.2110  142.1420 C   0  0  0  0  0  2  0  0  0  0  0  0
  188.3370  177.5360  143.3270 C   0  0  1  0  0  3  0  0  0  0  0  0
  188.2280  178.0290  145.7170 C   0  0  0  0  0  2  0  0  0  0  0  0
  189.4250  177.4130  146.2650 N   0  0  0  0  0  0  0  0  0  0  0  0
  187.6370  177.1690  144.6220 C   0  0  0  0  0  2  0  0  0  0  0  0
  191.7430  177.2650  146.0690 O   0  0  0  0  0  0  0  0  0  0  0  0
  190.6230  177.1930  145.4940 C   0  0  0  0  0  0  0  0  0  0  0  0
  189.6430  176.8280  143.1730 C   0  0  0  0  0  3  0  0  0  0  0  0
  190.6130  176.7330  144.0890 C   0  0  0  0  0  3  0  0  0  0  0  0
  188.4300  178.1900  148.3610 C   0  0  0  0  0  1  0  0  0  0  0  0
  189.4700  177.2930  147.7180 C   0  0  0  0  0  2  0  0  0  0  0  0
  185.8230  179.0770  141.3220 C   0  0  2  0  0  3  0  0  0  0  0  0
  184.8650  179.3760  143.2940 C   0  0  0  0  0  1  0  0  0  0  0  0
  185.7640  179.9580  142.4010 O   0  0  0  0  0  0  0  0  0  0  0  0
  184.6920  178.0610  141.4690 C   0  0  0  0  0  2  0  0  0  0  0  0
  181.6940  177.4000  139.2730 C   0  0  0  0  0  3  0  0  0  0  0  0
  183.6590  178.2130  140.4100 C   0  0  0  0  0  0  0  0  0  0  0  0
  181.6790  178.5250  138.5110 N   0  0  0  0  0  0  0  0  0  0  0  0
  183.6180  179.3680  139.6250 C   0  0  0  0  0  3  0  0  0  0  0  0
  182.6130  179.5030  138.6640 C   0  0  0  0  0  3  0  0  0  0  0  0
  182.6850  177.2250  140.2420 C   0  0  0  0  0  3  0  0  0  0  0  0
  1  3  1  0  0  0  0
  2  1  1  0  0  0  0
  2  3  1  0  0  0  0
  3 24  1  0  0  0  0
  4  3  1  0  0  0  0
  5  4  1  0  0  0  0
  6 16  1  0  0  0  0
  6  5  1  1  0  0  0
  7 10  2  0  0  0  0
  8  9  1  0  0  0  0
  8 12  1  0  0  0  0
 10  9  1  0  0  0  0
 10  6  1  0  0  0  0
 11  7  1  0  0  0  0
 11  8  1  0  0  0  0
 14 13  1  0  0  0  0
 15 12  1  0  0  0  0
 15 14  1  0  0  0  0
 15 13  1  0  0  0  0
 17 18  2  0  0  0  0
 18 19  1  0  0  0  0
 18 16  1  0  0  0  0
 19 23  1  0  0  0  0
 20 23  1  0  0  0  0
 22 23  1  0  0  0  0
 23 21  1  0  0  0  0
 24 36  1  0  0  0  0
 24 25  1  6  0  0  0
 26 25  1  6  0  0  0
 26 29  1  0  0  0  0
 27 28  1  0  0  0  0
 28 35  1  0  0  0  0
 29 27  1  0  0  0  0
 31 30  2  0  0  0  0
 31 28  1  0  0  0  0
 32 26  1  0  0  0  0
 32 33  2  0  0  0  0
 33 31  1  0  0  0  0
 35 34  1  0  0  0  0
 36 39  1  1  0  0  0
 36 38  1  0  0  0  0
 38 37  1  0  0  0  0
 40 45  1  0  0  0  0
 41 39  1  0  0  0  0
 42 44  1  0  0  0  0
 42 40  2  0  0  0  0
 43 41  1  0  0  0  0
 44 43  2  0  0  0  0
 45 41  2  0  0  0  0
M  END
>  <MODEL>
4

>  <REMARK>
 VINA RESULT:      -6.1      4.501      9.248
  Name = 
  18 active torsions:
  status: ('A' for Active; 'I' for Inactive)
    1  A    between atoms: C_1  and  C_22
    2  A    between atoms: C_1  and  C_29
    3  A    between atoms: C_1  and  C_43
    4  A    between atoms: N_3  and  C_22
    5  A    between atoms: N_3  and  C_42
    6  A    between atoms: C_6  and  C_21
    7  A    between atoms: C_6  and  C_43
    8  A    between atoms: C_12  and  C_29
    9  A    between atoms: S_14  and  C_36
   10  A    between atoms: S_14  and  C_41
   11  A    between atoms: N_16  and  N_31
   12  A    between atoms: C_18  and  C_28
   13  A    between atoms: N_19  and  C_40
   14  A    between atoms: C_27  and  C_41
   15  A    between atoms: C_28  and  C_36
   16  A    between atoms: N_31  and  C_44
   17  A    between atoms: O_37  and  C_43
   18  A    between atoms: C_41  and  C_42
                            x       y       z     vdW  Elec       q    Type
                         _______ _______ _______ _____ _____    ______ ____

>  <TORSDO>
F 18

$$$$
=
 OpenBabel10222421203D

 45 49  0  0  1  0  0  0  0  0999 V2000
  190.8200  176.4010  141.6310 C   0  0  0  0  0  2  0  0  0  0  0  0
  191.0290  177.9060  141.5550 C   0  0  0  0  0  2  0  0  0  0  0  0
  189.7780  177.2770  140.9670 C   0  0  0  0  0  0  0  0  0  0  0  0
  189.7450  177.0620  139.5230 N   0  0  0  0  0  2  0  0  0  0  0  0
  191.0240  176.5160  139.0890 C   0  0  0  0  0  2  0  0  0  0  0  0
  191.0390  176.3090  137.5840 C   0  0  1  0  0  3  0  0  0  0  0  0
  192.6370  175.2030  136.1080 N   0  0  0  0  0  0  0  0  0  0  0  0
  194.6980  176.0210  136.9240 N   0  0  0  0  0  0  0  0  0  0  0  0
  193.5990  176.5250  137.6320 N   0  0  0  0  0  2  0  0  0  0  0  0
  192.4170  175.9640  137.1100 C   0  0  0  0  0  0  0  0  0  0  0  0
  194.0810  175.1750  135.8920 C   0  0  0  0  0  2  0  0  0  0  0  0
  195.3790  175.1640  137.7920 N   0  0  0  0  0  2  0  0  0  0  0  0
  197.3720  173.8290  137.4800 C   0  0  0  0  0  2  0  0  0  0  0  0
  196.2310  172.9010  137.8370 C   0  0  0  0  0  2  0  0  0  0  0  0
  195.9730  174.1190  136.9780 C   0  0  0  0  0  3  0  0  0  0  0  0
  189.8530  174.9990  137.1390 S   0  0  0  0  0  0  0  0  0  0  0  0
  188.6680  175.3270  134.8220 O   0  0  0  0  0  0  0  0  0  0  0  0
  189.1850  175.9210  135.7540 C   0  0  0  0  0  0  0  0  0  0  0  0
  189.2660  177.4160  135.7480 C   0  0  0  0  0  2  0  0  0  0  0  0
  188.2770  179.1370  137.0660 F   0  0  0  0  0  0  0  0  0  0  0  0
  187.2220  178.5010  135.1720 F   0  0  0  0  0  0  0  0  0  0  0  0
  187.2460  177.1320  136.9640 F   0  0  0  0  0  0  0  0  0  0  0  0
  187.9790  178.0630  136.2440 C   0  0  0  0  0  0  0  0  0  0  0  0
  188.4680  177.3410  141.7540 C   0  0  2  0  0  3  0  0  0  0  0  0
  187.6950  178.6470  141.5440 C   0  0  0  0  0  2  0  0  0  0  0  0
  186.2870  178.3590  141.0450 C   0  0  1  0  0  3  0  0  0  0  0  0
  183.9500  178.5260  141.7390 C   0  0  0  0  0  2  0  0  0  0  0  0
  183.2350  178.8520  140.5170 N   0  0  0  0  0  0  0  0  0  0  0  0
  185.2870  179.2320  141.7810 C   0  0  0  0  0  2  0  0  0  0  0  0
  182.8730  178.2170  138.3030 O   0  0  0  0  0  0  0  0  0  0  0  0
  183.7110  178.4910  139.2040 C   0  0  0  0  0  0  0  0  0  0  0  0
  186.2300  178.5640  139.5660 C   0  0  0  0  0  3  0  0  0  0  0  0
  185.1320  178.5730  138.8020 C   0  0  0  0  0  3  0  0  0  0  0  0
  180.9990  178.1940  141.2570 C   0  0  0  0  0  1  0  0  0  0  0  0
  181.8600  179.3040  140.6860 C   0  0  0  0  0  2  0  0  0  0  0  0
  188.5900  176.8660  143.2150 C   0  0  2  0  0  3  0  0  0  0  0  0
  186.6960  177.0550  144.3420 C   0  0  0  0  0  1  0  0  0  0  0  0
  187.4330  176.1680  143.5570 O   0  0  0  0  0  0  0  0  0  0  0  0
  188.7900  177.9930  144.2260 C   0  0  0  0  0  2  0  0  0  0  0  0
  190.0170  177.2800  147.7240 C   0  0  0  0  0  3  0  0  0  0  0  0
  189.6640  177.5850  145.3580 C   0  0  0  0  0  0  0  0  0  0  0  0
  191.2390  176.7450  147.4650 N   0  0  0  0  0  0  0  0  0  0  0  0
  190.9180  177.0210  145.1130 C   0  0  0  0  0  3  0  0  0  0  0  0
  191.7030  176.6100  146.1930 C   0  0  0  0  0  3  0  0  0  0  0  0
  189.2040  177.7080  146.6720 C   0  0  0  0  0  3  0  0  0  0  0  0
  2  1  1  0  0  0  0
  3  2  1  0  0  0  0
  3  1  1  0  0  0  0
  3 24  1  0  0  0  0
  4  3  1  0  0  0  0
  5  4  1  0  0  0  0
  6  5  1  1  0  0  0
  7 10  2  0  0  0  0
  8  9  1  0  0  0  0
  8 12  1  0  0  0  0
 10  6  1  0  0  0  0
 10  9  1  0  0  0  0
 11  7  1  0  0  0  0
 11  8  1  0  0  0  0
 13 14  1  0  0  0  0
 15 13  1  0  0  0  0
 15 12  1  0  0  0  0
 15 14  1  0  0  0  0
 16  6  1  0  0  0  0
 17 18  2  0  0  0  0
 18 16  1  0  0  0  0
 19 18  1  0  0  0  0
 19 23  1  0  0  0  0
 21 23  1  0  0  0  0
 23 22  1  0  0  0  0
 23 20  1  0  0  0  0
 24 25  1  1  0  0  0
 24 36  1  0  0  0  0
 26 25  1  1  0  0  0
 26 29  1  0  0  0  0
 27 29  1  0  0  0  0
 28 35  1  0  0  0  0
 28 27  1  0  0  0  0
 30 31  2  0  0  0  0
 31 28  1  0  0  0  0
 32 26  1  0  0  0  0
 33 31  1  0  0  0  0
 33 32  2  0  0  0  0
 35 34  1  0  0  0  0
 36 38  1  0  0  0  0
 36 39  1  1  0  0  0
 38 37  1  0  0  0  0
 39 41  1  0  0  0  0
 41 45  1  0  0  0  0
 42 40  1  0  0  0  0
 43 41  2  0  0  0  0
 43 44  1  0  0  0  0
 44 42  2  0  0  0  0
 45 40  2  0  0  0  0
M  END
>  <MODEL>
5

>  <REMARK>
 VINA RESULT:      -6.1      3.842     10.196
  Name = 
  18 active torsions:
  status: ('A' for Active; 'I' for Inactive)
    1  A    between atoms: C_1  and  C_22
    2  A    between atoms: C_1  and  C_29
    3  A    between atoms: C_1  and  C_43
    4  A    between atoms: N_3  and  C_22
    5  A    between atoms: N_3  and  C_42
    6  A    between atoms: C_6  and  C_21
    7  A    between atoms: C_6  and  C_43
    8  A    between atoms: C_12  and  C_29
    9  A    between atoms: S_14  and  C_36
   10  A    between atoms: S_14  and  C_41
   11  A    between atoms: N_16  and  N_31
   12  A    between atoms: C_18  and  C_28
   13  A    between atoms: N_19  and  C_40
   14  A    between atoms: C_27  and  C_41
   15  A    between atoms: C_28  and  C_36
   16  A    between atoms: N_31  and  C_44
   17  A    between atoms: O_37  and  C_43
   18  A    between atoms: C_41  and  C_42
                            x       y       z     vdW  Elec       q    Type
                         _______ _______ _______ _____ _____    ______ ____

>  <TORSDO>
F 18

$$$$
=
 OpenBabel10222421203D

 45 49  0  0  1  0  0  0  0  0999 V2000
  190.1390  175.5630  142.5090 C   0  0  0  0  0  2  0  0  0  0  0  0
  191.3410  176.4950  142.4960 C   0  0  0  0  0  2  0  0  0  0  0  0
  190.0100  176.9570  141.9310 C   0  0  0  0  0  0  0  0  0  0  0  0
  189.8420  176.9180  140.4800 N   0  0  0  0  0  2  0  0  0  0  0  0
  191.1460  177.0450  139.8420 C   0  0  0  0  0  2  0  0  0  0  0  0
  191.0130  176.9890  138.3310 C   0  0  1  0  0  3  0  0  0  0  0  0
  192.1600  175.4890  136.7830 N   0  0  0  0  0  0  0  0  0  0  0  0
  194.4290  175.9910  137.2140 N   0  0  0  0  0  0  0  0  0  0  0  0
  193.5500  176.7430  138.0050 N   0  0  0  0  0  2  0  0  0  0  0  0
  192.2250  176.3620  137.7150 C   0  0  0  0  0  0  0  0  0  0  0  0
  193.5290  175.1840  136.3770 C   0  0  0  0  0  2  0  0  0  0  0  0
  195.0840  175.1030  138.0720 N   0  0  0  0  0  2  0  0  0  0  0  0
  196.7390  173.3770  137.7100 C   0  0  0  0  0  2  0  0  0  0  0  0
  195.4790  172.7220  138.2340 C   0  0  0  0  0  2  0  0  0  0  0  0
  195.3820  173.9090  137.3010 C   0  0  0  0  0  3  0  0  0  0  0  0
  189.5070  176.0640  137.8850 S   0  0  0  0  0  0  0  0  0  0  0  0
  189.4390  178.4540  136.8060 O   0  0  0  0  0  0  0  0  0  0  0  0
  188.8930  177.3640  136.8130 C   0  0  0  0  0  0  0  0  0  0  0  0
  187.7120  177.1020  135.9300 C   0  0  0  0  0  2  0  0  0  0  0  0
  186.1180  176.4150  137.5610 F   0  0  0  0  0  0  0  0  0  0  0  0
  186.4610  178.6290  137.2670 F   0  0  0  0  0  0  0  0  0  0  0  0
  185.3730  177.4370  135.6920 F   0  0  0  0  0  0  0  0  0  0  0  0
  186.3940  177.4030  136.6300 C   0  0  0  0  0  0  0  0  0  0  0  0
  189.1160  177.8700  142.7720 C   0  0  2  0  0  3  0  0  0  0  0  0
  188.2720  178.8360  141.9360 C   0  0  0  0  0  2  0  0  0  0  0  0
  186.8110  178.4110  141.9430 C   0  0  1  0  0  3  0  0  0  0  0  0
  184.8660  178.3120  143.4180 C   0  0  0  0  0  2  0  0  0  0  0  0
  183.7390  178.5900  142.5440 N   0  0  0  0  0  0  0  0  0  0  0  0
  186.0610  179.1550  143.0330 C   0  0  0  0  0  2  0  0  0  0  0  0
  182.6760  177.9740  140.5620 O   0  0  0  0  0  0  0  0  0  0  0  0
  183.7510  178.3140  141.1290 C   0  0  0  0  0  0  0  0  0  0  0  0
  186.2170  178.6450  140.5930 C   0  0  0  0  0  3  0  0  0  0  0  0
  184.9240  178.5560  140.2620 C   0  0  0  0  0  3  0  0  0  0  0  0
  182.6760  179.0020  144.7080 C   0  0  0  0  0  1  0  0  0  0  0  0
  182.4760  178.8890  143.2090 C   0  0  0  0  0  2  0  0  0  0  0  0
  189.8250  178.4880  143.9930 C   0  0  2  0  0  3  0  0  0  0  0  0
  191.3200  180.0670  144.4010 C   0  0  0  0  0  1  0  0  0  0  0  0
  191.0770  178.9550  143.5950 O   0  0  0  0  0  0  0  0  0  0  0  0
  190.0220  177.5220  145.1600 C   0  0  0  0  0  2  0  0  0  0  0  0
  188.4770  178.0780  148.5590 C   0  0  0  0  0  3  0  0  0  0  0  0
  189.0140  177.7260  146.2350 C   0  0  0  0  0  0  0  0  0  0  0  0
  187.1640  178.1970  148.2300 N   0  0  0  0  0  0  0  0  0  0  0  0
  187.6610  177.8630  145.9160 C   0  0  0  0  0  3  0  0  0  0  0  0
  186.7400  178.0930  146.9410 C   0  0  0  0  0  3  0  0  0  0  0  0
  189.4290  177.8430  147.5640 C   0  0  0  0  0  3  0  0  0  0  0  0
  2  1  1  0  0  0  0
  3  2  1  0  0  0  0
  3  1  1  0  0  0  0
  3 24  1  0  0  0  0
  4  3  1  0  0  0  0
  5  4  1  0  0  0  0
  6  5  1  1  0  0  0
  7 10  2  0  0  0  0
  8  9  1  0  0  0  0
  8 12  1  0  0  0  0
 10  9  1  0  0  0  0
 10  6  1  0  0  0  0
 11  7  1  0  0  0  0
 11  8  1  0  0  0  0
 13 14  1  0  0  0  0
 15 13  1  0  0  0  0
 15 12  1  0  0  0  0
 15 14  1  0  0  0  0
 16  6  1  0  0  0  0
 17 18  2  0  0  0  0
 18 16  1  0  0  0  0
 19 23  1  0  0  0  0
 19 18  1  0  0  0  0
 22 23  1  0  0  0  0
 23 21  1  0  0  0  0
 23 20  1  0  0  0  0
 24 25  1  6  0  0  0
 24 36  1  0  0  0  0
 26 25  1  6  0  0  0
 26 29  1  0  0  0  0
 28 35  1  0  0  0  0
 28 27  1  0  0  0  0
 29 27  1  0  0  0  0
 30 31  2  0  0  0  0
 31 28  1  0  0  0  0
 32 26  1  0  0  0  0
 33 32  2  0  0  0  0
 33 31  1  0  0  0  0
 35 34  1  0  0  0  0
 36 39  1  1  0  0  0
 38 36  1  0  0  0  0
 38 37  1  0  0  0  0
 39 41  1  0  0  0  0
 41 45  1  0  0  0  0
 42 40  1  0  0  0  0
 43 41  2  0  0  0  0
 43 44  1  0  0  0  0
 44 42  2  0  0  0  0
 45 40  2  0  0  0  0
M  END
>  <MODEL>
6

>  <REMARK>
 VINA RESULT:      -6.0      3.715     10.217
  Name = 
  18 active torsions:
  status: ('A' for Active; 'I' for Inactive)
    1  A    between atoms: C_1  and  C_22
    2  A    between atoms: C_1  and  C_29
    3  A    between atoms: C_1  and  C_43
    4  A    between atoms: N_3  and  C_22
    5  A    between atoms: N_3  and  C_42
    6  A    between atoms: C_6  and  C_21
    7  A    between atoms: C_6  and  C_43
    8  A    between atoms: C_12  and  C_29
    9  A    between atoms: S_14  and  C_36
   10  A    between atoms: S_14  and  C_41
   11  A    between atoms: N_16  and  N_31
   12  A    between atoms: C_18  and  C_28
   13  A    between atoms: N_19  and  C_40
   14  A    between atoms: C_27  and  C_41
   15  A    between atoms: C_28  and  C_36
   16  A    between atoms: N_31  and  C_44
   17  A    between atoms: O_37  and  C_43
   18  A    between atoms: C_41  and  C_42
                            x       y       z     vdW  Elec       q    Type
                         _______ _______ _______ _____ _____    ______ ____

>  <TORSDO>
F 18

$$$$
=
 OpenBabel10222421203D

 45 49  0  0  1  0  0  0  0  0999 V2000
  190.4720  177.5980  138.2320 C   0  0  0  0  0  2  0  0  0  0  0  0
  190.7120  176.3240  139.0270 C   0  0  0  0  0  2  0  0  0  0  0  0
  189.3600  176.5830  138.3900 C   0  0  0  0  0  0  0  0  0  0  0  0
  188.2940  177.0920  139.2500 N   0  0  0  0  0  2  0  0  0  0  0  0
  188.7020  178.3710  139.8140 C   0  0  0  0  0  2  0  0  0  0  0  0
  188.4430  178.4070  141.3100 C   0  0  1  0  0  3  0  0  0  0  0  0
  186.1990  179.2540  140.8530 N   0  0  0  0  0  0  0  0  0  0  0  0
  184.9340  178.2190  142.5590 N   0  0  0  0  0  0  0  0  0  0  0  0
  186.2930  177.8810  142.6150 N   0  0  0  0  0  2  0  0  0  0  0  0
  186.9810  178.5630  141.5920 C   0  0  0  0  0  0  0  0  0  0  0  0
  184.8480  179.0960  141.3830 C   0  0  0  0  0  2  0  0  0  0  0  0
  184.6710  179.0180  143.6750 N   0  0  0  0  0  2  0  0  0  0  0  0
  185.6800  179.3520  145.8480 C   0  0  0  0  0  2  0  0  0  0  0  0
  184.3650  178.6290  146.0430 C   0  0  0  0  0  2  0  0  0  0  0  0
  185.2190  178.3300  144.8300 C   0  0  0  0  0  3  0  0  0  0  0  0
  189.0930  176.8880  142.0770 S   0  0  0  0  0  0  0  0  0  0  0  0
  191.5150  177.8930  142.0300 O   0  0  0  0  0  0  0  0  0  0  0  0
  190.5420  177.7100  142.7420 C   0  0  0  0  0  0  0  0  0  0  0  0
  190.5470  178.1670  144.1670 C   0  0  0  0  0  2  0  0  0  0  0  0
  189.8690  176.7500  145.9580 F   0  0  0  0  0  0  0  0  0  0  0  0
  191.3000  175.9190  144.4200 F   0  0  0  0  0  0  0  0  0  0  0  0
  192.0100  177.4640  145.9010 F   0  0  0  0  0  0  0  0  0  0  0  0
  190.9360  177.0510  145.1270 C   0  0  0  0  0  0  0  0  0  0  0  0
  189.0040  175.8820  137.0780 C   0  0  2  0  0  3  0  0  0  0  0  0
  188.5950  174.4170  137.2610 C   0  0  0  0  0  2  0  0  0  0  0  0
  187.3230  174.1170  136.4820 C   0  0  1  0  0  3  0  0  0  0  0  0
  186.0630  172.2460  135.5440 C   0  0  0  0  0  2  0  0  0  0  0  0
  184.6710  172.6300  135.7140 N   0  0  0  0  0  0  0  0  0  0  0  0
  186.8870  172.6850  136.7340 C   0  0  0  0  0  2  0  0  0  0  0  0
  183.1050  174.3100  135.3170 O   0  0  0  0  0  0  0  0  0  0  0  0
  184.2350  174.0030  135.7840 C   0  0  0  0  0  0  0  0  0  0  0  0
  186.2640  175.1010  136.8590 C   0  0  0  0  0  3  0  0  0  0  0  0
  184.9720  175.0550  136.5150 C   0  0  0  0  0  3  0  0  0  0  0  0
  183.0840  171.1460  136.8360 C   0  0  0  0  0  1  0  0  0  0  0  0
  183.6900  171.5710  135.5130 C   0  0  0  0  0  2  0  0  0  0  0  0
  189.9950  176.1600  135.9310 C   0  0  2  0  0  3  0  0  0  0  0  0
  188.4590  177.6100  135.2750 C   0  0  0  0  0  1  0  0  0  0  0  0
  189.2790  176.5810  134.8120 O   0  0  0  0  0  0  0  0  0  0  0  0
  190.8460  174.9550  135.5320 C   0  0  0  0  0  2  0  0  0  0  0  0
  194.3790  176.1400  136.1360 C   0  0  0  0  0  3  0  0  0  0  0  0
  192.2320  175.0450  136.0650 C   0  0  0  0  0  0  0  0  0  0  0  0
  194.7770  175.2810  137.1110 N   0  0  0  0  0  0  0  0  0  0  0  0
  192.6560  174.1790  137.0760 C   0  0  0  0  0  3  0  0  0  0  0  0
  193.9500  174.3100  137.5860 C   0  0  0  0  0  3  0  0  0  0  0  0
  193.0940  176.0390  135.5960 C   0  0  0  0  0  3  0  0  0  0  0  0
  1  3  1  0  0  0  0
  1  2  1  0  0  0  0
  3  2  1  0  0  0  0
  3  4  1  0  0  0  0
  4  5  1  0  0  0  0
  6  5  1  6  0  0  0
  6 10  1  0  0  0  0
  6 16  1  0  0  0  0
  7 11  1  0  0  0  0
  7 10  2  0  0  0  0
  8  9  1  0  0  0  0
  8 12  1  0  0  0  0
 10  9  1  0  0  0  0
 11  8  1  0  0  0  0
 12 15  1  0  0  0  0
 13 14  1  0  0  0  0
 15 13  1  0  0  0  0
 15 14  1  0  0  0  0
 16 18  1  0  0  0  0
 17 18  2  0  0  0  0
 18 19  1  0  0  0  0
 19 23  1  0  0  0  0
 21 23  1  0  0  0  0
 23 22  1  0  0  0  0
 23 20  1  0  0  0  0
 24 25  1  1  0  0  0
 24  3  1  0  0  0  0
 26 29  1  0  0  0  0
 26 32  1  0  0  0  0
 26 25  1  1  0  0  0
 27 28  1  0  0  0  0
 27 29  1  0  0  0  0
 28 31  1  0  0  0  0
 30 31  2  0  0  0  0
 31 33  1  0  0  0  0
 33 32  2  0  0  0  0
 35 28  1  0  0  0  0
 35 34  1  0  0  0  0
 36 39  1  6  0  0  0
 36 24  1  0  0  0  0
 38 37  1  0  0  0  0
 38 36  1  0  0  0  0
 39 41  1  0  0  0  0
 40 42  1  0  0  0  0
 41 43  2  0  0  0  0
 42 44  2  0  0  0  0
 43 44  1  0  0  0  0
 45 41  1  0  0  0  0
 45 40  2  0  0  0  0
M  END
>  <MODEL>
7

>  <REMARK>
 VINA RESULT:      -6.0      2.540      5.610
  Name = 
  18 active torsions:
  status: ('A' for Active; 'I' for Inactive)
    1  A    between atoms: C_1  and  C_22
    2  A    between atoms: C_1  and  C_29
    3  A    between atoms: C_1  and  C_43
    4  A    between atoms: N_3  and  C_22
    5  A    between atoms: N_3  and  C_42
    6  A    between atoms: C_6  and  C_21
    7  A    between atoms: C_6  and  C_43
    8  A    between atoms: C_12  and  C_29
    9  A    between atoms: S_14  and  C_36
   10  A    between atoms: S_14  and  C_41
   11  A    between atoms: N_16  and  N_31
   12  A    between atoms: C_18  and  C_28
   13  A    between atoms: N_19  and  C_40
   14  A    between atoms: C_27  and  C_41
   15  A    between atoms: C_28  and  C_36
   16  A    between atoms: N_31  and  C_44
   17  A    between atoms: O_37  and  C_43
   18  A    between atoms: C_41  and  C_42
                            x       y       z     vdW  Elec       q    Type
                         _______ _______ _______ _____ _____    ______ ____

>  <TORSDO>
F 18

$$$$
=
 OpenBabel10222421203D

 45 49  0  0  1  0  0  0  0  0999 V2000
  190.6530  176.2590  139.9130 C   0  0  0  0  0  2  0  0  0  0  0  0
  191.2130  177.6720  139.9420 C   0  0  0  0  0  2  0  0  0  0  0  0
  189.7130  177.4460  139.9380 C   0  0  0  0  0  0  0  0  0  0  0  0
  189.0110  177.5950  138.6650 N   0  0  0  0  0  2  0  0  0  0  0  0
  189.9190  177.2630  137.5750 C   0  0  0  0  0  2  0  0  0  0  0  0
  189.3300  176.1720  136.6970 C   0  0  1  0  0  3  0  0  0  0  0  0
  187.9160  177.5180  135.2320 N   0  0  0  0  0  0  0  0  0  0  0  0
  185.7760  176.6100  135.6550 N   0  0  0  0  0  0  0  0  0  0  0  0
  186.7840  175.9870  136.4030 N   0  0  0  0  0  2  0  0  0  0  0  0
  188.0180  176.6060  136.1210 C   0  0  0  0  0  0  0  0  0  0  0  0
  186.5080  177.5990  134.8510 C   0  0  0  0  0  2  0  0  0  0  0  0
  184.9900  177.3300  136.5580 N   0  0  0  0  0  2  0  0  0  0  0  0
  182.5850  177.5650  136.6480 C   0  0  0  0  0  2  0  0  0  0  0  0
  182.9320  176.7080  135.4500 C   0  0  0  0  0  2  0  0  0  0  0  0
  183.7470  176.5980  136.7200 C   0  0  0  0  0  3  0  0  0  0  0  0
  190.5110  175.7510  135.3760 S   0  0  0  0  0  0  0  0  0  0  0  0
  190.8680  174.0330  137.3250 O   0  0  0  0  0  0  0  0  0  0  0  0
  191.4300  174.6080  136.4080 C   0  0  0  0  0  0  0  0  0  0  0  0
  192.8820  174.3660  136.1370 C   0  0  0  0  0  2  0  0  0  0  0  0
  195.0260  175.1970  136.7600 F   0  0  0  0  0  0  0  0  0  0  0  0
  193.2100  176.0210  137.8220 F   0  0  0  0  0  0  0  0  0  0  0  0
  193.8980  173.9140  138.2360 F   0  0  0  0  0  0  0  0  0  0  0  0
  193.7710  174.8890  137.2590 C   0  0  0  0  0  0  0  0  0  0  0  0
  188.9340  177.5610  141.2500 C   0  0  2  0  0  3  0  0  0  0  0  0
  188.0440  178.8050  141.3230 C   0  0  0  0  0  2  0  0  0  0  0  0
  186.5760  178.4080  141.3660 C   0  0  1  0  0  3  0  0  0  0  0  0
  184.6870  178.2670  142.9080 C   0  0  0  0  0  2  0  0  0  0  0  0
  183.5330  178.6110  142.0940 N   0  0  0  0  0  0  0  0  0  0  0  0
  185.8830  179.1070  142.5210 C   0  0  0  0  0  2  0  0  0  0  0  0
  182.3840  178.1210  140.1260 O   0  0  0  0  0  0  0  0  0  0  0  0
  183.4860  178.4110  140.6670 C   0  0  0  0  0  0  0  0  0  0  0  0
  185.9360  178.7240  140.0530 C   0  0  0  0  0  3  0  0  0  0  0  0
  184.6300  178.6770  139.7690 C   0  0  0  0  0  3  0  0  0  0  0  0
  182.5510  178.8760  144.3190 C   0  0  0  0  0  1  0  0  0  0  0  0
  182.3030  178.8980  142.8230 C   0  0  0  0  0  2  0  0  0  0  0  0
  189.7790  177.2690  142.5060 C   0  0  2  0  0  3  0  0  0  0  0  0
  190.4090  175.2480  143.1460 C   0  0  0  0  0  1  0  0  0  0  0  0
  189.3070  176.1010  143.1020 O   0  0  0  0  0  0  0  0  0  0  0  0
  189.7560  178.3850  143.5500 C   0  0  0  0  0  2  0  0  0  0  0  0
  189.7220  177.1380  147.1120 C   0  0  0  0  0  3  0  0  0  0  0  0
  189.2710  177.9070  144.8720 C   0  0  0  0  0  0  0  0  0  0  0  0
  188.3870  177.1070  147.3630 N   0  0  0  0  0  0  0  0  0  0  0  0
  187.9020  177.8810  145.1540 C   0  0  0  0  0  3  0  0  0  0  0  0
  187.4760  177.4650  146.4180 C   0  0  0  0  0  3  0  0  0  0  0  0
  190.1890  177.5430  145.8600 C   0  0  0  0  0  3  0  0  0  0  0  0
  1  3  1  0  0  0  0
  1  2  1  0  0  0  0
  3  2  1  0  0  0  0
  3 24  1  0  0  0  0
  4  3  1  0  0  0  0
  5  4  1  0  0  0  0
  6  5  1  6  0  0  0
  7 10  2  0  0  0  0
  8  9  1  0  0  0  0
  8 12  1  0  0  0  0
 10  9  1  0  0  0  0
 10  6  1  0  0  0  0
 11  7  1  0  0  0  0
 11  8  1  0  0  0  0
 12 15  1  0  0  0  0
 13 15  1  0  0  0  0
 14 13  1  0  0  0  0
 14 15  1  0  0  0  0
 16 18  1  0  0  0  0
 16  6  1  0  0  0  0
 18 17  2  0  0  0  0
 19 18  1  0  0  0  0
 19 23  1  0  0  0  0
 20 23  1  0  0  0  0
 23 21  1  0  0  0  0
 23 22  1  0  0  0  0
 24 25  1  1  0  0  0
 24 36  1  0  0  0  0
 26 25  1  6  0  0  0
 26 29  1  0  0  0  0
 28 35  1  0  0  0  0
 28 27  1  0  0  0  0
 29 27  1  0  0  0  0
 30 31  2  0  0  0  0
 31 28  1  0  0  0  0
 32 26  1  0  0  0  0
 33 32  2  0  0  0  0
 33 31  1  0  0  0  0
 35 34  1  0  0  0  0
 36 38  1  0  0  0  0
 36 39  1  1  0  0  0
 38 37  1  0  0  0  0
 39 41  1  0  0  0  0
 40 42  1  0  0  0  0
 41 43  2  0  0  0  0
 41 45  1  0  0  0  0
 43 44  1  0  0  0  0
 44 42  2  0  0  0  0
 45 40  2  0  0  0  0
M  END
>  <MODEL>
8

>  <REMARK>
 VINA RESULT:      -6.0      3.668      9.225
  Name = 
  18 active torsions:
  status: ('A' for Active; 'I' for Inactive)
    1  A    between atoms: C_1  and  C_22
    2  A    between atoms: C_1  and  C_29
    3  A    between atoms: C_1  and  C_43
    4  A    between atoms: N_3  and  C_22
    5  A    between atoms: N_3  and  C_42
    6  A    between atoms: C_6  and  C_21
    7  A    between atoms: C_6  and  C_43
    8  A    between atoms: C_12  and  C_29
    9  A    between atoms: S_14  and  C_36
   10  A    between atoms: S_14  and  C_41
   11  A    between atoms: N_16  and  N_31
   12  A    between atoms: C_18  and  C_28
   13  A    between atoms: N_19  and  C_40
   14  A    between atoms: C_27  and  C_41
   15  A    between atoms: C_28  and  C_36
   16  A    between atoms: N_31  and  C_44
   17  A    between atoms: O_37  and  C_43
   18  A    between atoms: C_41  and  C_42
                            x       y       z     vdW  Elec       q    Type
                         _______ _______ _______ _____ _____    ______ ____

>  <TORSDO>
F 18

$$$$
=
 OpenBabel10222421203D

 45 49  0  0  1  0  0  0  0  0999 V2000
  189.4520  177.6200  136.1930 C   0  0  0  0  0  2  0  0  0  0  0  0
  188.8990  178.6670  137.1480 C   0  0  0  0  0  2  0  0  0  0  0  0
  188.7840  177.1910  137.4830 C   0  0  0  0  0  0  0  0  0  0  0  0
  187.5030  176.5380  137.2270 N   0  0  0  0  0  2  0  0  0  0  0  0
  186.4310  177.5160  137.3580 C   0  0  0  0  0  2  0  0  0  0  0  0
  185.0750  176.8330  137.3470 C   0  0  1  0  0  3  0  0  0  0  0  0
  183.3190  177.0390  139.0310 N   0  0  0  0  0  0  0  0  0  0  0  0
  183.0050  179.3790  139.1200 N   0  0  0  0  0  0  0  0  0  0  0  0
  183.9880  179.0010  138.1960 N   0  0  0  0  0  2  0  0  0  0  0  0
  184.0900  177.5960  138.1770 C   0  0  0  0  0  0  0  0  0  0  0  0
  182.5770  178.1010  139.7050 C   0  0  0  0  0  2  0  0  0  0  0  0
  181.9220  179.8640  138.3810 N   0  0  0  0  0  2  0  0  0  0  0  0
  180.9030  181.9500  137.7030 C   0  0  0  0  0  2  0  0  0  0  0  0
  180.2720  181.5170  139.0090 C   0  0  0  0  0  2  0  0  0  0  0  0
  181.7400  181.2550  138.7560 C   0  0  0  0  0  3  0  0  0  0  0  0
  184.4880  176.6720  135.6290 S   0  0  0  0  0  0  0  0  0  0  0  0
  182.9090  174.5780  135.6780 O   0  0  0  0  0  0  0  0  0  0  0  0
  184.0660  174.9400  135.8180 C   0  0  0  0  0  0  0  0  0  0  0  0
  185.1370  173.9460  136.1450 C   0  0  0  0  0  2  0  0  0  0  0  0
  184.1780  173.9660  138.3260 F   0  0  0  0  0  0  0  0  0  0  0  0
  184.0030  172.0780  137.0980 F   0  0  0  0  0  0  0  0  0  0  0  0
  185.9970  172.6800  137.9610 F   0  0  0  0  0  0  0  0  0  0  0  0
  184.8180  173.1520  137.4050 C   0  0  0  0  0  0  0  0  0  0  0  0
  189.7630  176.5720  138.4820 C   0  0  2  0  0  3  0  0  0  0  0  0
  190.0940  177.4920  139.6620 C   0  0  0  0  0  2  0  0  0  0  0  0
  189.1580  177.2180  140.8300 C   0  0  1  0  0  3  0  0  0  0  0  0
  189.1610  176.3130  143.0990 C   0  0  0  0  0  2  0  0  0  0  0  0
  188.1840  177.1220  143.8090 N   0  0  0  0  0  0  0  0  0  0  0  0
  189.9480  177.1600  142.1240 C   0  0  0  0  0  2  0  0  0  0  0  0
  185.9910  177.9110  143.7760 O   0  0  0  0  0  0  0  0  0  0  0  0
  187.0810  177.7800  143.1550 C   0  0  0  0  0  0  0  0  0  0  0  0
  188.0920  178.2640  140.8690 C   0  0  0  0  0  3  0  0  0  0  0  0
  187.1960  178.4550  141.8440 C   0  0  0  0  0  3  0  0  0  0  0  0
  189.2030  177.9520  145.8720 C   0  0  0  0  0  1  0  0  0  0  0  0
  188.1920  177.0000  145.2620 C   0  0  0  0  0  2  0  0  0  0  0  0
  190.9680  175.8700  137.8250 C   0  0  2  0  0  3  0  0  0  0  0  0
  190.4200  173.9700  136.8330 C   0  0  0  0  0  1  0  0  0  0  0  0
  190.8610  174.4970  138.0460 O   0  0  0  0  0  0  0  0  0  0  0  0
  192.3260  176.3370  138.3450 C   0  0  0  0  0  2  0  0  0  0  0  0
  195.4270  174.4500  137.3110 C   0  0  0  0  0  3  0  0  0  0  0  0
  193.4520  175.8160  137.5240 C   0  0  0  0  0  0  0  0  0  0  0  0
  195.4950  174.7670  135.9910 N   0  0  0  0  0  0  0  0  0  0  0  0
  193.5320  176.1200  136.1630 C   0  0  0  0  0  3  0  0  0  0  0  0
  194.5780  175.5860  135.4070 C   0  0  0  0  0  3  0  0  0  0  0  0
  194.3990  174.9670  138.1020 C   0  0  0  0  0  3  0  0  0  0  0  0
  1  2  1  0  0  0  0
  1  3  1  0  0  0  0
  2  3  1  0  0  0  0
  3 24  1  0  0  0  0
  4  5  1  0  0  0  0
  4  3  1  0  0  0  0
  6  5  1  6  0  0  0
  6 10  1  0  0  0  0
  7 11  1  0  0  0  0
  8 11  1  0  0  0  0
  9  8  1  0  0  0  0
 10  9  1  0  0  0  0
 10  7  2  0  0  0  0
 12 15  1  0  0  0  0
 12  8  1  0  0  0  0
 13 15  1  0  0  0  0
 13 14  1  0  0  0  0
 15 14  1  0  0  0  0
 16 18  1  0  0  0  0
 16  6  1  0  0  0  0
 17 18  2  0  0  0  0
 18 19  1  0  0  0  0
 19 23  1  0  0  0  0
 21 23  1  0  0  0  0
 23 22  1  0  0  0  0
 23 20  1  0  0  0  0
 24 25  1  1  0  0  0
 26 25  1  6  0  0  0
 26 32  1  0  0  0  0
 26 29  1  0  0  0  0
 27 28  1  0  0  0  0
 28 35  1  0  0  0  0
 29 27  1  0  0  0  0
 31 30  2  0  0  0  0
 31 28  1  0  0  0  0
 32 33  2  0  0  0  0
 33 31  1  0  0  0  0
 35 34  1  0  0  0  0
 36 38  1  0  0  0  0
 36 39  1  1  0  0  0
 36 24  1  0  0  0  0
 37 38  1  0  0  0  0
 40 45  1  0  0  0  0
 41 45  2  0  0  0  0
 41 39  1  0  0  0  0
 42 40  2  0  0  0  0
 43 41  1  0  0  0  0
 44 42  1  0  0  0  0
 44 43  2  0  0  0  0
M  END
>  <MODEL>
9

>  <REMARK>
 VINA RESULT:      -5.9      4.176      7.982
  Name = 
  18 active torsions:
  status: ('A' for Active; 'I' for Inactive)
    1  A    between atoms: C_1  and  C_22
    2  A    between atoms: C_1  and  C_29
    3  A    between atoms: C_1  and  C_43
    4  A    between atoms: N_3  and  C_22
    5  A    between atoms: N_3  and  C_42
    6  A    between atoms: C_6  and  C_21
    7  A    between atoms: C_6  and  C_43
    8  A    between atoms: C_12  and  C_29
    9  A    between atoms: S_14  and  C_36
   10  A    between atoms: S_14  and  C_41
   11  A    between atoms: N_16  and  N_31
   12  A    between atoms: C_18  and  C_28
   13  A    between atoms: N_19  and  C_40
   14  A    between atoms: C_27  and  C_41
   15  A    between atoms: C_28  and  C_36
   16  A    between atoms: N_31  and  C_44
   17  A    between atoms: O_37  and  C_43
   18  A    between atoms: C_41  and  C_42
                            x       y       z     vdW  Elec       q    Type
                         _______ _______ _______ _____ _____    ______ ____

>  <TORSDO>
F 18

$$$$
