=
 OpenBabel10222418033D

 58 66  0  0  1  0  0  0  0  0999 V2000
  189.2150  176.8520  139.5960 C   0  0  1  0  0  3  0  0  0  0  0  0
  191.1380  177.9060  140.5570 O   0  0  0  0  0  0  0  0  0  0  0  0
  192.2310  177.5610  141.4120 C   0  0  0  0  0  2  0  0  0  0  0  0
  190.5290  177.5500  143.1820 C   0  0  0  0  0  3  0  0  0  0  0  0
  189.4330  177.5750  142.0870 C   0  0  1  0  0  3  0  0  0  0  0  0
  191.8260  177.5970  142.8420 C   0  0  0  0  0  3  0  0  0  0  0  0
  190.0970  177.0150  140.8150 C   0  0  1  0  0  3  0  0  0  0  0  0
  188.1220  176.9860  142.4430 O   0  0  0  0  0  0  0  0  0  0  0  0
  187.4440  177.7090  145.4300 C   0  0  0  0  0  0  0  0  0  0  0  0
  187.0190  177.7760  142.8560 C   0  0  0  0  0  0  0  0  0  0  0  0
  185.0190  178.9880  142.1660 C   0  0  0  0  0  3  0  0  0  0  0  0
  186.6750  178.0550  144.2670 C   0  0  0  0  0  0  0  0  0  0  0  0
  187.8060  177.4730  147.7760 C   0  0  0  0  0  2  0  0  0  0  0  0
  184.9670  178.9410  145.7980 C   0  0  0  0  0  3  0  0  0  0  0  0
  186.1880  178.3010  141.8890 C   0  0  0  0  0  3  0  0  0  0  0  0
  190.0940  177.3810  147.5440 O   0  0  0  0  0  1  0  0  0  0  0  0
  185.6890  178.5480  146.9050 C   0  0  0  0  0  3  0  0  0  0  0  0
  186.9200  177.9390  146.6890 C   0  0  0  0  0  0  0  0  0  0  0  0
  188.7900  177.1140  145.5560 C   0  0  0  0  0  2  0  0  0  0  0  0
  185.4480  178.7170  144.5100 C   0  0  0  0  0  0  0  0  0  0  0  0
  188.9620  176.8270  147.0670 C   0  0  2  0  0  3  0  0  0  0  0  0
  184.6240  179.1750  143.4790 C   0  0  0  0  0  3  0  0  0  0  0  0
  188.3950  178.0600  139.2440 C   0  0  0  0  0  2  0  0  0  0  0  0
  187.6430  177.9240  137.9920 N   0  0  0  0  0  0  0  0  0  0  0  0
  188.7400  178.5440  136.0600 C   0  0  0  0  0  0  0  0  0  0  0  0
  187.8790  179.0210  137.0590 C   0  0  2  0  0  3  0  0  0  0  0  0
  189.1250  179.5450  137.1250 O   0  0  0  0  0  0  0  0  0  0  0  0
  188.9650  177.7420  135.0980 O   0  0  0  0  0  0  0  0  0  0  0  0
  185.9870  176.2950  137.2940 C   0  0  0  0  0  2  0  0  0  0  0  0
  185.1480  177.4760  136.9770 C   0  0  2  0  0  3  0  0  0  0  0  0
  186.1470  177.4540  138.2000 C   0  0  2  0  0  3  0  0  0  0  0  0
  183.7520  176.7980  137.2300 C   0  0  1  0  0  3  0  0  0  0  0  0
  181.0680  175.6190  137.9800 C   0  0  1  0  0  3  0  0  0  0  0  0
  182.7470  177.5070  137.9360 O   0  0  0  0  0  0  0  0  0  0  0  0
  183.4550  173.9790  135.8660 O   0  0  0  0  0  0  0  0  0  0  0  0
  179.1020  174.4170  141.0430 C   0  0  0  0  0  1  0  0  0  0  0  0
  180.1040  174.8290  138.8660 C   0  0  0  0  0  3  0  0  0  0  0  0
  180.7380  177.5140  139.5130 C   0  0  2  0  0  3  0  0  0  0  0  0
  180.3770  176.5310  140.5440 O   0  0  0  0  0  0  0  0  0  0  0  0
  181.5530  176.8010  138.3710 C   0  0  2  0  0  3  0  0  0  0  0  0
  183.2970  176.2470  136.0930 O   0  0  0  0  0  0  0  0  0  0  0  0
  180.6740  173.7180  136.3370 C   0  0  0  0  0  1  0  0  0  0  0  0
  182.7290  174.9980  136.1930 C   0  0  0  0  0  0  0  0  0  0  0  0
  181.5020  174.8330  136.8090 N   0  0  0  0  0  0  0  0  0  0  0  0
  179.9070  175.3040  140.0970 C   0  0  0  0  0  0  0  0  0  0  0  0
  181.2730  178.7720  140.0770 C   0  0  0  0  0  2  0  0  0  0  0  0
  180.4890  179.2190  141.1470 O   0  0  0  0  0  1  0  0  0  0  0  0
  189.7780  175.8790  138.5390 C   0  0  0  0  0  2  0  0  0  0  0  0
  190.7790  176.4400  137.6360 N   0  0  0  0  0  2  0  0  0  0  0  0
  191.9310  175.5450  137.4980 C   0  0  0  0  0  2  0  0  0  0  0  0
  193.2090  176.4170  137.6040 C   0  0  1  0  0  3  0  0  0  0  0  0
  193.9130  176.3250  138.7650 O   0  0  0  0  0  0  0  0  0  0  0  0
  194.3970  175.6810  137.6130 N   0  0  0  0  0  0  0  0  0  0  0  0
  194.5950  174.2790  138.1020 C   0  0  0  0  0  2  0  0  0  0  0  0
  195.9110  173.7440  137.7730 C   0  0  0  0  0  2  0  0  0  0  0  0
  196.7620  174.6990  136.9330 C   0  0  0  0  0  2  0  0  0  0  0  0
  198.7560  174.3110  137.8120 C   0  0  0  0  0  1  0  0  0  0  0  0
  197.7840  175.2910  137.6890 O   0  0  0  0  0  0  0  0  0  0  0  0
  1 48  1  6  0  0  0
  2  7  1  0  0  0  0
  2  3  1  0  0  0  0
  3  6  1  0  0  0  0
  5  8  1  1  0  0  0
  5  4  1  0  0  0  0
  6  4  2  0  0  0  0
  7  1  1  6  0  0  0
  7  5  1  0  0  0  0
  8 10  1  0  0  0  0
  9 19  1  0  0  0  0
  9 18  1  0  0  0  0
 10 12  1  0  0  0  0
 11 22  2  0  0  0  0
 12 20  1  0  0  0  0
 12  9  2  0  0  0  0
 14 17  1  0  0  0  0
 15 11  1  0  0  0  0
 15 10  2  0  0  0  0
 18 17  2  0  0  0  0
 18 13  1  0  0  0  0
 19 21  1  0  0  0  0
 20 14  2  0  0  0  0
 21 16  1  1  0  0  0
 21 13  1  0  0  0  0
 22 20  1  0  0  0  0
 23  1  1  0  0  0  0
 24 23  1  0  0  0  0
 25 26  1  0  0  0  0
 25 27  1  0  0  0  0
 26 27  1  0  0  0  0
 26 24  1  1  0  0  0
 28 25  2  0  0  0  0
 29 31  1  0  0  0  0
 30 32  1  0  0  0  0
 30 29  1  6  0  0  0
 30 31  1  0  0  0  0
 31 24  1  6  0  0  0
 32 41  1  6  0  0  0
 32 34  1  0  0  0  0
 33 40  1  0  0  0  0
 33 37  1  1  0  0  0
 35 43  2  0  0  0  0
 37 45  2  0  0  0  0
 38 46  1  1  0  0  0
 38 39  1  0  0  0  0
 40 34  1  1  0  0  0
 40 38  1  0  0  0  0
 41 43  1  0  0  0  0
 42 44  1  0  0  0  0
 43 44  1  0  0  0  0
 44 33  1  0  0  0  0
 45 39  1  0  0  0  0
 45 36  1  0  0  0  0
 46 47  1  0  0  0  0
 49 48  1  0  0  0  0
 50 49  1  0  0  0  0
 51 50  1  1  0  0  0
 51 53  1  0  0  0  0
 51 52  1  0  0  0  0
 53 54  1  0  0  0  0
 53 52  1  0  0  0  0
 55 54  1  0  0  0  0
 56 58  1  0  0  0  0
 56 55  1  0  0  0  0
 58 57  1  0  0  0  0
M  END
>  <MODEL>
1

>  <REMARK>
 VINA RESULT:      -9.0      0.000      0.000
  Name = 
  17 active torsions:
  status: ('A' for Active; 'I' for Inactive)
    1  A    between atoms: C_2  and  C_26
    2  A    between atoms: C_3  and  O_14
    3  A    between atoms: C_5  and  C_29
    4  A    between atoms: C_10  and  N_44
    5  A    between atoms: C_13  and  C_49
    6  A    between atoms: O_14  and  C_38
    7  A    between atoms: C_22  and  C_30
    8  A    between atoms: C_22  and  O_45
    9  A    between atoms: C_30  and  C_31
   10  A    between atoms: C_31  and  N_48
   11  A    between atoms: N_32  and  C_36
   12  A    between atoms: N_32  and  C_49
   13  A    between atoms: C_36  and  C_53
   14  A    between atoms: N_44  and  C_51
   15  A    between atoms: N_44  and  C_52
   16  A    between atoms: C_52  and  C_53
   17  A    between atoms: C_53  and  C_58
                            x       y       z     vdW  Elec       q    Type
                         _______ _______ _______ _____ _____    ______ ____

>  <TORSDO>
F 17

$$$$
=
 OpenBabel10222418033D

 58 66  0  0  1  0  0  0  0  0999 V2000
  188.7170  176.8370  139.0490 C   0  0  1  0  0  3  0  0  0  0  0  0
  190.7960  177.8590  139.6560 O   0  0  0  0  0  0  0  0  0  0  0  0
  192.0270  177.4880  140.2810 C   0  0  0  0  0  2  0  0  0  0  0  0
  190.6880  177.4400  142.3390 C   0  0  0  0  0  3  0  0  0  0  0  0
  189.4060  177.4970  141.4710 C   0  0  1  0  0  3  0  0  0  0  0  0
  191.8990  177.4890  141.7620 C   0  0  0  0  0  3  0  0  0  0  0  0
  189.8130  176.9660  140.0840 C   0  0  1  0  0  3  0  0  0  0  0  0
  188.1810  176.9040  142.0540 O   0  0  0  0  0  0  0  0  0  0  0  0
  187.9270  177.5640  145.1200 C   0  0  0  0  0  0  0  0  0  0  0  0
  187.1540  177.6940  142.6310 C   0  0  0  0  0  0  0  0  0  0  0  0
  185.0910  178.9360  142.2490 C   0  0  0  0  0  3  0  0  0  0  0  0
  187.0090  177.9430  144.0820 C   0  0  0  0  0  0  0  0  0  0  0  0
  188.6040  177.2730  147.3890 C   0  0  0  0  0  2  0  0  0  0  0  0
  185.5380  178.8080  145.8510 C   0  0  0  0  0  3  0  0  0  0  0  0
  186.2030  178.2470  141.7990 C   0  0  0  0  0  3  0  0  0  0  0  0
  190.8380  177.1680  146.8420 O   0  0  0  0  0  1  0  0  0  0  0  0
  186.4000  178.3850  146.8400 C   0  0  0  0  0  3  0  0  0  0  0  0
  187.5830  177.7710  146.4440 C   0  0  0  0  0  0  0  0  0  0  0  0
  189.2710  176.9570  145.0480 C   0  0  0  0  0  2  0  0  0  0  0  0
  185.8340  178.6100  144.5050 C   0  0  0  0  0  0  0  0  0  0  0  0
  189.6450  176.6340  146.5140 C   0  0  2  0  0  3  0  0  0  0  0  0
  184.8830  179.0980  143.6070 C   0  0  0  0  0  3  0  0  0  0  0  0
  188.1220  178.1390  138.5950 C   0  0  0  0  0  2  0  0  0  0  0  0
  187.0120  177.9870  137.6470 N   0  0  0  0  0  0  0  0  0  0  0  0
  187.2430  177.5650  135.3910 C   0  0  0  0  0  0  0  0  0  0  0  0
  187.2830  178.5910  136.3460 C   0  0  2  0  0  3  0  0  0  0  0  0
  188.4970  178.2820  135.8350 O   0  0  0  0  0  0  0  0  0  0  0  0
  186.5880  176.6610  134.7800 O   0  0  0  0  0  0  0  0  0  0  0  0
  184.8740  176.9590  138.1520 C   0  0  0  0  0  2  0  0  0  0  0  0
  184.2950  178.0970  137.3970 C   0  0  2  0  0  3  0  0  0  0  0  0
  185.5900  178.2470  138.2900 C   0  0  2  0  0  3  0  0  0  0  0  0
  182.9280  178.1690  138.1700 C   0  0  1  0  0  3  0  0  0  0  0  0
  180.3640  178.5840  139.7230 C   0  0  1  0  0  3  0  0  0  0  0  0
  182.1570  179.3580  138.1190 O   0  0  0  0  0  0  0  0  0  0  0  0
  182.1080  175.4560  139.5360 O   0  0  0  0  0  0  0  0  0  0  0  0
  178.9770  180.5750  142.6910 C   0  0  0  0  0  1  0  0  0  0  0  0
  179.5390  178.9710  140.9510 C   0  0  0  0  0  3  0  0  0  0  0  0
  180.5260  180.9860  139.2210 C   0  0  2  0  0  3  0  0  0  0  0  0
  180.3020  181.2330  140.6530 O   0  0  0  0  0  0  0  0  0  0  0  0
  181.0220  179.5070  139.0150 C   0  0  2  0  0  3  0  0  0  0  0  0
  182.2010  177.0680  137.9190 O   0  0  0  0  0  0  0  0  0  0  0  0
  179.4730  176.2520  140.2050 C   0  0  0  0  0  1  0  0  0  0  0  0
  181.5580  176.4920  138.9910 C   0  0  0  0  0  0  0  0  0  0  0  0
  180.4760  177.1200  139.5790 N   0  0  0  0  0  0  0  0  0  0  0  0
  179.6440  180.2360  141.3600 C   0  0  0  0  0  0  0  0  0  0  0  0
  181.2750  182.0760  138.5590 C   0  0  0  0  0  2  0  0  0  0  0  0
  180.9600  182.1500  137.1960 O   0  0  0  0  0  1  0  0  0  0  0  0
  188.8660  175.6110  138.1240 C   0  0  0  0  0  2  0  0  0  0  0  0
  190.2280  175.1130  137.9530 N   0  0  0  0  0  2  0  0  0  0  0  0
  190.3190  174.1960  136.8140 C   0  0  0  0  0  2  0  0  0  0  0  0
  191.3600  174.7860  135.8270 C   0  0  1  0  0  3  0  0  0  0  0  0
  192.4540  175.3770  136.3810 O   0  0  0  0  0  0  0  0  0  0  0  0
  192.5770  174.0980  135.8110 N   0  0  0  0  0  0  0  0  0  0  0  0
  193.1970  173.3190  136.9310 C   0  0  0  0  0  2  0  0  0  0  0  0
  194.6200  173.0740  136.7300 C   0  0  0  0  0  2  0  0  0  0  0  0
  195.2340  172.1580  137.7910 C   0  0  0  0  0  2  0  0  0  0  0  0
  196.3720  173.9780  138.3320 C   0  0  0  0  0  1  0  0  0  0  0  0
  195.7270  172.8830  138.8850 O   0  0  0  0  0  0  0  0  0  0  0  0
  1 48  1  6  0  0  0
  2  7  1  0  0  0  0
  2  3  1  0  0  0  0
  3  6  1  0  0  0  0
  5  8  1  1  0  0  0
  5  4  1  0  0  0  0
  6  4  2  0  0  0  0
  7  1  1  6  0  0  0
  7  5  1  0  0  0  0
  8 10  1  0  0  0  0
  9 18  1  0  0  0  0
 10 12  1  0  0  0  0
 11 22  2  0  0  0  0
 12 20  1  0  0  0  0
 12  9  2  0  0  0  0
 14 17  1  0  0  0  0
 15 11  1  0  0  0  0
 15 10  2  0  0  0  0
 18 17  2  0  0  0  0
 18 13  1  0  0  0  0
 19  9  1  0  0  0  0
 19 21  1  0  0  0  0
 20 14  2  0  0  0  0
 21 16  1  1  0  0  0
 21 13  1  0  0  0  0
 22 20  1  0  0  0  0
 23  1  1  0  0  0  0
 24 23  1  0  0  0  0
 25 27  1  0  0  0  0
 25 26  1  0  0  0  0
 26 24  1  1  0  0  0
 27 26  1  0  0  0  0
 28 25  2  0  0  0  0
 29 31  1  0  0  0  0
 30 29  1  1  0  0  0
 30 32  1  0  0  0  0
 30 31  1  0  0  0  0
 31 24  1  6  0  0  0
 32 41  1  6  0  0  0
 33 37  1  1  0  0  0
 34 32  1  0  0  0  0
 37 45  2  0  0  0  0
 38 46  1  1  0  0  0
 38 39  1  0  0  0  0
 39 45  1  0  0  0  0
 40 34  1  1  0  0  0
 40 38  1  0  0  0  0
 40 33  1  0  0  0  0
 41 43  1  0  0  0  0
 43 35  2  0  0  0  0
 43 44  1  0  0  0  0
 44 33  1  0  0  0  0
 44 42  1  0  0  0  0
 45 36  1  0  0  0  0
 47 46  1  0  0  0  0
 49 48  1  0  0  0  0
 50 49  1  0  0  0  0
 51 52  1  0  0  0  0
 51 50  1  1  0  0  0
 53 51  1  0  0  0  0
 53 52  1  0  0  0  0
 53 54  1  0  0  0  0
 55 54  1  0  0  0  0
 55 56  1  0  0  0  0
 56 58  1  0  0  0  0
 57 58  1  0  0  0  0
M  END
>  <MODEL>
2

>  <REMARK>
 VINA RESULT:      -8.3      1.784      2.494
  Name = 
  17 active torsions:
  status: ('A' for Active; 'I' for Inactive)
    1  A    between atoms: C_2  and  C_26
    2  A    between atoms: C_3  and  O_14
    3  A    between atoms: C_5  and  C_29
    4  A    between atoms: C_10  and  N_44
    5  A    between atoms: C_13  and  C_49
    6  A    between atoms: O_14  and  C_38
    7  A    between atoms: C_22  and  C_30
    8  A    between atoms: C_22  and  O_45
    9  A    between atoms: C_30  and  C_31
   10  A    between atoms: C_31  and  N_48
   11  A    between atoms: N_32  and  C_36
   12  A    between atoms: N_32  and  C_49
   13  A    between atoms: C_36  and  C_53
   14  A    between atoms: N_44  and  C_51
   15  A    between atoms: N_44  and  C_52
   16  A    between atoms: C_52  and  C_53
   17  A    between atoms: C_53  and  C_58
                            x       y       z     vdW  Elec       q    Type
                         _______ _______ _______ _____ _____    ______ ____

>  <TORSDO>
F 17

$$$$
=
 OpenBabel10222418033D

 58 66  0  0  1  0  0  0  0  0999 V2000
  183.1500  179.0150  138.4820 C   0  0  1  0  0  3  0  0  0  0  0  0
  181.7600  179.4440  136.5800 O   0  0  0  0  0  0  0  0  0  0  0  0
  180.3680  179.5910  136.2840 C   0  0  0  0  0  2  0  0  0  0  0  0
  180.2860  177.1610  136.6290 C   0  0  0  0  0  3  0  0  0  0  0  0
  181.6990  177.2320  137.2600 C   0  0  1  0  0  3  0  0  0  0  0  0
  179.7080  178.2670  136.1350 C   0  0  0  0  0  3  0  0  0  0  0  0
  181.8710  178.6840  137.7440 C   0  0  1  0  0  3  0  0  0  0  0  0
  182.0440  176.1800  138.2430 O   0  0  0  0  0  0  0  0  0  0  0  0
  183.6370  173.8490  136.8520 C   0  0  0  0  0  0  0  0  0  0  0  0
  181.5840  174.8440  138.1200 C   0  0  0  0  0  0  0  0  0  0  0  0
  179.7550  173.2820  138.5190 C   0  0  0  0  0  3  0  0  0  0  0  0
  182.3140  173.7730  137.4080 C   0  0  0  0  0  0  0  0  0  0  0  0
  185.4750  173.0480  135.5600 C   0  0  0  0  0  2  0  0  0  0  0  0
  182.1810  171.4960  136.4890 C   0  0  0  0  0  3  0  0  0  0  0  0
  180.3640  174.5150  138.6710 C   0  0  0  0  0  3  0  0  0  0  0  0
  186.9790  174.4510  136.5940 O   0  0  0  0  0  1  0  0  0  0  0  0
  183.4270  171.6060  135.9100 C   0  0  0  0  0  3  0  0  0  0  0  0
  184.1280  172.7890  136.1110 C   0  0  0  0  0  0  0  0  0  0  0  0
  184.6560  174.9150  136.9270 C   0  0  0  0  0  2  0  0  0  0  0  0
  181.6380  172.5420  137.2320 C   0  0  0  0  0  0  0  0  0  0  0  0
  185.7840  174.4600  135.9710 C   0  0  2  0  0  3  0  0  0  0  0  0
  180.3740  172.2950  137.7730 C   0  0  0  0  0  3  0  0  0  0  0  0
  182.9570  179.5370  139.8770 C   0  0  0  0  0  2  0  0  0  0  0  0
  182.6410  178.4970  140.8620 N   0  0  0  0  0  0  0  0  0  0  0  0
  180.3500  178.3060  141.0450 C   0  0  0  0  0  0  0  0  0  0  0  0
  181.4840  178.8230  141.6890 C   0  0  2  0  0  3  0  0  0  0  0  0
  180.6810  179.7770  141.1640 O   0  0  0  0  0  0  0  0  0  0  0  0
  179.6970  177.3050  140.6110 O   0  0  0  0  0  0  0  0  0  0  0  0
  183.9880  178.6440  142.8740 C   0  0  0  0  0  2  0  0  0  0  0  0
  185.1220  178.8670  141.9430 C   0  0  2  0  0  3  0  0  0  0  0  0
  183.9160  177.9080  141.5920 C   0  0  2  0  0  3  0  0  0  0  0  0
  186.2440  178.2390  142.8490 C   0  0  1  0  0  3  0  0  0  0  0  0
  188.2820  177.1740  144.8140 C   0  0  1  0  0  3  0  0  0  0  0  0
  185.9270  177.8220  144.1670 O   0  0  0  0  0  0  0  0  0  0  0  0
  188.9930  177.8600  141.3670 O   0  0  0  0  0  0  0  0  0  0  0  0
  190.0860  178.1590  148.0510 C   0  0  0  0  0  1  0  0  0  0  0  0
  189.3560  177.2990  145.8960 C   0  0  0  0  0  3  0  0  0  0  0  0
  186.6180  177.4690  146.6000 C   0  0  2  0  0  3  0  0  0  0  0  0
  187.6610  178.1620  147.3690 O   0  0  0  0  0  0  0  0  0  0  0  0
  187.0040  177.4640  145.0760 C   0  0  2  0  0  3  0  0  0  0  0  0
  186.9220  177.3070  142.1580 O   0  0  0  0  0  0  0  0  0  0  0  0
  190.2060  176.3020  143.3980 C   0  0  0  0  0  1  0  0  0  0  0  0
  188.2900  177.3050  142.3010 C   0  0  0  0  0  0  0  0  0  0  0  0
  188.8700  176.9030  143.4890 N   0  0  0  0  0  0  0  0  0  0  0  0
  188.9770  177.8580  147.0450 C   0  0  0  0  0  0  0  0  0  0  0  0
  185.2500  177.8890  146.9760 C   0  0  0  0  0  2  0  0  0  0  0  0
  185.1210  179.2830  146.9380 O   0  0  0  0  0  1  0  0  0  0  0  0
  184.3580  178.1480  138.0660 C   0  0  0  0  0  2  0  0  0  0  0  0
  185.6700  178.7430  138.2990 N   0  0  0  0  0  2  0  0  0  0  0  0
  186.7410  177.8870  137.7820 C   0  0  0  0  0  2  0  0  0  0  0  0
  187.5710  178.7360  136.7840 C   0  0  1  0  0  3  0  0  0  0  0  0
  188.6170  179.4340  137.3040 O   0  0  0  0  0  0  0  0  0  0  0  0
  188.8680  178.2580  136.5770 N   0  0  0  0  0  0  0  0  0  0  0  0
  189.7130  177.4760  137.5360 C   0  0  0  0  0  2  0  0  0  0  0  0
  190.6250  176.5550  136.8670 C   0  0  0  0  0  2  0  0  0  0  0  0
  190.3030  175.0830  137.1310 C   0  0  0  0  0  2  0  0  0  0  0  0
  192.4360  174.9350  137.7020 C   0  0  0  0  0  1  0  0  0  0  0  0
  191.1690  174.5200  138.0790 O   0  0  0  0  0  0  0  0  0  0  0  0
  1 48  1  1  0  0  0
  1 23  1  0  0  0  0
  2  7  1  0  0  0  0
  3  2  1  0  0  0  0
  4  5  1  0  0  0  0
  5  7  1  0  0  0  0
  5  8  1  1  0  0  0
  6  3  1  0  0  0  0
  6  4  2  0  0  0  0
  7  1  1  6  0  0  0
  9 19  1  0  0  0  0
  9 12  1  0  0  0  0
 10  8  1  0  0  0  0
 10 15  1  0  0  0  0
 11 15  2  0  0  0  0
 12 10  2  0  0  0  0
 13 21  1  0  0  0  0
 13 18  1  0  0  0  0
 14 20  1  0  0  0  0
 17 18  1  0  0  0  0
 17 14  2  0  0  0  0
 18  9  2  0  0  0  0
 20 12  1  0  0  0  0
 20 22  2  0  0  0  0
 21 16  1  1  0  0  0
 21 19  1  0  0  0  0
 22 11  1  0  0  0  0
 23 24  1  0  0  0  0
 25 27  1  0  0  0  0
 25 26  1  0  0  0  0
 26 24  1  6  0  0  0
 27 26  1  0  0  0  0
 28 25  2  0  0  0  0
 30 32  1  0  0  0  0
 30 29  1  1  0  0  0
 31 24  1  6  0  0  0
 31 30  1  0  0  0  0
 31 29  1  0  0  0  0
 32 41  1  6  0  0  0
 32 34  1  0  0  0  0
 33 40  1  0  0  0  0
 33 37  1  6  0  0  0
 35 43  2  0  0  0  0
 37 45  2  0  0  0  0
 38 46  1  6  0  0  0
 38 39  1  0  0  0  0
 40 34  1  1  0  0  0
 40 38  1  0  0  0  0
 41 43  1  0  0  0  0
 42 44  1  0  0  0  0
 43 44  1  0  0  0  0
 44 33  1  0  0  0  0
 45 39  1  0  0  0  0
 45 36  1  0  0  0  0
 47 46  1  0  0  0  0
 48 49  1  0  0  0  0
 50 49  1  0  0  0  0
 51 52  1  0  0  0  0
 51 50  1  1  0  0  0
 53 51  1  0  0  0  0
 53 52  1  0  0  0  0
 53 54  1  0  0  0  0
 55 56  1  0  0  0  0
 55 54  1  0  0  0  0
 56 58  1  0  0  0  0
 57 58  1  0  0  0  0
M  END
>  <MODEL>
3

>  <REMARK>
 VINA RESULT:      -7.7      2.451      9.181
  Name = 
  17 active torsions:
  status: ('A' for Active; 'I' for Inactive)
    1  A    between atoms: C_2  and  C_26
    2  A    between atoms: C_3  and  O_14
    3  A    between atoms: C_5  and  C_29
    4  A    between atoms: C_10  and  N_44
    5  A    between atoms: C_13  and  C_49
    6  A    between atoms: O_14  and  C_38
    7  A    between atoms: C_22  and  C_30
    8  A    between atoms: C_22  and  O_45
    9  A    between atoms: C_30  and  C_31
   10  A    between atoms: C_31  and  N_48
   11  A    between atoms: N_32  and  C_36
   12  A    between atoms: N_32  and  C_49
   13  A    between atoms: C_36  and  C_53
   14  A    between atoms: N_44  and  C_51
   15  A    between atoms: N_44  and  C_52
   16  A    between atoms: C_52  and  C_53
   17  A    between atoms: C_53  and  C_58
                            x       y       z     vdW  Elec       q    Type
                         _______ _______ _______ _____ _____    ______ ____

>  <TORSDO>
F 17

$$$$
=
 OpenBabel10222418033D

 58 66  0  0  1  0  0  0  0  0999 V2000
  185.3530  178.2850  138.9810 C   0  0  1  0  0  3  0  0  0  0  0  0
  187.7410  178.4090  138.8440 O   0  0  0  0  0  0  0  0  0  0  0  0
  188.7370  178.8430  137.9140 C   0  0  0  0  0  2  0  0  0  0  0  0
  188.1060  176.8240  136.6670 C   0  0  0  0  0  3  0  0  0  0  0  0
  186.8520  176.6950  137.5670 C   0  0  1  0  0  3  0  0  0  0  0  0
  188.9970  177.8050  136.8820 C   0  0  0  0  0  3  0  0  0  0  0  0
  186.5860  178.1070  138.1220 C   0  0  1  0  0  3  0  0  0  0  0  0
  185.6820  176.0000  136.9840 O   0  0  0  0  0  0  0  0  0  0  0  0
  183.1690  174.1060  136.9550 C   0  0  0  0  0  0  0  0  0  0  0  0
  185.7070  174.6240  136.6400 C   0  0  0  0  0  0  0  0  0  0  0  0
  187.0860  172.7140  136.0110 C   0  0  0  0  0  3  0  0  0  0  0  0
  184.5300  173.7300  136.6930 C   0  0  0  0  0  0  0  0  0  0  0  0
  180.8690  173.6710  137.4140 C   0  0  0  0  0  2  0  0  0  0  0  0
  183.7530  171.3990  136.6100 C   0  0  0  0  0  3  0  0  0  0  0  0
  186.9080  174.0640  136.2580 C   0  0  0  0  0  3  0  0  0  0  0  0
  180.2080  175.7790  136.7660 O   0  0  0  0  0  1  0  0  0  0  0  0
  182.4620  171.7690  136.9220 C   0  0  0  0  0  3  0  0  0  0  0  0
  182.2030  173.1250  137.0860 C   0  0  0  0  0  0  0  0  0  0  0  0
  182.5490  175.4360  137.1210 C   0  0  0  0  0  2  0  0  0  0  0  0
  184.7630  172.3500  136.4820 C   0  0  0  0  0  0  0  0  0  0  0  0
  181.0940  175.1490  137.5620 C   0  0  2  0  0  3  0  0  0  0  0  0
  186.0200  171.8420  136.1500 C   0  0  0  0  0  3  0  0  0  0  0  0
  185.5630  179.1050  140.2220 C   0  0  0  0  0  2  0  0  0  0  0  0
  184.9120  178.5530  141.4160 N   0  0  0  0  0  0  0  0  0  0  0  0
  183.1110  178.6430  142.8540 C   0  0  0  0  0  0  0  0  0  0  0  0
  183.5190  178.9660  141.5520 C   0  0  2  0  0  3  0  0  0  0  0  0
  182.6400  177.9390  141.6010 O   0  0  0  0  0  0  0  0  0  0  0  0
  183.2300  178.8000  144.1110 O   0  0  0  0  0  0  0  0  0  0  0  0
  187.1140  178.0290  142.2890 C   0  0  0  0  0  2  0  0  0  0  0  0
  186.3780  177.2620  143.3230 C   0  0  2  0  0  3  0  0  0  0  0  0
  185.8180  178.6060  142.7120 C   0  0  2  0  0  3  0  0  0  0  0  0
  187.4320  177.4310  144.4780 C   0  0  1  0  0  3  0  0  0  0  0  0
  189.6440  177.6000  146.5360 C   0  0  1  0  0  3  0  0  0  0  0  0
  188.7990  177.6230  144.1540 O   0  0  0  0  0  0  0  0  0  0  0  0
  186.1530  177.5080  147.3510 O   0  0  0  0  0  0  0  0  0  0  0  0
  192.6380  175.5990  147.8510 C   0  0  0  0  0  1  0  0  0  0  0  0
  190.7030  177.0250  147.4770 C   0  0  0  0  0  3  0  0  0  0  0  0
  191.2710  177.3050  144.7160 C   0  0  2  0  0  3  0  0  0  0  0  0
  191.9000  176.2600  145.5350 O   0  0  0  0  0  0  0  0  0  0  0  0
  189.7970  177.5440  145.2100 C   0  0  2  0  0  3  0  0  0  0  0  0
  186.9830  178.3170  145.3820 O   0  0  0  0  0  0  0  0  0  0  0  0
  188.5110  178.3110  148.6980 C   0  0  0  0  0  1  0  0  0  0  0  0
  187.1640  177.9950  146.7070 C   0  0  0  0  0  0  0  0  0  0  0  0
  188.4280  178.0070  147.2660 N   0  0  0  0  0  0  0  0  0  0  0  0
  191.6900  176.3340  146.9060 C   0  0  0  0  0  0  0  0  0  0  0  0
  191.5050  177.1210  143.2670 C   0  0  0  0  0  2  0  0  0  0  0  0
  190.9890  175.8970  142.8240 O   0  0  0  0  0  1  0  0  0  0  0  0
  184.0280  178.2780  138.1900 C   0  0  0  0  0  2  0  0  0  0  0  0
  183.1010  179.3610  138.5050 N   0  0  0  0  0  2  0  0  0  0  0  0
  181.7100  178.9410  138.3140 C   0  0  0  0  0  2  0  0  0  0  0  0
  181.3720  179.1290  136.8120 C   0  0  1  0  0  3  0  0  0  0  0  0
  180.0570  179.3030  136.5030 O   0  0  0  0  0  0  0  0  0  0  0  0
  180.9200  180.4130  136.4910 N   0  0  0  0  0  0  0  0  0  0  0  0
  180.2000  181.3750  137.3850 C   0  0  0  0  0  2  0  0  0  0  0  0
  181.0470  182.4760  137.8310 C   0  0  0  0  0  2  0  0  0  0  0  0
  180.6660  183.8230  137.2120 C   0  0  0  0  0  2  0  0  0  0  0  0
  180.4540  184.5830  135.1450 C   0  0  0  0  0  1  0  0  0  0  0  0
  181.3860  184.0810  136.0380 O   0  0  0  0  0  0  0  0  0  0  0  0
  1 48  1  6  0  0  0
  1 23  1  0  0  0  0
  3  2  1  0  0  0  0
  4  6  2  0  0  0  0
  4  5  1  0  0  0  0
  5  8  1  6  0  0  0
  5  7  1  0  0  0  0
  6  3  1  0  0  0  0
  7  2  1  0  0  0  0
  7  1  1  1  0  0  0
  9 18  1  0  0  0  0
  9 19  1  0  0  0  0
 10 12  1  0  0  0  0
 10  8  1  0  0  0  0
 11 22  2  0  0  0  0
 11 15  1  0  0  0  0
 12  9  2  0  0  0  0
 13 21  1  0  0  0  0
 14 17  1  0  0  0  0
 15 10  2  0  0  0  0
 17 18  2  0  0  0  0
 18 13  1  0  0  0  0
 19 21  1  0  0  0  0
 20 14  2  0  0  0  0
 20 12  1  0  0  0  0
 21 16  1  6  0  0  0
 22 20  1  0  0  0  0
 23 24  1  0  0  0  0
 25 28  2  0  0  0  0
 26 24  1  1  0  0  0
 26 27  1  0  0  0  0
 26 25  1  0  0  0  0
 27 25  1  0  0  0  0
 29 31  1  0  0  0  0
 30 29  1  6  0  0  0
 30 32  1  0  0  0  0
 31 24  1  6  0  0  0
 31 30  1  0  0  0  0
 32 34  1  6  0  0  0
 32 41  1  0  0  0  0
 33 44  1  0  0  0  0
 33 37  1  1  0  0  0
 38 46  1  6  0  0  0
 38 40  1  0  0  0  0
 38 39  1  0  0  0  0
 39 45  1  0  0  0  0
 40 34  1  1  0  0  0
 40 33  1  0  0  0  0
 41 43  1  0  0  0  0
 43 44  1  0  0  0  0
 43 35  2  0  0  0  0
 44 42  1  0  0  0  0
 45 37  2  0  0  0  0
 45 36  1  0  0  0  0
 47 46  1  0  0  0  0
 48 49  1  0  0  0  0
 50 49  1  0  0  0  0
 51 50  1  1  0  0  0
 52 51  1  0  0  0  0
 53 52  1  0  0  0  0
 53 51  1  0  0  0  0
 53 54  1  0  0  0  0
 54 55  1  0  0  0  0
 56 55  1  0  0  0  0
 57 58  1  0  0  0  0
 58 56  1  0  0  0  0
M  END
>  <MODEL>
4

>  <REMARK>
 VINA RESULT:      -7.7      3.731     11.107
  Name = 
  17 active torsions:
  status: ('A' for Active; 'I' for Inactive)
    1  A    between atoms: C_2  and  C_26
    2  A    between atoms: C_3  and  O_14
    3  A    between atoms: C_5  and  C_29
    4  A    between atoms: C_10  and  N_44
    5  A    between atoms: C_13  and  C_49
    6  A    between atoms: O_14  and  C_38
    7  A    between atoms: C_22  and  C_30
    8  A    between atoms: C_22  and  O_45
    9  A    between atoms: C_30  and  C_31
   10  A    between atoms: C_31  and  N_48
   11  A    between atoms: N_32  and  C_36
   12  A    between atoms: N_32  and  C_49
   13  A    between atoms: C_36  and  C_53
   14  A    between atoms: N_44  and  C_51
   15  A    between atoms: N_44  and  C_52
   16  A    between atoms: C_52  and  C_53
   17  A    between atoms: C_53  and  C_58
                            x       y       z     vdW  Elec       q    Type
                         _______ _______ _______ _____ _____    ______ ____

>  <TORSDO>
F 17

$$$$
=
 OpenBabel10222418033D

 58 66  0  0  1  0  0  0  0  0999 V2000
  182.6820  179.0320  138.3520 C   0  0  1  0  0  3  0  0  0  0  0  0
  181.5250  179.3070  136.2730 O   0  0  0  0  0  0  0  0  0  0  0  0
  180.1780  179.3530  135.7970 C   0  0  0  0  0  2  0  0  0  0  0  0
  180.1980  176.9360  136.2290 C   0  0  0  0  0  3  0  0  0  0  0  0
  181.5110  177.1200  137.0310 C   0  0  1  0  0  3  0  0  0  0  0  0
  179.6240  177.9850  135.6200 C   0  0  0  0  0  3  0  0  0  0  0  0
  181.5300  178.5950  137.4730 C   0  0  1  0  0  3  0  0  0  0  0  0
  181.7890  176.1250  138.0920 O   0  0  0  0  0  0  0  0  0  0  0  0
  183.7000  173.8460  137.0640 C   0  0  0  0  0  0  0  0  0  0  0  0
  181.4280  174.7590  137.9680 C   0  0  0  0  0  0  0  0  0  0  0  0
  179.6500  173.1020  138.1700 C   0  0  0  0  0  3  0  0  0  0  0  0
  182.3150  173.7090  137.4220 C   0  0  0  0  0  0  0  0  0  0  0  0
  185.7520  173.1110  136.0950 C   0  0  0  0  0  2  0  0  0  0  0  0
  182.4480  171.3940  136.6050 C   0  0  0  0  0  3  0  0  0  0  0  0
  180.1590  174.3770  138.3490 C   0  0  0  0  0  3  0  0  0  0  0  0
  187.0040  174.6450  137.2690 O   0  0  0  0  0  1  0  0  0  0  0  0
  183.7580  171.5590  136.2100 C   0  0  0  0  0  3  0  0  0  0  0  0
  184.3550  172.7900  136.4550 C   0  0  0  0  0  0  0  0  0  0  0  0
  184.6350  174.9750  137.2350 C   0  0  0  0  0  2  0  0  0  0  0  0
  181.7430  172.4320  137.2100 C   0  0  0  0  0  0  0  0  0  0  0  0
  185.9160  174.5540  136.4780 C   0  0  2  0  0  3  0  0  0  0  0  0
  180.4290  172.1280  137.5710 C   0  0  0  0  0  3  0  0  0  0  0  0
  182.2780  179.6120  139.6780 C   0  0  0  0  0  2  0  0  0  0  0  0
  181.9480  178.6040  140.6910 N   0  0  0  0  0  0  0  0  0  0  0  0
  180.1600  179.4620  141.8690 C   0  0  0  0  0  0  0  0  0  0  0  0
  180.5140  178.4800  140.9320 C   0  0  2  0  0  3  0  0  0  0  0  0
  180.1990  177.9770  142.1470 O   0  0  0  0  0  0  0  0  0  0  0  0
  180.0570  180.6900  142.1830 O   0  0  0  0  0  0  0  0  0  0  0  0
  184.1910  179.1490  141.4390 C   0  0  0  0  0  2  0  0  0  0  0  0
  184.2110  177.7640  141.9700 C   0  0  2  0  0  3  0  0  0  0  0  0
  182.8990  178.6440  141.9560 C   0  0  2  0  0  3  0  0  0  0  0  0
  185.1910  178.0290  143.1700 C   0  0  1  0  0  3  0  0  0  0  0  0
  187.2510  178.3350  145.3650 C   0  0  1  0  0  3  0  0  0  0  0  0
  186.5910  178.0080  142.9480 O   0  0  0  0  0  0  0  0  0  0  0  0
  183.7260  178.7750  145.8520 O   0  0  0  0  0  0  0  0  0  0  0  0
  189.8720  176.2990  147.2850 C   0  0  0  0  0  1  0  0  0  0  0  0
  188.1600  177.8320  146.4880 C   0  0  0  0  0  3  0  0  0  0  0  0
  188.9570  177.5330  143.7850 C   0  0  2  0  0  3  0  0  0  0  0  0
  189.3900  176.5960  144.8310 O   0  0  0  0  0  0  0  0  0  0  0  0
  187.4920  178.0180  144.0890 C   0  0  2  0  0  3  0  0  0  0  0  0
  184.7910  179.1100  143.8590 O   0  0  0  0  0  0  0  0  0  0  0  0
  186.0620  179.5530  147.2530 C   0  0  0  0  0  1  0  0  0  0  0  0
  184.8330  179.0220  145.2310 C   0  0  0  0  0  0  0  0  0  0  0  0
  186.0460  179.0000  145.8950 N   0  0  0  0  0  0  0  0  0  0  0  0
  189.0930  176.9450  146.1410 C   0  0  0  0  0  0  0  0  0  0  0  0
  189.2700  177.0590  142.4200 C   0  0  0  0  0  2  0  0  0  0  0  0
  190.3880  176.2150  142.4220 O   0  0  0  0  0  1  0  0  0  0  0  0
  183.9740  178.2140  138.1500 C   0  0  0  0  0  2  0  0  0  0  0  0
  185.2210  178.9390  138.3770 N   0  0  0  0  0  2  0  0  0  0  0  0
  186.3730  178.0340  138.3610 C   0  0  0  0  0  2  0  0  0  0  0  0
  187.1350  178.2780  137.0330 C   0  0  1  0  0  3  0  0  0  0  0  0
  188.0310  179.3030  137.0270 O   0  0  0  0  0  0  0  0  0  0  0  0
  188.5000  177.9800  137.1020 N   0  0  0  0  0  0  0  0  0  0  0  0
  189.3830  178.0320  138.3100 C   0  0  0  0  0  2  0  0  0  0  0  0
  189.9580  176.7340  138.6490 C   0  0  0  0  0  2  0  0  0  0  0  0
  191.4810  176.7640  138.7900 C   0  0  0  0  0  2  0  0  0  0  0  0
  193.2480  177.2110  140.0440 C   0  0  0  0  0  1  0  0  0  0  0  0
  191.8860  177.4430  139.9470 O   0  0  0  0  0  0  0  0  0  0  0  0
  1 48  1  1  0  0  0
  1 23  1  0  0  0  0
  2  7  1  0  0  0  0
  3  2  1  0  0  0  0
  4  5  1  0  0  0  0
  5  7  1  0  0  0  0
  5  8  1  1  0  0  0
  6  3  1  0  0  0  0
  6  4  2  0  0  0  0
  7  1  1  6  0  0  0
  9 19  1  0  0  0  0
  9 12  1  0  0  0  0
 10  8  1  0  0  0  0
 10 15  1  0  0  0  0
 11 15  2  0  0  0  0
 12 10  2  0  0  0  0
 13 18  1  0  0  0  0
 13 21  1  0  0  0  0
 14 20  1  0  0  0  0
 17 18  1  0  0  0  0
 17 14  2  0  0  0  0
 18  9  2  0  0  0  0
 20 12  1  0  0  0  0
 20 22  2  0  0  0  0
 21 19  1  0  0  0  0
 21 16  1  1  0  0  0
 22 11  1  0  0  0  0
 23 24  1  0  0  0  0
 25 27  1  0  0  0  0
 25 28  2  0  0  0  0
 26 24  1  1  0  0  0
 26 25  1  0  0  0  0
 26 27  1  0  0  0  0
 29 31  1  0  0  0  0
 30 29  1  6  0  0  0
 30 32  1  0  0  0  0
 31 24  1  6  0  0  0
 31 30  1  0  0  0  0
 32 34  1  6  0  0  0
 32 41  1  0  0  0  0
 33 44  1  0  0  0  0
 33 37  1  1  0  0  0
 38 46  1  6  0  0  0
 38 40  1  0  0  0  0
 38 39  1  0  0  0  0
 39 45  1  0  0  0  0
 40 34  1  1  0  0  0
 40 33  1  0  0  0  0
 41 43  1  0  0  0  0
 43 35  2  0  0  0  0
 43 44  1  0  0  0  0
 44 42  1  0  0  0  0
 45 37  2  0  0  0  0
 45 36  1  0  0  0  0
 46 47  1  0  0  0  0
 48 49  1  0  0  0  0
 50 49  1  0  0  0  0
 51 53  1  0  0  0  0
 51 50  1  1  0  0  0
 52 51  1  0  0  0  0
 52 53  1  0  0  0  0
 53 54  1  0  0  0  0
 54 55  1  0  0  0  0
 55 56  1  0  0  0  0
 56 58  1  0  0  0  0
 58 57  1  0  0  0  0
M  END
>  <MODEL>
5

>  <REMARK>
 VINA RESULT:      -7.6      2.549      9.424
  Name = 
  17 active torsions:
  status: ('A' for Active; 'I' for Inactive)
    1  A    between atoms: C_2  and  C_26
    2  A    between atoms: C_3  and  O_14
    3  A    between atoms: C_5  and  C_29
    4  A    between atoms: C_10  and  N_44
    5  A    between atoms: C_13  and  C_49
    6  A    between atoms: O_14  and  C_38
    7  A    between atoms: C_22  and  C_30
    8  A    between atoms: C_22  and  O_45
    9  A    between atoms: C_30  and  C_31
   10  A    between atoms: C_31  and  N_48
   11  A    between atoms: N_32  and  C_36
   12  A    between atoms: N_32  and  C_49
   13  A    between atoms: C_36  and  C_53
   14  A    between atoms: N_44  and  C_51
   15  A    between atoms: N_44  and  C_52
   16  A    between atoms: C_52  and  C_53
   17  A    between atoms: C_53  and  C_58
                            x       y       z     vdW  Elec       q    Type
                         _______ _______ _______ _____ _____    ______ ____

>  <TORSDO>
F 17

$$$$
=
 OpenBabel10222418033D

 58 66  0  0  1  0  0  0  0  0999 V2000
  188.4560  176.6340  138.7680 C   0  0  1  0  0  3  0  0  0  0  0  0
  190.5620  177.7220  139.1090 O   0  0  0  0  0  0  0  0  0  0  0  0
  191.8490  177.4130  139.6510 C   0  0  0  0  0  2  0  0  0  0  0  0
  190.6950  177.5100  141.8160 C   0  0  0  0  0  3  0  0  0  0  0  0
  189.3420  177.4860  141.0620 C   0  0  1  0  0  3  0  0  0  0  0  0
  191.8500  177.5280  141.1330 C   0  0  0  0  0  3  0  0  0  0  0  0
  189.6360  176.8540  139.6890 C   0  0  1  0  0  3  0  0  0  0  0  0
  188.1820  176.9270  141.7940 O   0  0  0  0  0  0  0  0  0  0  0  0
  187.6970  177.6530  144.8170 C   0  0  0  0  0  0  0  0  0  0  0  0
  187.1220  177.7380  142.2730 C   0  0  0  0  0  0  0  0  0  0  0  0
  185.1090  178.9930  141.7060 C   0  0  0  0  0  3  0  0  0  0  0  0
  186.8670  178.0190  143.7030 C   0  0  0  0  0  0  0  0  0  0  0  0
  188.1910  177.4010  147.1380 C   0  0  0  0  0  2  0  0  0  0  0  0
  185.2710  178.9340  145.3340 C   0  0  0  0  0  3  0  0  0  0  0  0
  186.2450  178.2830  141.3590 C   0  0  0  0  0  3  0  0  0  0  0  0
  190.4590  177.2630  146.7700 O   0  0  0  0  0  1  0  0  0  0  0  0
  186.0490  178.5220  146.3960 C   0  0  0  0  0  3  0  0  0  0  0  0
  187.2520  177.8890  146.1060 C   0  0  0  0  0  0  0  0  0  0  0  0
  189.0350  177.0310  144.8630 C   0  0  0  0  0  2  0  0  0  0  0  0
  185.6700  178.7050  144.0190 C   0  0  0  0  0  0  0  0  0  0  0  0
  189.2900  176.7340  146.3590 C   0  0  2  0  0  3  0  0  0  0  0  0
  184.7970  179.1840  143.0400 C   0  0  0  0  0  3  0  0  0  0  0  0
  187.8310  177.8900  138.2320 C   0  0  0  0  0  2  0  0  0  0  0  0
  186.6780  177.6530  137.3570 N   0  0  0  0  0  0  0  0  0  0  0  0
  188.2630  178.2490  135.7910 C   0  0  0  0  0  0  0  0  0  0  0  0
  186.8800  178.1420  135.9970 C   0  0  2  0  0  3  0  0  0  0  0  0
  187.3170  179.4200  135.9280 O   0  0  0  0  0  0  0  0  0  0  0  0
  189.4060  177.6950  135.7100 O   0  0  0  0  0  0  0  0  0  0  0  0
  184.5360  176.6910  137.9670 C   0  0  0  0  0  2  0  0  0  0  0  0
  183.9560  177.8240  137.2040 C   0  0  2  0  0  3  0  0  0  0  0  0
  185.2870  177.9650  138.0440 C   0  0  2  0  0  3  0  0  0  0  0  0
  182.6210  177.9500  138.0250 C   0  0  1  0  0  3  0  0  0  0  0  0
  180.1320  178.4650  139.6660 C   0  0  1  0  0  3  0  0  0  0  0  0
  181.8980  179.1690  138.0000 O   0  0  0  0  0  0  0  0  0  0  0  0
  181.7410  175.2700  139.4180 O   0  0  0  0  0  0  0  0  0  0  0  0
  178.9310  180.5060  142.6810 C   0  0  0  0  0  1  0  0  0  0  0  0
  179.3660  178.8830  140.9220 C   0  0  0  0  0  3  0  0  0  0  0  0
  180.3730  180.8600  139.1590 C   0  0  2  0  0  3  0  0  0  0  0  0
  180.2090  181.1130  140.5980 O   0  0  0  0  0  0  0  0  0  0  0  0
  180.8010  179.3630  138.9360 C   0  0  2  0  0  3  0  0  0  0  0  0
  181.8420  176.8790  137.7990 O   0  0  0  0  0  0  0  0  0  0  0  0
  179.1660  176.1700  140.1790 C   0  0  0  0  0  1  0  0  0  0  0  0
  181.2150  176.3280  138.8920 C   0  0  0  0  0  0  0  0  0  0  0  0
  180.1800  176.9980  139.5180 N   0  0  0  0  0  0  0  0  0  0  0  0
  179.5360  180.1420  141.3270 C   0  0  0  0  0  0  0  0  0  0  0  0
  181.1420  181.9190  138.4710 C   0  0  0  0  0  2  0  0  0  0  0  0
  180.2920  182.7910  137.7790 O   0  0  0  0  0  1  0  0  0  0  0  0
  188.5220  175.3170  137.9650 C   0  0  0  0  0  2  0  0  0  0  0  0
  187.2990  174.9490  137.2570 N   0  0  0  0  0  2  0  0  0  0  0  0
  187.4350  173.6430  136.6070 C   0  0  0  0  0  2  0  0  0  0  0  0
  186.4710  172.6650  137.3270 C   0  0  1  0  0  3  0  0  0  0  0  0
  185.4050  173.2220  137.9640 O   0  0  0  0  0  0  0  0  0  0  0  0
  185.2090  172.5740  136.7320 N   0  0  0  0  0  0  0  0  0  0  0  0
  184.5000  173.6280  135.9380 C   0  0  0  0  0  2  0  0  0  0  0  0
  183.1710  173.2120  135.5040 C   0  0  0  0  0  2  0  0  0  0  0  0
  182.4410  172.3440  136.5310 C   0  0  0  0  0  2  0  0  0  0  0  0
  180.5790  171.9750  137.6690 C   0  0  0  0  0  1  0  0  0  0  0  0
  181.2910  172.9740  137.0250 O   0  0  0  0  0  0  0  0  0  0  0  0
  1 48  1  6  0  0  0
  2  3  1  0  0  0  0
  2  7  1  0  0  0  0
  3  6  1  0  0  0  0
  5  8  1  1  0  0  0
  5  4  1  0  0  0  0
  6  4  2  0  0  0  0
  7  1  1  6  0  0  0
  7  5  1  0  0  0  0
  8 10  1  0  0  0  0
  9 19  1  0  0  0  0
  9 18  1  0  0  0  0
 10 12  1  0  0  0  0
 11 22  2  0  0  0  0
 12 20  1  0  0  0  0
 12  9  2  0  0  0  0
 14 17  1  0  0  0  0
 15 11  1  0  0  0  0
 15 10  2  0  0  0  0
 18 17  2  0  0  0  0
 18 13  1  0  0  0  0
 19 21  1  0  0  0  0
 20 14  2  0  0  0  0
 21 16  1  1  0  0  0
 21 13  1  0  0  0  0
 22 20  1  0  0  0  0
 23  1  1  0  0  0  0
 24 23  1  0  0  0  0
 25 27  1  0  0  0  0
 25 26  1  0  0  0  0
 26 24  1  1  0  0  0
 27 26  1  0  0  0  0
 28 25  2  0  0  0  0
 29 31  1  0  0  0  0
 30 29  1  1  0  0  0
 30 32  1  0  0  0  0
 30 31  1  0  0  0  0
 31 24  1  6  0  0  0
 32 41  1  6  0  0  0
 33 37  1  1  0  0  0
 34 32  1  0  0  0  0
 37 45  2  0  0  0  0
 38 46  1  1  0  0  0
 38 39  1  0  0  0  0
 39 45  1  0  0  0  0
 40 34  1  1  0  0  0
 40 38  1  0  0  0  0
 40 33  1  0  0  0  0
 41 43  1  0  0  0  0
 43 35  2  0  0  0  0
 43 44  1  0  0  0  0
 44 33  1  0  0  0  0
 44 42  1  0  0  0  0
 45 36  1  0  0  0  0
 47 46  1  0  0  0  0
 49 48  1  0  0  0  0
 50 49  1  0  0  0  0
 51 50  1  6  0  0  0
 51 52  1  0  0  0  0
 53 51  1  0  0  0  0
 53 52  1  0  0  0  0
 54 53  1  0  0  0  0
 55 54  1  0  0  0  0
 55 56  1  0  0  0  0
 56 58  1  0  0  0  0
 58 57  1  0  0  0  0
M  END
>  <MODEL>
6

>  <REMARK>
 VINA RESULT:      -7.3      2.625      5.361
  Name = 
  17 active torsions:
  status: ('A' for Active; 'I' for Inactive)
    1  A    between atoms: C_2  and  C_26
    2  A    between atoms: C_3  and  O_14
    3  A    between atoms: C_5  and  C_29
    4  A    between atoms: C_10  and  N_44
    5  A    between atoms: C_13  and  C_49
    6  A    between atoms: O_14  and  C_38
    7  A    between atoms: C_22  and  C_30
    8  A    between atoms: C_22  and  O_45
    9  A    between atoms: C_30  and  C_31
   10  A    between atoms: C_31  and  N_48
   11  A    between atoms: N_32  and  C_36
   12  A    between atoms: N_32  and  C_49
   13  A    between atoms: C_36  and  C_53
   14  A    between atoms: N_44  and  C_51
   15  A    between atoms: N_44  and  C_52
   16  A    between atoms: C_52  and  C_53
   17  A    between atoms: C_53  and  C_58
                            x       y       z     vdW  Elec       q    Type
                         _______ _______ _______ _____ _____    ______ ____

>  <TORSDO>
F 17

$$$$
=
 OpenBabel10222418033D

 58 66  0  0  1  0  0  0  0  0999 V2000
  184.4140  178.8020  139.2140 C   0  0  1  0  0  3  0  0  0  0  0  0
  182.7110  180.0330  138.0670 O   0  0  0  0  0  0  0  0  0  0  0  0
  181.4370  180.6150  138.3520 C   0  0  0  0  0  2  0  0  0  0  0  0
  180.6540  178.2890  138.3980 C   0  0  0  0  0  3  0  0  0  0  0  0
  182.1310  177.8230  138.4370 C   0  0  1  0  0  3  0  0  0  0  0  0
  180.3570  179.5940  138.3070 C   0  0  0  0  0  3  0  0  0  0  0  0
  182.9320  179.0140  138.9930 C   0  0  1  0  0  3  0  0  0  0  0  0
  182.4000  176.5130  139.0710 O   0  0  0  0  0  0  0  0  0  0  0  0
  182.0680  174.0560  137.1320 C   0  0  0  0  0  0  0  0  0  0  0  0
  181.4060  175.5090  139.1960 C   0  0  0  0  0  0  0  0  0  0  0  0
  179.4470  174.7340  140.4260 C   0  0  0  0  0  3  0  0  0  0  0  0
  181.2200  174.3950  138.2420 C   0  0  0  0  0  0  0  0  0  0  0  0
  182.6320  172.8650  135.1440 C   0  0  0  0  0  2  0  0  0  0  0  0
  179.7390  172.5680  137.5250 C   0  0  0  0  0  3  0  0  0  0  0  0
  180.5280  175.5820  140.2580 C   0  0  0  0  0  3  0  0  0  0  0  0
  184.8740  173.3510  135.3360 O   0  0  0  0  0  1  0  0  0  0  0  0
  180.5310  172.2930  136.4300 C   0  0  0  0  0  3  0  0  0  0  0  0
  181.6850  173.0500  136.2630 C   0  0  0  0  0  0  0  0  0  0  0  0
  183.3700  174.6070  136.7070 C   0  0  0  0  0  2  0  0  0  0  0  0
  180.0760  173.5800  138.4200 C   0  0  0  0  0  0  0  0  0  0  0  0
  183.6620  173.9410  135.3420 C   0  0  2  0  0  3  0  0  0  0  0  0
  179.1960  173.7450  139.4910 C   0  0  0  0  0  3  0  0  0  0  0  0
  184.9470  179.3610  140.5010 C   0  0  0  0  0  2  0  0  0  0  0  0
  184.3340  178.7810  141.7010 N   0  0  0  0  0  0  0  0  0  0  0  0
  182.5760  178.8010  143.1950 C   0  0  0  0  0  0  0  0  0  0  0  0
  182.9600  179.2250  141.9150 C   0  0  2  0  0  3  0  0  0  0  0  0
  182.0480  178.2260  141.9000 O   0  0  0  0  0  0  0  0  0  0  0  0
  182.7350  178.8420  144.4570 O   0  0  0  0  0  0  0  0  0  0  0  0
  186.6210  178.3880  142.4090 C   0  0  0  0  0  2  0  0  0  0  0  0
  186.0230  177.4130  143.3540 C   0  0  2  0  0  3  0  0  0  0  0  0
  185.2970  178.7580  142.9570 C   0  0  2  0  0  3  0  0  0  0  0  0
  187.1140  177.5410  144.4800 C   0  0  1  0  0  3  0  0  0  0  0  0
  189.3910  177.6390  146.4700 C   0  0  1  0  0  3  0  0  0  0  0  0
  188.4670  177.7660  144.1210 O   0  0  0  0  0  0  0  0  0  0  0  0
  185.9310  177.4620  147.3940 O   0  0  0  0  0  0  0  0  0  0  0  0
  192.4510  175.6170  147.5850 C   0  0  0  0  0  1  0  0  0  0  0  0
  190.4890  177.0330  147.3460 C   0  0  0  0  0  3  0  0  0  0  0  0
  190.9600  177.4540  144.5840 C   0  0  2  0  0  3  0  0  0  0  0  0
  191.6270  176.3780  145.3300 O   0  0  0  0  0  0  0  0  0  0  0  0
  189.5000  177.6490  145.1380 C   0  0  2  0  0  3  0  0  0  0  0  0
  186.6860  178.3760  145.4410 O   0  0  0  0  0  0  0  0  0  0  0  0
  188.3240  178.2310  148.7000 C   0  0  0  0  0  1  0  0  0  0  0  0
  186.9140  177.9930  146.7420 C   0  0  0  0  0  0  0  0  0  0  0  0
  188.1970  177.9950  147.2580 N   0  0  0  0  0  0  0  0  0  0  0  0
  191.4640  176.3840  146.7090 C   0  0  0  0  0  0  0  0  0  0  0  0
  191.1460  177.3430  143.1210 C   0  0  0  0  0  2  0  0  0  0  0  0
  190.7590  176.0800  142.6570 O   0  0  0  0  0  1  0  0  0  0  0  0
  184.9700  177.5190  138.5590 C   0  0  0  0  0  2  0  0  0  0  0  0
  185.5930  177.6980  137.2510 N   0  0  0  0  0  2  0  0  0  0  0  0
  186.9710  177.1980  137.2460 C   0  0  0  0  0  2  0  0  0  0  0  0
  187.8720  178.3300  136.6880 C   0  0  1  0  0  3  0  0  0  0  0  0
  188.1740  179.3430  137.5460 O   0  0  0  0  0  0  0  0  0  0  0  0
  189.1480  178.3700  137.2590 N   0  0  0  0  0  0  0  0  0  0  0  0
  189.5460  177.9170  138.6300 C   0  0  0  0  0  2  0  0  0  0  0  0
  189.8940  176.5010  138.6800 C   0  0  0  0  0  2  0  0  0  0  0  0
  191.1590  176.1590  137.8900 C   0  0  0  0  0  2  0  0  0  0  0  0
  191.8660  174.2320  137.0630 C   0  0  0  0  0  1  0  0  0  0  0  0
  191.6830  174.9120  138.2560 O   0  0  0  0  0  0  0  0  0  0  0  0
  1 48  1  1  0  0  0
  1 23  1  0  0  0  0
  2  3  1  0  0  0  0
  2  7  1  0  0  0  0
  4  5  1  0  0  0  0
  5  7  1  0  0  0  0
  5  8  1  1  0  0  0
  6  3  1  0  0  0  0
  6  4  2  0  0  0  0
  7  1  1  6  0  0  0
  8 10  1  0  0  0  0
  9 12  1  0  0  0  0
 10 15  1  0  0  0  0
 12 20  1  0  0  0  0
 12 10  2  0  0  0  0
 13 21  1  0  0  0  0
 13 18  1  0  0  0  0
 14 20  1  0  0  0  0
 15 11  2  0  0  0  0
 17 14  2  0  0  0  0
 18 17  1  0  0  0  0
 18  9  2  0  0  0  0
 19  9  1  0  0  0  0
 20 22  2  0  0  0  0
 21 16  1  1  0  0  0
 21 19  1  0  0  0  0
 22 11  1  0  0  0  0
 23 24  1  0  0  0  0
 25 28  2  0  0  0  0
 26 24  1  6  0  0  0
 26 25  1  0  0  0  0
 27 26  1  0  0  0  0
 27 25  1  0  0  0  0
 29 31  1  0  0  0  0
 30 29  1  6  0  0  0
 30 32  1  0  0  0  0
 31 24  1  6  0  0  0
 31 30  1  0  0  0  0
 32 34  1  6  0  0  0
 32 41  1  0  0  0  0
 33 44  1  0  0  0  0
 33 37  1  6  0  0  0
 38 46  1  6  0  0  0
 38 40  1  0  0  0  0
 38 39  1  0  0  0  0
 39 45  1  0  0  0  0
 40 34  1  6  0  0  0
 40 33  1  0  0  0  0
 41 43  1  0  0  0  0
 43 44  1  0  0  0  0
 43 35  2  0  0  0  0
 44 42  1  0  0  0  0
 45 37  2  0  0  0  0
 45 36  1  0  0  0  0
 47 46  1  0  0  0  0
 49 48  1  0  0  0  0
 50 49  1  0  0  0  0
 51 50  1  1  0  0  0
 51 53  1  0  0  0  0
 51 52  1  0  0  0  0
 53 52  1  0  0  0  0
 53 54  1  0  0  0  0
 54 55  1  0  0  0  0
 56 58  1  0  0  0  0
 56 55  1  0  0  0  0
 57 58  1  0  0  0  0
M  END
>  <MODEL>
7

>  <REMARK>
 VINA RESULT:      -7.1      2.398      9.735
  Name = 
  17 active torsions:
  status: ('A' for Active; 'I' for Inactive)
    1  A    between atoms: C_2  and  C_26
    2  A    between atoms: C_3  and  O_14
    3  A    between atoms: C_5  and  C_29
    4  A    between atoms: C_10  and  N_44
    5  A    between atoms: C_13  and  C_49
    6  A    between atoms: O_14  and  C_38
    7  A    between atoms: C_22  and  C_30
    8  A    between atoms: C_22  and  O_45
    9  A    between atoms: C_30  and  C_31
   10  A    between atoms: C_31  and  N_48
   11  A    between atoms: N_32  and  C_36
   12  A    between atoms: N_32  and  C_49
   13  A    between atoms: C_36  and  C_53
   14  A    between atoms: N_44  and  C_51
   15  A    between atoms: N_44  and  C_52
   16  A    between atoms: C_52  and  C_53
   17  A    between atoms: C_53  and  C_58
                            x       y       z     vdW  Elec       q    Type
                         _______ _______ _______ _____ _____    ______ ____

>  <TORSDO>
F 17

$$$$
=
 OpenBabel10222418033D

 58 66  0  0  1  0  0  0  0  0999 V2000
  184.9420  177.2270  137.6890 C   0  0  1  0  0  3  0  0  0  0  0  0
  183.9840  177.6610  135.5380 O   0  0  0  0  0  0  0  0  0  0  0  0
  182.6870  177.7250  134.9390 C   0  0  0  0  0  2  0  0  0  0  0  0
  182.7260  175.2810  135.1650 C   0  0  0  0  0  3  0  0  0  0  0  0
  183.9510  175.4160  136.1030 C   0  0  1  0  0  3  0  0  0  0  0  0
  182.1870  176.3690  134.5940 C   0  0  0  0  0  3  0  0  0  0  0  0
  183.8920  176.8480  136.6680 C   0  0  1  0  0  3  0  0  0  0  0  0
  184.1510  174.3380  137.0980 O   0  0  0  0  0  0  0  0  0  0  0  0
  186.6810  172.6320  136.3300 C   0  0  0  0  0  0  0  0  0  0  0  0
  184.1260  172.9640  136.7480 C   0  0  0  0  0  0  0  0  0  0  0  0
  182.7440  170.9980  136.3370 C   0  0  0  0  0  3  0  0  0  0  0  0
  185.3140  172.1900  136.3260 C   0  0  0  0  0  0  0  0  0  0  0  0
  189.0030  172.4430  135.8150 C   0  0  0  0  0  2  0  0  0  0  0  0
  186.1130  170.0910  135.3260 C   0  0  0  0  0  3  0  0  0  0  0  0
  182.9170  172.3020  136.7680 C   0  0  0  0  0  3  0  0  0  0  0  0
  189.6130  173.9850  137.4120 O   0  0  0  0  0  1  0  0  0  0  0  0
  187.4110  170.5520  135.2800 C   0  0  0  0  0  3  0  0  0  0  0  0
  187.6620  171.8210  135.7900 C   0  0  0  0  0  0  0  0  0  0  0  0
  187.2930  173.8750  136.8410 C   0  0  0  0  0  2  0  0  0  0  0  0
  185.0880  170.8770  135.8480 C   0  0  0  0  0  0  0  0  0  0  0  0
  188.7680  173.8170  136.3760 C   0  0  2  0  0  3  0  0  0  0  0  0
  183.8230  170.2860  135.8460 C   0  0  0  0  0  3  0  0  0  0  0  0
  186.3480  177.2640  137.1640 C   0  0  0  0  0  2  0  0  0  0  0  0
  187.2240  178.2020  137.8750 N   0  0  0  0  0  0  0  0  0  0  0  0
  188.8780  177.9860  136.2820 C   0  0  0  0  0  0  0  0  0  0  0  0
  188.1230  178.9330  136.9880 C   0  0  2  0  0  3  0  0  0  0  0  0
  189.4220  178.8930  137.3620 O   0  0  0  0  0  0  0  0  0  0  0  0
  188.9280  177.0190  135.4570 O   0  0  0  0  0  0  0  0  0  0  0  0
  187.0700  178.2530  140.2960 C   0  0  0  0  0  2  0  0  0  0  0  0
  188.5160  178.5800  140.2510 C   0  0  2  0  0  3  0  0  0  0  0  0
  187.8380  177.6080  139.2070 C   0  0  2  0  0  3  0  0  0  0  0  0
  188.9060  177.9290  141.6290 C   0  0  1  0  0  3  0  0  0  0  0  0
  189.4530  176.8460  144.4000 C   0  0  1  0  0  3  0  0  0  0  0  0
  187.8930  177.6430  142.5780 O   0  0  0  0  0  0  0  0  0  0  0  0
  191.9590  177.2050  141.8600 O   0  0  0  0  0  0  0  0  0  0  0  0
  189.3590  177.9160  148.0800 C   0  0  0  0  0  1  0  0  0  0  0  0
  189.7950  176.9600  145.8870 C   0  0  0  0  0  3  0  0  0  0  0  0
  187.1400  177.4180  145.0090 C   0  0  2  0  0  3  0  0  0  0  0  0
  187.6870  178.0750  146.2040 O   0  0  0  0  0  0  0  0  0  0  0  0
  188.2740  177.2640  143.9300 C   0  0  2  0  0  3  0  0  0  0  0  0
  189.7370  176.8930  141.4270 O   0  0  0  0  0  0  0  0  0  0  0  0
  191.7220  175.7080  144.2530 C   0  0  0  0  0  1  0  0  0  0  0  0
  190.8100  176.7850  142.2810 C   0  0  0  0  0  0  0  0  0  0  0  0
  190.6200  176.4250  143.6020 N   0  0  0  0  0  0  0  0  0  0  0  0
  188.9280  177.6360  146.6430 C   0  0  0  0  0  0  0  0  0  0  0  0
  185.8400  177.9810  144.5850 C   0  0  0  0  0  2  0  0  0  0  0  0
  185.5220  179.1290  145.3210 O   0  0  0  0  0  1  0  0  0  0  0  0
  184.4310  178.1740  138.7960 C   0  0  0  0  0  2  0  0  0  0  0  0
  183.2450  178.9550  138.4580 N   0  0  0  0  0  2  0  0  0  0  0  0
  182.1900  178.7810  139.4600 C   0  0  0  0  0  2  0  0  0  0  0  0
  180.8430  178.6670  138.7010 C   0  0  1  0  0  3  0  0  0  0  0  0
  179.7570  179.2200  139.3060 O   0  0  0  0  0  0  0  0  0  0  0  0
  180.3580  179.8880  138.2240 N   0  0  0  0  0  0  0  0  0  0  0  0
  180.6010  181.2500  138.7970 C   0  0  0  0  0  2  0  0  0  0  0  0
  181.1140  182.1960  137.8130 C   0  0  0  0  0  2  0  0  0  0  0  0
  180.2440  183.4460  137.6610 C   0  0  0  0  0  2  0  0  0  0  0  0
  180.0430  185.5450  136.9890 C   0  0  0  0  0  1  0  0  0  0  0  0
  180.9740  184.5340  137.1640 O   0  0  0  0  0  0  0  0  0  0  0  0
  1 23  1  6  0  0  0
  1 48  1  0  0  0  0
  2  7  1  0  0  0  0
  3  2  1  0  0  0  0
  4  5  1  0  0  0  0
  5  7  1  0  0  0  0
  5  8  1  1  0  0  0
  6  3  1  0  0  0  0
  6  4  2  0  0  0  0
  7  1  1  1  0  0  0
  9 19  1  0  0  0  0
 10 15  1  0  0  0  0
 10  8  1  0  0  0  0
 11 15  2  0  0  0  0
 12  9  1  0  0  0  0
 12 10  2  0  0  0  0
 13 21  1  0  0  0  0
 14 20  1  0  0  0  0
 17 14  2  0  0  0  0
 17 18  1  0  0  0  0
 18 13  1  0  0  0  0
 18  9  2  0  0  0  0
 20 12  1  0  0  0  0
 21 19  1  0  0  0  0
 21 16  1  1  0  0  0
 22 20  2  0  0  0  0
 22 11  1  0  0  0  0
 23 24  1  0  0  0  0
 25 26  1  0  0  0  0
 25 27  1  0  0  0  0
 26 27  1  0  0  0  0
 26 24  1  1  0  0  0
 28 25  2  0  0  0  0
 30 29  1  1  0  0  0
 30 32  1  0  0  0  0
 31 24  1  6  0  0  0
 31 30  1  0  0  0  0
 31 29  1  0  0  0  0
 32 41  1  6  0  0  0
 32 34  1  0  0  0  0
 33 37  1  6  0  0  0
 35 43  2  0  0  0  0
 37 45  2  0  0  0  0
 38 46  1  6  0  0  0
 38 39  1  0  0  0  0
 39 45  1  0  0  0  0
 40 34  1  1  0  0  0
 40 33  1  0  0  0  0
 40 38  1  0  0  0  0
 41 43  1  0  0  0  0
 43 44  1  0  0  0  0
 44 42  1  0  0  0  0
 44 33  1  0  0  0  0
 45 36  1  0  0  0  0
 46 47  1  0  0  0  0
 49 48  1  0  0  0  0
 49 50  1  0  0  0  0
 51 52  1  0  0  0  0
 51 50  1  1  0  0  0
 53 51  1  0  0  0  0
 53 54  1  0  0  0  0
 53 52  1  0  0  0  0
 55 54  1  0  0  0  0
 56 55  1  0  0  0  0
 57 58  1  0  0  0  0
 58 56  1  0  0  0  0
M  END
>  <MODEL>
8

>  <REMARK>
 VINA RESULT:      -7.1      3.270     10.696
  Name = 
  17 active torsions:
  status: ('A' for Active; 'I' for Inactive)
    1  A    between atoms: C_2  and  C_26
    2  A    between atoms: C_3  and  O_14
    3  A    between atoms: C_5  and  C_29
    4  A    between atoms: C_10  and  N_44
    5  A    between atoms: C_13  and  C_49
    6  A    between atoms: O_14  and  C_38
    7  A    between atoms: C_22  and  C_30
    8  A    between atoms: C_22  and  O_45
    9  A    between atoms: C_30  and  C_31
   10  A    between atoms: C_31  and  N_48
   11  A    between atoms: N_32  and  C_36
   12  A    between atoms: N_32  and  C_49
   13  A    between atoms: C_36  and  C_53
   14  A    between atoms: N_44  and  C_51
   15  A    between atoms: N_44  and  C_52
   16  A    between atoms: C_52  and  C_53
   17  A    between atoms: C_53  and  C_58
                            x       y       z     vdW  Elec       q    Type
                         _______ _______ _______ _____ _____    ______ ____

>  <TORSDO>
F 17

$$$$
=
 OpenBabel10222418033D

 58 66  0  0  1  0  0  0  0  0999 V2000
  186.3880  178.0460  138.4920 C   0  0  1  0  0  3  0  0  0  0  0  0
  186.7120  177.8290  136.1290 O   0  0  0  0  0  0  0  0  0  0  0  0
  186.0280  178.1700  134.9210 C   0  0  0  0  0  2  0  0  0  0  0  0
  184.5080  176.3470  135.5510 C   0  0  0  0  0  3  0  0  0  0  0  0
  185.1420  176.3460  136.9640 C   0  0  1  0  0  3  0  0  0  0  0  0
  184.9740  177.1720  134.6000 C   0  0  0  0  0  3  0  0  0  0  0  0
  185.7620  177.7440  137.1480 C   0  0  1  0  0  3  0  0  0  0  0  0
  184.2910  175.8670  138.0760 O   0  0  0  0  0  0  0  0  0  0  0  0
  184.7330  172.9550  136.9680 C   0  0  0  0  0  0  0  0  0  0  0  0
  183.2640  174.9060  137.8900 C   0  0  0  0  0  0  0  0  0  0  0  0
  180.8740  174.4410  138.0040 C   0  0  0  0  0  3  0  0  0  0  0  0
  183.4760  173.5630  137.3080 C   0  0  0  0  0  0  0  0  0  0  0  0
  186.1110  171.2740  135.9870 C   0  0  0  0  0  2  0  0  0  0  0  0
  182.3860  171.5580  136.3920 C   0  0  0  0  0  3  0  0  0  0  0  0
  181.9750  175.2440  138.2430 C   0  0  0  0  0  3  0  0  0  0  0  0
  187.9500  171.8710  137.2380 O   0  0  0  0  0  1  0  0  0  0  0  0
  183.5960  171.0150  136.0170 C   0  0  0  0  0  3  0  0  0  0  0  0
  184.7470  171.7330  136.3200 C   0  0  0  0  0  0  0  0  0  0  0  0
  186.1180  173.4100  137.1970 C   0  0  0  0  0  2  0  0  0  0  0  0
  182.3200  172.7930  137.0350 C   0  0  0  0  0  0  0  0  0  0  0  0
  187.0050  172.3970  136.4340 C   0  0  2  0  0  3  0  0  0  0  0  0
  181.0340  173.2210  137.3700 C   0  0  0  0  0  3  0  0  0  0  0  0
  187.8210  178.4900  138.4350 C   0  0  0  0  0  2  0  0  0  0  0  0
  188.7640  177.5340  139.0270 N   0  0  0  0  0  0  0  0  0  0  0  0
  190.3590  176.0370  138.2950 C   0  0  0  0  0  0  0  0  0  0  0  0
  189.0010  176.3660  138.1830 C   0  0  2  0  0  3  0  0  0  0  0  0
  189.7120  176.6290  137.0630 O   0  0  0  0  0  0  0  0  0  0  0  0
  191.3400  175.6580  139.0110 O   0  0  0  0  0  0  0  0  0  0  0  0
  188.6500  178.6180  141.1940 C   0  0  0  0  0  2  0  0  0  0  0  0
  189.6720  177.6220  141.6010 C   0  0  2  0  0  3  0  0  0  0  0  0
  188.5240  177.2810  140.5700 C   0  0  2  0  0  3  0  0  0  0  0  0
  189.2670  177.5360  143.1180 C   0  0  1  0  0  3  0  0  0  0  0  0
  188.2650  177.5450  145.9730 C   0  0  1  0  0  3  0  0  0  0  0  0
  187.8960  177.4770  143.4740 O   0  0  0  0  0  0  0  0  0  0  0  0
  191.7260  177.2980  145.0660 O   0  0  0  0  0  0  0  0  0  0  0  0
  186.4210  179.7980  148.4670 C   0  0  0  0  0  1  0  0  0  0  0  0
  187.8230  178.2040  147.2800 C   0  0  0  0  0  3  0  0  0  0  0  0
  186.0110  178.0160  145.1110 C   0  0  2  0  0  3  0  0  0  0  0  0
  185.9330  179.1040  146.0950 O   0  0  0  0  0  0  0  0  0  0  0  0
  187.5170  177.6340  144.8690 C   0  0  2  0  0  3  0  0  0  0  0  0
  190.0050  176.5980  143.7360 O   0  0  0  0  0  0  0  0  0  0  0  0
  190.2070  176.7000  147.3800 C   0  0  0  0  0  1  0  0  0  0  0  0
  190.4930  176.9170  144.9820 C   0  0  0  0  0  0  0  0  0  0  0  0
  189.6390  177.0150  146.0650 N   0  0  0  0  0  0  0  0  0  0  0  0
  186.7490  178.9910  147.2130 C   0  0  0  0  0  0  0  0  0  0  0  0
  185.1460  178.2420  143.9320 C   0  0  0  0  0  2  0  0  0  0  0  0
  184.3250  179.3620  144.1150 O   0  0  0  0  0  1  0  0  0  0  0  0
  185.3880  178.5600  139.5500 C   0  0  0  0  0  2  0  0  0  0  0  0
  184.6320  179.7510  139.1760 N   0  0  0  0  0  2  0  0  0  0  0  0
  183.2680  179.7040  139.7100 C   0  0  0  0  0  2  0  0  0  0  0  0
  183.0420  178.2790  140.2790 C   0  0  1  0  0  3  0  0  0  0  0  0
  182.6640  178.2000  141.5840 O   0  0  0  0  0  0  0  0  0  0  0  0
  181.7060  177.9940  140.5750 N   0  0  0  0  0  0  0  0  0  0  0  0
  180.6330  178.9640  140.9640 C   0  0  0  0  0  2  0  0  0  0  0  0
  179.5880  179.0880  139.9550 C   0  0  0  0  0  2  0  0  0  0  0  0
  179.5960  177.9530  138.9290 C   0  0  0  0  0  2  0  0  0  0  0  0
  180.7270  178.4380  137.0900 C   0  0  0  0  0  1  0  0  0  0  0  0
  179.4470  178.4290  137.6200 O   0  0  0  0  0  0  0  0  0  0  0  0
  1 23  1  6  0  0  0
  1 48  1  0  0  0  0
  2  7  1  0  0  0  0
  3  2  1  0  0  0  0
  4  5  1  0  0  0  0
  5  7  1  0  0  0  0
  5  8  1  1  0  0  0
  6  3  1  0  0  0  0
  6  4  2  0  0  0  0
  7  1  1  1  0  0  0
  9 19  1  0  0  0  0
  9 12  1  0  0  0  0
 10  8  1  0  0  0  0
 10 15  1  0  0  0  0
 11 15  2  0  0  0  0
 12 10  2  0  0  0  0
 13 18  1  0  0  0  0
 13 21  1  0  0  0  0
 14 20  1  0  0  0  0
 17 18  1  0  0  0  0
 17 14  2  0  0  0  0
 18  9  2  0  0  0  0
 20 12  1  0  0  0  0
 20 22  2  0  0  0  0
 21 19  1  0  0  0  0
 21 16  1  1  0  0  0
 22 11  1  0  0  0  0
 23 24  1  0  0  0  0
 25 28  2  0  0  0  0
 26 25  1  0  0  0  0
 26 24  1  1  0  0  0
 27 26  1  0  0  0  0
 27 25  1  0  0  0  0
 30 29  1  6  0  0  0
 30 32  1  0  0  0  0
 31 24  1  6  0  0  0
 31 29  1  0  0  0  0
 31 30  1  0  0  0  0
 32 34  1  6  0  0  0
 32 41  1  0  0  0  0
 33 44  1  0  0  0  0
 33 37  1  6  0  0  0
 38 46  1  6  0  0  0
 38 39  1  0  0  0  0
 39 45  1  0  0  0  0
 40 34  1  6  0  0  0
 40 38  1  0  0  0  0
 40 33  1  0  0  0  0
 41 43  1  0  0  0  0
 43 35  2  0  0  0  0
 43 44  1  0  0  0  0
 44 42  1  0  0  0  0
 45 37  2  0  0  0  0
 45 36  1  0  0  0  0
 46 47  1  0  0  0  0
 49 48  1  0  0  0  0
 49 50  1  0  0  0  0
 51 50  1  6  0  0  0
 51 53  1  0  0  0  0
 51 52  1  0  0  0  0
 53 54  1  0  0  0  0
 53 52  1  0  0  0  0
 55 54  1  0  0  0  0
 56 55  1  0  0  0  0
 57 58  1  0  0  0  0
 58 56  1  0  0  0  0
M  END
>  <MODEL>
9

>  <REMARK>
 VINA RESULT:      -7.1      2.828     10.121
  Name = 
  17 active torsions:
  status: ('A' for Active; 'I' for Inactive)
    1  A    between atoms: C_2  and  C_26
    2  A    between atoms: C_3  and  O_14
    3  A    between atoms: C_5  and  C_29
    4  A    between atoms: C_10  and  N_44
    5  A    between atoms: C_13  and  C_49
    6  A    between atoms: O_14  and  C_38
    7  A    between atoms: C_22  and  C_30
    8  A    between atoms: C_22  and  O_45
    9  A    between atoms: C_30  and  C_31
   10  A    between atoms: C_31  and  N_48
   11  A    between atoms: N_32  and  C_36
   12  A    between atoms: N_32  and  C_49
   13  A    between atoms: C_36  and  C_53
   14  A    between atoms: N_44  and  C_51
   15  A    between atoms: N_44  and  C_52
   16  A    between atoms: C_52  and  C_53
   17  A    between atoms: C_53  and  C_58
                            x       y       z     vdW  Elec       q    Type
                         _______ _______ _______ _____ _____    ______ ____

>  <TORSDO>
F 17

$$$$
