=
 OpenBabel10222419393D

 39 44  0  0  1  0  0  0  0  0999 V2000
  183.6630  178.5270  141.6610 C   0  0  0  0  0  0  0  0  0  0  0  0
  183.0860  179.0100  142.9610 C   0  0  0  0  0  3  0  0  0  0  0  0
  181.8620  176.2760  139.4710 C   0  0  1  0  0  3  0  0  0  0  0  0
  179.7280  176.5340  140.4700 C   0  0  1  0  0  3  0  0  0  0  0  0
  181.1000  176.7180  140.5860 N   0  0  0  0  0  0  0  0  0  0  0  0
  178.9460  177.1420  141.3360 N   0  0  0  0  0  2  0  0  0  0  0  0
  178.9310  174.6990  139.0510 C   0  0  0  0  0  1  0  0  0  0  0  0
  179.3980  176.1410  139.0740 C   0  0  2  0  0  3  0  0  0  0  0  0
  179.5840  177.8960  142.4270 C   0  0  0  0  0  2  0  0  0  0  0  0
  180.7860  176.2600  138.3530 C   0  0  0  0  0  2  0  0  0  0  0  0
  183.0950  177.2580  139.4520 C   0  0  2  0  0  3  0  0  0  0  0  0
  182.8350  178.1280  140.6780 C   0  0  0  0  0  0  0  0  0  0  0  0
  180.8650  178.3190  142.2550 C   0  0  0  0  0  0  0  0  0  0  0  0
  181.4110  178.0610  140.9110 C   0  0  0  0  0  0  0  0  0  0  0  0
  181.7680  178.9130  143.2530 C   0  0  0  0  0  3  0  0  0  0  0  0
  183.1780  178.0610  138.1240 C   0  0  1  0  0  3  0  0  0  0  0  0
  186.0870  178.5830  137.6300 N   0  0  0  0  0  2  0  0  0  0  0  0
  185.3150  179.3800  138.5670 C   0  0  0  0  0  2  0  0  0  0  0  0
  183.8580  179.4420  138.1280 C   0  0  2  0  0  3  0  0  0  0  0  0
  183.5870  177.3050  136.9920 O   0  0  0  0  0  0  0  0  0  0  0  0
  185.8970  177.1920  138.0110 C   0  0  1  0  0  3  0  0  0  0  0  0
  184.7700  176.5350  137.1910 C   0  0  1  0  0  3  0  0  0  0  0  0
  183.8040  174.6180  136.6430 C   0  0  0  0  0  1  0  0  0  0  0  0
  184.4590  175.2660  137.6910 O   0  0  0  0  0  0  0  0  0  0  0  0
  187.2110  176.4140  137.9010 C   0  0  0  0  0  2  0  0  0  0  0  0
  188.4170  177.2080  138.3900 C   0  0  0  0  0  2  0  0  0  0  0  0
  188.2440  177.5730  139.7250 O   0  0  0  0  0  1  0  0  0  0  0  0
  183.0670  180.4810  138.9120 C   0  0  0  0  0  2  0  0  0  0  0  0
  181.2370  181.9470  138.2300 C   0  0  0  0  0  2  0  0  0  0  0  0
  181.7360  180.7180  138.2850 C   0  0  0  0  0  3  0  0  0  0  0  0
  185.1420  178.4060  141.5150 C   0  0  0  0  0  2  0  0  0  0  0  0
  185.7680  178.8330  142.6860 O   0  0  0  0  0  0  0  0  0  0  0  0
  186.5640  177.7560  143.0730 C   0  0  0  0  0  2  0  0  0  0  0  0
  187.3200  177.9230  147.2870 C   0  0  0  0  0  3  0  0  0  0  0  0
  186.8340  177.8330  144.5350 C   0  0  0  0  0  0  0  0  0  0  0  0
  186.0990  178.3770  146.7780 C   0  0  0  0  0  3  0  0  0  0  0  0
  185.8550  178.3290  145.4040 C   0  0  0  0  0  3  0  0  0  0  0  0
  188.0510  177.3700  145.0460 C   0  0  0  0  0  3  0  0  0  0  0  0
  188.2950  177.4180  146.4220 C   0  0  0  0  0  3  0  0  0  0  0  0
  1  2  1  0  0  0  0
  2 15  2  0  0  0  0
  3 10  1  6  0  0  0
  3  5  1  0  0  0  0
  4  5  1  0  0  0  0
  4  6  1  6  0  0  0
  5 14  1  0  0  0  0
  6  9  1  0  0  0  0
  8  7  1  1  0  0  0
  8  4  1  0  0  0  0
 10  8  1  0  0  0  0
 11  3  1  0  0  0  0
 11 12  1  1  0  0  0
 12 14  1  0  0  0  0
 12  1  2  0  0  0  0
 13  9  1  0  0  0  0
 13 15  1  0  0  0  0
 14 13  2  0  0  0  0
 16 20  1  6  0  0  0
 16 19  1  0  0  0  0
 16 11  1  0  0  0  0
 17 21  1  0  0  0  0
 17 18  1  0  0  0  0
 19 18  1  0  0  0  0
 19 28  1  1  0  0  0
 20 22  1  0  0  0  0
 21 25  1  6  0  0  0
 22 24  1  1  0  0  0
 22 21  1  0  0  0  0
 23 24  1  0  0  0  0
 25 26  1  0  0  0  0
 26 27  1  0  0  0  0
 29 30  2  0  0  0  0
 30 28  1  0  0  0  0
 31  1  1  0  0  0  0
 31 32  1  0  0  0  0
 32 33  1  0  0  0  0
 33 35  1  0  0  0  0
 35 38  2  0  0  0  0
 35 37  1  0  0  0  0
 36 34  1  0  0  0  0
 37 36  2  0  0  0  0
 38 39  1  0  0  0  0
 39 34  2  0  0  0  0
M  END
>  <MODEL>
1

>  <REMARK>
 VINA RESULT:      -6.5      0.000      0.000
  Name = 
  10 active torsions:
  status: ('A' for Active; 'I' for Inactive)
    1  A    between atoms: C_1  and  C_22
    2  A    between atoms: C_4  and  C_23
    3  A    between atoms: O_5  and  C_22
    4  A    between atoms: O_5  and  C_31
    5  A    between atoms: C_8  and  C_9
    6  A    between atoms: C_9  and  C_33
    7  A    between atoms: C_16  and  C_21
    8  A    between atoms: C_16  and  C_26
    9  A    between atoms: C_20  and  C_31
   10  A    between atoms: O_34  and  C_35
                            x       y       z     vdW  Elec       q    Type
                         _______ _______ _______ _____ _____    ______ ____

>  <TORSDO>
F 10

$$$$
=
 OpenBabel10222419393D

 39 44  0  0  1  0  0  0  0  0999 V2000
  182.6480  176.2000  138.9230 C   0  0  0  0  0  0  0  0  0  0  0  0
  181.2590  176.1330  139.4940 C   0  0  0  0  0  3  0  0  0  0  0  0
  184.1660  173.3940  137.2130 C   0  0  1  0  0  3  0  0  0  0  0  0
  182.1850  172.1310  136.8980 C   0  0  1  0  0  3  0  0  0  0  0  0
  182.8060  173.1790  137.5660 N   0  0  0  0  0  0  0  0  0  0  0  0
  180.8750  172.0340  136.9810 N   0  0  0  0  0  2  0  0  0  0  0  0
  183.5860  170.2790  136.1110 C   0  0  0  0  0  1  0  0  0  0  0  0
  183.0580  171.6630  135.7900 C   0  0  2  0  0  3  0  0  0  0  0  0
  180.1690  172.9860  137.8530 C   0  0  0  0  0  2  0  0  0  0  0  0
  184.2340  172.7000  135.8260 C   0  0  0  0  0  2  0  0  0  0  0  0
  184.3550  174.9490  137.3980 C   0  0  2  0  0  3  0  0  0  0  0  0
  182.9850  175.3830  137.9090 C   0  0  0  0  0  0  0  0  0  0  0  0
  180.7840  174.1610  138.1560 C   0  0  0  0  0  0  0  0  0  0  0  0
  182.0580  174.3760  137.4490 C   0  0  0  0  0  0  0  0  0  0  0  0
  180.3730  175.1730  139.1420 C   0  0  0  0  0  3  0  0  0  0  0  0
  184.7760  175.6440  136.0730 C   0  0  1  0  0  3  0  0  0  0  0  0
  186.6940  177.8180  136.8310 N   0  0  0  0  0  2  0  0  0  0  0  0
  185.2570  177.9840  136.9660 C   0  0  0  0  0  2  0  0  0  0  0  0
  184.5320  177.1550  135.9140 C   0  0  2  0  0  3  0  0  0  0  0  0
  186.0680  175.2920  135.5970 O   0  0  0  0  0  0  0  0  0  0  0  0
  187.0400  176.5930  137.5350 C   0  0  1  0  0  3  0  0  0  0  0  0
  187.1050  175.3920  136.5710 C   0  0  1  0  0  3  0  0  0  0  0  0
  188.0420  173.3880  136.4590 C   0  0  0  0  0  1  0  0  0  0  0  0
  187.2430  174.1910  137.2740 O   0  0  0  0  0  0  0  0  0  0  0  0
  188.3430  176.7660  138.3190 C   0  0  0  0  0  2  0  0  0  0  0  0
  188.3010  177.9380  139.2940 C   0  0  0  0  0  2  0  0  0  0  0  0
  189.0550  179.0010  138.7980 O   0  0  0  0  0  1  0  0  0  0  0  0
  183.0510  177.5030  135.8320 C   0  0  0  0  0  2  0  0  0  0  0  0
  181.1450  176.5820  134.6140 C   0  0  0  0  0  2  0  0  0  0  0  0
  182.4330  176.9050  134.6140 C   0  0  0  0  0  3  0  0  0  0  0  0
  183.6560  177.1010  139.5520 C   0  0  0  0  0  2  0  0  0  0  0  0
  183.2120  177.4990  140.8130 O   0  0  0  0  0  0  0  0  0  0  0  0
  184.0060  178.6000  141.1340 C   0  0  0  0  0  2  0  0  0  0  0  0
  184.6850  178.6310  145.3650 C   0  0  0  0  0  3  0  0  0  0  0  0
  184.2480  178.6310  142.6030 C   0  0  0  0  0  0  0  0  0  0  0  0
  183.4370  179.0030  144.8540 C   0  0  0  0  0  3  0  0  0  0  0  0
  183.2170  179.0000  143.4750 C   0  0  0  0  0  3  0  0  0  0  0  0
  185.4920  178.2500  143.1140 C   0  0  0  0  0  3  0  0  0  0  0  0
  185.7120  178.2520  144.4950 C   0  0  0  0  0  3  0  0  0  0  0  0
  1  2  1  0  0  0  0
  1 31  1  0  0  0  0
  3 10  1  6  0  0  0
  3 11  1  0  0  0  0
  3  5  1  0  0  0  0
  4  6  1  6  0  0  0
  4  5  1  0  0  0  0
  6  9  1  0  0  0  0
  8 10  1  0  0  0  0
  8  7  1  1  0  0  0
  8  4  1  0  0  0  0
  9 13  1  0  0  0  0
 11 12  1  6  0  0  0
 12  1  2  0  0  0  0
 13 15  1  0  0  0  0
 14  5  1  0  0  0  0
 14 12  1  0  0  0  0
 14 13  2  0  0  0  0
 15  2  2  0  0  0  0
 16 20  1  1  0  0  0
 16 11  1  0  0  0  0
 17 18  1  0  0  0  0
 17 21  1  0  0  0  0
 19 28  1  1  0  0  0
 19 16  1  0  0  0  0
 19 18  1  0  0  0  0
 20 22  1  0  0  0  0
 21 25  1  6  0  0  0
 22 24  1  1  0  0  0
 22 21  1  0  0  0  0
 23 24  1  0  0  0  0
 25 26  1  0  0  0  0
 27 26  1  0  0  0  0
 30 29  2  0  0  0  0
 30 28  1  0  0  0  0
 31 32  1  0  0  0  0
 32 33  1  0  0  0  0
 33 35  1  0  0  0  0
 35 38  2  0  0  0  0
 35 37  1  0  0  0  0
 36 34  1  0  0  0  0
 37 36  2  0  0  0  0
 38 39  1  0  0  0  0
 39 34  2  0  0  0  0
M  END
>  <MODEL>
2

>  <REMARK>
 VINA RESULT:      -6.1      2.572      4.324
  Name = 
  10 active torsions:
  status: ('A' for Active; 'I' for Inactive)
    1  A    between atoms: C_1  and  C_22
    2  A    between atoms: C_4  and  C_23
    3  A    between atoms: O_5  and  C_22
    4  A    between atoms: O_5  and  C_31
    5  A    between atoms: C_8  and  C_9
    6  A    between atoms: C_9  and  C_33
    7  A    between atoms: C_16  and  C_21
    8  A    between atoms: C_16  and  C_26
    9  A    between atoms: C_20  and  C_31
   10  A    between atoms: O_34  and  C_35
                            x       y       z     vdW  Elec       q    Type
                         _______ _______ _______ _____ _____    ______ ____

>  <TORSDO>
F 10

$$$$
=
 OpenBabel10222419393D

 39 44  0  0  1  0  0  0  0  0999 V2000
  184.7660  177.9830  138.0870 C   0  0  0  0  0  0  0  0  0  0  0  0
  184.4930  179.2670  138.8190 C   0  0  0  0  0  3  0  0  0  0  0  0
  182.5940  175.1010  138.3770 C   0  0  1  0  0  3  0  0  0  0  0  0
  180.7490  176.2170  139.3590 C   0  0  1  0  0  3  0  0  0  0  0  0
  182.1000  176.2560  139.0410 N   0  0  0  0  0  0  0  0  0  0  0  0
  180.1680  177.3360  139.7380 N   0  0  0  0  0  2  0  0  0  0  0  0
  179.7160  174.0230  139.7210 C   0  0  0  0  0  1  0  0  0  0  0  0
  180.1140  175.0540  138.6840 C   0  0  2  0  0  3  0  0  0  0  0  0
  181.0140  178.5310  139.8900 C   0  0  0  0  0  2  0  0  0  0  0  0
  181.2860  174.4950  137.8040 C   0  0  0  0  0  2  0  0  0  0  0  0
  183.7450  175.6650  137.4580 C   0  0  2  0  0  3  0  0  0  0  0  0
  183.7460  177.1480  137.8150 C   0  0  0  0  0  0  0  0  0  0  0  0
  182.1990  178.5710  139.2240 C   0  0  0  0  0  0  0  0  0  0  0  0
  182.4220  177.4310  138.3170 C   0  0  0  0  0  0  0  0  0  0  0  0
  183.2870  179.5530  139.3620 C   0  0  0  0  0  3  0  0  0  0  0  0
  183.4770  175.3850  135.9530 C   0  0  1  0  0  3  0  0  0  0  0  0
  186.1630  175.1110  134.6520 N   0  0  0  0  0  2  0  0  0  0  0  0
  185.5890  176.4110  134.9570 C   0  0  0  0  0  2  0  0  0  0  0  0
  184.0680  176.3400  134.9000 C   0  0  2  0  0  3  0  0  0  0  0  0
  183.6510  174.0310  135.5560 O   0  0  0  0  0  0  0  0  0  0  0  0
  186.1370  174.3450  135.8870 C   0  0  1  0  0  3  0  0  0  0  0  0
  184.8860  173.4490  135.9660 C   0  0  1  0  0  3  0  0  0  0  0  0
  183.8670  171.8110  137.0550 C   0  0  0  0  0  1  0  0  0  0  0  0
  184.7640  172.8650  137.2310 O   0  0  0  0  0  0  0  0  0  0  0  0
  187.4270  173.5390  136.0530 C   0  0  0  0  0  2  0  0  0  0  0  0
  188.4900  174.2730  136.8630 C   0  0  0  0  0  2  0  0  0  0  0  0
  189.4640  173.3770  137.3020 O   0  0  0  0  0  1  0  0  0  0  0  0
  183.4280  177.7210  134.9390 C   0  0  0  0  0  2  0  0  0  0  0  0
  181.1620  178.6240  135.0460 C   0  0  0  0  0  2  0  0  0  0  0  0
  181.9640  177.6350  134.6710 C   0  0  0  0  0  3  0  0  0  0  0  0
  186.1720  177.6090  137.7610 C   0  0  0  0  0  2  0  0  0  0  0  0
  187.0470  178.5590  138.2890 O   0  0  0  0  0  0  0  0  0  0  0  0
  188.2910  177.9290  138.2900 C   0  0  0  0  0  2  0  0  0  0  0  0
  189.7750  177.6800  142.3020 C   0  0  0  0  0  3  0  0  0  0  0  0
  188.7970  177.8240  139.6860 C   0  0  0  0  0  0  0  0  0  0  0  0
  190.5290  177.1600  141.2440 C   0  0  0  0  0  3  0  0  0  0  0  0
  190.0420  177.2350  139.9370 C   0  0  0  0  0  3  0  0  0  0  0  0
  188.0490  178.3520  140.7420 C   0  0  0  0  0  3  0  0  0  0  0  0
  188.5370  178.2780  142.0510 C   0  0  0  0  0  3  0  0  0  0  0  0
  1  2  1  0  0  0  0
  2 15  2  0  0  0  0
  3 10  1  6  0  0  0
  3  5  1  0  0  0  0
  4  6  1  6  0  0  0
  5  4  1  0  0  0  0
  6  9  1  0  0  0  0
  8  4  1  0  0  0  0
  8  7  1  1  0  0  0
 10  8  1  0  0  0  0
 11 12  1  6  0  0  0
 11  3  1  0  0  0  0
 12  1  2  0  0  0  0
 12 14  1  0  0  0  0
 13 15  1  0  0  0  0
 13  9  1  0  0  0  0
 14  5  1  0  0  0  0
 14 13  2  0  0  0  0
 16 20  1  6  0  0  0
 16 11  1  0  0  0  0
 17 18  1  0  0  0  0
 17 21  1  0  0  0  0
 19 28  1  1  0  0  0
 19 18  1  0  0  0  0
 19 16  1  0  0  0  0
 20 22  1  0  0  0  0
 21 22  1  0  0  0  0
 21 25  1  6  0  0  0
 22 24  1  1  0  0  0
 23 24  1  0  0  0  0
 25 26  1  0  0  0  0
 26 27  1  0  0  0  0
 30 28  1  0  0  0  0
 30 29  2  0  0  0  0
 31  1  1  0  0  0  0
 31 32  1  0  0  0  0
 32 33  1  0  0  0  0
 33 35  1  0  0  0  0
 35 37  2  0  0  0  0
 35 38  1  0  0  0  0
 36 34  2  0  0  0  0
 37 36  1  0  0  0  0
 38 39  2  0  0  0  0
 39 34  1  0  0  0  0
M  END
>  <MODEL>
3

>  <REMARK>
 VINA RESULT:      -5.6      2.707      3.980
  Name = 
  10 active torsions:
  status: ('A' for Active; 'I' for Inactive)
    1  A    between atoms: C_1  and  C_22
    2  A    between atoms: C_4  and  C_23
    3  A    between atoms: O_5  and  C_22
    4  A    between atoms: O_5  and  C_31
    5  A    between atoms: C_8  and  C_9
    6  A    between atoms: C_9  and  C_33
    7  A    between atoms: C_16  and  C_21
    8  A    between atoms: C_16  and  C_26
    9  A    between atoms: C_20  and  C_31
   10  A    between atoms: O_34  and  C_35
                            x       y       z     vdW  Elec       q    Type
                         _______ _______ _______ _____ _____    ______ ____

>  <TORSDO>
F 10

$$$$
=
 OpenBabel10222419393D

 39 44  0  0  1  0  0  0  0  0999 V2000
  187.9250  174.3420  136.3850 C   0  0  0  0  0  0  0  0  0  0  0  0
  187.7540  173.2170  135.4020 C   0  0  0  0  0  3  0  0  0  0  0  0
  191.1120  175.0780  137.9360 C   0  0  1  0  0  3  0  0  0  0  0  0
  192.4590  173.7920  136.4710 C   0  0  1  0  0  3  0  0  0  0  0  0
  191.1810  174.0640  136.9430 N   0  0  0  0  0  0  0  0  0  0  0  0
  192.5760  173.0590  135.3850 N   0  0  0  0  0  2  0  0  0  0  0  0
  194.3530  174.2130  137.9720 C   0  0  0  0  0  1  0  0  0  0  0  0
  193.4020  174.8300  136.9660 C   0  0  2  0  0  3  0  0  0  0  0  0
  191.3470  172.4980  134.7990 C   0  0  0  0  0  2  0  0  0  0  0  0
  192.4430  175.8370  137.6920 C   0  0  0  0  0  2  0  0  0  0  0  0
  189.6990  175.7360  137.6950 C   0  0  2  0  0  3  0  0  0  0  0  0
  189.1400  174.8930  136.5530 C   0  0  0  0  0  0  0  0  0  0  0  0
  190.1620  173.0980  135.0910 C   0  0  0  0  0  0  0  0  0  0  0  0
  190.2900  174.3380  135.8770 C   0  0  0  0  0  0  0  0  0  0  0  0
  188.8030  172.6210  134.7890 C   0  0  0  0  0  3  0  0  0  0  0  0
  189.8130  177.2490  137.3560 C   0  0  1  0  0  3  0  0  0  0  0  0
  187.6490  178.6280  138.9040 N   0  0  0  0  0  2  0  0  0  0  0  0
  187.3740  177.9280  137.6610 C   0  0  0  0  0  2  0  0  0  0  0  0
  188.5960  177.9720  136.7520 C   0  0  2  0  0  3  0  0  0  0  0  0
  190.4180  178.0440  138.3680 O   0  0  0  0  0  0  0  0  0  0  0  0
  188.3440  177.6850  139.7670 C   0  0  1  0  0  3  0  0  0  0  0  0
  189.8720  177.8580  139.6710 C   0  0  1  0  0  3  0  0  0  0  0  0
  191.5100  177.4730  141.1120 C   0  0  0  0  0  1  0  0  0  0  0  0
  190.5370  176.8290  140.3470 O   0  0  0  0  0  0  0  0  0  0  0  0
  187.8460  177.8010  141.2100 C   0  0  0  0  0  2  0  0  0  0  0  0
  186.5670  178.6220  141.3360 C   0  0  0  0  0  2  0  0  0  0  0  0
  186.0440  178.5010  142.6220 O   0  0  0  0  0  1  0  0  0  0  0  0
  188.2770  177.4990  135.3400 C   0  0  0  0  0  2  0  0  0  0  0  0
  185.9700  177.2030  134.5960 C   0  0  0  0  0  2  0  0  0  0  0  0
  186.9630  178.0360  134.8860 C   0  0  0  0  0  3  0  0  0  0  0  0
  186.7680  174.7620  137.2260 C   0  0  0  0  0  2  0  0  0  0  0  0
  185.5760  174.3640  136.6220 O   0  0  0  0  0  0  0  0  0  0  0  0
  184.9350  173.5850  137.5850 C   0  0  0  0  0  2  0  0  0  0  0  0
  182.4580  170.6310  135.7150 C   0  0  0  0  0  3  0  0  0  0  0  0
  184.0760  172.5690  136.9170 C   0  0  0  0  0  0  0  0  0  0  0  0
  183.8470  170.4710  135.7290 C   0  0  0  0  0  3  0  0  0  0  0  0
  184.6560  171.4370  136.3320 C   0  0  0  0  0  3  0  0  0  0  0  0
  182.6860  172.7240  136.9120 C   0  0  0  0  0  3  0  0  0  0  0  0
  181.8770  171.7560  136.3080 C   0  0  0  0  0  3  0  0  0  0  0  0
  1 12  1  0  0  0  0
  1 31  1  0  0  0  0
  2  1  2  0  0  0  0
  3 10  1  6  0  0  0
  4  6  1  6  0  0  0
  4  5  1  0  0  0  0
  4  8  1  0  0  0  0
  5  3  1  0  0  0  0
  8 10  1  0  0  0  0
  8  7  1  1  0  0  0
  9 13  1  0  0  0  0
  9  6  1  0  0  0  0
 11 12  1  6  0  0  0
 11  3  1  0  0  0  0
 13 14  1  0  0  0  0
 14 12  2  0  0  0  0
 14  5  1  0  0  0  0
 15 13  2  0  0  0  0
 15  2  1  0  0  0  0
 16 11  1  0  0  0  0
 16 20  1  1  0  0  0
 17 21  1  0  0  0  0
 18 17  1  0  0  0  0
 19 28  1  6  0  0  0
 19 16  1  0  0  0  0
 19 18  1  0  0  0  0
 20 22  1  0  0  0  0
 21 25  1  1  0  0  0
 22 21  1  0  0  0  0
 22 24  1  6  0  0  0
 24 23  1  0  0  0  0
 25 26  1  0  0  0  0
 26 27  1  0  0  0  0
 29 30  2  0  0  0  0
 30 28  1  0  0  0  0
 32 31  1  0  0  0  0
 32 33  1  0  0  0  0
 34 36  2  0  0  0  0
 34 39  1  0  0  0  0
 35 33  1  0  0  0  0
 36 37  1  0  0  0  0
 37 35  2  0  0  0  0
 38 35  1  0  0  0  0
 39 38  2  0  0  0  0
M  END
>  <MODEL>
4

>  <REMARK>
 VINA RESULT:      -5.5      4.486      9.788
  Name = 
  10 active torsions:
  status: ('A' for Active; 'I' for Inactive)
    1  A    between atoms: C_1  and  C_22
    2  A    between atoms: C_4  and  C_23
    3  A    between atoms: O_5  and  C_22
    4  A    between atoms: O_5  and  C_31
    5  A    between atoms: C_8  and  C_9
    6  A    between atoms: C_9  and  C_33
    7  A    between atoms: C_16  and  C_21
    8  A    between atoms: C_16  and  C_26
    9  A    between atoms: C_20  and  C_31
   10  A    between atoms: O_34  and  C_35
                            x       y       z     vdW  Elec       q    Type
                         _______ _______ _______ _____ _____    ______ ____

>  <TORSDO>
F 10

$$$$
=
 OpenBabel10222419393D

 39 44  0  0  1  0  0  0  0  0999 V2000
  185.7240  177.6010  138.4330 C   0  0  0  0  0  0  0  0  0  0  0  0
  184.6740  178.2660  139.2760 C   0  0  0  0  0  3  0  0  0  0  0  0
  185.3400  174.2240  137.1860 C   0  0  1  0  0  3  0  0  0  0  0  0
  183.0170  174.0150  137.6060 C   0  0  1  0  0  3  0  0  0  0  0  0
  184.1880  174.7200  137.8540 N   0  0  0  0  0  0  0  0  0  0  0  0
  181.8760  174.5570  137.9780 N   0  0  0  0  0  2  0  0  0  0  0  0
  183.2060  171.6400  137.0230 C   0  0  0  0  0  1  0  0  0  0  0  0
  183.2410  173.0590  136.4890 C   0  0  2  0  0  3  0  0  0  0  0  0
  181.9290  175.8290  138.7170 C   0  0  0  0  0  2  0  0  0  0  0  0
  184.6970  173.4150  136.0280 C   0  0  0  0  0  2  0  0  0  0  0  0
  186.2110  175.5160  136.9420 C   0  0  2  0  0  3  0  0  0  0  0  0
  185.3700  176.6030  137.6030 C   0  0  0  0  0  0  0  0  0  0  0  0
  183.0410  176.6020  138.5900 C   0  0  0  0  0  0  0  0  0  0  0  0
  184.0150  176.1030  137.6040 C   0  0  0  0  0  0  0  0  0  0  0  0
  183.4060  177.8010  139.3610 C   0  0  0  0  0  3  0  0  0  0  0  0
  186.4740  175.7620  135.4290 C   0  0  1  0  0  3  0  0  0  0  0  0
  188.9870  177.3850  135.2600 N   0  0  0  0  0  2  0  0  0  0  0  0
  187.7050  177.9900  135.5790 C   0  0  0  0  0  2  0  0  0  0  0  0
  186.5770  177.2090  134.9170 C   0  0  2  0  0  3  0  0  0  0  0  0
  187.4950  174.9540  134.8610 O   0  0  0  0  0  0  0  0  0  0  0  0
  189.1740  176.2900  136.1980 C   0  0  1  0  0  3  0  0  0  0  0  0
  188.7200  174.9480  135.5900 C   0  0  1  0  0  3  0  0  0  0  0  0
  189.1770  172.8010  135.8850 C   0  0  0  0  0  1  0  0  0  0  0  0
  188.7180  173.9350  136.5550 O   0  0  0  0  0  0  0  0  0  0  0  0
  190.6240  176.2330  136.6850 C   0  0  0  0  0  2  0  0  0  0  0  0
  190.8050  176.8040  138.0870 C   0  0  0  0  0  2  0  0  0  0  0  0
  191.9550  176.2790  138.6750 O   0  0  0  0  0  1  0  0  0  0  0  0
  185.2480  177.9510  134.9880 C   0  0  0  0  0  2  0  0  0  0  0  0
  182.8730  177.5080  134.6360 C   0  0  0  0  0  2  0  0  0  0  0  0
  184.1210  177.0570  134.5960 C   0  0  0  0  0  3  0  0  0  0  0  0
  187.1540  177.9900  138.6000 C   0  0  0  0  0  2  0  0  0  0  0  0
  187.3210  178.6620  139.8100 O   0  0  0  0  0  0  0  0  0  0  0  0
  188.3070  177.9380  140.4810 C   0  0  0  0  0  2  0  0  0  0  0  0
  187.1060  177.2980  144.5440 C   0  0  0  0  0  3  0  0  0  0  0  0
  187.8810  177.6980  141.8870 C   0  0  0  0  0  0  0  0  0  0  0  0
  188.3390  176.8140  144.0950 C   0  0  0  0  0  3  0  0  0  0  0  0
  188.7280  177.0160  142.7690 C   0  0  0  0  0  3  0  0  0  0  0  0
  186.6530  178.1910  142.3400 C   0  0  0  0  0  3  0  0  0  0  0  0
  186.2640  177.9890  143.6670 C   0  0  0  0  0  3  0  0  0  0  0  0
  1 31  1  0  0  0  0
  1  2  1  0  0  0  0
  2 15  2  0  0  0  0
  3 10  1  6  0  0  0
  3  5  1  0  0  0  0
  4  5  1  0  0  0  0
  4  6  1  6  0  0  0
  6  9  1  0  0  0  0
  8  7  1  1  0  0  0
  8  4  1  0  0  0  0
 10  8  1  0  0  0  0
 11  3  1  0  0  0  0
 11 12  1  6  0  0  0
 12 14  1  0  0  0  0
 12  1  2  0  0  0  0
 13  9  1  0  0  0  0
 13 15  1  0  0  0  0
 14  5  1  0  0  0  0
 14 13  2  0  0  0  0
 16 20  1  1  0  0  0
 16 11  1  0  0  0  0
 17 18  1  0  0  0  0
 17 21  1  0  0  0  0
 19 28  1  1  0  0  0
 19 16  1  0  0  0  0
 19 18  1  0  0  0  0
 20 22  1  0  0  0  0
 21 25  1  6  0  0  0
 22 21  1  0  0  0  0
 22 24  1  1  0  0  0
 23 24  1  0  0  0  0
 25 26  1  0  0  0  0
 26 27  1  0  0  0  0
 30 29  2  0  0  0  0
 30 28  1  0  0  0  0
 31 32  1  0  0  0  0
 32 33  1  0  0  0  0
 33 35  1  0  0  0  0
 35 38  2  0  0  0  0
 35 37  1  0  0  0  0
 36 34  1  0  0  0  0
 37 36  2  0  0  0  0
 38 39  1  0  0  0  0
 39 34  2  0  0  0  0
M  END
>  <MODEL>
5

>  <REMARK>
 VINA RESULT:      -5.4      2.803      4.434
  Name = 
  10 active torsions:
  status: ('A' for Active; 'I' for Inactive)
    1  A    between atoms: C_1  and  C_22
    2  A    between atoms: C_4  and  C_23
    3  A    between atoms: O_5  and  C_22
    4  A    between atoms: O_5  and  C_31
    5  A    between atoms: C_8  and  C_9
    6  A    between atoms: C_9  and  C_33
    7  A    between atoms: C_16  and  C_21
    8  A    between atoms: C_16  and  C_26
    9  A    between atoms: C_20  and  C_31
   10  A    between atoms: O_34  and  C_35
                            x       y       z     vdW  Elec       q    Type
                         _______ _______ _______ _____ _____    ______ ____

>  <TORSDO>
F 10

$$$$
=
 OpenBabel10222419393D

 39 44  0  0  1  0  0  0  0  0999 V2000
  183.2790  178.5610  141.5050 C   0  0  0  0  0  0  0  0  0  0  0  0
  182.5370  178.9490  142.7520 C   0  0  0  0  0  3  0  0  0  0  0  0
  182.0790  175.9760  139.2730 C   0  0  1  0  0  3  0  0  0  0  0  0
  179.8730  175.8440  140.1300 C   0  0  1  0  0  3  0  0  0  0  0  0
  181.1760  176.2850  140.3270 N   0  0  0  0  0  0  0  0  0  0  0  0
  178.9350  176.3080  140.9290 N   0  0  0  0  0  2  0  0  0  0  0  0
  179.5280  173.8690  138.7190 C   0  0  0  0  0  1  0  0  0  0  0  0
  179.7150  175.3730  138.7290 C   0  0  2  0  0  3  0  0  0  0  0  0
  179.3480  177.1870  142.0350 C   0  0  0  0  0  2  0  0  0  0  0  0
  181.1010  175.7390  138.0920 C   0  0  0  0  0  2  0  0  0  0  0  0
  183.1060  177.1720  139.3030 C   0  0  2  0  0  3  0  0  0  0  0  0
  182.6070  177.9980  140.4850 C   0  0  0  0  0  0  0  0  0  0  0  0
  180.5360  177.8400  141.9300 C   0  0  0  0  0  0  0  0  0  0  0  0
  181.2080  177.6680  140.6310 C   0  0  0  0  0  0  0  0  0  0  0  0
  181.2440  178.6100  142.9650 C   0  0  0  0  0  3  0  0  0  0  0  0
  183.1250  177.9540  137.9590 C   0  0  1  0  0  3  0  0  0  0  0  0
  185.9060  179.0230  137.6420 N   0  0  0  0  0  2  0  0  0  0  0  0
  184.9310  179.6700  138.5030 C   0  0  0  0  0  2  0  0  0  0  0  0
  183.5240  179.4410  137.9670 C   0  0  2  0  0  3  0  0  0  0  0  0
  183.7500  177.2730  136.8800 O   0  0  0  0  0  0  0  0  0  0  0  0
  185.9620  177.6290  138.0510 C   0  0  1  0  0  3  0  0  0  0  0  0
  185.0430  176.7510  137.1790 C   0  0  1  0  0  3  0  0  0  0  0  0
  185.0770  174.6170  136.5860 C   0  0  0  0  0  1  0  0  0  0  0  0
  184.9480  175.4540  137.6950 O   0  0  0  0  0  0  0  0  0  0  0  0
  187.4050  177.1190  138.0510 C   0  0  0  0  0  2  0  0  0  0  0  0
  188.0410  177.1300  136.6650 C   0  0  0  0  0  2  0  0  0  0  0  0
  189.0960  178.0420  136.6280 O   0  0  0  0  0  1  0  0  0  0  0  0
  182.4940  180.3180  138.6670 C   0  0  0  0  0  2  0  0  0  0  0  0
  181.1810  180.5750  136.6240 C   0  0  0  0  0  2  0  0  0  0  0  0
  181.2010  180.3120  137.9250 C   0  0  0  0  0  3  0  0  0  0  0  0
  184.7610  178.7180  141.4550 C   0  0  0  0  0  2  0  0  0  0  0  0
  185.3650  177.7470  142.2530 O   0  0  0  0  0  0  0  0  0  0  0  0
  186.3980  178.4200  142.9050 C   0  0  0  0  0  2  0  0  0  0  0  0
  190.0900  176.3980  142.1050 C   0  0  0  0  0  3  0  0  0  0  0  0
  187.6910  177.7310  142.6390 C   0  0  0  0  0  0  0  0  0  0  0  0
  189.3200  176.0340  143.2150 C   0  0  0  0  0  3  0  0  0  0  0  0
  188.1200  176.6980  143.4800 C   0  0  0  0  0  3  0  0  0  0  0  0
  188.4560  178.0870  141.5240 C   0  0  0  0  0  3  0  0  0  0  0  0
  189.6570  177.4220  141.2580 C   0  0  0  0  0  3  0  0  0  0  0  0
  1  2  1  0  0  0  0
  2 15  2  0  0  0  0
  3 10  1  6  0  0  0
  3 11  1  0  0  0  0
  3  5  1  0  0  0  0
  4  5  1  0  0  0  0
  4  6  1  6  0  0  0
  5 14  1  0  0  0  0
  6  9  1  0  0  0  0
  8  7  1  1  0  0  0
  8  4  1  0  0  0  0
 10  8  1  0  0  0  0
 11 12  1  1  0  0  0
 12 14  1  0  0  0  0
 12  1  2  0  0  0  0
 13  9  1  0  0  0  0
 13 15  1  0  0  0  0
 14 13  2  0  0  0  0
 16 20  1  6  0  0  0
 16 19  1  0  0  0  0
 16 11  1  0  0  0  0
 17 21  1  0  0  0  0
 17 18  1  0  0  0  0
 19 18  1  0  0  0  0
 19 28  1  1  0  0  0
 20 22  1  0  0  0  0
 21 25  1  6  0  0  0
 22 24  1  1  0  0  0
 22 21  1  0  0  0  0
 23 24  1  0  0  0  0
 26 25  1  0  0  0  0
 27 26  1  0  0  0  0
 29 30  2  0  0  0  0
 30 28  1  0  0  0  0
 31  1  1  0  0  0  0
 31 32  1  0  0  0  0
 32 33  1  0  0  0  0
 34 36  1  0  0  0  0
 35 33  1  0  0  0  0
 35 37  1  0  0  0  0
 36 37  2  0  0  0  0
 38 35  2  0  0  0  0
 39 38  1  0  0  0  0
 39 34  2  0  0  0  0
M  END
>  <MODEL>
6

>  <REMARK>
 VINA RESULT:      -5.0      1.446      1.991
  Name = 
  10 active torsions:
  status: ('A' for Active; 'I' for Inactive)
    1  A    between atoms: C_1  and  C_22
    2  A    between atoms: C_4  and  C_23
    3  A    between atoms: O_5  and  C_22
    4  A    between atoms: O_5  and  C_31
    5  A    between atoms: C_8  and  C_9
    6  A    between atoms: C_9  and  C_33
    7  A    between atoms: C_16  and  C_21
    8  A    between atoms: C_16  and  C_26
    9  A    between atoms: C_20  and  C_31
   10  A    between atoms: O_34  and  C_35
                            x       y       z     vdW  Elec       q    Type
                         _______ _______ _______ _____ _____    ______ ____

>  <TORSDO>
F 10

$$$$
=
 OpenBabel10222419393D

 39 44  0  0  1  0  0  0  0  0999 V2000
  183.0850  177.2080  139.3530 C   0  0  0  0  0  0  0  0  0  0  0  0
  184.1680  176.4230  138.6680 C   0  0  0  0  0  3  0  0  0  0  0  0
  181.1250  179.7060  137.6140 C   0  0  1  0  0  3  0  0  0  0  0  0
  181.7280  179.0760  135.4100 C   0  0  1  0  0  3  0  0  0  0  0  0
  182.0090  178.9850  136.7670 N   0  0  0  0  0  0  0  0  0  0  0  0
  182.3360  178.2420  134.5940 N   0  0  0  0  0  2  0  0  0  0  0  0
  180.5850  181.0920  134.6070 C   0  0  0  0  0  1  0  0  0  0  0  0
  180.4000  179.7190  135.2220 C   0  0  2  0  0  3  0  0  0  0  0  0
  183.3440  177.3340  135.1640 C   0  0  0  0  0  2  0  0  0  0  0  0
  179.8840  179.8640  136.6960 C   0  0  0  0  0  2  0  0  0  0  0  0
  181.1010  178.8520  138.9390 C   0  0  2  0  0  3  0  0  0  0  0  0
  182.0850  177.7310  138.6190 C   0  0  0  0  0  0  0  0  0  0  0  0
  183.2860  177.0620  136.4960 C   0  0  0  0  0  0  0  0  0  0  0  0
  182.1120  177.6330  137.1790 C   0  0  0  0  0  0  0  0  0  0  0  0
  184.2750  176.3510  137.3210 C   0  0  0  0  0  3  0  0  0  0  0  0
  179.6700  178.3480  139.2800 C   0  0  1  0  0  3  0  0  0  0  0  0
  179.8100  177.2170  142.0510 N   0  0  0  0  0  2  0  0  0  0  0  0
  180.2660  176.4660  140.8940 C   0  0  0  0  0  2  0  0  0  0  0  0
  179.4710  176.8700  139.6590 C   0  0  2  0  0  3  0  0  0  0  0  0
  178.9310  179.1940  140.1510 O   0  0  0  0  0  0  0  0  0  0  0  0
  180.4940  178.5000  142.0120 C   0  0  1  0  0  3  0  0  0  0  0  0
  179.6250  179.5780  141.3350 C   0  0  1  0  0  3  0  0  0  0  0  0
  179.4710  181.6130  140.4750 C   0  0  0  0  0  1  0  0  0  0  0  0
  180.3560  180.7520  141.1230 O   0  0  0  0  0  0  0  0  0  0  0  0
  180.9380  178.9220  143.4140 C   0  0  0  0  0  2  0  0  0  0  0  0
  179.7850  179.4110  144.2830 C   0  0  0  0  0  2  0  0  0  0  0  0
  178.9390  178.3480  144.6000 O   0  0  0  0  0  1  0  0  0  0  0  0
  179.7150  175.9280  138.4880 C   0  0  0  0  0  2  0  0  0  0  0  0
  181.3470  174.1560  138.0920 C   0  0  0  0  0  2  0  0  0  0  0  0
  180.4840  174.7290  138.9230 C   0  0  0  0  0  3  0  0  0  0  0  0
  183.1860  177.4770  140.8160 C   0  0  0  0  0  2  0  0  0  0  0  0
  184.4720  177.9180  141.1260 O   0  0  0  0  0  0  0  0  0  0  0  0
  184.2820  178.9060  142.0920 C   0  0  0  0  0  2  0  0  0  0  0  0
  186.4570  177.8540  145.6300 C   0  0  0  0  0  3  0  0  0  0  0  0
  185.0470  178.5590  143.3210 C   0  0  0  0  0  0  0  0  0  0  0  0
  185.2290  178.5140  145.7350 C   0  0  0  0  0  3  0  0  0  0  0  0
  184.5220  178.8640  144.5820 C   0  0  0  0  0  3  0  0  0  0  0  0
  186.2700  177.8900  143.2160 C   0  0  0  0  0  3  0  0  0  0  0  0
  186.9770  177.5400  144.3710 C   0  0  0  0  0  3  0  0  0  0  0  0
  1 31  1  0  0  0  0
  2  1  1  0  0  0  0
  3 10  1  6  0  0  0
  3 11  1  0  0  0  0
  4  6  1  1  0  0  0
  4  5  1  0  0  0  0
  5 14  1  0  0  0  0
  5  3  1  0  0  0  0
  6  9  1  0  0  0  0
  8  7  1  1  0  0  0
  8  4  1  0  0  0  0
  8 10  1  0  0  0  0
  9 13  1  0  0  0  0
 11 12  1  6  0  0  0
 11 16  1  0  0  0  0
 12  1  2  0  0  0  0
 13 14  2  0  0  0  0
 13 15  1  0  0  0  0
 14 12  1  0  0  0  0
 15  2  2  0  0  0  0
 16 19  1  0  0  0  0
 16 20  1  1  0  0  0
 18 17  1  0  0  0  0
 19 28  1  6  0  0  0
 19 18  1  0  0  0  0
 20 22  1  0  0  0  0
 21 17  1  0  0  0  0
 21 25  1  1  0  0  0
 22 24  1  6  0  0  0
 22 21  1  0  0  0  0
 23 24  1  0  0  0  0
 25 26  1  0  0  0  0
 26 27  1  0  0  0  0
 28 30  1  0  0  0  0
 29 30  2  0  0  0  0
 31 32  1  0  0  0  0
 32 33  1  0  0  0  0
 33 35  1  0  0  0  0
 34 36  1  0  0  0  0
 35 37  1  0  0  0  0
 37 36  2  0  0  0  0
 38 35  2  0  0  0  0
 38 39  1  0  0  0  0
 39 34  2  0  0  0  0
M  END
>  <MODEL>
7

>  <REMARK>
 VINA RESULT:      -5.0      2.656      5.881
  Name = 
  10 active torsions:
  status: ('A' for Active; 'I' for Inactive)
    1  A    between atoms: C_1  and  C_22
    2  A    between atoms: C_4  and  C_23
    3  A    between atoms: O_5  and  C_22
    4  A    between atoms: O_5  and  C_31
    5  A    between atoms: C_8  and  C_9
    6  A    between atoms: C_9  and  C_33
    7  A    between atoms: C_16  and  C_21
    8  A    between atoms: C_16  and  C_26
    9  A    between atoms: C_20  and  C_31
   10  A    between atoms: O_34  and  C_35
                            x       y       z     vdW  Elec       q    Type
                         _______ _______ _______ _____ _____    ______ ____

>  <TORSDO>
F 10

$$$$
=
 OpenBabel10222419393D

 39 44  0  0  1  0  0  0  0  0999 V2000
  183.3530  176.1530  136.8600 C   0  0  0  0  0  0  0  0  0  0  0  0
  184.6640  176.4450  136.1850 C   0  0  0  0  0  3  0  0  0  0  0  0
  182.7410  176.9930  140.3270 C   0  0  1  0  0  3  0  0  0  0  0  0
  184.5870  178.4520  140.6090 C   0  0  1  0  0  3  0  0  0  0  0  0
  183.9900  177.4630  139.8380 N   0  0  0  0  0  0  0  0  0  0  0  0
  185.6040  179.1100  140.0940 N   0  0  0  0  0  2  0  0  0  0  0  0
  184.0770  178.5050  143.0080 C   0  0  0  0  0  1  0  0  0  0  0  0
  183.6200  178.9380  141.6290 C   0  0  2  0  0  3  0  0  0  0  0  0
  186.0980  178.6880  138.7740 C   0  0  0  0  0  2  0  0  0  0  0  0
  182.3080  178.1700  141.2410 C   0  0  0  0  0  2  0  0  0  0  0  0
  181.9560  176.5970  139.0180 C   0  0  2  0  0  3  0  0  0  0  0  0
  182.9820  176.8840  137.9260 C   0  0  0  0  0  0  0  0  0  0  0  0
  185.2550  177.9930  137.9620 C   0  0  0  0  0  0  0  0  0  0  0  0
  183.8840  177.8650  138.4840 C   0  0  0  0  0  0  0  0  0  0  0  0
  185.5700  177.3080  136.6990 C   0  0  0  0  0  3  0  0  0  0  0  0
  180.6380  177.4070  138.8640 C   0  0  1  0  0  3  0  0  0  0  0  0
  178.9310  175.8830  136.9290 N   0  0  0  0  0  2  0  0  0  0  0  0
  180.0160  176.7390  136.4830 C   0  0  0  0  0  2  0  0  0  0  0  0
  180.2170  177.8870  137.4640 C   0  0  2  0  0  3  0  0  0  0  0  0
  179.5230  176.8740  139.5670 O   0  0  0  0  0  0  0  0  0  0  0  0
  179.4970  174.9680  137.9070 C   0  0  1  0  0  3  0  0  0  0  0  0
  179.2920  175.4850  139.3440 C   0  0  1  0  0  3  0  0  0  0  0  0
  179.1030  174.4660  141.3020 C   0  0  0  0  0  1  0  0  0  0  0  0
  180.0040  174.7080  140.2650 O   0  0  0  0  0  0  0  0  0  0  0  0
  178.9340  173.5570  137.7220 C   0  0  0  0  0  2  0  0  0  0  0  0
  179.9750  172.5590  137.2280 C   0  0  0  0  0  2  0  0  0  0  0  0
  179.3590  171.3600  136.8710 O   0  0  0  0  0  1  0  0  0  0  0  0
  181.1470  178.9580  136.9100 C   0  0  0  0  0  2  0  0  0  0  0  0
  181.9370  180.7780  138.3330 C   0  0  0  0  0  2  0  0  0  0  0  0
  180.9470  180.2530  137.6210 C   0  0  0  0  0  3  0  0  0  0  0  0
  182.5320  174.9970  136.3970 C   0  0  0  0  0  2  0  0  0  0  0  0
  183.3460  174.0710  135.7450 O   0  0  0  0  0  0  0  0  0  0  0  0
  183.5800  173.0780  136.6950 C   0  0  0  0  0  2  0  0  0  0  0  0
  187.6750  171.8450  136.4300 C   0  0  0  0  0  3  0  0  0  0  0  0
  184.9980  172.6320  136.6140 C   0  0  0  0  0  0  0  0  0  0  0  0
  186.7630  171.4540  135.4450 C   0  0  0  0  0  3  0  0  0  0  0  0
  185.4260  171.8500  135.5350 C   0  0  0  0  0  3  0  0  0  0  0  0
  185.9140  173.0320  137.5930 C   0  0  0  0  0  3  0  0  0  0  0  0
  187.2520  172.6360  137.5030 C   0  0  0  0  0  3  0  0  0  0  0  0
  1 12  1  0  0  0  0
  2 15  1  0  0  0  0
  2  1  2  0  0  0  0
  3 10  1  6  0  0  0
  4  6  1  6  0  0  0
  4  8  1  0  0  0  0
  5  3  1  0  0  0  0
  5  4  1  0  0  0  0
  8  7  1  1  0  0  0
  9  6  1  0  0  0  0
 10  8  1  0  0  0  0
 11 12  1  6  0  0  0
 11  3  1  0  0  0  0
 12 14  2  0  0  0  0
 13 14  1  0  0  0  0
 13  9  1  0  0  0  0
 14  5  1  0  0  0  0
 15 13  2  0  0  0  0
 16 11  1  0  0  0  0
 16 20  1  6  0  0  0
 17 21  1  0  0  0  0
 18 17  1  0  0  0  0
 18 19  1  0  0  0  0
 19 28  1  6  0  0  0
 19 16  1  0  0  0  0
 21 25  1  1  0  0  0
 21 22  1  0  0  0  0
 22 20  1  0  0  0  0
 22 24  1  1  0  0  0
 24 23  1  0  0  0  0
 26 25  1  0  0  0  0
 27 26  1  0  0  0  0
 28 30  1  0  0  0  0
 30 29  2  0  0  0  0
 31  1  1  0  0  0  0
 32 31  1  0  0  0  0
 32 33  1  0  0  0  0
 34 39  1  0  0  0  0
 35 33  1  0  0  0  0
 35 38  1  0  0  0  0
 36 37  1  0  0  0  0
 36 34  2  0  0  0  0
 37 35  2  0  0  0  0
 39 38  2  0  0  0  0
M  END
>  <MODEL>
8

>  <REMARK>
 VINA RESULT:      -4.9      2.944      7.161
  Name = 
  10 active torsions:
  status: ('A' for Active; 'I' for Inactive)
    1  A    between atoms: C_1  and  C_22
    2  A    between atoms: C_4  and  C_23
    3  A    between atoms: O_5  and  C_22
    4  A    between atoms: O_5  and  C_31
    5  A    between atoms: C_8  and  C_9
    6  A    between atoms: C_9  and  C_33
    7  A    between atoms: C_16  and  C_21
    8  A    between atoms: C_16  and  C_26
    9  A    between atoms: C_20  and  C_31
   10  A    between atoms: O_34  and  C_35
                            x       y       z     vdW  Elec       q    Type
                         _______ _______ _______ _____ _____    ______ ____

>  <TORSDO>
F 10

$$$$
=
 OpenBabel10222419393D

 39 44  0  0  1  0  0  0  0  0999 V2000
  185.4350  176.5740  137.2550 C   0  0  0  0  0  0  0  0  0  0  0  0
  186.6370  175.6740  137.1870 C   0  0  0  0  0  3  0  0  0  0  0  0
  182.0800  175.3540  136.6510 C   0  0  1  0  0  3  0  0  0  0  0  0
  182.5700  173.0410  136.8220 C   0  0  1  0  0  3  0  0  0  0  0  0
  183.0660  174.3300  136.6660 N   0  0  0  0  0  0  0  0  0  0  0  0
  183.4230  172.0780  137.0990 N   0  0  0  0  0  2  0  0  0  0  0  0
  180.2940  172.5820  136.0330 C   0  0  0  0  0  1  0  0  0  0  0  0
  181.1300  173.1040  137.1850 C   0  0  2  0  0  3  0  0  0  0  0  0
  184.8550  172.4170  137.1320 C   0  0  0  0  0  2  0  0  0  0  0  0
  180.8930  174.6460  137.3550 C   0  0  0  0  0  2  0  0  0  0  0  0
  182.8260  176.5940  137.2770 C   0  0  2  0  0  3  0  0  0  0  0  0
  184.2270  176.0420  137.5180 C   0  0  0  0  0  0  0  0  0  0  0  0
  185.2060  173.7160  137.3340 C   0  0  0  0  0  0  0  0  0  0  0  0
  184.0710  174.6100  137.6240 C   0  0  0  0  0  0  0  0  0  0  0  0
  186.5400  174.3250  137.2190 C   0  0  0  0  0  3  0  0  0  0  0  0
  182.1240  177.1010  138.5690 C   0  0  1  0  0  3  0  0  0  0  0  0
  181.9860  180.0860  138.3400 N   0  0  0  0  0  2  0  0  0  0  0  0
  183.2030  179.4050  138.7500 C   0  0  0  0  0  2  0  0  0  0  0  0
  182.8610  178.1080  139.4710 C   0  0  2  0  0  3  0  0  0  0  0  0
  180.7640  177.4790  138.4010 O   0  0  0  0  0  0  0  0  0  0  0  0
  181.5730  179.4800  137.0840 C   0  0  1  0  0  3  0  0  0  0  0  0
  180.5270  178.3710  137.3150 C   0  0  1  0  0  3  0  0  0  0  0  0
  178.9310  177.3090  136.2060 C   0  0  0  0  0  1  0  0  0  0  0  0
  180.2790  177.6620  136.1350 O   0  0  0  0  0  0  0  0  0  0  0  0
  181.0700  180.5440  136.1060 C   0  0  0  0  0  2  0  0  0  0  0  0
  180.5140  181.7800  136.8040 C   0  0  0  0  0  2  0  0  0  0  0  0
  180.5430  182.8740  135.9390 O   0  0  0  0  0  1  0  0  0  0  0  0
  184.0740  177.4970  140.1580 C   0  0  0  0  0  2  0  0  0  0  0  0
  185.5970  178.8860  141.4680 C   0  0  0  0  0  2  0  0  0  0  0  0
  184.4280  178.2620  141.3880 C   0  0  0  0  0  3  0  0  0  0  0  0
  185.5830  178.0220  136.9360 C   0  0  0  0  0  2  0  0  0  0  0  0
  186.4230  178.6280  137.8700 O   0  0  0  0  0  0  0  0  0  0  0  0
  187.6460  178.7580  137.2120 C   0  0  0  0  0  2  0  0  0  0  0  0
  190.7150  176.8980  139.5530 C   0  0  0  0  0  3  0  0  0  0  0  0
  188.7220  178.1300  138.0260 C   0  0  0  0  0  0  0  0  0  0  0  0
  189.6300  177.5150  140.1860 C   0  0  0  0  0  3  0  0  0  0  0  0
  188.6340  178.1280  139.4230 C   0  0  0  0  0  3  0  0  0  0  0  0
  189.8010  177.5040  137.3940 C   0  0  0  0  0  3  0  0  0  0  0  0
  190.7990  176.8900  138.1580 C   0  0  0  0  0  3  0  0  0  0  0  0
  1 12  1  0  0  0  0
  2 15  1  0  0  0  0
  2  1  2  0  0  0  0
  3  5  1  0  0  0  0
  3 11  1  0  0  0  0
  3 10  1  1  0  0  0
  4  6  1  1  0  0  0
  4  8  1  0  0  0  0
  5  4  1  0  0  0  0
  5 14  1  0  0  0  0
  6  9  1  0  0  0  0
  8  7  1  6  0  0  0
  8 10  1  0  0  0  0
  9 13  1  0  0  0  0
 11 12  1  1  0  0  0
 11 16  1  0  0  0  0
 12 14  2  0  0  0  0
 13 14  1  0  0  0  0
 15 13  2  0  0  0  0
 16 20  1  6  0  0  0
 16 19  1  0  0  0  0
 17 18  1  0  0  0  0
 18 19  1  0  0  0  0
 19 28  1  6  0  0  0
 21 25  1  6  0  0  0
 21 22  1  0  0  0  0
 21 17  1  0  0  0  0
 22 24  1  6  0  0  0
 22 20  1  0  0  0  0
 24 23  1  0  0  0  0
 25 26  1  0  0  0  0
 27 26  1  0  0  0  0
 28 30  1  0  0  0  0
 30 29  2  0  0  0  0
 31  1  1  0  0  0  0
 31 32  1  0  0  0  0
 33 32  1  0  0  0  0
 33 35  1  0  0  0  0
 34 36  1  0  0  0  0
 35 37  1  0  0  0  0
 37 36  2  0  0  0  0
 38 35  2  0  0  0  0
 38 39  1  0  0  0  0
 39 34  2  0  0  0  0
M  END
>  <MODEL>
9

>  <REMARK>
 VINA RESULT:      -4.7      3.107      6.056
  Name = 
  10 active torsions:
  status: ('A' for Active; 'I' for Inactive)
    1  A    between atoms: C_1  and  C_22
    2  A    between atoms: C_4  and  C_23
    3  A    between atoms: O_5  and  C_22
    4  A    between atoms: O_5  and  C_31
    5  A    between atoms: C_8  and  C_9
    6  A    between atoms: C_9  and  C_33
    7  A    between atoms: C_16  and  C_21
    8  A    between atoms: C_16  and  C_26
    9  A    between atoms: C_20  and  C_31
   10  A    between atoms: O_34  and  C_35
                            x       y       z     vdW  Elec       q    Type
                         _______ _______ _______ _____ _____    ______ ____

>  <TORSDO>
F 10

$$$$
