=
 OpenBabel10222420303D

 37 41  0  0  1  0  0  0  0  0999 V2000
  184.7600  178.5470  141.7090 C   0  0  0  0  0  0  0  0  0  0  0  0
  183.8540  178.8190  142.7650 C   0  0  0  0  0  0  0  0  0  0  0  0
  180.6610  178.2640  140.9970 N   0  0  0  0  0  0  0  0  0  0  0  0
  182.9060  178.0580  140.2160 C   0  0  0  0  0  3  0  0  0  0  0  0
  184.2780  178.1640  140.4530 C   0  0  0  0  0  3  0  0  0  0  0  0
  180.1500  178.8820  143.2060 C   0  0  0  0  0  0  0  0  0  0  0  0
  179.1300  179.1730  144.2470 C   0  0  0  0  0  1  0  0  0  0  0  0
  181.5100  178.9870  143.5040 C   0  0  0  0  0  3  0  0  0  0  0  0
  182.4620  178.7190  142.5150 C   0  0  0  0  0  0  0  0  0  0  0  0
  179.7640  178.5280  141.9510 N   0  0  0  0  0  0  0  0  0  0  0  0
  182.0000  178.3390  141.2350 C   0  0  0  0  0  0  0  0  0  0  0  0
  183.5990  178.7740  145.3210 C   0  0  0  0  0  2  0  0  0  0  0  0
  185.0030  178.2570  145.0490 C   0  0  1  0  0  3  0  0  0  0  0  0
  184.3610  179.2790  144.1150 C   0  0  1  0  0  0  0  0  0  0  0  0
  184.7780  180.6060  144.2330 O   0  0  0  0  0  1  0  0  0  0  0  0
  185.9720  178.9050  146.0310 C   0  0  0  0  0  2  0  0  0  0  0  0
  187.7730  178.5170  147.5720 O   0  0  0  0  0  1  0  0  0  0  0  0
  186.9360  177.8890  146.6470 C   0  0  2  0  0  3  0  0  0  0  0  0
  187.7740  177.1720  145.5930 C   0  0  0  0  0  2  0  0  0  0  0  0
  189.6220  176.5420  147.1440 N   0  0  0  0  0  2  0  0  0  0  0  0
  189.1770  177.1560  145.9680 N   0  0  0  0  0  0  0  0  0  0  0  0
  191.5110  177.4310  145.8530 C   0  0  0  0  0  2  0  0  0  0  0  0
  191.7970  175.4510  147.3630 C   0  0  0  0  0  1  0  0  0  0  0  0
  190.0750  178.4200  144.1710 N   0  0  0  0  0  2  0  0  0  0  0  0
  190.2360  177.6010  145.1560 C   0  0  0  0  0  0  0  0  0  0  0  0
  191.0730  176.7720  147.1690 C   0  0  2  0  0  3  0  0  0  0  0  0
  186.2380  178.6770  141.8790 C   0  0  0  0  0  2  0  0  0  0  0  0
  186.8880  178.6230  140.5820 N   0  0  0  0  0  2  0  0  0  0  0  0
  188.8590  177.2800  141.0500 C   0  0  0  0  0  2  0  0  0  0  0  0
  188.3250  178.6840  140.8270 C   0  0  1  0  0  3  0  0  0  0  0  0
  189.1480  177.9820  139.7350 C   0  0  2  0  0  3  0  0  0  0  0  0
  188.3110  177.3770  138.6120 C   0  0  2  0  0  3  0  0  0  0  0  0
  188.8900  176.1790  138.1890 O   0  0  0  0  0  1  0  0  0  0  0  0
  188.8310  177.7040  135.7740 C   0  0  0  0  0  1  0  0  0  0  0  0
  189.0720  179.7230  137.5190 O   0  0  0  0  0  0  0  0  0  0  0  0
  186.8010  178.9410  137.0080 O   0  0  0  0  0  0  0  0  0  0  0  0
  188.2250  178.5110  137.2350 S   0  0  0  0  0  0  0  0  0  0  0  0
  1 27  1  0  0  0  0
  1  2  1  0  0  0  0
  2 14  1  0  0  0  0
  3 11  1  0  0  0  0
  3 10  2  0  0  0  0
  4  5  1  0  0  0  0
  4 11  2  0  0  0  0
  5  1  2  0  0  0  0
  6  8  2  0  0  0  0
  6  7  1  0  0  0  0
  9  2  2  0  0  0  0
  9  8  1  0  0  0  0
 10  6  1  0  0  0  0
 11  9  1  0  0  0  0
 13 12  1  0  0  0  0
 13 16  1  1  0  0  0
 14 15  1  1  0  0  0
 14 13  1  0  0  0  0
 14 12  1  0  0  0  0
 16 18  1  0  0  0  0
 18 17  1  1  0  0  0
 19 21  1  0  0  0  0
 19 18  1  0  0  0  0
 20 26  1  0  0  0  0
 21 20  1  0  0  0  0
 22 26  1  0  0  0  0
 24 25  2  0  0  0  0
 25 22  1  0  0  0  0
 25 21  1  0  0  0  0
 26 23  1  6  0  0  0
 28 27  1  0  0  0  0
 30 28  1  6  0  0  0
 30 29  1  0  0  0  0
 31 32  1  6  0  0  0
 31 30  1  0  0  0  0
 31 29  1  0  0  0  0
 32 33  1  6  0  0  0
 34 37  1  0  0  0  0
 36 37  2  0  0  0  0
 37 35  2  0  0  0  0
 37 32  1  0  0  0  0
M  END
>  <MODEL>
1

>  <REMARK>
 VINA RESULT:      -9.0      0.000      0.000
  Name = 
  10 active torsions:
  status: ('A' for Active; 'I' for Inactive)
    1  A    between atoms: C_2  and  S_30
    2  A    between atoms: C_2  and  C_33
    3  A    between atoms: C_3  and  C_11
    4  A    between atoms: C_5  and  C_22
    5  A    between atoms: N_6  and  C_13
    6  A    between atoms: C_11  and  N_27
    7  A    between atoms: C_12  and  C_15
    8  A    between atoms: C_13  and  C_36
    9  A    between atoms: C_15  and  C_36
   10  A    between atoms: N_27  and  C_29
                            x       y       z     vdW  Elec       q    Type
                         _______ _______ _______ _____ _____    ______ ____

>  <TORSDO>
F 10

$$$$
=
 OpenBabel10222420303D

 37 41  0  0  1  0  0  0  0  0999 V2000
  186.9570  177.9600  143.4870 C   0  0  0  0  0  0  0  0  0  0  0  0
  188.2780  177.6400  143.8910 C   0  0  0  0  0  0  0  0  0  0  0  0
  187.7630  177.3850  147.5380 N   0  0  0  0  0  0  0  0  0  0  0  0
  186.2030  177.8520  145.7940 C   0  0  0  0  0  3  0  0  0  0  0  0
  185.9360  178.0550  144.4390 C   0  0  0  0  0  3  0  0  0  0  0  0
  190.0360  176.9650  147.1110 C   0  0  0  0  0  0  0  0  0  0  0  0
  191.3950  176.6510  147.6250 C   0  0  0  0  0  1  0  0  0  0  0  0
  189.8240  177.1410  145.7430 C   0  0  0  0  0  3  0  0  0  0  0  0
  188.5430  177.4440  145.2700 C   0  0  0  0  0  0  0  0  0  0  0  0
  188.9930  177.1000  147.9740 N   0  0  0  0  0  0  0  0  0  0  0  0
  187.4970  177.5550  146.2130 C   0  0  0  0  0  0  0  0  0  0  0  0
  190.0670  176.2320  142.7010 C   0  0  0  0  0  2  0  0  0  0  0  0
  189.1890  176.7850  141.5900 C   0  0  1  0  0  3  0  0  0  0  0  0
  189.3990  177.5790  142.8760 C   0  0  1  0  0  0  0  0  0  0  0  0
  190.2880  178.6540  142.8280 O   0  0  0  0  0  1  0  0  0  0  0  0
  190.0740  177.2840  140.4540 C   0  0  0  0  0  2  0  0  0  0  0  0
  190.8490  175.6570  138.8680 O   0  0  0  0  0  1  0  0  0  0  0  0
  189.8060  176.5430  139.1430 C   0  0  2  0  0  3  0  0  0  0  0  0
  189.6120  177.4970  137.9680 C   0  0  0  0  0  2  0  0  0  0  0  0
  187.9810  175.8980  136.9690 N   0  0  0  0  0  2  0  0  0  0  0  0
  188.3760  177.2080  137.2630 N   0  0  0  0  0  0  0  0  0  0  0  0
  186.2810  177.5100  136.2360 C   0  0  0  0  0  2  0  0  0  0  0  0
  185.6490  175.1730  136.8860 C   0  0  0  0  0  1  0  0  0  0  0  0
  187.6230  179.4240  136.8700 N   0  0  0  0  0  2  0  0  0  0  0  0
  187.3890  178.1560  136.9390 C   0  0  0  0  0  0  0  0  0  0  0  0
  186.7150  176.0370  136.2350 C   0  0  2  0  0  3  0  0  0  0  0  0
  186.6070  178.2280  142.0600 C   0  0  0  0  0  2  0  0  0  0  0  0
  185.1670  178.3480  141.9220 N   0  0  0  0  0  2  0  0  0  0  0  0
  184.8330  178.4730  139.5170 C   0  0  0  0  0  2  0  0  0  0  0  0
  184.9240  179.2630  140.8120 C   0  0  1  0  0  3  0  0  0  0  0  0
  183.5630  179.0330  140.1340 C   0  0  2  0  0  3  0  0  0  0  0  0
  182.7350  177.9140  140.7570 C   0  0  2  0  0  3  0  0  0  0  0  0
  182.4540  176.9450  139.7920 O   0  0  0  0  0  1  0  0  0  0  0  0
  181.4400  179.0580  143.0900 C   0  0  0  0  0  1  0  0  0  0  0  0
  180.1280  177.5210  141.3300 O   0  0  0  0  0  0  0  0  0  0  0  0
  180.7790  179.7710  140.5950 O   0  0  0  0  0  0  0  0  0  0  0  0
  181.2030  178.5720  141.3990 S   0  0  0  0  0  0  0  0  0  0  0  0
  1  2  2  0  0  0  0
  1  5  1  0  0  0  0
  2  9  1  0  0  0  0
  3 10  1  0  0  0  0
  4 11  1  0  0  0  0
  5  4  2  0  0  0  0
  6  7  1  0  0  0  0
  6 10  2  0  0  0  0
  8  6  1  0  0  0  0
  9  8  2  0  0  0  0
  9 11  1  0  0  0  0
 11  3  2  0  0  0  0
 12 14  1  0  0  0  0
 13 16  1  6  0  0  0
 13 12  1  0  0  0  0
 13 14  1  0  0  0  0
 14 15  1  6  0  0  0
 14  2  1  0  0  0  0
 18 17  1  6  0  0  0
 18 16  1  0  0  0  0
 19 18  1  0  0  0  0
 20 21  1  0  0  0  0
 21 19  1  0  0  0  0
 22 25  1  0  0  0  0
 24 25  2  0  0  0  0
 25 21  1  0  0  0  0
 26 22  1  0  0  0  0
 26 23  1  1  0  0  0
 26 20  1  0  0  0  0
 27  1  1  0  0  0  0
 28 27  1  0  0  0  0
 29 31  1  0  0  0  0
 29 30  1  0  0  0  0
 30 28  1  1  0  0  0
 31 32  1  1  0  0  0
 31 30  1  0  0  0  0
 32 33  1  6  0  0  0
 32 37  1  0  0  0  0
 35 37  2  0  0  0  0
 36 37  2  0  0  0  0
 37 34  1  0  0  0  0
M  END
>  <MODEL>
2

>  <REMARK>
 VINA RESULT:      -8.9      2.985      8.053
  Name = 
  10 active torsions:
  status: ('A' for Active; 'I' for Inactive)
    1  A    between atoms: C_2  and  S_30
    2  A    between atoms: C_2  and  C_33
    3  A    between atoms: C_3  and  C_11
    4  A    between atoms: C_5  and  C_22
    5  A    between atoms: N_6  and  C_13
    6  A    between atoms: C_11  and  N_27
    7  A    between atoms: C_12  and  C_15
    8  A    between atoms: C_13  and  C_36
    9  A    between atoms: C_15  and  C_36
   10  A    between atoms: N_27  and  C_29
                            x       y       z     vdW  Elec       q    Type
                         _______ _______ _______ _____ _____    ______ ____

>  <TORSDO>
F 10

$$$$
=
 OpenBabel10222420303D

 37 41  0  0  1  0  0  0  0  0999 V2000
  185.8480  177.9070  144.1470 C   0  0  0  0  0  0  0  0  0  0  0  0
  187.1500  177.4230  144.4280 C   0  0  0  0  0  0  0  0  0  0  0  0
  187.4570  178.4860  147.9500 N   0  0  0  0  0  0  0  0  0  0  0  0
  185.6400  178.7320  146.4230 C   0  0  0  0  0  3  0  0  0  0  0  0
  185.1070  178.5470  145.1470 C   0  0  0  0  0  3  0  0  0  0  0  0
  189.4620  177.4140  147.3560 C   0  0  0  0  0  0  0  0  0  0  0  0
  190.8280  176.9620  147.7290 C   0  0  0  0  0  1  0  0  0  0  0  0
  188.9730  177.1870  146.0680 C   0  0  0  0  0  3  0  0  0  0  0  0
  187.6890  177.6230  145.7240 C   0  0  0  0  0  0  0  0  0  0  0  0
  188.6870  178.0680  148.2620 N   0  0  0  0  0  0  0  0  0  0  0  0
  186.9250  178.2800  146.7130 C   0  0  0  0  0  0  0  0  0  0  0  0
  188.1080  177.5410  142.0470 C   0  0  0  0  0  2  0  0  0  0  0  0
  189.3170  177.3950  142.9580 C   0  0  1  0  0  3  0  0  0  0  0  0
  187.9790  176.7700  143.3430 C   0  0  1  0  0  0  0  0  0  0  0  0
  187.8400  175.3930  143.1630 O   0  0  0  0  0  1  0  0  0  0  0  0
  190.2760  176.3760  142.3570 C   0  0  0  0  0  2  0  0  0  0  0  0
  192.1050  177.7170  143.1480 O   0  0  0  0  0  1  0  0  0  0  0  0
  191.6480  176.9820  142.0530 C   0  0  2  0  0  3  0  0  0  0  0  0
  191.6290  177.8630  140.8070 C   0  0  0  0  0  2  0  0  0  0  0  0
  193.3680  176.9550  139.2690 N   0  0  0  0  0  2  0  0  0  0  0  0
  192.0250  177.1080  139.6320 N   0  0  0  0  0  0  0  0  0  0  0  0
  191.9010  175.7150  137.7390 C   0  0  0  0  0  2  0  0  0  0  0  0
  194.2540  174.9630  138.1650 C   0  0  0  0  0  1  0  0  0  0  0  0
  189.8800  176.5220  138.8030 N   0  0  0  0  0  2  0  0  0  0  0  0
  191.1580  176.3410  138.8330 C   0  0  0  0  0  0  0  0  0  0  0  0
  193.3400  176.1670  138.0280 C   0  0  2  0  0  3  0  0  0  0  0  0
  185.2290  177.7790  142.7940 C   0  0  0  0  0  2  0  0  0  0  0  0
  184.1540  178.7450  142.6520 N   0  0  0  0  0  2  0  0  0  0  0  0
  184.0890  178.0890  140.3120 C   0  0  0  0  0  2  0  0  0  0  0  0
  184.2180  179.2490  141.2850 C   0  0  1  0  0  3  0  0  0  0  0  0
  182.9120  179.0300  140.5040 C   0  0  2  0  0  3  0  0  0  0  0  0
  181.8100  178.3470  141.3080 C   0  0  2  0  0  3  0  0  0  0  0  0
  181.3480  177.2270  140.6140 O   0  0  0  0  0  1  0  0  0  0  0  0
  178.9310  178.5710  141.6050 C   0  0  0  0  0  1  0  0  0  0  0  0
  180.4090  180.4890  140.4570 O   0  0  0  0  0  0  0  0  0  0  0  0
  180.6310  180.1980  142.8850 O   0  0  0  0  0  0  0  0  0  0  0  0
  180.4550  179.4810  141.5730 S   0  0  0  0  0  0  0  0  0  0  0  0
  1  2  2  0  0  0  0
  1  5  1  0  0  0  0
  2  9  1  0  0  0  0
  3 10  1  0  0  0  0
  4 11  1  0  0  0  0
  5  4  2  0  0  0  0
  6  7  1  0  0  0  0
  6 10  2  0  0  0  0
  8  6  1  0  0  0  0
  9  8  2  0  0  0  0
  9 11  1  0  0  0  0
 11  3  2  0  0  0  0
 12 13  1  0  0  0  0
 12 14  1  0  0  0  0
 13 16  1  6  0  0  0
 13 14  1  0  0  0  0
 14 15  1  6  0  0  0
 14  2  1  0  0  0  0
 18 16  1  0  0  0  0
 18 17  1  1  0  0  0
 19 18  1  0  0  0  0
 20 21  1  0  0  0  0
 21 19  1  0  0  0  0
 22 26  1  0  0  0  0
 22 25  1  0  0  0  0
 24 25  2  0  0  0  0
 25 21  1  0  0  0  0
 26 23  1  1  0  0  0
 26 20  1  0  0  0  0
 27  1  1  0  0  0  0
 28 27  1  0  0  0  0
 29 31  1  0  0  0  0
 29 30  1  0  0  0  0
 30 28  1  1  0  0  0
 31 30  1  0  0  0  0
 31 32  1  1  0  0  0
 32 33  1  6  0  0  0
 32 37  1  0  0  0  0
 35 37  2  0  0  0  0
 37 34  1  0  0  0  0
 37 36  2  0  0  0  0
M  END
>  <MODEL>
3

>  <REMARK>
 VINA RESULT:      -8.6      3.571      7.406
  Name = 
  10 active torsions:
  status: ('A' for Active; 'I' for Inactive)
    1  A    between atoms: C_2  and  S_30
    2  A    between atoms: C_2  and  C_33
    3  A    between atoms: C_3  and  C_11
    4  A    between atoms: C_5  and  C_22
    5  A    between atoms: N_6  and  C_13
    6  A    between atoms: C_11  and  N_27
    7  A    between atoms: C_12  and  C_15
    8  A    between atoms: C_13  and  C_36
    9  A    between atoms: C_15  and  C_36
   10  A    between atoms: N_27  and  C_29
                            x       y       z     vdW  Elec       q    Type
                         _______ _______ _______ _____ _____    ______ ____

>  <TORSDO>
F 10

$$$$
=
 OpenBabel10222420303D

 37 41  0  0  1  0  0  0  0  0999 V2000
  186.9970  177.9620  143.4380 C   0  0  0  0  0  0  0  0  0  0  0  0
  188.3090  177.6390  143.8660 C   0  0  0  0  0  0  0  0  0  0  0  0
  187.7270  177.3880  147.5030 N   0  0  0  0  0  0  0  0  0  0  0  0
  186.2000  177.8580  145.7310 C   0  0  0  0  0  3  0  0  0  0  0  0
  185.9590  178.0600  144.3710 C   0  0  0  0  0  3  0  0  0  0  0  0
  190.0060  176.9620  147.1190 C   0  0  0  0  0  0  0  0  0  0  0  0
  191.3550  176.6460  147.6570 C   0  0  0  0  0  1  0  0  0  0  0  0
  189.8200  177.1380  145.7460 C   0  0  0  0  0  3  0  0  0  0  0  0
  188.5480  177.4430  145.2500 C   0  0  0  0  0  0  0  0  0  0  0  0
  188.9480  177.1010  147.9620 N   0  0  0  0  0  0  0  0  0  0  0  0
  187.4860  177.5570  146.1730 C   0  0  0  0  0  0  0  0  0  0  0  0
  189.9780  176.1920  142.5540 C   0  0  0  0  0  2  0  0  0  0  0  0
  189.1970  176.9590  141.4990 C   0  0  1  0  0  3  0  0  0  0  0  0
  189.4490  177.5740  142.8720 C   0  0  1  0  0  0  0  0  0  0  0  0
  190.4450  178.5470  142.9660 O   0  0  0  0  0  1  0  0  0  0  0  0
  190.1630  177.4870  140.4460 C   0  0  0  0  0  2  0  0  0  0  0  0
  188.4590  178.8010  139.3800 O   0  0  0  0  0  1  0  0  0  0  0  0
  189.4550  177.8520  139.1400 C   0  0  2  0  0  3  0  0  0  0  0  0
  188.8540  176.6330  138.4470 C   0  0  0  0  0  2  0  0  0  0  0  0
  190.6550  175.0140  137.8520 N   0  0  0  0  0  2  0  0  0  0  0  0
  189.7930  176.0590  137.4990 N   0  0  0  0  0  0  0  0  0  0  0  0
  190.9090  175.5960  135.4800 C   0  0  0  0  0  2  0  0  0  0  0  0
  191.3790  173.2740  136.2970 C   0  0  0  0  0  1  0  0  0  0  0  0
  189.3510  177.4450  135.6240 N   0  0  0  0  0  2  0  0  0  0  0  0
  189.8450  176.3640  136.1270 C   0  0  0  0  0  0  0  0  0  0  0  0
  191.4490  174.7510  136.6430 C   0  0  2  0  0  3  0  0  0  0  0  0
  186.6740  178.2290  142.0040 C   0  0  0  0  0  2  0  0  0  0  0  0
  185.2330  178.2680  141.8250 N   0  0  0  0  0  2  0  0  0  0  0  0
  184.9300  178.5490  139.4300 C   0  0  0  0  0  2  0  0  0  0  0  0
  184.9650  179.2470  140.7780 C   0  0  1  0  0  3  0  0  0  0  0  0
  183.6270  179.0050  140.0610 C   0  0  2  0  0  3  0  0  0  0  0  0
  182.8410  177.8080  140.5890 C   0  0  2  0  0  3  0  0  0  0  0  0
  182.8150  176.8010  139.6230 O   0  0  0  0  0  1  0  0  0  0  0  0
  180.7230  179.6980  139.9810 C   0  0  0  0  0  1  0  0  0  0  0  0
  181.0750  178.6760  142.4330 O   0  0  0  0  0  0  0  0  0  0  0  0
  180.2190  177.1660  140.6970 O   0  0  0  0  0  0  0  0  0  0  0  0
  181.1690  178.2990  140.9790 S   0  0  0  0  0  0  0  0  0  0  0  0
  1  2  2  0  0  0  0
  1  5  1  0  0  0  0
  2  9  1  0  0  0  0
  3 10  1  0  0  0  0
  4 11  1  0  0  0  0
  5  4  2  0  0  0  0
  6  7  1  0  0  0  0
  6 10  2  0  0  0  0
  8  6  1  0  0  0  0
  9  8  2  0  0  0  0
  9 11  1  0  0  0  0
 11  3  2  0  0  0  0
 12 14  1  0  0  0  0
 13 16  1  6  0  0  0
 13 12  1  0  0  0  0
 13 14  1  0  0  0  0
 14 15  1  1  0  0  0
 14  2  1  0  0  0  0
 18 17  1  1  0  0  0
 18 16  1  0  0  0  0
 19 18  1  0  0  0  0
 21 20  1  0  0  0  0
 21 19  1  0  0  0  0
 22 25  1  0  0  0  0
 22 26  1  0  0  0  0
 24 25  2  0  0  0  0
 25 21  1  0  0  0  0
 26 23  1  6  0  0  0
 26 20  1  0  0  0  0
 27  1  1  0  0  0  0
 28 27  1  0  0  0  0
 29 31  1  0  0  0  0
 29 30  1  0  0  0  0
 30 28  1  1  0  0  0
 31 32  1  1  0  0  0
 31 30  1  0  0  0  0
 32 33  1  6  0  0  0
 32 37  1  0  0  0  0
 34 37  1  0  0  0  0
 36 37  2  0  0  0  0
 37 35  2  0  0  0  0
M  END
>  <MODEL>
4

>  <REMARK>
 VINA RESULT:      -8.5      3.210      7.838
  Name = 
  10 active torsions:
  status: ('A' for Active; 'I' for Inactive)
    1  A    between atoms: C_2  and  S_30
    2  A    between atoms: C_2  and  C_33
    3  A    between atoms: C_3  and  C_11
    4  A    between atoms: C_5  and  C_22
    5  A    between atoms: N_6  and  C_13
    6  A    between atoms: C_11  and  N_27
    7  A    between atoms: C_12  and  C_15
    8  A    between atoms: C_13  and  C_36
    9  A    between atoms: C_15  and  C_36
   10  A    between atoms: N_27  and  C_29
                            x       y       z     vdW  Elec       q    Type
                         _______ _______ _______ _____ _____    ______ ____

>  <TORSDO>
F 10

$$$$
=
 OpenBabel10222420303D

 37 41  0  0  1  0  0  0  0  0999 V2000
  185.6950  178.2780  144.4590 C   0  0  0  0  0  0  0  0  0  0  0  0
  187.0060  177.7440  144.5380 C   0  0  0  0  0  0  0  0  0  0  0  0
  187.6670  178.2630  148.1330 N   0  0  0  0  0  0  0  0  0  0  0  0
  185.7230  178.7550  146.8410 C   0  0  0  0  0  3  0  0  0  0  0  0
  185.0680  178.7700  145.6090 C   0  0  0  0  0  3  0  0  0  0  0  0
  189.5800  177.2700  147.1960 C   0  0  0  0  0  0  0  0  0  0  0  0
  190.9630  176.7520  147.3650 C   0  0  0  0  0  1  0  0  0  0  0  0
  188.9670  177.2440  145.9420 C   0  0  0  0  0  3  0  0  0  0  0  0
  187.6690  177.7410  145.7920 C   0  0  0  0  0  0  0  0  0  0  0  0
  188.9100  177.7890  148.2600 N   0  0  0  0  0  0  0  0  0  0  0  0
  187.0170  178.2510  146.9360 C   0  0  0  0  0  0  0  0  0  0  0  0
  187.2900  177.8920  141.9890 C   0  0  0  0  0  2  0  0  0  0  0  0
  188.6660  178.1930  142.5640 C   0  0  1  0  0  3  0  0  0  0  0  0
  187.7130  177.2510  143.2940 C   0  0  1  0  0  0  0  0  0  0  0  0
  187.9600  175.8810  143.1900 O   0  0  0  0  0  1  0  0  0  0  0  0
  189.7190  177.4380  141.7630 C   0  0  0  0  0  2  0  0  0  0  0  0
  190.0510  176.1790  139.7450 O   0  0  0  0  0  1  0  0  0  0  0  0
  189.2810  177.1930  140.3170 C   0  0  2  0  0  3  0  0  0  0  0  0
  189.3690  178.4550  139.4640 C   0  0  0  0  0  2  0  0  0  0  0  0
  189.5170  177.9640  137.0240 N   0  0  0  0  0  2  0  0  0  0  0  0
  188.7560  178.2470  138.1640 N   0  0  0  0  0  0  0  0  0  0  0  0
  187.1180  177.9370  136.5040 C   0  0  0  0  0  2  0  0  0  0  0  0
  188.7380  176.5440  135.1950 C   0  0  0  0  0  1  0  0  0  0  0  0
  186.4840  178.6230  138.7390 N   0  0  0  0  0  2  0  0  0  0  0  0
  187.3720  178.1540  137.9280 C   0  0  0  0  0  0  0  0  0  0  0  0
  188.5400  177.8570  135.9310 C   0  0  2  0  0  3  0  0  0  0  0  0
  184.9490  178.3610  143.1680 C   0  0  0  0  0  2  0  0  0  0  0  0
  183.7640  179.1820  143.3380 N   0  0  0  0  0  2  0  0  0  0  0  0
  181.4120  179.0860  143.9480 C   0  0  0  0  0  2  0  0  0  0  0  0
  182.6710  178.2780  143.6810 C   0  0  1  0  0  3  0  0  0  0  0  0
  181.5290  178.3030  142.6520 C   0  0  2  0  0  3  0  0  0  0  0  0
  181.7650  179.2480  141.4770 C   0  0  2  0  0  3  0  0  0  0  0  0
  180.6390  180.0520  141.2880 O   0  0  0  0  0  1  0  0  0  0  0  0
  182.6320  179.4090  138.7110 C   0  0  0  0  0  1  0  0  0  0  0  0
  180.8160  177.6230  139.5450 O   0  0  0  0  0  0  0  0  0  0  0  0
  183.1430  177.2760  140.2480 O   0  0  0  0  0  0  0  0  0  0  0  0
  182.0800  178.3090  139.9910 S   0  0  0  0  0  0  0  0  0  0  0  0
  1  2  2  0  0  0  0
  1  5  1  0  0  0  0
  2  9  1  0  0  0  0
  3 10  1  0  0  0  0
  4 11  1  0  0  0  0
  5  4  2  0  0  0  0
  6  7  1  0  0  0  0
  6 10  2  0  0  0  0
  8  6  1  0  0  0  0
  9  8  2  0  0  0  0
  9 11  1  0  0  0  0
 11  3  2  0  0  0  0
 12 13  1  0  0  0  0
 12 14  1  0  0  0  0
 13 16  1  6  0  0  0
 13 14  1  0  0  0  0
 14 15  1  6  0  0  0
 14  2  1  0  0  0  0
 18 17  1  6  0  0  0
 18 16  1  0  0  0  0
 19 18  1  0  0  0  0
 20 21  1  0  0  0  0
 21 19  1  0  0  0  0
 22 25  1  0  0  0  0
 25 21  1  0  0  0  0
 25 24  2  0  0  0  0
 26 23  1  1  0  0  0
 26 22  1  0  0  0  0
 26 20  1  0  0  0  0
 27 28  1  0  0  0  0
 27  1  1  0  0  0  0
 30 28  1  6  0  0  0
 30 29  1  0  0  0  0
 31 32  1  6  0  0  0
 31 30  1  0  0  0  0
 31 29  1  0  0  0  0
 32 33  1  6  0  0  0
 34 37  1  0  0  0  0
 35 37  2  0  0  0  0
 37 36  2  0  0  0  0
 37 32  1  0  0  0  0
M  END
>  <MODEL>
5

>  <REMARK>
 VINA RESULT:      -8.3      2.702      7.798
  Name = 
  10 active torsions:
  status: ('A' for Active; 'I' for Inactive)
    1  A    between atoms: C_2  and  S_30
    2  A    between atoms: C_2  and  C_33
    3  A    between atoms: C_3  and  C_11
    4  A    between atoms: C_5  and  C_22
    5  A    between atoms: N_6  and  C_13
    6  A    between atoms: C_11  and  N_27
    7  A    between atoms: C_12  and  C_15
    8  A    between atoms: C_13  and  C_36
    9  A    between atoms: C_15  and  C_36
   10  A    between atoms: N_27  and  C_29
                            x       y       z     vdW  Elec       q    Type
                         _______ _______ _______ _____ _____    ______ ____

>  <TORSDO>
F 10

$$$$
=
 OpenBabel10222420303D

 37 41  0  0  1  0  0  0  0  0999 V2000
  185.6460  178.5440  142.7640 C   0  0  0  0  0  0  0  0  0  0  0  0
  186.5930  177.9130  143.6090 C   0  0  0  0  0  0  0  0  0  0  0  0
  185.5160  179.2750  146.8670 N   0  0  0  0  0  0  0  0  0  0  0  0
  184.6150  179.6170  144.6850 C   0  0  0  0  0  3  0  0  0  0  0  0
  184.6660  179.3810  143.3100 C   0  0  0  0  0  3  0  0  0  0  0  0
  187.3630  177.8770  147.2590 C   0  0  0  0  0  0  0  0  0  0  0  0
  188.3320  177.2770  148.2140 C   0  0  0  0  0  1  0  0  0  0  0  0
  187.4510  177.5900  145.8960 C   0  0  0  0  0  3  0  0  0  0  0  0
  186.5400  178.1650  145.0040 C   0  0  0  0  0  0  0  0  0  0  0  0
  186.3960  178.7220  147.7060 N   0  0  0  0  0  0  0  0  0  0  0  0
  185.5470  179.0210  145.5290 C   0  0  0  0  0  0  0  0  0  0  0  0
  188.1820  177.4280  141.6500 C   0  0  0  0  0  2  0  0  0  0  0  0
  189.0840  177.6270  142.8580 C   0  0  1  0  0  3  0  0  0  0  0  0
  187.6850  177.0420  143.0260 C   0  0  1  0  0  0  0  0  0  0  0  0
  187.5850  175.6630  143.2190 O   0  0  0  0  0  1  0  0  0  0  0  0
  190.1620  176.5490  142.8600 C   0  0  0  0  0  2  0  0  0  0  0  0
  192.0550  177.8550  143.5510 O   0  0  0  0  0  1  0  0  0  0  0  0
  191.5380  177.1070  142.4920 C   0  0  2  0  0  3  0  0  0  0  0  0
  191.4990  177.9570  141.2260 C   0  0  0  0  0  2  0  0  0  0  0  0
  190.5280  176.5500  139.4110 N   0  0  0  0  0  2  0  0  0  0  0  0
  191.6360  177.1290  140.0400 N   0  0  0  0  0  0  0  0  0  0  0  0
  192.5940  176.0510  138.1810 C   0  0  0  0  0  2  0  0  0  0  0  0
  190.3860  176.1690  137.0010 C   0  0  0  0  0  1  0  0  0  0  0  0
  193.9990  177.1470  139.8230 N   0  0  0  0  0  2  0  0  0  0  0  0
  192.8290  176.9410  139.3190 C   0  0  0  0  0  0  0  0  0  0  0  0
  191.0870  175.7790  138.2910 C   0  0  2  0  0  3  0  0  0  0  0  0
  185.6640  178.3660  141.2810 C   0  0  0  0  0  2  0  0  0  0  0  0
  184.8470  179.3910  140.6550 N   0  0  0  0  0  2  0  0  0  0  0  0
  183.7840  177.6210  139.3710 C   0  0  0  0  0  2  0  0  0  0  0  0
  184.5550  178.9280  139.3020 C   0  0  1  0  0  3  0  0  0  0  0  0
  183.0490  178.8950  138.9930 C   0  0  2  0  0  3  0  0  0  0  0  0
  182.1640  179.3620  140.1450 C   0  0  2  0  0  3  0  0  0  0  0  0
  181.7030  178.2550  140.8600 O   0  0  0  0  0  1  0  0  0  0  0  0
  179.6710  180.6720  140.8480 C   0  0  0  0  0  1  0  0  0  0  0  0
  180.0340  179.4500  138.4920 O   0  0  0  0  0  0  0  0  0  0  0  0
  181.2410  181.5550  138.8660 O   0  0  0  0  0  0  0  0  0  0  0  0
  180.7690  180.2800  139.5100 S   0  0  0  0  0  0  0  0  0  0  0  0
  1  5  2  0  0  0  0
  1  2  1  0  0  0  0
  2  9  2  0  0  0  0
  3 10  2  0  0  0  0
  4 11  2  0  0  0  0
  5  4  1  0  0  0  0
  6 10  1  0  0  0  0
  6  7  1  0  0  0  0
  8  6  2  0  0  0  0
  9 11  1  0  0  0  0
  9  8  1  0  0  0  0
 11  3  1  0  0  0  0
 12 13  1  0  0  0  0
 12 14  1  0  0  0  0
 13 16  1  6  0  0  0
 13 14  1  0  0  0  0
 14 15  1  1  0  0  0
 14  2  1  0  0  0  0
 18 16  1  0  0  0  0
 18 17  1  1  0  0  0
 19 18  1  0  0  0  0
 20 21  1  0  0  0  0
 21 19  1  0  0  0  0
 22 26  1  0  0  0  0
 22 25  1  0  0  0  0
 25 24  2  0  0  0  0
 25 21  1  0  0  0  0
 26 23  1  6  0  0  0
 26 20  1  0  0  0  0
 27  1  1  0  0  0  0
 28 27  1  0  0  0  0
 30 29  1  0  0  0  0
 30 28  1  1  0  0  0
 31 30  1  0  0  0  0
 31 29  1  0  0  0  0
 31 32  1  1  0  0  0
 32 33  1  6  0  0  0
 35 37  2  0  0  0  0
 36 37  2  0  0  0  0
 37 32  1  0  0  0  0
 37 34  1  0  0  0  0
M  END
>  <MODEL>
6

>  <REMARK>
 VINA RESULT:      -8.3      3.555      6.650
  Name = 
  10 active torsions:
  status: ('A' for Active; 'I' for Inactive)
    1  A    between atoms: C_2  and  S_30
    2  A    between atoms: C_2  and  C_33
    3  A    between atoms: C_3  and  C_11
    4  A    between atoms: C_5  and  C_22
    5  A    between atoms: N_6  and  C_13
    6  A    between atoms: C_11  and  N_27
    7  A    between atoms: C_12  and  C_15
    8  A    between atoms: C_13  and  C_36
    9  A    between atoms: C_15  and  C_36
   10  A    between atoms: N_27  and  C_29
                            x       y       z     vdW  Elec       q    Type
                         _______ _______ _______ _____ _____    ______ ____

>  <TORSDO>
F 10

$$$$
=
 OpenBabel10222420303D

 37 41  0  0  1  0  0  0  0  0999 V2000
  185.8290  178.6600  142.3980 C   0  0  0  0  0  0  0  0  0  0  0  0
  186.8380  178.2470  143.3040 C   0  0  0  0  0  0  0  0  0  0  0  0
  185.0080  178.6310  146.4870 N   0  0  0  0  0  0  0  0  0  0  0  0
  184.2870  179.0080  144.2440 C   0  0  0  0  0  3  0  0  0  0  0  0
  184.5660  179.0280  142.8770 C   0  0  0  0  0  3  0  0  0  0  0  0
  187.1720  177.8730  147.0010 C   0  0  0  0  0  0  0  0  0  0  0  0
  188.1780  177.4790  148.0210 C   0  0  0  0  0  1  0  0  0  0  0  0
  187.5010  177.8570  145.6440 C   0  0  0  0  0  3  0  0  0  0  0  0
  186.5500  178.2380  144.6920 C   0  0  0  0  0  0  0  0  0  0  0  0
  185.9280  178.2690  147.3840 N   0  0  0  0  0  0  0  0  0  0  0  0
  185.2710  178.6230  145.1500 C   0  0  0  0  0  0  0  0  0  0  0  0
  188.5920  176.4230  142.8580 C   0  0  0  0  0  2  0  0  0  0  0  0
  188.3550  177.0890  141.5120 C   0  0  1  0  0  3  0  0  0  0  0  0
  188.2220  177.8890  142.8040 C   0  0  1  0  0  0  0  0  0  0  0  0
  189.2720  178.7450  143.1400 O   0  0  0  0  0  1  0  0  0  0  0  0
  189.6960  177.3220  140.8270 C   0  0  0  0  0  2  0  0  0  0  0  0
  190.9960  176.0320  139.2720 O   0  0  0  0  0  1  0  0  0  0  0  0
  189.7630  176.6650  139.4460 C   0  0  2  0  0  3  0  0  0  0  0  0
  189.5290  177.6650  138.3180 C   0  0  0  0  0  2  0  0  0  0  0  0
  187.2700  176.9030  137.5890 N   0  0  0  0  0  2  0  0  0  0  0  0
  188.6260  177.1180  137.3200 N   0  0  0  0  0  0  0  0  0  0  0  0
  187.8000  176.3400  135.2590 C   0  0  0  0  0  2  0  0  0  0  0  0
  185.5070  177.1130  135.9100 C   0  0  0  0  0  1  0  0  0  0  0  0
  190.1670  176.7670  135.5500 N   0  0  0  0  0  2  0  0  0  0  0  0
  188.9530  176.8910  135.9710 C   0  0  0  0  0  0  0  0  0  0  0  0
  186.7240  176.3210  136.3540 C   0  0  2  0  0  3  0  0  0  0  0  0
  186.0690  178.7420  140.9270 C   0  0  0  0  0  2  0  0  0  0  0  0
  184.9290  179.3650  140.2780 N   0  0  0  0  0  2  0  0  0  0  0  0
  183.4760  177.5200  139.6510 C   0  0  0  0  0  2  0  0  0  0  0  0
  184.5420  178.4920  139.1750 C   0  0  1  0  0  3  0  0  0  0  0  0
  183.0760  178.6760  138.7510 C   0  0  2  0  0  3  0  0  0  0  0  0
  182.3230  179.7370  139.5500 C   0  0  2  0  0  3  0  0  0  0  0  0
  181.5030  179.1180  140.4940 O   0  0  0  0  0  1  0  0  0  0  0  0
  179.6700  180.8280  139.1010 C   0  0  0  0  0  1  0  0  0  0  0  0
  181.2800  180.0970  137.0880 O   0  0  0  0  0  0  0  0  0  0  0  0
  181.8930  182.1160  138.3430 O   0  0  0  0  0  0  0  0  0  0  0  0
  181.3200  180.7290  138.4530 S   0  0  0  0  0  0  0  0  0  0  0  0
  1  5  2  0  0  0  0
  1  2  1  0  0  0  0
  2  9  2  0  0  0  0
  3 10  2  0  0  0  0
  4 11  2  0  0  0  0
  5  4  1  0  0  0  0
  6 10  1  0  0  0  0
  6  7  1  0  0  0  0
  8  6  2  0  0  0  0
  9 11  1  0  0  0  0
  9  8  1  0  0  0  0
 11  3  1  0  0  0  0
 13 16  1  6  0  0  0
 13 14  1  0  0  0  0
 13 12  1  0  0  0  0
 14 12  1  0  0  0  0
 14 15  1  1  0  0  0
 14  2  1  0  0  0  0
 18 17  1  6  0  0  0
 18 16  1  0  0  0  0
 19 18  1  0  0  0  0
 21 20  1  0  0  0  0
 21 19  1  0  0  0  0
 22 25  1  0  0  0  0
 22 26  1  0  0  0  0
 24 25  2  0  0  0  0
 25 21  1  0  0  0  0
 26 23  1  6  0  0  0
 26 20  1  0  0  0  0
 27  1  1  0  0  0  0
 28 27  1  0  0  0  0
 30 29  1  0  0  0  0
 30 28  1  1  0  0  0
 31 30  1  0  0  0  0
 31 32  1  1  0  0  0
 31 29  1  0  0  0  0
 32 33  1  1  0  0  0
 35 37  2  0  0  0  0
 36 37  2  0  0  0  0
 37 34  1  0  0  0  0
 37 32  1  0  0  0  0
M  END
>  <MODEL>
7

>  <REMARK>
 VINA RESULT:      -8.2      3.293      7.333
  Name = 
  10 active torsions:
  status: ('A' for Active; 'I' for Inactive)
    1  A    between atoms: C_2  and  S_30
    2  A    between atoms: C_2  and  C_33
    3  A    between atoms: C_3  and  C_11
    4  A    between atoms: C_5  and  C_22
    5  A    between atoms: N_6  and  C_13
    6  A    between atoms: C_11  and  N_27
    7  A    between atoms: C_12  and  C_15
    8  A    between atoms: C_13  and  C_36
    9  A    between atoms: C_15  and  C_36
   10  A    between atoms: N_27  and  C_29
                            x       y       z     vdW  Elec       q    Type
                         _______ _______ _______ _____ _____    ______ ____

>  <TORSDO>
F 10

$$$$
=
 OpenBabel10222420303D

 37 41  0  0  1  0  0  0  0  0999 V2000
  184.9990  178.5080  142.8690 C   0  0  0  0  0  0  0  0  0  0  0  0
  186.1730  178.0790  143.5370 C   0  0  0  0  0  0  0  0  0  0  0  0
  185.2190  178.8480  147.0200 N   0  0  0  0  0  0  0  0  0  0  0  0
  183.9890  179.1190  144.9930 C   0  0  0  0  0  3  0  0  0  0  0  0
  183.9200  179.0150  143.6030 C   0  0  0  0  0  3  0  0  0  0  0  0
  187.3910  177.9510  147.0610 C   0  0  0  0  0  0  0  0  0  0  0  0
  188.5930  177.5490  147.8380 C   0  0  0  0  0  1  0  0  0  0  0  0
  187.3710  177.8080  145.6720 C   0  0  0  0  0  3  0  0  0  0  0  0
  186.2390  178.1970  144.9490 C   0  0  0  0  0  0  0  0  0  0  0  0
  186.3100  178.4770  147.6960 N   0  0  0  0  0  0  0  0  0  0  0  0
  185.1410  178.7200  145.6660 C   0  0  0  0  0  0  0  0  0  0  0  0
  187.3810  177.9100  141.2760 C   0  0  0  0  0  2  0  0  0  0  0  0
  188.3760  178.5780  142.2120 C   0  0  1  0  0  3  0  0  0  0  0  0
  187.3630  177.5720  142.7510 C   0  0  1  0  0  0  0  0  0  0  0  0
  187.8270  176.2860  143.0370 O   0  0  0  0  0  1  0  0  0  0  0  0
  189.7520  177.9570  142.0070 C   0  0  0  0  0  2  0  0  0  0  0  0
  190.6460  175.9740  140.9890 O   0  0  0  0  0  1  0  0  0  0  0  0
  189.8050  177.0660  140.7640 C   0  0  2  0  0  3  0  0  0  0  0  0
  190.2650  177.8290  139.5250 C   0  0  0  0  0  2  0  0  0  0  0  0
  189.1870  176.1870  137.9890 N   0  0  0  0  0  2  0  0  0  0  0  0
  189.4310  177.5090  138.3800 N   0  0  0  0  0  0  0  0  0  0  0  0
  187.9530  177.7630  136.5670 C   0  0  0  0  0  2  0  0  0  0  0  0
  187.0960  175.4420  136.9680 C   0  0  0  0  0  1  0  0  0  0  0  0
  188.9210  179.7060  137.6420 N   0  0  0  0  0  2  0  0  0  0  0  0
  188.6730  178.4390  137.6460 C   0  0  0  0  0  0  0  0  0  0  0  0
  188.3400  176.2940  136.7920 C   0  0  2  0  0  3  0  0  0  0  0  0
  184.8700  178.4620  141.3820 C   0  0  0  0  0  2  0  0  0  0  0  0
  183.6120  177.8350  141.0180 N   0  0  0  0  0  2  0  0  0  0  0  0
  183.3300  177.3330  138.6560 C   0  0  0  0  0  2  0  0  0  0  0  0
  183.2160  178.3990  139.7330 C   0  0  1  0  0  3  0  0  0  0  0  0
  181.9540  177.7400  139.1520 C   0  0  2  0  0  3  0  0  0  0  0  0
  181.3590  176.6460  140.0330 C   0  0  2  0  0  3  0  0  0  0  0  0
  181.0690  175.5240  139.2550 O   0  0  0  0  0  1  0  0  0  0  0  0
  178.9310  178.1870  139.6340 C   0  0  0  0  0  1  0  0  0  0  0  0
  180.2030  178.0980  141.9900 O   0  0  0  0  0  0  0  0  0  0  0  0
  179.0270  176.0670  141.2690 O   0  0  0  0  0  0  0  0  0  0  0  0
  179.8600  177.2320  140.8080 S   0  0  0  0  0  0  0  0  0  0  0  0
  1  2  2  0  0  0  0
  1  5  1  0  0  0  0
  2  9  1  0  0  0  0
  3 10  1  0  0  0  0
  4 11  1  0  0  0  0
  5  4  2  0  0  0  0
  6 10  2  0  0  0  0
  6  7  1  0  0  0  0
  8  6  1  0  0  0  0
  9 11  1  0  0  0  0
  9  8  2  0  0  0  0
 11  3  2  0  0  0  0
 12 13  1  0  0  0  0
 12 14  1  0  0  0  0
 13 16  1  6  0  0  0
 13 14  1  0  0  0  0
 14 15  1  1  0  0  0
 14  2  1  0  0  0  0
 18 17  1  1  0  0  0
 18 16  1  0  0  0  0
 19 18  1  0  0  0  0
 20 21  1  0  0  0  0
 21 19  1  0  0  0  0
 22 26  1  0  0  0  0
 22 25  1  0  0  0  0
 24 25  2  0  0  0  0
 25 21  1  0  0  0  0
 26 23  1  1  0  0  0
 26 20  1  0  0  0  0
 27  1  1  0  0  0  0
 28 27  1  0  0  0  0
 29 31  1  0  0  0  0
 29 30  1  0  0  0  0
 30 28  1  1  0  0  0
 31 30  1  0  0  0  0
 31 32  1  1  0  0  0
 32 33  1  6  0  0  0
 32 37  1  0  0  0  0
 34 37  1  0  0  0  0
 37 36  2  0  0  0  0
 37 35  2  0  0  0  0
M  END
>  <MODEL>
8

>  <REMARK>
 VINA RESULT:      -8.0      3.361      7.226
  Name = 
  10 active torsions:
  status: ('A' for Active; 'I' for Inactive)
    1  A    between atoms: C_2  and  S_30
    2  A    between atoms: C_2  and  C_33
    3  A    between atoms: C_3  and  C_11
    4  A    between atoms: C_5  and  C_22
    5  A    between atoms: N_6  and  C_13
    6  A    between atoms: C_11  and  N_27
    7  A    between atoms: C_12  and  C_15
    8  A    between atoms: C_13  and  C_36
    9  A    between atoms: C_15  and  C_36
   10  A    between atoms: N_27  and  C_29
                            x       y       z     vdW  Elec       q    Type
                         _______ _______ _______ _____ _____    ______ ____

>  <TORSDO>
F 10

$$$$
=
 OpenBabel10222420303D

 37 41  0  0  1  0  0  0  0  0999 V2000
  186.3020  178.6050  141.0570 C   0  0  0  0  0  0  0  0  0  0  0  0
  184.9190  178.8900  140.9280 C   0  0  0  0  0  0  0  0  0  0  0  0
  183.8600  178.4170  144.4330 N   0  0  0  0  0  0  0  0  0  0  0  0
  186.0240  178.2370  143.4430 C   0  0  0  0  0  3  0  0  0  0  0  0
  186.8380  178.2900  142.3110 C   0  0  0  0  0  3  0  0  0  0  0  0
  181.9530  178.9950  143.1870 C   0  0  0  0  0  0  0  0  0  0  0  0
  180.4900  179.2550  143.1380 C   0  0  0  0  0  1  0  0  0  0  0  0
  182.7220  179.0790  142.0260 C   0  0  0  0  0  3  0  0  0  0  0  0
  184.0960  178.8260  142.0810 C   0  0  0  0  0  0  0  0  0  0  0  0
  182.5480  178.6570  144.3630 N   0  0  0  0  0  0  0  0  0  0  0  0
  184.6600  178.4960  143.3330 C   0  0  0  0  0  0  0  0  0  0  0  0
  184.5290  178.1350  138.5030 C   0  0  0  0  0  2  0  0  0  0  0  0
  183.1400  178.3500  139.0850 C   0  0  1  0  0  3  0  0  0  0  0  0
  184.3190  179.1880  139.5710 C   0  0  1  0  0  0  0  0  0  0  0  0
  184.4150  180.4960  139.0930 O   0  0  0  0  0  1  0  0  0  0  0  0
  182.2830  179.0960  138.0700 C   0  0  0  0  0  2  0  0  0  0  0  0
  180.4540  178.5940  139.5440 O   0  0  0  0  0  1  0  0  0  0  0  0
  180.9520  179.5590  138.6660 C   0  0  2  0  0  3  0  0  0  0  0  0
  179.9130  179.8690  137.5930 C   0  0  0  0  0  2  0  0  0  0  0  0
  180.1310  182.3510  137.6960 N   0  0  0  0  0  2  0  0  0  0  0  0
  180.1780  181.1550  136.9710 N   0  0  0  0  0  0  0  0  0  0  0  0
  180.8040  182.7630  135.3710 C   0  0  0  0  0  2  0  0  0  0  0  0
  181.5530  184.2800  137.2200 C   0  0  0  0  0  1  0  0  0  0  0  0
  180.5230  180.4430  134.7340 N   0  0  0  0  0  2  0  0  0  0  0  0
  180.6450  181.3370  135.6570 C   0  0  0  0  0  0  0  0  0  0  0  0
  180.4210  183.4040  136.7130 C   0  0  2  0  0  3  0  0  0  0  0  0
  187.2250  178.6050  139.8840 C   0  0  0  0  0  2  0  0  0  0  0  0
  188.6000  178.5170  140.3420 N   0  0  0  0  0  2  0  0  0  0  0  0
  190.5980  177.4400  139.4690 C   0  0  0  0  0  2  0  0  0  0  0  0
  189.1340  177.2580  139.8340 C   0  0  1  0  0  3  0  0  0  0  0  0
  190.2380  176.6720  140.7290 C   0  0  2  0  0  3  0  0  0  0  0  0
  190.5470  177.5050  141.9690 C   0  0  2  0  0  3  0  0  0  0  0  0
  191.9050  177.8270  141.9910 O   0  0  0  0  0  1  0  0  0  0  0  0
  189.6750  177.7190  144.7300 C   0  0  0  0  0  1  0  0  0  0  0  0
  191.3210  175.7780  143.8910 O   0  0  0  0  0  0  0  0  0  0  0  0
  188.9780  175.6600  143.1660 O   0  0  0  0  0  0  0  0  0  0  0  0
  190.1320  176.5850  143.4430 S   0  0  0  0  0  0  0  0  0  0  0  0
  1  5  1  0  0  0  0
  2  1  2  0  0  0  0
  2  9  1  0  0  0  0
  5  4  2  0  0  0  0
  6 10  2  0  0  0  0
  7  6  1  0  0  0  0
  8  9  2  0  0  0  0
  8  6  1  0  0  0  0
  9 11  1  0  0  0  0
 10  3  1  0  0  0  0
 11  4  1  0  0  0  0
 11  3  2  0  0  0  0
 12 13  1  0  0  0  0
 12 14  1  0  0  0  0
 13 16  1  6  0  0  0
 13 14  1  0  0  0  0
 14 15  1  6  0  0  0
 14  2  1  0  0  0  0
 16 18  1  0  0  0  0
 18 17  1  1  0  0  0
 19 18  1  0  0  0  0
 21 19  1  0  0  0  0
 21 20  1  0  0  0  0
 22 25  1  0  0  0  0
 22 26  1  0  0  0  0
 24 25  2  0  0  0  0
 25 21  1  0  0  0  0
 26 23  1  1  0  0  0
 26 20  1  0  0  0  0
 27 28  1  0  0  0  0
 27  1  1  0  0  0  0
 29 30  1  0  0  0  0
 29 31  1  0  0  0  0
 30 28  1  1  0  0  0
 30 31  1  0  0  0  0
 31 32  1  1  0  0  0
 32 33  1  1  0  0  0
 32 37  1  0  0  0  0
 36 37  2  0  0  0  0
 37 35  2  0  0  0  0
 37 34  1  0  0  0  0
M  END
>  <MODEL>
9

>  <REMARK>
 VINA RESULT:      -7.9      3.913      8.292
  Name = 
  10 active torsions:
  status: ('A' for Active; 'I' for Inactive)
    1  A    between atoms: C_2  and  S_30
    2  A    between atoms: C_2  and  C_33
    3  A    between atoms: C_3  and  C_11
    4  A    between atoms: C_5  and  C_22
    5  A    between atoms: N_6  and  C_13
    6  A    between atoms: C_11  and  N_27
    7  A    between atoms: C_12  and  C_15
    8  A    between atoms: C_13  and  C_36
    9  A    between atoms: C_15  and  C_36
   10  A    between atoms: N_27  and  C_29
                            x       y       z     vdW  Elec       q    Type
                         _______ _______ _______ _____ _____    ______ ____

>  <TORSDO>
F 10

$$$$
