=
 OpenBabel10222418163D

 59 67  0  0  1  0  0  0  0  0999 V2000
  190.0670  174.8520  137.3740 C   0  0  0  0  0  0  0  0  0  0  0  0
  185.9750  177.7040  138.0820 C   0  0  0  0  0  0  0  0  0  0  0  0
  186.9710  178.2610  138.8210 N   0  0  0  0  0  0  0  0  0  0  0  0
  187.4990  175.9830  137.3570 C   0  0  0  0  0  0  0  0  0  0  0  0
  187.7590  174.8300  136.6160 C   0  0  0  0  0  3  0  0  0  0  0  0
  189.8080  176.0080  138.1160 C   0  0  0  0  0  3  0  0  0  0  0  0
  188.5250  176.5830  138.1170 C   0  0  0  0  0  0  0  0  0  0  0  0
  186.2230  176.5380  137.3520 C   0  0  0  0  0  3  0  0  0  0  0  0
  189.0390  174.2670  136.6240 C   0  0  0  0  0  3  0  0  0  0  0  0
  188.2290  177.7400  138.8610 C   0  0  0  0  0  0  0  0  0  0  0  0
  184.8730  178.1770  140.5420 O   0  0  0  0  0  0  0  0  0  0  0  0
  181.3570  178.4310  138.3160 C   0  0  1  0  0  3  0  0  0  0  0  0
  183.0970  179.4980  139.8660 N   0  0  0  0  0  2  0  0  0  0  0  0
  182.7860  177.2360  135.1260 N   0  0  0  0  0  2  0  0  0  0  0  0
  184.5880  178.2900  138.1490 C   0  0  1  0  0  3  0  0  0  0  0  0
  183.5470  177.4350  137.4070 C   0  0  1  0  0  3  0  0  0  0  0  0
  181.1060  180.5710  139.3350 O   0  0  0  0  0  0  0  0  0  0  0  0
  181.8490  179.5640  139.1680 C   0  0  0  0  0  0  0  0  0  0  0  0
  182.3110  178.2310  137.1310 C   0  0  1  0  0  3  0  0  0  0  0  0
  181.7150  177.7280  135.8940 N   0  0  0  0  0  0  0  0  0  0  0  0
  184.1840  178.6110  139.5760 C   0  0  0  0  0  0  0  0  0  0  0  0
  180.8400  176.5960  136.1520 C   0  0  0  0  0  1  0  0  0  0  0  0
  183.9610  177.0990  135.9960 C   0  0  0  0  0  2  0  0  0  0  0  0
  181.1690  177.1610  139.1560 C   0  0  0  0  0  2  0  0  0  0  0  0
  179.7440  177.0400  139.6720 C   0  0  0  0  0  2  0  0  0  0  0  0
  179.7060  177.2290  141.1720 C   0  0  0  0  0  2  0  0  0  0  0  0
  179.1450  178.5990  141.4900 C   0  0  0  0  0  2  0  0  0  0  0  0
  180.0210  180.6200  142.7260 N   0  0  0  0  0  1  0  0  0  0  0  0
  180.4030  178.4640  143.5070 O   0  0  0  0  0  0  0  0  0  0  0  0
  179.8920  179.2050  142.6280 C   0  0  0  0  0  0  0  0  0  0  0  0
  191.3820  174.2830  137.4010 N   0  0  0  0  0  2  0  0  0  0  0  0
  194.3070  175.4240  135.2990 C   0  0  0  0  0  2  0  0  0  0  0  0
  194.4830  174.4180  136.4250 C   0  0  2  0  0  0  0  0  0  0  0  0
  192.2850  174.2930  136.2590 C   0  0  2  0  0  3  0  0  0  0  0  0
  193.4700  172.9160  136.3870 S   0  0  0  0  0  0  0  0  0  0  0  0
  193.3120  175.3930  136.4370 C   0  0  2  0  0  3  0  0  0  0  0  0
  197.4120  173.8080  136.3000 C   0  0  0  0  0  2  0  0  0  0  0  0
  195.4040  174.6950  137.5750 C   0  0  0  0  0  0  0  0  0  0  0  0
  194.9350  175.1430  138.6620 O   0  0  0  0  0  0  0  0  0  0  0  0
  197.7590  174.7280  138.5110 C   0  0  0  0  0  2  0  0  0  0  0  0
  196.8060  174.4320  137.4570 N   0  0  0  0  0  0  0  0  0  0  0  0
  199.0800  174.1770  138.0310 C   0  0  0  0  0  2  0  0  0  0  0  0
  198.9030  173.8400  136.5570 C   0  0  0  0  0  2  0  0  0  0  0  0
  189.2620  178.3920  139.7320 C   0  0  0  0  0  2  0  0  0  0  0  0
  189.0570  178.0260  141.1270 N   0  0  0  0  0  2  0  0  0  0  0  0
  190.7000  178.0480  142.9170 C   0  0  0  0  0  2  0  0  0  0  0  0
  190.3490  176.7820  143.6720 C   0  0  2  0  0  3  0  0  0  0  0  0
  190.2780  177.4000  141.6130 C   0  0  1  0  0  3  0  0  0  0  0  0
  189.9350  176.1310  142.3670 C   0  0  0  0  0  2  0  0  0  0  0  0
  189.1730  177.0060  144.4970 N   0  0  0  0  0  2  0  0  0  0  0  0
  190.3090  176.7580  146.5140 O   0  0  0  0  0  0  0  0  0  0  0  0
  189.2340  177.0330  145.9240 C   0  0  0  0  0  0  0  0  0  0  0  0
  188.0130  177.4330  146.6990 C   0  0  1  0  0  3  0  0  0  0  0  0
  188.3270  177.8600  148.1260 C   0  0  0  0  0  1  0  0  0  0  0  0
  187.1890  178.4920  145.9690 C   0  0  0  0  0  2  0  0  0  0  0  0
  185.7300  178.0790  145.7860 C   0  0  2  0  0  3  0  0  0  0  0  0
  183.6850  178.9790  145.3800 O   0  0  0  0  0  1  0  0  0  0  0  0
  184.8630  179.2470  145.9970 N   0  0  0  0  0  0  0  0  0  0  0  0
  185.0220  178.2340  147.0450 C   0  0  0  0  0  2  0  0  0  0  0  0
  1 31  1  0  0  0  0
  1  6  1  0  0  0  0
  2  3  1  0  0  0  0
  3 10  2  0  0  0  0
  4  7  1  0  0  0  0
  5  9  1  0  0  0  0
  5  4  2  0  0  0  0
  6  7  2  0  0  0  0
  7 10  1  0  0  0  0
  8  4  1  0  0  0  0
  8  2  2  0  0  0  0
  9  1  2  0  0  0  0
 10 44  1  0  0  0  0
 12 24  1  1  0  0  0
 12 18  1  0  0  0  0
 14 20  1  0  0  0  0
 14 23  1  0  0  0  0
 15  2  1  1  0  0  0
 15 21  1  0  0  0  0
 16 23  1  6  0  0  0
 16 15  1  0  0  0  0
 18 17  2  0  0  0  0
 18 13  1  0  0  0  0
 19 20  1  6  0  0  0
 19 16  1  0  0  0  0
 19 12  1  0  0  0  0
 20 22  1  0  0  0  0
 21 13  1  0  0  0  0
 21 11  2  0  0  0  0
 24 25  1  0  0  0  0
 25 26  1  0  0  0  0
 26 27  1  0  0  0  0
 27 30  1  0  0  0  0
 30 28  1  0  0  0  0
 30 29  2  0  0  0  0
 32 33  1  0  0  0  0
 33 36  1  0  0  0  0
 33 38  1  1  0  0  0
 34 35  1  0  0  0  0
 34 36  1  0  0  0  0
 34 31  1  1  0  0  0
 35 33  1  0  0  0  0
 36 32  1  6  0  0  0
 37 43  1  0  0  0  0
 37 41  1  0  0  0  0
 38 39  2  0  0  0  0
 41 38  1  0  0  0  0
 41 40  1  0  0  0  0
 42 40  1  0  0  0  0
 43 42  1  0  0  0  0
 44 45  1  0  0  0  0
 46 47  1  0  0  0  0
 47 50  1  1  0  0  0
 48 45  1  1  0  0  0
 48 49  1  0  0  0  0
 48 46  1  0  0  0  0
 49 47  1  0  0  0  0
 50 52  1  0  0  0  0
 52 51  2  0  0  0  0
 52 53  1  0  0  0  0
 53 54  1  1  0  0  0
 55 53  1  0  0  0  0
 56 55  1  1  0  0  0
 56 58  1  0  0  0  0
 56 59  1  0  0  0  0
 57 58  1  0  0  0  0
 58 59  1  0  0  0  0
M  END
>  <MODEL>
1

>  <REMARK>
 VINA RESULT:      -8.6      0.000      0.000
  Name = 
  16 active torsions:
  status: ('A' for Active; 'I' for Inactive)
    1  A    between atoms: C_3  and  C_25
    2  A    between atoms: C_4  and  N_43
    3  A    between atoms: C_5  and  C_7
    4  A    between atoms: C_5  and  C_14
    5  A    between atoms: C_6  and  C_11
    6  A    between atoms: C_7  and  C_9
    7  A    between atoms: C_8  and  C_29
    8  A    between atoms: C_9  and  C_21
    9  A    between atoms: C_13  and  C_25
   10  A    between atoms: C_13  and  C_57
   11  A    between atoms: N_15  and  C_26
   12  A    between atoms: C_19  and  N_43
   13  A    between atoms: C_21  and  C_56
   14  A    between atoms: N_30  and  C_39
   15  A    between atoms: N_30  and  C_51
   16  A    between atoms: C_51  and  C_54
                            x       y       z     vdW  Elec       q    Type
                         _______ _______ _______ _____ _____    ______ ____

>  <TORSDO>
F 16

$$$$
=
 OpenBabel10222418163D

 59 67  0  0  1  0  0  0  0  0999 V2000
  191.8520  175.5760  136.3510 C   0  0  0  0  0  0  0  0  0  0  0  0
  187.4750  177.5810  137.8350 C   0  0  0  0  0  0  0  0  0  0  0  0
  188.1980  177.3470  138.9630 N   0  0  0  0  0  0  0  0  0  0  0  0
  189.2810  176.6890  136.5120 C   0  0  0  0  0  0  0  0  0  0  0  0
  189.8210  176.3560  135.2700 C   0  0  0  0  0  3  0  0  0  0  0  0
  191.3110  175.9100  137.5960 C   0  0  0  0  0  3  0  0  0  0  0  0
  190.0230  176.4670  137.6900 C   0  0  0  0  0  0  0  0  0  0  0  0
  188.0030  177.2340  136.5880 C   0  0  0  0  0  3  0  0  0  0  0  0
  191.1030  175.8030  135.1900 C   0  0  0  0  0  3  0  0  0  0  0  0
  189.4460  176.8030  138.9290 C   0  0  0  0  0  0  0  0  0  0  0  0
  186.6620  178.5970  140.2430 O   0  0  0  0  0  0  0  0  0  0  0  0
  182.8830  178.1610  138.5360 C   0  0  1  0  0  3  0  0  0  0  0  0
  184.7240  179.6420  139.5300 N   0  0  0  0  0  2  0  0  0  0  0  0
  183.9790  176.2810  135.5510 N   0  0  0  0  0  2  0  0  0  0  0  0
  186.0690  178.1110  137.9560 C   0  0  1  0  0  3  0  0  0  0  0  0
  185.0060  177.0610  137.5910 C   0  0  1  0  0  3  0  0  0  0  0  0
  182.6100  180.4730  139.0460 O   0  0  0  0  0  0  0  0  0  0  0  0
  183.3960  179.4860  139.0190 C   0  0  0  0  0  0  0  0  0  0  0  0
  183.6920  177.7150  137.3110 C   0  0  1  0  0  3  0  0  0  0  0  0
  182.9810  176.9020  136.3230 N   0  0  0  0  0  0  0  0  0  0  0  0
  185.8260  178.7540  139.3090 C   0  0  0  0  0  0  0  0  0  0  0  0
  182.2300  175.8340  136.9620 C   0  0  0  0  0  1  0  0  0  0  0  0
  185.2620  176.4070  136.2560 C   0  0  0  0  0  2  0  0  0  0  0  0
  182.8950  177.1270  139.6710 C   0  0  0  0  0  2  0  0  0  0  0  0
  181.4860  176.7230  140.0710 C   0  0  0  0  0  2  0  0  0  0  0  0
  180.5150  177.8500  139.8050 C   0  0  0  0  0  2  0  0  0  0  0  0
  179.4620  177.3840  138.8220 C   0  0  0  0  0  2  0  0  0  0  0  0
  179.3510  179.8100  138.1250 N   0  0  0  0  0  1  0  0  0  0  0  0
  178.9320  178.0950  136.6120 O   0  0  0  0  0  0  0  0  0  0  0  0
  179.2290  178.4320  137.7880 C   0  0  0  0  0  0  0  0  0  0  0  0
  193.1630  175.0010  136.2880 N   0  0  0  0  0  2  0  0  0  0  0  0
  195.6310  174.9350  139.1490 C   0  0  0  0  0  2  0  0  0  0  0  0
  195.8650  174.1330  137.8790 C   0  0  2  0  0  0  0  0  0  0  0  0
  194.2810  175.4590  137.1010 C   0  0  2  0  0  3  0  0  0  0  0  0
  195.8570  175.0210  136.3000 S   0  0  0  0  0  0  0  0  0  0  0  0
  194.4530  174.5340  138.2890 C   0  0  2  0  0  3  0  0  0  0  0  0
  198.0640  172.7130  136.4250 C   0  0  0  0  0  2  0  0  0  0  0  0
  196.0170  172.6420  137.9220 C   0  0  0  0  0  0  0  0  0  0  0  0
  195.1600  171.9420  138.5380 O   0  0  0  0  0  0  0  0  0  0  0  0
  197.3430  170.5750  137.2980 C   0  0  0  0  0  2  0  0  0  0  0  0
  197.1090  172.0070  137.2510 N   0  0  0  0  0  0  0  0  0  0  0  0
  198.4990  170.3210  136.3600 C   0  0  0  0  0  2  0  0  0  0  0  0
  199.0970  171.6810  136.0250 C   0  0  0  0  0  2  0  0  0  0  0  0
  190.1630  176.5390  140.2190 C   0  0  0  0  0  2  0  0  0  0  0  0
  189.6700  177.4220  141.2670 N   0  0  0  0  0  2  0  0  0  0  0  0
  190.3800  178.5940  143.2740 C   0  0  0  0  0  2  0  0  0  0  0  0
  189.9050  177.6530  144.3630 C   0  0  2  0  0  3  0  0  0  0  0  0
  190.6380  177.4170  142.3540 C   0  0  1  0  0  3  0  0  0  0  0  0
  190.1700  176.4750  143.4470 C   0  0  0  0  0  2  0  0  0  0  0  0
  188.4720  177.8020  144.5580 N   0  0  0  0  0  2  0  0  0  0  0  0
  188.4990  177.0100  146.7480 O   0  0  0  0  0  0  0  0  0  0  0  0
  187.8360  177.5090  145.8030 C   0  0  0  0  0  0  0  0  0  0  0  0
  186.3840  177.8450  145.9780 C   0  0  1  0  0  3  0  0  0  0  0  0
  186.1450  178.9320  147.0160 C   0  0  0  0  0  1  0  0  0  0  0  0
  185.7080  178.1830  144.6500 C   0  0  0  0  0  2  0  0  0  0  0  0
  184.2750  178.6790  144.8300 C   0  0  2  0  0  3  0  0  0  0  0  0
  182.2730  178.7000  143.7570 O   0  0  0  0  0  1  0  0  0  0  0  0
  183.6090  178.7300  143.5210 N   0  0  0  0  0  0  0  0  0  0  0  0
  184.1140  179.9530  144.1520 C   0  0  0  0  0  2  0  0  0  0  0  0
  1  6  1  0  0  0  0
  2  3  1  0  0  0  0
  4  8  1  0  0  0  0
  4  7  1  0  0  0  0
  5  4  2  0  0  0  0
  6  7  2  0  0  0  0
  7 10  1  0  0  0  0
  8  2  2  0  0  0  0
  9  5  1  0  0  0  0
  9  1  2  0  0  0  0
 10  3  2  0  0  0  0
 10 44  1  0  0  0  0
 12 18  1  0  0  0  0
 12 24  1  1  0  0  0
 14 23  1  0  0  0  0
 14 20  1  0  0  0  0
 15  2  1  1  0  0  0
 15 21  1  0  0  0  0
 16 23  1  6  0  0  0
 16 15  1  0  0  0  0
 18 17  2  0  0  0  0
 18 13  1  0  0  0  0
 19 20  1  1  0  0  0
 19 16  1  0  0  0  0
 19 12  1  0  0  0  0
 20 22  1  0  0  0  0
 21 13  1  0  0  0  0
 21 11  2  0  0  0  0
 24 25  1  0  0  0  0
 26 25  1  0  0  0  0
 27 26  1  0  0  0  0
 29 30  2  0  0  0  0
 30 28  1  0  0  0  0
 30 27  1  0  0  0  0
 31  1  1  0  0  0  0
 33 38  1  1  0  0  0
 33 36  1  0  0  0  0
 33 32  1  0  0  0  0
 34 31  1  6  0  0  0
 34 36  1  0  0  0  0
 35 34  1  0  0  0  0
 35 33  1  0  0  0  0
 36 32  1  1  0  0  0
 37 41  1  0  0  0  0
 38 39  2  0  0  0  0
 41 40  1  0  0  0  0
 41 38  1  0  0  0  0
 42 40  1  0  0  0  0
 43 42  1  0  0  0  0
 43 37  1  0  0  0  0
 44 45  1  0  0  0  0
 46 47  1  0  0  0  0
 47 50  1  6  0  0  0
 48 45  1  6  0  0  0
 48 46  1  0  0  0  0
 48 49  1  0  0  0  0
 49 47  1  0  0  0  0
 50 52  1  0  0  0  0
 52 53  1  0  0  0  0
 52 51  2  0  0  0  0
 53 54  1  1  0  0  0
 55 53  1  0  0  0  0
 56 55  1  6  0  0  0
 58 57  1  0  0  0  0
 58 59  1  0  0  0  0
 58 56  1  0  0  0  0
 59 56  1  0  0  0  0
M  END
>  <MODEL>
2

>  <REMARK>
 VINA RESULT:      -7.6      1.888      2.475
  Name = 
  16 active torsions:
  status: ('A' for Active; 'I' for Inactive)
    1  A    between atoms: C_3  and  C_25
    2  A    between atoms: C_4  and  N_43
    3  A    between atoms: C_5  and  C_7
    4  A    between atoms: C_5  and  C_14
    5  A    between atoms: C_6  and  C_11
    6  A    between atoms: C_7  and  C_9
    7  A    between atoms: C_8  and  C_29
    8  A    between atoms: C_9  and  C_21
    9  A    between atoms: C_13  and  C_25
   10  A    between atoms: C_13  and  C_57
   11  A    between atoms: N_15  and  C_26
   12  A    between atoms: C_19  and  N_43
   13  A    between atoms: C_21  and  C_56
   14  A    between atoms: N_30  and  C_39
   15  A    between atoms: N_30  and  C_51
   16  A    between atoms: C_51  and  C_54
                            x       y       z     vdW  Elec       q    Type
                         _______ _______ _______ _____ _____    ______ ____

>  <TORSDO>
F 16

$$$$
=
 OpenBabel10222418163D

 59 67  0  0  1  0  0  0  0  0999 V2000
  187.9910  178.6660  141.5600 C   0  0  0  0  0  0  0  0  0  0  0  0
  184.0440  178.3900  138.4410 C   0  0  0  0  0  0  0  0  0  0  0  0
  185.1360  178.0130  137.7230 N   0  0  0  0  0  0  0  0  0  0  0  0
  185.4520  178.7350  140.3670 C   0  0  0  0  0  0  0  0  0  0  0  0
  185.6050  179.1040  141.7040 C   0  0  0  0  0  3  0  0  0  0  0  0
  187.8370  178.2960  140.2210 C   0  0  0  0  0  3  0  0  0  0  0  0
  186.5710  178.3280  139.6110 C   0  0  0  0  0  0  0  0  0  0  0  0
  184.1930  178.7770  139.7760 C   0  0  0  0  0  3  0  0  0  0  0  0
  186.8700  179.0680  142.2980 C   0  0  0  0  0  3  0  0  0  0  0  0
  186.3850  177.9720  138.2630 C   0  0  0  0  0  0  0  0  0  0  0  0
  182.6220  180.7170  138.6750 O   0  0  0  0  0  0  0  0  0  0  0  0
  179.5020  178.3110  137.3080 C   0  0  1  0  0  3  0  0  0  0  0  0
  181.0610  180.3240  137.0120 N   0  0  0  0  0  2  0  0  0  0  0  0
  181.3070  175.0960  137.5510 N   0  0  0  0  0  2  0  0  0  0  0  0
  182.7060  178.4880  137.7550 C   0  0  1  0  0  3  0  0  0  0  0  0
  181.7310  177.3830  138.1960 C   0  0  1  0  0  3  0  0  0  0  0  0
  179.2490  179.9580  135.6050 O   0  0  0  0  0  0  0  0  0  0  0  0
  179.9380  179.5480  136.5800 C   0  0  0  0  0  0  0  0  0  0  0  0
  180.6070  177.2500  137.2190 C   0  0  1  0  0  3  0  0  0  0  0  0
  180.1690  175.8540  137.2190 N   0  0  0  0  0  0  0  0  0  0  0  0
  182.1160  179.8810  137.8740 C   0  0  0  0  0  0  0  0  0  0  0  0
  179.1910  175.6080  138.2650 C   0  0  0  0  0  1  0  0  0  0  0  0
  182.3270  176.0010  138.0980 C   0  0  0  0  0  2  0  0  0  0  0  0
  179.1060  178.6420  138.7540 C   0  0  0  0  0  2  0  0  0  0  0  0
  178.9310  180.1390  138.9530 C   0  0  0  0  0  2  0  0  0  0  0  0
  178.9310  180.4810  140.4250 C   0  0  0  0  0  2  0  0  0  0  0  0
  179.4080  179.2830  141.2180 C   0  0  0  0  0  2  0  0  0  0  0  0
  181.6010  178.9670  142.4310 N   0  0  0  0  0  1  0  0  0  0  0  0
  180.1840  180.7390  142.9360 O   0  0  0  0  0  0  0  0  0  0  0  0
  180.4020  179.7110  142.2420 C   0  0  0  0  0  0  0  0  0  0  0  0
  189.2950  178.6330  142.1520 N   0  0  0  0  0  2  0  0  0  0  0  0
  191.6330  176.3440  144.0430 C   0  0  0  0  0  2  0  0  0  0  0  0
  190.1840  176.5260  144.4660 C   0  0  2  0  0  0  0  0  0  0  0  0
  190.0120  177.4000  142.4470 C   0  0  2  0  0  3  0  0  0  0  0  0
  188.8940  176.2000  143.2380 S   0  0  0  0  0  0  0  0  0  0  0  0
  190.8950  177.6080  143.6610 C   0  0  2  0  0  3  0  0  0  0  0  0
  187.4370  177.5060  145.1450 C   0  0  0  0  0  2  0  0  0  0  0  0
  189.8350  177.0370  145.8320 C   0  0  0  0  0  0  0  0  0  0  0  0
  190.7340  177.1220  146.7190 O   0  0  0  0  0  0  0  0  0  0  0  0
  188.0820  177.9060  147.4420 C   0  0  0  0  0  2  0  0  0  0  0  0
  188.4980  177.4530  146.1280 N   0  0  0  0  0  0  0  0  0  0  0  0
  186.6530  178.3680  147.2800 C   0  0  0  0  0  2  0  0  0  0  0  0
  186.1880  177.8770  145.9160 C   0  0  0  0  0  2  0  0  0  0  0  0
  187.5440  177.5840  137.3930 C   0  0  0  0  0  2  0  0  0  0  0  0
  187.1270  177.4910  136.0000 N   0  0  0  0  0  2  0  0  0  0  0  0
  188.0410  175.6720  134.6730 C   0  0  0  0  0  2  0  0  0  0  0  0
  188.7220  174.8310  135.7330 C   0  0  2  0  0  3  0  0  0  0  0  0
  186.9740  176.0830  135.6680 C   0  0  1  0  0  3  0  0  0  0  0  0
  187.6510  175.2340  136.7270 C   0  0  0  0  0  2  0  0  0  0  0  0
  189.9870  175.4380  136.1120 N   0  0  0  0  0  2  0  0  0  0  0  0
  190.5530  173.7620  137.6270 O   0  0  0  0  0  0  0  0  0  0  0  0
  190.8870  174.8190  137.0330 C   0  0  0  0  0  0  0  0  0  0  0  0
  192.2440  175.4230  137.2470 C   0  0  1  0  0  3  0  0  0  0  0  0
  192.2610  176.4760  138.3460 C   0  0  0  0  0  1  0  0  0  0  0  0
  193.3170  174.3610  137.4750 C   0  0  0  0  0  2  0  0  0  0  0  0
  194.6460  174.9580  137.9350 C   0  0  2  0  0  3  0  0  0  0  0  0
  196.8310  175.0620  137.3260 O   0  0  0  0  0  1  0  0  0  0  0  0
  195.7520  174.2400  137.2860 N   0  0  0  0  0  0  0  0  0  0  0  0
  195.3940  173.9590  138.6790 C   0  0  0  0  0  2  0  0  0  0  0  0
  1 31  1  0  0  0  0
  1  9  1  0  0  0  0
  2  8  1  0  0  0  0
  3 10  1  0  0  0  0
  3  2  2  0  0  0  0
  4  5  1  0  0  0  0
  5  9  2  0  0  0  0
  6  1  2  0  0  0  0
  7  6  1  0  0  0  0
  7  4  1  0  0  0  0
  8  4  2  0  0  0  0
 10  7  2  0  0  0  0
 12 24  1  1  0  0  0
 13 21  1  0  0  0  0
 14 23  1  0  0  0  0
 15 21  1  0  0  0  0
 15 16  1  0  0  0  0
 15  2  1  1  0  0  0
 16 23  1  6  0  0  0
 17 18  2  0  0  0  0
 18 13  1  0  0  0  0
 18 12  1  0  0  0  0
 19 20  1  1  0  0  0
 19 12  1  0  0  0  0
 19 16  1  0  0  0  0
 20 14  1  0  0  0  0
 20 22  1  0  0  0  0
 21 11  2  0  0  0  0
 24 25  1  0  0  0  0
 25 26  1  0  0  0  0
 26 27  1  0  0  0  0
 27 30  1  0  0  0  0
 30 28  1  0  0  0  0
 30 29  2  0  0  0  0
 32 33  1  0  0  0  0
 33 38  1  1  0  0  0
 34 31  1  1  0  0  0
 34 35  1  0  0  0  0
 34 36  1  0  0  0  0
 35 33  1  0  0  0  0
 36 32  1  6  0  0  0
 36 33  1  0  0  0  0
 37 43  1  0  0  0  0
 37 41  1  0  0  0  0
 38 41  1  0  0  0  0
 38 39  2  0  0  0  0
 41 40  1  0  0  0  0
 42 40  1  0  0  0  0
 43 42  1  0  0  0  0
 44 10  1  0  0  0  0
 45 44  1  0  0  0  0
 46 48  1  0  0  0  0
 46 47  1  0  0  0  0
 47 50  1  1  0  0  0
 47 49  1  0  0  0  0
 48 45  1  1  0  0  0
 48 49  1  0  0  0  0
 50 52  1  0  0  0  0
 52 53  1  0  0  0  0
 52 51  2  0  0  0  0
 53 55  1  0  0  0  0
 53 54  1  1  0  0  0
 56 55  1  6  0  0  0
 56 59  1  0  0  0  0
 58 57  1  0  0  0  0
 58 56  1  0  0  0  0
 58 59  1  0  0  0  0
M  END
>  <MODEL>
3

>  <REMARK>
 VINA RESULT:      -7.5      2.288      7.945
  Name = 
  16 active torsions:
  status: ('A' for Active; 'I' for Inactive)
    1  A    between atoms: C_3  and  C_25
    2  A    between atoms: C_4  and  N_43
    3  A    between atoms: C_5  and  C_7
    4  A    between atoms: C_5  and  C_14
    5  A    between atoms: C_6  and  C_11
    6  A    between atoms: C_7  and  C_9
    7  A    between atoms: C_8  and  C_29
    8  A    between atoms: C_9  and  C_21
    9  A    between atoms: C_13  and  C_25
   10  A    between atoms: C_13  and  C_57
   11  A    between atoms: N_15  and  C_26
   12  A    between atoms: C_19  and  N_43
   13  A    between atoms: C_21  and  C_56
   14  A    between atoms: N_30  and  C_39
   15  A    between atoms: N_30  and  C_51
   16  A    between atoms: C_51  and  C_54
                            x       y       z     vdW  Elec       q    Type
                         _______ _______ _______ _____ _____    ______ ____

>  <TORSDO>
F 16

$$$$
=
 OpenBabel10222418163D

 59 67  0  0  1  0  0  0  0  0999 V2000
  181.1020  178.1020  139.7750 C   0  0  0  0  0  0  0  0  0  0  0  0
  185.7670  178.6770  141.5900 C   0  0  0  0  0  0  0  0  0  0  0  0
  185.8700  178.7010  140.2340 N   0  0  0  0  0  0  0  0  0  0  0  0
  183.3850  178.3640  141.3860 C   0  0  0  0  0  0  0  0  0  0  0  0
  182.1320  178.1920  141.9740 C   0  0  0  0  0  3  0  0  0  0  0  0
  182.3570  178.2760  139.1860 C   0  0  0  0  0  3  0  0  0  0  0  0
  183.5090  178.4060  139.9810 C   0  0  0  0  0  0  0  0  0  0  0  0
  184.5160  178.4870  142.1870 C   0  0  0  0  0  3  0  0  0  0  0  0
  180.9940  178.0630  141.1720 C   0  0  0  0  0  3  0  0  0  0  0  0
  184.7880  178.5710  139.4180 C   0  0  0  0  0  0  0  0  0  0  0  0
  188.1340  177.8760  140.4750 O   0  0  0  0  0  0  0  0  0  0  0  0
  189.3660  177.8240  144.4580 C   0  0  1  0  0  3  0  0  0  0  0  0
  189.5670  178.7410  142.0730 N   0  0  0  0  0  2  0  0  0  0  0  0
  186.0250  178.3500  145.9440 N   0  0  0  0  0  2  0  0  0  0  0  0
  187.0170  178.7460  142.4280 C   0  0  1  0  0  3  0  0  0  0  0  0
  186.9020  177.9400  143.7330 C   0  0  1  0  0  3  0  0  0  0  0  0
  191.1140  179.2690  143.7240 O   0  0  0  0  0  0  0  0  0  0  0  0
  190.0460  178.6680  143.4210 C   0  0  0  0  0  0  0  0  0  0  0  0
  187.9520  178.3630  144.7090 C   0  0  1  0  0  3  0  0  0  0  0  0
  187.4170  178.1810  146.0590 N   0  0  0  0  0  0  0  0  0  0  0  0
  188.2530  178.3940  141.6210 C   0  0  0  0  0  0  0  0  0  0  0  0
  187.6290  176.8230  146.5310 C   0  0  0  0  0  1  0  0  0  0  0  0
  185.6610  178.2760  144.5230 C   0  0  0  0  0  2  0  0  0  0  0  0
  189.3800  176.3440  144.0490 C   0  0  0  0  0  2  0  0  0  0  0  0
  190.7970  175.8420  143.8270 C   0  0  0  0  0  2  0  0  0  0  0  0
  191.7350  176.4260  144.8580 C   0  0  0  0  0  2  0  0  0  0  0  0
  192.0060  175.3930  145.9310 C   0  0  0  0  0  2  0  0  0  0  0  0
  190.9930  176.9360  147.6570 N   0  0  0  0  0  1  0  0  0  0  0  0
  192.9790  175.7990  148.0670 O   0  0  0  0  0  0  0  0  0  0  0  0
  192.0350  176.0450  147.2720 C   0  0  0  0  0  0  0  0  0  0  0  0
  179.9470  177.9620  138.9390 N   0  0  0  0  0  2  0  0  0  0  0  0
  179.4000  174.9170  136.7680 C   0  0  0  0  0  2  0  0  0  0  0  0
  180.5680  175.0020  137.7390 C   0  0  2  0  0  0  0  0  0  0  0  0
  179.3830  176.6750  138.5570 C   0  0  2  0  0  3  0  0  0  0  0  0
  180.2010  175.3350  139.4810 S   0  0  0  0  0  0  0  0  0  0  0  0
  179.9190  176.2710  137.1990 C   0  0  2  0  0  3  0  0  0  0  0  0
  181.8810  172.3600  137.2300 C   0  0  0  0  0  2  0  0  0  0  0  0
  181.9830  174.8950  137.2570 C   0  0  0  0  0  0  0  0  0  0  0  0
  182.6790  175.9430  137.1150 O   0  0  0  0  0  0  0  0  0  0  0  0
  183.9030  173.4430  136.4630 C   0  0  0  0  0  2  0  0  0  0  0  0
  182.5580  173.6140  136.9820 N   0  0  0  0  0  0  0  0  0  0  0  0
  184.1470  171.9530  136.4490 C   0  0  0  0  0  2  0  0  0  0  0  0
  182.7990  171.2870  136.6840 C   0  0  0  0  0  2  0  0  0  0  0  0
  184.9910  178.5680  137.9320 C   0  0  0  0  0  2  0  0  0  0  0  0
  186.3630  178.2060  137.6050 N   0  0  0  0  0  2  0  0  0  0  0  0
  187.4350  177.7430  135.4740 C   0  0  0  0  0  2  0  0  0  0  0  0
  188.1870  176.4630  135.7800 C   0  0  2  0  0  3  0  0  0  0  0  0
  186.3350  177.3400  136.4360 C   0  0  1  0  0  3  0  0  0  0  0  0
  187.0820  176.0550  136.7360 C   0  0  0  0  0  2  0  0  0  0  0  0
  189.3930  176.7630  136.5340 N   0  0  0  0  0  2  0  0  0  0  0  0
  190.5080  174.8250  135.8820 O   0  0  0  0  0  0  0  0  0  0  0  0
  190.5460  175.9210  136.4980 C   0  0  0  0  0  0  0  0  0  0  0  0
  191.8080  176.3810  137.1680 C   0  0  1  0  0  3  0  0  0  0  0  0
  191.6940  176.4270  138.6840 C   0  0  0  0  0  1  0  0  0  0  0  0
  193.0240  175.5710  136.7240 C   0  0  0  0  0  2  0  0  0  0  0  0
  193.7380  174.8950  137.8920 C   0  0  2  0  0  3  0  0  0  0  0  0
  195.7130  174.9470  139.0130 O   0  0  0  0  0  1  0  0  0  0  0  0
  195.1860  175.1230  137.7750 N   0  0  0  0  0  0  0  0  0  0  0  0
  194.5970  173.8370  137.3890 C   0  0  0  0  0  2  0  0  0  0  0  0
  1  9  1  0  0  0  0
  2  8  1  0  0  0  0
  3  2  2  0  0  0  0
  4  5  1  0  0  0  0
  4  8  2  0  0  0  0
  6  1  2  0  0  0  0
  6  7  1  0  0  0  0
  7  4  1  0  0  0  0
  9  5  2  0  0  0  0
 10  7  2  0  0  0  0
 10  3  1  0  0  0  0
 11 21  2  0  0  0  0
 12 24  1  6  0  0  0
 12 19  1  0  0  0  0
 13 18  1  0  0  0  0
 14 20  1  0  0  0  0
 15  2  1  6  0  0  0
 15 16  1  0  0  0  0
 16 23  1  1  0  0  0
 16 19  1  0  0  0  0
 18 17  2  0  0  0  0
 18 12  1  0  0  0  0
 19 20  1  1  0  0  0
 20 22  1  0  0  0  0
 21 13  1  0  0  0  0
 21 15  1  0  0  0  0
 23 14  1  0  0  0  0
 25 24  1  0  0  0  0
 25 26  1  0  0  0  0
 26 27  1  0  0  0  0
 27 30  1  0  0  0  0
 30 28  1  0  0  0  0
 30 29  2  0  0  0  0
 31  1  1  0  0  0  0
 32 33  1  0  0  0  0
 33 38  1  6  0  0  0
 33 35  1  0  0  0  0
 34 31  1  1  0  0  0
 34 35  1  0  0  0  0
 36 32  1  6  0  0  0
 36 33  1  0  0  0  0
 36 34  1  0  0  0  0
 39 38  2  0  0  0  0
 40 41  1  0  0  0  0
 41 37  1  0  0  0  0
 41 38  1  0  0  0  0
 42 40  1  0  0  0  0
 42 43  1  0  0  0  0
 43 37  1  0  0  0  0
 44 10  1  0  0  0  0
 45 44  1  0  0  0  0
 46 47  1  0  0  0  0
 46 48  1  0  0  0  0
 47 50  1  1  0  0  0
 47 49  1  0  0  0  0
 48 49  1  0  0  0  0
 48 45  1  1  0  0  0
 51 52  2  0  0  0  0
 52 50  1  0  0  0  0
 52 53  1  0  0  0  0
 53 54  1  1  0  0  0
 55 53  1  0  0  0  0
 56 55  1  6  0  0  0
 58 56  1  0  0  0  0
 58 57  1  0  0  0  0
 59 58  1  0  0  0  0
 59 56  1  0  0  0  0
M  END
>  <MODEL>
4

>  <REMARK>
 VINA RESULT:      -7.4      3.162     10.745
  Name = 
  16 active torsions:
  status: ('A' for Active; 'I' for Inactive)
    1  A    between atoms: C_3  and  C_25
    2  A    between atoms: C_4  and  N_43
    3  A    between atoms: C_5  and  C_7
    4  A    between atoms: C_5  and  C_14
    5  A    between atoms: C_6  and  C_11
    6  A    between atoms: C_7  and  C_9
    7  A    between atoms: C_8  and  C_29
    8  A    between atoms: C_9  and  C_21
    9  A    between atoms: C_13  and  C_25
   10  A    between atoms: C_13  and  C_57
   11  A    between atoms: N_15  and  C_26
   12  A    between atoms: C_19  and  N_43
   13  A    between atoms: C_21  and  C_56
   14  A    between atoms: N_30  and  C_39
   15  A    between atoms: N_30  and  C_51
   16  A    between atoms: C_51  and  C_54
                            x       y       z     vdW  Elec       q    Type
                         _______ _______ _______ _____ _____    ______ ____

>  <TORSDO>
F 16

$$$$
=
 OpenBabel10222418163D

 59 67  0  0  1  0  0  0  0  0999 V2000
  191.3850  174.6120  136.0440 C   0  0  0  0  0  0  0  0  0  0  0  0
  187.3350  177.2120  137.5340 C   0  0  0  0  0  0  0  0  0  0  0  0
  188.1710  177.1440  138.6050 N   0  0  0  0  0  0  0  0  0  0  0  0
  188.9190  175.9370  136.2390 C   0  0  0  0  0  0  0  0  0  0  0  0
  189.2910  175.3270  135.0410 C   0  0  0  0  0  3  0  0  0  0  0  0
  191.0140  175.2240  137.2440 C   0  0  0  0  0  3  0  0  0  0  0  0
  189.7800  175.8900  137.3550 C   0  0  0  0  0  0  0  0  0  0  0  0
  187.6930  176.5870  136.3350 C   0  0  0  0  0  3  0  0  0  0  0  0
  190.5200  174.6670  134.9430 C   0  0  0  0  0  3  0  0  0  0  0  0
  189.3730  176.5060  138.5530 C   0  0  0  0  0  0  0  0  0  0  0  0
  186.7770  178.5210  139.8720 O   0  0  0  0  0  0  0  0  0  0  0  0
  182.8630  178.2370  138.4630 C   0  0  1  0  0  3  0  0  0  0  0  0
  184.8790  179.6490  139.1800 N   0  0  0  0  0  2  0  0  0  0  0  0
  183.5950  175.9920  135.6220 N   0  0  0  0  0  2  0  0  0  0  0  0
  185.9860  177.8660  137.6890 C   0  0  1  0  0  3  0  0  0  0  0  0
  184.8230  176.8770  137.5020 C   0  0  1  0  0  3  0  0  0  0  0  0
  182.8050  180.6030  138.7490 O   0  0  0  0  0  0  0  0  0  0  0  0
  183.5090  179.5550  138.7730 C   0  0  0  0  0  0  0  0  0  0  0  0
  183.5460  177.6090  137.2400 C   0  0  1  0  0  3  0  0  0  0  0  0
  182.7060  176.7660  136.3890 N   0  0  0  0  0  0  0  0  0  0  0  0
  185.8910  178.6550  138.9820 C   0  0  0  0  0  0  0  0  0  0  0  0
  181.9230  175.8310  137.1800 C   0  0  0  0  0  1  0  0  0  0  0  0
  184.9310  176.0780  136.2270 C   0  0  0  0  0  2  0  0  0  0  0  0
  182.8780  177.3210  139.6940 C   0  0  0  0  0  2  0  0  0  0  0  0
  181.7490  177.6600  140.6540 C   0  0  0  0  0  2  0  0  0  0  0  0
  180.5260  176.8250  140.3490 C   0  0  0  0  0  2  0  0  0  0  0  0
  179.2810  177.6370  140.6370 C   0  0  0  0  0  2  0  0  0  0  0  0
  179.3560  180.1400  140.2970 N   0  0  0  0  0  1  0  0  0  0  0  0
  179.0900  178.6820  138.5050 O   0  0  0  0  0  0  0  0  0  0  0  0
  179.2320  178.8320  139.7470 C   0  0  0  0  0  0  0  0  0  0  0  0
  192.6440  173.9320  135.9630 N   0  0  0  0  0  2  0  0  0  0  0  0
  195.4360  172.2250  137.8520 C   0  0  0  0  0  2  0  0  0  0  0  0
  195.4640  173.7190  137.5710 C   0  0  2  0  0  0  0  0  0  0  0  0
  193.3310  173.3750  137.1200 C   0  0  2  0  0  3  0  0  0  0  0  0
  194.0540  174.7130  138.1220 S   0  0  0  0  0  0  0  0  0  0  0  0
  194.6550  172.7820  136.6830 C   0  0  2  0  0  3  0  0  0  0  0  0
  195.0820  176.1920  135.9270 C   0  0  0  0  0  2  0  0  0  0  0  0
  196.5850  174.3390  136.7910 C   0  0  0  0  0  0  0  0  0  0  0  0
  197.7190  173.7770  136.7670 O   0  0  0  0  0  0  0  0  0  0  0  0
  197.4250  176.2270  135.3240 C   0  0  0  0  0  2  0  0  0  0  0  0
  196.3710  175.5470  136.0550 N   0  0  0  0  0  0  0  0  0  0  0  0
  196.7470  177.3630  134.5950 C   0  0  0  0  0  2  0  0  0  0  0  0
  195.3460  177.4820  135.1790 C   0  0  0  0  0  2  0  0  0  0  0  0
  190.2190  176.4420  139.7890 C   0  0  0  0  0  2  0  0  0  0  0  0
  189.8040  177.4590  140.7460 N   0  0  0  0  0  2  0  0  0  0  0  0
  190.4270  178.5960  142.8000 C   0  0  0  0  0  2  0  0  0  0  0  0
  190.1070  177.5440  143.8430 C   0  0  2  0  0  3  0  0  0  0  0  0
  190.7990  177.5140  141.8060 C   0  0  1  0  0  3  0  0  0  0  0  0
  190.4870  176.4610  142.8520 C   0  0  0  0  0  2  0  0  0  0  0  0
  188.6740  177.5000  144.0820 N   0  0  0  0  0  2  0  0  0  0  0  0
  188.8780  177.1600  146.3770 O   0  0  0  0  0  0  0  0  0  0  0  0
  188.1220  177.3570  145.3920 C   0  0  0  0  0  0  0  0  0  0  0  0
  186.6380  177.4880  145.5770 C   0  0  1  0  0  3  0  0  0  0  0  0
  186.2580  178.1250  146.9050 C   0  0  0  0  0  1  0  0  0  0  0  0
  185.9730  178.2050  144.4030 C   0  0  0  0  0  2  0  0  0  0  0  0
  184.5290  178.6020  144.7000 C   0  0  2  0  0  3  0  0  0  0  0  0
  182.5050  178.7630  143.6830 O   0  0  0  0  0  1  0  0  0  0  0  0
  183.8330  178.8880  143.4370 N   0  0  0  0  0  0  0  0  0  0  0  0
  184.3110  179.9790  144.2920 C   0  0  0  0  0  2  0  0  0  0  0  0
  1  6  1  0  0  0  0
  2  3  1  0  0  0  0
  4  8  1  0  0  0  0
  4  7  1  0  0  0  0
  5  4  2  0  0  0  0
  6  7  2  0  0  0  0
  7 10  1  0  0  0  0
  8  2  2  0  0  0  0
  9  5  1  0  0  0  0
  9  1  2  0  0  0  0
 10  3  2  0  0  0  0
 10 44  1  0  0  0  0
 12 18  1  0  0  0  0
 12 24  1  1  0  0  0
 14 23  1  0  0  0  0
 14 20  1  0  0  0  0
 15  2  1  1  0  0  0
 15 21  1  0  0  0  0
 16 23  1  6  0  0  0
 16 15  1  0  0  0  0
 17 18  2  0  0  0  0
 18 13  1  0  0  0  0
 19 20  1  1  0  0  0
 19 16  1  0  0  0  0
 19 12  1  0  0  0  0
 20 22  1  0  0  0  0
 21 13  1  0  0  0  0
 21 11  2  0  0  0  0
 24 25  1  0  0  0  0
 26 27  1  0  0  0  0
 26 25  1  0  0  0  0
 29 30  2  0  0  0  0
 30 28  1  0  0  0  0
 30 27  1  0  0  0  0
 31  1  1  0  0  0  0
 33 38  1  6  0  0  0
 33 32  1  0  0  0  0
 33 35  1  0  0  0  0
 34 31  1  6  0  0  0
 34 35  1  0  0  0  0
 36 34  1  0  0  0  0
 36 33  1  0  0  0  0
 36 32  1  1  0  0  0
 37 41  1  0  0  0  0
 39 38  2  0  0  0  0
 40 41  1  0  0  0  0
 41 38  1  0  0  0  0
 42 43  1  0  0  0  0
 42 40  1  0  0  0  0
 43 37  1  0  0  0  0
 44 45  1  0  0  0  0
 46 47  1  0  0  0  0
 47 50  1  6  0  0  0
 48 45  1  6  0  0  0
 48 46  1  0  0  0  0
 48 49  1  0  0  0  0
 49 47  1  0  0  0  0
 50 52  1  0  0  0  0
 52 53  1  0  0  0  0
 52 51  2  0  0  0  0
 53 54  1  1  0  0  0
 55 53  1  0  0  0  0
 56 55  1  6  0  0  0
 58 57  1  0  0  0  0
 58 59  1  0  0  0  0
 58 56  1  0  0  0  0
 59 56  1  0  0  0  0
M  END
>  <MODEL>
5

>  <REMARK>
 VINA RESULT:      -7.1      1.734      2.310
  Name = 
  16 active torsions:
  status: ('A' for Active; 'I' for Inactive)
    1  A    between atoms: C_3  and  C_25
    2  A    between atoms: C_4  and  N_43
    3  A    between atoms: C_5  and  C_7
    4  A    between atoms: C_5  and  C_14
    5  A    between atoms: C_6  and  C_11
    6  A    between atoms: C_7  and  C_9
    7  A    between atoms: C_8  and  C_29
    8  A    between atoms: C_9  and  C_21
    9  A    between atoms: C_13  and  C_25
   10  A    between atoms: C_13  and  C_57
   11  A    between atoms: N_15  and  C_26
   12  A    between atoms: C_19  and  N_43
   13  A    between atoms: C_21  and  C_56
   14  A    between atoms: N_30  and  C_39
   15  A    between atoms: N_30  and  C_51
   16  A    between atoms: C_51  and  C_54
                            x       y       z     vdW  Elec       q    Type
                         _______ _______ _______ _____ _____    ______ ____

>  <TORSDO>
F 16

$$$$
=
 OpenBabel10222418163D

 59 67  0  0  1  0  0  0  0  0999 V2000
  187.7000  178.6010  141.5550 C   0  0  0  0  0  0  0  0  0  0  0  0
  183.6690  178.2730  138.5510 C   0  0  0  0  0  0  0  0  0  0  0  0
  184.7450  177.9140  137.8010 N   0  0  0  0  0  0  0  0  0  0  0  0
  185.1270  178.6360  140.4360 C   0  0  0  0  0  0  0  0  0  0  0  0
  185.3140  179.0040  141.7680 C   0  0  0  0  0  3  0  0  0  0  0  0
  187.5130  178.2310  140.2200 C   0  0  0  0  0  3  0  0  0  0  0  0
  186.2290  178.2460  139.6470 C   0  0  0  0  0  0  0  0  0  0  0  0
  183.8510  178.6610  139.8820 C   0  0  0  0  0  3  0  0  0  0  0  0
  186.5960  178.9850  142.3260 C   0  0  0  0  0  3  0  0  0  0  0  0
  186.0100  177.8900  138.3040 C   0  0  0  0  0  0  0  0  0  0  0  0
  183.5100  178.1530  135.8210 O   0  0  0  0  0  0  0  0  0  0  0  0
  179.6770  179.6360  136.5220 C   0  0  1  0  0  3  0  0  0  0  0  0
  181.2310  177.8010  135.6330 N   0  0  0  0  0  2  0  0  0  0  0  0
  180.1340  180.3130  140.1240 N   0  0  0  0  0  2  0  0  0  0  0  0
  182.3100  178.3540  137.9040 C   0  0  1  0  0  3  0  0  0  0  0  0
  181.5450  179.6310  138.2890 C   0  0  1  0  0  3  0  0  0  0  0  0
  178.9390  177.7560  135.2560 O   0  0  0  0  0  0  0  0  0  0  0  0
  179.9160  178.3430  135.7990 C   0  0  0  0  0  0  0  0  0  0  0  0
  180.0880  179.4830  137.9920 C   0  0  1  0  0  3  0  0  0  0  0  0
  179.3430  180.2870  138.9620 N   0  0  0  0  0  0  0  0  0  0  0  0
  182.3900  178.1390  136.4040 C   0  0  0  0  0  0  0  0  0  0  0  0
  179.2180  181.6660  138.5190 C   0  0  0  0  0  1  0  0  0  0  0  0
  181.4870  179.8540  139.7800 C   0  0  0  0  0  2  0  0  0  0  0  0
  180.3960  180.7940  135.8160 C   0  0  0  0  0  2  0  0  0  0  0  0
  179.4580  181.5500  134.8890 C   0  0  0  0  0  2  0  0  0  0  0  0
  179.3290  182.9910  135.3250 C   0  0  0  0  0  2  0  0  0  0  0  0
  180.6470  183.7020  135.1040 C   0  0  0  0  0  2  0  0  0  0  0  0
  181.9110  184.1250  137.2500 N   0  0  0  0  0  1  0  0  0  0  0  0
  180.4060  185.6820  136.4050 O   0  0  0  0  0  0  0  0  0  0  0  0
  180.9670  184.5620  136.2780 C   0  0  0  0  0  0  0  0  0  0  0  0
  189.0220  178.5850  142.1080 N   0  0  0  0  0  2  0  0  0  0  0  0
  191.7970  176.3820  143.4200 C   0  0  0  0  0  2  0  0  0  0  0  0
  190.4730  176.5140  144.1550 C   0  0  2  0  0  0  0  0  0  0  0  0
  189.8280  177.3790  142.2290 C   0  0  2  0  0  3  0  0  0  0  0  0
  188.9540  176.1420  143.2400 S   0  0  0  0  0  0  0  0  0  0  0  0
  190.9500  177.6180  143.2190 C   0  0  2  0  0  3  0  0  0  0  0  0
  187.9170  177.4240  145.4230 C   0  0  0  0  0  2  0  0  0  0  0  0
  190.4170  177.0140  145.5670 C   0  0  0  0  0  0  0  0  0  0  0  0
  191.4860  177.1190  146.2380 O   0  0  0  0  0  0  0  0  0  0  0  0
  189.0380  177.8370  147.5270 C   0  0  0  0  0  2  0  0  0  0  0  0
  189.1680  177.3960  146.1500 N   0  0  0  0  0  0  0  0  0  0  0  0
  187.5980  178.2630  147.6830 C   0  0  0  0  0  2  0  0  0  0  0  0
  186.8580  177.7630  146.4500 C   0  0  0  0  0  2  0  0  0  0  0  0
  187.1480  177.5210  137.4000 C   0  0  0  0  0  2  0  0  0  0  0  0
  187.5940  176.1600  137.6700 N   0  0  0  0  0  2  0  0  0  0  0  0
  188.5940  176.2830  135.4580 C   0  0  0  0  0  2  0  0  0  0  0  0
  189.6960  175.2480  135.5620 C   0  0  2  0  0  3  0  0  0  0  0  0
  187.7250  175.4680  136.3960 C   0  0  1  0  0  3  0  0  0  0  0  0
  188.8240  174.4280  136.4930 C   0  0  0  0  0  2  0  0  0  0  0  0
  190.8200  175.7920  136.3050 N   0  0  0  0  0  2  0  0  0  0  0  0
  192.3460  174.2210  135.5120 O   0  0  0  0  0  0  0  0  0  0  0  0
  192.1410  175.2590  136.1930 C   0  0  0  0  0  0  0  0  0  0  0  0
  193.2770  175.9760  136.8610 C   0  0  1  0  0  3  0  0  0  0  0  0
  193.0280  176.2400  138.3380 C   0  0  0  0  0  1  0  0  0  0  0  0
  194.6140  175.2700  136.6380 C   0  0  0  0  0  2  0  0  0  0  0  0
  194.9920  174.3500  137.7960 C   0  0  2  0  0  3  0  0  0  0  0  0
  196.4270  174.2330  139.5520 O   0  0  0  0  0  1  0  0  0  0  0  0
  196.3310  174.7090  138.2850 N   0  0  0  0  0  0  0  0  0  0  0  0
  196.1390  173.5420  137.4180 C   0  0  0  0  0  2  0  0  0  0  0  0
  1 31  1  0  0  0  0
  1  9  1  0  0  0  0
  2  8  1  0  0  0  0
  3 10  1  0  0  0  0
  3  2  2  0  0  0  0
  4  5  1  0  0  0  0
  5  9  2  0  0  0  0
  6  1  2  0  0  0  0
  7  6  1  0  0  0  0
  7  4  1  0  0  0  0
  8  4  2  0  0  0  0
 10  7  2  0  0  0  0
 11 21  2  0  0  0  0
 12 24  1  6  0  0  0
 12 19  1  0  0  0  0
 13 18  1  0  0  0  0
 13 21  1  0  0  0  0
 15 16  1  0  0  0  0
 15  2  1  6  0  0  0
 16 23  1  1  0  0  0
 17 18  2  0  0  0  0
 18 12  1  0  0  0  0
 19 16  1  0  0  0  0
 19 20  1  1  0  0  0
 20 14  1  0  0  0  0
 21 15  1  0  0  0  0
 22 20  1  0  0  0  0
 23 14  1  0  0  0  0
 25 26  1  0  0  0  0
 25 24  1  0  0  0  0
 27 26  1  0  0  0  0
 27 30  1  0  0  0  0
 30 29  2  0  0  0  0
 30 28  1  0  0  0  0
 32 33  1  0  0  0  0
 33 38  1  1  0  0  0
 34 31  1  1  0  0  0
 34 36  1  0  0  0  0
 34 35  1  0  0  0  0
 35 33  1  0  0  0  0
 36 32  1  6  0  0  0
 36 33  1  0  0  0  0
 37 41  1  0  0  0  0
 37 43  1  0  0  0  0
 38 41  1  0  0  0  0
 38 39  2  0  0  0  0
 40 42  1  0  0  0  0
 41 40  1  0  0  0  0
 43 42  1  0  0  0  0
 44 45  1  0  0  0  0
 44 10  1  0  0  0  0
 46 47  1  0  0  0  0
 46 48  1  0  0  0  0
 47 50  1  1  0  0  0
 47 49  1  0  0  0  0
 48 49  1  0  0  0  0
 48 45  1  1  0  0  0
 51 52  2  0  0  0  0
 52 50  1  0  0  0  0
 52 53  1  0  0  0  0
 53 54  1  1  0  0  0
 55 53  1  0  0  0  0
 56 55  1  6  0  0  0
 56 58  1  0  0  0  0
 58 57  1  0  0  0  0
 59 56  1  0  0  0  0
 59 58  1  0  0  0  0
M  END
>  <MODEL>
6

>  <REMARK>
 VINA RESULT:      -6.8      2.882      8.478
  Name = 
  16 active torsions:
  status: ('A' for Active; 'I' for Inactive)
    1  A    between atoms: C_3  and  C_25
    2  A    between atoms: C_4  and  N_43
    3  A    between atoms: C_5  and  C_7
    4  A    between atoms: C_5  and  C_14
    5  A    between atoms: C_6  and  C_11
    6  A    between atoms: C_7  and  C_9
    7  A    between atoms: C_8  and  C_29
    8  A    between atoms: C_9  and  C_21
    9  A    between atoms: C_13  and  C_25
   10  A    between atoms: C_13  and  C_57
   11  A    between atoms: N_15  and  C_26
   12  A    between atoms: C_19  and  N_43
   13  A    between atoms: C_21  and  C_56
   14  A    between atoms: N_30  and  C_39
   15  A    between atoms: N_30  and  C_51
   16  A    between atoms: C_51  and  C_54
                            x       y       z     vdW  Elec       q    Type
                         _______ _______ _______ _____ _____    ______ ____

>  <TORSDO>
F 16

$$$$
=
 OpenBabel10222418163D

 59 67  0  0  1  0  0  0  0  0999 V2000
  185.6780  178.8850  145.0090 C   0  0  0  0  0  0  0  0  0  0  0  0
  183.1710  178.4930  140.6560 C   0  0  0  0  0  0  0  0  0  0  0  0
  184.4950  178.5090  140.3440 N   0  0  0  0  0  0  0  0  0  0  0  0
  183.7380  178.6940  142.9910 C   0  0  0  0  0  0  0  0  0  0  0  0
  183.3480  178.7900  144.3270 C   0  0  0  0  0  3  0  0  0  0  0  0
  186.0690  178.7880  143.6710 C   0  0  0  0  0  3  0  0  0  0  0  0
  185.1060  178.6930  142.6500 C   0  0  0  0  0  0  0  0  0  0  0  0
  182.7730  178.6070  141.9920 C   0  0  0  0  0  3  0  0  0  0  0  0
  184.3150  178.8840  145.3330 C   0  0  0  0  0  3  0  0  0  0  0  0
  185.4670  178.6060  141.2930 C   0  0  0  0  0  0  0  0  0  0  0  0
  184.0490  178.2390  138.0770 O   0  0  0  0  0  0  0  0  0  0  0  0
  180.1790  179.5260  137.2080 C   0  0  1  0  0  3  0  0  0  0  0  0
  182.0200  177.7470  137.0790 N   0  0  0  0  0  2  0  0  0  0  0  0
  179.2310  180.3910  140.6720 N   0  0  0  0  0  2  0  0  0  0  0  0
  182.1510  178.4640  139.5480 C   0  0  1  0  0  3  0  0  0  0  0  0
  181.2510  179.7110  139.5390 C   0  0  1  0  0  3  0  0  0  0  0  0
  180.0380  177.5500  135.8820 O   0  0  0  0  0  0  0  0  0  0  0  0
  180.7190  178.2180  136.7100 C   0  0  0  0  0  0  0  0  0  0  0  0
  180.0160  179.4650  138.7330 C   0  0  1  0  0  3  0  0  0  0  0  0
  178.9340  180.2670  139.3030 N   0  0  0  0  0  0  0  0  0  0  0  0
  182.7930  178.1870  138.2010 C   0  0  0  0  0  0  0  0  0  0  0  0
  178.9320  181.6140  138.7580 C   0  0  0  0  0  1  0  0  0  0  0  0
  180.6310  179.9980  140.8840 C   0  0  0  0  0  2  0  0  0  0  0  0
  181.0670  180.6910  136.7470 C   0  0  0  0  0  2  0  0  0  0  0  0
  180.4640  181.4100  135.5510 C   0  0  0  0  0  2  0  0  0  0  0  0
  181.0410  182.8010  135.4220 C   0  0  0  0  0  2  0  0  0  0  0  0
  179.9770  183.8190  135.7740 C   0  0  0  0  0  2  0  0  0  0  0  0
  179.7320  185.8980  137.1890 N   0  0  0  0  0  1  0  0  0  0  0  0
  181.5790  184.5030  137.3990 O   0  0  0  0  0  0  0  0  0  0  0  0
  180.4850  184.7460  136.8250 C   0  0  0  0  0  0  0  0  0  0  0  0
  186.6810  178.9890  146.0270 N   0  0  0  0  0  2  0  0  0  0  0  0
  187.9880  175.8760  147.7230 C   0  0  0  0  0  2  0  0  0  0  0  0
  188.7850  177.1700  147.7150 C   0  0  2  0  0  0  0  0  0  0  0  0
  186.8430  178.0180  147.0990 C   0  0  2  0  0  3  0  0  0  0  0  0
  187.9870  178.6630  148.3600 S   0  0  0  0  0  0  0  0  0  0  0  0
  187.7480  176.8960  146.6330 C   0  0  2  0  0  3  0  0  0  0  0  0
  189.2280  177.4340  144.7650 C   0  0  0  0  0  2  0  0  0  0  0  0
  190.1590  177.2290  147.1170 C   0  0  0  0  0  0  0  0  0  0  0  0
  191.1740  177.1020  147.8630 O   0  0  0  0  0  0  0  0  0  0  0  0
  191.6260  177.5210  145.0720 C   0  0  0  0  0  2  0  0  0  0  0  0
  190.3270  177.4020  145.7070 N   0  0  0  0  0  0  0  0  0  0  0  0
  191.3520  177.5520  143.5870 C   0  0  0  0  0  2  0  0  0  0  0  0
  189.8530  177.7550  143.4240 C   0  0  0  0  0  2  0  0  0  0  0  0
  186.9040  178.6560  140.8640 C   0  0  0  0  0  2  0  0  0  0  0  0
  187.0290  178.3010  139.4570 N   0  0  0  0  0  2  0  0  0  0  0  0
  189.1600  177.1950  139.0860 C   0  0  0  0  0  2  0  0  0  0  0  0
  189.2510  177.2040  137.5730 C   0  0  2  0  0  3  0  0  0  0  0  0
  188.4130  178.5140  139.0590 C   0  0  1  0  0  3  0  0  0  0  0  0
  188.5110  178.5270  137.5470 C   0  0  0  0  0  2  0  0  0  0  0  0
  188.4030  176.1630  137.0170 N   0  0  0  0  0  2  0  0  0  0  0  0
  190.1680  174.9490  136.1070 O   0  0  0  0  0  0  0  0  0  0  0  0
  188.9340  175.0260  136.3360 C   0  0  0  0  0  0  0  0  0  0  0  0
  188.0080  173.9140  135.9380 C   0  0  1  0  0  3  0  0  0  0  0  0
  188.1520  172.6780  136.8130 C   0  0  0  0  0  1  0  0  0  0  0  0
  186.5540  174.3760  135.8600 C   0  0  0  0  0  2  0  0  0  0  0  0
  185.7300  173.9260  137.0640 C   0  0  2  0  0  3  0  0  0  0  0  0
  184.0400  172.5090  137.6060 O   0  0  0  0  0  1  0  0  0  0  0  0
  184.4890  173.2930  136.5940 N   0  0  0  0  0  0  0  0  0  0  0  0
  184.4820  174.6680  137.1020 C   0  0  0  0  0  2  0  0  0  0  0  0
  1  9  1  0  0  0  0
  1 31  1  0  0  0  0
  2  8  1  0  0  0  0
  3  2  2  0  0  0  0
  3 10  1  0  0  0  0
  4  5  1  0  0  0  0
  5  9  2  0  0  0  0
  6  1  2  0  0  0  0
  7  4  1  0  0  0  0
  7  6  1  0  0  0  0
  8  4  2  0  0  0  0
 10  7  2  0  0  0  0
 11 21  2  0  0  0  0
 12 24  1  1  0  0  0
 12 19  1  0  0  0  0
 13 21  1  0  0  0  0
 14 23  1  0  0  0  0
 15  2  1  1  0  0  0
 16 15  1  0  0  0  0
 16 23  1  1  0  0  0
 17 18  2  0  0  0  0
 18 13  1  0  0  0  0
 18 12  1  0  0  0  0
 19 20  1  1  0  0  0
 19 16  1  0  0  0  0
 20 14  1  0  0  0  0
 21 15  1  0  0  0  0
 22 20  1  0  0  0  0
 25 24  1  0  0  0  0
 26 25  1  0  0  0  0
 26 27  1  0  0  0  0
 27 30  1  0  0  0  0
 30 28  1  0  0  0  0
 30 29  2  0  0  0  0
 33 38  1  6  0  0  0
 33 32  1  0  0  0  0
 33 35  1  0  0  0  0
 34 31  1  6  0  0  0
 34 35  1  0  0  0  0
 36 34  1  0  0  0  0
 36 33  1  0  0  0  0
 36 32  1  1  0  0  0
 37 41  1  0  0  0  0
 38 39  2  0  0  0  0
 40 41  1  0  0  0  0
 41 38  1  0  0  0  0
 42 40  1  0  0  0  0
 43 42  1  0  0  0  0
 43 37  1  0  0  0  0
 44 10  1  0  0  0  0
 45 44  1  0  0  0  0
 47 50  1  6  0  0  0
 47 46  1  0  0  0  0
 48 46  1  0  0  0  0
 48 45  1  6  0  0  0
 49 47  1  0  0  0  0
 49 48  1  0  0  0  0
 51 52  2  0  0  0  0
 52 50  1  0  0  0  0
 53 52  1  0  0  0  0
 53 54  1  1  0  0  0
 55 53  1  0  0  0  0
 56 55  1  6  0  0  0
 56 59  1  0  0  0  0
 58 56  1  0  0  0  0
 58 59  1  0  0  0  0
 58 57  1  0  0  0  0
M  END
>  <MODEL>
7

>  <REMARK>
 VINA RESULT:      -6.6      4.226      8.421
  Name = 
  16 active torsions:
  status: ('A' for Active; 'I' for Inactive)
    1  A    between atoms: C_3  and  C_25
    2  A    between atoms: C_4  and  N_43
    3  A    between atoms: C_5  and  C_7
    4  A    between atoms: C_5  and  C_14
    5  A    between atoms: C_6  and  C_11
    6  A    between atoms: C_7  and  C_9
    7  A    between atoms: C_8  and  C_29
    8  A    between atoms: C_9  and  C_21
    9  A    between atoms: C_13  and  C_25
   10  A    between atoms: C_13  and  C_57
   11  A    between atoms: N_15  and  C_26
   12  A    between atoms: C_19  and  N_43
   13  A    between atoms: C_21  and  C_56
   14  A    between atoms: N_30  and  C_39
   15  A    between atoms: N_30  and  C_51
   16  A    between atoms: C_51  and  C_54
                            x       y       z     vdW  Elec       q    Type
                         _______ _______ _______ _____ _____    ______ ____

>  <TORSDO>
F 16

$$$$
=
 OpenBabel10222418163D

 59 67  0  0  1  0  0  0  0  0999 V2000
  184.7040  179.3620  144.8790 C   0  0  0  0  0  0  0  0  0  0  0  0
  182.6930  177.9640  140.4760 C   0  0  0  0  0  0  0  0  0  0  0  0
  184.0330  178.0840  140.2730 N   0  0  0  0  0  0  0  0  0  0  0  0
  183.0020  178.6130  142.7770 C   0  0  0  0  0  0  0  0  0  0  0  0
  182.4750  178.8820  144.0400 C   0  0  0  0  0  3  0  0  0  0  0  0
  185.2330  179.0920  143.6140 C   0  0  0  0  0  3  0  0  0  0  0  0
  184.3910  178.7180  142.5520 C   0  0  0  0  0  0  0  0  0  0  0  0
  182.1550  178.2490  141.7340 C   0  0  0  0  0  3  0  0  0  0  0  0
  183.3230  179.2540  145.0880 C   0  0  0  0  0  3  0  0  0  0  0  0
  184.8910  178.4500  141.2640 C   0  0  0  0  0  0  0  0  0  0  0  0
  183.0270  175.5610  139.2100 O   0  0  0  0  0  0  0  0  0  0  0  0
  180.7410  177.4150  136.2570 C   0  0  1  0  0  3  0  0  0  0  0  0
  181.0630  175.5500  137.9860 N   0  0  0  0  0  2  0  0  0  0  0  0
  180.7970  180.7990  137.7380 N   0  0  0  0  0  2  0  0  0  0  0  0
  181.7960  177.6320  139.3120 C   0  0  1  0  0  3  0  0  0  0  0  0
  181.8660  178.6830  138.1910 C   0  0  1  0  0  3  0  0  0  0  0  0
  179.3050  175.5240  136.4680 O   0  0  0  0  0  0  0  0  0  0  0  0
  180.3130  176.1380  136.9180 C   0  0  0  0  0  0  0  0  0  0  0  0
  180.6890  178.5600  137.2780 C   0  0  1  0  0  3  0  0  0  0  0  0
  180.3850  179.8900  136.7480 N   0  0  0  0  0  0  0  0  0  0  0  0
  182.0240  176.2170  138.8130 C   0  0  0  0  0  0  0  0  0  0  0  0
  181.1790  180.1800  135.5650 C   0  0  0  0  0  1  0  0  0  0  0  0
  181.6610  180.0910  138.6920 C   0  0  0  0  0  2  0  0  0  0  0  0
  182.1220  177.2540  135.6060 C   0  0  0  0  0  2  0  0  0  0  0  0
  182.1310  176.1190  134.5950 C   0  0  0  0  0  2  0  0  0  0  0  0
  183.4710  175.4200  134.5940 C   0  0  0  0  0  2  0  0  0  0  0  0
  184.1150  175.5710  135.9560 C   0  0  0  0  0  2  0  0  0  0  0  0
  185.5010  173.6530  135.0700 N   0  0  0  0  0  1  0  0  0  0  0  0
  185.9520  174.6200  137.1360 O   0  0  0  0  0  0  0  0  0  0  0  0
  185.2350  174.5990  136.1010 C   0  0  0  0  0  0  0  0  0  0  0  0
  185.5850  179.7510  145.9390 N   0  0  0  0  0  2  0  0  0  0  0  0
  187.0360  176.5920  147.4210 C   0  0  0  0  0  2  0  0  0  0  0  0
  187.9260  177.7290  146.9470 C   0  0  2  0  0  0  0  0  0  0  0  0
  186.0240  178.8460  146.9930 C   0  0  2  0  0  3  0  0  0  0  0  0
  187.6400  179.3770  147.6410 S   0  0  0  0  0  0  0  0  0  0  0  0
  186.5240  177.5570  146.3750 C   0  0  2  0  0  3  0  0  0  0  0  0
  190.5520  176.4060  147.5120 C   0  0  0  0  0  2  0  0  0  0  0  0
  188.9560  177.5110  145.8790 C   0  0  0  0  0  0  0  0  0  0  0  0
  188.7500  177.9500  144.7090 O   0  0  0  0  0  0  0  0  0  0  0  0
  191.1920  176.5430  145.1830 C   0  0  0  0  0  2  0  0  0  0  0  0
  190.1790  176.8330  146.1810 N   0  0  0  0  0  0  0  0  0  0  0  0
  192.3540  175.9500  145.9440 C   0  0  0  0  0  2  0  0  0  0  0  0
  191.8450  175.6360  147.3430 C   0  0  0  0  0  2  0  0  0  0  0  0
  186.3500  178.5980  140.9490 C   0  0  0  0  0  2  0  0  0  0  0  0
  186.7260  177.7200  139.8490 N   0  0  0  0  0  2  0  0  0  0  0  0
  188.5690  178.6990  138.6040 C   0  0  0  0  0  2  0  0  0  0  0  0
  188.5800  177.8460  137.3520 C   0  0  2  0  0  3  0  0  0  0  0  0
  187.0630  178.5520  138.7040 C   0  0  1  0  0  3  0  0  0  0  0  0
  187.0730  177.7060  137.4460 C   0  0  0  0  0  2  0  0  0  0  0  0
  189.2040  176.5630  137.6290 N   0  0  0  0  0  2  0  0  0  0  0  0
  189.4090  175.9650  135.3880 O   0  0  0  0  0  0  0  0  0  0  0  0
  189.6460  175.6870  136.5910 C   0  0  0  0  0  0  0  0  0  0  0  0
  190.4290  174.4600  136.9550 C   0  0  1  0  0  3  0  0  0  0  0  0
  190.7920  173.6050  135.7490 C   0  0  0  0  0  1  0  0  0  0  0  0
  191.6610  174.7910  137.7950 C   0  0  0  0  0  2  0  0  0  0  0  0
  192.5550  175.8410  137.1380 C   0  0  2  0  0  3  0  0  0  0  0  0
  194.7360  176.2330  136.6440 O   0  0  0  0  0  1  0  0  0  0  0  0
  193.9450  175.6370  137.5700 N   0  0  0  0  0  0  0  0  0  0  0  0
  193.1260  176.7000  138.1610 C   0  0  0  0  0  2  0  0  0  0  0  0
  1  9  1  0  0  0  0
  1 31  1  0  0  0  0
  2  8  1  0  0  0  0
  3  2  2  0  0  0  0
  3 10  1  0  0  0  0
  4  5  1  0  0  0  0
  5  9  2  0  0  0  0
  6  1  2  0  0  0  0
  7  4  1  0  0  0  0
  7  6  1  0  0  0  0
  8  4  2  0  0  0  0
 10  7  2  0  0  0  0
 12 24  1  1  0  0  0
 12 18  1  0  0  0  0
 12 19  1  0  0  0  0
 13 21  1  0  0  0  0
 14 23  1  0  0  0  0
 15  2  1  1  0  0  0
 16 23  1  1  0  0  0
 16 15  1  0  0  0  0
 17 18  2  0  0  0  0
 18 13  1  0  0  0  0
 19 20  1  6  0  0  0
 19 16  1  0  0  0  0
 20 14  1  0  0  0  0
 21 11  2  0  0  0  0
 21 15  1  0  0  0  0
 22 20  1  0  0  0  0
 25 24  1  0  0  0  0
 26 25  1  0  0  0  0
 26 27  1  0  0  0  0
 27 30  1  0  0  0  0
 28 30  1  0  0  0  0
 30 29  2  0  0  0  0
 33 38  1  6  0  0  0
 33 32  1  0  0  0  0
 33 35  1  0  0  0  0
 34 31  1  6  0  0  0
 34 35  1  0  0  0  0
 36 33  1  0  0  0  0
 36 34  1  0  0  0  0
 36 32  1  1  0  0  0
 38 41  1  0  0  0  0
 39 38  2  0  0  0  0
 40 42  1  0  0  0  0
 40 41  1  0  0  0  0
 41 37  1  0  0  0  0
 42 43  1  0  0  0  0
 43 37  1  0  0  0  0
 44 10  1  0  0  0  0
 45 44  1  0  0  0  0
 46 48  1  0  0  0  0
 47 49  1  0  0  0  0
 47 50  1  1  0  0  0
 47 46  1  0  0  0  0
 48 45  1  1  0  0  0
 49 48  1  0  0  0  0
 51 52  2  0  0  0  0
 52 53  1  0  0  0  0
 52 50  1  0  0  0  0
 53 54  1  6  0  0  0
 53 55  1  0  0  0  0
 56 58  1  0  0  0  0
 56 55  1  1  0  0  0
 56 59  1  0  0  0  0
 57 58  1  0  0  0  0
 58 59  1  0  0  0  0
M  END
>  <MODEL>
8

>  <REMARK>
 VINA RESULT:      -6.5      3.382      8.826
  Name = 
  16 active torsions:
  status: ('A' for Active; 'I' for Inactive)
    1  A    between atoms: C_3  and  C_25
    2  A    between atoms: C_4  and  N_43
    3  A    between atoms: C_5  and  C_7
    4  A    between atoms: C_5  and  C_14
    5  A    between atoms: C_6  and  C_11
    6  A    between atoms: C_7  and  C_9
    7  A    between atoms: C_8  and  C_29
    8  A    between atoms: C_9  and  C_21
    9  A    between atoms: C_13  and  C_25
   10  A    between atoms: C_13  and  C_57
   11  A    between atoms: N_15  and  C_26
   12  A    between atoms: C_19  and  N_43
   13  A    between atoms: C_21  and  C_56
   14  A    between atoms: N_30  and  C_39
   15  A    between atoms: N_30  and  C_51
   16  A    between atoms: C_51  and  C_54
                            x       y       z     vdW  Elec       q    Type
                         _______ _______ _______ _____ _____    ______ ____

>  <TORSDO>
F 16

$$$$
=
 OpenBabel10222418163D

 59 67  0  0  1  0  0  0  0  0999 V2000
  189.1130  177.5690  137.5020 C   0  0  0  0  0  0  0  0  0  0  0  0
  184.7250  178.6910  139.7090 C   0  0  0  0  0  0  0  0  0  0  0  0
  185.5970  178.3870  140.7080 N   0  0  0  0  0  0  0  0  0  0  0  0
  186.4610  178.2750  138.0900 C   0  0  0  0  0  0  0  0  0  0  0  0
  186.8910  178.2180  136.7640 C   0  0  0  0  0  3  0  0  0  0  0  0
  188.6820  177.6270  138.8310 C   0  0  0  0  0  3  0  0  0  0  0  0
  187.3560  177.9780  139.1380 C   0  0  0  0  0  0  0  0  0  0  0  0
  185.1440  178.6190  138.3770 C   0  0  0  0  0  3  0  0  0  0  0  0
  188.2130  177.8670  136.4710 C   0  0  0  0  0  3  0  0  0  0  0  0
  186.8900  178.0340  140.4650 C   0  0  0  0  0  0  0  0  0  0  0  0
  183.0290  176.6030  140.2100 O   0  0  0  0  0  0  0  0  0  0  0  0
  180.1210  179.5380  139.6430 C   0  0  1  0  0  3  0  0  0  0  0  0
  181.2800  177.8040  141.1350 N   0  0  0  0  0  2  0  0  0  0  0  0
  182.4080  182.1710  138.4250 N   0  0  0  0  0  2  0  0  0  0  0  0
  183.2890  178.9950  140.0500 C   0  0  1  0  0  3  0  0  0  0  0  0
  182.5850  179.8250  138.9630 C   0  0  1  0  0  3  0  0  0  0  0  0
  179.3280  178.8780  141.7920 O   0  0  0  0  0  0  0  0  0  0  0  0
  180.2300  178.7540  140.9180 C   0  0  0  0  0  0  0  0  0  0  0  0
  181.3420  180.4570  139.5030 C   0  0  1  0  0  3  0  0  0  0  0  0
  181.1280  181.7170  138.7920 N   0  0  0  0  0  0  0  0  0  0  0  0
  182.5240  177.7400  140.4260 C   0  0  0  0  0  0  0  0  0  0  0  0
  180.3950  181.5070  137.5540 C   0  0  0  0  0  1  0  0  0  0  0  0
  183.3580  181.0610  138.5740 C   0  0  0  0  0  2  0  0  0  0  0  0
  179.9360  178.5990  138.4420 C   0  0  0  0  0  2  0  0  0  0  0  0
  181.1600  178.6020  137.5400 C   0  0  0  0  0  2  0  0  0  0  0  0
  181.4770  177.2000  137.0730 C   0  0  0  0  0  2  0  0  0  0  0  0
  180.2420  176.3340  137.2120 C   0  0  0  0  0  2  0  0  0  0  0  0
  180.2560  174.9200  139.3060 N   0  0  0  0  0  1  0  0  0  0  0  0
  181.1490  174.1340  137.3080 O   0  0  0  0  0  0  0  0  0  0  0  0
  180.5810  175.0720  137.9270 C   0  0  0  0  0  0  0  0  0  0  0  0
  190.4680  177.1990  137.2200 N   0  0  0  0  0  2  0  0  0  0  0  0
  192.3790  173.9410  137.0880 C   0  0  0  0  0  2  0  0  0  0  0  0
  193.0950  175.2820  137.1330 C   0  0  2  0  0  0  0  0  0  0  0  0
  191.0980  175.9950  137.7440 C   0  0  2  0  0  3  0  0  0  0  0  0
  192.7040  176.4070  138.4970 S   0  0  0  0  0  0  0  0  0  0  0  0
  191.6710  175.1850  136.5990 C   0  0  2  0  0  3  0  0  0  0  0  0
  196.0300  174.7020  137.2550 C   0  0  0  0  0  2  0  0  0  0  0  0
  194.0350  175.6940  136.0400 C   0  0  0  0  0  0  0  0  0  0  0  0
  193.6000  176.3630  135.0570 O   0  0  0  0  0  0  0  0  0  0  0  0
  196.3750  175.6780  135.0680 C   0  0  0  0  0  2  0  0  0  0  0  0
  195.4230  175.3570  136.1160 N   0  0  0  0  0  0  0  0  0  0  0  0
  197.7260  175.2710  135.6070 C   0  0  0  0  0  2  0  0  0  0  0  0
  197.4650  174.4360  136.8530 C   0  0  0  0  0  2  0  0  0  0  0  0
  187.7780  177.6750  141.6190 C   0  0  0  0  0  2  0  0  0  0  0  0
  188.7310  178.7450  141.8820 N   0  0  0  0  0  2  0  0  0  0  0  0
  190.3920  178.6730  143.6540 C   0  0  0  0  0  2  0  0  0  0  0  0
  190.1130  177.3230  144.2820 C   0  0  2  0  0  3  0  0  0  0  0  0
  189.9870  178.1370  142.2950 C   0  0  1  0  0  3  0  0  0  0  0  0
  189.7160  176.7840  142.9210 C   0  0  0  0  0  2  0  0  0  0  0  0
  188.9370  177.4030  145.1330 N   0  0  0  0  0  2  0  0  0  0  0  0
  190.1140  177.0570  147.1120 O   0  0  0  0  0  0  0  0  0  0  0  0
  189.0160  177.3140  146.5560 C   0  0  0  0  0  0  0  0  0  0  0  0
  187.7830  177.5720  147.3730 C   0  0  1  0  0  3  0  0  0  0  0  0
  188.0930  177.9400  148.8170 C   0  0  0  0  0  1  0  0  0  0  0  0
  186.8650  178.6030  146.7190 C   0  0  0  0  0  2  0  0  0  0  0  0
  185.7690  177.9600  145.8730 C   0  0  2  0  0  3  0  0  0  0  0  0
  184.6560  178.2570  143.9150 O   0  0  0  0  0  1  0  0  0  0  0  0
  185.2420  178.9510  144.9230 N   0  0  0  0  0  0  0  0  0  0  0  0
  184.5010  178.6150  146.1430 C   0  0  0  0  0  2  0  0  0  0  0  0
  1  6  1  0  0  0  0
  2  3  1  0  0  0  0
  4  8  1  0  0  0  0
  4  7  1  0  0  0  0
  5  4  2  0  0  0  0
  6  7  2  0  0  0  0
  7 10  1  0  0  0  0
  8  2  2  0  0  0  0
  9  5  1  0  0  0  0
  9  1  2  0  0  0  0
 10  3  2  0  0  0  0
 10 44  1  0  0  0  0
 11 21  2  0  0  0  0
 12 24  1  6  0  0  0
 12 18  1  0  0  0  0
 14 23  1  0  0  0  0
 14 20  1  0  0  0  0
 15  2  1  6  0  0  0
 15 21  1  0  0  0  0
 16 23  1  1  0  0  0
 16 19  1  0  0  0  0
 16 15  1  0  0  0  0
 18 13  1  0  0  0  0
 18 17  2  0  0  0  0
 19 20  1  6  0  0  0
 19 12  1  0  0  0  0
 21 13  1  0  0  0  0
 22 20  1  0  0  0  0
 25 24  1  0  0  0  0
 26 27  1  0  0  0  0
 26 25  1  0  0  0  0
 27 30  1  0  0  0  0
 29 30  2  0  0  0  0
 30 28  1  0  0  0  0
 31  1  1  0  0  0  0
 32 33  1  0  0  0  0
 33 38  1  6  0  0  0
 33 35  1  0  0  0  0
 34 31  1  6  0  0  0
 34 35  1  0  0  0  0
 36 32  1  1  0  0  0
 36 33  1  0  0  0  0
 36 34  1  0  0  0  0
 38 41  1  0  0  0  0
 39 38  2  0  0  0  0
 40 42  1  0  0  0  0
 40 41  1  0  0  0  0
 41 37  1  0  0  0  0
 42 43  1  0  0  0  0
 43 37  1  0  0  0  0
 44 45  1  0  0  0  0
 46 47  1  0  0  0  0
 47 50  1  1  0  0  0
 48 45  1  1  0  0  0
 48 49  1  0  0  0  0
 48 46  1  0  0  0  0
 49 47  1  0  0  0  0
 50 52  1  0  0  0  0
 52 51  2  0  0  0  0
 52 53  1  0  0  0  0
 53 54  1  1  0  0  0
 55 53  1  0  0  0  0
 56 59  1  0  0  0  0
 56 55  1  1  0  0  0
 57 58  1  0  0  0  0
 58 56  1  0  0  0  0
 58 59  1  0  0  0  0
M  END
>  <MODEL>
9

>  <REMARK>
 VINA RESULT:      -6.5      2.023      3.113
  Name = 
  16 active torsions:
  status: ('A' for Active; 'I' for Inactive)
    1  A    between atoms: C_3  and  C_25
    2  A    between atoms: C_4  and  N_43
    3  A    between atoms: C_5  and  C_7
    4  A    between atoms: C_5  and  C_14
    5  A    between atoms: C_6  and  C_11
    6  A    between atoms: C_7  and  C_9
    7  A    between atoms: C_8  and  C_29
    8  A    between atoms: C_9  and  C_21
    9  A    between atoms: C_13  and  C_25
   10  A    between atoms: C_13  and  C_57
   11  A    between atoms: N_15  and  C_26
   12  A    between atoms: C_19  and  N_43
   13  A    between atoms: C_21  and  C_56
   14  A    between atoms: N_30  and  C_39
   15  A    between atoms: N_30  and  C_51
   16  A    between atoms: C_51  and  C_54
                            x       y       z     vdW  Elec       q    Type
                         _______ _______ _______ _____ _____    ______ ____

>  <TORSDO>
F 16

$$$$
