=
 OpenBabel10222420343D

 41 44  0  0  1  0  0  0  0  0999 V2000
  183.7140  178.7060  142.4300 N   0  0  0  0  0  0  0  0  0  0  0  0
  181.7120  179.7740  142.9700 O   0  0  0  0  0  1  0  0  0  0  0  0
  182.2620  178.6490  142.3510 C   0  0  1  0  0  3  0  0  0  0  0  0
  180.7750  178.6720  140.4250 N   0  0  0  0  0  0  0  0  0  0  0  0
  181.9870  178.6980  140.8980 C   0  0  0  0  0  0  0  0  0  0  0  0
  184.3590  178.8080  141.1240 C   0  0  0  0  0  2  0  0  0  0  0  0
  183.2450  178.7450  140.0840 C   0  0  1  0  0  3  0  0  0  0  0  0
  184.2210  177.5400  138.0420 C   0  0  0  0  0  0  0  0  0  0  0  0
  183.7640  174.0930  136.8880 F   0  0  0  0  0  0  0  0  0  0  0  0
  184.8790  178.6620  137.6540 F   0  0  0  0  0  0  0  0  0  0  0  0
  185.1230  176.3800  136.1610 F   0  0  0  0  0  0  0  0  0  0  0  0
  183.6540  175.2160  137.6370 C   0  0  0  0  0  0  0  0  0  0  0  0
  184.3400  176.3790  137.2680 C   0  0  0  0  0  0  0  0  0  0  0  0
  183.4250  177.5320  139.2080 C   0  0  0  0  0  0  0  0  0  0  0  0
  182.8490  175.2130  138.7780 C   0  0  0  0  0  3  0  0  0  0  0  0
  182.7330  176.3670  139.5560 C   0  0  0  0  0  3  0  0  0  0  0  0
  184.4540  178.5540  143.6540 C   0  0  0  0  0  0  0  0  0  0  0  0
  184.5370  178.5790  146.0830 C   0  0  0  0  0  3  0  0  0  0  0  0
  185.8230  178.2450  143.6270 C   0  0  0  0  0  3  0  0  0  0  0  0
  185.8980  178.2690  146.0420 C   0  0  0  0  0  3  0  0  0  0  0  0
  186.5500  178.0970  144.8120 C   0  0  0  0  0  0  0  0  0  0  0  0
  183.8180  178.7200  144.8940 C   0  0  0  0  0  3  0  0  0  0  0  0
  187.8410  175.9410  143.2780 O   0  0  0  0  0  0  0  0  0  0  0  0
  187.9470  177.7830  144.7310 N   0  0  0  0  0  2  0  0  0  0  0  0
  188.5450  176.7130  143.9840 C   0  0  0  0  0  0  0  0  0  0  0  0
  189.9520  176.5010  144.0450 N   0  0  0  0  0  2  0  0  0  0  0  0
  190.7720  177.3110  144.8420 N   0  0  0  0  0  2  0  0  0  0  0  0
  191.5450  176.5950  146.7420 C   0  0  0  0  0  1  0  0  0  0  0  0
  191.7260  176.5050  145.3630 O   0  0  0  0  0  0  0  0  0  0  0  0
  180.3940  178.7980  139.0470 C   0  0  0  0  0  0  0  0  0  0  0  0
  180.0610  177.7810  138.3780 O   0  0  0  0  0  0  0  0  0  0  0  0
  180.2830  181.2860  139.1500 C   0  0  0  0  0  3  0  0  0  0  0  0
  180.6230  181.4670  136.3750 C   0  0  0  0  0  0  0  0  0  0  0  0
  180.4790  182.6510  137.1410 C   0  0  0  0  0  0  0  0  0  0  0  0
  180.3060  182.5360  138.5290 C   0  0  0  0  0  3  0  0  0  0  0  0
  180.6010  180.2210  137.0080 C   0  0  0  0  0  3  0  0  0  0  0  0
  180.7890  181.4750  134.8930 C   0  0  0  0  0  1  0  0  0  0  0  0
  180.4340  180.1190  138.3950 C   0  0  0  0  0  0  0  0  0  0  0  0
  181.6450  184.7260  136.6090 O   0  0  0  0  0  0  0  0  0  0  0  0
  180.4960  183.9700  136.5590 N   0  0  0  0  0  0  0  0  0  0  0  0
  179.5100  184.4270  135.9450 O   0  0  0  0  0  0  0  0  0  0  0  0
  1 17  1  0  0  0  0
  3  1  1  0  0  0  0
  3  2  1  1  0  0  0
  4  5  2  0  0  0  0
  5  3  1  0  0  0  0
  6  1  1  0  0  0  0
  7 14  1  1  0  0  0
  7  5  1  0  0  0  0
  7  6  1  0  0  0  0
  8 14  1  0  0  0  0
  9 12  1  0  0  0  0
 10  8  1  0  0  0  0
 11 13  1  0  0  0  0
 12 15  2  0  0  0  0
 13 12  1  0  0  0  0
 13  8  2  0  0  0  0
 14 16  2  0  0  0  0
 15 16  1  0  0  0  0
 17 22  1  0  0  0  0
 19 17  2  0  0  0  0
 19 21  1  0  0  0  0
 20 18  1  0  0  0  0
 21 20  2  0  0  0  0
 22 18  2  0  0  0  0
 23 25  2  0  0  0  0
 24 21  1  0  0  0  0
 25 26  1  0  0  0  0
 25 24  1  0  0  0  0
 26 27  1  0  0  0  0
 27 29  1  0  0  0  0
 29 28  1  0  0  0  0
 30  4  1  0  0  0  0
 31 30  2  0  0  0  0
 33 36  2  0  0  0  0
 33 34  1  0  0  0  0
 34 35  2  0  0  0  0
 35 32  1  0  0  0  0
 36 38  1  0  0  0  0
 37 33  1  0  0  0  0
 38 30  1  0  0  0  0
 38 32  2  0  0  0  0
 40 39  2  0  0  0  0
 40 34  1  0  0  0  0
 41 40  2  0  0  0  0
M  END
>  <MODEL>
1

>  <REMARK>
 VINA RESULT:      -8.8      0.000      0.000
  Name = 
  8 active torsions:
  status: ('A' for Active; 'I' for Inactive)
    1  A    between atoms: N_4  and  C_19
    2  A    between atoms: N_5  and  C_15
    3  A    between atoms: N_12  and  C_35
    4  A    between atoms: C_17  and  C_40
    5  A    between atoms: O_18  and  N_21
    6  A    between atoms: N_21  and  N_41
    7  A    between atoms: N_25  and  C_32
    8  A    between atoms: C_35  and  C_38
                            x       y       z     vdW  Elec       q    Type
                         _______ _______ _______ _____ _____    ______ ____

>  <TORSDO>
F 8

$$$$
=
 OpenBabel10222420343D

 41 44  0  0  1  0  0  0  0  0999 V2000
  190.4330  176.7380  138.3540 N   0  0  0  0  0  0  0  0  0  0  0  0
  188.8120  178.0730  137.3390 O   0  0  0  0  0  1  0  0  0  0  0  0
  189.7160  178.0030  138.4020 C   0  0  1  0  0  3  0  0  0  0  0  0
  188.2000  178.9050  140.0780 N   0  0  0  0  0  0  0  0  0  0  0  0
  188.9750  177.9370  139.6800 C   0  0  0  0  0  0  0  0  0  0  0  0
  190.1710  175.8810  139.5070 C   0  0  0  0  0  2  0  0  0  0  0  0
  189.2540  176.6720  140.4340 C   0  0  1  0  0  3  0  0  0  0  0  0
  189.3730  176.5350  142.9920 C   0  0  0  0  0  0  0  0  0  0  0  0
  191.9620  177.7030  145.3060 F   0  0  0  0  0  0  0  0  0  0  0  0
  188.1640  175.9200  143.0470 F   0  0  0  0  0  0  0  0  0  0  0  0
  189.5260  176.4110  145.3710 F   0  0  0  0  0  0  0  0  0  0  0  0
  191.2970  177.4470  144.1530 C   0  0  0  0  0  0  0  0  0  0  0  0
  190.0600  176.7950  144.1840 C   0  0  0  0  0  0  0  0  0  0  0  0
  189.9380  176.9130  141.7550 C   0  0  0  0  0  0  0  0  0  0  0  0
  191.8490  177.8400  142.9320 C   0  0  0  0  0  3  0  0  0  0  0  0
  191.1700  177.5770  141.7400 C   0  0  0  0  0  3  0  0  0  0  0  0
  191.4000  176.4060  137.3420 C   0  0  0  0  0  0  0  0  0  0  0  0
  191.9500  175.9820  135.0130 C   0  0  0  0  0  3  0  0  0  0  0  0
  192.7400  176.1640  137.6850 C   0  0  0  0  0  3  0  0  0  0  0  0
  193.2800  175.7470  135.3670 C   0  0  0  0  0  3  0  0  0  0  0  0
  193.6850  175.8390  136.7070 C   0  0  0  0  0  0  0  0  0  0  0  0
  191.0150  176.3110  135.9950 C   0  0  0  0  0  3  0  0  0  0  0  0
  194.7560  173.5380  138.1990 O   0  0  0  0  0  0  0  0  0  0  0  0
  195.0410  175.5990  137.1090 N   0  0  0  0  0  2  0  0  0  0  0  0
  195.5290  174.4710  137.8510 C   0  0  0  0  0  0  0  0  0  0  0  0
  196.9040  174.4020  138.2160 N   0  0  0  0  0  2  0  0  0  0  0  0
  197.7950  175.4300  137.8820 N   0  0  0  0  0  2  0  0  0  0  0  0
  197.9390  175.2690  140.0440 C   0  0  0  0  0  1  0  0  0  0  0  0
  198.6870  175.5160  138.8950 O   0  0  0  0  0  0  0  0  0  0  0  0
  187.3740  178.9090  141.2520 C   0  0  0  0  0  0  0  0  0  0  0  0
  187.8920  178.9960  142.4000 O   0  0  0  0  0  0  0  0  0  0  0  0
  185.3300  178.6050  139.8600 C   0  0  0  0  0  3  0  0  0  0  0  0
  183.7020  178.7030  142.1380 C   0  0  0  0  0  0  0  0  0  0  0  0
  183.1100  178.5290  140.8610 C   0  0  0  0  0  0  0  0  0  0  0  0
  183.9450  178.4870  139.7350 C   0  0  0  0  0  3  0  0  0  0  0  0
  185.0900  178.8180  142.2510 C   0  0  0  0  0  3  0  0  0  0  0  0
  182.9070  178.7860  143.3970 C   0  0  0  0  0  1  0  0  0  0  0  0
  185.9130  178.7680  141.1200 C   0  0  0  0  0  0  0  0  0  0  0  0
  180.8870  179.5190  140.6980 O   0  0  0  0  0  0  0  0  0  0  0  0
  181.6870  178.3990  140.6670 N   0  0  0  0  0  0  0  0  0  0  0  0
  181.1590  177.2990  140.4030 O   0  0  0  0  0  0  0  0  0  0  0  0
  1  3  1  0  0  0  0
  1  6  1  0  0  0  0
  3  2  1  6  0  0  0
  3  5  1  0  0  0  0
  4 30  1  0  0  0  0
  5  4  2  0  0  0  0
  5  7  1  0  0  0  0
  6  7  1  0  0  0  0
  7 14  1  1  0  0  0
  8 10  1  0  0  0  0
  8 13  1  0  0  0  0
 12 13  2  0  0  0  0
 12  9  1  0  0  0  0
 13 11  1  0  0  0  0
 14  8  2  0  0  0  0
 15 12  1  0  0  0  0
 16 14  1  0  0  0  0
 16 15  2  0  0  0  0
 17 19  1  0  0  0  0
 17  1  1  0  0  0  0
 18 20  2  0  0  0  0
 18 22  1  0  0  0  0
 20 21  1  0  0  0  0
 21 24  1  0  0  0  0
 21 19  2  0  0  0  0
 22 17  2  0  0  0  0
 24 25  1  0  0  0  0
 25 23  2  0  0  0  0
 25 26  1  0  0  0  0
 27 26  1  0  0  0  0
 27 29  1  0  0  0  0
 29 28  1  0  0  0  0
 30 31  2  0  0  0  0
 32 38  1  0  0  0  0
 33 36  1  0  0  0  0
 33 37  1  0  0  0  0
 34 33  2  0  0  0  0
 35 32  2  0  0  0  0
 35 34  1  0  0  0  0
 38 30  1  0  0  0  0
 38 36  2  0  0  0  0
 40 39  2  0  0  0  0
 40 34  1  0  0  0  0
 41 40  2  0  0  0  0
M  END
>  <MODEL>
2

>  <REMARK>
 VINA RESULT:      -8.2      6.041      8.918
  Name = 
  8 active torsions:
  status: ('A' for Active; 'I' for Inactive)
    1  A    between atoms: N_4  and  C_19
    2  A    between atoms: N_5  and  C_15
    3  A    between atoms: N_12  and  C_35
    4  A    between atoms: C_17  and  C_40
    5  A    between atoms: O_18  and  N_21
    6  A    between atoms: N_21  and  N_41
    7  A    between atoms: N_25  and  C_32
    8  A    between atoms: C_35  and  C_38
                            x       y       z     vdW  Elec       q    Type
                         _______ _______ _______ _____ _____    ______ ____

>  <TORSDO>
F 8

$$$$
=
 OpenBabel10222420343D

 41 44  0  0  1  0  0  0  0  0999 V2000
  186.2510  178.2400  139.1060 N   0  0  0  0  0  0  0  0  0  0  0  0
  185.2990  179.7610  140.5960 O   0  0  0  0  0  1  0  0  0  0  0  0
  185.1530  178.4930  140.0270 C   0  0  1  0  0  3  0  0  0  0  0  0
  182.7590  178.6690  139.6340 N   0  0  0  0  0  0  0  0  0  0  0  0
  183.9550  178.4720  139.1600 C   0  0  0  0  0  0  0  0  0  0  0  0
  185.8160  178.0840  137.7200 C   0  0  0  0  0  2  0  0  0  0  0  0
  184.2940  178.1730  137.7310 C   0  0  1  0  0  3  0  0  0  0  0  0
  182.8720  176.7970  136.1000 C   0  0  0  0  0  0  0  0  0  0  0  0
  182.1020  173.2150  136.0750 F   0  0  0  0  0  0  0  0  0  0  0  0
  182.5780  177.9040  135.3720 F   0  0  0  0  0  0  0  0  0  0  0  0
  181.5690  175.4800  134.5940 F   0  0  0  0  0  0  0  0  0  0  0  0
  182.6150  174.4110  136.4530 C   0  0  0  0  0  0  0  0  0  0  0  0
  182.3440  175.5620  135.7060 C   0  0  0  0  0  0  0  0  0  0  0  0
  183.6970  176.8790  137.2430 C   0  0  0  0  0  0  0  0  0  0  0  0
  183.4140  174.4930  137.5950 C   0  0  0  0  0  3  0  0  0  0  0  0
  183.9480  175.7220  137.9890 C   0  0  0  0  0  3  0  0  0  0  0  0
  187.6120  178.0380  139.5210 C   0  0  0  0  0  0  0  0  0  0  0  0
  189.9550  177.6940  138.9700 C   0  0  0  0  0  3  0  0  0  0  0  0
  187.9420  177.9730  140.8850 C   0  0  0  0  0  3  0  0  0  0  0  0
  190.2690  177.6340  140.3290 C   0  0  0  0  0  3  0  0  0  0  0  0
  189.2630  177.7760  141.2970 C   0  0  0  0  0  0  0  0  0  0  0  0
  188.6330  177.8970  138.5680 C   0  0  0  0  0  3  0  0  0  0  0  0
  190.2440  175.4770  142.8520 O   0  0  0  0  0  0  0  0  0  0  0  0
  189.5470  177.7140  142.7020 N   0  0  0  0  0  2  0  0  0  0  0  0
  190.0110  176.5700  143.4340 C   0  0  0  0  0  0  0  0  0  0  0  0
  190.2010  176.6570  144.8430 N   0  0  0  0  0  2  0  0  0  0  0  0
  189.9240  177.8400  145.5400 N   0  0  0  0  0  2  0  0  0  0  0  0
  188.7920  177.7930  147.3940 C   0  0  0  0  0  1  0  0  0  0  0  0
  188.6600  177.7290  146.0080 O   0  0  0  0  0  0  0  0  0  0  0  0
  181.5430  178.7540  138.8740 C   0  0  0  0  0  0  0  0  0  0  0  0
  180.7600  177.7670  138.8060 O   0  0  0  0  0  0  0  0  0  0  0  0
  181.5490  181.2380  138.6690 C   0  0  0  0  0  3  0  0  0  0  0  0
  180.2670  181.0860  136.1820 C   0  0  0  0  0  0  0  0  0  0  0  0
  180.5990  182.3550  136.7230 C   0  0  0  0  0  0  0  0  0  0  0  0
  181.2360  182.4060  137.9720 C   0  0  0  0  0  3  0  0  0  0  0  0
  180.5860  179.9230  136.8890 C   0  0  0  0  0  3  0  0  0  0  0  0
  179.5670  180.9190  134.8770 C   0  0  0  0  0  1  0  0  0  0  0  0
  181.2290  179.9880  138.1310 C   0  0  0  0  0  0  0  0  0  0  0  0
  179.0970  184.2220  136.2670 O   0  0  0  0  0  0  0  0  0  0  0  0
  180.3040  183.5960  136.0510 N   0  0  0  0  0  0  0  0  0  0  0  0
  181.1450  184.1620  135.3220 O   0  0  0  0  0  0  0  0  0  0  0  0
  1 17  1  0  0  0  0
  1  3  1  0  0  0  0
  3  2  1  6  0  0  0
  5  4  2  0  0  0  0
  5  3  1  0  0  0  0
  6  7  1  0  0  0  0
  6  1  1  0  0  0  0
  7 14  1  1  0  0  0
  7  5  1  0  0  0  0
  8 14  1  0  0  0  0
  9 12  1  0  0  0  0
 10  8  1  0  0  0  0
 11 13  1  0  0  0  0
 12 15  2  0  0  0  0
 13  8  2  0  0  0  0
 13 12  1  0  0  0  0
 14 16  2  0  0  0  0
 15 16  1  0  0  0  0
 17 19  1  0  0  0  0
 18 20  2  0  0  0  0
 19 21  2  0  0  0  0
 20 21  1  0  0  0  0
 21 24  1  0  0  0  0
 22 18  1  0  0  0  0
 22 17  2  0  0  0  0
 23 25  2  0  0  0  0
 24 25  1  0  0  0  0
 25 26  1  0  0  0  0
 26 27  1  0  0  0  0
 27 29  1  0  0  0  0
 29 28  1  0  0  0  0
 30  4  1  0  0  0  0
 31 30  2  0  0  0  0
 33 34  2  0  0  0  0
 33 36  1  0  0  0  0
 34 35  1  0  0  0  0
 35 32  2  0  0  0  0
 36 38  2  0  0  0  0
 37 33  1  0  0  0  0
 38 32  1  0  0  0  0
 38 30  1  0  0  0  0
 40 39  2  0  0  0  0
 40 34  1  0  0  0  0
 41 40  2  0  0  0  0
M  END
>  <MODEL>
3

>  <REMARK>
 VINA RESULT:      -7.9      2.382      3.328
  Name = 
  8 active torsions:
  status: ('A' for Active; 'I' for Inactive)
    1  A    between atoms: N_4  and  C_19
    2  A    between atoms: N_5  and  C_15
    3  A    between atoms: N_12  and  C_35
    4  A    between atoms: C_17  and  C_40
    5  A    between atoms: O_18  and  N_21
    6  A    between atoms: N_21  and  N_41
    7  A    between atoms: N_25  and  C_32
    8  A    between atoms: C_35  and  C_38
                            x       y       z     vdW  Elec       q    Type
                         _______ _______ _______ _____ _____    ______ ____

>  <TORSDO>
F 8

$$$$
=
 OpenBabel10222420343D

 41 44  0  0  1  0  0  0  0  0999 V2000
  190.5390  176.9220  137.7920 N   0  0  0  0  0  0  0  0  0  0  0  0
  191.2150  177.4950  139.9500 O   0  0  0  0  0  1  0  0  0  0  0  0
  190.2510  176.8020  139.2130 C   0  0  1  0  0  3  0  0  0  0  0  0
  188.3440  177.5680  140.5160 N   0  0  0  0  0  0  0  0  0  0  0  0
  188.9380  177.4690  139.3630 C   0  0  0  0  0  0  0  0  0  0  0  0
  189.5030  177.6380  137.0510 C   0  0  0  0  0  2  0  0  0  0  0  0
  188.3990  177.9620  138.0530 C   0  0  1  0  0  3  0  0  0  0  0  0
  187.0260  175.8860  137.4380 C   0  0  0  0  0  0  0  0  0  0  0  0
  183.5000  175.5780  136.4920 F   0  0  0  0  0  0  0  0  0  0  0  0
  188.1080  175.0830  137.5980 F   0  0  0  0  0  0  0  0  0  0  0  0
  185.7120  173.9740  136.8750 F   0  0  0  0  0  0  0  0  0  0  0  0
  184.6810  176.1260  136.8650 C   0  0  0  0  0  0  0  0  0  0  0  0
  185.8060  175.3160  137.0570 C   0  0  0  0  0  0  0  0  0  0  0  0
  187.1190  177.2790  137.6500 C   0  0  0  0  0  0  0  0  0  0  0  0
  184.7760  177.5060  137.0530 C   0  0  0  0  0  3  0  0  0  0  0  0
  185.9900  178.0790  137.4400 C   0  0  0  0  0  3  0  0  0  0  0  0
  191.6640  176.2980  137.1490 C   0  0  0  0  0  0  0  0  0  0  0  0
  192.6710  175.2810  135.1850 C   0  0  0  0  0  3  0  0  0  0  0  0
  192.8580  176.0770  137.8550 C   0  0  0  0  0  3  0  0  0  0  0  0
  193.8530  175.0690  135.8970 C   0  0  0  0  0  3  0  0  0  0  0  0
  193.9550  175.4690  137.2380 C   0  0  0  0  0  0  0  0  0  0  0  0
  191.5810  175.8930  135.8080 C   0  0  0  0  0  3  0  0  0  0  0  0
  194.8790  172.9930  138.5340 O   0  0  0  0  0  0  0  0  0  0  0  0
  195.1510  175.2630  138.0020 N   0  0  0  0  0  2  0  0  0  0  0  0
  195.5670  174.0440  138.6360 C   0  0  0  0  0  0  0  0  0  0  0  0
  196.7650  174.0140  139.4050 N   0  0  0  0  0  2  0  0  0  0  0  0
  197.5450  175.1640  139.5740 N   0  0  0  0  0  2  0  0  0  0  0  0
  197.8890  175.6320  141.6680 C   0  0  0  0  0  1  0  0  0  0  0  0
  197.0080  175.8500  140.6090 O   0  0  0  0  0  0  0  0  0  0  0  0
  187.1170  178.2640  140.7870 C   0  0  0  0  0  0  0  0  0  0  0  0
  186.4640  178.8000  139.8500 O   0  0  0  0  0  0  0  0  0  0  0  0
  185.4580  179.0840  142.4570 C   0  0  0  0  0  3  0  0  0  0  0  0
  186.9410  177.9640  144.5540 C   0  0  0  0  0  0  0  0  0  0  0  0
  185.7380  178.6600  144.8400 C   0  0  0  0  0  0  0  0  0  0  0  0
  185.0150  179.2160  143.7740 C   0  0  0  0  0  3  0  0  0  0  0  0
  187.3730  177.8360  143.2310 C   0  0  0  0  0  3  0  0  0  0  0  0
  187.7970  177.3570  145.6130 C   0  0  0  0  0  1  0  0  0  0  0  0
  186.6390  178.3900  142.1750 C   0  0  0  0  0  0  0  0  0  0  0  0
  185.8330  179.7210  147.0340 O   0  0  0  0  0  0  0  0  0  0  0  0
  185.2280  178.8280  146.1780 N   0  0  0  0  0  0  0  0  0  0  0  0
  184.2030  178.2320  146.5680 O   0  0  0  0  0  0  0  0  0  0  0  0
  1  3  1  0  0  0  0
  3  5  1  0  0  0  0
  3  2  1  1  0  0  0
  4 30  1  0  0  0  0
  5  4  2  0  0  0  0
  6  1  1  0  0  0  0
  6  7  1  0  0  0  0
  7 14  1  6  0  0  0
  7  5  1  0  0  0  0
  8 10  1  0  0  0  0
  8 14  1  0  0  0  0
  9 12  1  0  0  0  0
 11 13  1  0  0  0  0
 12 15  2  0  0  0  0
 12 13  1  0  0  0  0
 13  8  2  0  0  0  0
 15 16  1  0  0  0  0
 16 14  2  0  0  0  0
 17  1  1  0  0  0  0
 17 19  1  0  0  0  0
 18 22  1  0  0  0  0
 18 20  2  0  0  0  0
 20 21  1  0  0  0  0
 21 19  2  0  0  0  0
 21 24  1  0  0  0  0
 22 17  2  0  0  0  0
 23 25  2  0  0  0  0
 24 25  1  0  0  0  0
 25 26  1  0  0  0  0
 26 27  1  0  0  0  0
 27 29  1  0  0  0  0
 29 28  1  0  0  0  0
 30 38  1  0  0  0  0
 31 30  2  0  0  0  0
 32 35  1  0  0  0  0
 33 34  1  0  0  0  0
 33 37  1  0  0  0  0
 34 40  1  0  0  0  0
 35 34  2  0  0  0  0
 36 33  2  0  0  0  0
 38 32  2  0  0  0  0
 38 36  1  0  0  0  0
 40 41  2  0  0  0  0
 40 39  2  0  0  0  0
M  END
>  <MODEL>
4

>  <REMARK>
 VINA RESULT:      -7.8      5.465      8.715
  Name = 
  8 active torsions:
  status: ('A' for Active; 'I' for Inactive)
    1  A    between atoms: N_4  and  C_19
    2  A    between atoms: N_5  and  C_15
    3  A    between atoms: N_12  and  C_35
    4  A    between atoms: C_17  and  C_40
    5  A    between atoms: O_18  and  N_21
    6  A    between atoms: N_21  and  N_41
    7  A    between atoms: N_25  and  C_32
    8  A    between atoms: C_35  and  C_38
                            x       y       z     vdW  Elec       q    Type
                         _______ _______ _______ _____ _____    ______ ____

>  <TORSDO>
F 8

$$$$
=
 OpenBabel10222420343D

 41 44  0  0  1  0  0  0  0  0999 V2000
  188.9880  177.4330  141.3480 N   0  0  0  0  0  0  0  0  0  0  0  0
  187.6700  178.6550  139.8600 O   0  0  0  0  0  1  0  0  0  0  0  0
  188.1830  178.6310  141.1600 C   0  0  1  0  0  3  0  0  0  0  0  0
  186.1310  179.3520  142.2510 N   0  0  0  0  0  0  0  0  0  0  0  0
  187.0760  178.4660  142.1280 C   0  0  0  0  0  0  0  0  0  0  0  0
  188.4440  176.5250  142.3530 C   0  0  0  0  0  2  0  0  0  0  0  0
  187.2090  177.2080  142.9320 C   0  0  1  0  0  3  0  0  0  0  0  0
  188.6220  177.9320  144.9450 C   0  0  0  0  0  0  0  0  0  0  0  0
  187.7660  178.0850  148.5040 F   0  0  0  0  0  0  0  0  0  0  0  0
  189.6920  178.1770  144.1460 F   0  0  0  0  0  0  0  0  0  0  0  0
  189.9020  178.6150  146.8410 F   0  0  0  0  0  0  0  0  0  0  0  0
  187.6550  177.8820  147.1690 C   0  0  0  0  0  0  0  0  0  0  0  0
  188.7380  178.1470  146.3230 C   0  0  0  0  0  0  0  0  0  0  0  0
  187.4040  177.4680  144.4030 C   0  0  0  0  0  0  0  0  0  0  0  0
  186.4560  177.4030  146.6380 C   0  0  0  0  0  3  0  0  0  0  0  0
  186.3340  177.1930  145.2620 C   0  0  0  0  0  3  0  0  0  0  0  0
  190.2550  177.2140  140.7050 C   0  0  0  0  0  0  0  0  0  0  0  0
  192.6810  177.3720  140.7210 C   0  0  0  0  0  3  0  0  0  0  0  0
  190.3180  176.6390  139.4250 C   0  0  0  0  0  3  0  0  0  0  0  0
  192.7290  176.7970  139.4500 C   0  0  0  0  0  3  0  0  0  0  0  0
  191.5460  176.4240  138.7940 C   0  0  0  0  0  0  0  0  0  0  0  0
  191.4500  177.5780  141.3460 C   0  0  0  0  0  3  0  0  0  0  0  0
  193.7940  176.2440  136.9020 O   0  0  0  0  0  0  0  0  0  0  0  0
  191.5570  175.8360  137.4850 N   0  0  0  0  0  2  0  0  0  0  0  0
  192.6690  175.7770  136.5790 C   0  0  0  0  0  0  0  0  0  0  0  0
  192.5050  175.1980  135.2890 N   0  0  0  0  0  2  0  0  0  0  0  0
  191.2650  174.6970  134.8720 N   0  0  0  0  0  2  0  0  0  0  0  0
  192.3680  172.8460  134.5950 C   0  0  0  0  0  1  0  0  0  0  0  0
  191.2420  173.3870  135.2110 O   0  0  0  0  0  0  0  0  0  0  0  0
  184.9730  179.2530  143.0930 C   0  0  0  0  0  0  0  0  0  0  0  0
  185.0580  179.4800  144.3310 O   0  0  0  0  0  0  0  0  0  0  0  0
  183.6230  178.3060  141.2230 C   0  0  0  0  0  3  0  0  0  0  0  0
  181.2620  178.6240  142.6990 C   0  0  0  0  0  0  0  0  0  0  0  0
  181.2030  178.0750  141.3930 C   0  0  0  0  0  0  0  0  0  0  0  0
  182.3980  177.9290  140.6720 C   0  0  0  0  0  3  0  0  0  0  0  0
  182.4960  178.9960  143.2420 C   0  0  0  0  0  3  0  0  0  0  0  0
  180.0530  178.8440  143.5420 C   0  0  0  0  0  1  0  0  0  0  0  0
  183.6810  178.8390  142.5150 C   0  0  0  0  0  0  0  0  0  0  0  0
  179.5630  176.3520  140.8530 O   0  0  0  0  0  0  0  0  0  0  0  0
  179.9690  177.6650  140.7690 N   0  0  0  0  0  0  0  0  0  0  0  0
  179.2170  178.4860  140.2060 O   0  0  0  0  0  0  0  0  0  0  0  0
  1  6  1  0  0  0  0
  3  2  1  6  0  0  0
  3  1  1  0  0  0  0
  3  5  1  0  0  0  0
  4 30  1  0  0  0  0
  5  4  2  0  0  0  0
  5  7  1  0  0  0  0
  6  7  1  0  0  0  0
  7 14  1  1  0  0  0
  8 13  1  0  0  0  0
 10  8  1  0  0  0  0
 12  9  1  0  0  0  0
 13 11  1  0  0  0  0
 13 12  2  0  0  0  0
 14  8  2  0  0  0  0
 14 16  1  0  0  0  0
 15 12  1  0  0  0  0
 16 15  2  0  0  0  0
 17 22  1  0  0  0  0
 17  1  1  0  0  0  0
 18 22  2  0  0  0  0
 19 17  2  0  0  0  0
 20 18  1  0  0  0  0
 21 19  1  0  0  0  0
 21 20  2  0  0  0  0
 24 21  1  0  0  0  0
 25 23  2  0  0  0  0
 25 24  1  0  0  0  0
 26 25  1  0  0  0  0
 27 29  1  0  0  0  0
 27 26  1  0  0  0  0
 28 29  1  0  0  0  0
 30 31  2  0  0  0  0
 32 38  1  0  0  0  0
 33 36  1  0  0  0  0
 33 37  1  0  0  0  0
 34 33  2  0  0  0  0
 35 32  2  0  0  0  0
 35 34  1  0  0  0  0
 38 30  1  0  0  0  0
 38 36  2  0  0  0  0
 40 39  2  0  0  0  0
 40 34  1  0  0  0  0
 41 40  2  0  0  0  0
M  END
>  <MODEL>
5

>  <REMARK>
 VINA RESULT:      -7.8      5.197      8.188
  Name = 
  8 active torsions:
  status: ('A' for Active; 'I' for Inactive)
    1  A    between atoms: N_4  and  C_19
    2  A    between atoms: N_5  and  C_15
    3  A    between atoms: N_12  and  C_35
    4  A    between atoms: C_17  and  C_40
    5  A    between atoms: O_18  and  N_21
    6  A    between atoms: N_21  and  N_41
    7  A    between atoms: N_25  and  C_32
    8  A    between atoms: C_35  and  C_38
                            x       y       z     vdW  Elec       q    Type
                         _______ _______ _______ _____ _____    ______ ____

>  <TORSDO>
F 8

$$$$
=
 OpenBabel10222420343D

 41 44  0  0  1  0  0  0  0  0999 V2000
  191.1990  175.6750  137.4180 N   0  0  0  0  0  0  0  0  0  0  0  0
  191.8520  176.6730  139.4220 O   0  0  0  0  0  1  0  0  0  0  0  0
  190.8270  175.9620  138.7950 C   0  0  1  0  0  3  0  0  0  0  0  0
  189.0060  177.2980  139.7020 N   0  0  0  0  0  0  0  0  0  0  0  0
  189.6320  176.8250  138.6640 C   0  0  0  0  0  0  0  0  0  0  0  0
  190.3280  176.3200  136.4390 C   0  0  0  0  0  2  0  0  0  0  0  0
  189.2430  177.0410  137.2320 C   0  0  1  0  0  3  0  0  0  0  0  0
  186.9060  177.1910  136.1890 C   0  0  0  0  0  0  0  0  0  0  0  0
  184.1920  174.7310  136.1020 F   0  0  0  0  0  0  0  0  0  0  0  0
  187.1410  178.4590  135.7650 F   0  0  0  0  0  0  0  0  0  0  0  0
  184.7280  177.2880  135.2160 F   0  0  0  0  0  0  0  0  0  0  0  0
  185.3930  175.3030  136.3620 C   0  0  0  0  0  0  0  0  0  0  0  0
  185.6660  176.6010  135.9160 C   0  0  0  0  0  0  0  0  0  0  0  0
  187.8910  176.4680  136.8970 C   0  0  0  0  0  0  0  0  0  0  0  0
  186.3580  174.5940  137.0800 C   0  0  0  0  0  3  0  0  0  0  0  0
  187.5980  175.1770  137.3490 C   0  0  0  0  0  3  0  0  0  0  0  0
  192.2390  174.7540  137.0470 C   0  0  0  0  0  0  0  0  0  0  0  0
  192.9380  172.6800  135.9910 C   0  0  0  0  0  3  0  0  0  0  0  0
  193.5770  175.0120  137.3870 C   0  0  0  0  0  3  0  0  0  0  0  0
  194.2650  172.9500  136.3320 C   0  0  0  0  0  3  0  0  0  0  0  0
  194.5940  174.1210  137.0310 C   0  0  0  0  0  0  0  0  0  0  0  0
  191.9300  173.5780  136.3460 C   0  0  0  0  0  3  0  0  0  0  0  0
  196.6780  175.4070  135.3990 O   0  0  0  0  0  0  0  0  0  0  0  0
  195.9440  174.4290  137.4030 N   0  0  0  0  0  2  0  0  0  0  0  0
  196.9430  175.0450  136.5760 C   0  0  0  0  0  0  0  0  0  0  0  0
  198.2610  175.2410  137.0800 N   0  0  0  0  0  2  0  0  0  0  0  0
  198.6130  174.8250  138.3700 N   0  0  0  0  0  2  0  0  0  0  0  0
  197.8570  175.2650  140.3590 C   0  0  0  0  0  1  0  0  0  0  0  0
  198.3470  175.8610  139.1990 O   0  0  0  0  0  0  0  0  0  0  0  0
  187.8950  178.2070  139.6880 C   0  0  0  0  0  0  0  0  0  0  0  0
  187.6800  178.9400  138.6840 O   0  0  0  0  0  0  0  0  0  0  0  0
  185.7490  178.8780  140.7630 C   0  0  0  0  0  3  0  0  0  0  0  0
  186.6650  177.9950  143.2600 C   0  0  0  0  0  0  0  0  0  0  0  0
  185.3670  178.5560  143.1480 C   0  0  0  0  0  0  0  0  0  0  0  0
  184.9320  178.9950  141.8890 C   0  0  0  0  0  3  0  0  0  0  0  0
  187.4730  177.8810  142.1250 C   0  0  0  0  0  3  0  0  0  0  0  0
  187.2350  177.5200  144.5530 C   0  0  0  0  0  1  0  0  0  0  0  0
  187.0240  178.3170  140.8720 C   0  0  0  0  0  0  0  0  0  0  0  0
  184.9600  179.1700  145.4730 O   0  0  0  0  0  0  0  0  0  0  0  0
  184.4760  178.7020  144.2720 N   0  0  0  0  0  0  0  0  0  0  0  0
  183.2520  178.4790  144.1710 O   0  0  0  0  0  0  0  0  0  0  0  0
  1  3  1  0  0  0  0
  3  2  1  6  0  0  0
  5  3  1  0  0  0  0
  5  4  2  0  0  0  0
  6  7  1  0  0  0  0
  6  1  1  0  0  0  0
  7 14  1  1  0  0  0
  7  5  1  0  0  0  0
  8 14  1  0  0  0  0
  9 12  1  0  0  0  0
 10  8  1  0  0  0  0
 11 13  1  0  0  0  0
 12 15  2  0  0  0  0
 13  8  2  0  0  0  0
 13 12  1  0  0  0  0
 14 16  2  0  0  0  0
 15 16  1  0  0  0  0
 17 19  1  0  0  0  0
 17  1  1  0  0  0  0
 18 20  2  0  0  0  0
 18 22  1  0  0  0  0
 20 21  1  0  0  0  0
 21 19  2  0  0  0  0
 21 24  1  0  0  0  0
 22 17  2  0  0  0  0
 23 25  2  0  0  0  0
 25 26  1  0  0  0  0
 25 24  1  0  0  0  0
 26 27  1  0  0  0  0
 27 29  1  0  0  0  0
 29 28  1  0  0  0  0
 30  4  1  0  0  0  0
 30 38  1  0  0  0  0
 31 30  2  0  0  0  0
 32 38  2  0  0  0  0
 32 35  1  0  0  0  0
 33 37  1  0  0  0  0
 34 33  1  0  0  0  0
 34 40  1  0  0  0  0
 35 34  2  0  0  0  0
 36 33  2  0  0  0  0
 38 36  1  0  0  0  0
 40 39  2  0  0  0  0
 41 40  2  0  0  0  0
M  END
>  <MODEL>
6

>  <REMARK>
 VINA RESULT:      -7.7      6.227      9.080
  Name = 
  8 active torsions:
  status: ('A' for Active; 'I' for Inactive)
    1  A    between atoms: N_4  and  C_19
    2  A    between atoms: N_5  and  C_15
    3  A    between atoms: N_12  and  C_35
    4  A    between atoms: C_17  and  C_40
    5  A    between atoms: O_18  and  N_21
    6  A    between atoms: N_21  and  N_41
    7  A    between atoms: N_25  and  C_32
    8  A    between atoms: C_35  and  C_38
                            x       y       z     vdW  Elec       q    Type
                         _______ _______ _______ _____ _____    ______ ____

>  <TORSDO>
F 8

$$$$
=
 OpenBabel10222420343D

 41 44  0  0  1  0  0  0  0  0999 V2000
  191.2030  177.0920  140.8220 N   0  0  0  0  0  0  0  0  0  0  0  0
  193.5100  176.8490  140.5800 O   0  0  0  0  0  1  0  0  0  0  0  0
  192.3630  177.3920  139.9950 C   0  0  1  0  0  3  0  0  0  0  0  0
  192.9040  176.7250  137.7190 N   0  0  0  0  0  0  0  0  0  0  0  0
  192.0770  176.6930  138.7230 C   0  0  0  0  0  0  0  0  0  0  0  0
  190.2240  176.2370  140.1550 C   0  0  0  0  0  2  0  0  0  0  0  0
  190.7460  176.0040  138.7400 C   0  0  1  0  0  3  0  0  0  0  0  0
  189.0970  175.7660  136.7920 C   0  0  0  0  0  0  0  0  0  0  0  0
  187.1720  178.3160  134.9980 F   0  0  0  0  0  0  0  0  0  0  0  0
  189.2840  174.4220  136.7550 F   0  0  0  0  0  0  0  0  0  0  0  0
  187.5430  175.5820  134.9890 F   0  0  0  0  0  0  0  0  0  0  0  0
  188.0220  177.7420  135.8830 C   0  0  0  0  0  0  0  0  0  0  0  0
  188.2150  176.3560  135.8780 C   0  0  0  0  0  0  0  0  0  0  0  0
  189.7770  176.5680  137.7330 C   0  0  0  0  0  0  0  0  0  0  0  0
  188.7100  178.5390  136.8000 C   0  0  0  0  0  3  0  0  0  0  0  0
  189.5860  177.9540  137.7170 C   0  0  0  0  0  3  0  0  0  0  0  0
  190.9730  177.6730  142.1170 C   0  0  0  0  0  0  0  0  0  0  0  0
  191.8190  178.7750  144.1110 C   0  0  0  0  0  3  0  0  0  0  0  0
  189.6830  177.6990  142.6710 C   0  0  0  0  0  3  0  0  0  0  0  0
  190.5310  178.7970  144.6490 C   0  0  0  0  0  3  0  0  0  0  0  0
  189.4520  178.2600  143.9300 C   0  0  0  0  0  0  0  0  0  0  0  0
  192.0390  178.2170  142.8510 C   0  0  0  0  0  3  0  0  0  0  0  0
  188.4930  177.1000  146.4600 O   0  0  0  0  0  0  0  0  0  0  0  0
  188.1170  178.2590  144.4530 N   0  0  0  0  0  2  0  0  0  0  0  0
  187.6780  177.6700  145.6870 C   0  0  0  0  0  0  0  0  0  0  0  0
  186.3000  177.7130  146.0440 N   0  0  0  0  0  2  0  0  0  0  0  0
  185.3510  178.3050  145.2010 N   0  0  0  0  0  2  0  0  0  0  0  0
  183.2960  178.9990  145.0780 C   0  0  0  0  0  1  0  0  0  0  0  0
  184.2980  178.6450  145.9790 O   0  0  0  0  0  0  0  0  0  0  0  0
  192.7660  176.0190  136.4760 C   0  0  0  0  0  0  0  0  0  0  0  0
  192.2720  176.5900  135.4660 O   0  0  0  0  0  0  0  0  0  0  0  0
  192.3670  173.6830  135.7030 C   0  0  0  0  0  3  0  0  0  0  0  0
  194.7120  172.8110  136.9640 C   0  0  0  0  0  0  0  0  0  0  0  0
  193.9090  171.8800  136.2570 C   0  0  0  0  0  0  0  0  0  0  0  0
  192.7370  172.3390  135.6380 C   0  0  0  0  0  3  0  0  0  0  0  0
  194.3320  174.1560  137.0210 C   0  0  0  0  0  3  0  0  0  0  0  0
  195.9630  172.4260  137.6780 C   0  0  0  0  0  1  0  0  0  0  0  0
  193.1640  174.6020  136.3920 C   0  0  0  0  0  0  0  0  0  0  0  0
  194.9760  170.0290  135.0810 O   0  0  0  0  0  0  0  0  0  0  0  0
  194.2390  170.4800  136.1520 N   0  0  0  0  0  0  0  0  0  0  0  0
  193.9300  169.6660  137.0470 O   0  0  0  0  0  0  0  0  0  0  0  0
  1 17  1  0  0  0  0
  3  2  1  1  0  0  0
  3  1  1  0  0  0  0
  4  5  2  0  0  0  0
  5  7  1  0  0  0  0
  5  3  1  0  0  0  0
  6  1  1  0  0  0  0
  7 14  1  6  0  0  0
  7  6  1  0  0  0  0
  8 14  1  0  0  0  0
  9 12  1  0  0  0  0
 10  8  1  0  0  0  0
 11 13  1  0  0  0  0
 12 15  2  0  0  0  0
 13 12  1  0  0  0  0
 13  8  2  0  0  0  0
 15 16  1  0  0  0  0
 16 14  2  0  0  0  0
 17 19  2  0  0  0  0
 17 22  1  0  0  0  0
 18 20  1  0  0  0  0
 19 21  1  0  0  0  0
 21 24  1  0  0  0  0
 21 20  2  0  0  0  0
 22 18  2  0  0  0  0
 24 25  1  0  0  0  0
 25 26  1  0  0  0  0
 25 23  2  0  0  0  0
 27 29  1  0  0  0  0
 27 26  1  0  0  0  0
 28 29  1  0  0  0  0
 30  4  1  0  0  0  0
 31 30  2  0  0  0  0
 32 38  1  0  0  0  0
 33 36  1  0  0  0  0
 33 37  1  0  0  0  0
 34 33  2  0  0  0  0
 35 32  2  0  0  0  0
 35 34  1  0  0  0  0
 38 30  1  0  0  0  0
 38 36  2  0  0  0  0
 39 40  2  0  0  0  0
 40 34  1  0  0  0  0
 40 41  2  0  0  0  0
M  END
>  <MODEL>
7

>  <REMARK>
 VINA RESULT:      -7.4      6.408     10.753
  Name = 
  8 active torsions:
  status: ('A' for Active; 'I' for Inactive)
    1  A    between atoms: N_4  and  C_19
    2  A    between atoms: N_5  and  C_15
    3  A    between atoms: N_12  and  C_35
    4  A    between atoms: C_17  and  C_40
    5  A    between atoms: O_18  and  N_21
    6  A    between atoms: N_21  and  N_41
    7  A    between atoms: N_25  and  C_32
    8  A    between atoms: C_35  and  C_38
                            x       y       z     vdW  Elec       q    Type
                         _______ _______ _______ _____ _____    ______ ____

>  <TORSDO>
F 8

$$$$
=
 OpenBabel10222420343D

 41 44  0  0  1  0  0  0  0  0999 V2000
  185.8460  178.2790  143.4590 N   0  0  0  0  0  0  0  0  0  0  0  0
  187.5030  179.0300  141.9990 O   0  0  0  0  0  1  0  0  0  0  0  0
  186.1970  179.2580  142.4410 C   0  0  1  0  0  3  0  0  0  0  0  0
  185.2550  179.6610  140.2340 N   0  0  0  0  0  0  0  0  0  0  0  0
  185.2460  178.9790  141.3420 C   0  0  0  0  0  0  0  0  0  0  0  0
  184.7530  177.3970  143.0580 C   0  0  0  0  0  2  0  0  0  0  0  0
  184.2930  177.8730  141.6840 C   0  0  1  0  0  3  0  0  0  0  0  0
  181.8740  177.8990  140.8340 C   0  0  0  0  0  0  0  0  0  0  0  0
  178.9560  179.7430  142.0620 F   0  0  0  0  0  0  0  0  0  0  0  0
  182.1810  177.0300  139.8390 F   0  0  0  0  0  0  0  0  0  0  0  0
  179.6090  177.9370  140.0820 F   0  0  0  0  0  0  0  0  0  0  0  0
  180.2260  179.2830  141.9530 C   0  0  0  0  0  0  0  0  0  0  0  0
  180.5610  178.3700  140.9470 C   0  0  0  0  0  0  0  0  0  0  0  0
  182.8590  178.3310  141.7490 C   0  0  0  0  0  0  0  0  0  0  0  0
  181.2030  179.7270  142.8460 C   0  0  0  0  0  3  0  0  0  0  0  0
  182.5140  179.2560  142.7400 C   0  0  0  0  0  3  0  0  0  0  0  0
  186.4230  178.2540  144.7750 C   0  0  0  0  0  0  0  0  0  0  0  0
  186.2700  178.7320  147.1540 C   0  0  0  0  0  3  0  0  0  0  0  0
  187.7150  177.7400  144.9800 C   0  0  0  0  0  3  0  0  0  0  0  0
  187.5530  178.2160  147.3430 C   0  0  0  0  0  3  0  0  0  0  0  0
  188.2840  177.7140  146.2560 C   0  0  0  0  0  0  0  0  0  0  0  0
  185.7070  178.7500  145.8760 C   0  0  0  0  0  3  0  0  0  0  0  0
  190.6480  178.2030  144.5720 O   0  0  0  0  0  0  0  0  0  0  0  0
  189.6070  177.1810  146.4120 N   0  0  0  0  0  2  0  0  0  0  0  0
  190.7370  177.4280  145.5620 C   0  0  0  0  0  0  0  0  0  0  0  0
  191.9790  176.7820  145.8250 N   0  0  0  0  0  2  0  0  0  0  0  0
  192.1180  175.8870  146.8930 N   0  0  0  0  0  2  0  0  0  0  0  0
  193.0850  175.9920  148.8350 C   0  0  0  0  0  1  0  0  0  0  0  0
  192.1510  176.6310  148.0220 O   0  0  0  0  0  0  0  0  0  0  0  0
  184.4380  179.4200  139.0780 C   0  0  0  0  0  0  0  0  0  0  0  0
  183.4250  180.1370  138.8490 O   0  0  0  0  0  0  0  0  0  0  0  0
  183.7390  177.6080  137.5160 C   0  0  0  0  0  3  0  0  0  0  0  0
  186.4050  176.8310  137.1440 C   0  0  0  0  0  0  0  0  0  0  0  0
  185.3720  176.1330  136.4690 C   0  0  0  0  0  0  0  0  0  0  0  0
  184.0440  176.5370  136.6740 C   0  0  0  0  0  3  0  0  0  0  0  0
  186.0880  177.9020  137.9840 C   0  0  0  0  0  3  0  0  0  0  0  0
  187.8460  176.4690  137.0170 C   0  0  0  0  0  1  0  0  0  0  0  0
  184.7590  178.3000  138.1750 C   0  0  0  0  0  0  0  0  0  0  0  0
  184.7070  174.7060  134.6060 O   0  0  0  0  0  0  0  0  0  0  0  0
  185.6220  175.0220  135.5850 N   0  0  0  0  0  0  0  0  0  0  0  0
  186.6860  174.3700  135.6380 O   0  0  0  0  0  0  0  0  0  0  0  0
  1 17  1  0  0  0  0
  3  2  1  6  0  0  0
  3  1  1  0  0  0  0
  4  5  2  0  0  0  0
  5  7  1  0  0  0  0
  5  3  1  0  0  0  0
  6  1  1  0  0  0  0
  7 14  1  1  0  0  0
  7  6  1  0  0  0  0
  8 13  2  0  0  0  0
  8 14  1  0  0  0  0
 10  8  1  0  0  0  0
 11 13  1  0  0  0  0
 12  9  1  0  0  0  0
 12 15  2  0  0  0  0
 13 12  1  0  0  0  0
 14 16  2  0  0  0  0
 16 15  1  0  0  0  0
 17 19  2  0  0  0  0
 17 22  1  0  0  0  0
 18 20  1  0  0  0  0
 19 21  1  0  0  0  0
 21 24  1  0  0  0  0
 21 20  2  0  0  0  0
 22 18  2  0  0  0  0
 23 25  2  0  0  0  0
 25 26  1  0  0  0  0
 25 24  1  0  0  0  0
 26 27  1  0  0  0  0
 27 29  1  0  0  0  0
 29 28  1  0  0  0  0
 30  4  1  0  0  0  0
 31 30  2  0  0  0  0
 32 38  1  0  0  0  0
 33 36  1  0  0  0  0
 34 35  1  0  0  0  0
 34 33  2  0  0  0  0
 35 32  2  0  0  0  0
 36 38  2  0  0  0  0
 37 33  1  0  0  0  0
 38 30  1  0  0  0  0
 39 40  2  0  0  0  0
 40 41  2  0  0  0  0
 40 34  1  0  0  0  0
M  END
>  <MODEL>
8

>  <REMARK>
 VINA RESULT:      -7.4      3.379      5.496
  Name = 
  8 active torsions:
  status: ('A' for Active; 'I' for Inactive)
    1  A    between atoms: N_4  and  C_19
    2  A    between atoms: N_5  and  C_15
    3  A    between atoms: N_12  and  C_35
    4  A    between atoms: C_17  and  C_40
    5  A    between atoms: O_18  and  N_21
    6  A    between atoms: N_21  and  N_41
    7  A    between atoms: N_25  and  C_32
    8  A    between atoms: C_35  and  C_38
                            x       y       z     vdW  Elec       q    Type
                         _______ _______ _______ _____ _____    ______ ____

>  <TORSDO>
F 8

$$$$
=
 OpenBabel10222420343D

 41 44  0  0  1  0  0  0  0  0999 V2000
  185.0380  178.5990  142.5370 N   0  0  0  0  0  0  0  0  0  0  0  0
  182.7290  178.2770  142.6170 O   0  0  0  0  0  1  0  0  0  0  0  0
  183.9120  177.8370  142.0180 C   0  0  1  0  0  3  0  0  0  0  0  0
  183.0060  177.6810  139.7650 N   0  0  0  0  0  0  0  0  0  0  0  0
  183.8940  178.1760  140.5770 C   0  0  0  0  0  0  0  0  0  0  0  0
  185.7080  179.4040  141.5190 C   0  0  0  0  0  2  0  0  0  0  0  0
  185.0110  179.1000  140.1970 C   0  0  1  0  0  3  0  0  0  0  0  0
  187.1930  177.8750  139.6410 C   0  0  0  0  0  0  0  0  0  0  0  0
  188.5750  176.8560  136.4040 F   0  0  0  0  0  0  0  0  0  0  0  0
  187.5340  177.8190  140.9530 F   0  0  0  0  0  0  0  0  0  0  0  0
  189.2070  176.7210  139.0860 F   0  0  0  0  0  0  0  0  0  0  0  0
  187.7380  177.3860  137.3280 C   0  0  0  0  0  0  0  0  0  0  0  0
  188.0580  177.3220  138.6890 C   0  0  0  0  0  0  0  0  0  0  0  0
  185.9850  178.4790  139.2300 C   0  0  0  0  0  0  0  0  0  0  0  0
  186.5540  178.0030  136.9190 C   0  0  0  0  0  3  0  0  0  0  0  0
  185.6850  178.5500  137.8660 C   0  0  0  0  0  3  0  0  0  0  0  0
  185.5270  178.4830  143.8840 C   0  0  0  0  0  0  0  0  0  0  0  0
  185.1530  178.6300  146.2810 C   0  0  0  0  0  3  0  0  0  0  0  0
  186.8620  178.1240  144.1320 C   0  0  0  0  0  3  0  0  0  0  0  0
  186.4810  178.2690  146.5140 C   0  0  0  0  0  3  0  0  0  0  0  0
  187.3450  178.0120  145.4390 C   0  0  0  0  0  0  0  0  0  0  0  0
  184.6770  178.7350  144.9730 C   0  0  0  0  0  3  0  0  0  0  0  0
  188.5630  176.7630  147.8100 O   0  0  0  0  0  0  0  0  0  0  0  0
  188.7170  177.6440  145.6390 N   0  0  0  0  0  2  0  0  0  0  0  0
  189.2830  177.0490  146.8160 C   0  0  0  0  0  0  0  0  0  0  0  0
  190.6820  176.7860  146.8780 N   0  0  0  0  0  2  0  0  0  0  0  0
  191.5280  177.1170  145.8130 N   0  0  0  0  0  2  0  0  0  0  0  0
  191.6670  176.4260  143.7580 C   0  0  0  0  0  1  0  0  0  0  0  0
  191.6920  175.9910  145.0820 O   0  0  0  0  0  0  0  0  0  0  0  0
  182.8460  178.0050  138.3750 C   0  0  0  0  0  0  0  0  0  0  0  0
  183.2940  177.2350  137.4820 O   0  0  0  0  0  0  0  0  0  0  0  0
  182.2750  180.3900  138.8190 C   0  0  0  0  0  3  0  0  0  0  0  0
  180.8180  180.5380  136.4300 C   0  0  0  0  0  0  0  0  0  0  0  0
  180.9100  181.6800  137.2660 C   0  0  0  0  0  0  0  0  0  0  0  0
  181.6410  181.5810  138.4590 C   0  0  0  0  0  3  0  0  0  0  0  0
  181.4580  179.3520  136.7990 C   0  0  0  0  0  3  0  0  0  0  0  0
  180.0470  180.5270  135.1540 C   0  0  0  0  0  1  0  0  0  0  0  0
  182.1910  179.2680  137.9900 C   0  0  0  0  0  0  0  0  0  0  0  0
  180.9540  183.8690  136.1920 O   0  0  0  0  0  0  0  0  0  0  0  0
  180.2800  182.9380  136.9490 N   0  0  0  0  0  0  0  0  0  0  0  0
  179.1040  183.1850  137.2880 O   0  0  0  0  0  0  0  0  0  0  0  0
  1 17  1  0  0  0  0
  3  1  1  0  0  0  0
  3  2  1  1  0  0  0
  4  5  2  0  0  0  0
  5  3  1  0  0  0  0
  6  1  1  0  0  0  0
  7 14  1  6  0  0  0
  7  5  1  0  0  0  0
  7  6  1  0  0  0  0
  8 10  1  0  0  0  0
  9 12  1  0  0  0  0
 12 13  1  0  0  0  0
 13 11  1  0  0  0  0
 13  8  2  0  0  0  0
 14  8  1  0  0  0  0
 15 12  2  0  0  0  0
 15 16  1  0  0  0  0
 16 14  2  0  0  0  0
 17 19  2  0  0  0  0
 17 22  1  0  0  0  0
 18 20  1  0  0  0  0
 19 21  1  0  0  0  0
 21 24  1  0  0  0  0
 21 20  2  0  0  0  0
 22 18  2  0  0  0  0
 24 25  1  0  0  0  0
 25 26  1  0  0  0  0
 25 23  2  0  0  0  0
 27 26  1  0  0  0  0
 28 29  1  0  0  0  0
 29 27  1  0  0  0  0
 30  4  1  0  0  0  0
 31 30  2  0  0  0  0
 33 36  2  0  0  0  0
 33 34  1  0  0  0  0
 34 35  2  0  0  0  0
 35 32  1  0  0  0  0
 36 38  1  0  0  0  0
 37 33  1  0  0  0  0
 38 30  1  0  0  0  0
 38 32  2  0  0  0  0
 39 40  2  0  0  0  0
 40 34  1  0  0  0  0
 40 41  2  0  0  0  0
M  END
>  <MODEL>
9

>  <REMARK>
 VINA RESULT:      -7.2      2.225      2.688
  Name = 
  8 active torsions:
  status: ('A' for Active; 'I' for Inactive)
    1  A    between atoms: N_4  and  C_19
    2  A    between atoms: N_5  and  C_15
    3  A    between atoms: N_12  and  C_35
    4  A    between atoms: C_17  and  C_40
    5  A    between atoms: O_18  and  N_21
    6  A    between atoms: N_21  and  N_41
    7  A    between atoms: N_25  and  C_32
    8  A    between atoms: C_35  and  C_38
                            x       y       z     vdW  Elec       q    Type
                         _______ _______ _______ _____ _____    ______ ____

>  <TORSDO>
F 8

$$$$
