=
 OpenBabel10222416213D

 38 42  0  0  1  0  0  0  0  0999 V2000
  182.4940  179.1640  143.2250 C   0  0  0  0  0  3  0  0  0  0  0  0
  184.5430  178.6250  147.1080 N   0  0  0  0  0  1  0  0  0  0  0  0
  185.9760  177.9520  145.1350 C   0  0  0  0  0  0  0  0  0  0  0  0
  188.2800  177.0610  144.7370 C   0  0  0  0  0  0  0  0  0  0  0  0
  187.2400  177.4680  145.7700 C   0  0  0  0  0  3  0  0  0  0  0  0
  184.5270  178.4000  143.5140 N   0  0  0  0  0  0  0  0  0  0  0  0
  183.9650  178.7000  144.6630 C   0  0  0  0  0  0  0  0  0  0  0  0
  185.7650  177.9380  143.7670 C   0  0  2  0  0  3  0  0  0  0  0  0
  188.0000  177.0520  143.3960 C   0  0  0  0  0  0  0  0  0  0  0  0
  182.7120  179.1770  144.5720 N   0  0  0  0  0  0  0  0  0  0  0  0
  186.6760  177.5200  142.8980 C   0  0  0  0  0  3  0  0  0  0  0  0
  183.6280  178.6770  142.5590 C   0  0  0  0  0  0  0  0  0  0  0  0
  184.8090  178.4450  145.7220 C   0  0  0  0  0  0  0  0  0  0  0  0
  190.1670  177.0460  142.2520 C   0  0  0  0  0  0  0  0  0  0  0  0
  188.9740  176.5380  142.4130 C   0  0  0  0  0  3  0  0  0  0  0  0
  191.3620  177.5460  142.0870 C   0  0  0  0  0  0  0  0  0  0  0  0
  192.0610  178.2370  143.2090 C   0  0  0  0  0  2  0  0  0  0  0  0
  191.1610  179.2840  143.8410 C   0  0  0  0  0  1  0  0  0  0  0  0
  192.1230  177.4970  140.4710 S   0  0  0  0  0  0  0  0  0  0  0  0
  190.6800  176.7980  139.7360 N   0  0  0  0  0  0  0  0  0  0  0  0
  188.7200  177.3700  138.3880 C   0  0  0  0  0  2  0  0  0  0  0  0
  189.2030  176.3580  137.3530 C   0  0  1  0  0  3  0  0  0  0  0  0
  189.9300  177.9050  139.1480 C   0  0  0  0  0  2  0  0  0  0  0  0
  191.1360  175.9280  138.6530 C   0  0  0  0  0  2  0  0  0  0  0  0
  189.9840  175.3060  138.0000 N   0  0  0  0  0  2  0  0  0  0  0  0
  188.0090  175.7430  136.6530 C   0  0  0  0  0  1  0  0  0  0  0  0
  189.9720  176.9690  146.5830 C   0  0  0  0  0  1  0  0  0  0  0  0
  189.5200  176.6690  145.2690 O   0  0  0  0  0  0  0  0  0  0  0  0
  183.8140  178.4870  141.1030 C   0  0  0  0  0  0  0  0  0  0  0  0
  184.8680  178.9150  140.5650 O   0  0  0  0  0  0  0  0  0  0  0  0
  181.1950  179.7750  139.8510 C   0  0  0  0  0  1  0  0  0  0  0  0
  182.8190  176.4760  139.8640 C   0  0  0  0  0  3  0  0  0  0  0  0
  182.8040  177.8060  140.2580 C   0  0  0  0  0  0  0  0  0  0  0  0
  181.6760  176.3320  139.1010 C   0  0  0  0  0  0  0  0  0  0  0  0
  181.0070  177.4600  139.0260 O   0  0  0  0  0  0  0  0  0  0  0  0
  181.6590  178.3650  139.7100 C   0  0  0  0  0  0  0  0  0  0  0  0
  182.0590  174.4430  137.7340 O   0  0  0  0  0  0  0  0  0  0  0  0
  181.2580  175.0880  138.4600 C   0  0  0  0  0  3  0  0  0  0  0  0
  1 10  1  0  0  0  0
  3 13  2  0  0  0  0
  3  5  1  0  0  0  0
  4 28  1  0  0  0  0
  4  5  2  0  0  0  0
  6  8  1  0  0  0  0
  6  7  1  0  0  0  0
  7 13  1  0  0  0  0
  8 11  1  1  0  0  0
  8  3  1  0  0  0  0
  9  4  1  0  0  0  0
 10  7  2  0  0  0  0
 11  9  2  0  0  0  0
 12  1  2  0  0  0  0
 12  6  1  0  0  0  0
 13  2  1  0  0  0  0
 14 15  2  0  0  0  0
 15  9  1  0  0  0  0
 16 14  2  0  0  0  0
 16 17  1  0  0  0  0
 17 18  1  0  0  0  0
 19 16  1  0  0  0  0
 20 19  1  0  0  0  0
 21 23  1  0  0  0  0
 22 26  1  1  0  0  0
 22 25  1  0  0  0  0
 22 21  1  0  0  0  0
 23 20  1  0  0  0  0
 24 20  1  0  0  0  0
 25 24  1  0  0  0  0
 28 27  1  0  0  0  0
 29 12  1  0  0  0  0
 30 29  2  0  0  0  0
 32 33  1  0  0  0  0
 33 29  1  0  0  0  0
 34 32  2  0  0  0  0
 35 34  1  0  0  0  0
 35 36  1  0  0  0  0
 36 31  1  0  0  0  0
 36 33  2  0  0  0  0
 37 38  2  0  0  0  0
 38 34  1  0  0  0  0
M  END
>  <MODEL>
1

>  <REMARK>
 VINA RESULT:      -8.9      0.000      0.000
  Name = 
  8 active torsions:
  status: ('A' for Active; 'I' for Inactive)
    1  A    between atoms: N_4  and  S_35
    2  A    between atoms: C_6  and  O_38
    3  A    between atoms: C_10  and  C_23
    4  A    between atoms: C_10  and  C_29
    5  A    between atoms: C_12  and  C_25
    6  A    between atoms: C_18  and  C_28
    7  A    between atoms: C_26  and  C_36
    8  A    between atoms: S_35  and  C_36
                            x       y       z     vdW  Elec       q    Type
                         _______ _______ _______ _____ _____    ______ ____

>  <TORSDO>
F 8

$$$$
=
 OpenBabel10222416213D

 38 42  0  0  1  0  0  0  0  0999 V2000
  183.8430  179.3640  143.5020 C   0  0  0  0  0  3  0  0  0  0  0  0
  186.4610  178.2550  146.8910 N   0  0  0  0  0  1  0  0  0  0  0  0
  187.4840  177.7210  144.6390 C   0  0  0  0  0  0  0  0  0  0  0  0
  189.6070  176.7360  143.7550 C   0  0  0  0  0  0  0  0  0  0  0  0
  188.7910  177.0890  144.9900 C   0  0  0  0  0  3  0  0  0  0  0  0
  185.8260  178.4440  143.3510 N   0  0  0  0  0  0  0  0  0  0  0  0
  185.4910  178.6460  144.6050 C   0  0  0  0  0  0  0  0  0  0  0  0
  187.0460  177.8770  143.3360 C   0  0  2  0  0  3  0  0  0  0  0  0
  189.1070  176.8990  142.4900 C   0  0  0  0  0  0  0  0  0  0  0  0
  184.2840  179.2090  144.7850 N   0  0  0  0  0  0  0  0  0  0  0  0
  187.7610  177.5040  142.2820 C   0  0  0  0  0  3  0  0  0  0  0  0
  184.8060  178.8850  142.6020 C   0  0  0  0  0  0  0  0  0  0  0  0
  186.4760  178.2180  145.4680 C   0  0  0  0  0  0  0  0  0  0  0  0
  189.6750  176.9300  140.1070 C   0  0  0  0  0  0  0  0  0  0  0  0
  189.8570  176.4390  141.3050 C   0  0  0  0  0  3  0  0  0  0  0  0
  189.5030  177.4170  138.9080 C   0  0  0  0  0  0  0  0  0  0  0  0
  189.0160  178.8130  138.7150 C   0  0  0  0  0  2  0  0  0  0  0  0
  189.0420  179.1950  137.2460 C   0  0  0  0  0  1  0  0  0  0  0  0
  189.7490  176.3650  137.4850 S   0  0  0  0  0  0  0  0  0  0  0  0
  191.2620  175.7270  138.1310 N   0  0  0  0  0  0  0  0  0  0  0  0
  192.9650  174.0140  137.7460 C   0  0  0  0  0  2  0  0  0  0  0  0
  193.9940  175.1360  137.6380 C   0  0  1  0  0  3  0  0  0  0  0  0
  191.6040  174.5580  137.3250 C   0  0  0  0  0  2  0  0  0  0  0  0
  192.2820  176.7510  137.9060 C   0  0  0  0  0  2  0  0  0  0  0  0
  193.5680  176.2900  138.4280 N   0  0  0  0  0  2  0  0  0  0  0  0
  195.3340  174.6440  138.1440 C   0  0  0  0  0  1  0  0  0  0  0  0
  191.6300  176.4440  145.2050 C   0  0  0  0  0  1  0  0  0  0  0  0
  190.8820  176.2080  144.0190 O   0  0  0  0  0  0  0  0  0  0  0  0
  184.7300  178.8510  141.1240 C   0  0  0  0  0  0  0  0  0  0  0  0
  185.6820  179.3310  140.4560 O   0  0  0  0  0  0  0  0  0  0  0  0
  182.9380  180.2760  138.9220 C   0  0  0  0  0  1  0  0  0  0  0  0
  183.0590  176.9900  140.5670 C   0  0  0  0  0  3  0  0  0  0  0  0
  183.5720  178.2670  140.4040 C   0  0  0  0  0  0  0  0  0  0  0  0
  181.9970  176.9330  139.6840 C   0  0  0  0  0  0  0  0  0  0  0  0
  181.8560  178.0640  139.0340 O   0  0  0  0  0  0  0  0  0  0  0  0
  182.7870  178.8870  139.4420 C   0  0  0  0  0  0  0  0  0  0  0  0
  179.9670  175.9010  139.0480 O   0  0  0  0  0  0  0  0  0  0  0  0
  181.1360  175.7670  139.4960 C   0  0  0  0  0  3  0  0  0  0  0  0
  1 10  1  0  0  0  0
  3  5  1  0  0  0  0
  3 13  2  0  0  0  0
  4 28  1  0  0  0  0
  4  5  2  0  0  0  0
  6  7  1  0  0  0  0
  7 10  2  0  0  0  0
  7 13  1  0  0  0  0
  8 11  1  1  0  0  0
  8  6  1  0  0  0  0
  8  3  1  0  0  0  0
  9  4  1  0  0  0  0
 11  9  2  0  0  0  0
 12  6  1  0  0  0  0
 12  1  2  0  0  0  0
 13  2  1  0  0  0  0
 14 15  2  0  0  0  0
 15  9  1  0  0  0  0
 16 14  2  0  0  0  0
 17 16  1  0  0  0  0
 18 17  1  0  0  0  0
 19 20  1  0  0  0  0
 19 16  1  0  0  0  0
 22 21  1  0  0  0  0
 22 26  1  1  0  0  0
 22 25  1  0  0  0  0
 23 21  1  0  0  0  0
 23 20  1  0  0  0  0
 24 20  1  0  0  0  0
 24 25  1  0  0  0  0
 28 27  1  0  0  0  0
 29 12  1  0  0  0  0
 30 29  2  0  0  0  0
 31 36  1  0  0  0  0
 33 32  1  0  0  0  0
 33 29  1  0  0  0  0
 34 32  2  0  0  0  0
 35 36  1  0  0  0  0
 35 34  1  0  0  0  0
 36 33  2  0  0  0  0
 37 38  2  0  0  0  0
 38 34  1  0  0  0  0
M  END
>  <MODEL>
2

>  <REMARK>
 VINA RESULT:      -8.6      1.803      2.918
  Name = 
  8 active torsions:
  status: ('A' for Active; 'I' for Inactive)
    1  A    between atoms: N_4  and  S_35
    2  A    between atoms: C_6  and  O_38
    3  A    between atoms: C_10  and  C_23
    4  A    between atoms: C_10  and  C_29
    5  A    between atoms: C_12  and  C_25
    6  A    between atoms: C_18  and  C_28
    7  A    between atoms: C_26  and  C_36
    8  A    between atoms: S_35  and  C_36
                            x       y       z     vdW  Elec       q    Type
                         _______ _______ _______ _____ _____    ______ ____

>  <TORSDO>
F 8

$$$$
=
 OpenBabel10222416213D

 38 42  0  0  1  0  0  0  0  0999 V2000
  183.6870  178.8650  143.7880 C   0  0  0  0  0  3  0  0  0  0  0  0
  186.8770  177.7370  146.6380 N   0  0  0  0  0  1  0  0  0  0  0  0
  187.6310  177.6400  144.2250 C   0  0  0  0  0  0  0  0  0  0  0  0
  189.7160  177.0910  142.9560 C   0  0  0  0  0  0  0  0  0  0  0  0
  189.0450  177.1650  144.3190 C   0  0  0  0  0  3  0  0  0  0  0  0
  185.7290  178.2680  143.2660 N   0  0  0  0  0  0  0  0  0  0  0  0
  185.5520  178.2630  144.5680 C   0  0  0  0  0  0  0  0  0  0  0  0
  186.9970  177.8910  143.0200 C   0  0  2  0  0  3  0  0  0  0  0  0
  189.0260  177.3350  141.7970 C   0  0  0  0  0  0  0  0  0  0  0  0
  184.3210  178.6180  144.9720 N   0  0  0  0  0  0  0  0  0  0  0  0
  187.5980  177.7590  141.8450 C   0  0  0  0  0  3  0  0  0  0  0  0
  184.5660  178.6460  142.7180 C   0  0  0  0  0  0  0  0  0  0  0  0
  186.6960  177.8790  145.2340 C   0  0  0  0  0  0  0  0  0  0  0  0
  188.9800  177.1390  139.3560 C   0  0  0  0  0  0  0  0  0  0  0  0
  189.6530  177.1390  140.4760 C   0  0  0  0  0  3  0  0  0  0  0  0
  188.3150  177.1420  138.2320 C   0  0  0  0  0  0  0  0  0  0  0  0
  187.0390  177.9030  138.1020 C   0  0  0  0  0  2  0  0  0  0  0  0
  187.0160  178.7010  136.8110 C   0  0  0  0  0  1  0  0  0  0  0  0
  188.8840  176.1370  136.8680 S   0  0  0  0  0  0  0  0  0  0  0  0
  187.4810  175.0730  136.9760 N   0  0  0  0  0  0  0  0  0  0  0  0
  185.6060  174.2000  135.6700 C   0  0  0  0  0  2  0  0  0  0  0  0
  186.1400  172.7960  135.9410 C   0  0  1  0  0  3  0  0  0  0  0  0
  186.7730  175.1810  135.7030 C   0  0  0  0  0  2  0  0  0  0  0  0
  187.9920  173.7090  137.1010 C   0  0  0  0  0  2  0  0  0  0  0  0
  186.8760  172.7700  137.2040 N   0  0  0  0  0  2  0  0  0  0  0  0
  184.9840  171.8200  136.0090 C   0  0  0  0  0  1  0  0  0  0  0  0
  191.6330  175.7470  143.8490 C   0  0  0  0  0  1  0  0  0  0  0  0
  191.0720  176.7250  142.9830 O   0  0  0  0  0  0  0  0  0  0  0  0
  184.2870  178.7840  141.2710 C   0  0  0  0  0  0  0  0  0  0  0  0
  184.9580  179.6110  140.6000 O   0  0  0  0  0  0  0  0  0  0  0  0
  181.1420  179.2080  141.4250 C   0  0  0  0  0  1  0  0  0  0  0  0
  183.4590  176.8940  139.7520 C   0  0  0  0  0  3  0  0  0  0  0  0
  183.2460  177.9810  140.5850 C   0  0  0  0  0  0  0  0  0  0  0  0
  182.1900  176.4990  139.3740 C   0  0  0  0  0  0  0  0  0  0  0  0
  181.2710  177.2620  139.9180 O   0  0  0  0  0  0  0  0  0  0  0  0
  181.8720  178.1630  140.6510 C   0  0  0  0  0  0  0  0  0  0  0  0
  180.7350  174.9100  138.4020 O   0  0  0  0  0  0  0  0  0  0  0  0
  181.9010  175.3760  138.4850 C   0  0  0  0  0  3  0  0  0  0  0  0
  1 10  1  0  0  0  0
  3  5  1  0  0  0  0
  3 13  2  0  0  0  0
  4 28  1  0  0  0  0
  4  5  2  0  0  0  0
  6  7  1  0  0  0  0
  7 10  2  0  0  0  0
  7 13  1  0  0  0  0
  8 11  1  6  0  0  0
  8  6  1  0  0  0  0
  8  3  1  0  0  0  0
  9 11  2  0  0  0  0
  9  4  1  0  0  0  0
 12  6  1  0  0  0  0
 12  1  2  0  0  0  0
 13  2  1  0  0  0  0
 14 15  2  0  0  0  0
 15  9  1  0  0  0  0
 16 14  2  0  0  0  0
 17 16  1  0  0  0  0
 18 17  1  0  0  0  0
 19 20  1  0  0  0  0
 19 16  1  0  0  0  0
 20 24  1  0  0  0  0
 21 23  1  0  0  0  0
 21 22  1  0  0  0  0
 22 26  1  1  0  0  0
 22 25  1  0  0  0  0
 23 20  1  0  0  0  0
 24 25  1  0  0  0  0
 28 27  1  0  0  0  0
 29 12  1  0  0  0  0
 30 29  2  0  0  0  0
 32 33  1  0  0  0  0
 33 36  2  0  0  0  0
 33 29  1  0  0  0  0
 34 32  2  0  0  0  0
 34 35  1  0  0  0  0
 35 36  1  0  0  0  0
 36 31  1  0  0  0  0
 37 38  2  0  0  0  0
 38 34  1  0  0  0  0
M  END
>  <MODEL>
3

>  <REMARK>
 VINA RESULT:      -8.4      2.052      3.302
  Name = 
  8 active torsions:
  status: ('A' for Active; 'I' for Inactive)
    1  A    between atoms: N_4  and  S_35
    2  A    between atoms: C_6  and  O_38
    3  A    between atoms: C_10  and  C_23
    4  A    between atoms: C_10  and  C_29
    5  A    between atoms: C_12  and  C_25
    6  A    between atoms: C_18  and  C_28
    7  A    between atoms: C_26  and  C_36
    8  A    between atoms: S_35  and  C_36
                            x       y       z     vdW  Elec       q    Type
                         _______ _______ _______ _____ _____    ______ ____

>  <TORSDO>
F 8

$$$$
=
 OpenBabel10222416213D

 38 42  0  0  1  0  0  0  0  0999 V2000
  184.2050  178.5350  138.8390 C   0  0  0  0  0  3  0  0  0  0  0  0
  186.3610  177.1490  135.2330 N   0  0  0  0  0  1  0  0  0  0  0  0
  187.8670  177.3870  137.2520 C   0  0  0  0  0  0  0  0  0  0  0  0
  190.2810  177.0430  137.8140 C   0  0  0  0  0  0  0  0  0  0  0  0
  189.2170  177.0200  136.7270 C   0  0  0  0  0  2  0  0  0  0  0  0
  186.3450  178.0820  138.7120 N   0  0  0  0  0  0  0  0  0  0  0  0
  185.7480  177.8810  137.5590 C   0  0  0  0  0  0  0  0  0  0  0  0
  187.6490  177.7870  138.5590 C   0  0  0  0  0  0  0  0  0  0  0  0
  190.0030  177.4670  139.0870 C   0  0  0  0  0  0  0  0  0  0  0  0
  184.4300  178.1380  137.5520 N   0  0  0  0  0  0  0  0  0  0  0  0
  188.6140  177.8510  139.4670 C   0  0  0  0  0  3  0  0  0  0  0  0
  185.4040  178.5020  139.5680 C   0  0  0  0  0  0  0  0  0  0  0  0
  186.6360  177.4480  136.5980 C   0  0  0  0  0  0  0  0  0  0  0  0
  190.9340  177.2090  141.3380 C   0  0  0  0  0  0  0  0  0  0  0  0
  191.0670  177.6030  140.1000 C   0  0  0  0  0  3  0  0  0  0  0  0
  190.8100  176.8130  142.5760 C   0  0  0  0  0  0  0  0  0  0  0  0
  189.8830  175.7000  142.9330 C   0  0  0  0  0  2  0  0  0  0  0  0
  188.4370  176.1490  142.8280 C   0  0  0  0  0  1  0  0  0  0  0  0
  191.6780  177.6860  143.8720 S   0  0  0  0  0  0  0  0  0  0  0  0
  190.4940  177.2010  145.0870 N   0  0  0  0  0  0  0  0  0  0  0  0
  190.2620  176.6740  147.4640 C   0  0  0  0  0  2  0  0  0  0  0  0
  189.2460  177.8080  147.5620 C   0  0  1  0  0  3  0  0  0  0  0  0
  191.2320  176.9840  146.3290 C   0  0  0  0  0  2  0  0  0  0  0  0
  189.5980  178.3400  145.2810 C   0  0  0  0  0  2  0  0  0  0  0  0
  188.5800  178.0030  146.2760 N   0  0  0  0  0  2  0  0  0  0  0  0
  188.2150  177.4730  148.6200 C   0  0  0  0  0  1  0  0  0  0  0  0
  192.0120  175.2830  137.3800 C   0  0  0  0  0  1  0  0  0  0  0  0
  191.5590  176.6310  137.4000 O   0  0  0  0  0  0  0  0  0  0  0  0
  185.6130  178.8650  140.9870 C   0  0  0  0  0  0  0  0  0  0  0  0
  186.7560  179.2410  141.3550 O   0  0  0  0  0  0  0  0  0  0  0  0
  185.8970  178.1780  144.0760 C   0  0  0  0  0  1  0  0  0  0  0  0
  183.1750  179.0340  141.7570 C   0  0  0  0  0  3  0  0  0  0  0  0
  184.5220  178.8050  141.9900 C   0  0  0  0  0  0  0  0  0  0  0  0
  182.5790  178.8560  142.9920 C   0  0  0  0  0  0  0  0  0  0  0  0
  183.4650  178.5430  143.9080 O   0  0  0  0  0  0  0  0  0  0  0  0
  184.6430  178.5040  143.3390 C   0  0  0  0  0  0  0  0  0  0  0  0
  180.6430  178.5440  144.3110 O   0  0  0  0  0  0  0  0  0  0  0  0
  181.1480  178.9950  143.2500 C   0  0  0  0  0  3  0  0  0  0  0  0
  1 12  2  0  0  0  0
  2 13  1  0  0  0  0
  3  8  1  0  0  0  0
  4  9  2  0  0  0  0
  5  3  1  0  0  0  0
  5  4  1  0  0  0  0
  6 12  1  0  0  0  0
  7  6  1  0  0  0  0
  8  6  1  0  0  0  0
  8 11  2  0  0  0  0
  9 11  1  0  0  0  0
  9 15  1  0  0  0  0
 10  7  2  0  0  0  0
 10  1  1  0  0  0  0
 12 29  1  0  0  0  0
 13  3  2  0  0  0  0
 13  7  1  0  0  0  0
 14 16  2  0  0  0  0
 15 14  2  0  0  0  0
 16 17  1  0  0  0  0
 16 19  1  0  0  0  0
 18 17  1  0  0  0  0
 19 20  1  0  0  0  0
 20 24  1  0  0  0  0
 20 23  1  0  0  0  0
 21 22  1  0  0  0  0
 22 26  1  1  0  0  0
 23 21  1  0  0  0  0
 24 25  1  0  0  0  0
 25 22  1  0  0  0  0
 27 28  1  0  0  0  0
 28  4  1  0  0  0  0
 29 30  2  0  0  0  0
 29 33  1  0  0  0  0
 32 33  1  0  0  0  0
 32 34  2  0  0  0  0
 33 36  2  0  0  0  0
 34 38  1  0  0  0  0
 34 35  1  0  0  0  0
 36 35  1  0  0  0  0
 36 31  1  0  0  0  0
 38 37  2  0  0  0  0
M  END
>  <MODEL>
4

>  <REMARK>
 VINA RESULT:      -8.4      3.062      6.653
  Name = 
  8 active torsions:
  status: ('A' for Active; 'I' for Inactive)
    1  A    between atoms: N_4  and  S_35
    2  A    between atoms: C_6  and  O_38
    3  A    between atoms: C_10  and  C_23
    4  A    between atoms: C_10  and  C_29
    5  A    between atoms: C_12  and  C_25
    6  A    between atoms: C_18  and  C_28
    7  A    between atoms: C_26  and  C_36
    8  A    between atoms: S_35  and  C_36
                            x       y       z     vdW  Elec       q    Type
                         _______ _______ _______ _____ _____    ______ ____

>  <TORSDO>
F 8

$$$$
=
 OpenBabel10222416213D

 38 42  0  0  1  0  0  0  0  0999 V2000
  188.8730  177.1240  145.4900 C   0  0  0  0  0  3  0  0  0  0  0  0
  185.4500  179.4650  147.0300 N   0  0  0  0  0  1  0  0  0  0  0  0
  185.1290  178.7070  144.6380 C   0  0  0  0  0  0  0  0  0  0  0  0
  183.3850  178.8910  142.8530 C   0  0  0  0  0  0  0  0  0  0  0  0
  183.8030  179.2840  144.2620 C   0  0  0  0  0  3  0  0  0  0  0  0
  187.0540  177.6290  144.3790 N   0  0  0  0  0  0  0  0  0  0  0  0
  187.0110  178.1080  145.6010 C   0  0  0  0  0  0  0  0  0  0  0  0
  185.9120  177.9780  143.7580 C   0  0  2  0  0  3  0  0  0  0  0  0
  184.2160  178.1820  142.0250 C   0  0  0  0  0  0  0  0  0  0  0  0
  188.0930  177.8420  146.3510 N   0  0  0  0  0  0  0  0  0  0  0  0
  185.5400  177.7040  142.5150 C   0  0  0  0  0  3  0  0  0  0  0  0
  188.2250  176.9900  144.2530 C   0  0  0  0  0  0  0  0  0  0  0  0
  185.8400  178.7950  145.8360 C   0  0  0  0  0  0  0  0  0  0  0  0
  182.7350  177.3370  140.2670 C   0  0  0  0  0  0  0  0  0  0  0  0
  183.8520  177.9140  140.6210 C   0  0  0  0  0  3  0  0  0  0  0  0
  181.6180  176.7650  139.9050 C   0  0  0  0  0  0  0  0  0  0  0  0
  180.3970  176.8690  140.7540 C   0  0  0  0  0  2  0  0  0  0  0  0
  179.5020  177.9970  140.2750 C   0  0  0  0  0  1  0  0  0  0  0  0
  181.5820  175.7560  138.4300 S   0  0  0  0  0  0  0  0  0  0  0  0
  183.2750  176.0990  138.0710 N   0  0  0  0  0  0  0  0  0  0  0  0
  185.3290  175.0620  137.2380 C   0  0  0  0  0  2  0  0  0  0  0  0
  185.3370  176.1010  136.1200 C   0  0  1  0  0  3  0  0  0  0  0  0
  183.8870  174.8310  137.6790 C   0  0  0  0  0  2  0  0  0  0  0  0
  183.2890  176.9900  136.9120 C   0  0  0  0  0  2  0  0  0  0  0  0
  184.6690  177.3240  136.5620 N   0  0  0  0  0  2  0  0  0  0  0  0
  186.7670  176.4170  135.7340 C   0  0  0  0  0  1  0  0  0  0  0  0
  180.9750  179.3900  143.3210 C   0  0  0  0  0  1  0  0  0  0  0  0
  182.1110  179.3390  142.4670 O   0  0  0  0  0  0  0  0  0  0  0  0
  188.7180  176.3010  143.0400 C   0  0  0  0  0  0  0  0  0  0  0  0
  188.7010  175.0430  143.0080 O   0  0  0  0  0  0  0  0  0  0  0  0
  191.7240  177.1630  142.4850 C   0  0  0  0  0  1  0  0  0  0  0  0
  188.4810  177.4950  140.7850 C   0  0  0  0  0  3  0  0  0  0  0  0
  189.2280  177.0410  141.8610 C   0  0  0  0  0  0  0  0  0  0  0  0
  189.4040  178.1170  139.9650 C   0  0  0  0  0  0  0  0  0  0  0  0
  190.6110  178.0600  140.4770 O   0  0  0  0  0  0  0  0  0  0  0  0
  190.5410  177.4190  141.6160 C   0  0  0  0  0  0  0  0  0  0  0  0
  187.9220  178.6810  138.2130 O   0  0  0  0  0  0  0  0  0  0  0  0
  189.0830  178.7570  138.6920 C   0  0  0  0  0  3  0  0  0  0  0  0
  1 10  1  0  0  0  0
  3 13  2  0  0  0  0
  4  5  2  0  0  0  0
  5  3  1  0  0  0  0
  6  7  1  0  0  0  0
  7 13  1  0  0  0  0
  7 10  2  0  0  0  0
  8 11  1  6  0  0  0
  8  6  1  0  0  0  0
  8  3  1  0  0  0  0
  9 11  2  0  0  0  0
  9  4  1  0  0  0  0
 12  6  1  0  0  0  0
 12  1  2  0  0  0  0
 13  2  1  0  0  0  0
 14 15  2  0  0  0  0
 15  9  1  0  0  0  0
 16 14  2  0  0  0  0
 16 17  1  0  0  0  0
 18 17  1  0  0  0  0
 19 16  1  0  0  0  0
 20 19  1  0  0  0  0
 21 23  1  0  0  0  0
 22 26  1  1  0  0  0
 22 25  1  0  0  0  0
 22 21  1  0  0  0  0
 23 20  1  0  0  0  0
 24 20  1  0  0  0  0
 25 24  1  0  0  0  0
 28  4  1  0  0  0  0
 28 27  1  0  0  0  0
 29 12  1  0  0  0  0
 30 29  2  0  0  0  0
 32 33  1  0  0  0  0
 33 29  1  0  0  0  0
 34 35  1  0  0  0  0
 34 32  2  0  0  0  0
 35 36  1  0  0  0  0
 36 33  2  0  0  0  0
 36 31  1  0  0  0  0
 37 38  2  0  0  0  0
 38 34  1  0  0  0  0
M  END
>  <MODEL>
5

>  <REMARK>
 VINA RESULT:      -8.3      3.047      6.988
  Name = 
  8 active torsions:
  status: ('A' for Active; 'I' for Inactive)
    1  A    between atoms: N_4  and  S_35
    2  A    between atoms: C_6  and  O_38
    3  A    between atoms: C_10  and  C_23
    4  A    between atoms: C_10  and  C_29
    5  A    between atoms: C_12  and  C_25
    6  A    between atoms: C_18  and  C_28
    7  A    between atoms: C_26  and  C_36
    8  A    between atoms: S_35  and  C_36
                            x       y       z     vdW  Elec       q    Type
                         _______ _______ _______ _____ _____    ______ ____

>  <TORSDO>
F 8

$$$$
=
 OpenBabel10222416213D

 38 42  0  0  1  0  0  0  0  0999 V2000
  189.9950  177.0770  143.7020 C   0  0  0  0  0  3  0  0  0  0  0  0
  192.1480  177.1280  139.8380 N   0  0  0  0  0  1  0  0  0  0  0  0
  189.6890  177.6720  139.6030 C   0  0  0  0  0  0  0  0  0  0  0  0
  188.0870  178.2590  137.7730 C   0  0  0  0  0  0  0  0  0  0  0  0
  189.5110  177.8610  138.1320 C   0  0  0  0  0  2  0  0  0  0  0  0
  189.1160  177.5100  141.7420 N   0  0  0  0  0  0  0  0  0  0  0  0
  190.4020  177.2670  141.6410 C   0  0  0  0  0  0  0  0  0  0  0  0
  188.6450  177.7640  140.5080 C   0  0  0  0  0  0  0  0  0  0  0  0
  187.0940  178.3140  138.7150 C   0  0  0  0  0  0  0  0  0  0  0  0
  191.0190  176.9900  142.8030 N   0  0  0  0  0  0  0  0  0  0  0  0
  187.4010  178.0560  140.1510 C   0  0  0  0  0  3  0  0  0  0  0  0
  188.8010  177.4020  143.0410 C   0  0  0  0  0  0  0  0  0  0  0  0
  190.8330  177.3470  140.3350 C   0  0  0  0  0  0  0  0  0  0  0  0
  184.6920  178.4670  139.1700 C   0  0  0  0  0  0  0  0  0  0  0  0
  185.6920  178.5790  138.3380 C   0  0  0  0  0  3  0  0  0  0  0  0
  183.6870  178.3620  139.9970 C   0  0  0  0  0  0  0  0  0  0  0  0
  183.8820  178.5510  141.4630 C   0  0  0  0  0  2  0  0  0  0  0  0
  182.5460  178.6280  142.1800 C   0  0  0  0  0  1  0  0  0  0  0  0
  182.0820  177.8780  139.3770 S   0  0  0  0  0  0  0  0  0  0  0  0
  182.0290  179.2370  138.2540 N   0  0  0  0  0  0  0  0  0  0  0  0
  180.8130  180.1050  136.3160 C   0  0  0  0  0  2  0  0  0  0  0  0
  180.4830  181.3430  137.1450 C   0  0  1  0  0  3  0  0  0  0  0  0
  181.0040  178.9220  137.2610 C   0  0  0  0  0  2  0  0  0  0  0  0
  181.5810  180.4000  139.0200 C   0  0  0  0  0  2  0  0  0  0  0  0
  181.5210  181.5720  138.1470 N   0  0  0  0  0  2  0  0  0  0  0  0
  180.3850  182.5480  136.2330 C   0  0  0  0  0  1  0  0  0  0  0  0
  187.8330  177.5440  135.3840 C   0  0  0  0  0  1  0  0  0  0  0  0
  187.8730  178.5270  136.4100 O   0  0  0  0  0  0  0  0  0  0  0  0
  187.4560  177.5790  143.6310 C   0  0  0  0  0  0  0  0  0  0  0  0
  186.4490  177.5030  142.8800 O   0  0  0  0  0  0  0  0  0  0  0  0
  184.9350  178.9600  144.9840 C   0  0  0  0  0  1  0  0  0  0  0  0
  188.1340  177.5340  146.1020 C   0  0  0  0  0  3  0  0  0  0  0  0
  187.2530  177.8420  145.0770 C   0  0  0  0  0  0  0  0  0  0  0  0
  187.4960  177.9750  147.2460 C   0  0  0  0  0  0  0  0  0  0  0  0
  186.3310  178.5100  146.9650 O   0  0  0  0  0  0  0  0  0  0  0  0
  186.1540  178.4450  145.6700 C   0  0  0  0  0  0  0  0  0  0  0  0
  189.2150  178.2540  148.8440 O   0  0  0  0  0  0  0  0  0  0  0  0
  188.0430  177.8650  148.5960 C   0  0  0  0  0  3  0  0  0  0  0  0
  2 13  1  0  0  0  0
  3 13  2  0  0  0  0
  3  8  1  0  0  0  0
  4  5  1  0  0  0  0
  4  9  2  0  0  0  0
  5  3  1  0  0  0  0
  6 12  1  0  0  0  0
  7  6  1  0  0  0  0
  7 10  2  0  0  0  0
  8  6  1  0  0  0  0
  9 11  1  0  0  0  0
 10  1  1  0  0  0  0
 11  8  2  0  0  0  0
 12 29  1  0  0  0  0
 12  1  2  0  0  0  0
 13  7  1  0  0  0  0
 14 16  2  0  0  0  0
 15  9  1  0  0  0  0
 15 14  2  0  0  0  0
 16 17  1  0  0  0  0
 17 18  1  0  0  0  0
 19 16  1  0  0  0  0
 20 24  1  0  0  0  0
 20 19  1  0  0  0  0
 21 22  1  0  0  0  0
 21 23  1  0  0  0  0
 22 26  1  6  0  0  0
 22 25  1  0  0  0  0
 23 20  1  0  0  0  0
 25 24  1  0  0  0  0
 27 28  1  0  0  0  0
 28  4  1  0  0  0  0
 29 33  1  0  0  0  0
 30 29  2  0  0  0  0
 31 36  1  0  0  0  0
 32 34  2  0  0  0  0
 33 36  2  0  0  0  0
 33 32  1  0  0  0  0
 34 38  1  0  0  0  0
 35 34  1  0  0  0  0
 36 35  1  0  0  0  0
 38 37  2  0  0  0  0
M  END
>  <MODEL>
6

>  <REMARK>
 VINA RESULT:      -8.0      3.386      8.403
  Name = 
  8 active torsions:
  status: ('A' for Active; 'I' for Inactive)
    1  A    between atoms: N_4  and  S_35
    2  A    between atoms: C_6  and  O_38
    3  A    between atoms: C_10  and  C_23
    4  A    between atoms: C_10  and  C_29
    5  A    between atoms: C_12  and  C_25
    6  A    between atoms: C_18  and  C_28
    7  A    between atoms: C_26  and  C_36
    8  A    between atoms: S_35  and  C_36
                            x       y       z     vdW  Elec       q    Type
                         _______ _______ _______ _____ _____    ______ ____

>  <TORSDO>
F 8

$$$$
=
 OpenBabel10222416213D

 38 42  0  0  1  0  0  0  0  0999 V2000
  190.7570  177.3460  141.0490 C   0  0  0  0  0  3  0  0  0  0  0  0
  188.9620  177.0510  145.0820 N   0  0  0  0  0  1  0  0  0  0  0  0
  187.2890  177.7160  143.3040 C   0  0  0  0  0  0  0  0  0  0  0  0
  184.8490  178.2530  143.1630 C   0  0  0  0  0  0  0  0  0  0  0  0
  186.0190  177.9000  144.0700 C   0  0  0  0  0  3  0  0  0  0  0  0
  188.6580  177.7200  141.5560 N   0  0  0  0  0  0  0  0  0  0  0  0
  189.3490  177.3770  142.6190 C   0  0  0  0  0  0  0  0  0  0  0  0
  187.3870  177.9350  141.9400 C   0  0  2  0  0  3  0  0  0  0  0  0
  185.0170  178.4740  141.8220 C   0  0  0  0  0  0  0  0  0  0  0  0
  190.6500  177.1310  142.3930 N   0  0  0  0  0  0  0  0  0  0  0  0
  186.3550  178.2990  141.1900 C   0  0  0  0  0  3  0  0  0  0  0  0
  189.5100  177.7160  140.5220 C   0  0  0  0  0  0  0  0  0  0  0  0
  188.5610  177.3550  143.7500 C   0  0  0  0  0  0  0  0  0  0  0  0
  183.3210  178.1850  140.0770 C   0  0  0  0  0  0  0  0  0  0  0  0
  183.9000  178.9370  140.9750 C   0  0  0  0  0  3  0  0  0  0  0  0
  182.7350  177.4380  139.1810 C   0  0  0  0  0  0  0  0  0  0  0  0
  182.7080  175.9540  139.3240 C   0  0  0  0  0  2  0  0  0  0  0  0
  183.3400  175.2850  138.1170 C   0  0  0  0  0  1  0  0  0  0  0  0
  182.0520  178.1950  137.7130 S   0  0  0  0  0  0  0  0  0  0  0  0
  181.4130  179.5600  138.6300 N   0  0  0  0  0  0  0  0  0  0  0  0
  181.0410  181.9740  138.5050 C   0  0  0  0  0  2  0  0  0  0  0  0
  179.5540  181.7030  138.7140 C   0  0  1  0  0  3  0  0  0  0  0  0
  181.6700  180.7580  137.8340 C   0  0  0  0  0  2  0  0  0  0  0  0
  179.9660  179.3700  138.7160 C   0  0  0  0  0  2  0  0  0  0  0  0
  179.3680  180.4680  139.4740 N   0  0  0  0  0  2  0  0  0  0  0  0
  178.9310  182.8590  139.4670 C   0  0  0  0  0  1  0  0  0  0  0  0
  183.4360  178.7250  145.1780 C   0  0  0  0  0  1  0  0  0  0  0  0
  183.6090  178.3630  143.8140 O   0  0  0  0  0  0  0  0  0  0  0  0
  189.1820  178.0530  139.1180 C   0  0  0  0  0  0  0  0  0  0  0  0
  189.1760  179.2620  138.7700 O   0  0  0  0  0  0  0  0  0  0  0  0
  186.3900  177.5860  137.6780 C   0  0  0  0  0  1  0  0  0  0  0  0
  189.7310  176.0540  137.6120 C   0  0  0  0  0  3  0  0  0  0  0  0
  188.8640  177.0140  138.1080 C   0  0  0  0  0  0  0  0  0  0  0  0
  188.9670  175.3350  136.7120 C   0  0  0  0  0  0  0  0  0  0  0  0
  187.7410  175.7980  136.6520 O   0  0  0  0  0  0  0  0  0  0  0  0
  187.6450  176.8080  137.4780 C   0  0  0  0  0  0  0  0  0  0  0  0
  189.1550  173.0250  136.2510 O   0  0  0  0  0  0  0  0  0  0  0  0
  189.4550  174.2030  135.9270 C   0  0  0  0  0  3  0  0  0  0  0  0
  1 10  1  0  0  0  0
  3 13  2  0  0  0  0
  3  5  1  0  0  0  0
  4 28  1  0  0  0  0
  4  5  2  0  0  0  0
  6  8  1  0  0  0  0
  6  7  1  0  0  0  0
  7 13  1  0  0  0  0
  8 11  1  1  0  0  0
  8  3  1  0  0  0  0
  9  4  1  0  0  0  0
 10  7  2  0  0  0  0
 11  9  2  0  0  0  0
 12  1  2  0  0  0  0
 12  6  1  0  0  0  0
 13  2  1  0  0  0  0
 14 15  2  0  0  0  0
 15  9  1  0  0  0  0
 16 17  1  0  0  0  0
 16 14  2  0  0  0  0
 18 17  1  0  0  0  0
 19 20  1  0  0  0  0
 19 16  1  0  0  0  0
 20 24  1  0  0  0  0
 21 22  1  0  0  0  0
 22 26  1  1  0  0  0
 22 25  1  0  0  0  0
 23 21  1  0  0  0  0
 23 20  1  0  0  0  0
 24 25  1  0  0  0  0
 28 27  1  0  0  0  0
 29 12  1  0  0  0  0
 30 29  2  0  0  0  0
 32 33  1  0  0  0  0
 33 29  1  0  0  0  0
 34 32  2  0  0  0  0
 35 34  1  0  0  0  0
 35 36  1  0  0  0  0
 36 31  1  0  0  0  0
 36 33  2  0  0  0  0
 38 37  2  0  0  0  0
 38 34  1  0  0  0  0
M  END
>  <MODEL>
7

>  <REMARK>
 VINA RESULT:      -7.9      3.322      7.591
  Name = 
  8 active torsions:
  status: ('A' for Active; 'I' for Inactive)
    1  A    between atoms: N_4  and  S_35
    2  A    between atoms: C_6  and  O_38
    3  A    between atoms: C_10  and  C_23
    4  A    between atoms: C_10  and  C_29
    5  A    between atoms: C_12  and  C_25
    6  A    between atoms: C_18  and  C_28
    7  A    between atoms: C_26  and  C_36
    8  A    between atoms: S_35  and  C_36
                            x       y       z     vdW  Elec       q    Type
                         _______ _______ _______ _____ _____    ______ ____

>  <TORSDO>
F 8

$$$$
=
 OpenBabel10222416213D

 38 42  0  0  1  0  0  0  0  0999 V2000
  188.9720  177.2810  145.5080 C   0  0  0  0  0  3  0  0  0  0  0  0
  185.8230  179.7260  147.4250 N   0  0  0  0  0  1  0  0  0  0  0  0
  185.1300  178.8210  145.1660 C   0  0  0  0  0  0  0  0  0  0  0  0
  183.1230  178.8990  143.6740 C   0  0  0  0  0  0  0  0  0  0  0  0
  183.7570  179.3780  144.9720 C   0  0  0  0  0  3  0  0  0  0  0  0
  186.9960  177.7220  144.6720 N   0  0  0  0  0  0  0  0  0  0  0  0
  187.1450  178.2770  145.8530 C   0  0  0  0  0  0  0  0  0  0  0  0
  185.7670  178.0360  144.2200 C   0  0  2  0  0  3  0  0  0  0  0  0
  183.8160  178.1370  142.7710 C   0  0  0  0  0  0  0  0  0  0  0  0
  188.3350  178.0540  146.4360 N   0  0  0  0  0  0  0  0  0  0  0  0
  185.2040  177.6850  143.0720 C   0  0  0  0  0  3  0  0  0  0  0  0
  188.1360  177.0720  144.4010 C   0  0  0  0  0  0  0  0  0  0  0  0
  186.0220  178.9820  146.2280 C   0  0  0  0  0  0  0  0  0  0  0  0
  183.7810  178.1130  140.3210 C   0  0  0  0  0  0  0  0  0  0  0  0
  183.2350  177.7830  141.4610 C   0  0  0  0  0  3  0  0  0  0  0  0
  184.3230  178.4350  139.1770 C   0  0  0  0  0  0  0  0  0  0  0  0
  185.7960  178.6400  139.0620 C   0  0  0  0  0  2  0  0  0  0  0  0
  186.3170  178.0830  137.7500 C   0  0  0  0  0  1  0  0  0  0  0  0
  183.2770  178.7390  137.7610 S   0  0  0  0  0  0  0  0  0  0  0  0
  182.6960  177.0740  137.7450 N   0  0  0  0  0  0  0  0  0  0  0  0
  180.6500  175.7360  137.6500 C   0  0  0  0  0  2  0  0  0  0  0  0
  181.1910  175.0960  136.3750 C   0  0  1  0  0  3  0  0  0  0  0  0
  181.2370  177.1380  137.7790 C   0  0  0  0  0  2  0  0  0  0  0  0
  183.0980  176.4980  136.4630 C   0  0  0  0  0  2  0  0  0  0  0  0
  182.6530  175.1070  136.3840 N   0  0  0  0  0  2  0  0  0  0  0  0
  180.6970  173.6680  136.2780 C   0  0  0  0  0  1  0  0  0  0  0  0
  180.6430  178.6150  143.8890 C   0  0  0  0  0  1  0  0  0  0  0  0
  181.8000  179.3260  143.4700 O   0  0  0  0  0  0  0  0  0  0  0  0
  188.4340  176.3070  143.1700 C   0  0  0  0  0  0  0  0  0  0  0  0
  188.0500  175.1110  143.0910 O   0  0  0  0  0  0  0  0  0  0  0  0
  191.5690  176.7720  142.9490 C   0  0  0  0  0  1  0  0  0  0  0  0
  188.6130  177.3650  140.8430 C   0  0  0  0  0  3  0  0  0  0  0  0
  189.1670  176.9010  142.0260 C   0  0  0  0  0  0  0  0  0  0  0  0
  189.6960  177.8180  140.1130 C   0  0  0  0  0  0  0  0  0  0  0  0
  190.8180  177.6550  140.7730 O   0  0  0  0  0  0  0  0  0  0  0  0
  190.5360  177.1050  141.9270 C   0  0  0  0  0  0  0  0  0  0  0  0
  189.8820  177.7170  137.7590 O   0  0  0  0  0  0  0  0  0  0  0  0
  189.6090  178.4040  138.7770 C   0  0  0  0  0  3  0  0  0  0  0  0
  1 10  1  0  0  0  0
  3 13  2  0  0  0  0
  4  5  2  0  0  0  0
  5  3  1  0  0  0  0
  6  7  1  0  0  0  0
  7 13  1  0  0  0  0
  7 10  2  0  0  0  0
  8 11  1  6  0  0  0
  8  6  1  0  0  0  0
  8  3  1  0  0  0  0
  9 11  2  0  0  0  0
  9  4  1  0  0  0  0
 12  6  1  0  0  0  0
 12  1  2  0  0  0  0
 13  2  1  0  0  0  0
 14 15  2  0  0  0  0
 15  9  1  0  0  0  0
 16 14  2  0  0  0  0
 17 16  1  0  0  0  0
 18 17  1  0  0  0  0
 19 16  1  0  0  0  0
 20 19  1  0  0  0  0
 20 23  1  0  0  0  0
 21 23  1  0  0  0  0
 22 26  1  1  0  0  0
 22 25  1  0  0  0  0
 22 21  1  0  0  0  0
 24 20  1  0  0  0  0
 25 24  1  0  0  0  0
 28  4  1  0  0  0  0
 28 27  1  0  0  0  0
 29 12  1  0  0  0  0
 30 29  2  0  0  0  0
 32 33  1  0  0  0  0
 33 29  1  0  0  0  0
 34 35  1  0  0  0  0
 34 32  2  0  0  0  0
 35 36  1  0  0  0  0
 36 33  2  0  0  0  0
 36 31  1  0  0  0  0
 37 38  2  0  0  0  0
 38 34  1  0  0  0  0
M  END
>  <MODEL>
8

>  <REMARK>
 VINA RESULT:      -7.9      3.205      6.993
  Name = 
  8 active torsions:
  status: ('A' for Active; 'I' for Inactive)
    1  A    between atoms: N_4  and  S_35
    2  A    between atoms: C_6  and  O_38
    3  A    between atoms: C_10  and  C_23
    4  A    between atoms: C_10  and  C_29
    5  A    between atoms: C_12  and  C_25
    6  A    between atoms: C_18  and  C_28
    7  A    between atoms: C_26  and  C_36
    8  A    between atoms: S_35  and  C_36
                            x       y       z     vdW  Elec       q    Type
                         _______ _______ _______ _____ _____    ______ ____

>  <TORSDO>
F 8

$$$$
=
 OpenBabel10222416213D

 38 42  0  0  1  0  0  0  0  0999 V2000
  191.9420  177.4720  141.1160 C   0  0  0  0  0  3  0  0  0  0  0  0
  190.9410  177.5350  145.4250 N   0  0  0  0  0  1  0  0  0  0  0  0
  188.9030  177.7160  143.9360 C   0  0  0  0  0  0  0  0  0  0  0  0
  186.4230  177.9100  144.2050 C   0  0  0  0  0  0  0  0  0  0  0  0
  187.7720  177.8450  144.9050 C   0  0  0  0  0  3  0  0  0  0  0  0
  189.9310  177.6430  141.9690 N   0  0  0  0  0  0  0  0  0  0  0  0
  190.8400  177.5480  142.9130 C   0  0  0  0  0  0  0  0  0  0  0  0
  188.7280  177.7460  142.5630 C   0  0  2  0  0  3  0  0  0  0  0  0
  186.3200  177.9550  142.8400 C   0  0  0  0  0  0  0  0  0  0  0  0
  192.1040  177.4410  142.4720 N   0  0  0  0  0  0  0  0  0  0  0  0
  187.5390  177.8630  141.9870 C   0  0  0  0  0  3  0  0  0  0  0  0
  190.5810  177.5990  140.7980 C   0  0  0  0  0  0  0  0  0  0  0  0
  190.2730  177.5890  144.1690 C   0  0  0  0  0  0  0  0  0  0  0  0
  184.8930  178.4610  140.9140 C   0  0  0  0  0  0  0  0  0  0  0  0
  185.0160  178.1430  142.1750 C   0  0  0  0  0  3  0  0  0  0  0  0
  184.7610  178.7750  139.6530 C   0  0  0  0  0  0  0  0  0  0  0  0
  185.8090  178.4000  138.6600 C   0  0  0  0  0  2  0  0  0  0  0  0
  185.2330  177.4970  137.5840 C   0  0  0  0  0  1  0  0  0  0  0  0
  183.3640  179.7590  139.1300 S   0  0  0  0  0  0  0  0  0  0  0  0
  182.2190  178.6860  139.9370 N   0  0  0  0  0  0  0  0  0  0  0  0
  179.8280  178.3390  140.3210 C   0  0  0  0  0  2  0  0  0  0  0  0
  179.9750  176.9690  139.6650 C   0  0  1  0  0  3  0  0  0  0  0  0
  180.8930  179.2710  139.7500 C   0  0  0  0  0  2  0  0  0  0  0  0
  182.2600  177.4110  139.2240 C   0  0  0  0  0  2  0  0  0  0  0  0
  181.3350  176.4650  139.8470 N   0  0  0  0  0  2  0  0  0  0  0  0
  178.9900  176.0030  140.2870 C   0  0  0  0  0  1  0  0  0  0  0  0
  185.2960  178.5810  146.3400 C   0  0  0  0  0  1  0  0  0  0  0  0
  185.3120  177.9540  145.0650 O   0  0  0  0  0  0  0  0  0  0  0  0
  189.9670  177.6840  139.4540 C   0  0  0  0  0  0  0  0  0  0  0  0
  189.4240  178.7630  139.1030 O   0  0  0  0  0  0  0  0  0  0  0  0
  192.4920  176.4340  137.9870 C   0  0  0  0  0  1  0  0  0  0  0  0
  188.8690  175.8140  138.0880 C   0  0  0  0  0  3  0  0  0  0  0  0
  189.9720  176.5420  138.5080 C   0  0  0  0  0  0  0  0  0  0  0  0
  189.3900  174.8740  137.2190 C   0  0  0  0  0  0  0  0  0  0  0  0
  190.6910  175.0020  137.1030 O   0  0  0  0  0  0  0  0  0  0  0  0
  191.0730  175.9950  137.8650 C   0  0  0  0  0  0  0  0  0  0  0  0
  187.4080  173.6410  136.8520 O   0  0  0  0  0  0  0  0  0  0  0  0
  188.6000  173.8670  136.5150 C   0  0  0  0  0  3  0  0  0  0  0  0
  1 10  1  0  0  0  0
  3 13  2  0  0  0  0
  3  5  1  0  0  0  0
  4  5  2  0  0  0  0
  4 28  1  0  0  0  0
  6  8  1  0  0  0  0
  6  7  1  0  0  0  0
  7 13  1  0  0  0  0
  8 11  1  1  0  0  0
  8  3  1  0  0  0  0
  9  4  1  0  0  0  0
 10  7  2  0  0  0  0
 11  9  2  0  0  0  0
 12  1  2  0  0  0  0
 12  6  1  0  0  0  0
 13  2  1  0  0  0  0
 14 15  2  0  0  0  0
 15  9  1  0  0  0  0
 16 14  2  0  0  0  0
 17 16  1  0  0  0  0
 18 17  1  0  0  0  0
 19 16  1  0  0  0  0
 19 20  1  0  0  0  0
 22 25  1  0  0  0  0
 22 26  1  1  0  0  0
 22 21  1  0  0  0  0
 23 20  1  0  0  0  0
 23 21  1  0  0  0  0
 24 25  1  0  0  0  0
 24 20  1  0  0  0  0
 28 27  1  0  0  0  0
 29 12  1  0  0  0  0
 30 29  2  0  0  0  0
 32 33  1  0  0  0  0
 33 29  1  0  0  0  0
 34 32  2  0  0  0  0
 35 34  1  0  0  0  0
 35 36  1  0  0  0  0
 36 31  1  0  0  0  0
 36 33  2  0  0  0  0
 38 37  2  0  0  0  0
 38 34  1  0  0  0  0
M  END
>  <MODEL>
9

>  <REMARK>
 VINA RESULT:      -7.9      3.185      7.347
  Name = 
  8 active torsions:
  status: ('A' for Active; 'I' for Inactive)
    1  A    between atoms: N_4  and  S_35
    2  A    between atoms: C_6  and  O_38
    3  A    between atoms: C_10  and  C_23
    4  A    between atoms: C_10  and  C_29
    5  A    between atoms: C_12  and  C_25
    6  A    between atoms: C_18  and  C_28
    7  A    between atoms: C_26  and  C_36
    8  A    between atoms: S_35  and  C_36
                            x       y       z     vdW  Elec       q    Type
                         _______ _______ _______ _____ _____    ______ ____

>  <TORSDO>
F 8

$$$$
