=
 OpenBabel10222419263D

 64 69  0  0  1  0  0  0  0  0999 V2000
  180.8630  177.8090  137.6260 C   0  0  1  0  0  3  0  0  0  0  0  0
  180.7750  180.1450  138.1550 N   0  0  0  0  0  0  0  0  0  0  0  0
  179.9210  179.9170  136.9810 C   0  0  1  0  0  3  0  0  0  0  0  0
  180.5860  180.3140  135.6620 C   0  0  0  0  0  1  0  0  0  0  0  0
  179.6520  178.4270  136.9550 C   0  0  0  0  0  2  0  0  0  0  0  0
  181.6120  178.9470  138.3090 C   0  0  2  0  0  3  0  0  0  0  0  0
  181.5360  181.3950  138.0960 C   0  0  0  0  0  1  0  0  0  0  0  0
  180.3050  176.9280  139.8450 N   0  0  0  0  0  0  0  0  0  0  0  0
  180.5050  176.6910  138.5760 C   0  0  0  0  0  0  0  0  0  0  0  0
  181.2290  173.5090  136.6380 C   0  0  0  0  0  3  0  0  0  0  0  0
  179.5130  174.3720  138.6640 C   0  0  0  0  0  3  0  0  0  0  0  0
  180.2310  171.2210  136.7020 C   0  0  0  0  0  1  0  0  0  0  0  0
  179.4490  173.0520  138.2070 C   0  0  0  0  0  3  0  0  0  0  0  0
  180.4360  175.2770  138.1160 C   0  0  0  0  0  0  0  0  0  0  0  0
  181.2930  174.8280  137.0960 C   0  0  0  0  0  3  0  0  0  0  0  0
  180.3060  172.6220  137.1940 C   0  0  0  0  0  0  0  0  0  0  0  0
  180.3050  178.1720  140.5700 C   0  0  0  0  0  0  0  0  0  0  0  0
  178.9470  179.0710  140.7730 S   0  0  0  0  0  0  0  0  0  0  0  0
  181.4480  178.5150  141.3550 N   0  0  0  0  0  2  0  0  0  0  0  0
  181.3380  178.9850  142.7260 C   0  0  1  0  0  3  0  0  0  0  0  0
  180.2190  178.2740  143.4210 C   0  0  0  0  0  3  0  0  0  0  0  0
  179.5240  178.8680  144.3860 C   0  0  0  0  0  2  0  0  0  0  0  0
  182.6500  178.7330  143.4470 C   0  0  0  0  0  2  0  0  0  0  0  0
  183.4970  179.9100  143.3490 N   0  0  0  0  0  2  0  0  0  0  0  0
  184.8810  179.4700  143.4730 C   0  0  2  0  0  3  0  0  0  0  0  0
  185.4180  179.0570  142.1400 C   0  0  0  0  0  0  0  0  0  0  0  0
  186.4070  179.8090  141.5130 O   0  0  0  0  0  0  0  0  0  0  0  0
  184.9630  178.0290  141.5740 O   0  0  0  0  0  1  0  0  0  0  0  0
  185.0430  178.3640  144.5190 C   0  0  0  0  0  2  0  0  0  0  0  0
  187.5610  177.3630  144.8560 S   0  0  0  0  0  1  0  0  0  0  0  0
  186.2770  178.5360  145.4020 C   0  0  2  0  0  3  0  0  0  0  0  0
  185.4500  179.4450  147.4670 O   0  0  0  0  0  1  0  0  0  0  0  0
  187.1340  177.7860  147.6350 C   0  0  0  0  0  1  0  0  0  0  0  0
  185.9200  178.2760  146.8630 C   0  0  2  0  0  3  0  0  0  0  0  0
  182.8610  179.1050  137.6920 O   0  0  0  0  0  0  0  0  0  0  0  0
  183.1630  177.8460  137.1660 C   0  0  0  0  0  2  0  0  0  0  0  0
  184.5670  177.4500  137.5700 C   0  0  2  0  0  3  0  0  0  0  0  0
  185.3350  178.6850  137.9960 C   0  0  0  0  0  1  0  0  0  0  0  0
  185.2670  176.7950  136.3930 C   0  0  0  0  0  2  0  0  0  0  0  0
  191.7260  176.7000  137.9610 C   0  0  1  0  0  3  0  0  0  0  0  0
  190.6230  176.4810  137.0270 N   0  0  0  0  0  2  0  0  0  0  0  0
  189.0010  176.9640  139.4960 N   0  0  0  0  0  0  0  0  0  0  0  0
  191.3480  176.1980  139.3520 C   0  0  0  0  0  2  0  0  0  0  0  0
  186.7430  176.8430  136.5780 C   0  0  0  0  0  0  0  0  0  0  0  0
  190.3580  177.1520  140.0180 C   0  0  2  0  0  3  0  0  0  0  0  0
  189.6550  177.5510  137.2220 C   0  0  0  0  0  2  0  0  0  0  0  0
  187.4990  176.8060  135.5710 O   0  0  0  0  0  0  0  0  0  0  0  0
  187.2750  176.9260  137.9050 N   0  0  0  0  0  2  0  0  0  0  0  0
  188.6470  177.1400  138.2560 C   0  0  0  0  0  0  0  0  0  0  0  0
  193.0170  176.0130  137.4920 C   0  0  1  0  0  0  0  0  0  0  0  0
  192.8900  173.1830  135.4000 C   0  0  0  0  0  1  0  0  0  0  0  0
  193.7300  176.5200  136.2620 C   0  0  0  0  0  2  0  0  0  0  0  0
  193.7720  175.0820  138.4190 C   0  0  0  0  0  2  0  0  0  0  0  0
  193.8280  175.3200  135.3450 C   0  0  0  0  0  2  0  0  0  0  0  0
  193.6830  174.1260  136.1680 N   0  0  0  0  0  0  0  0  0  0  0  0
  192.8790  174.5150  137.3210 C   0  0  2  0  0  3  0  0  0  0  0  0
  191.1080  179.9110  143.9030 Cl  0  0  0  0  0  0  0  0  0  0  0  0
  190.7070  178.2180  143.5380 C   0  0  2  0  0  3  0  0  0  0  0  0
  191.8050  176.7750  142.0340 C   0  0  0  0  0  2  0  0  0  0  0  0
  191.9340  177.4560  143.3220 N   0  0  0  0  0  0  0  0  0  0  0  0
  190.3880  176.9610  141.5350 C   0  0  1  0  0  3  0  0  0  0  0  0
  189.8650  178.1580  142.2850 C   0  0  0  0  0  2  0  0  0  0  0  0
  190.9390  176.7240  145.4160 C   0  0  0  0  0  1  0  0  0  0  0  0
  191.9770  176.4290  144.3520 C   0  0  0  0  0  2  0  0  0  0  0  0
  1  6  1  0  0  0  0
  1  9  1  1  0  0  0
  2  6  1  0  0  0  0
  3  4  1  6  0  0  0
  3  2  1  0  0  0  0
  5  3  1  0  0  0  0
  5  1  1  0  0  0  0
  6 35  1  6  0  0  0
  7  2  1  0  0  0  0
  8 17  1  0  0  0  0
  9  8  2  0  0  0  0
 10 15  2  0  0  0  0
 10 16  1  0  0  0  0
 12 16  1  0  0  0  0
 13 11  1  0  0  0  0
 14  9  1  0  0  0  0
 14 11  2  0  0  0  0
 15 14  1  0  0  0  0
 16 13  2  0  0  0  0
 17 18  2  0  0  0  0
 17 19  1  0  0  0  0
 19 20  1  0  0  0  0
 20 21  1  1  0  0  0
 20 23  1  0  0  0  0
 21 22  2  0  0  0  0
 24 23  1  0  0  0  0
 24 25  1  0  0  0  0
 25 29  1  1  0  0  0
 26 25  1  0  0  0  0
 27 26  2  0  0  0  0
 28 26  1  0  0  0  0
 29 31  1  0  0  0  0
 31 30  1  6  0  0  0
 31 34  1  0  0  0  0
 34 32  1  0  0  0  0
 34 33  1  1  0  0  0
 36 37  1  0  0  0  0
 36 35  1  0  0  0  0
 37 38  1  6  0  0  0
 39 44  1  0  0  0  0
 39 37  1  0  0  0  0
 40 43  1  1  0  0  0
 41 46  1  0  0  0  0
 41 40  1  0  0  0  0
 42 45  1  0  0  0  0
 44 48  1  0  0  0  0
 45 43  1  6  0  0  0
 45 61  1  0  0  0  0
 46 49  1  0  0  0  0
 47 44  2  0  0  0  0
 48 49  1  0  0  0  0
 49 42  2  0  0  0  0
 50 52  1  6  0  0  0
 50 40  1  0  0  0  0
 50 53  1  0  0  0  0
 51 55  1  0  0  0  0
 54 55  1  0  0  0  0
 54 52  1  0  0  0  0
 55 56  1  0  0  0  0
 56 50  1  0  0  0  0
 56 53  1  1  0  0  0
 58 57  1  6  0  0  0
 59 60  1  0  0  0  0
 60 58  1  0  0  0  0
 60 64  1  0  0  0  0
 61 59  1  1  0  0  0
 61 62  1  0  0  0  0
 62 58  1  0  0  0  0
 64 63  1  0  0  0  0
M  END
>  <MODEL>
1

>  <REMARK>
 VINA RESULT:      -6.7      0.000      0.000
  Name = 
  21 active torsions:
  status: ('A' for Active; 'I' for Inactive)
    1  A    between atoms: C_1  and  C_6
    2  A    between atoms: C_2  and  C_29
    3  A    between atoms: C_2  and  C_38
    4  A    between atoms: C_13  and  C_60
    5  A    between atoms: C_14  and  N_17
    6  A    between atoms: C_14  and  N_39
    7  A    between atoms: C_18  and  CA_54
    8  A    between atoms: C_19  and  C_27
    9  A    between atoms: C_19  and  C_31
   10  A    between atoms: C_19  and  N_39
   11  A    between atoms: N_24  and  C_27
   12  A    between atoms: N_24  and  CA_54
   13  A    between atoms: C_26  and  C_38
   14  A    between atoms: C_26  and  O_40
   15  A    between atoms: C_30  and  C_60
   16  A    between atoms: C_33  and  C_48
   17  A    between atoms: O_40  and  C_61
   18  A    between atoms: N_45  and  C_46
   19  A    between atoms: C_49  and  C_58
   20  A    between atoms: C_50  and  CA_54
   21  A    between atoms: C_50  and  C_58
                            x       y       z     vdW  Elec       q    Type
                         _______ _______ _______ _____ _____    ______ ____

>  <TORSDO>
F 21

$$$$
=
 OpenBabel10222419263D

 64 69  0  0  1  0  0  0  0  0999 V2000
  182.3480  178.8990  137.7060 C   0  0  1  0  0  3  0  0  0  0  0  0
  180.1780  178.4830  138.6370 N   0  0  0  0  0  0  0  0  0  0  0  0
  179.9980  179.2670  137.4080 C   0  0  1  0  0  3  0  0  0  0  0  0
  179.7470  180.7540  137.6690 C   0  0  0  0  0  1  0  0  0  0  0  0
  181.2950  179.1270  136.6390 C   0  0  0  0  0  2  0  0  0  0  0  0
  181.6010  178.5780  138.9950 C   0  0  2  0  0  3  0  0  0  0  0  0
  179.2690  178.8650  139.7190 C   0  0  0  0  0  1  0  0  0  0  0  0
  182.9680  176.6010  137.1190 N   0  0  0  0  0  0  0  0  0  0  0  0
  183.3480  177.8320  137.3300 C   0  0  0  0  0  0  0  0  0  0  0  0
  186.8700  178.8030  138.3590 C   0  0  0  0  0  3  0  0  0  0  0  0
  185.5050  178.0680  136.0380 C   0  0  0  0  0  3  0  0  0  0  0  0
  188.9990  179.0660  137.0800 C   0  0  0  0  0  1  0  0  0  0  0  0
  186.8680  178.3680  135.9820 C   0  0  0  0  0  3  0  0  0  0  0  0
  184.8050  178.1290  137.2540 C   0  0  0  0  0  0  0  0  0  0  0  0
  185.5060  178.5020  138.4140 C   0  0  0  0  0  3  0  0  0  0  0  0
  187.5510  178.7360  137.1420 C   0  0  0  0  0  0  0  0  0  0  0  0
  181.6490  176.0220  137.1210 C   0  0  0  0  0  0  0  0  0  0  0  0
  180.6240  176.1660  135.8480 S   0  0  0  0  0  0  0  0  0  0  0  0
  181.3090  175.0800  138.1390 N   0  0  0  0  0  2  0  0  0  0  0  0
  181.1240  173.6650  137.8620 C   0  0  1  0  0  3  0  0  0  0  0  0
  179.6690  173.3180  137.9350 C   0  0  0  0  0  3  0  0  0  0  0  0
  178.9400  173.6450  138.9970 C   0  0  0  0  0  2  0  0  0  0  0  0
  181.6710  173.3500  136.4820 C   0  0  0  0  0  2  0  0  0  0  0  0
  182.0800  171.9560  136.4240 N   0  0  0  0  0  2  0  0  0  0  0  0
  183.0260  171.8180  135.3240 C   0  0  2  0  0  3  0  0  0  0  0  0
  183.8240  170.5630  135.4770 C   0  0  0  0  0  0  0  0  0  0  0  0
  185.0320  170.4080  134.8050 O   0  0  0  0  0  0  0  0  0  0  0  0
  183.3930  169.6340  136.2080 O   0  0  0  0  0  1  0  0  0  0  0  0
  183.9240  173.0500  135.1780 C   0  0  0  0  0  2  0  0  0  0  0  0
  185.1410  173.1750  137.6190 S   0  0  0  0  0  1  0  0  0  0  0  0
  185.2970  172.8830  135.8270 C   0  0  2  0  0  3  0  0  0  0  0  0
  187.1570  174.3580  136.2020 O   0  0  0  0  0  1  0  0  0  0  0  0
  185.5590  175.0500  134.5940 C   0  0  0  0  0  1  0  0  0  0  0  0
  186.2890  173.8730  135.2210 C   0  0  2  0  0  3  0  0  0  0  0  0
  181.8330  179.6030  139.9220 O   0  0  0  0  0  0  0  0  0  0  0  0
  182.9010  179.1490  140.7010 C   0  0  0  0  0  2  0  0  0  0  0  0
  182.3720  178.5290  141.9770 C   0  0  2  0  0  3  0  0  0  0  0  0
  180.8660  178.3920  141.8820 C   0  0  0  0  0  1  0  0  0  0  0  0
  182.7310  179.4150  143.1570 C   0  0  0  0  0  2  0  0  0  0  0  0
  188.5690  177.2140  145.4510 C   0  0  1  0  0  3  0  0  0  0  0  0
  187.3540  178.0180  145.5770 N   0  0  0  0  0  2  0  0  0  0  0  0
  187.0460  177.2300  142.7060 N   0  0  0  0  0  0  0  0  0  0  0  0
  189.1290  177.3240  144.0350 C   0  0  0  0  0  2  0  0  0  0  0  0
  183.9550  178.9050  143.8320 C   0  0  0  0  0  0  0  0  0  0  0  0
  188.2790  176.5170  143.0560 C   0  0  2  0  0  3  0  0  0  0  0  0
  186.2520  177.2530  145.0100 C   0  0  0  0  0  2  0  0  0  0  0  0
  184.0900  179.0560  145.0750 O   0  0  0  0  0  0  0  0  0  0  0  0
  184.9610  178.2540  143.0480 N   0  0  0  0  0  2  0  0  0  0  0  0
  186.1150  177.5690  143.5490 C   0  0  0  0  0  0  0  0  0  0  0  0
  189.6390  177.6330  146.4690 C   0  0  1  0  0  0  0  0  0  0  0  0
  191.8920  175.2690  147.7870 C   0  0  0  0  0  1  0  0  0  0  0  0
  190.9610  178.1780  145.9830 C   0  0  0  0  0  2  0  0  0  0  0  0
  189.2750  177.8450  147.9240 C   0  0  0  0  0  2  0  0  0  0  0  0
  192.0060  177.2820  146.6090 C   0  0  0  0  0  2  0  0  0  0  0  0
  191.3950  176.6340  147.7620 N   0  0  0  0  0  0  0  0  0  0  0  0
  189.9660  176.5580  147.4840 C   0  0  2  0  0  3  0  0  0  0  0  0
  192.5410  177.7950  141.1910 Cl  0  0  0  0  0  0  0  0  0  0  0  0
  191.1880  176.7140  140.7870 C   0  0  2  0  0  3  0  0  0  0  0  0
  188.8940  177.2440  140.7330 C   0  0  0  0  0  2  0  0  0  0  0  0
  190.1690  177.4550  140.0480 N   0  0  0  0  0  0  0  0  0  0  0  0
  189.0920  176.1920  141.8030 C   0  0  1  0  0  3  0  0  0  0  0  0
  190.5770  176.1730  142.0590 C   0  0  0  0  0  2  0  0  0  0  0  0
  191.4300  176.7750  138.0840 C   0  0  0  0  0  1  0  0  0  0  0  0
  190.0640  176.8320  138.7380 C   0  0  0  0  0  2  0  0  0  0  0  0
  1  9  1  6  0  0  0
  1  6  1  0  0  0  0
  2  6  1  0  0  0  0
  2  7  1  0  0  0  0
  3  4  1  1  0  0  0
  3  2  1  0  0  0  0
  5  3  1  0  0  0  0
  5  1  1  0  0  0  0
  6 35  1  1  0  0  0
  8 17  1  0  0  0  0
  8  9  2  0  0  0  0
 10 15  1  0  0  0  0
 11 14  1  0  0  0  0
 12 16  1  0  0  0  0
 13 11  2  0  0  0  0
 13 16  1  0  0  0  0
 14  9  1  0  0  0  0
 14 15  2  0  0  0  0
 16 10  2  0  0  0  0
 17 19  1  0  0  0  0
 18 17  2  0  0  0  0
 20 23  1  6  0  0  0
 20 21  1  0  0  0  0
 20 19  1  0  0  0  0
 21 22  2  0  0  0  0
 24 23  1  0  0  0  0
 25 29  1  1  0  0  0
 25 26  1  0  0  0  0
 25 24  1  0  0  0  0
 26 28  1  0  0  0  0
 27 26  2  0  0  0  0
 29 31  1  0  0  0  0
 31 30  1  1  0  0  0
 34 33  1  1  0  0  0
 34 31  1  0  0  0  0
 34 32  1  0  0  0  0
 35 36  1  0  0  0  0
 36 37  1  0  0  0  0
 37 38  1  6  0  0  0
 37 39  1  0  0  0  0
 39 44  1  0  0  0  0
 40 43  1  6  0  0  0
 40 41  1  0  0  0  0
 40 50  1  0  0  0  0
 42 45  1  0  0  0  0
 42 49  2  0  0  0  0
 44 47  2  0  0  0  0
 45 43  1  1  0  0  0
 46 41  1  0  0  0  0
 48 49  1  0  0  0  0
 48 44  1  0  0  0  0
 49 46  1  0  0  0  0
 50 52  1  6  0  0  0
 50 56  1  0  0  0  0
 50 53  1  0  0  0  0
 52 54  1  0  0  0  0
 54 55  1  0  0  0  0
 55 51  1  0  0  0  0
 56 55  1  0  0  0  0
 56 53  1  1  0  0  0
 58 57  1  1  0  0  0
 58 62  1  0  0  0  0
 60 59  1  0  0  0  0
 60 58  1  0  0  0  0
 61 59  1  6  0  0  0
 61 62  1  0  0  0  0
 61 45  1  0  0  0  0
 63 64  1  0  0  0  0
 64 60  1  0  0  0  0
M  END
>  <MODEL>
2

>  <REMARK>
 VINA RESULT:      -4.8      2.940      7.861
  Name = 
  21 active torsions:
  status: ('A' for Active; 'I' for Inactive)
    1  A    between atoms: C_1  and  C_6
    2  A    between atoms: C_2  and  C_29
    3  A    between atoms: C_2  and  C_38
    4  A    between atoms: C_13  and  C_60
    5  A    between atoms: C_14  and  N_17
    6  A    between atoms: C_14  and  N_39
    7  A    between atoms: C_18  and  CA_54
    8  A    between atoms: C_19  and  C_27
    9  A    between atoms: C_19  and  C_31
   10  A    between atoms: C_19  and  N_39
   11  A    between atoms: N_24  and  C_27
   12  A    between atoms: N_24  and  CA_54
   13  A    between atoms: C_26  and  C_38
   14  A    between atoms: C_26  and  O_40
   15  A    between atoms: C_30  and  C_60
   16  A    between atoms: C_33  and  C_48
   17  A    between atoms: O_40  and  C_61
   18  A    between atoms: N_45  and  C_46
   19  A    between atoms: C_49  and  C_58
   20  A    between atoms: C_50  and  CA_54
   21  A    between atoms: C_50  and  C_58
                            x       y       z     vdW  Elec       q    Type
                         _______ _______ _______ _____ _____    ______ ____

>  <TORSDO>
F 21

$$$$
=
 OpenBabel10222419263D

 64 69  0  0  1  0  0  0  0  0999 V2000
  182.6200  176.3980  136.6210 C   0  0  1  0  0  3  0  0  0  0  0  0
  180.6760  177.2090  135.4780 N   0  0  0  0  0  0  0  0  0  0  0  0
  181.7500  178.1950  135.2950 C   0  0  1  0  0  3  0  0  0  0  0  0
  181.6240  179.4070  136.2210 C   0  0  0  0  0  1  0  0  0  0  0  0
  183.0340  177.4670  135.6290 C   0  0  0  0  0  2  0  0  0  0  0  0
  181.0990  176.3200  136.5690 C   0  0  2  0  0  3  0  0  0  0  0  0
  179.3550  177.8070  135.6820 C   0  0  0  0  0  1  0  0  0  0  0  0
  184.5820  174.9710  136.2710 N   0  0  0  0  0  0  0  0  0  0  0  0
  183.2830  175.0660  136.3650 C   0  0  0  0  0  0  0  0  0  0  0  0
  181.6350  171.7010  136.9660 C   0  0  0  0  0  3  0  0  0  0  0  0
  181.8430  173.5830  134.9150 C   0  0  0  0  0  3  0  0  0  0  0  0
  180.2350  170.2170  135.5260 C   0  0  0  0  0  1  0  0  0  0  0  0
  181.1100  172.4100  134.7160 C   0  0  0  0  0  3  0  0  0  0  0  0
  182.4810  173.8320  136.1410 C   0  0  0  0  0  0  0  0  0  0  0  0
  182.3680  172.8740  137.1640 C   0  0  0  0  0  3  0  0  0  0  0  0
  181.0060  171.4690  135.7410 C   0  0  0  0  0  0  0  0  0  0  0  0
  185.6020  175.9740  136.4370 C   0  0  0  0  0  0  0  0  0  0  0  0
  185.7470  176.8610  137.8100 S   0  0  0  0  0  0  0  0  0  0  0  0
  186.6770  176.0290  135.4990 N   0  0  0  0  0  2  0  0  0  0  0  0
  187.8990  175.2590  135.6680 C   0  0  1  0  0  3  0  0  0  0  0  0
  187.6680  173.8400  135.2520 C   0  0  0  0  0  3  0  0  0  0  0  0
  187.9820  172.8300  136.0580 C   0  0  0  0  0  2  0  0  0  0  0  0
  189.0010  175.8800  134.8290 C   0  0  0  0  0  2  0  0  0  0  0  0
  190.0090  176.4630  135.6990 N   0  0  0  0  0  2  0  0  0  0  0  0
  190.1190  175.6140  136.8780 C   0  0  2  0  0  3  0  0  0  0  0  0
  189.9380  176.4240  138.1220 C   0  0  0  0  0  0  0  0  0  0  0  0
  190.5410  176.0340  139.3130 O   0  0  0  0  0  1  0  0  0  0  0  0
  189.2230  177.4590  138.0940 O   0  0  0  0  0  0  0  0  0  0  0  0
  191.4310  174.8240  136.9000 C   0  0  0  0  0  2  0  0  0  0  0  0
  191.4840  173.3510  134.6010 S   0  0  0  0  0  1  0  0  0  0  0  0
  192.1320  174.7700  135.5440 C   0  0  2  0  0  3  0  0  0  0  0  0
  193.9650  174.6560  137.0950 O   0  0  0  0  0  1  0  0  0  0  0  0
  194.3810  175.7510  135.0340 C   0  0  0  0  0  1  0  0  0  0  0  0
  193.6400  174.6250  135.7360 C   0  0  2  0  0  3  0  0  0  0  0  0
  180.5790  176.7310  137.8040 O   0  0  0  0  0  0  0  0  0  0  0  0
  181.6900  177.1560  138.5370 C   0  0  0  0  0  2  0  0  0  0  0  0
  181.3330  177.2250  140.0070 C   0  0  2  0  0  3  0  0  0  0  0  0
  179.8320  177.0850  140.1660 C   0  0  0  0  0  1  0  0  0  0  0  0
  181.7840  178.5580  140.5760 C   0  0  0  0  0  2  0  0  0  0  0  0
  188.0750  178.0570  142.6660 C   0  0  1  0  0  3  0  0  0  0  0  0
  187.0460  177.9400  141.6340 N   0  0  0  0  0  2  0  0  0  0  0  0
  185.2440  178.3860  143.9820 N   0  0  0  0  0  0  0  0  0  0  0  0
  187.5560  177.5080  143.9930 C   0  0  0  0  0  2  0  0  0  0  0  0
  183.2390  178.5210  140.8850 C   0  0  0  0  0  0  0  0  0  0  0  0
  186.5590  178.4790  144.6240 C   0  0  2  0  0  3  0  0  0  0  0  0
  186.1160  179.0470  141.8040 C   0  0  0  0  0  2  0  0  0  0  0  0
  184.0760  178.4930  139.9430 O   0  0  0  0  0  0  0  0  0  0  0  0
  183.6600  178.5130  142.2540 N   0  0  0  0  0  2  0  0  0  0  0  0
  185.0050  178.6390  142.7280 C   0  0  0  0  0  0  0  0  0  0  0  0
  189.3660  177.3270  142.2710 C   0  0  1  0  0  0  0  0  0  0  0  0
  191.7650  176.4670  144.7010 C   0  0  0  0  0  1  0  0  0  0  0  0
  189.3720  175.8210  142.1640 C   0  0  0  0  0  2  0  0  0  0  0  0
  190.5190  178.0880  141.6480 C   0  0  0  0  0  2  0  0  0  0  0  0
  190.4710  175.3670  143.0990 C   0  0  0  0  0  2  0  0  0  0  0  0
  191.3660  176.4990  143.3050 N   0  0  0  0  0  0  0  0  0  0  0  0
  190.5610  177.7010  143.1230 C   0  0  2  0  0  3  0  0  0  0  0  0
  186.3210  181.1130  148.6580 Cl  0  0  0  0  0  0  0  0  0  0  0  0
  186.2930  179.3970  148.1920 C   0  0  2  0  0  3  0  0  0  0  0  0
  187.8100  178.2660  146.7890 C   0  0  0  0  0  2  0  0  0  0  0  0
  187.6590  178.8880  148.1040 N   0  0  0  0  0  0  0  0  0  0  0  0
  186.4510  178.2140  146.1260 C   0  0  1  0  0  3  0  0  0  0  0  0
  185.6270  179.2510  146.8440 C   0  0  0  0  0  2  0  0  0  0  0  0
  188.3380  176.5790  148.4540 C   0  0  0  0  0  1  0  0  0  0  0  0
  187.7780  177.8320  149.0980 C   0  0  0  0  0  2  0  0  0  0  0  0
  1  9  1  6  0  0  0
  2  7  1  0  0  0  0
  2  6  1  0  0  0  0
  3  2  1  0  0  0  0
  3  5  1  0  0  0  0
  3  4  1  1  0  0  0
  5  1  1  0  0  0  0
  6  1  1  0  0  0  0
  6 35  1  1  0  0  0
  8  9  2  0  0  0  0
  8 17  1  0  0  0  0
 10 15  1  0  0  0  0
 11 14  1  0  0  0  0
 12 16  1  0  0  0  0
 13 11  2  0  0  0  0
 13 16  1  0  0  0  0
 14  9  1  0  0  0  0
 14 15  2  0  0  0  0
 16 10  2  0  0  0  0
 17 18  2  0  0  0  0
 19 20  1  0  0  0  0
 19 17  1  0  0  0  0
 20 23  1  6  0  0  0
 21 20  1  0  0  0  0
 21 22  2  0  0  0  0
 23 24  1  0  0  0  0
 24 25  1  0  0  0  0
 25 29  1  1  0  0  0
 25 26  1  0  0  0  0
 26 27  1  0  0  0  0
 28 26  2  0  0  0  0
 31 30  1  6  0  0  0
 31 34  1  0  0  0  0
 31 29  1  0  0  0  0
 34 33  1  6  0  0  0
 34 32  1  0  0  0  0
 35 36  1  0  0  0  0
 36 37  1  0  0  0  0
 37 38  1  6  0  0  0
 37 39  1  0  0  0  0
 39 44  1  0  0  0  0
 40 43  1  1  0  0  0
 41 46  1  0  0  0  0
 41 40  1  0  0  0  0
 42 45  1  0  0  0  0
 44 48  1  0  0  0  0
 45 43  1  6  0  0  0
 45 61  1  0  0  0  0
 46 49  1  0  0  0  0
 47 44  2  0  0  0  0
 48 49  1  0  0  0  0
 49 42  2  0  0  0  0
 50 53  1  6  0  0  0
 50 40  1  0  0  0  0
 50 56  1  0  0  0  0
 52 50  1  0  0  0  0
 52 54  1  0  0  0  0
 54 55  1  0  0  0  0
 55 51  1  0  0  0  0
 56 53  1  6  0  0  0
 56 55  1  0  0  0  0
 58 57  1  6  0  0  0
 59 60  1  0  0  0  0
 60 58  1  0  0  0  0
 60 64  1  0  0  0  0
 61 59  1  1  0  0  0
 61 62  1  0  0  0  0
 62 58  1  0  0  0  0
 63 64  1  0  0  0  0
M  END
>  <MODEL>
3

>  <REMARK>
 VINA RESULT:      -4.8      3.003      7.298
  Name = 
  21 active torsions:
  status: ('A' for Active; 'I' for Inactive)
    1  A    between atoms: C_1  and  C_6
    2  A    between atoms: C_2  and  C_29
    3  A    between atoms: C_2  and  C_38
    4  A    between atoms: C_13  and  C_60
    5  A    between atoms: C_14  and  N_17
    6  A    between atoms: C_14  and  N_39
    7  A    between atoms: C_18  and  CA_54
    8  A    between atoms: C_19  and  C_27
    9  A    between atoms: C_19  and  C_31
   10  A    between atoms: C_19  and  N_39
   11  A    between atoms: N_24  and  C_27
   12  A    between atoms: N_24  and  CA_54
   13  A    between atoms: C_26  and  C_38
   14  A    between atoms: C_26  and  O_40
   15  A    between atoms: C_30  and  C_60
   16  A    between atoms: C_33  and  C_48
   17  A    between atoms: O_40  and  C_61
   18  A    between atoms: N_45  and  C_46
   19  A    between atoms: C_49  and  C_58
   20  A    between atoms: C_50  and  CA_54
   21  A    between atoms: C_50  and  C_58
                            x       y       z     vdW  Elec       q    Type
                         _______ _______ _______ _____ _____    ______ ____

>  <TORSDO>
F 21

$$$$
=
 OpenBabel10222419263D

 64 69  0  0  1  0  0  0  0  0999 V2000
  192.9890  175.3910  137.4110 C   0  0  1  0  0  3  0  0  0  0  0  0
  192.6280  174.1650  135.3830 N   0  0  0  0  0  0  0  0  0  0  0  0
  192.7530  175.5860  135.0330 C   0  0  1  0  0  3  0  0  0  0  0  0
  191.4080  176.2680  134.7760 C   0  0  0  0  0  1  0  0  0  0  0  0
  193.4060  176.2460  136.2300 C   0  0  0  0  0  2  0  0  0  0  0  0
  192.4100  174.1040  136.8350 C   0  0  2  0  0  3  0  0  0  0  0  0
  191.6130  173.4530  134.6030 C   0  0  0  0  0  1  0  0  0  0  0  0
  194.2270  175.8530  139.4750 N   0  0  0  0  0  0  0  0  0  0  0  0
  194.1140  175.1420  138.3860 C   0  0  0  0  0  0  0  0  0  0  0  0
  195.8100  171.8000  137.7840 C   0  0  0  0  0  3  0  0  0  0  0  0
  196.5140  174.4960  137.9420 C   0  0  0  0  0  3  0  0  0  0  0  0
  198.1870  171.1540  137.3740 C   0  0  0  0  0  1  0  0  0  0  0  0
  197.4950  173.5300  137.7000 C   0  0  0  0  0  3  0  0  0  0  0  0
  195.1700  174.1290  138.1070 C   0  0  0  0  0  0  0  0  0  0  0  0
  194.8310  172.7670  138.0260 C   0  0  0  0  0  3  0  0  0  0  0  0
  197.1430  172.1820  137.6210 C   0  0  0  0  0  0  0  0  0  0  0  0
  193.3760  176.8860  140.0040 C   0  0  0  0  0  0  0  0  0  0  0  0
  193.3920  178.4210  139.4220 S   0  0  0  0  0  0  0  0  0  0  0  0
  192.3050  176.5220  140.8760 N   0  0  0  0  0  2  0  0  0  0  0  0
  191.2120  177.4270  141.1890 C   0  0  1  0  0  3  0  0  0  0  0  0
  189.9060  176.6990  141.0970 C   0  0  0  0  0  3  0  0  0  0  0  0
  188.7540  177.3620  141.0530 C   0  0  0  0  0  2  0  0  0  0  0  0
  191.4070  177.9830  142.5870 C   0  0  0  0  0  2  0  0  0  0  0  0
  191.9290  176.9420  143.4590 N   0  0  0  0  0  2  0  0  0  0  0  0
  191.2640  177.0710  144.7490 C   0  0  2  0  0  3  0  0  0  0  0  0
  191.9000  176.1680  145.7560 C   0  0  0  0  0  0  0  0  0  0  0  0
  192.1510  176.6170  147.0490 O   0  0  0  0  0  1  0  0  0  0  0  0
  192.2230  174.9960  145.4290 O   0  0  0  0  0  0  0  0  0  0  0  0
  189.7540  176.8340  144.6450 C   0  0  0  0  0  2  0  0  0  0  0  0
  188.7170  177.3160  147.1250 S   0  0  0  0  0  1  0  0  0  0  0  0
  188.9220  177.8690  145.4010 C   0  0  2  0  0  3  0  0  0  0  0  0
  186.6320  178.5590  145.6440 O   0  0  0  0  0  1  0  0  0  0  0  0
  187.0370  176.6900  144.2430 C   0  0  0  0  0  1  0  0  0  0  0  0
  187.5560  178.0300  144.7380 C   0  0  2  0  0  3  0  0  0  0  0  0
  191.0470  174.0370  137.1520 O   0  0  0  0  0  0  0  0  0  0  0  0
  190.7600  175.2580  137.7690 C   0  0  0  0  0  2  0  0  0  0  0  0
  189.5330  175.8750  137.1300 C   0  0  2  0  0  3  0  0  0  0  0  0
  189.3610  177.2910  137.6410 C   0  0  0  0  0  1  0  0  0  0  0  0
  188.3090  175.0510  137.4860 C   0  0  0  0  0  2  0  0  0  0  0  0
  182.3880  177.9990  136.8250 C   0  0  1  0  0  3  0  0  0  0  0  0
  183.7290  177.9150  137.4010 N   0  0  0  0  0  2  0  0  0  0  0  0
  183.6600  175.2260  136.0890 N   0  0  0  0  0  0  0  0  0  0  0  0
  181.7400  176.6180  136.7920 C   0  0  0  0  0  2  0  0  0  0  0  0
  187.0750  175.8690  137.3340 C   0  0  0  0  0  0  0  0  0  0  0  0
  182.3560  175.7610  135.6870 C   0  0  2  0  0  3  0  0  0  0  0  0
  184.6330  177.4440  136.3600 C   0  0  0  0  0  2  0  0  0  0  0  0
  187.0710  177.0690  137.7180 O   0  0  0  0  0  0  0  0  0  0  0  0
  185.9110  175.2690  136.7550 N   0  0  0  0  0  2  0  0  0  0  0  0
  184.7010  175.9440  136.3900 C   0  0  0  0  0  0  0  0  0  0  0  0
  181.4930  178.9760  137.6020 C   0  0  1  0  0  0  0  0  0  0  0  0
  178.9760  177.7840  139.7560 C   0  0  0  0  0  1  0  0  0  0  0  0
  181.9570  179.5190  138.9310 C   0  0  0  0  0  2  0  0  0  0  0  0
  180.3370  179.6720  136.9130 C   0  0  0  0  0  2  0  0  0  0  0  0
  180.8610  179.1530  139.9070 C   0  0  0  0  0  2  0  0  0  0  0  0
  179.6490  178.9100  139.1350 N   0  0  0  0  0  0  0  0  0  0  0  0
  180.0830  178.4680  137.8150 C   0  0  2  0  0  3  0  0  0  0  0  0
  179.2470  172.8610  137.9670 Cl  0  0  0  0  0  0  0  0  0  0  0  0
  179.8070  173.1600  136.3060 C   0  0  2  0  0  3  0  0  0  0  0  0
  182.0310  173.2760  135.5400 C   0  0  0  0  0  2  0  0  0  0  0  0
  181.0020  172.3640  136.0380 N   0  0  0  0  0  0  0  0  0  0  0  0
  181.3980  174.6310  135.3070 C   0  0  1  0  0  3  0  0  0  0  0  0
  180.1430  174.6230  136.1420 C   0  0  0  0  0  2  0  0  0  0  0  0
  180.3510  170.0820  135.5100 C   0  0  0  0  0  1  0  0  0  0  0  0
  180.6680  171.4550  134.9530 C   0  0  0  0  0  2  0  0  0  0  0  0
  1  9  1  1  0  0  0
  2  6  1  0  0  0  0
  3  4  1  1  0  0  0
  3  2  1  0  0  0  0
  3  5  1  0  0  0  0
  5  1  1  0  0  0  0
  6 35  1  6  0  0  0
  6  1  1  0  0  0  0
  7  2  1  0  0  0  0
  8 17  1  0  0  0  0
  9  8  2  0  0  0  0
 10 15  1  0  0  0  0
 11 14  1  0  0  0  0
 12 16  1  0  0  0  0
 13 11  2  0  0  0  0
 14  9  1  0  0  0  0
 15 14  2  0  0  0  0
 16 13  1  0  0  0  0
 16 10  2  0  0  0  0
 17 19  1  0  0  0  0
 18 17  2  0  0  0  0
 19 20  1  0  0  0  0
 20 21  1  1  0  0  0
 20 23  1  0  0  0  0
 22 21  2  0  0  0  0
 23 24  1  0  0  0  0
 24 25  1  0  0  0  0
 25 29  1  6  0  0  0
 25 26  1  0  0  0  0
 26 27  1  0  0  0  0
 28 26  2  0  0  0  0
 29 31  1  0  0  0  0
 31 30  1  1  0  0  0
 34 33  1  1  0  0  0
 34 31  1  0  0  0  0
 34 32  1  0  0  0  0
 35 36  1  0  0  0  0
 37 39  1  0  0  0  0
 37 38  1  1  0  0  0
 37 36  1  0  0  0  0
 40 43  1  1  0  0  0
 40 41  1  0  0  0  0
 40 50  1  0  0  0  0
 42 49  2  0  0  0  0
 44 39  1  0  0  0  0
 44 47  2  0  0  0  0
 45 42  1  0  0  0  0
 45 43  1  1  0  0  0
 46 49  1  0  0  0  0
 46 41  1  0  0  0  0
 48 44  1  0  0  0  0
 49 48  1  0  0  0  0
 50 53  1  6  0  0  0
 50 56  1  0  0  0  0
 50 52  1  0  0  0  0
 52 54  1  0  0  0  0
 55 51  1  0  0  0  0
 55 54  1  0  0  0  0
 56 53  1  6  0  0  0
 56 55  1  0  0  0  0
 58 57  1  1  0  0  0
 59 60  1  0  0  0  0
 60 58  1  0  0  0  0
 61 59  1  1  0  0  0
 61 45  1  0  0  0  0
 61 62  1  0  0  0  0
 62 58  1  0  0  0  0
 64 63  1  0  0  0  0
 64 60  1  0  0  0  0
M  END
>  <MODEL>
4

>  <REMARK>
 VINA RESULT:      -4.6      3.411     11.331
  Name = 
  21 active torsions:
  status: ('A' for Active; 'I' for Inactive)
    1  A    between atoms: C_1  and  C_6
    2  A    between atoms: C_2  and  C_29
    3  A    between atoms: C_2  and  C_38
    4  A    between atoms: C_13  and  C_60
    5  A    between atoms: C_14  and  N_17
    6  A    between atoms: C_14  and  N_39
    7  A    between atoms: C_18  and  CA_54
    8  A    between atoms: C_19  and  C_27
    9  A    between atoms: C_19  and  C_31
   10  A    between atoms: C_19  and  N_39
   11  A    between atoms: N_24  and  C_27
   12  A    between atoms: N_24  and  CA_54
   13  A    between atoms: C_26  and  C_38
   14  A    between atoms: C_26  and  O_40
   15  A    between atoms: C_30  and  C_60
   16  A    between atoms: C_33  and  C_48
   17  A    between atoms: O_40  and  C_61
   18  A    between atoms: N_45  and  C_46
   19  A    between atoms: C_49  and  C_58
   20  A    between atoms: C_50  and  CA_54
   21  A    between atoms: C_50  and  C_58
                            x       y       z     vdW  Elec       q    Type
                         _______ _______ _______ _____ _____    ______ ____

>  <TORSDO>
F 21

$$$$
