=
 OpenBabel10222415553D

 70 76  0  0  1  0  0  0  0  0999 V2000
  187.0540  178.2090  143.0800 C   0  0  1  0  0  3  0  0  0  0  0  0
  185.5710  178.2150  145.0900 C   0  0  0  0  0  0  0  0  0  0  0  0
  185.1720  177.7610  146.4580 C   0  0  0  0  0  2  0  0  0  0  0  0
  187.8750  177.3150  145.3470 C   0  0  0  0  0  3  0  0  0  0  0  0
  184.7700  179.0700  142.8920 C   0  0  0  0  0  0  0  0  0  0  0  0
  185.9130  178.7840  142.3500 N   0  0  0  0  0  0  0  0  0  0  0  0
  184.5540  178.8120  144.2850 N   0  0  0  0  0  2  0  0  0  0  0  0
  186.7740  177.9180  144.5550 C   0  0  0  0  0  0  0  0  0  0  0  0
  186.0020  178.3900  147.5320 C   0  0  0  0  0  3  0  0  0  0  0  0
  188.1080  177.4370  146.6580 C   0  0  0  0  0  3  0  0  0  0  0  0
  187.3210  178.2030  147.6480 C   0  0  0  0  0  0  0  0  0  0  0  0
  188.1280  175.9310  143.2230 C   0  0  0  0  0  1  0  0  0  0  0  0
  187.5830  176.9990  142.2920 C   0  0  2  0  0  3  0  0  0  0  0  0
  188.6310  177.4190  141.2630 C   0  0  0  0  0  2  0  0  0  0  0  0
  189.9210  177.8480  141.8910 C   0  0  0  0  0  0  0  0  0  0  0  0
  189.9300  178.8660  142.6340 O   0  0  0  0  0  0  0  0  0  0  0  0
  191.1620  177.0840  141.6930 C   0  0  0  0  0  0  0  0  0  0  0  0
  191.4620  176.1450  142.4790 O   0  0  0  0  0  0  0  0  0  0  0  0
  192.0690  177.3870  140.5430 C   0  0  0  0  0  2  0  0  0  0  0  0
  191.4770  176.8900  139.2310 C   0  0  0  0  0  2  0  0  0  0  0  0
  192.4290  175.9100  138.5450 C   0  0  2  0  0  3  0  0  0  0  0  0
  193.8460  176.4390  138.6910 C   0  0  0  0  0  1  0  0  0  0  0  0
  193.2560  175.6020  135.9870 O   0  0  0  0  0  0  0  0  0  0  0  0
  192.0010  175.7060  136.8100 S   0  0  0  0  0  0  0  0  0  0  0  0
  191.1900  176.8860  136.3420 O   0  0  0  0  0  0  0  0  0  0  0  0
  191.0570  174.2060  136.5650 C   0  0  1  0  0  3  0  0  0  0  0  0
  189.6220  174.4060  137.0380 C   0  0  0  0  0  2  0  0  0  0  0  0
  191.0930  173.7930  135.0860 C   0  0  2  0  0  3  0  0  0  0  0  0
  188.7590  173.1670  136.7150 C   0  0  2  0  0  3  0  0  0  0  0  0
  189.7330  173.2580  134.6060 C   0  0  0  0  0  2  0  0  0  0  0  0
  189.1660  172.4110  135.5810 O   0  0  0  0  0  0  0  0  0  0  0  0
  187.2480  173.4410  136.7100 C   0  0  2  0  0  0  0  0  0  0  0  0
  186.3010  172.6740  137.5630 C   0  0  0  0  0  2  0  0  0  0  0  0
  186.5520  172.3180  136.2250 O   0  0  0  0  0  0  0  0  0  0  0  0
  186.8150  174.6640  136.0100 N   0  0  0  0  0  2  0  0  0  0  0  0
  186.3100  175.6890  136.9230 C   0  0  2  0  0  3  0  0  0  0  0  0
  184.9140  175.6210  136.9760 O   0  0  0  0  0  1  0  0  0  0  0  0
  187.2240  177.0310  135.0320 C   0  0  0  0  0  1  0  0  0  0  0  0
  186.7700  177.0760  136.4850 C   0  0  2  0  0  3  0  0  0  0  0  0
  188.3080  178.9970  136.9540 C   0  0  0  0  0  1  0  0  0  0  0  0
  187.8850  177.6040  137.3810 C   0  0  0  0  0  2  0  0  0  0  0  0
  192.1170  171.7150  135.7150 O   0  0  0  0  0  1  0  0  0  0  0  0
  192.2100  172.7910  134.8340 C   0  0  0  0  0  2  0  0  0  0  0  0
  188.0220  178.7240  148.7420 O   0  0  0  0  0  0  0  0  0  0  0  0
  189.3570  178.3360  149.0650 C   0  0  0  0  0  1  0  0  0  0  0  0
  183.6670  179.5840  142.0190 C   0  0  0  0  0  2  0  0  0  0  0  0
  182.6900  178.0950  140.2000 N   0  0  0  0  0  2  0  0  0  0  0  0
  183.6850  179.0290  140.6250 C   0  0  0  0  0  0  0  0  0  0  0  0
  184.5580  179.4220  139.8050 O   0  0  0  0  0  0  0  0  0  0  0  0
  181.6360  177.6260  141.0880 C   0  0  0  0  0  2  0  0  0  0  0  0
  179.0360  179.9260  137.8120 N   0  0  0  0  0  2  0  0  0  0  0  0
  180.3660  176.1990  139.4420 C   0  0  1  0  0  3  0  0  0  0  0  0
  180.3210  177.4600  140.3240 C   0  0  2  0  0  3  0  0  0  0  0  0
  180.2630  174.9590  140.3040 C   0  0  0  0  0  1  0  0  0  0  0  0
  180.0040  180.3590  140.2680 S   0  0  0  0  0  0  0  0  0  0  0  0
  179.4420  178.6720  138.3310 C   0  0  0  0  0  0  0  0  0  0  0  0
  179.3040  177.4080  137.5320 C   0  0  0  0  0  2  0  0  0  0  0  0
  179.0580  180.9670  138.8260 C   0  0  1  0  0  3  0  0  0  0  0  0
  179.9710  178.7090  139.5440 C   0  0  0  0  0  0  0  0  0  0  0  0
  179.2120  176.1980  138.4510 C   0  0  0  0  0  2  0  0  0  0  0  0
  179.5140  182.3090  138.2490 C   0  0  0  0  0  2  0  0  0  0  0  0
  180.8380  182.3670  137.4740 C   0  0  2  0  0  0  0  0  0  0  0  0
  181.4460  183.7680  137.6690 C   0  0  0  0  0  2  0  0  0  0  0  0
  180.6440  182.0870  135.9920 C   0  0  0  0  0  0  0  0  0  0  0  0
  179.4870  185.1110  137.2220 O   0  0  0  0  0  1  0  0  0  0  0  0
  180.8690  180.9750  135.5340 O   0  0  0  0  0  0  0  0  0  0  0  0
  180.0970  183.1570  135.0940 C   0  0  0  0  0  2  0  0  0  0  0  0
  180.8330  184.4780  135.3310 C   0  0  0  0  0  2  0  0  0  0  0  0
  180.7990  184.8680  136.8090 C   0  0  2  0  0  3  0  0  0  0  0  0
  181.7250  181.4430  138.0200 O   0  0  0  0  0  1  0  0  0  0  0  0
  1 13  1  6  0  0  0
  1  8  1  0  0  0  0
  2  3  1  0  0  0  0
  3  9  1  0  0  0  0
  4 10  2  0  0  0  0
  5  7  1  0  0  0  0
  6  5  2  0  0  0  0
  6  1  1  0  0  0  0
  7  2  1  0  0  0  0
  8  2  2  0  0  0  0
  8  4  1  0  0  0  0
  9 11  2  0  0  0  0
 10 11  1  0  0  0  0
 11 44  1  0  0  0  0
 13 12  1  1  0  0  0
 14 15  1  0  0  0  0
 14 13  1  0  0  0  0
 15 16  2  0  0  0  0
 17 15  1  0  0  0  0
 17 18  2  0  0  0  0
 19 17  1  0  0  0  0
 20 19  1  0  0  0  0
 21 22  1  6  0  0  0
 21 20  1  0  0  0  0
 23 24  2  0  0  0  0
 24 21  1  0  0  0  0
 25 24  2  0  0  0  0
 26 24  1  6  0  0  0
 26 27  1  0  0  0  0
 28 43  1  1  0  0  0
 28 26  1  0  0  0  0
 29 27  1  6  0  0  0
 30 28  1  0  0  0  0
 30 31  1  0  0  0  0
 31 29  1  0  0  0  0
 32 35  1  6  0  0  0
 32 29  1  0  0  0  0
 32 33  1  0  0  0  0
 34 32  1  0  0  0  0
 34 33  1  0  0  0  0
 35 36  1  0  0  0  0
 36 37  1  6  0  0  0
 39 38  1  6  0  0  0
 39 36  1  0  0  0  0
 39 41  1  0  0  0  0
 40 41  1  0  0  0  0
 43 42  1  0  0  0  0
 44 45  1  0  0  0  0
 46  5  1  0  0  0  0
 47 48  1  0  0  0  0
 47 50  1  0  0  0  0
 48 46  1  0  0  0  0
 49 48  2  0  0  0  0
 51 56  1  0  0  0  0
 51 58  1  0  0  0  0
 52 54  1  1  0  0  0
 52 53  1  0  0  0  0
 53 50  1  6  0  0  0
 56 59  2  0  0  0  0
 57 56  1  0  0  0  0
 57 60  1  0  0  0  0
 58 61  1  6  0  0  0
 58 55  1  0  0  0  0
 59 55  1  0  0  0  0
 59 53  1  0  0  0  0
 60 52  1  0  0  0  0
 62 63  1  0  0  0  0
 62 70  1  1  0  0  0
 62 61  1  0  0  0  0
 64 62  1  0  0  0  0
 66 64  2  0  0  0  0
 67 68  1  0  0  0  0
 67 64  1  0  0  0  0
 68 69  1  0  0  0  0
 69 65  1  1  0  0  0
 69 63  1  0  0  0  0
M  END
>  <MODEL>
1

>  <REMARK>
 VINA RESULT:      -6.5      0.000      0.000
  Name = 
  22 active torsions:
  status: ('A' for Active; 'I' for Inactive)
    1  A    between atoms: C_1  and  S_58
    2  A    between atoms: C_2  and  C_64
    3  A    between atoms: C_4  and  C_41
    4  A    between atoms: C_4  and  N_43
    5  A    between atoms: C_7  and  C_31
    6  A    between atoms: C_7  and  C_45
    7  A    between atoms: C_9  and  C_25
    8  A    between atoms: C_11  and  C_23
    9  A    between atoms: C_11  and  C_32
   10  A    between atoms: C_16  and  C_27
   11  A    between atoms: C_17  and  C_29
   12  A    between atoms: C_19  and  C_54
   13  A    between atoms: N_22  and  C_49
   14  A    between atoms: C_23  and  C_64
   15  A    between atoms: C_25  and  C_50
   16  A    between atoms: C_26  and  C_49
   17  A    between atoms: C_27  and  C_35
   18  A    between atoms: C_29  and  C_60
   19  A    between atoms: C_31  and  C_32
   20  A    between atoms: C_35  and  N_43
   21  A    between atoms: O_39  and  C_70
   22  A    between atoms: C_45  and  S_58
                            x       y       z     vdW  Elec       q    Type
                         _______ _______ _______ _____ _____    ______ ____

>  <TORSDO>
F 22

$$$$
=
 OpenBabel10222415553D

 70 76  0  0  1  0  0  0  0  0999 V2000
  192.9730  174.1110  136.2640 C   0  0  1  0  0  3  0  0  0  0  0  0
  193.2150  171.8510  135.2280 C   0  0  0  0  0  0  0  0  0  0  0  0
  194.0040  170.7440  134.6030 C   0  0  0  0  0  2  0  0  0  0  0  0
  195.2600  172.9420  136.1320 C   0  0  0  0  0  3  0  0  0  0  0  0
  191.0020  172.9870  135.3450 C   0  0  0  0  0  0  0  0  0  0  0  0
  191.5460  174.0140  135.9210 N   0  0  0  0  0  0  0  0  0  0  0  0
  191.8080  171.8580  134.9870 N   0  0  0  0  0  2  0  0  0  0  0  0
  193.8050  172.9010  135.8370 C   0  0  0  0  0  0  0  0  0  0  0  0
  194.7740  169.9530  135.6120 C   0  0  0  0  0  3  0  0  0  0  0  0
  196.0830  171.9120  136.3590 C   0  0  0  0  0  3  0  0  0  0  0  0
  195.7460  170.4720  136.3690 C   0  0  0  0  0  0  0  0  0  0  0  0
  195.0160  175.4030  135.5430 C   0  0  0  0  0  1  0  0  0  0  0  0
  193.5130  175.4550  135.7500 C   0  0  2  0  0  3  0  0  0  0  0  0
  193.1250  176.6040  136.6780 C   0  0  0  0  0  2  0  0  0  0  0  0
  193.0900  176.1990  138.1190 C   0  0  0  0  0  0  0  0  0  0  0  0
  193.2520  174.9840  138.4170 O   0  0  0  0  0  0  0  0  0  0  0  0
  192.9180  177.1910  139.1910 C   0  0  0  0  0  0  0  0  0  0  0  0
  193.9240  177.7200  139.7350 O   0  0  0  0  0  0  0  0  0  0  0  0
  191.5500  177.6080  139.6310 C   0  0  0  0  0  2  0  0  0  0  0  0
  191.2830  177.1850  141.0700 C   0  0  0  0  0  2  0  0  0  0  0  0
  189.7920  176.9270  141.2890 C   0  0  2  0  0  3  0  0  0  0  0  0
  189.0740  178.2640  141.3140 C   0  0  0  0  0  1  0  0  0  0  0  0
  190.5360  174.9280  142.9550 O   0  0  0  0  0  0  0  0  0  0  0  0
  189.5160  176.0260  142.8210 S   0  0  0  0  0  0  0  0  0  0  0  0
  188.1330  175.4300  142.8230 O   0  0  0  0  0  0  0  0  0  0  0  0
  189.6920  177.1130  144.2320 C   0  0  1  0  0  3  0  0  0  0  0  0
  188.3200  177.4930  144.7760 C   0  0  0  0  0  2  0  0  0  0  0  0
  190.5420  176.4370  145.3180 C   0  0  2  0  0  3  0  0  0  0  0  0
  188.4510  178.3230  146.0710 C   0  0  2  0  0  3  0  0  0  0  0  0
  190.0010  176.7200  146.7300 C   0  0  0  0  0  2  0  0  0  0  0  0
  189.6170  178.0720  146.8480 O   0  0  0  0  0  0  0  0  0  0  0  0
  187.1800  178.3450  146.9330 C   0  0  2  0  0  0  0  0  0  0  0  0
  187.0800  179.1580  148.1740 C   0  0  0  0  0  2  0  0  0  0  0  0
  187.4460  177.8000  148.2030 O   0  0  0  0  0  0  0  0  0  0  0  0
  185.9850  177.7220  146.3380 N   0  0  0  0  0  2  0  0  0  0  0  0
  184.8890  178.6700  146.1450 C   0  0  2  0  0  3  0  0  0  0  0  0
  183.8430  178.3590  147.0200 O   0  0  0  0  0  1  0  0  0  0  0  0
  185.0160  179.8300  143.9430 C   0  0  0  0  0  1  0  0  0  0  0  0
  184.4090  178.6550  144.6980 C   0  0  2  0  0  3  0  0  0  0  0  0
  182.4330  179.2490  143.2770 C   0  0  0  0  0  1  0  0  0  0  0  0
  182.8870  178.6900  144.6120 C   0  0  0  0  0  2  0  0  0  0  0  0
  192.1140  178.1530  144.7260 O   0  0  0  0  0  1  0  0  0  0  0  0
  192.0040  176.8430  145.1870 C   0  0  0  0  0  2  0  0  0  0  0  0
  196.5090  169.6540  137.2110 O   0  0  0  0  0  0  0  0  0  0  0  0
  197.2640  170.1610  138.3110 C   0  0  0  0  0  1  0  0  0  0  0  0
  189.5500  173.0470  134.9860 C   0  0  0  0  0  2  0  0  0  0  0  0
  187.6250  174.2680  136.1190 N   0  0  0  0  0  2  0  0  0  0  0  0
  188.6410  173.2640  136.1600 C   0  0  0  0  0  0  0  0  0  0  0  0
  188.7430  172.5260  137.1760 O   0  0  0  0  0  0  0  0  0  0  0  0
  187.4330  175.1320  134.9630 C   0  0  0  0  0  2  0  0  0  0  0  0
  185.4920  178.0680  138.1880 N   0  0  0  0  0  2  0  0  0  0  0  0
  188.9060  176.9780  135.8490 C   0  0  1  0  0  3  0  0  0  0  0  0
  187.4890  176.6050  135.3750 C   0  0  2  0  0  3  0  0  0  0  0  0
  189.8450  177.0580  134.6650 C   0  0  0  0  0  1  0  0  0  0  0  0
  184.6950  176.4680  136.1980 S   0  0  0  0  0  0  0  0  0  0  0  0
  186.6390  177.7490  137.4200 C   0  0  0  0  0  0  0  0  0  0  0  0
  187.9980  178.2760  137.7800 C   0  0  0  0  0  2  0  0  0  0  0  0
  184.2650  177.6340  137.5400 C   0  0  1  0  0  3  0  0  0  0  0  0
  186.4230  176.9370  136.3970 C   0  0  0  0  0  0  0  0  0  0  0  0
  188.8970  178.3270  136.5520 C   0  0  0  0  0  2  0  0  0  0  0  0
  183.2370  177.1300  138.5550 C   0  0  0  0  0  2  0  0  0  0  0  0
  182.7600  178.0860  139.6580 C   0  0  2  0  0  0  0  0  0  0  0  0
  181.4130  177.5660  140.1930 C   0  0  0  0  0  2  0  0  0  0  0  0
  182.6010  179.5100  139.1480 C   0  0  0  0  0  0  0  0  0  0  0  0
  180.2890  177.1570  138.0930 O   0  0  0  0  0  1  0  0  0  0  0  0
  183.4770  180.3420  139.3400 O   0  0  0  0  0  0  0  0  0  0  0  0
  181.3960  179.8830  138.3340 C   0  0  0  0  0  2  0  0  0  0  0  0
  180.1210  179.3750  139.0090 C   0  0  0  0  0  2  0  0  0  0  0  0
  180.2070  177.8740  139.2890 C   0  0  2  0  0  3  0  0  0  0  0  0
  183.6720  178.0580  140.7100 O   0  0  0  0  0  1  0  0  0  0  0  0
  1 13  1  6  0  0  0
  2  8  2  0  0  0  0
  3  2  1  0  0  0  0
  3  9  1  0  0  0  0
  4 10  2  0  0  0  0
  5  6  2  0  0  0  0
  6  1  1  0  0  0  0
  7  2  1  0  0  0  0
  7  5  1  0  0  0  0
  8  4  1  0  0  0  0
  8  1  1  0  0  0  0
  9 11  2  0  0  0  0
 10 11  1  0  0  0  0
 11 44  1  0  0  0  0
 13 12  1  1  0  0  0
 13 14  1  0  0  0  0
 14 15  1  0  0  0  0
 15 16  2  0  0  0  0
 15 17  1  0  0  0  0
 17 19  1  0  0  0  0
 17 18  2  0  0  0  0
 19 20  1  0  0  0  0
 20 21  1  0  0  0  0
 21 22  1  1  0  0  0
 21 24  1  0  0  0  0
 24 25  2  0  0  0  0
 24 23  2  0  0  0  0
 26 24  1  6  0  0  0
 26 27  1  0  0  0  0
 26 28  1  0  0  0  0
 28 43  1  1  0  0  0
 28 30  1  0  0  0  0
 29 27  1  6  0  0  0
 29 31  1  0  0  0  0
 29 32  1  0  0  0  0
 30 31  1  0  0  0  0
 32 35  1  6  0  0  0
 32 33  1  0  0  0  0
 32 34  1  0  0  0  0
 33 34  1  0  0  0  0
 36 35  1  0  0  0  0
 36 37  1  1  0  0  0
 39 38  1  6  0  0  0
 39 36  1  0  0  0  0
 40 41  1  0  0  0  0
 41 39  1  0  0  0  0
 42 43  1  0  0  0  0
 44 45  1  0  0  0  0
 46  5  1  0  0  0  0
 46 48  1  0  0  0  0
 47 48  1  0  0  0  0
 48 49  2  0  0  0  0
 50 47  1  0  0  0  0
 52 54  1  6  0  0  0
 52 60  1  0  0  0  0
 53 50  1  1  0  0  0
 53 52  1  0  0  0  0
 53 59  1  0  0  0  0
 55 59  1  0  0  0  0
 55 58  1  0  0  0  0
 56 57  1  0  0  0  0
 56 51  1  0  0  0  0
 58 51  1  0  0  0  0
 58 61  1  1  0  0  0
 59 56  2  0  0  0  0
 60 57  1  0  0  0  0
 61 62  1  0  0  0  0
 62 63  1  0  0  0  0
 62 70  1  1  0  0  0
 64 66  2  0  0  0  0
 64 62  1  0  0  0  0
 67 68  1  0  0  0  0
 67 64  1  0  0  0  0
 68 69  1  0  0  0  0
 69 65  1  6  0  0  0
 69 63  1  0  0  0  0
M  END
>  <MODEL>
2

>  <REMARK>
 VINA RESULT:      -5.9      2.815      9.722
  Name = 
  22 active torsions:
  status: ('A' for Active; 'I' for Inactive)
    1  A    between atoms: C_1  and  S_58
    2  A    between atoms: C_2  and  C_64
    3  A    between atoms: C_4  and  C_41
    4  A    between atoms: C_4  and  N_43
    5  A    between atoms: C_7  and  C_31
    6  A    between atoms: C_7  and  C_45
    7  A    between atoms: C_9  and  C_25
    8  A    between atoms: C_11  and  C_23
    9  A    between atoms: C_11  and  C_32
   10  A    between atoms: C_16  and  C_27
   11  A    between atoms: C_17  and  C_29
   12  A    between atoms: C_19  and  C_54
   13  A    between atoms: N_22  and  C_49
   14  A    between atoms: C_23  and  C_64
   15  A    between atoms: C_25  and  C_50
   16  A    between atoms: C_26  and  C_49
   17  A    between atoms: C_27  and  C_35
   18  A    between atoms: C_29  and  C_60
   19  A    between atoms: C_31  and  C_32
   20  A    between atoms: C_35  and  N_43
   21  A    between atoms: O_39  and  C_70
   22  A    between atoms: C_45  and  S_58
                            x       y       z     vdW  Elec       q    Type
                         _______ _______ _______ _____ _____    ______ ____

>  <TORSDO>
F 22

$$$$
=
 OpenBabel10222415553D

 70 76  0  0  1  0  0  0  0  0999 V2000
  193.1340  174.2460  136.4990 C   0  0  1  0  0  3  0  0  0  0  0  0
  193.3540  172.0750  135.2850 C   0  0  0  0  0  0  0  0  0  0  0  0
  194.1360  171.0030  134.5940 C   0  0  0  0  0  2  0  0  0  0  0  0
  195.3940  173.0290  136.3410 C   0  0  0  0  0  3  0  0  0  0  0  0
  191.1670  173.2590  135.4260 C   0  0  0  0  0  0  0  0  0  0  0  0
  191.7170  174.2180  136.1040 N   0  0  0  0  0  0  0  0  0  0  0  0
  191.9570  172.1410  135.0010 N   0  0  0  0  0  2  0  0  0  0  0  0
  193.9500  173.0540  135.9980 C   0  0  0  0  0  0  0  0  0  0  0  0
  194.8510  170.1090  135.5560 C   0  0  0  0  0  3  0  0  0  0  0  0
  196.1820  171.9610  136.5070 C   0  0  0  0  0  3  0  0  0  0  0  0
  195.8090  170.5350  136.3850 C   0  0  0  0  0  0  0  0  0  0  0  0
  195.2320  175.5350  135.9510 C   0  0  0  0  0  1  0  0  0  0  0  0
  193.7250  175.6140  136.1180 C   0  0  2  0  0  3  0  0  0  0  0  0
  193.3380  176.6900  137.1290 C   0  0  0  0  0  2  0  0  0  0  0  0
  193.5400  176.2540  138.5470 C   0  0  0  0  0  0  0  0  0  0  0  0
  193.8920  175.0650  138.7760 O   0  0  0  0  0  0  0  0  0  0  0  0
  193.3810  177.1920  139.6690 C   0  0  0  0  0  0  0  0  0  0  0  0
  194.3880  177.5840  140.3170 O   0  0  0  0  0  0  0  0  0  0  0  0
  192.0290  177.7170  140.0370 C   0  0  0  0  0  2  0  0  0  0  0  0
  191.6100  177.2330  141.4190 C   0  0  0  0  0  2  0  0  0  0  0  0
  190.1720  176.7150  141.3970 C   0  0  2  0  0  3  0  0  0  0  0  0
  189.2470  177.8850  141.1110 C   0  0  0  0  0  1  0  0  0  0  0  0
  190.8790  175.0510  143.4110 O   0  0  0  0  0  0  0  0  0  0  0  0
  189.7470  175.9350  142.9610 S   0  0  0  0  0  0  0  0  0  0  0  0
  188.5000  175.1070  142.7970 O   0  0  0  0  0  0  0  0  0  0  0  0
  189.4760  177.1680  144.2290 C   0  0  1  0  0  3  0  0  0  0  0  0
  187.9870  177.4600  144.3660 C   0  0  0  0  0  2  0  0  0  0  0  0
  190.0650  176.6920  145.5650 C   0  0  2  0  0  3  0  0  0  0  0  0
  187.7210  178.4230  145.5430 C   0  0  2  0  0  3  0  0  0  0  0  0
  189.1610  177.0580  146.7540 C   0  0  0  0  0  2  0  0  0  0  0  0
  188.6620  178.3680  146.6080 O   0  0  0  0  0  0  0  0  0  0  0  0
  186.2730  178.4020  146.0550 C   0  0  2  0  0  0  0  0  0  0  0  0
  185.8990  178.9370  147.3920 C   0  0  0  0  0  2  0  0  0  0  0  0
  186.1700  177.5710  147.1860 O   0  0  0  0  0  0  0  0  0  0  0  0
  185.2400  178.0590  145.0610 N   0  0  0  0  0  2  0  0  0  0  0  0
  185.1610  179.0300  143.9700 C   0  0  2  0  0  3  0  0  0  0  0  0
  184.4990  180.1790  144.4150 O   0  0  0  0  0  1  0  0  0  0  0  0
  185.0150  179.0300  141.4820 C   0  0  0  0  0  1  0  0  0  0  0  0
  184.4510  178.4280  142.7620 C   0  0  2  0  0  3  0  0  0  0  0  0
  182.3290  178.6520  141.4490 C   0  0  0  0  0  1  0  0  0  0  0  0
  182.9420  178.6410  142.8370 C   0  0  0  0  0  2  0  0  0  0  0  0
  191.9590  176.9240  147.0230 O   0  0  0  0  0  1  0  0  0  0  0  0
  191.4780  177.2270  145.7500 C   0  0  0  0  0  2  0  0  0  0  0  0
  196.5230  169.6290  137.1780 O   0  0  0  0  0  0  0  0  0  0  0  0
  197.9460  169.6410  137.2830 C   0  0  0  0  0  1  0  0  0  0  0  0
  189.7300  173.3890  135.0280 C   0  0  0  0  0  2  0  0  0  0  0  0
  187.5610  174.1220  136.1410 N   0  0  0  0  0  2  0  0  0  0  0  0
  188.7740  173.3670  136.1840 C   0  0  0  0  0  0  0  0  0  0  0  0
  189.0180  172.6410  137.1850 O   0  0  0  0  0  0  0  0  0  0  0  0
  187.2050  174.9540  135.0010 C   0  0  0  0  0  2  0  0  0  0  0  0
  183.7010  177.3410  137.1940 N   0  0  0  0  0  2  0  0  0  0  0  0
  187.8970  176.8580  136.5030 C   0  0  1  0  0  3  0  0  0  0  0  0
  186.8770  176.3780  135.4530 C   0  0  2  0  0  3  0  0  0  0  0  0
  189.2250  177.1510  135.8390 C   0  0  0  0  0  1  0  0  0  0  0  0
  184.0440  175.8590  134.9940 S   0  0  0  0  0  0  0  0  0  0  0  0
  185.0960  177.2230  136.9800 C   0  0  0  0  0  0  0  0  0  0  0  0
  186.0910  177.8600  137.9080 C   0  0  0  0  0  2  0  0  0  0  0  0
  182.9330  176.8380  136.0670 C   0  0  1  0  0  3  0  0  0  0  0  0
  185.4460  176.4930  135.9320 C   0  0  0  0  0  0  0  0  0  0  0  0
  187.4060  178.1250  137.1860 C   0  0  0  0  0  2  0  0  0  0  0  0
  181.6560  176.1310  136.5230 C   0  0  0  0  0  2  0  0  0  0  0  0
  181.7150  175.2280  137.7640 C   0  0  2  0  0  0  0  0  0  0  0  0
  181.6770  173.7630  137.2920 C   0  0  0  0  0  2  0  0  0  0  0  0
  180.5630  175.4950  138.7190 C   0  0  0  0  0  0  0  0  0  0  0  0
  179.8370  173.9010  135.7310 O   0  0  0  0  0  1  0  0  0  0  0  0
  180.7220  176.2040  139.7030 O   0  0  0  0  0  0  0  0  0  0  0  0
  179.1970  174.9510  138.4150 C   0  0  0  0  0  2  0  0  0  0  0  0
  179.2880  173.4720  138.0330 C   0  0  0  0  0  2  0  0  0  0  0  0
  180.2800  173.2590  136.8900 C   0  0  2  0  0  3  0  0  0  0  0  0
  182.9290  175.4300  138.4150 O   0  0  0  0  0  1  0  0  0  0  0  0
  1 13  1  6  0  0  0
  2  8  2  0  0  0  0
  3  2  1  0  0  0  0
  3  9  1  0  0  0  0
  4 10  2  0  0  0  0
  5  6  2  0  0  0  0
  6  1  1  0  0  0  0
  7  2  1  0  0  0  0
  7  5  1  0  0  0  0
  8  4  1  0  0  0  0
  8  1  1  0  0  0  0
  9 11  2  0  0  0  0
 11 10  1  0  0  0  0
 11 44  1  0  0  0  0
 13 12  1  1  0  0  0
 13 14  1  0  0  0  0
 14 15  1  0  0  0  0
 15 16  2  0  0  0  0
 15 17  1  0  0  0  0
 17 19  1  0  0  0  0
 17 18  2  0  0  0  0
 19 20  1  0  0  0  0
 21 22  1  1  0  0  0
 21 20  1  0  0  0  0
 21 24  1  0  0  0  0
 24 23  2  0  0  0  0
 25 24  2  0  0  0  0
 26 24  1  6  0  0  0
 26 27  1  0  0  0  0
 26 28  1  0  0  0  0
 28 43  1  1  0  0  0
 28 30  1  0  0  0  0
 29 27  1  6  0  0  0
 29 32  1  0  0  0  0
 29 31  1  0  0  0  0
 31 30  1  0  0  0  0
 32 35  1  6  0  0  0
 32 34  1  0  0  0  0
 32 33  1  0  0  0  0
 34 33  1  0  0  0  0
 36 37  1  1  0  0  0
 36 35  1  0  0  0  0
 39 38  1  6  0  0  0
 39 41  1  0  0  0  0
 39 36  1  0  0  0  0
 40 41  1  0  0  0  0
 43 42  1  0  0  0  0
 44 45  1  0  0  0  0
 46  5  1  0  0  0  0
 46 48  1  0  0  0  0
 47 48  1  0  0  0  0
 48 49  2  0  0  0  0
 50 47  1  0  0  0  0
 52 54  1  6  0  0  0
 52 60  1  0  0  0  0
 53 50  1  1  0  0  0
 53 59  1  0  0  0  0
 53 52  1  0  0  0  0
 55 59  1  0  0  0  0
 55 58  1  0  0  0  0
 56 51  1  0  0  0  0
 56 57  1  0  0  0  0
 58 61  1  1  0  0  0
 58 51  1  0  0  0  0
 59 56  2  0  0  0  0
 60 57  1  0  0  0  0
 61 62  1  0  0  0  0
 62 70  1  1  0  0  0
 62 64  1  0  0  0  0
 63 62  1  0  0  0  0
 64 66  2  0  0  0  0
 67 64  1  0  0  0  0
 68 67  1  0  0  0  0
 69 65  1  6  0  0  0
 69 63  1  0  0  0  0
 69 68  1  0  0  0  0
M  END
>  <MODEL>
3

>  <REMARK>
 VINA RESULT:      -5.5      3.493      9.791
  Name = 
  22 active torsions:
  status: ('A' for Active; 'I' for Inactive)
    1  A    between atoms: C_1  and  S_58
    2  A    between atoms: C_2  and  C_64
    3  A    between atoms: C_4  and  C_41
    4  A    between atoms: C_4  and  N_43
    5  A    between atoms: C_7  and  C_31
    6  A    between atoms: C_7  and  C_45
    7  A    between atoms: C_9  and  C_25
    8  A    between atoms: C_11  and  C_23
    9  A    between atoms: C_11  and  C_32
   10  A    between atoms: C_16  and  C_27
   11  A    between atoms: C_17  and  C_29
   12  A    between atoms: C_19  and  C_54
   13  A    between atoms: N_22  and  C_49
   14  A    between atoms: C_23  and  C_64
   15  A    between atoms: C_25  and  C_50
   16  A    between atoms: C_26  and  C_49
   17  A    between atoms: C_27  and  C_35
   18  A    between atoms: C_29  and  C_60
   19  A    between atoms: C_31  and  C_32
   20  A    between atoms: C_35  and  N_43
   21  A    between atoms: O_39  and  C_70
   22  A    between atoms: C_45  and  S_58
                            x       y       z     vdW  Elec       q    Type
                         _______ _______ _______ _____ _____    ______ ____

>  <TORSDO>
F 22

$$$$
=
 OpenBabel10222415553D

 70 76  0  0  1  0  0  0  0  0999 V2000
  187.6500  176.5680  137.8500 C   0  0  1  0  0  3  0  0  0  0  0  0
  188.7170  176.1940  135.6220 C   0  0  0  0  0  0  0  0  0  0  0  0
  189.7820  176.4160  134.5960 C   0  0  0  0  0  2  0  0  0  0  0  0
  190.1260  177.1350  137.4430 C   0  0  0  0  0  3  0  0  0  0  0  0
  186.3160  175.6560  136.0110 C   0  0  0  0  0  0  0  0  0  0  0  0
  186.4100  176.0670  137.2370 N   0  0  0  0  0  0  0  0  0  0  0  0
  187.4660  175.6880  135.1560 N   0  0  0  0  0  2  0  0  0  0  0  0
  188.8460  176.6180  136.8970 C   0  0  0  0  0  0  0  0  0  0  0  0
  191.0370  175.6620  134.9050 C   0  0  0  0  0  3  0  0  0  0  0  0
  191.3700  176.8220  137.0620 C   0  0  0  0  0  3  0  0  0  0  0  0
  191.7780  175.8820  135.9960 C   0  0  0  0  0  0  0  0  0  0  0  0
  187.6170  177.8190  140.0400 C   0  0  0  0  0  1  0  0  0  0  0  0
  187.3510  177.9040  138.5480 C   0  0  2  0  0  3  0  0  0  0  0  0
  185.9240  178.3720  138.2690 C   0  0  0  0  0  2  0  0  0  0  0  0
  184.9810  178.0580  139.3890 C   0  0  0  0  0  0  0  0  0  0  0  0
  184.1540  177.1170  139.2450 O   0  0  0  0  0  0  0  0  0  0  0  0
  185.0310  178.7910  140.6620 C   0  0  0  0  0  0  0  0  0  0  0  0
  185.5890  179.9190  140.7250 O   0  0  0  0  0  0  0  0  0  0  0  0
  184.3950  178.2250  141.8930 C   0  0  0  0  0  2  0  0  0  0  0  0
  184.9570  178.8770  143.1500 C   0  0  0  0  0  2  0  0  0  0  0  0
  184.3570  178.2380  144.4030 C   0  0  2  0  0  3  0  0  0  0  0  0
  182.8980  178.6500  144.4990 C   0  0  0  0  0  1  0  0  0  0  0  0
  184.4290  178.4680  147.0990 O   0  0  0  0  0  0  0  0  0  0  0  0
  185.2590  178.7450  145.8750 S   0  0  0  0  0  0  0  0  0  0  0  0
  185.5720  180.2160  145.8030 O   0  0  0  0  0  0  0  0  0  0  0  0
  186.7860  177.8240  146.0280 C   0  0  1  0  0  3  0  0  0  0  0  0
  187.7150  178.1520  144.8660 C   0  0  0  0  0  2  0  0  0  0  0  0
  187.4610  178.1370  147.3720 C   0  0  2  0  0  3  0  0  0  0  0  0
  189.0870  177.4690  145.0470 C   0  0  2  0  0  3  0  0  0  0  0  0
  188.9880  178.2530  147.2340 C   0  0  0  0  0  2  0  0  0  0  0  0
  189.4850  177.2360  146.3940 O   0  0  0  0  0  0  0  0  0  0  0  0
  190.2150  178.0970  144.2160 C   0  0  2  0  0  0  0  0  0  0  0  0
  190.5210  179.5520  144.2700 C   0  0  0  0  0  2  0  0  0  0  0  0
  189.6820  179.0040  143.2820 O   0  0  0  0  0  0  0  0  0  0  0  0
  191.1380  177.1540  143.5600 N   0  0  0  0  0  2  0  0  0  0  0  0
  190.5250  176.4560  142.4310 C   0  0  2  0  0  3  0  0  0  0  0  0
  190.7160  175.0780  142.5740 O   0  0  0  0  0  1  0  0  0  0  0  0
  190.6990  176.0080  139.9850 C   0  0  0  0  0  1  0  0  0  0  0  0
  191.1060  176.9510  141.1110 C   0  0  2  0  0  3  0  0  0  0  0  0
  193.1980  177.4600  139.8290 C   0  0  0  0  0  1  0  0  0  0  0  0
  192.6240  177.0800  141.1810 C   0  0  0  0  0  2  0  0  0  0  0  0
  187.6400  177.4180  149.6550 O   0  0  0  0  0  1  0  0  0  0  0  0
  187.0700  177.1070  148.4220 C   0  0  0  0  0  2  0  0  0  0  0  0
  193.0030  175.2270  136.1700 O   0  0  0  0  0  0  0  0  0  0  0  0
  193.2110  174.2210  137.1610 C   0  0  0  0  0  1  0  0  0  0  0  0
  184.9750  175.2390  135.4910 C   0  0  0  0  0  2  0  0  0  0  0  0
  183.7580  173.2080  136.4270 N   0  0  0  0  0  2  0  0  0  0  0  0
  184.7370  173.7590  135.5430 C   0  0  0  0  0  0  0  0  0  0  0  0
  185.3730  172.9940  134.7690 O   0  0  0  0  0  0  0  0  0  0  0  0
  182.9670  174.0400  137.3230 C   0  0  0  0  0  2  0  0  0  0  0  0
  179.3560  176.8960  136.0620 N   0  0  0  0  0  2  0  0  0  0  0  0
  181.2760  173.0880  135.7120 C   0  0  1  0  0  3  0  0  0  0  0  0
  181.4800  173.9470  136.9740 C   0  0  2  0  0  3  0  0  0  0  0  0
  181.5060  171.6280  136.0360 C   0  0  0  0  0  1  0  0  0  0  0  0
  181.0610  176.6030  138.1020 S   0  0  0  0  0  0  0  0  0  0  0  0
  179.9520  175.6190  135.9310 C   0  0  0  0  0  0  0  0  0  0  0  0
  179.6040  174.7000  134.7940 C   0  0  0  0  0  2  0  0  0  0  0  0
  179.6730  177.5170  137.3380 C   0  0  1  0  0  3  0  0  0  0  0  0
  180.8500  175.3180  136.8570 C   0  0  0  0  0  0  0  0  0  0  0  0
  179.8610  173.2490  135.1780 C   0  0  0  0  0  2  0  0  0  0  0  0
  179.8670  179.0280  137.2000 C   0  0  0  0  0  2  0  0  0  0  0  0
  179.8250  179.8960  138.4660 C   0  0  2  0  0  0  0  0  0  0  0  0
  179.2780  181.2820  138.0800 C   0  0  0  0  0  2  0  0  0  0  0  0
  181.1980  180.0390  139.1040 C   0  0  0  0  0  0  0  0  0  0  0  0
  180.6280  181.7040  136.1210 O   0  0  0  0  0  1  0  0  0  0  0  0
  181.5180  179.3420  140.0570 O   0  0  0  0  0  0  0  0  0  0  0  0
  182.2010  180.9870  138.5140 C   0  0  0  0  0  2  0  0  0  0  0  0
  181.5540  182.3470  138.2460 C   0  0  0  0  0  2  0  0  0  0  0  0
  180.2990  182.1980  137.3850 C   0  0  2  0  0  3  0  0  0  0  0  0
  178.9360  179.3290  139.3760 O   0  0  0  0  0  1  0  0  0  0  0  0
  1 13  1  6  0  0  0
  2  8  2  0  0  0  0
  3  9  1  0  0  0  0
  3  2  1  0  0  0  0
  5  6  2  0  0  0  0
  6  1  1  0  0  0  0
  7  2  1  0  0  0  0
  7  5  1  0  0  0  0
  8  4  1  0  0  0  0
  8  1  1  0  0  0  0
  9 11  2  0  0  0  0
 10  4  2  0  0  0  0
 11 44  1  0  0  0  0
 11 10  1  0  0  0  0
 13 12  1  1  0  0  0
 14 13  1  0  0  0  0
 14 15  1  0  0  0  0
 15 17  1  0  0  0  0
 16 15  2  0  0  0  0
 17 18  2  0  0  0  0
 17 19  1  0  0  0  0
 19 20  1  0  0  0  0
 20 21  1  0  0  0  0
 21 22  1  1  0  0  0
 21 24  1  0  0  0  0
 24 23  2  0  0  0  0
 25 24  2  0  0  0  0
 26 24  1  6  0  0  0
 26 28  1  0  0  0  0
 27 26  1  0  0  0  0
 28 43  1  1  0  0  0
 29 27  1  1  0  0  0
 29 31  1  0  0  0  0
 30 28  1  0  0  0  0
 31 30  1  0  0  0  0
 32 35  1  6  0  0  0
 32 33  1  0  0  0  0
 32 29  1  0  0  0  0
 34 32  1  0  0  0  0
 34 33  1  0  0  0  0
 36 37  1  1  0  0  0
 36 35  1  0  0  0  0
 39 38  1  6  0  0  0
 39 41  1  0  0  0  0
 39 36  1  0  0  0  0
 40 41  1  0  0  0  0
 43 42  1  0  0  0  0
 44 45  1  0  0  0  0
 46 48  1  0  0  0  0
 46  5  1  0  0  0  0
 47 50  1  0  0  0  0
 48 47  1  0  0  0  0
 49 48  2  0  0  0  0
 51 58  1  0  0  0  0
 52 54  1  1  0  0  0
 52 53  1  0  0  0  0
 53 50  1  6  0  0  0
 56 51  1  0  0  0  0
 56 59  2  0  0  0  0
 57 60  1  0  0  0  0
 57 56  1  0  0  0  0
 58 61  1  6  0  0  0
 58 55  1  0  0  0  0
 59 53  1  0  0  0  0
 59 55  1  0  0  0  0
 60 52  1  0  0  0  0
 61 62  1  0  0  0  0
 62 64  1  0  0  0  0
 62 70  1  1  0  0  0
 63 62  1  0  0  0  0
 64 66  2  0  0  0  0
 67 64  1  0  0  0  0
 68 67  1  0  0  0  0
 69 65  1  6  0  0  0
 69 63  1  0  0  0  0
 69 68  1  0  0  0  0
M  END
>  <MODEL>
4

>  <REMARK>
 VINA RESULT:      -5.1      2.738      8.488
  Name = 
  22 active torsions:
  status: ('A' for Active; 'I' for Inactive)
    1  A    between atoms: C_1  and  S_58
    2  A    between atoms: C_2  and  C_64
    3  A    between atoms: C_4  and  C_41
    4  A    between atoms: C_4  and  N_43
    5  A    between atoms: C_7  and  C_31
    6  A    between atoms: C_7  and  C_45
    7  A    between atoms: C_9  and  C_25
    8  A    between atoms: C_11  and  C_23
    9  A    between atoms: C_11  and  C_32
   10  A    between atoms: C_16  and  C_27
   11  A    between atoms: C_17  and  C_29
   12  A    between atoms: C_19  and  C_54
   13  A    between atoms: N_22  and  C_49
   14  A    between atoms: C_23  and  C_64
   15  A    between atoms: C_25  and  C_50
   16  A    between atoms: C_26  and  C_49
   17  A    between atoms: C_27  and  C_35
   18  A    between atoms: C_29  and  C_60
   19  A    between atoms: C_31  and  C_32
   20  A    between atoms: C_35  and  N_43
   21  A    between atoms: O_39  and  C_70
   22  A    between atoms: C_45  and  S_58
                            x       y       z     vdW  Elec       q    Type
                         _______ _______ _______ _____ _____    ______ ____

>  <TORSDO>
F 22

$$$$
=
 OpenBabel10222415553D

 70 76  0  0  1  0  0  0  0  0999 V2000
  182.2190  179.2030  138.8810 C   0  0  1  0  0  3  0  0  0  0  0  0
  181.0640  179.2520  136.6670 C   0  0  0  0  0  0  0  0  0  0  0  0
  179.9380  179.6230  135.7540 C   0  0  0  0  0  2  0  0  0  0  0  0
  180.3570  180.9060  138.3850 C   0  0  0  0  0  3  0  0  0  0  0  0
  182.8580  177.5930  137.1510 C   0  0  0  0  0  0  0  0  0  0  0  0
  182.9890  178.0670  138.3510 N   0  0  0  0  0  0  0  0  0  0  0  0
  181.9030  178.1730  136.2540 N   0  0  0  0  0  2  0  0  0  0  0  0
  181.1870  179.7720  137.9060 C   0  0  0  0  0  0  0  0  0  0  0  0
  179.9920  181.0580  135.3380 C   0  0  0  0  0  3  0  0  0  0  0  0
  179.8050  181.8850  137.6590 C   0  0  0  0  0  3  0  0  0  0  0  0
  179.8820  182.0780  136.1950 C   0  0  0  0  0  0  0  0  0  0  0  0
  180.5240  177.7860  140.1000 C   0  0  0  0  0  1  0  0  0  0  0  0
  181.6370  178.8080  140.2490 C   0  0  2  0  0  3  0  0  0  0  0  0
  181.1600  180.0330  141.0260 C   0  0  0  0  0  2  0  0  0  0  0  0
  180.1370  179.6980  142.0670 C   0  0  0  0  0  0  0  0  0  0  0  0
  178.9340  180.0150  141.8650 O   0  0  0  0  0  0  0  0  0  0  0  0
  180.4990  178.9700  143.2920 C   0  0  0  0  0  0  0  0  0  0  0  0
  179.7000  178.1360  143.7960 O   0  0  0  0  0  0  0  0  0  0  0  0
  181.8300  179.1840  143.9410 C   0  0  0  0  0  2  0  0  0  0  0  0
  182.8280  178.1150  143.5130 C   0  0  0  0  0  2  0  0  0  0  0  0
  183.7130  178.6270  142.3760 C   0  0  2  0  0  3  0  0  0  0  0  0
  183.9830  177.4740  141.4240 C   0  0  0  0  0  1  0  0  0  0  0  0
  184.9580  180.3660  144.0340 O   0  0  0  0  0  0  0  0  0  0  0  0
  185.2540  179.2980  143.0160 S   0  0  0  0  0  0  0  0  0  0  0  0
  186.0620  179.8880  141.8900 O   0  0  0  0  0  0  0  0  0  0  0  0
  186.2120  178.0210  143.8240 C   0  0  1  0  0  3  0  0  0  0  0  0
  187.4460  177.6870  142.9940 C   0  0  0  0  0  2  0  0  0  0  0  0
  186.6100  178.4710  145.2370 C   0  0  2  0  0  3  0  0  0  0  0  0
  188.3530  176.6820  143.7360 C   0  0  2  0  0  3  0  0  0  0  0  0
  188.0450  178.0470  145.5930 C   0  0  0  0  0  2  0  0  0  0  0  0
  188.2910  176.7290  145.1570 O   0  0  0  0  0  0  0  0  0  0  0  0
  189.8020  176.6510  143.2260 C   0  0  2  0  0  0  0  0  0  0  0  0
  190.2470  177.4570  142.0570 C   0  0  0  0  0  2  0  0  0  0  0  0
  189.8470  176.1140  141.9260 O   0  0  0  0  0  0  0  0  0  0  0  0
  190.7810  175.9830  144.1010 N   0  0  0  0  0  2  0  0  0  0  0  0
  191.1720  176.8060  145.2450 C   0  0  2  0  0  3  0  0  0  0  0  0
  191.7620  177.9890  144.7880 O   0  0  0  0  0  1  0  0  0  0  0  0
  192.1540  174.5740  145.7590 C   0  0  0  0  0  1  0  0  0  0  0  0
  192.1240  176.0430  146.1590 C   0  0  2  0  0  3  0  0  0  0  0  0
  192.8730  175.7810  148.5360 C   0  0  0  0  0  1  0  0  0  0  0  0
  191.7310  176.1920  147.6260 C   0  0  0  0  0  2  0  0  0  0  0  0
  185.1910  179.0020  147.1000 O   0  0  0  0  0  1  0  0  0  0  0  0
  185.6060  177.9670  146.2650 C   0  0  0  0  0  2  0  0  0  0  0  0
  179.8210  183.3980  135.7310 O   0  0  0  0  0  0  0  0  0  0  0  0
  180.8370  184.3630  136.0030 C   0  0  0  0  0  1  0  0  0  0  0  0
  183.6540  176.3870  136.7610 C   0  0  0  0  0  2  0  0  0  0  0  0
  184.0380  175.0100  134.6540 N   0  0  0  0  0  2  0  0  0  0  0  0
  183.9250  176.2860  135.2890 C   0  0  0  0  0  0  0  0  0  0  0  0
  184.0100  177.3340  134.5940 O   0  0  0  0  0  0  0  0  0  0  0  0
  183.9170  173.7620  135.3940 C   0  0  0  0  0  2  0  0  0  0  0  0
  188.5380  172.5720  135.2760 N   0  0  0  0  0  2  0  0  0  0  0  0
  184.4530  171.2980  135.3440 C   0  0  1  0  0  3  0  0  0  0  0  0
  184.8240  172.6870  134.7920 C   0  0  2  0  0  3  0  0  0  0  0  0
  183.1470  170.8320  134.7370 C   0  0  0  0  0  1  0  0  0  0  0  0
  186.9830  174.6380  134.5940 S   0  0  0  0  0  0  0  0  0  0  0  0
  187.1990  172.1100  135.2830 C   0  0  0  0  0  0  0  0  0  0  0  0
  186.8580  170.6910  135.6380 C   0  0  0  0  0  2  0  0  0  0  0  0
  188.6530  173.9010  134.6980 C   0  0  1  0  0  3  0  0  0  0  0  0
  186.2870  173.0230  134.9860 C   0  0  0  0  0  0  0  0  0  0  0  0
  185.5340  170.2830  135.0070 C   0  0  0  0  0  2  0  0  0  0  0  0
  189.7080  174.7420  135.4180 C   0  0  0  0  0  2  0  0  0  0  0  0
  189.3310  176.1550  135.8870 C   0  0  2  0  0  0  0  0  0  0  0  0
  190.6300  176.9540  136.0970 C   0  0  0  0  0  2  0  0  0  0  0  0
  188.5230  176.1300  137.1760 C   0  0  0  0  0  0  0  0  0  0  0  0
  191.8870  175.3300  137.3710 O   0  0  0  0  0  1  0  0  0  0  0  0
  187.3040  176.2300  137.1490 O   0  0  0  0  0  0  0  0  0  0  0  0
  189.2150  175.9030  138.4880 C   0  0  0  0  0  2  0  0  0  0  0  0
  190.4440  176.8070  138.6040 C   0  0  0  0  0  2  0  0  0  0  0  0
  191.3740  176.6280  137.4040 C   0  0  2  0  0  3  0  0  0  0  0  0
  188.6030  176.7880  134.8830 O   0  0  0  0  0  1  0  0  0  0  0  0
  1 13  1  1  0  0  0
  2  8  2  0  0  0  0
  3  2  1  0  0  0  0
  5  6  2  0  0  0  0
  6  1  1  0  0  0  0
  7  2  1  0  0  0  0
  7  5  1  0  0  0  0
  8  4  1  0  0  0  0
  8  1  1  0  0  0  0
  9  3  1  0  0  0  0
  9 11  2  0  0  0  0
 10  4  2  0  0  0  0
 11 10  1  0  0  0  0
 13 12  1  6  0  0  0
 13 14  1  0  0  0  0
 14 15  1  0  0  0  0
 15 17  1  0  0  0  0
 16 15  2  0  0  0  0
 17 18  2  0  0  0  0
 17 19  1  0  0  0  0
 20 19  1  0  0  0  0
 21 22  1  6  0  0  0
 21 24  1  0  0  0  0
 21 20  1  0  0  0  0
 24 23  2  0  0  0  0
 25 24  2  0  0  0  0
 26 24  1  6  0  0  0
 26 28  1  0  0  0  0
 27 26  1  0  0  0  0
 28 30  1  0  0  0  0
 28 43  1  1  0  0  0
 29 27  1  6  0  0  0
 29 31  1  0  0  0  0
 31 30  1  0  0  0  0
 32 29  1  0  0  0  0
 32 35  1  1  0  0  0
 33 32  1  0  0  0  0
 34 33  1  0  0  0  0
 34 32  1  0  0  0  0
 35 36  1  0  0  0  0
 36 37  1  6  0  0  0
 36 39  1  0  0  0  0
 39 38  1  6  0  0  0
 39 41  1  0  0  0  0
 41 40  1  0  0  0  0
 43 42  1  0  0  0  0
 44 45  1  0  0  0  0
 44 11  1  0  0  0  0
 46  5  1  0  0  0  0
 47 48  1  0  0  0  0
 47 50  1  0  0  0  0
 48 46  1  0  0  0  0
 49 48  2  0  0  0  0
 51 56  1  0  0  0  0
 52 54  1  6  0  0  0
 53 59  1  0  0  0  0
 53 52  1  0  0  0  0
 53 50  1  1  0  0  0
 55 58  1  0  0  0  0
 55 59  1  0  0  0  0
 56 57  1  0  0  0  0
 58 51  1  0  0  0  0
 58 61  1  1  0  0  0
 59 56  2  0  0  0  0
 60 52  1  0  0  0  0
 60 57  1  0  0  0  0
 61 62  1  0  0  0  0
 62 70  1  6  0  0  0
 62 63  1  0  0  0  0
 62 64  1  0  0  0  0
 63 69  1  0  0  0  0
 64 67  1  0  0  0  0
 66 64  2  0  0  0  0
 67 68  1  0  0  0  0
 69 65  1  6  0  0  0
 69 68  1  0  0  0  0
M  END
>  <MODEL>
5

>  <REMARK>
 VINA RESULT:      -5.1      2.918     10.543
  Name = 
  22 active torsions:
  status: ('A' for Active; 'I' for Inactive)
    1  A    between atoms: C_1  and  S_58
    2  A    between atoms: C_2  and  C_64
    3  A    between atoms: C_4  and  C_41
    4  A    between atoms: C_4  and  N_43
    5  A    between atoms: C_7  and  C_31
    6  A    between atoms: C_7  and  C_45
    7  A    between atoms: C_9  and  C_25
    8  A    between atoms: C_11  and  C_23
    9  A    between atoms: C_11  and  C_32
   10  A    between atoms: C_16  and  C_27
   11  A    between atoms: C_17  and  C_29
   12  A    between atoms: C_19  and  C_54
   13  A    between atoms: N_22  and  C_49
   14  A    between atoms: C_23  and  C_64
   15  A    between atoms: C_25  and  C_50
   16  A    between atoms: C_26  and  C_49
   17  A    between atoms: C_27  and  C_35
   18  A    between atoms: C_29  and  C_60
   19  A    between atoms: C_31  and  C_32
   20  A    between atoms: C_35  and  N_43
   21  A    between atoms: O_39  and  C_70
   22  A    between atoms: C_45  and  S_58
                            x       y       z     vdW  Elec       q    Type
                         _______ _______ _______ _____ _____    ______ ____

>  <TORSDO>
F 22

$$$$
=
 OpenBabel10222415553D

 70 76  0  0  1  0  0  0  0  0999 V2000
  185.0610  177.8550  142.6410 C   0  0  1  0  0  3  0  0  0  0  0  0
  182.8990  178.7300  143.5370 C   0  0  0  0  0  0  0  0  0  0  0  0
  181.5930  179.4490  143.4120 C   0  0  0  0  0  2  0  0  0  0  0  0
  183.1240  178.4890  141.0720 C   0  0  0  0  0  3  0  0  0  0  0  0
  184.7790  178.1280  145.0570 C   0  0  0  0  0  0  0  0  0  0  0  0
  185.5130  177.8010  144.0400 N   0  0  0  0  0  0  0  0  0  0  0  0
  183.4380  178.5920  144.8520 N   0  0  0  0  0  2  0  0  0  0  0  0
  183.6370  178.3860  142.4610 C   0  0  0  0  0  0  0  0  0  0  0  0
  180.5470  178.6170  142.7400 C   0  0  0  0  0  3  0  0  0  0  0  0
  181.8560  178.4040  140.6540 C   0  0  0  0  0  3  0  0  0  0  0  0
  180.6470  178.1880  141.4780 C   0  0  0  0  0  0  0  0  0  0  0  0
  186.7500  179.7290  142.6060 C   0  0  0  0  0  1  0  0  0  0  0  0
  186.1170  178.6020  141.8100 C   0  0  2  0  0  3  0  0  0  0  0  0
  185.5310  179.1170  140.4970 C   0  0  0  0  0  2  0  0  0  0  0  0
  186.1960  178.5260  139.2930 C   0  0  0  0  0  0  0  0  0  0  0  0
  187.4200  178.2330  139.3540 O   0  0  0  0  0  0  0  0  0  0  0  0
  185.4430  178.2420  138.0620 C   0  0  0  0  0  0  0  0  0  0  0  0
  184.2330  178.5820  137.9640 O   0  0  0  0  0  0  0  0  0  0  0  0
  186.1060  177.5750  136.8990 C   0  0  0  0  0  2  0  0  0  0  0  0
  185.1280  176.6800  136.1480 C   0  0  0  0  0  2  0  0  0  0  0  0
  184.5280  175.6310  137.0840 C   0  0  2  0  0  3  0  0  0  0  0  0
  185.5170  174.4850  137.2140 C   0  0  0  0  0  1  0  0  0  0  0  0
  182.8220  173.5630  136.7140 O   0  0  0  0  0  0  0  0  0  0  0  0
  182.9490  175.0400  136.4580 S   0  0  0  0  0  0  0  0  0  0  0  0
  182.8550  175.3020  134.9780 O   0  0  0  0  0  0  0  0  0  0  0  0
  181.5930  175.8600  137.2900 C   0  0  1  0  0  3  0  0  0  0  0  0
  181.2890  177.1900  136.6110 C   0  0  0  0  0  2  0  0  0  0  0  0
  180.3530  174.9550  137.3000 C   0  0  2  0  0  3  0  0  0  0  0  0
  180.0400  177.8520  137.2310 C   0  0  2  0  0  3  0  0  0  0  0  0
  179.0590  175.7510  137.0570 C   0  0  0  0  0  2  0  0  0  0  0  0
  179.0810  176.9590  137.7850 O   0  0  0  0  0  0  0  0  0  0  0  0
  179.3850  178.9150  136.3370 C   0  0  2  0  0  0  0  0  0  0  0  0
  178.9670  178.6250  134.9400 C   0  0  0  0  0  2  0  0  0  0  0  0
  180.2150  179.2030  135.2380 O   0  0  0  0  0  0  0  0  0  0  0  0
  178.9630  180.1560  137.0120 N   0  0  0  0  0  2  0  0  0  0  0  0
  179.9420  181.2340  136.8770 C   0  0  2  0  0  3  0  0  0  0  0  0
  180.6870  181.3380  138.0570 O   0  0  0  0  0  1  0  0  0  0  0  0
  179.6050  182.9850  135.1360 C   0  0  0  0  0  1  0  0  0  0  0  0
  179.2510  182.5540  136.5530 C   0  0  2  0  0  3  0  0  0  0  0  0
  180.6500  184.5910  136.9640 C   0  0  0  0  0  1  0  0  0  0  0  0
  179.6250  183.6420  137.5550 C   0  0  0  0  0  2  0  0  0  0  0  0
  180.0290  172.8090  138.3260 O   0  0  0  0  0  1  0  0  0  0  0  0
  180.2830  174.1530  138.5920 C   0  0  0  0  0  2  0  0  0  0  0  0
  179.5830  177.5130  140.8680 O   0  0  0  0  0  0  0  0  0  0  0  0
  179.5540  176.0950  140.7040 C   0  0  0  0  0  1  0  0  0  0  0  0
  185.3860  178.0960  146.4250 C   0  0  0  0  0  2  0  0  0  0  0  0
  187.8350  178.4810  145.8440 N   0  0  0  0  0  2  0  0  0  0  0  0
  186.6560  178.8850  146.5450 C   0  0  0  0  0  0  0  0  0  0  0  0
  186.6770  179.9390  147.2360 O   0  0  0  0  0  0  0  0  0  0  0  0
  187.8680  177.2920  145.0040 C   0  0  0  0  0  2  0  0  0  0  0  0
  191.5570  177.0960  141.9810 N   0  0  0  0  0  2  0  0  0  0  0  0
  190.1750  177.3540  146.0230 C   0  0  1  0  0  3  0  0  0  0  0  0
  189.2860  176.7190  144.9380 C   0  0  2  0  0  3  0  0  0  0  0  0
  189.7960  176.8130  147.3850 C   0  0  0  0  0  1  0  0  0  0  0  0
  188.9880  176.3530  142.0590 S   0  0  0  0  0  0  0  0  0  0  0  0
  191.1400  177.1670  143.3320 C   0  0  0  0  0  0  0  0  0  0  0  0
  192.0750  177.6070  144.4220 C   0  0  0  0  0  2  0  0  0  0  0  0
  190.5660  176.4450  141.1390 C   0  0  1  0  0  3  0  0  0  0  0  0
  189.8730  176.8500  143.5490 C   0  0  0  0  0  0  0  0  0  0  0  0
  191.6400  177.0380  145.7660 C   0  0  0  0  0  2  0  0  0  0  0  0
  190.4910  177.0880  139.7530 C   0  0  0  0  0  2  0  0  0  0  0  0
  190.2070  176.1910  138.5390 C   0  0  2  0  0  0  0  0  0  0  0  0
  191.2770  175.0850  138.4990 C   0  0  0  0  0  2  0  0  0  0  0  0
  190.2230  176.9760  137.2360 C   0  0  0  0  0  0  0  0  0  0  0  0
  193.2520  176.4370  138.8250 O   0  0  0  0  0  1  0  0  0  0  0  0
  189.1770  177.3480  136.7200 O   0  0  0  0  0  0  0  0  0  0  0  0
  191.5320  177.3660  136.6140 C   0  0  0  0  0  2  0  0  0  0  0  0
  192.4760  176.1630  136.5650 C   0  0  0  0  0  2  0  0  0  0  0  0
  192.6410  175.5370  137.9500 C   0  0  2  0  0  3  0  0  0  0  0  0
  188.9690  175.5770  138.7080 O   0  0  0  0  0  1  0  0  0  0  0  0
  1 13  1  6  0  0  0
  1  6  1  0  0  0  0
  2  7  1  0  0  0  0
  3  2  1  0  0  0  0
  4  8  1  0  0  0  0
  5 46  1  0  0  0  0
  6  5  2  0  0  0  0
  7  5  1  0  0  0  0
  8  1  1  0  0  0  0
  8  2  2  0  0  0  0
  9  3  1  0  0  0  0
 10  4  2  0  0  0  0
 10 11  1  0  0  0  0
 11  9  2  0  0  0  0
 13 12  1  1  0  0  0
 14 13  1  0  0  0  0
 15 16  2  0  0  0  0
 15 14  1  0  0  0  0
 17 15  1  0  0  0  0
 18 17  2  0  0  0  0
 19 17  1  0  0  0  0
 20 19  1  0  0  0  0
 20 21  1  0  0  0  0
 21 22  1  6  0  0  0
 24 23  2  0  0  0  0
 24 21  1  0  0  0  0
 25 24  2  0  0  0  0
 26 24  1  6  0  0  0
 26 28  1  0  0  0  0
 27 26  1  0  0  0  0
 28 43  1  1  0  0  0
 29 27  1  6  0  0  0
 29 31  1  0  0  0  0
 30 28  1  0  0  0  0
 30 31  1  0  0  0  0
 32 35  1  1  0  0  0
 32 29  1  0  0  0  0
 33 34  1  0  0  0  0
 33 32  1  0  0  0  0
 34 32  1  0  0  0  0
 36 35  1  0  0  0  0
 36 37  1  1  0  0  0
 39 38  1  6  0  0  0
 39 36  1  0  0  0  0
 39 41  1  0  0  0  0
 40 41  1  0  0  0  0
 42 43  1  0  0  0  0
 44 11  1  0  0  0  0
 45 44  1  0  0  0  0
 46 48  1  0  0  0  0
 47 48  1  0  0  0  0
 48 49  2  0  0  0  0
 50 47  1  0  0  0  0
 51 56  1  0  0  0  0
 52 54  1  1  0  0  0
 53 50  1  6  0  0  0
 53 52  1  0  0  0  0
 55 59  1  0  0  0  0
 56 59  2  0  0  0  0
 56 57  1  0  0  0  0
 57 60  1  0  0  0  0
 58 61  1  6  0  0  0
 58 51  1  0  0  0  0
 58 55  1  0  0  0  0
 59 53  1  0  0  0  0
 60 52  1  0  0  0  0
 62 70  1  1  0  0  0
 62 61  1  0  0  0  0
 63 62  1  0  0  0  0
 64 62  1  0  0  0  0
 66 64  2  0  0  0  0
 67 64  1  0  0  0  0
 68 67  1  0  0  0  0
 68 69  1  0  0  0  0
 69 63  1  0  0  0  0
 69 65  1  1  0  0  0
M  END
>  <MODEL>
6

>  <REMARK>
 VINA RESULT:      -4.6      2.698      9.661
  Name = 
  22 active torsions:
  status: ('A' for Active; 'I' for Inactive)
    1  A    between atoms: C_1  and  S_58
    2  A    between atoms: C_2  and  C_64
    3  A    between atoms: C_4  and  C_41
    4  A    between atoms: C_4  and  N_43
    5  A    between atoms: C_7  and  C_31
    6  A    between atoms: C_7  and  C_45
    7  A    between atoms: C_9  and  C_25
    8  A    between atoms: C_11  and  C_23
    9  A    between atoms: C_11  and  C_32
   10  A    between atoms: C_16  and  C_27
   11  A    between atoms: C_17  and  C_29
   12  A    between atoms: C_19  and  C_54
   13  A    between atoms: N_22  and  C_49
   14  A    between atoms: C_23  and  C_64
   15  A    between atoms: C_25  and  C_50
   16  A    between atoms: C_26  and  C_49
   17  A    between atoms: C_27  and  C_35
   18  A    between atoms: C_29  and  C_60
   19  A    between atoms: C_31  and  C_32
   20  A    between atoms: C_35  and  N_43
   21  A    between atoms: O_39  and  C_70
   22  A    between atoms: C_45  and  S_58
                            x       y       z     vdW  Elec       q    Type
                         _______ _______ _______ _____ _____    ______ ____

>  <TORSDO>
F 22

$$$$
=
 OpenBabel10222415553D

 70 76  0  0  1  0  0  0  0  0999 V2000
  187.7390  177.6480  144.4930 C   0  0  1  0  0  3  0  0  0  0  0  0
  190.2340  177.6140  144.6120 C   0  0  0  0  0  0  0  0  0  0  0  0
  191.5420  177.8080  145.3120 C   0  0  0  0  0  2  0  0  0  0  0  0
  188.9680  177.6150  146.7530 C   0  0  0  0  0  3  0  0  0  0  0  0
  189.0460  177.6590  142.4230 C   0  0  0  0  0  0  0  0  0  0  0  0
  187.9010  177.6840  143.0310 N   0  0  0  0  0  0  0  0  0  0  0  0
  190.2590  177.6080  143.1840 N   0  0  0  0  0  2  0  0  0  0  0  0
  189.0560  177.6280  145.2710 C   0  0  0  0  0  0  0  0  0  0  0  0
  191.8550  176.6900  146.2550 C   0  0  0  0  0  3  0  0  0  0  0  0
  189.8370  177.0930  147.6250 C   0  0  0  0  0  3  0  0  0  0  0  0
  191.1090  176.4000  147.3260 C   0  0  0  0  0  0  0  0  0  0  0  0
  187.0010  179.1760  146.3600 C   0  0  0  0  0  1  0  0  0  0  0  0
  186.7830  178.7780  144.9110 C   0  0  2  0  0  3  0  0  0  0  0  0
  185.3260  178.3970  144.6570 C   0  0  0  0  0  2  0  0  0  0  0  0
  185.0380  178.1360  143.2110 C   0  0  0  0  0  0  0  0  0  0  0  0
  185.9400  177.6300  142.4900 O   0  0  0  0  0  0  0  0  0  0  0  0
  183.7170  178.4140  142.6300 C   0  0  0  0  0  0  0  0  0  0  0  0
  183.5330  178.3060  141.3880 O   0  0  0  0  0  0  0  0  0  0  0  0
  182.5650  178.7990  143.5040 C   0  0  0  0  0  2  0  0  0  0  0  0
  181.2390  178.3780  142.8810 C   0  0  0  0  0  2  0  0  0  0  0  0
  180.5690  179.5640  142.1870 C   0  0  2  0  0  3  0  0  0  0  0  0
  179.5190  180.1360  143.1240 C   0  0  0  0  0  1  0  0  0  0  0  0
  178.9400  180.1590  140.1090 O   0  0  0  0  0  0  0  0  0  0  0  0
  179.8240  179.0580  140.6300 S   0  0  0  0  0  0  0  0  0  0  0  0
  179.0050  177.8110  140.8360 O   0  0  0  0  0  0  0  0  0  0  0  0
  181.0850  178.7390  139.4010 C   0  0  1  0  0  3  0  0  0  0  0  0
  180.8030  177.4220  138.6900 C   0  0  0  0  0  2  0  0  0  0  0  0
  181.1510  179.8990  138.3960 C   0  0  2  0  0  3  0  0  0  0  0  0
  181.8050  177.1920  137.5380 C   0  0  2  0  0  3  0  0  0  0  0  0
  181.3710  179.4010  136.9580 C   0  0  0  0  0  2  0  0  0  0  0  0
  182.3310  178.3690  136.9360 O   0  0  0  0  0  0  0  0  0  0  0  0
  181.3320  176.1740  136.4900 C   0  0  2  0  0  0  0  0  0  0  0  0
  180.1610  176.4310  135.6090 C   0  0  0  0  0  2  0  0  0  0  0  0
  180.0430  175.7090  136.8110 O   0  0  0  0  0  0  0  0  0  0  0  0
  182.2430  175.0460  136.2280 N   0  0  0  0  0  2  0  0  0  0  0  0
  182.8850  174.5430  137.4420 C   0  0  2  0  0  3  0  0  0  0  0  0
  183.8150  175.4810  137.9010 O   0  0  0  0  0  1  0  0  0  0  0  0
  184.9670  173.4190  136.6600 C   0  0  0  0  0  1  0  0  0  0  0  0
  183.5540  173.1980  137.1810 C   0  0  2  0  0  3  0  0  0  0  0  0
  181.4780  171.8330  136.8550 C   0  0  0  0  0  1  0  0  0  0  0  0
  182.7460  172.3510  136.2030 C   0  0  0  0  0  2  0  0  0  0  0  0
  181.7660  182.2110  138.5970 O   0  0  0  0  0  1  0  0  0  0  0  0
  182.2130  180.9080  138.8090 C   0  0  0  0  0  2  0  0  0  0  0  0
  191.5190  175.4180  148.2360 O   0  0  0  0  0  0  0  0  0  0  0  0
  192.8230  175.3910  148.8150 C   0  0  0  0  0  1  0  0  0  0  0  0
  189.0720  177.7740  140.9310 C   0  0  0  0  0  2  0  0  0  0  0  0
  187.2140  178.2470  139.2550 N   0  0  0  0  0  2  0  0  0  0  0  0
  188.0050  178.6660  140.3700 C   0  0  0  0  0  0  0  0  0  0  0  0
  187.7700  179.7800  140.9120 O   0  0  0  0  0  0  0  0  0  0  0  0
  187.4130  176.9590  138.6040 C   0  0  0  0  0  2  0  0  0  0  0  0
  189.8540  175.1330  134.9310 N   0  0  0  0  0  2  0  0  0  0  0  0
  186.1980  176.8030  136.4000 C   0  0  1  0  0  3  0  0  0  0  0  0
  187.5350  177.1340  137.0890 C   0  0  2  0  0  3  0  0  0  0  0  0
  185.1950  177.9060  136.6570 C   0  0  0  0  0  1  0  0  0  0  0  0
  190.3500  176.3870  137.2410 S   0  0  0  0  0  0  0  0  0  0  0  0
  188.6320  175.6950  135.3750 C   0  0  0  0  0  0  0  0  0  0  0  0
  187.3600  175.5290  134.5940 C   0  0  0  0  0  2  0  0  0  0  0  0
  190.9840  175.5970  135.7180 C   0  0  1  0  0  3  0  0  0  0  0  0
  188.6950  176.3400  136.5290 C   0  0  0  0  0  0  0  0  0  0  0  0
  186.3900  176.6630  134.8980 C   0  0  0  0  0  2  0  0  0  0  0  0
  192.0220  174.4920  135.9250 C   0  0  0  0  0  2  0  0  0  0  0  0
  193.5110  174.8680  135.9220 C   0  0  2  0  0  0  0  0  0  0  0  0
  194.1920  174.1200  134.7620 C   0  0  0  0  0  2  0  0  0  0  0  0
  194.1890  174.5150  137.2370 C   0  0  0  0  0  0  0  0  0  0  0  0
  193.2930  171.9090  135.1400 O   0  0  0  0  0  1  0  0  0  0  0  0
  194.3710  175.3700  138.0930 O   0  0  0  0  0  0  0  0  0  0  0  0
  194.5720  173.0920  137.5230 C   0  0  0  0  0  2  0  0  0  0  0  0
  195.3050  172.4880  136.3240 C   0  0  0  0  0  2  0  0  0  0  0  0
  194.4820  172.6360  135.0440 C   0  0  2  0  0  3  0  0  0  0  0  0
  193.6340  176.2330  135.6750 O   0  0  0  0  0  1  0  0  0  0  0  0
  1 13  1  1  0  0  0
  1  8  1  0  0  0  0
  2  8  2  0  0  0  0
  2  3  1  0  0  0  0
  3  9  1  0  0  0  0
  4 10  2  0  0  0  0
  5  6  2  0  0  0  0
  5  7  1  0  0  0  0
  6  1  1  0  0  0  0
  7  2  1  0  0  0  0
  8  4  1  0  0  0  0
  9 11  2  0  0  0  0
 11 10  1  0  0  0  0
 11 44  1  0  0  0  0
 13 12  1  1  0  0  0
 14 13  1  0  0  0  0
 15 14  1  0  0  0  0
 16 15  2  0  0  0  0
 17 15  1  0  0  0  0
 17 19  1  0  0  0  0
 18 17  2  0  0  0  0
 20 19  1  0  0  0  0
 21 20  1  0  0  0  0
 21 22  1  1  0  0  0
 23 24  2  0  0  0  0
 24 25  2  0  0  0  0
 24 21  1  0  0  0  0
 26 24  1  1  0  0  0
 27 26  1  0  0  0  0
 28 43  1  1  0  0  0
 28 26  1  0  0  0  0
 29 27  1  1  0  0  0
 30 28  1  0  0  0  0
 31 30  1  0  0  0  0
 31 29  1  0  0  0  0
 32 35  1  6  0  0  0
 32 34  1  0  0  0  0
 32 29  1  0  0  0  0
 33 32  1  0  0  0  0
 33 34  1  0  0  0  0
 35 36  1  0  0  0  0
 36 37  1  6  0  0  0
 39 38  1  6  0  0  0
 39 36  1  0  0  0  0
 41 40  1  0  0  0  0
 41 39  1  0  0  0  0
 42 43  1  0  0  0  0
 44 45  1  0  0  0  0
 46  5  1  0  0  0  0
 47 48  1  0  0  0  0
 48 49  2  0  0  0  0
 48 46  1  0  0  0  0
 50 47  1  0  0  0  0
 51 56  1  0  0  0  0
 51 58  1  0  0  0  0
 52 54  1  6  0  0  0
 52 53  1  0  0  0  0
 53 50  1  1  0  0  0
 56 59  2  0  0  0  0
 57 60  1  0  0  0  0
 57 56  1  0  0  0  0
 58 61  1  1  0  0  0
 58 55  1  0  0  0  0
 59 53  1  0  0  0  0
 59 55  1  0  0  0  0
 60 52  1  0  0  0  0
 62 70  1  6  0  0  0
 62 61  1  0  0  0  0
 62 64  1  0  0  0  0
 63 69  1  0  0  0  0
 63 62  1  0  0  0  0
 64 67  1  0  0  0  0
 64 66  2  0  0  0  0
 68 67  1  0  0  0  0
 69 65  1  1  0  0  0
 69 68  1  0  0  0  0
M  END
>  <MODEL>
7

>  <REMARK>
 VINA RESULT:      -4.2      2.654      9.929
  Name = 
  22 active torsions:
  status: ('A' for Active; 'I' for Inactive)
    1  A    between atoms: C_1  and  S_58
    2  A    between atoms: C_2  and  C_64
    3  A    between atoms: C_4  and  C_41
    4  A    between atoms: C_4  and  N_43
    5  A    between atoms: C_7  and  C_31
    6  A    between atoms: C_7  and  C_45
    7  A    between atoms: C_9  and  C_25
    8  A    between atoms: C_11  and  C_23
    9  A    between atoms: C_11  and  C_32
   10  A    between atoms: C_16  and  C_27
   11  A    between atoms: C_17  and  C_29
   12  A    between atoms: C_19  and  C_54
   13  A    between atoms: N_22  and  C_49
   14  A    between atoms: C_23  and  C_64
   15  A    between atoms: C_25  and  C_50
   16  A    between atoms: C_26  and  C_49
   17  A    between atoms: C_27  and  C_35
   18  A    between atoms: C_29  and  C_60
   19  A    between atoms: C_31  and  C_32
   20  A    between atoms: C_35  and  N_43
   21  A    between atoms: O_39  and  C_70
   22  A    between atoms: C_45  and  S_58
                            x       y       z     vdW  Elec       q    Type
                         _______ _______ _______ _____ _____    ______ ____

>  <TORSDO>
F 22

$$$$
=
 OpenBabel10222415553D

 70 76  0  0  1  0  0  0  0  0999 V2000
  189.3330  176.2710  138.5820 C   0  0  1  0  0  3  0  0  0  0  0  0
  190.6830  176.1220  136.4850 C   0  0  0  0  0  0  0  0  0  0  0  0
  191.9000  176.3880  135.6570 C   0  0  0  0  0  2  0  0  0  0  0  0
  191.8750  176.6570  138.6010 C   0  0  0  0  0  3  0  0  0  0  0  0
  188.2180  175.7590  136.4630 C   0  0  0  0  0  0  0  0  0  0  0  0
  188.1620  175.9800  137.7390 N   0  0  0  0  0  0  0  0  0  0  0  0
  189.4800  175.8060  135.7840 N   0  0  0  0  0  2  0  0  0  0  0  0
  190.6550  176.3450  137.8160 C   0  0  0  0  0  0  0  0  0  0  0  0
  193.0380  175.4840  136.0110 C   0  0  0  0  0  3  0  0  0  0  0  0
  193.1350  176.2880  138.3460 C   0  0  0  0  0  3  0  0  0  0  0  0
  193.6260  175.4760  137.2110 C   0  0  0  0  0  0  0  0  0  0  0  0
  188.6980  177.1380  140.8640 C   0  0  0  0  0  1  0  0  0  0  0  0
  189.0310  177.5160  139.4320 C   0  0  2  0  0  3  0  0  0  0  0  0
  187.9200  178.3590  138.8110 C   0  0  0  0  0  2  0  0  0  0  0  0
  186.6760  178.3830  139.6440 C   0  0  0  0  0  0  0  0  0  0  0  0
  185.6400  177.8080  139.2120 O   0  0  0  0  0  0  0  0  0  0  0  0
  186.6510  179.0220  140.9680 C   0  0  0  0  0  0  0  0  0  0  0  0
  187.6330  179.7070  141.3620 O   0  0  0  0  0  0  0  0  0  0  0  0
  185.4520  178.8950  141.8540 C   0  0  0  0  0  2  0  0  0  0  0  0
  185.6390  177.7790  142.8740 C   0  0  0  0  0  2  0  0  0  0  0  0
  184.6360  177.9200  144.0190 C   0  0  2  0  0  3  0  0  0  0  0  0
  183.4030  178.6320  143.4900 C   0  0  0  0  0  1  0  0  0  0  0  0
  184.3690  178.9030  146.5260 O   0  0  0  0  0  0  0  0  0  0  0  0
  185.3560  178.8300  145.3940 S   0  0  0  0  0  0  0  0  0  0  0  0
  185.7170  180.2240  144.9520 O   0  0  0  0  0  0  0  0  0  0  0  0
  186.8240  178.0040  145.9980 C   0  0  1  0  0  3  0  0  0  0  0  0
  187.9860  178.2320  145.0400 C   0  0  0  0  0  2  0  0  0  0  0  0
  187.1720  178.5050  147.4070 C   0  0  2  0  0  3  0  0  0  0  0  0
  189.2930  177.6380  145.6070 C   0  0  2  0  0  3  0  0  0  0  0  0
  188.6880  178.6720  147.5990 C   0  0  0  0  0  2  0  0  0  0  0  0
  189.3800  177.5850  147.0270 O   0  0  0  0  0  0  0  0  0  0  0  0
  190.5700  178.2130  144.9750 C   0  0  2  0  0  0  0  0  0  0  0  0
  190.5730  179.5010  144.2320 C   0  0  0  0  0  2  0  0  0  0  0  0
  190.4370  178.2650  143.5750 O   0  0  0  0  0  0  0  0  0  0  0  0
  191.8320  177.5550  145.3560 N   0  0  0  0  0  2  0  0  0  0  0  0
  191.6220  176.2800  146.0410 C   0  0  2  0  0  3  0  0  0  0  0  0
  192.6170  176.1000  147.0070 O   0  0  0  0  0  1  0  0  0  0  0  0
  192.7730  174.1810  145.3480 C   0  0  0  0  0  1  0  0  0  0  0  0
  191.6170  175.1260  145.0450 C   0  0  2  0  0  3  0  0  0  0  0  0
  190.4360  175.2730  142.8400 C   0  0  0  0  0  1  0  0  0  0  0  0
  191.6970  175.6270  143.6060 C   0  0  0  0  0  2  0  0  0  0  0  0
  187.5680  176.8760  149.1260 O   0  0  0  0  0  1  0  0  0  0  0  0
  186.5700  177.5920  148.4660 C   0  0  0  0  0  2  0  0  0  0  0  0
  194.7620  174.6920  137.4440 O   0  0  0  0  0  0  0  0  0  0  0  0
  194.7010  173.2830  137.6650 C   0  0  0  0  0  1  0  0  0  0  0  0
  186.9410  175.5470  135.7110 C   0  0  0  0  0  2  0  0  0  0  0  0
  185.4690  173.5780  136.3740 N   0  0  0  0  0  2  0  0  0  0  0  0
  186.5400  174.1060  135.5880 C   0  0  0  0  0  0  0  0  0  0  0  0
  187.1210  173.3620  134.7540 O   0  0  0  0  0  0  0  0  0  0  0  0
  184.7360  174.3930  137.3330 C   0  0  0  0  0  2  0  0  0  0  0  0
  180.2410  175.9590  136.9790 N   0  0  0  0  0  2  0  0  0  0  0  0
  183.0230  172.7430  136.4950 C   0  0  1  0  0  3  0  0  0  0  0  0
  183.3080  173.8710  137.5040 C   0  0  2  0  0  3  0  0  0  0  0  0
  183.7540  171.4840  136.9050 C   0  0  0  0  0  1  0  0  0  0  0  0
  182.4560  176.5230  138.3690 S   0  0  0  0  0  0  0  0  0  0  0  0
  181.1270  174.8660  136.8200 C   0  0  0  0  0  0  0  0  0  0  0  0
  180.7620  173.6730  135.9830 C   0  0  0  0  0  2  0  0  0  0  0  0
  180.7040  176.8910  137.9940 C   0  0  1  0  0  3  0  0  0  0  0  0
  182.2950  174.9930  137.4310 C   0  0  0  0  0  0  0  0  0  0  0  0
  181.5330  172.4410  136.4380 C   0  0  0  0  0  2  0  0  0  0  0  0
  180.3960  178.3410  137.6130 C   0  0  0  0  0  2  0  0  0  0  0  0
  180.1540  179.3620  138.7340 C   0  0  2  0  0  0  0  0  0  0  0  0
  179.4420  180.5840  138.1240 C   0  0  0  0  0  2  0  0  0  0  0  0
  181.4510  179.7960  139.4000 C   0  0  0  0  0  0  0  0  0  0  0  0
  180.8400  180.9220  136.1820 O   0  0  0  0  0  1  0  0  0  0  0  0
  181.8060  179.2950  140.4580 O   0  0  0  0  0  0  0  0  0  0  0  0
  182.3450  180.7900  138.7180 C   0  0  0  0  0  2  0  0  0  0  0  0
  181.5310  181.9870  138.2250 C   0  0  0  0  0  2  0  0  0  0  0  0
  180.3660  181.5350  137.3440 C   0  0  2  0  0  3  0  0  0  0  0  0
  179.2980  178.8040  139.6800 O   0  0  0  0  0  1  0  0  0  0  0  0
  1 13  1  6  0  0  0
  2  8  2  0  0  0  0
  3  9  1  0  0  0  0
  3  2  1  0  0  0  0
  5  6  2  0  0  0  0
  6  1  1  0  0  0  0
  7  5  1  0  0  0  0
  7  2  1  0  0  0  0
  8  1  1  0  0  0  0
  8  4  1  0  0  0  0
  9 11  2  0  0  0  0
 10  4  2  0  0  0  0
 11 44  1  0  0  0  0
 11 10  1  0  0  0  0
 13 12  1  1  0  0  0
 14 13  1  0  0  0  0
 14 15  1  0  0  0  0
 15 17  1  0  0  0  0
 16 15  2  0  0  0  0
 17 18  2  0  0  0  0
 17 19  1  0  0  0  0
 19 20  1  0  0  0  0
 20 21  1  0  0  0  0
 21 22  1  6  0  0  0
 21 24  1  0  0  0  0
 24 23  2  0  0  0  0
 25 24  2  0  0  0  0
 26 24  1  6  0  0  0
 26 28  1  0  0  0  0
 27 26  1  0  0  0  0
 28 30  1  0  0  0  0
 28 43  1  1  0  0  0
 29 27  1  1  0  0  0
 29 31  1  0  0  0  0
 31 30  1  0  0  0  0
 32 35  1  1  0  0  0
 32 29  1  0  0  0  0
 33 32  1  0  0  0  0
 34 33  1  0  0  0  0
 34 32  1  0  0  0  0
 35 36  1  0  0  0  0
 36 37  1  1  0  0  0
 39 38  1  1  0  0  0
 39 36  1  0  0  0  0
 40 41  1  0  0  0  0
 41 39  1  0  0  0  0
 43 42  1  0  0  0  0
 44 45  1  0  0  0  0
 46  5  1  0  0  0  0
 47 50  1  0  0  0  0
 48 46  1  0  0  0  0
 48 47  1  0  0  0  0
 49 48  2  0  0  0  0
 51 58  1  0  0  0  0
 52 54  1  1  0  0  0
 52 53  1  0  0  0  0
 53 50  1  6  0  0  0
 56 51  1  0  0  0  0
 56 59  2  0  0  0  0
 57 60  1  0  0  0  0
 57 56  1  0  0  0  0
 58 61  1  6  0  0  0
 58 55  1  0  0  0  0
 59 53  1  0  0  0  0
 59 55  1  0  0  0  0
 60 52  1  0  0  0  0
 61 62  1  0  0  0  0
 62 64  1  0  0  0  0
 62 70  1  1  0  0  0
 63 62  1  0  0  0  0
 64 66  2  0  0  0  0
 67 64  1  0  0  0  0
 68 67  1  0  0  0  0
 69 65  1  6  0  0  0
 69 63  1  0  0  0  0
 69 68  1  0  0  0  0
M  END
>  <MODEL>
8

>  <REMARK>
 VINA RESULT:      -4.2      2.816      8.788
  Name = 
  22 active torsions:
  status: ('A' for Active; 'I' for Inactive)
    1  A    between atoms: C_1  and  S_58
    2  A    between atoms: C_2  and  C_64
    3  A    between atoms: C_4  and  C_41
    4  A    between atoms: C_4  and  N_43
    5  A    between atoms: C_7  and  C_31
    6  A    between atoms: C_7  and  C_45
    7  A    between atoms: C_9  and  C_25
    8  A    between atoms: C_11  and  C_23
    9  A    between atoms: C_11  and  C_32
   10  A    between atoms: C_16  and  C_27
   11  A    between atoms: C_17  and  C_29
   12  A    between atoms: C_19  and  C_54
   13  A    between atoms: N_22  and  C_49
   14  A    between atoms: C_23  and  C_64
   15  A    between atoms: C_25  and  C_50
   16  A    between atoms: C_26  and  C_49
   17  A    between atoms: C_27  and  C_35
   18  A    between atoms: C_29  and  C_60
   19  A    between atoms: C_31  and  C_32
   20  A    between atoms: C_35  and  N_43
   21  A    between atoms: O_39  and  C_70
   22  A    between atoms: C_45  and  S_58
                            x       y       z     vdW  Elec       q    Type
                         _______ _______ _______ _____ _____    ______ ____

>  <TORSDO>
F 22

$$$$
=
 OpenBabel10222415553D

 70 76  0  0  1  0  0  0  0  0999 V2000
  187.0900  178.1730  142.8000 C   0  0  1  0  0  3  0  0  0  0  0  0
  185.6750  178.0670  144.8560 C   0  0  0  0  0  0  0  0  0  0  0  0
  185.3650  177.5990  146.2420 C   0  0  0  0  0  2  0  0  0  0  0  0
  188.0640  177.4000  145.0520 C   0  0  0  0  0  3  0  0  0  0  0  0
  184.7280  178.8030  142.6730 C   0  0  0  0  0  0  0  0  0  0  0  0
  185.8770  178.6220  142.1000 N   0  0  0  0  0  0  0  0  0  0  0  0
  184.5810  178.5490  144.0760 N   0  0  0  0  0  2  0  0  0  0  0  0
  186.8850  177.8800  144.2870 C   0  0  0  0  0  0  0  0  0  0  0  0
  186.1620  178.3240  147.2800 C   0  0  0  0  0  3  0  0  0  0  0  0
  188.3230  177.5660  146.3530 C   0  0  0  0  0  3  0  0  0  0  0  0
  187.4950  178.2680  147.3570 C   0  0  0  0  0  0  0  0  0  0  0  0
  188.1990  175.9110  142.9430 C   0  0  0  0  0  1  0  0  0  0  0  0
  187.7120  177.0080  142.0130 C   0  0  2  0  0  3  0  0  0  0  0  0
  188.8330  177.4900  141.0960 C   0  0  0  0  0  2  0  0  0  0  0  0
  189.8890  178.2610  141.8260 C   0  0  0  0  0  0  0  0  0  0  0  0
  189.6640  179.4610  142.1370 O   0  0  0  0  0  0  0  0  0  0  0  0
  191.1590  177.6350  142.2240 C   0  0  0  0  0  0  0  0  0  0  0  0
  191.2180  176.9220  143.2620 O   0  0  0  0  0  0  0  0  0  0  0  0
  192.3890  177.8080  141.3910 C   0  0  0  0  0  2  0  0  0  0  0  0
  192.1140  177.4690  139.9310 C   0  0  0  0  0  2  0  0  0  0  0  0
  192.8090  176.1650  139.5390 C   0  0  2  0  0  3  0  0  0  0  0  0
  194.1000  176.0540  140.3310 C   0  0  0  0  0  1  0  0  0  0  0  0
  194.3200  175.2270  137.4990 O   0  0  0  0  0  0  0  0  0  0  0  0
  193.1400  176.1210  137.7720 S   0  0  0  0  0  0  0  0  0  0  0  0
  193.4380  177.5100  137.2720 O   0  0  0  0  0  0  0  0  0  0  0  0
  191.7350  175.4610  136.8820 C   0  0  1  0  0  3  0  0  0  0  0  0
  190.4380  175.9710  137.4990 C   0  0  0  0  0  2  0  0  0  0  0  0
  191.8210  175.8440  135.3970 C   0  0  2  0  0  3  0  0  0  0  0  0
  189.2180  175.5190  136.6670 C   0  0  2  0  0  3  0  0  0  0  0  0
  190.4450  176.2150  134.8190 C   0  0  0  0  0  2  0  0  0  0  0  0
  189.4590  175.3180  135.2800 O   0  0  0  0  0  0  0  0  0  0  0  0
  187.9490  176.3490  136.9140 C   0  0  2  0  0  0  0  0  0  0  0  0
  187.9950  177.8220  137.1210 C   0  0  0  0  0  2  0  0  0  0  0  0
  187.9850  176.9200  138.2000 O   0  0  0  0  0  0  0  0  0  0  0  0
  186.6690  175.6570  136.6860 N   0  0  0  0  0  2  0  0  0  0  0  0
  186.8450  174.2660  136.2670 C   0  0  2  0  0  3  0  0  0  0  0  0
  186.1080  174.0340  135.1000 O   0  0  0  0  0  1  0  0  0  0  0  0
  187.5040  172.2620  137.5930 C   0  0  0  0  0  1  0  0  0  0  0  0
  186.4210  173.3100  137.3760 C   0  0  2  0  0  3  0  0  0  0  0  0
  185.2710  171.4840  136.1020 C   0  0  0  0  0  1  0  0  0  0  0  0
  185.0840  172.6450  137.0610 C   0  0  0  0  0  2  0  0  0  0  0  0
  192.4410  173.5270  135.2880 O   0  0  0  0  0  1  0  0  0  0  0  0
  192.4850  174.7340  134.5940 C   0  0  0  0  0  2  0  0  0  0  0  0
  188.1740  178.8730  148.4220 O   0  0  0  0  0  0  0  0  0  0  0  0
  189.4780  178.4690  148.8400 C   0  0  0  0  0  1  0  0  0  0  0  0
  183.5540  179.1930  141.8290 C   0  0  0  0  0  2  0  0  0  0  0  0
  183.3590  178.0470  139.5640 N   0  0  0  0  0  2  0  0  0  0  0  0
  183.8230  179.1450  140.3540 C   0  0  0  0  0  0  0  0  0  0  0  0
  184.4250  180.1010  139.7940 O   0  0  0  0  0  0  0  0  0  0  0  0
  182.6310  176.9280  140.1440 C   0  0  0  0  0  2  0  0  0  0  0  0
  179.4850  179.5150  137.6540 N   0  0  0  0  0  2  0  0  0  0  0  0
  181.3520  175.7250  138.3330 C   0  0  1  0  0  3  0  0  0  0  0  0
  181.2680  176.7630  139.4680 C   0  0  2  0  0  3  0  0  0  0  0  0
  181.4660  174.3320  138.9130 C   0  0  0  0  0  1  0  0  0  0  0  0
  180.6500  179.5500  140.0630 S   0  0  0  0  0  0  0  0  0  0  0  0
  180.0690  178.2410  137.8580 C   0  0  0  0  0  0  0  0  0  0  0  0
  179.9820  177.1610  136.8180 C   0  0  0  0  0  2  0  0  0  0  0  0
  179.5030  180.3210  138.8640 C   0  0  1  0  0  3  0  0  0  0  0  0
  180.7130  178.0920  139.0050 C   0  0  0  0  0  0  0  0  0  0  0  0
  180.1090  175.7850  137.4590 C   0  0  0  0  0  2  0  0  0  0  0  0
  179.7570  181.7980  138.5570 C   0  0  0  0  0  2  0  0  0  0  0  0
  180.6710  182.1600  137.3780 C   0  0  2  0  0  0  0  0  0  0  0  0
  181.3650  183.4960  137.7010 C   0  0  0  0  0  2  0  0  0  0  0  0
  179.8990  182.2780  136.0730 C   0  0  0  0  0  0  0  0  0  0  0  0
  179.4450  184.7640  138.4420 O   0  0  0  0  0  1  0  0  0  0  0  0
  179.8800  181.3510  135.2750 O   0  0  0  0  0  0  0  0  0  0  0  0
  179.0880  183.5100  135.7930 C   0  0  0  0  0  2  0  0  0  0  0  0
  179.9120  184.7660  136.0820 C   0  0  0  0  0  2  0  0  0  0  0  0
  180.4780  184.7380  137.5020 C   0  0  2  0  0  3  0  0  0  0  0  0
  181.6620  181.1890  137.2570 O   0  0  0  0  0  1  0  0  0  0  0  0
  1 13  1  6  0  0  0
  1  8  1  0  0  0  0
  2  3  1  0  0  0  0
  3  9  1  0  0  0  0
  4 10  2  0  0  0  0
  5  7  1  0  0  0  0
  6  5  2  0  0  0  0
  6  1  1  0  0  0  0
  7  2  1  0  0  0  0
  8  2  2  0  0  0  0
  8  4  1  0  0  0  0
  9 11  2  0  0  0  0
 10 11  1  0  0  0  0
 11 44  1  0  0  0  0
 13 12  1  1  0  0  0
 14 15  1  0  0  0  0
 14 13  1  0  0  0  0
 15 16  2  0  0  0  0
 15 17  1  0  0  0  0
 17 18  2  0  0  0  0
 19 17  1  0  0  0  0
 20 19  1  0  0  0  0
 21 20  1  0  0  0  0
 21 22  1  1  0  0  0
 23 24  2  0  0  0  0
 24 21  1  0  0  0  0
 25 24  2  0  0  0  0
 26 27  1  0  0  0  0
 26 24  1  1  0  0  0
 28 43  1  6  0  0  0
 28 26  1  0  0  0  0
 29 32  1  0  0  0  0
 29 27  1  6  0  0  0
 30 31  1  0  0  0  0
 30 28  1  0  0  0  0
 31 29  1  0  0  0  0
 32 35  1  6  0  0  0
 32 33  1  0  0  0  0
 32 34  1  0  0  0  0
 33 34  1  0  0  0  0
 36 37  1  6  0  0  0
 36 35  1  0  0  0  0
 36 39  1  0  0  0  0
 39 38  1  6  0  0  0
 40 41  1  0  0  0  0
 41 39  1  0  0  0  0
 43 42  1  0  0  0  0
 44 45  1  0  0  0  0
 46  5  1  0  0  0  0
 47 50  1  0  0  0  0
 47 48  1  0  0  0  0
 48 46  1  0  0  0  0
 49 48  2  0  0  0  0
 51 56  1  0  0  0  0
 51 58  1  0  0  0  0
 52 54  1  1  0  0  0
 52 53  1  0  0  0  0
 53 50  1  6  0  0  0
 56 59  2  0  0  0  0
 57 60  1  0  0  0  0
 57 56  1  0  0  0  0
 58 61  1  6  0  0  0
 58 55  1  0  0  0  0
 59 53  1  0  0  0  0
 59 55  1  0  0  0  0
 60 52  1  0  0  0  0
 62 70  1  6  0  0  0
 62 63  1  0  0  0  0
 62 61  1  0  0  0  0
 64 62  1  0  0  0  0
 66 64  2  0  0  0  0
 67 64  1  0  0  0  0
 67 68  1  0  0  0  0
 68 69  1  0  0  0  0
 69 63  1  0  0  0  0
 69 65  1  1  0  0  0
M  END
>  <MODEL>
9

>  <REMARK>
 VINA RESULT:      -3.7      1.248      2.115
  Name = 
  22 active torsions:
  status: ('A' for Active; 'I' for Inactive)
    1  A    between atoms: C_1  and  S_58
    2  A    between atoms: C_2  and  C_64
    3  A    between atoms: C_4  and  C_41
    4  A    between atoms: C_4  and  N_43
    5  A    between atoms: C_7  and  C_31
    6  A    between atoms: C_7  and  C_45
    7  A    between atoms: C_9  and  C_25
    8  A    between atoms: C_11  and  C_23
    9  A    between atoms: C_11  and  C_32
   10  A    between atoms: C_16  and  C_27
   11  A    between atoms: C_17  and  C_29
   12  A    between atoms: C_19  and  C_54
   13  A    between atoms: N_22  and  C_49
   14  A    between atoms: C_23  and  C_64
   15  A    between atoms: C_25  and  C_50
   16  A    between atoms: C_26  and  C_49
   17  A    between atoms: C_27  and  C_35
   18  A    between atoms: C_29  and  C_60
   19  A    between atoms: C_31  and  C_32
   20  A    between atoms: C_35  and  N_43
   21  A    between atoms: O_39  and  C_70
   22  A    between atoms: C_45  and  S_58
                            x       y       z     vdW  Elec       q    Type
                         _______ _______ _______ _____ _____    ______ ____

>  <TORSDO>
F 22

$$$$
