=
 OpenBabel10222415153D

 65 69  0  0  1  0  0  0  0  0999 V2000
  187.2330  175.2270  137.1650 C   0  0  0  0  0  0  0  0  0  0  0  0
  182.1430  175.3520  140.6290 C   0  0  0  0  0  1  0  0  0  0  0  0
  185.2040  178.3510  140.9900 C   0  0  0  0  0  2  0  0  0  0  0  0
  186.6700  177.5000  138.2180 C   0  0  0  0  0  2  0  0  0  0  0  0
  184.2350  174.0110  134.8040 S   0  0  0  0  0  0  0  0  0  0  0  0
  187.5260  176.3400  138.0190 N   0  0  0  0  0  2  0  0  0  0  0  0
  183.2860  176.6770  138.7920 C   0  0  0  0  0  2  0  0  0  0  0  0
  182.7330  176.6910  140.2160 C   0  0  1  0  0  3  0  0  0  0  0  0
  184.7670  178.3770  143.4810 C   0  0  0  0  0  0  0  0  0  0  0  0
  188.1780  174.1920  137.0690 C   0  0  0  0  0  3  0  0  0  0  0  0
  186.7370  172.9670  135.5370 C   0  0  0  0  0  3  0  0  0  0  0  0
  181.7550  177.7550  140.3880 N   0  0  0  0  0  2  0  0  0  0  0  0
  183.7370  175.4790  135.8150 C   0  0  1  0  0  3  0  0  0  0  0  0
  184.0380  178.7140  144.4530 O   0  0  0  0  0  0  0  0  0  0  0  0
  186.0360  175.1000  136.4240 C   0  0  0  0  0  0  0  0  0  0  0  0
  182.4620  179.0300  140.5200 C   0  0  2  0  0  3  0  0  0  0  0  0
  182.9930  179.2090  141.9430 C   0  0  0  0  0  2  0  0  0  0  0  0
  185.8210  174.0100  135.6080 C   0  0  0  0  0  0  0  0  0  0  0  0
  186.0080  177.5530  143.7240 C   0  0  1  0  0  3  0  0  0  0  0  0
  182.6470  175.0900  136.8370 C   0  0  1  0  0  3  0  0  0  0  0  0
  184.3470  178.6740  142.1400 N   0  0  0  0  0  0  0  0  0  0  0  0
  186.6360  178.0380  141.3540 C   0  0  0  0  0  0  0  0  0  0  0  0
  187.9300  173.0650  136.2670 C   0  0  0  0  0  3  0  0  0  0  0  0
  181.2570  176.8700  137.6050 O   0  0  0  0  0  0  0  0  0  0  0  0
  184.9290  175.9840  136.4980 N   0  0  0  0  0  2  0  0  0  0  0  0
  187.6370  178.0780  140.3700 O   0  0  0  0  0  0  0  0  0  0  0  0
  187.4100  178.5470  139.0370 C   0  0  0  0  0  2  0  0  0  0  0  0
  182.3000  176.2570  137.7350 C   0  0  0  0  0  0  0  0  0  0  0  0
  186.9800  177.6900  142.5890 C   0  0  0  0  0  3  0  0  0  0  0  0
  181.4810  180.1570  140.1890 C   0  0  0  0  0  3  0  0  0  0  0  0
  180.2270  179.9430  141.0140 C   0  0  0  0  0  2  0  0  0  0  0  0
  180.2370  179.5950  139.5420 C   0  0  0  0  0  2  0  0  0  0  0  0
  181.4020  174.5670  136.1130 C   0  0  0  0  0  2  0  0  0  0  0  0
  181.0120  175.4890  134.9720 C   0  0  0  0  0  2  0  0  0  0  0  0
  179.6270  175.9250  135.1510 N   0  0  0  0  0  2  0  0  0  0  0  0
  179.5290  177.2140  134.5970 N   0  0  0  0  0  2  0  0  0  0  0  0
  179.8500  179.4480  135.6310 C   0  0  0  0  0  0  0  0  0  0  0  0
  180.7180  179.7680  134.7760 O   0  0  0  0  0  0  0  0  0  0  0  0
  179.3290  178.1100  135.6630 N   0  0  0  0  0  2  0  0  0  0  0  0
  179.3500  180.4630  136.6120 C   0  0  0  0  0  2  0  0  0  0  0  0
  180.1760  181.7370  136.5350 C   0  0  0  0  0  2  0  0  0  0  0  0
  179.6050  182.7960  135.5900 C   0  0  0  0  0  2  0  0  0  0  0  0
  181.4380  184.3250  136.3840 C   0  0  0  0  0  1  0  0  0  0  0  0
  180.6280  183.8570  135.1840 C   0  0  2  0  0  3  0  0  0  0  0  0
  179.9920  184.9500  134.5940 O   0  0  0  0  0  1  0  0  0  0  0  0
  186.6480  177.9470  144.9060 O   0  0  0  0  0  0  0  0  0  0  0  0
  187.7720  178.6730  144.5000 C   0  0  0  0  0  2  0  0  0  0  0  0
  188.7860  176.5870  145.2050 O   0  0  0  0  0  1  0  0  0  0  0  0
  189.0650  177.8970  144.8040 C   0  0  1  0  0  3  0  0  0  0  0  0
  190.0330  177.9120  143.6080 C   0  0  1  0  0  3  0  0  0  0  0  0
  191.9340  177.7680  145.1040 O   0  0  0  0  0  1  0  0  0  0  0  0
  191.4280  179.7950  144.2210 O   0  0  0  0  0  1  0  0  0  0  0  0
  191.4530  178.4190  143.9660 C   0  0  0  0  0  3  0  0  0  0  0  0
  190.0970  176.6290  143.0430 O   0  0  0  0  0  0  0  0  0  0  0  0
  190.9750  176.7570  141.9630 C   0  0  0  0  0  2  0  0  0  0  0  0
  190.2260  176.5880  140.6480 C   0  0  0  0  0  2  0  0  0  0  0  0
  190.9910  177.2150  139.4880 C   0  0  0  0  0  2  0  0  0  0  0  0
  192.3170  176.6240  139.3890 N   0  0  0  0  0  2  0  0  0  0  0  0
  192.5470  176.3360  137.9810 C   0  0  0  0  0  2  0  0  0  0  0  0
  193.4790  175.1430  137.8520 C   0  0  0  0  0  2  0  0  0  0  0  0
  194.0920  176.4420  135.5230 O   0  0  0  0  0  1  0  0  0  0  0  0
  194.5060  175.2410  136.3450 P   0  0  2  0  0  0  0  0  0  0  0  0
  194.3160  173.8190  135.4410 O   0  0  0  0  0  0  0  0  0  0  0  0
  196.3100  174.4680  137.8490 C   0  0  0  0  0  1  0  0  0  0  0  0
  196.1270  175.3900  136.8050 O   0  0  0  0  0  0  0  0  0  0  0  0
  1  6  1  0  0  0  0
  3 22  1  0  0  0  0
  3 21  1  0  0  0  0
  4 27  1  0  0  0  0
  5 18  1  0  0  0  0
  6  4  1  0  0  0  0
  7  8  1  0  0  0  0
  8 12  1  0  0  0  0
  8  2  1  6  0  0  0
  9 19  1  0  0  0  0
  9 14  2  0  0  0  0
 10  1  1  0  0  0  0
 11 18  2  0  0  0  0
 11 23  1  0  0  0  0
 12 16  1  0  0  0  0
 13  5  1  1  0  0  0
 13 25  1  0  0  0  0
 13 20  1  0  0  0  0
 15 25  1  0  0  0  0
 15  1  2  0  0  0  0
 16 30  1  1  0  0  0
 16 17  1  0  0  0  0
 17 21  1  0  0  0  0
 18 15  1  0  0  0  0
 19 46  1  1  0  0  0
 20 33  1  6  0  0  0
 20 28  1  0  0  0  0
 21  9  1  0  0  0  0
 22 29  2  0  0  0  0
 23 10  2  0  0  0  0
 24 28  2  0  0  0  0
 26 22  1  0  0  0  0
 27 26  1  0  0  0  0
 28  7  1  0  0  0  0
 29 19  1  0  0  0  0
 30 31  1  0  0  0  0
 32 30  1  0  0  0  0
 32 31  1  0  0  0  0
 34 35  1  0  0  0  0
 34 33  1  0  0  0  0
 36 35  1  0  0  0  0
 36 39  1  0  0  0  0
 37 39  1  0  0  0  0
 37 40  1  0  0  0  0
 38 37  2  0  0  0  0
 41 40  1  0  0  0  0
 42 41  1  0  0  0  0
 44 42  1  0  0  0  0
 44 43  1  1  0  0  0
 45 44  1  0  0  0  0
 47 49  1  0  0  0  0
 47 46  1  0  0  0  0
 49 48  1  6  0  0  0
 50 54  1  1  0  0  0
 50 53  1  0  0  0  0
 50 49  1  0  0  0  0
 53 52  1  0  0  0  0
 53 51  1  0  0  0  0
 55 54  1  0  0  0  0
 56 55  1  0  0  0  0
 57 56  1  0  0  0  0
 58 57  1  0  0  0  0
 59 58  1  0  0  0  0
 60 59  1  0  0  0  0
 61 62  1  0  0  0  0
 62 63  2  6  0  0  0
 62 65  1  0  0  0  0
 62 60  1  0  0  0  0
 65 64  1  0  0  0  0
M  END
>  <MODEL>
1

>  <REMARK>
 VINA RESULT:      -3.9      0.000      0.000
  Name = 
  24 active torsions:
  status: ('A' for Active; 'I' for Inactive)
    1  A    between atoms: C_1  and  O_15
    2  A    between atoms: C_1  and  C_58
    3  A    between atoms: C_3  and  C_37
    4  A    between atoms: C_4  and  N_48
    5  A    between atoms: C_4  and  C_62
    6  A    between atoms: C_5  and  O_15
    7  A    between atoms: C_5  and  C_19
    8  A    between atoms: C_5  and  C_64
    9  A    between atoms: C_9  and  C_52
   10  A    between atoms: O_11  and  C_42
   11  A    between atoms: O_11  and  C_46
   12  A    between atoms: C_14  and  C_63
   13  A    between atoms: O_22  and  P_41
   14  A    between atoms: C_24  and  C_43
   15  A    between atoms: C_24  and  C_53
   16  A    between atoms: C_28  and  N_48
   17  A    between atoms: C_28  and  C_58
   18  A    between atoms: N_40  and  N_49
   19  A    between atoms: P_41  and  C_62
   20  A    between atoms: C_46  and  C_64
   21  A    between atoms: C_47  and  C_52
   22  A    between atoms: C_47  and  C_63
   23  A    between atoms: N_49  and  N_50
   24  A    between atoms: N_50  and  C_53
                            x       y       z     vdW  Elec       q    Type
                         _______ _______ _______ _____ _____    ______ ____

>  <TORSDO>
F 24

$$$$
=
 OpenBabel10222415153D

 65 69  0  0  1  0  0  0  0  0999 V2000
  186.6500  177.8510  142.4010 C   0  0  0  0  0  0  0  0  0  0  0  0
  189.0560  173.9410  138.2960 C   0  0  0  0  0  1  0  0  0  0  0  0
  185.7340  176.4920  137.3200 C   0  0  0  0  0  2  0  0  0  0  0  0
  186.1240  178.3700  139.9420 C   0  0  0  0  0  2  0  0  0  0  0  0
  190.6090  177.8780  143.0080 S   0  0  0  0  0  0  0  0  0  0  0  0
  185.7440  178.0320  141.3060 N   0  0  0  0  0  2  0  0  0  0  0  0
  188.8000  176.4340  138.7010 C   0  0  0  0  0  2  0  0  0  0  0  0
  188.5170  175.2610  137.7640 C   0  0  1  0  0  3  0  0  0  0  0  0
  184.7970  174.5990  135.9300 C   0  0  0  0  0  0  0  0  0  0  0  0
  186.1180  177.5450  143.6650 C   0  0  0  0  0  3  0  0  0  0  0  0
  188.3530  177.4370  144.6220 C   0  0  0  0  0  3  0  0  0  0  0  0
  189.0310  175.5210  136.4280 N   0  0  0  0  0  2  0  0  0  0  0  0
  190.2080  177.9360  141.2020 C   0  0  1  0  0  3  0  0  0  0  0  0
  184.8320  173.9010  134.8800 O   0  0  0  0  0  0  0  0  0  0  0  0
  188.0550  177.9450  142.2800 C   0  0  0  0  0  0  0  0  0  0  0  0
  188.1250  176.4430  135.7430 C   0  0  2  0  0  3  0  0  0  0  0  0
  186.9080  175.6980  135.1930 C   0  0  0  0  0  2  0  0  0  0  0  0
  188.8720  177.7730  143.3780 C   0  0  0  0  0  0  0  0  0  0  0  0
  183.8010  174.2720  137.0160 C   0  0  1  0  0  3  0  0  0  0  0  0
  190.6600  176.6360  140.5030 C   0  0  1  0  0  3  0  0  0  0  0  0
  185.7850  175.6200  136.1380 N   0  0  0  0  0  0  0  0  0  0  0  0
  184.4160  176.4590  138.0560 C   0  0  0  0  0  0  0  0  0  0  0  0
  186.9620  177.3310  144.7680 C   0  0  0  0  0  3  0  0  0  0  0  0
  191.0660  176.8010  138.1580 O   0  0  0  0  0  0  0  0  0  0  0  0
  188.7640  178.1220  141.0650 N   0  0  0  0  0  2  0  0  0  0  0  0
  184.0880  177.4860  138.9560 O   0  0  0  0  0  0  0  0  0  0  0  0
  184.8770  178.6680  139.1230 C   0  0  0  0  0  2  0  0  0  0  0  0
  190.2520  176.6300  139.0460 C   0  0  0  0  0  0  0  0  0  0  0  0
  183.5560  175.4590  137.9000 C   0  0  0  0  0  3  0  0  0  0  0  0
  188.8910  177.1020  134.5940 C   0  0  0  0  0  3  0  0  0  0  0  0
  189.9380  178.0200  135.1940 C   0  0  0  0  0  2  0  0  0  0  0  0
  188.6700  178.5960  134.6060 C   0  0  0  0  0  2  0  0  0  0  0  0
  192.1740  176.4520  140.6490 C   0  0  0  0  0  2  0  0  0  0  0  0
  192.9090  177.7460  140.3440 C   0  0  0  0  0  2  0  0  0  0  0  0
  194.0700  177.4580  139.5030 N   0  0  0  0  0  2  0  0  0  0  0  0
  194.0650  176.0720  139.2590 N   0  0  0  0  0  2  0  0  0  0  0  0
  194.1480  174.6040  137.2590 C   0  0  0  0  0  0  0  0  0  0  0  0
  194.1110  173.5620  137.9680 O   0  0  0  0  0  0  0  0  0  0  0  0
  194.2750  175.8930  137.8790 N   0  0  0  0  0  2  0  0  0  0  0  0
  194.0540  174.5030  135.7690 C   0  0  0  0  0  2  0  0  0  0  0  0
  195.3340  173.9270  135.1850 C   0  0  0  0  0  2  0  0  0  0  0  0
  196.5640  174.8170  135.3750 C   0  0  0  0  0  2  0  0  0  0  0  0
  198.7100  173.5760  134.9560 C   0  0  0  0  0  1  0  0  0  0  0  0
  197.7450  174.0870  136.0150 C   0  0  2  0  0  3  0  0  0  0  0  0
  197.2970  173.0200  136.7940 O   0  0  0  0  0  1  0  0  0  0  0  0
  182.5770  173.8670  136.4680 O   0  0  0  0  0  0  0  0  0  0  0  0
  181.6120  174.6890  137.0570 C   0  0  0  0  0  2  0  0  0  0  0  0
  180.7570  175.4370  134.9150 O   0  0  0  0  0  1  0  0  0  0  0  0
  181.2680  175.8750  136.1400 C   0  0  1  0  0  3  0  0  0  0  0  0
  180.3010  176.8610  136.8190 C   0  0  1  0  0  3  0  0  0  0  0  0
  179.0160  177.5270  134.8760 O   0  0  0  0  0  1  0  0  0  0  0  0
  180.9450  178.6390  135.3080 O   0  0  0  0  0  1  0  0  0  0  0  0
  179.8390  178.0140  135.8940 C   0  0  0  0  0  3  0  0  0  0  0  0
  179.1940  176.1570  137.3200 O   0  0  0  0  0  0  0  0  0  0  0  0
  178.9360  176.7360  138.5660 C   0  0  0  0  0  2  0  0  0  0  0  0
  179.3990  175.8120  139.6850 C   0  0  0  0  0  2  0  0  0  0  0  0
  179.7060  176.5920  140.9580 C   0  0  0  0  0  2  0  0  0  0  0  0
  180.4460  177.8020  140.6340 N   0  0  0  0  0  2  0  0  0  0  0  0
  179.9990  178.8310  141.5610 C   0  0  0  0  0  2  0  0  0  0  0  0
  178.9950  179.7380  140.8680 C   0  0  0  0  0  2  0  0  0  0  0  0
  179.7500  182.2630  140.1350 O   0  0  0  0  0  1  0  0  0  0  0  0
  179.7960  180.8320  139.6460 P   0  0  2  0  0  0  0  0  0  0  0  0
  178.9940  180.6960  138.1580 O   0  0  0  0  0  0  0  0  0  0  0  0
  181.7560  180.7050  138.1430 C   0  0  0  0  0  1  0  0  0  0  0  0
  181.4040  180.3420  139.4540 O   0  0  0  0  0  0  0  0  0  0  0  0
  1 10  1  0  0  0  0
  3 22  1  0  0  0  0
  4  6  1  0  0  0  0
  5 18  1  0  0  0  0
  6  1  1  0  0  0  0
  7 28  1  0  0  0  0
  8  2  1  1  0  0  0
  8  7  1  0  0  0  0
  9 21  1  0  0  0  0
  9 19  1  0  0  0  0
 10 23  2  0  0  0  0
 11 23  1  0  0  0  0
 12  8  1  0  0  0  0
 13 25  1  1  0  0  0
 13  5  1  0  0  0  0
 14  9  2  0  0  0  0
 15  1  2  0  0  0  0
 15 18  1  0  0  0  0
 16 30  1  6  0  0  0
 16 12  1  0  0  0  0
 17 16  1  0  0  0  0
 17 21  1  0  0  0  0
 18 11  2  0  0  0  0
 19 46  1  6  0  0  0
 19 29  1  0  0  0  0
 20 33  1  6  0  0  0
 20 13  1  0  0  0  0
 21  3  1  0  0  0  0
 22 26  1  0  0  0  0
 24 28  2  0  0  0  0
 25 15  1  0  0  0  0
 26 27  1  0  0  0  0
 27  4  1  0  0  0  0
 28 20  1  0  0  0  0
 29 22  2  0  0  0  0
 30 32  1  0  0  0  0
 30 31  1  0  0  0  0
 32 31  1  0  0  0  0
 34 33  1  0  0  0  0
 35 34  1  0  0  0  0
 36 35  1  0  0  0  0
 37 39  1  0  0  0  0
 37 38  2  0  0  0  0
 39 36  1  0  0  0  0
 40 37  1  0  0  0  0
 41 42  1  0  0  0  0
 41 40  1  0  0  0  0
 42 44  1  0  0  0  0
 44 43  1  6  0  0  0
 44 45  1  0  0  0  0
 46 47  1  0  0  0  0
 49 48  1  6  0  0  0
 49 50  1  0  0  0  0
 49 47  1  0  0  0  0
 50 53  1  6  0  0  0
 50 54  1  0  0  0  0
 51 53  1  0  0  0  0
 52 53  1  0  0  0  0
 54 55  1  0  0  0  0
 55 56  1  0  0  0  0
 56 57  1  0  0  0  0
 58 57  1  0  0  0  0
 58 59  1  0  0  0  0
 60 59  1  0  0  0  0
 62 63  2  6  0  0  0
 62 61  1  0  0  0  0
 62 60  1  0  0  0  0
 64 65  1  0  0  0  0
 65 62  1  0  0  0  0
M  END
>  <MODEL>
2

>  <REMARK>
 VINA RESULT:      -2.4      3.923     11.992
  Name = 
  24 active torsions:
  status: ('A' for Active; 'I' for Inactive)
    1  A    between atoms: C_1  and  O_15
    2  A    between atoms: C_1  and  C_58
    3  A    between atoms: C_3  and  C_37
    4  A    between atoms: C_4  and  N_48
    5  A    between atoms: C_4  and  C_62
    6  A    between atoms: C_5  and  O_15
    7  A    between atoms: C_5  and  C_19
    8  A    between atoms: C_5  and  C_64
    9  A    between atoms: C_9  and  C_52
   10  A    between atoms: O_11  and  C_42
   11  A    between atoms: O_11  and  C_46
   12  A    between atoms: C_14  and  C_63
   13  A    between atoms: O_22  and  P_41
   14  A    between atoms: C_24  and  C_43
   15  A    between atoms: C_24  and  C_53
   16  A    between atoms: C_28  and  N_48
   17  A    between atoms: C_28  and  C_58
   18  A    between atoms: N_40  and  N_49
   19  A    between atoms: P_41  and  C_62
   20  A    between atoms: C_46  and  C_64
   21  A    between atoms: C_47  and  C_52
   22  A    between atoms: C_47  and  C_63
   23  A    between atoms: N_49  and  N_50
   24  A    between atoms: N_50  and  C_53
                            x       y       z     vdW  Elec       q    Type
                         _______ _______ _______ _____ _____    ______ ____

>  <TORSDO>
F 24

$$$$
=
 OpenBabel10222415153D

 65 69  0  0  1  0  0  0  0  0999 V2000
  182.2240  178.8560  140.6330 C   0  0  0  0  0  0  0  0  0  0  0  0
  182.9720  175.8820  135.2920 C   0  0  0  0  0  1  0  0  0  0  0  0
  186.2510  176.5510  137.9930 C   0  0  0  0  0  2  0  0  0  0  0  0
  184.3250  177.3880  140.4710 C   0  0  0  0  0  2  0  0  0  0  0  0
  178.9340  176.6300  140.1130 S   0  0  0  0  0  0  0  0  0  0  0  0
  183.6440  178.6640  140.6370 N   0  0  0  0  0  2  0  0  0  0  0  0
  183.0760  175.4600  137.7920 C   0  0  0  0  0  2  0  0  0  0  0  0
  183.8300  175.4290  136.4630 C   0  0  1  0  0  3  0  0  0  0  0  0
  187.7330  176.9000  135.9740 C   0  0  0  0  0  0  0  0  0  0  0  0
  181.7230  180.1540  140.8260 C   0  0  0  0  0  3  0  0  0  0  0  0
  179.4380  179.3490  140.6040 C   0  0  0  0  0  3  0  0  0  0  0  0
  184.3890  174.1110  136.2080 N   0  0  0  0  0  2  0  0  0  0  0  0
  180.4630  175.6730  139.6950 C   0  0  1  0  0  3  0  0  0  0  0  0
  188.3700  176.4200  134.9970 O   0  0  0  0  0  0  0  0  0  0  0  0
  181.2920  177.8130  140.4250 C   0  0  0  0  0  0  0  0  0  0  0  0
  185.5870  173.9360  137.0300 C   0  0  2  0  0  3  0  0  0  0  0  0
  186.7880  174.6330  136.3910 C   0  0  0  0  0  2  0  0  0  0  0  0
  179.9360  178.0610  140.4460 C   0  0  0  0  0  0  0  0  0  0  0  0
  187.6910  178.3950  136.1800 C   0  0  1  0  0  3  0  0  0  0  0  0
  180.5110  175.3580  138.1840 C   0  0  1  0  0  3  0  0  0  0  0  0
  186.9530  176.0320  136.8100 N   0  0  0  0  0  0  0  0  0  0  0  0
  186.7040  177.9240  138.4270 C   0  0  0  0  0  0  0  0  0  0  0  0
  180.3400  180.4020  140.8040 C   0  0  0  0  0  3  0  0  0  0  0  0
  181.8290  173.4720  137.5540 O   0  0  0  0  0  0  0  0  0  0  0  0
  181.6210  176.4730  140.0930 N   0  0  0  0  0  2  0  0  0  0  0  0
  186.4080  178.3860  139.7200 O   0  0  0  0  0  0  0  0  0  0  0  0
  185.8130  177.5660  140.7310 C   0  0  0  0  0  2  0  0  0  0  0  0
  181.8000  174.6610  137.8130 C   0  0  0  0  0  0  0  0  0  0  0  0
  187.3570  178.7350  137.6030 C   0  0  0  0  0  3  0  0  0  0  0  0
  185.8660  172.4370  137.1580 C   0  0  0  0  0  3  0  0  0  0  0  0
  187.2710  172.1780  136.6500 C   0  0  0  0  0  2  0  0  0  0  0  0
  186.0760  171.8270  135.7930 C   0  0  0  0  0  2  0  0  0  0  0  0
  179.2960  174.5160  137.7780 C   0  0  0  0  0  2  0  0  0  0  0  0
  179.3050  174.2370  136.2860 C   0  0  0  0  0  2  0  0  0  0  0  0
  178.9310  175.4520  135.5620 N   0  0  0  0  0  2  0  0  0  0  0  0
  179.3260  176.5410  136.3600 N   0  0  0  0  0  2  0  0  0  0  0  0
  179.9600  178.8800  135.8220 C   0  0  0  0  0  0  0  0  0  0  0  0
  180.6090  178.9980  136.8950 O   0  0  0  0  0  0  0  0  0  0  0  0
  179.1740  177.7030  135.5810 N   0  0  0  0  0  2  0  0  0  0  0  0
  180.0110  179.9630  134.7900 C   0  0  0  0  0  2  0  0  0  0  0  0
  179.4960  181.2750  135.3600 C   0  0  0  0  0  2  0  0  0  0  0  0
  180.5810  182.3310  135.5780 C   0  0  0  0  0  2  0  0  0  0  0  0
  181.3150  184.3840  136.8310 C   0  0  0  0  0  1  0  0  0  0  0  0
  180.2910  183.2620  136.7560 C   0  0  2  0  0  3  0  0  0  0  0  0
  180.2890  182.5480  137.9540 O   0  0  0  0  0  1  0  0  0  0  0  0
  188.9220  178.9800  135.8610 O   0  0  0  0  0  0  0  0  0  0  0  0
  189.7820  178.6420  136.9100 C   0  0  0  0  0  2  0  0  0  0  0  0
  191.1990  176.8740  136.0470 O   0  0  0  0  0  1  0  0  0  0  0  0
  190.1120  177.1400  136.8850 C   0  0  1  0  0  3  0  0  0  0  0  0
  190.3600  176.5870  138.2990 C   0  0  1  0  0  3  0  0  0  0  0  0
  192.5030  175.4880  138.0340 O   0  0  0  0  0  1  0  0  0  0  0  0
  190.6480  174.3760  137.3530 O   0  0  0  0  0  1  0  0  0  0  0  0
  191.1560  175.2570  138.3150 C   0  0  0  0  0  3  0  0  0  0  0  0
  191.0110  177.5590  139.0730 O   0  0  0  0  0  0  0  0  0  0  0  0
  190.8380  177.1400  140.3950 C   0  0  0  0  0  2  0  0  0  0  0  0
  191.9140  177.7440  141.2870 C   0  0  0  0  0  2  0  0  0  0  0  0
  191.9600  177.0560  142.6460 C   0  0  0  0  0  2  0  0  0  0  0  0
  191.6160  178.0030  143.6960 N   0  0  0  0  0  2  0  0  0  0  0  0
  190.8670  177.2640  144.7020 C   0  0  0  0  0  2  0  0  0  0  0  0
  189.6240  178.0480  145.0890 C   0  0  0  0  0  2  0  0  0  0  0  0
  188.2830  176.1060  143.7050 O   0  0  0  0  0  1  0  0  0  0  0  0
  188.1760  177.5660  144.0860 P   0  0  2  0  0  0  0  0  0  0  0  0
  188.1080  178.5320  142.6940 O   0  0  0  0  0  0  0  0  0  0  0  0
  185.7690  178.1330  144.0760 C   0  0  0  0  0  1  0  0  0  0  0  0
  186.7770  177.8190  145.0030 O   0  0  0  0  0  0  0  0  0  0  0  0
  1  6  1  0  0  0  0
  1 10  1  0  0  0  0
  3 22  1  0  0  0  0
  4  6  1  0  0  0  0
  4 27  1  0  0  0  0
  5 18  1  0  0  0  0
  7 28  1  0  0  0  0
  8  2  1  6  0  0  0
  8  7  1  0  0  0  0
  9 19  1  0  0  0  0
  9 21  1  0  0  0  0
 11 23  1  0  0  0  0
 12  8  1  0  0  0  0
 12 16  1  0  0  0  0
 13 25  1  6  0  0  0
 13  5  1  0  0  0  0
 14  9  2  0  0  0  0
 15 18  1  0  0  0  0
 15  1  2  0  0  0  0
 16 30  1  6  0  0  0
 17 21  1  0  0  0  0
 17 16  1  0  0  0  0
 18 11  2  0  0  0  0
 19 46  1  1  0  0  0
 19 29  1  0  0  0  0
 20 33  1  1  0  0  0
 20 13  1  0  0  0  0
 21  3  1  0  0  0  0
 22 26  1  0  0  0  0
 23 10  2  0  0  0  0
 24 28  2  0  0  0  0
 25 15  1  0  0  0  0
 26 27  1  0  0  0  0
 28 20  1  0  0  0  0
 29 22  2  0  0  0  0
 31 30  1  0  0  0  0
 32 31  1  0  0  0  0
 32 30  1  0  0  0  0
 34 33  1  0  0  0  0
 35 34  1  0  0  0  0
 35 36  1  0  0  0  0
 37 38  2  0  0  0  0
 39 37  1  0  0  0  0
 39 36  1  0  0  0  0
 40 41  1  0  0  0  0
 40 37  1  0  0  0  0
 41 42  1  0  0  0  0
 42 44  1  0  0  0  0
 44 43  1  1  0  0  0
 44 45  1  0  0  0  0
 46 47  1  0  0  0  0
 49 48  1  6  0  0  0
 49 47  1  0  0  0  0
 49 50  1  0  0  0  0
 50 53  1  6  0  0  0
 50 54  1  0  0  0  0
 51 53  1  0  0  0  0
 52 53  1  0  0  0  0
 54 55  1  0  0  0  0
 55 56  1  0  0  0  0
 56 57  1  0  0  0  0
 57 58  1  0  0  0  0
 58 59  1  0  0  0  0
 59 60  1  0  0  0  0
 61 62  1  0  0  0  0
 62 63  2  6  0  0  0
 62 65  1  0  0  0  0
 62 60  1  0  0  0  0
 64 65  1  0  0  0  0
M  END
>  <MODEL>
3

>  <REMARK>
 VINA RESULT:      -2.2      2.626      6.721
  Name = 
  24 active torsions:
  status: ('A' for Active; 'I' for Inactive)
    1  A    between atoms: C_1  and  O_15
    2  A    between atoms: C_1  and  C_58
    3  A    between atoms: C_3  and  C_37
    4  A    between atoms: C_4  and  N_48
    5  A    between atoms: C_4  and  C_62
    6  A    between atoms: C_5  and  O_15
    7  A    between atoms: C_5  and  C_19
    8  A    between atoms: C_5  and  C_64
    9  A    between atoms: C_9  and  C_52
   10  A    between atoms: O_11  and  C_42
   11  A    between atoms: O_11  and  C_46
   12  A    between atoms: C_14  and  C_63
   13  A    between atoms: O_22  and  P_41
   14  A    between atoms: C_24  and  C_43
   15  A    between atoms: C_24  and  C_53
   16  A    between atoms: C_28  and  N_48
   17  A    between atoms: C_28  and  C_58
   18  A    between atoms: N_40  and  N_49
   19  A    between atoms: P_41  and  C_62
   20  A    between atoms: C_46  and  C_64
   21  A    between atoms: C_47  and  C_52
   22  A    between atoms: C_47  and  C_63
   23  A    between atoms: N_49  and  N_50
   24  A    between atoms: N_50  and  C_53
                            x       y       z     vdW  Elec       q    Type
                         _______ _______ _______ _____ _____    ______ ____

>  <TORSDO>
F 24

$$$$
=
 OpenBabel10222415153D

 65 69  0  0  1  0  0  0  0  0999 V2000
  182.7280  178.5310  140.6680 C   0  0  0  0  0  0  0  0  0  0  0  0
  187.5340  175.8060  143.3900 C   0  0  0  0  0  1  0  0  0  0  0  0
  187.9440  177.9520  139.6850 C   0  0  0  0  0  2  0  0  0  0  0  0
  185.0380  179.3830  139.9400 C   0  0  0  0  0  2  0  0  0  0  0  0
  182.2350  179.0540  144.6080 S   0  0  0  0  0  0  0  0  0  0  0  0
  183.7480  178.7590  139.6870 N   0  0  0  0  0  2  0  0  0  0  0  0
  186.6800  178.1220  142.7980 C   0  0  0  0  0  2  0  0  0  0  0  0
  187.8050  177.1000  142.6380 C   0  0  1  0  0  3  0  0  0  0  0  0
  189.6260  176.2080  138.9590 C   0  0  0  0  0  0  0  0  0  0  0  0
  181.5260  177.9320  140.2550 C   0  0  0  0  0  3  0  0  0  0  0  0
  180.6660  178.0010  142.5310 C   0  0  0  0  0  3  0  0  0  0  0  0
  189.0860  177.6640  143.0360 N   0  0  0  0  0  2  0  0  0  0  0  0
  183.9890  179.3640  144.1070 C   0  0  1  0  0  3  0  0  0  0  0  0
  190.7850  175.7170  139.0380 O   0  0  0  0  0  0  0  0  0  0  0  0
  182.8690  178.8560  142.0360 C   0  0  0  0  0  0  0  0  0  0  0  0
  189.5680  178.5430  141.9690 C   0  0  2  0  0  3  0  0  0  0  0  0
  190.2100  177.7270  140.8450 C   0  0  0  0  0  2  0  0  0  0  0  0
  181.8430  178.6240  142.9280 C   0  0  0  0  0  0  0  0  0  0  0  0
  188.5890  175.5500  138.0810 C   0  0  1  0  0  3  0  0  0  0  0  0
  184.9230  178.2890  144.7030 C   0  0  1  0  0  3  0  0  0  0  0  0
  189.2650  177.3160  139.7990 N   0  0  0  0  0  0  0  0  0  0  0  0
  187.1900  177.5910  138.4280 C   0  0  0  0  0  0  0  0  0  0  0  0
  180.5030  177.6610  141.1800 C   0  0  0  0  0  3  0  0  0  0  0  0
  187.2110  178.9190  144.9540 O   0  0  0  0  0  0  0  0  0  0  0  0
  184.0510  179.3490  142.6450 N   0  0  0  0  0  2  0  0  0  0  0  0
  186.1110  178.3840  138.0040 O   0  0  0  0  0  0  0  0  0  0  0  0
  185.7560  179.6250  138.6210 C   0  0  0  0  0  2  0  0  0  0  0  0
  186.3450  178.4740  144.2230 C   0  0  0  0  0  0  0  0  0  0  0  0
  187.4990  176.5140  137.7150 C   0  0  0  0  0  3  0  0  0  0  0  0
  190.6010  179.5000  142.5680 C   0  0  0  0  0  3  0  0  0  0  0  0
  191.7570  178.6710  143.0950 C   0  0  0  0  0  2  0  0  0  0  0  0
  190.7420  179.2550  144.0520 C   0  0  0  0  0  2  0  0  0  0  0  0
  184.8540  178.3160  146.2340 C   0  0  0  0  0  2  0  0  0  0  0  0
  185.6480  177.1670  146.8320 C   0  0  0  0  0  2  0  0  0  0  0  0
  187.0600  177.5400  146.9050 N   0  0  0  0  0  2  0  0  0  0  0  0
  187.2610  178.1350  148.1650 N   0  0  0  0  0  2  0  0  0  0  0  0
  189.5300  177.1610  147.8990 C   0  0  0  0  0  0  0  0  0  0  0  0
  189.0590  176.0580  147.5130 O   0  0  0  0  0  0  0  0  0  0  0  0
  188.6510  178.1910  148.3790 N   0  0  0  0  0  2  0  0  0  0  0  0
  191.0050  177.4070  147.8530 C   0  0  0  0  0  2  0  0  0  0  0  0
  191.7190  176.2650  147.1480 C   0  0  0  0  0  2  0  0  0  0  0  0
  191.9240  176.4860  145.6480 C   0  0  0  0  0  2  0  0  0  0  0  0
  192.5160  174.0870  145.1820 C   0  0  0  0  0  1  0  0  0  0  0  0
  191.6090  175.2490  144.8060 C   0  0  2  0  0  3  0  0  0  0  0  0
  191.7500  175.5320  143.4470 O   0  0  0  0  0  1  0  0  0  0  0  0
  189.1670  175.0650  136.9010 O   0  0  0  0  0  0  0  0  0  0  0  0
  188.1040  174.8720  136.0140 C   0  0  0  0  0  2  0  0  0  0  0  0
  189.8610  173.5960  134.9370 O   0  0  0  0  0  1  0  0  0  0  0  0
  188.4960  173.8960  134.8930 C   0  0  1  0  0  3  0  0  0  0  0  0
  187.6490  172.6110  134.9320 C   0  0  1  0  0  3  0  0  0  0  0  0
  188.0210  170.2260  135.1370 O   0  0  0  0  0  1  0  0  0  0  0  0
  187.8290  171.4390  137.0430 O   0  0  0  0  0  1  0  0  0  0  0  0
  188.3080  171.4570  135.7290 C   0  0  0  0  0  3  0  0  0  0  0  0
  186.3790  172.9060  135.4520 O   0  0  0  0  0  0  0  0  0  0  0  0
  185.7360  171.6690  135.5490 C   0  0  0  0  0  2  0  0  0  0  0  0
  184.5400  171.6190  134.6080 C   0  0  0  0  0  2  0  0  0  0  0  0
  183.5010  172.6720  134.9750 C   0  0  0  0  0  2  0  0  0  0  0  0
  182.1650  172.1010  134.8990 N   0  0  0  0  0  2  0  0  0  0  0  0
  181.2770  173.0050  135.6160 C   0  0  0  0  0  2  0  0  0  0  0  0
  181.9600  174.3510  135.7960 C   0  0  0  0  0  2  0  0  0  0  0  0
  182.9080  175.2300  138.2070 O   0  0  0  0  0  0  0  0  0  0  0  0
  181.6150  175.0750  137.4360 P   0  0  2  0  0  0  0  0  0  0  0  0
  180.5450  174.0680  138.2830 O   0  0  0  0  0  1  0  0  0  0  0  0
  181.1420  176.9370  135.8780 C   0  0  0  0  0  1  0  0  0  0  0  0
  180.8920  176.5890  137.2160 O   0  0  0  0  0  0  0  0  0  0  0  0
  1 15  1  0  0  0  0
  3 21  1  0  0  0  0
  6  4  1  0  0  0  0
  6  1  1  0  0  0  0
  7 28  1  0  0  0  0
  8  7  1  0  0  0  0
  8 12  1  0  0  0  0
  8  2  1  1  0  0  0
  9 14  2  0  0  0  0
  9 21  1  0  0  0  0
 10  1  2  0  0  0  0
 10 23  1  0  0  0  0
 11 18  1  0  0  0  0
 13 25  1  6  0  0  0
 13  5  1  0  0  0  0
 13 20  1  0  0  0  0
 15 25  1  0  0  0  0
 15 18  2  0  0  0  0
 16 30  1  1  0  0  0
 16 12  1  0  0  0  0
 17 16  1  0  0  0  0
 18  5  1  0  0  0  0
 19 46  1  6  0  0  0
 19  9  1  0  0  0  0
 20 33  1  1  0  0  0
 21 17  1  0  0  0  0
 22  3  1  0  0  0  0
 23 11  2  0  0  0  0
 26 22  1  0  0  0  0
 26 27  1  0  0  0  0
 27  4  1  0  0  0  0
 28 20  1  0  0  0  0
 28 24  2  0  0  0  0
 29 19  1  0  0  0  0
 29 22  2  0  0  0  0
 30 31  1  0  0  0  0
 30 32  1  0  0  0  0
 31 32  1  0  0  0  0
 33 34  1  0  0  0  0
 34 35  1  0  0  0  0
 35 36  1  0  0  0  0
 36 39  1  0  0  0  0
 37 39  1  0  0  0  0
 38 37  2  0  0  0  0
 40 37  1  0  0  0  0
 41 40  1  0  0  0  0
 42 41  1  0  0  0  0
 44 43  1  1  0  0  0
 44 42  1  0  0  0  0
 45 44  1  0  0  0  0
 47 46  1  0  0  0  0
 49 50  1  0  0  0  0
 49 48  1  1  0  0  0
 49 47  1  0  0  0  0
 50 54  1  1  0  0  0
 50 53  1  0  0  0  0
 51 53  1  0  0  0  0
 53 52  1  0  0  0  0
 54 55  1  0  0  0  0
 56 57  1  0  0  0  0
 56 55  1  0  0  0  0
 58 57  1  0  0  0  0
 58 59  1  0  0  0  0
 59 60  1  0  0  0  0
 60 62  1  0  0  0  0
 62 61  2  1  0  0  0
 62 63  1  0  0  0  0
 64 65  1  0  0  0  0
 65 62  1  0  0  0  0
M  END
>  <MODEL>
4

>  <REMARK>
 VINA RESULT:      -2.1      3.922     10.957
  Name = 
  24 active torsions:
  status: ('A' for Active; 'I' for Inactive)
    1  A    between atoms: C_1  and  O_15
    2  A    between atoms: C_1  and  C_58
    3  A    between atoms: C_3  and  C_37
    4  A    between atoms: C_4  and  N_48
    5  A    between atoms: C_4  and  C_62
    6  A    between atoms: C_5  and  O_15
    7  A    between atoms: C_5  and  C_19
    8  A    between atoms: C_5  and  C_64
    9  A    between atoms: C_9  and  C_52
   10  A    between atoms: O_11  and  C_42
   11  A    between atoms: O_11  and  C_46
   12  A    between atoms: C_14  and  C_63
   13  A    between atoms: O_22  and  P_41
   14  A    between atoms: C_24  and  C_43
   15  A    between atoms: C_24  and  C_53
   16  A    between atoms: C_28  and  N_48
   17  A    between atoms: C_28  and  C_58
   18  A    between atoms: N_40  and  N_49
   19  A    between atoms: P_41  and  C_62
   20  A    between atoms: C_46  and  C_64
   21  A    between atoms: C_47  and  C_52
   22  A    between atoms: C_47  and  C_63
   23  A    between atoms: N_49  and  N_50
   24  A    between atoms: N_50  and  C_53
                            x       y       z     vdW  Elec       q    Type
                         _______ _______ _______ _____ _____    ______ ____

>  <TORSDO>
F 24

$$$$
=
 OpenBabel10222415153D

 65 69  0  0  1  0  0  0  0  0999 V2000
  187.4210  177.7170  144.9440 C   0  0  0  0  0  0  0  0  0  0  0  0
  187.3120  179.7360  139.1260 C   0  0  0  0  0  1  0  0  0  0  0  0
  189.6670  176.3340  140.3020 C   0  0  0  0  0  2  0  0  0  0  0  0
  188.1770  176.0190  143.1710 C   0  0  0  0  0  2  0  0  0  0  0  0
  183.6570  178.8850  144.2280 S   0  0  0  0  0  0  0  0  0  0  0  0
  188.3930  176.8490  144.3480 N   0  0  0  0  0  2  0  0  0  0  0  0
  186.6120  177.7250  140.5080 C   0  0  0  0  0  2  0  0  0  0  0  0
  187.4500  178.2350  139.3370 C   0  0  1  0  0  3  0  0  0  0  0  0
  191.4390  177.1030  138.6690 C   0  0  0  0  0  0  0  0  0  0  0  0
  187.7840  178.4390  146.0930 C   0  0  0  0  0  3  0  0  0  0  0  0
  185.5890  179.4860  146.1760 C   0  0  0  0  0  3  0  0  0  0  0  0
  187.1330  177.5160  138.1130 N   0  0  0  0  0  2  0  0  0  0  0  0
  184.3370  177.9110  142.8080 C   0  0  1  0  0  3  0  0  0  0  0  0
  191.8410  177.2270  137.4810 O   0  0  0  0  0  0  0  0  0  0  0  0
  186.1180  177.9050  144.4290 C   0  0  0  0  0  0  0  0  0  0  0  0
  187.7740  176.2010  138.1570 C   0  0  2  0  0  3  0  0  0  0  0  0
  189.2530  176.3070  137.7800 C   0  0  0  0  0  2  0  0  0  0  0  0
  185.2230  178.7450  145.0590 C   0  0  0  0  0  0  0  0  0  0  0  0
  192.2690  177.6540  139.8040 C   0  0  1  0  0  3  0  0  0  0  0  0
  184.5000  178.8090  141.5620 C   0  0  1  0  0  3  0  0  0  0  0  0
  190.1390  176.5500  138.9260 N   0  0  0  0  0  0  0  0  0  0  0  0
  190.7560  176.3980  141.3460 C   0  0  0  0  0  0  0  0  0  0  0  0
  186.8780  179.3240  146.7020 C   0  0  0  0  0  3  0  0  0  0  0  0
  184.5000  177.6820  139.4590 O   0  0  0  0  0  0  0  0  0  0  0  0
  185.6270  177.3560  143.2160 N   0  0  0  0  0  2  0  0  0  0  0  0
  190.5380  175.8560  142.6230 O   0  0  0  0  0  0  0  0  0  0  0  0
  189.3730  175.1010  142.9680 C   0  0  0  0  0  2  0  0  0  0  0  0
  185.1440  178.0500  140.4240 C   0  0  0  0  0  0  0  0  0  0  0  0
  191.9220  176.9860  141.1020 C   0  0  0  0  0  3  0  0  0  0  0  0
  187.0530  175.2840  137.1660 C   0  0  0  0  0  3  0  0  0  0  0  0
  187.3860  173.8500  137.5290 C   0  0  0  0  0  2  0  0  0  0  0  0
  188.0560  174.5100  136.3450 C   0  0  0  0  0  2  0  0  0  0  0  0
  183.1430  179.3820  141.1390 C   0  0  0  0  0  2  0  0  0  0  0  0
  183.1440  179.7450  139.6650 C   0  0  0  0  0  2  0  0  0  0  0  0
  181.9180  179.2480  139.0420 N   0  0  0  0  0  2  0  0  0  0  0  0
  182.0870  179.3720  137.6500 N   0  0  0  0  0  2  0  0  0  0  0  0
  182.1830  177.2500  136.3660 C   0  0  0  0  0  0  0  0  0  0  0  0
  183.3870  177.4470  136.0470 O   0  0  0  0  0  0  0  0  0  0  0  0
  181.4450  178.2710  137.0540 N   0  0  0  0  0  2  0  0  0  0  0  0
  181.5210  175.9490  136.0360 C   0  0  0  0  0  2  0  0  0  0  0  0
  182.2230  174.7950  136.7340 C   0  0  0  0  0  2  0  0  0  0  0  0
  183.6300  174.5080  136.2060 C   0  0  0  0  0  2  0  0  0  0  0  0
  184.0560  172.2110  137.1380 C   0  0  0  0  0  1  0  0  0  0  0  0
  183.8610  173.0340  135.8730 C   0  0  2  0  0  3  0  0  0  0  0  0
  184.9720  172.8880  135.0430 O   0  0  0  0  0  1  0  0  0  0  0  0
  193.6360  177.4670  139.5610 O   0  0  0  0  0  0  0  0  0  0  0  0
  193.8510  176.0890  139.6610 C   0  0  0  0  0  2  0  0  0  0  0  0
  195.7780  174.7290  139.1030 O   0  0  0  0  0  1  0  0  0  0  0  0
  194.8280  175.6070  138.5750 C   0  0  1  0  0  3  0  0  0  0  0  0
  194.0890  174.9690  137.3860 C   0  0  1  0  0  3  0  0  0  0  0  0
  195.4410  176.5710  136.1720 O   0  0  0  0  0  1  0  0  0  0  0  0
  193.4280  176.0010  135.2970 O   0  0  0  0  0  1  0  0  0  0  0  0
  194.5340  175.5230  136.0080 C   0  0  0  0  0  3  0  0  0  0  0  0
  194.2490  173.5750  137.4310 O   0  0  0  0  0  0  0  0  0  0  0  0
  193.1010  173.0630  136.8200 C   0  0  0  0  0  2  0  0  0  0  0  0
  193.4380  171.8040  136.0320 C   0  0  0  0  0  2  0  0  0  0  0  0
  194.3460  170.8760  136.8290 C   0  0  0  0  0  2  0  0  0  0  0  0
  194.9460  169.8870  135.9460 N   0  0  0  0  0  2  0  0  0  0  0  0
  196.3880  170.0660  136.0290 C   0  0  0  0  0  2  0  0  0  0  0  0
  196.7060  171.5350  136.2470 C   0  0  0  0  0  2  0  0  0  0  0  0
  199.1790  170.6480  135.4840 O   0  0  0  0  0  0  0  0  0  0  0  0
  198.4550  171.9150  135.8800 P   0  0  2  0  0  0  0  0  0  0  0  0
  199.1800  172.6010  137.2510 O   0  0  0  0  0  1  0  0  0  0  0  0
  197.9550  174.2150  135.1210 C   0  0  0  0  0  1  0  0  0  0  0  0
  198.5100  173.0300  134.6090 O   0  0  0  0  0  0  0  0  0  0  0  0
  1 10  1  0  0  0  0
  3 22  1  0  0  0  0
  4  6  1  0  0  0  0
  5 18  1  0  0  0  0
  6  1  1  0  0  0  0
  8  2  1  6  0  0  0
  8  7  1  0  0  0  0
  9 21  1  0  0  0  0
  9 19  1  0  0  0  0
 10 23  2  0  0  0  0
 11 23  1  0  0  0  0
 12 16  1  0  0  0  0
 12  8  1  0  0  0  0
 13 25  1  1  0  0  0
 13  5  1  0  0  0  0
 14  9  2  0  0  0  0
 15  1  2  0  0  0  0
 15 18  1  0  0  0  0
 16 30  1  6  0  0  0
 17 16  1  0  0  0  0
 17 21  1  0  0  0  0
 18 11  2  0  0  0  0
 19 46  1  6  0  0  0
 19 29  1  0  0  0  0
 20 33  1  6  0  0  0
 20 13  1  0  0  0  0
 21  3  1  0  0  0  0
 22 26  1  0  0  0  0
 24 28  2  0  0  0  0
 25 15  1  0  0  0  0
 26 27  1  0  0  0  0
 27  4  1  0  0  0  0
 28  7  1  0  0  0  0
 28 20  1  0  0  0  0
 29 22  2  0  0  0  0
 30 31  1  0  0  0  0
 32 30  1  0  0  0  0
 32 31  1  0  0  0  0
 34 33  1  0  0  0  0
 35 34  1  0  0  0  0
 36 35  1  0  0  0  0
 37 39  1  0  0  0  0
 38 37  2  0  0  0  0
 39 36  1  0  0  0  0
 40 37  1  0  0  0  0
 40 41  1  0  0  0  0
 42 41  1  0  0  0  0
 44 42  1  0  0  0  0
 44 43  1  1  0  0  0
 45 44  1  0  0  0  0
 46 47  1  0  0  0  0
 49 48  1  1  0  0  0
 49 47  1  0  0  0  0
 50 53  1  6  0  0  0
 50 54  1  0  0  0  0
 50 49  1  0  0  0  0
 52 53  1  0  0  0  0
 53 51  1  0  0  0  0
 55 54  1  0  0  0  0
 56 55  1  0  0  0  0
 56 57  1  0  0  0  0
 58 59  1  0  0  0  0
 58 57  1  0  0  0  0
 59 60  1  0  0  0  0
 62 61  2  6  0  0  0
 62 60  1  0  0  0  0
 62 63  1  0  0  0  0
 65 64  1  0  0  0  0
 65 62  1  0  0  0  0
M  END
>  <MODEL>
5

>  <REMARK>
 VINA RESULT:      -1.0      3.230      7.705
  Name = 
  24 active torsions:
  status: ('A' for Active; 'I' for Inactive)
    1  A    between atoms: C_1  and  O_15
    2  A    between atoms: C_1  and  C_58
    3  A    between atoms: C_3  and  C_37
    4  A    between atoms: C_4  and  N_48
    5  A    between atoms: C_4  and  C_62
    6  A    between atoms: C_5  and  O_15
    7  A    between atoms: C_5  and  C_19
    8  A    between atoms: C_5  and  C_64
    9  A    between atoms: C_9  and  C_52
   10  A    between atoms: O_11  and  C_42
   11  A    between atoms: O_11  and  C_46
   12  A    between atoms: C_14  and  C_63
   13  A    between atoms: O_22  and  P_41
   14  A    between atoms: C_24  and  C_43
   15  A    between atoms: C_24  and  C_53
   16  A    between atoms: C_28  and  N_48
   17  A    between atoms: C_28  and  C_58
   18  A    between atoms: N_40  and  N_49
   19  A    between atoms: P_41  and  C_62
   20  A    between atoms: C_46  and  C_64
   21  A    between atoms: C_47  and  C_52
   22  A    between atoms: C_47  and  C_63
   23  A    between atoms: N_49  and  N_50
   24  A    between atoms: N_50  and  C_53
                            x       y       z     vdW  Elec       q    Type
                         _______ _______ _______ _____ _____    ______ ____

>  <TORSDO>
F 24

$$$$
