=
 OpenBabel10222420493D

 68 74  0  0  1  0  0  0  0  0999 V2000
  189.3230  177.5380  141.0750 C   0  0  2  0  0  0  0  0  0  0  0  0
  188.6700  176.4080  141.5840 O   0  0  0  0  0  1  0  0  0  0  0  0
  189.4980  177.0190  137.2270 C   0  0  0  0  0  0  0  0  0  0  0  0
  191.4570  176.0170  135.9120 C   0  0  2  0  0  3  0  0  0  0  0  0
  189.4950  176.9810  134.7320 C   0  0  0  0  0  2  0  0  0  0  0  0
  191.0370  175.4290  138.2610 N   0  0  0  0  0  2  0  0  0  0  0  0
  191.0150  176.9770  134.8140 C   0  0  0  0  0  2  0  0  0  0  0  0
  188.8610  177.2950  136.0640 C   0  0  0  0  0  0  0  0  0  0  0  0
  190.6480  175.8560  139.6180 C   0  0  0  0  0  2  0  0  0  0  0  0
  188.8530  177.3170  138.5550 C   0  0  0  0  0  2  0  0  0  0  0  0
  189.8850  177.1990  139.6800 C   0  0  1  0  0  3  0  0  0  0  0  0
  190.9300  176.5030  137.2670 C   0  0  2  0  0  3  0  0  0  0  0  0
  187.4700  177.8540  136.0580 C   0  0  0  0  0  2  0  0  0  0  0  0
  186.8290  177.5810  134.7820 N   0  0  0  0  0  2  0  0  0  0  0  0
  185.8690  176.5890  135.0200 N   0  0  0  0  0  2  0  0  0  0  0  0
  186.5560  175.4910  135.5570 N   0  0  0  0  0  2  0  0  0  0  0  0
  185.5580  174.5440  136.0270 C   0  0  0  0  0  2  0  0  0  0  0  0
  186.5410  172.7740  137.4400 C   0  0  0  0  0  2  0  0  0  0  0  0
  185.8610  174.1280  137.4550 C   0  0  0  0  0  3  0  0  0  0  0  0
  185.0730  172.8810  137.7960 C   0  0  0  0  0  2  0  0  0  0  0  0
  192.9770  175.9670  135.9550 C   0  0  0  0  0  2  0  0  0  0  0  0
  193.5400  175.6000  134.5950 C   0  0  0  0  0  2  0  0  0  0  0  0
  194.2200  174.3170  134.6880 N   0  0  0  0  0  2  0  0  0  0  0  0
  195.8850  175.9580  134.8540 O   0  0  0  0  0  1  0  0  0  0  0  0
  195.6400  174.5780  134.8990 C   0  0  1  0  0  3  0  0  0  0  0  0
  197.7940  175.5150  137.3080 O   0  0  0  0  0  0  0  0  0  0  0  0
  196.0940  173.9390  136.2210 C   0  0  1  0  0  3  0  0  0  0  0  0
  197.2460  173.2150  136.0570 O   0  0  0  0  0  0  0  0  0  0  0  0
  197.2180  174.5530  136.7330 C   0  0  0  0  0  0  0  0  0  0  0  0
  190.4340  177.9130  142.0190 C   0  0  0  0  0  3  0  0  0  0  0  0
  190.3340  178.9840  142.8080 C   0  0  0  0  0  3  0  0  0  0  0  0
  191.4080  179.3270  143.7780 C   0  0  0  0  0  2  0  0  0  0  0  0
  191.8900  178.0470  144.4360 C   0  0  0  0  0  2  0  0  0  0  0  0
  191.3480  176.7820  146.5160 C   0  0  0  0  0  3  0  0  0  0  0  0
  188.6320  177.5190  146.3290 C   0  0  0  0  0  0  0  0  0  0  0  0
  189.0910  176.7080  147.4010 C   0  0  0  0  0  0  0  0  0  0  0  0
  188.2190  176.2780  148.4420 N   0  0  0  0  0  1  0  0  0  0  0  0
  189.5690  177.9500  145.3710 C   0  0  0  0  0  3  0  0  0  0  0  0
  190.9140  177.5830  145.4580 C   0  0  0  0  0  0  0  0  0  0  0  0
  190.4400  176.3500  147.4810 C   0  0  0  0  0  3  0  0  0  0  0  0
  186.4790  177.5150  145.0400 C   0  0  0  0  0  3  0  0  0  0  0  0
  187.2070  177.9300  146.1700 C   0  0  0  0  0  0  0  0  0  0  0  0
  184.5100  178.6680  145.8450 C   0  0  0  0  0  0  0  0  0  0  0  0
  185.1400  177.8830  144.8770 C   0  0  0  0  0  3  0  0  0  0  0  0
  185.2180  179.0850  146.9740 C   0  0  0  0  0  3  0  0  0  0  0  0
  186.5560  178.7140  147.1350 C   0  0  0  0  0  3  0  0  0  0  0  0
  183.1820  179.0380  145.6780 O   0  0  0  0  0  1  0  0  0  0  0  0
  188.3350  178.7190  140.9770 C   0  0  0  0  0  2  0  0  0  0  0  0
  186.8420  178.3720  141.0330 C   0  0  1  0  0  3  0  0  0  0  0  0
  186.1200  179.2550  141.8400 O   0  0  0  0  0  0  0  0  0  0  0  0
  187.0940  180.0550  142.4470 C   0  0  0  0  0  1  0  0  0  0  0  0
  186.2540  178.3340  139.6330 C   0  0  0  0  0  2  0  0  0  0  0  0
  184.8340  178.7760  139.6800 C   0  0  0  0  0  3  0  0  0  0  0  0
  184.3570  179.5970  138.7480 C   0  0  0  0  0  3  0  0  0  0  0  0
  182.9340  180.0470  138.7940 C   0  0  0  0  0  2  0  0  0  0  0  0
  182.0610  178.9080  139.0390 N   0  0  0  0  0  2  0  0  0  0  0  0
  179.7830  179.5070  139.1760 O   0  0  0  0  0  0  0  0  0  0  0  0
  180.8180  179.1240  138.3080 C   0  0  2  0  0  0  0  0  0  0  0  0
  179.6270  178.2630  138.5260 C   0  0  1  0  0  3  0  0  0  0  0  0
  180.8650  179.9590  137.1910 O   0  0  0  0  0  1  0  0  0  0  0  0
  179.8660  177.1380  139.5310 C   0  0  2  0  0  3  0  0  0  0  0  0
  179.5520  175.7550  138.9380 C   0  0  2  0  0  3  0  0  0  0  0  0
  179.2250  174.8410  139.9370 O   0  0  0  0  0  1  0  0  0  0  0  0
  180.7050  175.2080  138.1040 C   0  0  0  0  0  2  0  0  0  0  0  0
  180.2330  174.3460  137.1100 O   0  0  0  0  0  0  0  0  0  0  0  0
  180.9960  173.1890  137.2570 C   0  0  0  0  0  1  0  0  0  0  0  0
  180.3360  178.2580  142.0570 S   0  0  0  0  0  1  0  0  0  0  0  0
  179.2100  177.4250  140.8880 C   0  0  0  0  0  2  0  0  0  0  0  0
  1  2  1  1  0  0  0
  1 30  1  0  0  0  0
  3 10  1  0  0  0  0
  4 21  1  1  0  0  0
  4 12  1  0  0  0  0
  5  7  1  0  0  0  0
  5  8  1  0  0  0  0
  6  9  1  0  0  0  0
  7  4  1  0  0  0  0
  8  3  2  0  0  0  0
  9 11  1  0  0  0  0
 10 11  1  0  0  0  0
 11  1  1  1  0  0  0
 12  3  1  6  0  0  0
 12  6  1  0  0  0  0
 13  8  1  0  0  0  0
 14 15  1  0  0  0  0
 14 13  1  0  0  0  0
 15 16  1  0  0  0  0
 16 17  1  0  0  0  0
 17 19  1  0  0  0  0
 18 19  1  0  0  0  0
 18 20  1  0  0  0  0
 19 20  1  0  0  0  0
 22 23  1  0  0  0  0
 22 21  1  0  0  0  0
 23 25  1  0  0  0  0
 25 24  1  1  0  0  0
 27 25  1  6  0  0  0
 27 29  1  0  0  0  0
 28 27  1  0  0  0  0
 28 29  1  0  0  0  0
 29 26  2  0  0  0  0
 30 31  2  0  0  0  0
 31 32  1  0  0  0  0
 32 33  1  0  0  0  0
 33 39  1  0  0  0  0
 34 40  1  0  0  0  0
 35 36  1  0  0  0  0
 36 40  2  0  0  0  0
 36 37  1  0  0  0  0
 38 39  1  0  0  0  0
 38 35  2  0  0  0  0
 39 34  2  0  0  0  0
 41 42  1  0  0  0  0
 42 35  1  0  0  0  0
 42 46  2  0  0  0  0
 43 45  2  0  0  0  0
 44 41  2  0  0  0  0
 44 43  1  0  0  0  0
 45 46  1  0  0  0  0
 47 43  1  0  0  0  0
 48 49  1  0  0  0  0
 48  1  1  0  0  0  0
 49 52  1  6  0  0  0
 49 50  1  0  0  0  0
 50 51  1  0  0  0  0
 52 53  1  0  0  0  0
 54 55  1  0  0  0  0
 54 53  2  0  0  0  0
 55 56  1  0  0  0  0
 58 60  1  6  0  0  0
 58 59  1  0  0  0  0
 58 56  1  0  0  0  0
 58 57  1  0  0  0  0
 59 57  1  0  0  0  0
 59 61  1  1  0  0  0
 61 68  1  1  0  0  0
 62 61  1  0  0  0  0
 62 63  1  1  0  0  0
 64 62  1  0  0  0  0
 65 66  1  0  0  0  0
 65 64  1  0  0  0  0
 68 67  1  0  0  0  0
M  END
>  <MODEL>
1

>  <REMARK>
 VINA RESULT:      -6.0      0.000      0.000
  Name = 
  30 active torsions:
  status: ('A' for Active; 'I' for Inactive)
    1  A    between atoms: C_4  and  C_25
    2  A    between atoms: C_4  and  N_65
    3  A    between atoms: O_6  and  C_38
    4  A    between atoms: N_7  and  N_22
    5  A    between atoms: N_7  and  N_68
    6  A    between atoms: C_8  and  C_12
    7  A    between atoms: C_9  and  C_25
    8  A    between atoms: C_13  and  N_24
    9  A    between atoms: O_14  and  C_63
   10  A    between atoms: C_17  and  C_43
   11  A    between atoms: C_20  and  C_50
   12  A    between atoms: C_20  and  C_63
   13  A    between atoms: C_21  and  C_44
   14  A    between atoms: C_21  and  N_65
   15  A    between atoms: N_22  and  C_49
   16  A    between atoms: N_24  and  C_56
   17  A    between atoms: C_26  and  C_34
   18  A    between atoms: C_26  and  C_38
   19  A    between atoms: C_30  and  C_59
   20  A    between atoms: C_32  and  C_56
   21  A    between atoms: C_34  and  C_55
   22  A    between atoms: C_34  and  C_64
   23  A    between atoms: C_35  and  C_50
   24  A    between atoms: C_36  and  C_54
   25  A    between atoms: C_36  and  C_60
   26  A    between atoms: C_38  and  C_43
   27  A    between atoms: C_40  and  C_49
   28  A    between atoms: C_48  and  C_50
   29  A    between atoms: C_54  and  C_67
   30  A    between atoms: C_59  and  N_68
                            x       y       z     vdW  Elec       q    Type
                         _______ _______ _______ _____ _____    ______ ____

>  <TORSDO>
F 30

$$$$
=
 OpenBabel10222420493D

 68 74  0  0  1  0  0  0  0  0999 V2000
  187.1980  175.2270  135.8490 C   0  0  2  0  0  0  0  0  0  0  0  0
  187.0310  174.6260  134.5940 O   0  0  0  0  0  1  0  0  0  0  0  0
  190.5150  176.1980  137.6260 C   0  0  0  0  0  0  0  0  0  0  0  0
  192.8900  175.7620  136.7660 C   0  0  2  0  0  3  0  0  0  0  0  0
  192.5130  176.7050  139.0320 C   0  0  0  0  0  2  0  0  0  0  0  0
  190.9820  176.0100  135.2360 N   0  0  0  0  0  2  0  0  0  0  0  0
  193.2380  175.6250  138.2430 C   0  0  0  0  0  2  0  0  0  0  0  0
  191.0260  176.6800  138.7850 C   0  0  0  0  0  0  0  0  0  0  0  0
  189.5670  175.7300  134.9290 C   0  0  0  0  0  2  0  0  0  0  0  0
  189.0300  176.1920  137.3760 C   0  0  0  0  0  2  0  0  0  0  0  0
  188.7060  175.3320  136.1500 C   0  0  1  0  0  3  0  0  0  0  0  0
  191.3860  175.5390  136.5660 C   0  0  2  0  0  3  0  0  0  0  0  0
  190.1350  177.2730  139.8340 C   0  0  0  0  0  2  0  0  0  0  0  0
  190.9000  177.5450  141.0410 N   0  0  0  0  0  2  0  0  0  0  0  0
  190.9800  176.3370  141.7460 N   0  0  0  0  0  2  0  0  0  0  0  0
  191.8190  176.5720  142.8440 N   0  0  0  0  0  2  0  0  0  0  0  0
  191.0420  176.3130  144.0450 C   0  0  0  0  0  2  0  0  0  0  0  0
  190.1790  177.4810  146.0420 C   0  0  0  0  0  2  0  0  0  0  0  0
  190.4110  177.5990  144.5490 C   0  0  0  0  0  3  0  0  0  0  0  0
  189.0230  177.3060  145.0780 C   0  0  0  0  0  2  0  0  0  0  0  0
  193.6600  174.7210  135.9680 C   0  0  0  0  0  2  0  0  0  0  0  0
  195.0840  175.1830  135.7170 C   0  0  0  0  0  2  0  0  0  0  0  0
  195.9630  174.5920  136.7130 N   0  0  0  0  0  2  0  0  0  0  0  0
  197.3370  172.9370  135.7830 O   0  0  0  0  0  1  0  0  0  0  0  0
  196.1010  173.1740  136.4020 C   0  0  1  0  0  3  0  0  0  0  0  0
  197.3000  170.2050  137.4360 O   0  0  0  0  0  0  0  0  0  0  0  0
  195.9100  172.3400  137.6800 C   0  0  1  0  0  3  0  0  0  0  0  0
  194.9150  171.4110  137.5270 O   0  0  0  0  0  0  0  0  0  0  0  0
  196.3700  171.0480  137.5290 C   0  0  0  0  0  0  0  0  0  0  0  0
  186.5080  174.3750  136.8810 C   0  0  0  0  0  3  0  0  0  0  0  0
  185.9480  173.2110  136.5500 C   0  0  0  0  0  3  0  0  0  0  0  0
  185.3110  172.3440  137.5760 C   0  0  0  0  0  2  0  0  0  0  0  0
  184.6370  171.1800  136.8720 C   0  0  0  0  0  2  0  0  0  0  0  0
  182.7850  170.8760  135.2300 C   0  0  0  0  0  3  0  0  0  0  0  0
  181.4390  173.1420  136.2340 C   0  0  0  0  0  0  0  0  0  0  0  0
  180.8870  172.3850  135.1670 C   0  0  0  0  0  0  0  0  0  0  0  0
  179.6210  172.7060  134.5970 N   0  0  0  0  0  1  0  0  0  0  0  0
  182.6670  172.7250  136.7810 C   0  0  0  0  0  3  0  0  0  0  0  0
  183.3380  171.6060  136.2830 C   0  0  0  0  0  0  0  0  0  0  0  0
  181.5650  171.2650  134.6780 C   0  0  0  0  0  3  0  0  0  0  0  0
  180.1450  174.2910  138.0510 C   0  0  0  0  0  3  0  0  0  0  0  0
  180.7820  174.3560  136.7990 C   0  0  0  0  0  0  0  0  0  0  0  0
  179.5480  176.6310  137.9060 C   0  0  0  0  0  0  0  0  0  0  0  0
  179.5310  175.4210  138.6010 C   0  0  0  0  0  3  0  0  0  0  0  0
  180.1790  176.7130  136.6620 C   0  0  0  0  0  3  0  0  0  0  0  0
  180.7940  175.5830  136.1170 C   0  0  0  0  0  3  0  0  0  0  0  0
  178.9310  177.7500  138.4490 O   0  0  0  0  0  1  0  0  0  0  0  0
  186.5550  176.6290  135.8520 C   0  0  0  0  0  2  0  0  0  0  0  0
  185.8700  177.0680  137.1520 C   0  0  1  0  0  3  0  0  0  0  0  0
  185.6470  178.4460  137.1970 O   0  0  0  0  0  0  0  0  0  0  0  0
  186.8550  178.9860  137.6490 C   0  0  0  0  0  1  0  0  0  0  0  0
  184.5660  176.3140  137.3440 C   0  0  0  0  0  2  0  0  0  0  0  0
  183.6950  177.0630  138.2890 C   0  0  0  0  0  3  0  0  0  0  0  0
  182.9250  176.4070  139.1540 C   0  0  0  0  0  3  0  0  0  0  0  0
  182.0460  177.1550  140.1010 C   0  0  0  0  0  2  0  0  0  0  0  0
  182.7540  177.3990  141.3490 N   0  0  0  0  0  2  0  0  0  0  0  0
  182.5970  179.6790  141.9340 O   0  0  0  0  0  0  0  0  0  0  0  0
  182.0180  178.4100  142.0970 C   0  0  2  0  0  0  0  0  0  0  0  0
  182.6340  179.1370  143.2380 C   0  0  1  0  0  3  0  0  0  0  0  0
  180.6360  178.4680  141.9150 O   0  0  0  0  0  1  0  0  0  0  0  0
  184.0580  178.6820  143.5510 C   0  0  2  0  0  3  0  0  0  0  0  0
  184.3100  178.5700  145.0630 C   0  0  2  0  0  3  0  0  0  0  0  0
  183.5580  179.5050  145.7700 O   0  0  0  0  0  1  0  0  0  0  0  0
  185.7850  178.7300  145.4170 C   0  0  0  0  0  2  0  0  0  0  0  0
  185.9350  179.1240  146.7500 O   0  0  0  0  0  0  0  0  0  0  0  0
  186.4090  177.9870  147.4020 C   0  0  0  0  0  1  0  0  0  0  0  0
  186.3650  178.4330  141.9790 S   0  0  0  0  0  1  0  0  0  0  0  0
  185.1080  179.4870  142.7760 C   0  0  0  0  0  2  0  0  0  0  0  0
  1  2  1  6  0  0  0
  1 48  1  0  0  0  0
  1 30  1  0  0  0  0
  3  8  2  0  0  0  0
  4 21  1  6  0  0  0
  4  7  1  0  0  0  0
  7  5  1  0  0  0  0
  8  5  1  0  0  0  0
  8 13  1  0  0  0  0
  9  6  1  0  0  0  0
  9 11  1  0  0  0  0
 10  3  1  0  0  0  0
 11  1  1  6  0  0  0
 11 10  1  0  0  0  0
 12  6  1  6  0  0  0
 12  4  1  0  0  0  0
 12  3  1  0  0  0  0
 13 14  1  0  0  0  0
 14 15  1  0  0  0  0
 15 16  1  0  0  0  0
 16 17  1  0  0  0  0
 17 19  1  0  0  0  0
 19 20  1  0  0  0  0
 19 18  1  0  0  0  0
 20 18  1  0  0  0  0
 22 21  1  0  0  0  0
 22 23  1  0  0  0  0
 25 24  1  1  0  0  0
 25 23  1  0  0  0  0
 26 29  2  0  0  0  0
 27 25  1  6  0  0  0
 28 29  1  0  0  0  0
 28 27  1  0  0  0  0
 29 27  1  0  0  0  0
 31 30  2  0  0  0  0
 31 32  1  0  0  0  0
 33 32  1  0  0  0  0
 34 39  1  0  0  0  0
 35 38  1  0  0  0  0
 35 42  1  0  0  0  0
 36 35  2  0  0  0  0
 37 36  1  0  0  0  0
 39 38  2  0  0  0  0
 39 33  1  0  0  0  0
 40 36  1  0  0  0  0
 40 34  2  0  0  0  0
 41 44  1  0  0  0  0
 42 41  2  0  0  0  0
 43 47  1  0  0  0  0
 43 44  2  0  0  0  0
 45 43  1  0  0  0  0
 46 45  2  0  0  0  0
 46 42  1  0  0  0  0
 49 48  1  6  0  0  0
 49 50  1  0  0  0  0
 49 52  1  0  0  0  0
 50 51  1  0  0  0  0
 52 53  1  0  0  0  0
 53 54  2  0  0  0  0
 54 55  1  0  0  0  0
 55 56  1  0  0  0  0
 56 58  1  0  0  0  0
 57 58  1  0  0  0  0
 57 59  1  0  0  0  0
 58 60  1  6  0  0  0
 58 59  1  0  0  0  0
 59 61  1  6  0  0  0
 61 68  1  1  0  0  0
 61 62  1  0  0  0  0
 62 64  1  0  0  0  0
 62 63  1  1  0  0  0
 64 65  1  0  0  0  0
 65 66  1  0  0  0  0
 67 68  1  0  0  0  0
M  END
>  <MODEL>
2

>  <REMARK>
 VINA RESULT:      -5.6      2.632      8.156
  Name = 
  30 active torsions:
  status: ('A' for Active; 'I' for Inactive)
    1  A    between atoms: C_4  and  C_25
    2  A    between atoms: C_4  and  N_65
    3  A    between atoms: O_6  and  C_38
    4  A    between atoms: N_7  and  N_22
    5  A    between atoms: N_7  and  N_68
    6  A    between atoms: C_8  and  C_12
    7  A    between atoms: C_9  and  C_25
    8  A    between atoms: C_13  and  N_24
    9  A    between atoms: O_14  and  C_63
   10  A    between atoms: C_17  and  C_43
   11  A    between atoms: C_20  and  C_50
   12  A    between atoms: C_20  and  C_63
   13  A    between atoms: C_21  and  C_44
   14  A    between atoms: C_21  and  N_65
   15  A    between atoms: N_22  and  C_49
   16  A    between atoms: N_24  and  C_56
   17  A    between atoms: C_26  and  C_34
   18  A    between atoms: C_26  and  C_38
   19  A    between atoms: C_30  and  C_59
   20  A    between atoms: C_32  and  C_56
   21  A    between atoms: C_34  and  C_55
   22  A    between atoms: C_34  and  C_64
   23  A    between atoms: C_35  and  C_50
   24  A    between atoms: C_36  and  C_54
   25  A    between atoms: C_36  and  C_60
   26  A    between atoms: C_38  and  C_43
   27  A    between atoms: C_40  and  C_49
   28  A    between atoms: C_48  and  C_50
   29  A    between atoms: C_54  and  C_67
   30  A    between atoms: C_59  and  N_68
                            x       y       z     vdW  Elec       q    Type
                         _______ _______ _______ _____ _____    ______ ____

>  <TORSDO>
F 30

$$$$
=
 OpenBabel10222420493D

 68 74  0  0  1  0  0  0  0  0999 V2000
  189.4620  177.3630  141.1350 C   0  0  2  0  0  0  0  0  0  0  0  0
  188.8290  176.2380  141.6780 O   0  0  0  0  0  1  0  0  0  0  0  0
  189.6960  176.7750  137.3000 C   0  0  0  0  0  0  0  0  0  0  0  0
  191.6570  175.7090  136.0390 C   0  0  2  0  0  3  0  0  0  0  0  0
  189.7390  176.6940  134.8070 C   0  0  0  0  0  2  0  0  0  0  0  0
  191.1810  175.1700  138.3900 N   0  0  0  0  0  2  0  0  0  0  0  0
  191.2560  176.6590  134.9170 C   0  0  0  0  0  2  0  0  0  0  0  0
  189.0870  177.0440  136.1210 C   0  0  0  0  0  0  0  0  0  0  0  0
  190.7760  175.6280  139.7320 C   0  0  0  0  0  2  0  0  0  0  0  0
  189.0340  177.1090  138.6110 C   0  0  0  0  0  2  0  0  0  0  0  0
  190.0420  176.9880  139.7570 C   0  0  1  0  0  3  0  0  0  0  0  0
  191.1150  176.2290  137.3760 C   0  0  2  0  0  3  0  0  0  0  0  0
  187.7090  177.6330  136.0790 C   0  0  0  0  0  2  0  0  0  0  0  0
  187.1040  177.3930  134.7790 N   0  0  0  0  0  2  0  0  0  0  0  0
  186.8190  176.0230  134.7160 N   0  0  0  0  0  2  0  0  0  0  0  0
  186.5880  175.6030  136.0330 N   0  0  0  0  0  2  0  0  0  0  0  0
  185.9570  174.2960  135.9660 C   0  0  0  0  0  2  0  0  0  0  0  0
  187.8050  173.0190  134.9400 C   0  0  0  0  0  2  0  0  0  0  0  0
  186.9860  173.2040  136.2010 C   0  0  0  0  0  3  0  0  0  0  0  0
  186.7030  172.0360  135.2790 C   0  0  0  0  0  2  0  0  0  0  0  0
  193.1740  175.6270  136.1120 C   0  0  0  0  0  2  0  0  0  0  0  0
  193.6120  174.3030  136.7110 C   0  0  0  0  0  2  0  0  0  0  0  0
  195.0250  174.0940  136.4340 N   0  0  0  0  0  2  0  0  0  0  0  0
  195.3520  174.0790  138.7540 O   0  0  0  0  0  1  0  0  0  0  0  0
  195.7850  174.6480  137.5480 C   0  0  1  0  0  3  0  0  0  0  0  0
  198.5020  174.8310  139.5240 O   0  0  0  0  0  0  0  0  0  0  0  0
  197.2890  174.4430  137.3030 C   0  0  1  0  0  3  0  0  0  0  0  0
  197.9190  175.6310  137.0390 O   0  0  0  0  0  0  0  0  0  0  0  0
  198.0530  174.9160  138.3500 C   0  0  0  0  0  0  0  0  0  0  0  0
  190.5580  177.7940  142.0740 C   0  0  0  0  0  3  0  0  0  0  0  0
  190.3770  178.8070  142.9230 C   0  0  0  0  0  3  0  0  0  0  0  0
  191.4390  179.2010  143.8860 C   0  0  0  0  0  2  0  0  0  0  0  0
  191.9000  177.9600  144.6290 C   0  0  0  0  0  2  0  0  0  0  0  0
  191.3770  176.9230  146.8370 C   0  0  0  0  0  3  0  0  0  0  0  0
  188.6530  177.6080  146.5810 C   0  0  0  0  0  0  0  0  0  0  0  0
  189.1230  176.9240  147.7340 C   0  0  0  0  0  0  0  0  0  0  0  0
  188.2590  176.6010  148.8190 N   0  0  0  0  0  1  0  0  0  0  0  0
  189.5820  177.9420  145.5790 C   0  0  0  0  0  3  0  0  0  0  0  0
  190.9310  177.6000  145.7000 C   0  0  0  0  0  0  0  0  0  0  0  0
  190.4760  176.5900  147.8470 C   0  0  0  0  0  3  0  0  0  0  0  0
  186.5970  178.8620  147.2870 C   0  0  0  0  0  3  0  0  0  0  0  0
  187.2230  177.9840  146.3840 C   0  0  0  0  0  0  0  0  0  0  0  0
  184.5320  178.7350  146.0320 C   0  0  0  0  0  0  0  0  0  0  0  0
  185.2600  179.2330  147.1130 C   0  0  0  0  0  3  0  0  0  0  0  0
  185.1410  177.8650  145.1230 C   0  0  0  0  0  3  0  0  0  0  0  0
  186.4780  177.4970  145.2980 C   0  0  0  0  0  3  0  0  0  0  0  0
  183.2030  179.0990  145.8650 O   0  0  0  0  0  1  0  0  0  0  0  0
  188.4500  178.5190  140.9890 C   0  0  0  0  0  2  0  0  0  0  0  0
  186.9770  178.1270  140.8260 C   0  0  1  0  0  3  0  0  0  0  0  0
  186.1910  178.5480  141.9010 O   0  0  0  0  0  0  0  0  0  0  0  0
  186.5050  179.9020  142.0590 C   0  0  0  0  0  1  0  0  0  0  0  0
  186.4250  178.6730  139.5210 C   0  0  0  0  0  2  0  0  0  0  0  0
  184.9930  178.2920  139.3910 C   0  0  0  0  0  3  0  0  0  0  0  0
  184.3590  177.7120  140.4070 C   0  0  0  0  0  3  0  0  0  0  0  0
  182.9230  177.3230  140.2790 C   0  0  0  0  0  2  0  0  0  0  0  0
  182.6210  176.9850  138.8960 N   0  0  0  0  0  2  0  0  0  0  0  0
  180.8110  176.5750  137.4390 O   0  0  0  0  0  0  0  0  0  0  0  0
  181.1720  176.9130  138.7530 C   0  0  2  0  0  0  0  0  0  0  0  0
  180.4270  177.8600  137.8820 C   0  0  1  0  0  3  0  0  0  0  0  0
  180.4720  176.1350  139.6760 O   0  0  0  0  0  1  0  0  0  0  0  0
  181.3200  178.9070  137.2200 C   0  0  2  0  0  3  0  0  0  0  0  0
  180.9600  180.3350  137.6590 C   0  0  2  0  0  3  0  0  0  0  0  0
  181.3180  181.2670  136.6860 O   0  0  0  0  0  1  0  0  0  0  0  0
  181.6070  180.7130  138.9870 C   0  0  0  0  0  2  0  0  0  0  0  0
  180.8160  181.6350  139.6800 O   0  0  0  0  0  0  0  0  0  0  0  0
  179.9400  180.8520  140.4300 C   0  0  0  0  0  1  0  0  0  0  0  0
  179.8550  179.0190  134.8330 S   0  0  0  0  0  1  0  0  0  0  0  0
  181.4260  178.7020  135.7030 C   0  0  0  0  0  2  0  0  0  0  0  0
  1  2  1  1  0  0  0
  1 30  1  0  0  0  0
  3 10  1  0  0  0  0
  4 21  1  1  0  0  0
  4 12  1  0  0  0  0
  5  7  1  0  0  0  0
  5  8  1  0  0  0  0
  6  9  1  0  0  0  0
  7  4  1  0  0  0  0
  8  3  2  0  0  0  0
  9 11  1  0  0  0  0
 10 11  1  0  0  0  0
 11  1  1  1  0  0  0
 12  3  1  6  0  0  0
 12  6  1  0  0  0  0
 13  8  1  0  0  0  0
 14 13  1  0  0  0  0
 15 14  1  0  0  0  0
 15 16  1  0  0  0  0
 17 16  1  0  0  0  0
 17 19  1  0  0  0  0
 18 20  1  0  0  0  0
 18 19  1  0  0  0  0
 20 19  1  0  0  0  0
 21 22  1  0  0  0  0
 23 22  1  0  0  0  0
 23 25  1  0  0  0  0
 25 24  1  1  0  0  0
 27 25  1  1  0  0  0
 27 29  1  0  0  0  0
 28 27  1  0  0  0  0
 28 29  1  0  0  0  0
 29 26  2  0  0  0  0
 30 31  2  0  0  0  0
 31 32  1  0  0  0  0
 32 33  1  0  0  0  0
 33 39  1  0  0  0  0
 34 40  1  0  0  0  0
 35 36  1  0  0  0  0
 36 40  2  0  0  0  0
 36 37  1  0  0  0  0
 38 39  1  0  0  0  0
 38 35  2  0  0  0  0
 39 34  2  0  0  0  0
 42 35  1  0  0  0  0
 42 41  2  0  0  0  0
 43 44  2  0  0  0  0
 44 41  1  0  0  0  0
 45 46  2  0  0  0  0
 45 43  1  0  0  0  0
 46 42  1  0  0  0  0
 47 43  1  0  0  0  0
 48  1  1  0  0  0  0
 49 52  1  6  0  0  0
 49 48  1  0  0  0  0
 49 50  1  0  0  0  0
 50 51  1  0  0  0  0
 53 52  1  0  0  0  0
 53 54  2  0  0  0  0
 55 54  1  0  0  0  0
 56 55  1  0  0  0  0
 57 59  1  0  0  0  0
 57 58  1  0  0  0  0
 58 56  1  0  0  0  0
 58 60  1  1  0  0  0
 59 61  1  6  0  0  0
 59 58  1  0  0  0  0
 61 68  1  6  0  0  0
 61 62  1  0  0  0  0
 62 63  1  6  0  0  0
 62 64  1  0  0  0  0
 64 65  1  0  0  0  0
 65 66  1  0  0  0  0
 67 68  1  0  0  0  0
M  END
>  <MODEL>
3

>  <REMARK>
 VINA RESULT:      -4.8      1.558      2.729
  Name = 
  30 active torsions:
  status: ('A' for Active; 'I' for Inactive)
    1  A    between atoms: C_4  and  C_25
    2  A    between atoms: C_4  and  N_65
    3  A    between atoms: O_6  and  C_38
    4  A    between atoms: N_7  and  N_22
    5  A    between atoms: N_7  and  N_68
    6  A    between atoms: C_8  and  C_12
    7  A    between atoms: C_9  and  C_25
    8  A    between atoms: C_13  and  N_24
    9  A    between atoms: O_14  and  C_63
   10  A    between atoms: C_17  and  C_43
   11  A    between atoms: C_20  and  C_50
   12  A    between atoms: C_20  and  C_63
   13  A    between atoms: C_21  and  C_44
   14  A    between atoms: C_21  and  N_65
   15  A    between atoms: N_22  and  C_49
   16  A    between atoms: N_24  and  C_56
   17  A    between atoms: C_26  and  C_34
   18  A    between atoms: C_26  and  C_38
   19  A    between atoms: C_30  and  C_59
   20  A    between atoms: C_32  and  C_56
   21  A    between atoms: C_34  and  C_55
   22  A    between atoms: C_34  and  C_64
   23  A    between atoms: C_35  and  C_50
   24  A    between atoms: C_36  and  C_54
   25  A    between atoms: C_36  and  C_60
   26  A    between atoms: C_38  and  C_43
   27  A    between atoms: C_40  and  C_49
   28  A    between atoms: C_48  and  C_50
   29  A    between atoms: C_54  and  C_67
   30  A    between atoms: C_59  and  N_68
                            x       y       z     vdW  Elec       q    Type
                         _______ _______ _______ _____ _____    ______ ____

>  <TORSDO>
F 30

$$$$
=
 OpenBabel10222420493D

 68 74  0  0  1  0  0  0  0  0999 V2000
  189.4620  177.3630  141.1350 C   0  0  2  0  0  0  0  0  0  0  0  0
  188.8120  176.2310  141.6420 O   0  0  0  0  0  1  0  0  0  0  0  0
  189.4900  176.8390  137.2840 C   0  0  0  0  0  0  0  0  0  0  0  0
  191.4330  175.9250  135.8840 C   0  0  2  0  0  3  0  0  0  0  0  0
  189.3780  176.7920  134.7910 C   0  0  0  0  0  2  0  0  0  0  0  0
  191.1460  175.3260  138.2510 N   0  0  0  0  0  2  0  0  0  0  0  0
  190.8980  176.8590  134.8060 C   0  0  0  0  0  2  0  0  0  0  0  0
  188.7900  177.0800  136.1500 C   0  0  0  0  0  0  0  0  0  0  0  0
  190.7980  175.7400  139.6230 C   0  0  0  0  0  2  0  0  0  0  0  0
  188.8910  177.1110  138.6390 C   0  0  0  0  0  2  0  0  0  0  0  0
  189.9770  177.0460  139.7170 C   0  0  1  0  0  3  0  0  0  0  0  0
  190.9450  176.3900  137.2610 C   0  0  2  0  0  3  0  0  0  0  0  0
  187.3760  177.5740  136.2050 C   0  0  0  0  0  2  0  0  0  0  0  0
  186.8200  177.6460  134.8630 N   0  0  0  0  0  2  0  0  0  0  0  0
  186.2150  176.4080  134.6120 N   0  0  0  0  0  2  0  0  0  0  0  0
  185.7330  175.9430  135.8440 N   0  0  0  0  0  2  0  0  0  0  0  0
  185.1840  174.6170  135.6210 C   0  0  0  0  0  2  0  0  0  0  0  0
  187.3230  173.4030  135.3990 C   0  0  0  0  0  2  0  0  0  0  0  0
  186.0800  173.5650  136.2510 C   0  0  0  0  0  3  0  0  0  0  0  0
  186.2070  172.3830  135.3130 C   0  0  0  0  0  2  0  0  0  0  0  0
  192.9540  175.9460  135.8600 C   0  0  0  0  0  2  0  0  0  0  0  0
  193.5120  174.5370  135.9430 C   0  0  0  0  0  2  0  0  0  0  0  0
  194.9300  174.6000  136.2590 N   0  0  0  0  0  2  0  0  0  0  0  0
  194.1120  172.6650  137.2960 O   0  0  0  0  0  1  0  0  0  0  0  0
  195.2690  173.4100  137.0300 C   0  0  1  0  0  3  0  0  0  0  0  0
  195.2390  170.4390  135.4500 O   0  0  0  0  0  0  0  0  0  0  0  0
  196.3390  172.5950  136.2840 C   0  0  1  0  0  3  0  0  0  0  0  0
  196.9330  171.6770  137.1090 O   0  0  0  0  0  0  0  0  0  0  0  0
  195.9350  171.2960  136.0570 C   0  0  0  0  0  0  0  0  0  0  0  0
  190.6060  177.7070  142.0520 C   0  0  0  0  0  3  0  0  0  0  0  0
  190.5390  178.7560  142.8730 C   0  0  0  0  0  3  0  0  0  0  0  0
  191.6460  179.0670  143.8150 C   0  0  0  0  0  2  0  0  0  0  0  0
  192.0450  177.7880  144.5290 C   0  0  0  0  0  2  0  0  0  0  0  0
  191.3730  176.5840  146.6070 C   0  0  0  0  0  3  0  0  0  0  0  0
  188.7270  177.5320  146.3750 C   0  0  0  0  0  0  0  0  0  0  0  0
  189.1050  176.6960  147.4590 C   0  0  0  0  0  0  0  0  0  0  0  0
  188.1870  176.3430  148.4900 N   0  0  0  0  0  1  0  0  0  0  0  0
  189.7090  177.8820  145.4300 C   0  0  0  0  0  3  0  0  0  0  0  0
  191.0190  177.4100  145.5390 C   0  0  0  0  0  0  0  0  0  0  0  0
  190.4200  176.2320  147.5610 C   0  0  0  0  0  3  0  0  0  0  0  0
  186.4820  177.4490  145.2580 C   0  0  0  0  0  3  0  0  0  0  0  0
  187.3420  178.0540  146.1920 C   0  0  0  0  0  0  0  0  0  0  0  0
  184.7140  178.9970  145.8340 C   0  0  0  0  0  0  0  0  0  0  0  0
  185.1770  177.9190  145.0790 C   0  0  0  0  0  3  0  0  0  0  0  0
  185.5550  179.6070  146.7680 C   0  0  0  0  0  3  0  0  0  0  0  0
  186.8580  179.1340  146.9470 C   0  0  0  0  0  3  0  0  0  0  0  0
  183.4210  179.4670  145.6490 O   0  0  0  0  0  1  0  0  0  0  0  0
  188.4850  178.5570  141.0910 C   0  0  0  0  0  2  0  0  0  0  0  0
  186.9940  178.2220  140.9650 C   0  0  1  0  0  3  0  0  0  0  0  0
  186.3620  178.1290  142.2070 O   0  0  0  0  0  0  0  0  0  0  0  0
  186.0140  179.4450  142.5250 C   0  0  0  0  0  1  0  0  0  0  0  0
  186.2930  179.2450  140.0900 C   0  0  0  0  0  2  0  0  0  0  0  0
  184.8270  178.9960  140.1130 C   0  0  0  0  0  3  0  0  0  0  0  0
  184.0400  179.5390  139.1880 C   0  0  0  0  0  3  0  0  0  0  0  0
  182.5670  179.2970  139.2110 C   0  0  0  0  0  2  0  0  0  0  0  0
  182.2560  178.2150  140.1340 N   0  0  0  0  0  2  0  0  0  0  0  0
  180.4440  177.2860  141.3250 O   0  0  0  0  0  0  0  0  0  0  0  0
  180.9000  178.4160  140.6280 C   0  0  2  0  0  0  0  0  0  0  0  0
  179.7600  177.6020  140.1300 C   0  0  1  0  0  3  0  0  0  0  0  0
  180.6440  179.5820  141.3520 O   0  0  0  0  0  1  0  0  0  0  0  0
  180.1570  176.6020  139.0460 C   0  0  2  0  0  3  0  0  0  0  0  0
  179.6040  176.9960  137.6660 C   0  0  2  0  0  3  0  0  0  0  0  0
  180.2220  176.2700  136.6500 O   0  0  0  0  0  1  0  0  0  0  0  0
  179.7510  178.4880  137.3880 C   0  0  0  0  0  2  0  0  0  0  0  0
  180.6510  178.7110  136.3420 O   0  0  0  0  0  0  0  0  0  0  0  0
  181.0790  180.0260  136.5210 C   0  0  0  0  0  1  0  0  0  0  0  0
  179.1300  174.1600  138.1320 S   0  0  0  0  0  1  0  0  0  0  0  0
  179.8810  175.1530  139.4650 C   0  0  0  0  0  2  0  0  0  0  0  0
  1  2  1  1  0  0  0
  1 30  1  0  0  0  0
  3 10  1  0  0  0  0
  4 21  1  1  0  0  0
  4 12  1  0  0  0  0
  5  7  1  0  0  0  0
  5  8  1  0  0  0  0
  6  9  1  0  0  0  0
  7  4  1  0  0  0  0
  8 13  1  0  0  0  0
  8  3  2  0  0  0  0
  9 11  1  0  0  0  0
 10 11  1  0  0  0  0
 11  1  1  1  0  0  0
 12  3  1  6  0  0  0
 12  6  1  0  0  0  0
 14 13  1  0  0  0  0
 15 14  1  0  0  0  0
 15 16  1  0  0  0  0
 17 16  1  0  0  0  0
 17 19  1  0  0  0  0
 18 19  1  0  0  0  0
 20 18  1  0  0  0  0
 20 19  1  0  0  0  0
 21 22  1  0  0  0  0
 22 23  1  0  0  0  0
 23 25  1  0  0  0  0
 25 24  1  6  0  0  0
 26 29  2  0  0  0  0
 27 25  1  1  0  0  0
 27 28  1  0  0  0  0
 29 27  1  0  0  0  0
 29 28  1  0  0  0  0
 30 31  2  0  0  0  0
 31 32  1  0  0  0  0
 32 33  1  0  0  0  0
 33 39  1  0  0  0  0
 34 40  1  0  0  0  0
 35 36  1  0  0  0  0
 36 40  2  0  0  0  0
 36 37  1  0  0  0  0
 38 39  1  0  0  0  0
 38 35  2  0  0  0  0
 39 34  2  0  0  0  0
 41 42  1  0  0  0  0
 42 35  1  0  0  0  0
 42 46  2  0  0  0  0
 43 45  2  0  0  0  0
 44 41  2  0  0  0  0
 44 43  1  0  0  0  0
 45 46  1  0  0  0  0
 47 43  1  0  0  0  0
 48  1  1  0  0  0  0
 49 52  1  6  0  0  0
 49 48  1  0  0  0  0
 49 50  1  0  0  0  0
 50 51  1  0  0  0  0
 52 53  1  0  0  0  0
 54 55  1  0  0  0  0
 54 53  2  0  0  0  0
 55 56  1  0  0  0  0
 56 58  1  0  0  0  0
 58 57  1  0  0  0  0
 58 60  1  1  0  0  0
 59 61  1  6  0  0  0
 59 58  1  0  0  0  0
 59 57  1  0  0  0  0
 61 68  1  1  0  0  0
 62 63  1  6  0  0  0
 62 61  1  0  0  0  0
 64 62  1  0  0  0  0
 65 66  1  0  0  0  0
 65 64  1  0  0  0  0
 67 68  1  0  0  0  0
M  END
>  <MODEL>
4

>  <REMARK>
 VINA RESULT:      -4.6      1.479      2.052
  Name = 
  30 active torsions:
  status: ('A' for Active; 'I' for Inactive)
    1  A    between atoms: C_4  and  C_25
    2  A    between atoms: C_4  and  N_65
    3  A    between atoms: O_6  and  C_38
    4  A    between atoms: N_7  and  N_22
    5  A    between atoms: N_7  and  N_68
    6  A    between atoms: C_8  and  C_12
    7  A    between atoms: C_9  and  C_25
    8  A    between atoms: C_13  and  N_24
    9  A    between atoms: O_14  and  C_63
   10  A    between atoms: C_17  and  C_43
   11  A    between atoms: C_20  and  C_50
   12  A    between atoms: C_20  and  C_63
   13  A    between atoms: C_21  and  C_44
   14  A    between atoms: C_21  and  N_65
   15  A    between atoms: N_22  and  C_49
   16  A    between atoms: N_24  and  C_56
   17  A    between atoms: C_26  and  C_34
   18  A    between atoms: C_26  and  C_38
   19  A    between atoms: C_30  and  C_59
   20  A    between atoms: C_32  and  C_56
   21  A    between atoms: C_34  and  C_55
   22  A    between atoms: C_34  and  C_64
   23  A    between atoms: C_35  and  C_50
   24  A    between atoms: C_36  and  C_54
   25  A    between atoms: C_36  and  C_60
   26  A    between atoms: C_38  and  C_43
   27  A    between atoms: C_40  and  C_49
   28  A    between atoms: C_48  and  C_50
   29  A    between atoms: C_54  and  C_67
   30  A    between atoms: C_59  and  N_68
                            x       y       z     vdW  Elec       q    Type
                         _______ _______ _______ _____ _____    ______ ____

>  <TORSDO>
F 30

$$$$
=
 OpenBabel10222420493D

 68 74  0  0  1  0  0  0  0  0999 V2000
  189.4990  176.4120  138.9650 C   0  0  2  0  0  0  0  0  0  0  0  0
  189.6280  175.2560  139.7460 O   0  0  0  0  0  1  0  0  0  0  0  0
  185.9150  177.5370  137.9690 C   0  0  0  0  0  0  0  0  0  0  0  0
  184.1710  178.6110  139.5100 C   0  0  2  0  0  3  0  0  0  0  0  0
  183.5900  177.9800  137.1800 C   0  0  0  0  0  2  0  0  0  0  0  0
  186.5840  178.8360  139.9260 N   0  0  0  0  0  2  0  0  0  0  0  0
  183.1640  177.8730  138.6370 C   0  0  0  0  0  2  0  0  0  0  0  0
  185.0020  177.4950  136.9690 C   0  0  0  0  0  0  0  0  0  0  0  0
  187.9240  178.2200  139.9420 C   0  0  0  0  0  2  0  0  0  0  0  0
  187.3300  177.0690  137.7490 C   0  0  0  0  0  2  0  0  0  0  0  0
  188.0550  176.9360  139.0910 C   0  0  1  0  0  3  0  0  0  0  0  0
  185.5470  177.9470  139.3890 C   0  0  2  0  0  3  0  0  0  0  0  0
  185.3820  177.0340  135.5950 C   0  0  0  0  0  2  0  0  0  0  0  0
  184.8580  175.7000  135.3540 N   0  0  0  0  0  2  0  0  0  0  0  0
  184.4630  175.1930  136.5990 N   0  0  0  0  0  2  0  0  0  0  0  0
  184.9120  173.8660  136.6490 N   0  0  0  0  0  2  0  0  0  0  0  0
  186.1610  173.8600  137.3920 C   0  0  0  0  0  2  0  0  0  0  0  0
  188.3100  172.9010  136.6450 C   0  0  0  0  0  2  0  0  0  0  0  0
  186.9170  172.5680  137.1380 C   0  0  0  0  0  3  0  0  0  0  0  0
  187.2450  172.4560  135.6640 C   0  0  0  0  0  2  0  0  0  0  0  0
  183.7160  178.5560  140.9610 C   0  0  0  0  0  2  0  0  0  0  0  0
  182.2970  179.0780  141.0980 C   0  0  0  0  0  2  0  0  0  0  0  0
  181.7710  179.3890  139.7780 N   0  0  0  0  0  2  0  0  0  0  0  0
  180.8710  181.5180  139.3940 O   0  0  0  0  0  1  0  0  0  0  0  0
  180.6130  180.2580  139.9520 C   0  0  1  0  0  3  0  0  0  0  0  0
  180.1600  177.7850  137.7160 O   0  0  0  0  0  0  0  0  0  0  0  0
  179.3660  179.5880  139.3500 C   0  0  1  0  0  3  0  0  0  0  0  0
  179.0170  180.1630  138.1560 O   0  0  0  0  0  0  0  0  0  0  0  0
  179.6740  178.8180  138.2480 C   0  0  0  0  0  0  0  0  0  0  0  0
  189.8140  176.0600  137.5350 C   0  0  0  0  0  3  0  0  0  0  0  0
  190.0410  177.0090  136.6270 C   0  0  0  0  0  3  0  0  0  0  0  0
  190.4030  176.6640  135.2270 C   0  0  0  0  0  2  0  0  0  0  0  0
  191.0340  175.2830  135.2190 C   0  0  0  0  0  2  0  0  0  0  0  0
  193.1540  176.5970  135.2500 C   0  0  0  0  0  3  0  0  0  0  0  0
  194.6190  174.3300  136.0660 C   0  0  0  0  0  0  0  0  0  0  0  0
  195.2660  175.5790  135.8710 C   0  0  0  0  0  0  0  0  0  0  0  0
  196.6570  175.7500  136.1220 N   0  0  0  0  0  1  0  0  0  0  0  0
  193.2300  174.2580  135.8520 C   0  0  0  0  0  3  0  0  0  0  0  0
  192.5020  175.3770  135.4430 C   0  0  0  0  0  0  0  0  0  0  0  0
  194.5280  176.6940  135.4660 C   0  0  0  0  0  3  0  0  0  0  0  0
  196.5870  172.7800  135.9090 C   0  0  0  0  0  3  0  0  0  0  0  0
  195.3420  173.0940  136.4840 C   0  0  0  0  0  0  0  0  0  0  0  0
  196.7460  170.7810  137.2620 C   0  0  0  0  0  0  0  0  0  0  0  0
  197.2830  171.6310  136.2940 C   0  0  0  0  0  3  0  0  0  0  0  0
  195.5120  171.0800  137.8450 C   0  0  0  0  0  3  0  0  0  0  0  0
  194.8190  172.2310  137.4600 C   0  0  0  0  0  3  0  0  0  0  0  0
  197.4350  169.6360  137.6380 O   0  0  0  0  0  1  0  0  0  0  0  0
  190.4990  177.4850  139.4440 C   0  0  0  0  0  2  0  0  0  0  0  0
  191.8390  176.9800  139.9920 C   0  0  1  0  0  3  0  0  0  0  0  0
  192.7350  176.6380  138.9770 O   0  0  0  0  0  0  0  0  0  0  0  0
  193.9650  177.1490  139.4050 C   0  0  0  0  0  1  0  0  0  0  0  0
  192.4570  178.0150  140.9160 C   0  0  0  0  0  2  0  0  0  0  0  0
  191.8030  177.9400  142.2510 C   0  0  0  0  0  3  0  0  0  0  0  0
  190.4950  177.7130  142.3440 C   0  0  0  0  0  3  0  0  0  0  0  0
  189.8330  177.6420  143.6810 C   0  0  0  0  0  2  0  0  0  0  0  0
  188.4930  178.2050  143.6020 N   0  0  0  0  0  2  0  0  0  0  0  0
  186.3010  177.4810  143.1170 O   0  0  0  0  0  0  0  0  0  0  0  0
  187.5360  177.1080  143.6700 C   0  0  2  0  0  0  0  0  0  0  0  0
  186.3070  177.1980  144.5000 C   0  0  1  0  0  3  0  0  0  0  0  0
  187.9440  175.8660  143.1820 O   0  0  0  0  0  1  0  0  0  0  0  0
  186.1950  178.5050  145.2810 C   0  0  2  0  0  3  0  0  0  0  0  0
  185.9350  178.2660  146.7770 C   0  0  2  0  0  3  0  0  0  0  0  0
  185.6770  179.4620  147.4420 O   0  0  0  0  0  1  0  0  0  0  0  0
  187.0940  177.5450  147.4570 C   0  0  0  0  0  2  0  0  0  0  0  0
  188.1820  178.4060  147.6270 O   0  0  0  0  0  0  0  0  0  0  0  0
  189.2990  177.6190  147.3500 C   0  0  0  0  0  1  0  0  0  0  0  0
  183.4900  179.0100  144.7450 S   0  0  0  0  0  1  0  0  0  0  0  0
  185.2410  179.5020  144.6090 C   0  0  0  0  0  2  0  0  0  0  0  0
  1 48  1  0  0  0  0
  1  2  1  1  0  0  0
  4 21  1  1  0  0  0
  5  7  1  0  0  0  0
  6  9  1  0  0  0  0
  7  4  1  0  0  0  0
  8  5  1  0  0  0  0
  8  3  2  0  0  0  0
 10  3  1  0  0  0  0
 10 11  1  0  0  0  0
 11  1  1  6  0  0  0
 11  9  1  0  0  0  0
 12  3  1  6  0  0  0
 12  4  1  0  0  0  0
 12  6  1  0  0  0  0
 13  8  1  0  0  0  0
 14 13  1  0  0  0  0
 14 15  1  0  0  0  0
 15 16  1  0  0  0  0
 16 17  1  0  0  0  0
 18 19  1  0  0  0  0
 19 17  1  0  0  0  0
 20 18  1  0  0  0  0
 20 19  1  0  0  0  0
 21 22  1  0  0  0  0
 23 25  1  0  0  0  0
 23 22  1  0  0  0  0
 25 24  1  6  0  0  0
 26 29  2  0  0  0  0
 27 25  1  6  0  0  0
 28 29  1  0  0  0  0
 28 27  1  0  0  0  0
 29 27  1  0  0  0  0
 30  1  1  0  0  0  0
 31 30  2  0  0  0  0
 32 31  1  0  0  0  0
 33 32  1  0  0  0  0
 33 39  1  0  0  0  0
 34 39  2  0  0  0  0
 34 40  1  0  0  0  0
 35 42  1  0  0  0  0
 36 35  1  0  0  0  0
 36 37  1  0  0  0  0
 38 35  2  0  0  0  0
 39 38  1  0  0  0  0
 40 36  2  0  0  0  0
 41 44  2  0  0  0  0
 41 42  1  0  0  0  0
 42 46  2  0  0  0  0
 43 47  1  0  0  0  0
 43 45  2  0  0  0  0
 44 43  1  0  0  0  0
 46 45  1  0  0  0  0
 49 48  1  6  0  0  0
 49 52  1  0  0  0  0
 50 51  1  0  0  0  0
 50 49  1  0  0  0  0
 52 53  1  0  0  0  0
 53 54  2  0  0  0  0
 54 55  1  0  0  0  0
 56 58  1  0  0  0  0
 56 55  1  0  0  0  0
 57 58  1  0  0  0  0
 57 59  1  0  0  0  0
 58 60  1  6  0  0  0
 58 59  1  0  0  0  0
 59 61  1  1  0  0  0
 61 68  1  6  0  0  0
 61 62  1  0  0  0  0
 62 63  1  1  0  0  0
 62 64  1  0  0  0  0
 64 65  1  0  0  0  0
 66 65  1  0  0  0  0
 68 67  1  0  0  0  0
M  END
>  <MODEL>
5

>  <REMARK>
 VINA RESULT:      -4.5      2.362     10.504
  Name = 
  30 active torsions:
  status: ('A' for Active; 'I' for Inactive)
    1  A    between atoms: C_4  and  C_25
    2  A    between atoms: C_4  and  N_65
    3  A    between atoms: O_6  and  C_38
    4  A    between atoms: N_7  and  N_22
    5  A    between atoms: N_7  and  N_68
    6  A    between atoms: C_8  and  C_12
    7  A    between atoms: C_9  and  C_25
    8  A    between atoms: C_13  and  N_24
    9  A    between atoms: O_14  and  C_63
   10  A    between atoms: C_17  and  C_43
   11  A    between atoms: C_20  and  C_50
   12  A    between atoms: C_20  and  C_63
   13  A    between atoms: C_21  and  C_44
   14  A    between atoms: C_21  and  N_65
   15  A    between atoms: N_22  and  C_49
   16  A    between atoms: N_24  and  C_56
   17  A    between atoms: C_26  and  C_34
   18  A    between atoms: C_26  and  C_38
   19  A    between atoms: C_30  and  C_59
   20  A    between atoms: C_32  and  C_56
   21  A    between atoms: C_34  and  C_55
   22  A    between atoms: C_34  and  C_64
   23  A    between atoms: C_35  and  C_50
   24  A    between atoms: C_36  and  C_54
   25  A    between atoms: C_36  and  C_60
   26  A    between atoms: C_38  and  C_43
   27  A    between atoms: C_40  and  C_49
   28  A    between atoms: C_48  and  C_50
   29  A    between atoms: C_54  and  C_67
   30  A    between atoms: C_59  and  N_68
                            x       y       z     vdW  Elec       q    Type
                         _______ _______ _______ _____ _____    ______ ____

>  <TORSDO>
F 30

$$$$
=
 OpenBabel10222420493D

 68 74  0  0  1  0  0  0  0  0999 V2000
  189.4940  176.4150  138.9430 C   0  0  2  0  0  0  0  0  0  0  0  0
  189.5970  175.2850  139.7660 O   0  0  0  0  0  1  0  0  0  0  0  0
  185.8280  177.2040  137.9190 C   0  0  0  0  0  0  0  0  0  0  0  0
  184.1670  178.6670  139.2120 C   0  0  2  0  0  3  0  0  0  0  0  0
  183.4470  177.4010  137.2000 C   0  0  0  0  0  2  0  0  0  0  0  0
  186.5960  179.0060  139.3800 N   0  0  0  0  0  2  0  0  0  0  0  0
  183.1210  177.7100  138.6540 C   0  0  0  0  0  2  0  0  0  0  0  0
  184.8530  176.8790  137.0380 C   0  0  0  0  0  0  0  0  0  0  0  0
  187.9470  178.4220  139.4760 C   0  0  0  0  0  2  0  0  0  0  0  0
  187.2350  176.6960  137.7430 C   0  0  0  0  0  2  0  0  0  0  0  0
  188.0500  176.9500  139.0150 C   0  0  1  0  0  3  0  0  0  0  0  0
  185.5460  177.9980  139.1880 C   0  0  2  0  0  3  0  0  0  0  0  0
  185.1520  176.0490  135.8260 C   0  0  0  0  0  2  0  0  0  0  0  0
  183.9480  175.3650  135.3820 N   0  0  0  0  0  2  0  0  0  0  0  0
  183.3450  174.8290  136.5270 N   0  0  0  0  0  2  0  0  0  0  0  0
  182.6240  173.7020  136.1070 N   0  0  0  0  0  2  0  0  0  0  0  0
  181.5900  174.1650  135.1970 C   0  0  0  0  0  2  0  0  0  0  0  0
  179.2870  174.9590  135.6010 C   0  0  0  0  0  2  0  0  0  0  0  0
  180.7530  175.2450  135.8580 C   0  0  0  0  0  3  0  0  0  0  0  0
  180.0040  176.0240  134.7970 C   0  0  0  0  0  2  0  0  0  0  0  0
  183.8090  179.0240  140.6470 C   0  0  0  0  0  2  0  0  0  0  0  0
  182.4810  178.4020  141.0390 C   0  0  0  0  0  2  0  0  0  0  0  0
  181.5070  179.4570  141.2690 N   0  0  0  0  0  2  0  0  0  0  0  0
  179.6610  178.0140  141.3560 O   0  0  0  0  0  1  0  0  0  0  0  0
  180.2570  179.0570  140.6320 C   0  0  1  0  0  3  0  0  0  0  0  0
  180.3860  181.8490  138.7590 O   0  0  0  0  0  0  0  0  0  0  0  0
  179.3350  180.2790  140.4860 C   0  0  1  0  0  3  0  0  0  0  0  0
  179.7370  181.3080  141.2970 O   0  0  0  0  0  0  0  0  0  0  0  0
  179.9500  181.3140  139.8120 C   0  0  0  0  0  0  0  0  0  0  0  0
  189.8410  176.0110  137.5340 C   0  0  0  0  0  3  0  0  0  0  0  0
  190.1570  176.9250  136.6150 C   0  0  0  0  0  3  0  0  0  0  0  0
  190.5500  176.5260  135.2380 C   0  0  0  0  0  2  0  0  0  0  0  0
  191.2510  175.1820  135.3070 C   0  0  0  0  0  2  0  0  0  0  0  0
  193.2990  176.5910  135.1060 C   0  0  0  0  0  3  0  0  0  0  0  0
  194.9200  174.4760  136.0310 C   0  0  0  0  0  0  0  0  0  0  0  0
  195.4900  175.7320  135.6930 C   0  0  0  0  0  0  0  0  0  0  0  0
  196.8820  175.9900  135.8510 N   0  0  0  0  0  1  0  0  0  0  0  0
  193.5270  174.3210  135.9020 C   0  0  0  0  0  3  0  0  0  0  0  0
  192.7220  175.3640  135.4390 C   0  0  0  0  0  0  0  0  0  0  0  0
  194.6750  176.7710  135.2350 C   0  0  0  0  0  3  0  0  0  0  0  0
  196.9960  173.5320  137.0770 C   0  0  0  0  0  3  0  0  0  0  0  0
  195.7260  173.3180  136.5130 C   0  0  0  0  0  0  0  0  0  0  0  0
  197.2680  171.1580  137.4520 C   0  0  0  0  0  0  0  0  0  0  0  0
  197.7630  172.4600  137.5420 C   0  0  0  0  0  3  0  0  0  0  0  0
  196.0070  170.9280  136.8980 C   0  0  0  0  0  3  0  0  0  0  0  0
  195.2410  172.0020  136.4360 C   0  0  0  0  0  3  0  0  0  0  0  0
  198.0340  170.0930  137.9080 O   0  0  0  0  0  1  0  0  0  0  0  0
  190.4880  177.4990  139.4080 C   0  0  0  0  0  2  0  0  0  0  0  0
  191.8580  177.0120  139.8960 C   0  0  1  0  0  3  0  0  0  0  0  0
  192.7730  176.8640  138.8510 O   0  0  0  0  0  0  0  0  0  0  0  0
  193.8420  176.1590  139.4150 C   0  0  0  0  0  1  0  0  0  0  0  0
  192.4080  177.9530  140.9530 C   0  0  0  0  0  2  0  0  0  0  0  0
  191.7660  177.6570  142.2620 C   0  0  0  0  0  3  0  0  0  0  0  0
  190.4410  177.5760  142.3550 C   0  0  0  0  0  3  0  0  0  0  0  0
  189.7910  177.2850  143.6680 C   0  0  0  0  0  2  0  0  0  0  0  0
  188.5570  178.0470  143.7900 N   0  0  0  0  0  2  0  0  0  0  0  0
  186.3050  177.6740  143.1910 O   0  0  0  0  0  0  0  0  0  0  0  0
  187.4430  177.1060  143.7870 C   0  0  2  0  0  0  0  0  0  0  0  0
  186.2030  177.3660  144.5660 C   0  0  1  0  0  3  0  0  0  0  0  0
  187.6810  175.8260  143.2850 O   0  0  0  0  0  1  0  0  0  0  0  0
  186.2540  178.6600  145.3750 C   0  0  2  0  0  3  0  0  0  0  0  0
  185.9740  178.4200  146.8670 C   0  0  2  0  0  3  0  0  0  0  0  0
  185.8030  179.6240  147.5470 O   0  0  0  0  0  1  0  0  0  0  0  0
  187.0740  177.6080  147.5390 C   0  0  0  0  0  2  0  0  0  0  0  0
  188.2950  178.2870  147.4870 O   0  0  0  0  0  0  0  0  0  0  0  0
  189.2410  177.3410  147.8760 C   0  0  0  0  0  1  0  0  0  0  0  0
  183.7860  179.2120  144.1650 S   0  0  0  0  0  1  0  0  0  0  0  0
  185.4250  179.7790  144.7310 C   0  0  0  0  0  2  0  0  0  0  0  0
  1 48  1  0  0  0  0
  1  2  1  1  0  0  0
  4 21  1  1  0  0  0
  5  7  1  0  0  0  0
  6  9  1  0  0  0  0
  7  4  1  0  0  0  0
  8  5  1  0  0  0  0
  8  3  2  0  0  0  0
 10  3  1  0  0  0  0
 10 11  1  0  0  0  0
 11  1  1  6  0  0  0
 11  9  1  0  0  0  0
 12  3  1  6  0  0  0
 12  4  1  0  0  0  0
 12  6  1  0  0  0  0
 13  8  1  0  0  0  0
 14 13  1  0  0  0  0
 14 15  1  0  0  0  0
 16 15  1  0  0  0  0
 17 19  1  0  0  0  0
 17 16  1  0  0  0  0
 18 19  1  0  0  0  0
 20 18  1  0  0  0  0
 20 19  1  0  0  0  0
 21 22  1  0  0  0  0
 22 23  1  0  0  0  0
 25 23  1  0  0  0  0
 25 24  1  1  0  0  0
 26 29  2  0  0  0  0
 27 25  1  1  0  0  0
 27 28  1  0  0  0  0
 29 27  1  0  0  0  0
 29 28  1  0  0  0  0
 30  1  1  0  0  0  0
 31 30  2  0  0  0  0
 32 33  1  0  0  0  0
 32 31  1  0  0  0  0
 33 39  1  0  0  0  0
 34 40  2  0  0  0  0
 34 39  1  0  0  0  0
 35 42  1  0  0  0  0
 36 37  1  0  0  0  0
 36 35  2  0  0  0  0
 38 35  1  0  0  0  0
 39 38  2  0  0  0  0
 40 36  1  0  0  0  0
 41 44  1  0  0  0  0
 42 41  2  0  0  0  0
 43 44  2  0  0  0  0
 43 47  1  0  0  0  0
 45 43  1  0  0  0  0
 46 42  1  0  0  0  0
 46 45  2  0  0  0  0
 49 48  1  6  0  0  0
 49 52  1  0  0  0  0
 50 51  1  0  0  0  0
 50 49  1  0  0  0  0
 52 53  1  0  0  0  0
 53 54  2  0  0  0  0
 54 55  1  0  0  0  0
 55 56  1  0  0  0  0
 57 58  1  0  0  0  0
 57 59  1  0  0  0  0
 58 60  1  6  0  0  0
 58 56  1  0  0  0  0
 58 59  1  0  0  0  0
 59 61  1  1  0  0  0
 61 68  1  6  0  0  0
 61 62  1  0  0  0  0
 62 64  1  0  0  0  0
 62 63  1  1  0  0  0
 65 64  1  0  0  0  0
 65 66  1  0  0  0  0
 67 68  1  0  0  0  0
M  END
>  <MODEL>
6

>  <REMARK>
 VINA RESULT:      -4.4      2.515     10.779
  Name = 
  30 active torsions:
  status: ('A' for Active; 'I' for Inactive)
    1  A    between atoms: C_4  and  C_25
    2  A    between atoms: C_4  and  N_65
    3  A    between atoms: O_6  and  C_38
    4  A    between atoms: N_7  and  N_22
    5  A    between atoms: N_7  and  N_68
    6  A    between atoms: C_8  and  C_12
    7  A    between atoms: C_9  and  C_25
    8  A    between atoms: C_13  and  N_24
    9  A    between atoms: O_14  and  C_63
   10  A    between atoms: C_17  and  C_43
   11  A    between atoms: C_20  and  C_50
   12  A    between atoms: C_20  and  C_63
   13  A    between atoms: C_21  and  C_44
   14  A    between atoms: C_21  and  N_65
   15  A    between atoms: N_22  and  C_49
   16  A    between atoms: N_24  and  C_56
   17  A    between atoms: C_26  and  C_34
   18  A    between atoms: C_26  and  C_38
   19  A    between atoms: C_30  and  C_59
   20  A    between atoms: C_32  and  C_56
   21  A    between atoms: C_34  and  C_55
   22  A    between atoms: C_34  and  C_64
   23  A    between atoms: C_35  and  C_50
   24  A    between atoms: C_36  and  C_54
   25  A    between atoms: C_36  and  C_60
   26  A    between atoms: C_38  and  C_43
   27  A    between atoms: C_40  and  C_49
   28  A    between atoms: C_48  and  C_50
   29  A    between atoms: C_54  and  C_67
   30  A    between atoms: C_59  and  N_68
                            x       y       z     vdW  Elec       q    Type
                         _______ _______ _______ _____ _____    ______ ____

>  <TORSDO>
F 30

$$$$
=
 OpenBabel10222420493D

 68 74  0  0  1  0  0  0  0  0999 V2000
  189.4710  177.3710  141.1490 C   0  0  2  0  0  0  0  0  0  0  0  0
  188.8130  176.2440  141.6580 O   0  0  0  0  0  1  0  0  0  0  0  0
  189.6260  177.0290  137.2810 C   0  0  0  0  0  0  0  0  0  0  0  0
  191.4700  175.8740  135.9260 C   0  0  2  0  0  3  0  0  0  0  0  0
  189.6460  177.1160  134.7870 C   0  0  0  0  0  2  0  0  0  0  0  0
  190.9600  175.2210  138.2400 N   0  0  0  0  0  2  0  0  0  0  0  0
  191.1540  176.9320  134.8760 C   0  0  0  0  0  2  0  0  0  0  0  0
  189.0380  177.4340  136.1300 C   0  0  0  0  0  0  0  0  0  0  0  0
  190.6080  175.6210  139.6150 C   0  0  0  0  0  2  0  0  0  0  0  0
  189.0060  177.3320  138.6190 C   0  0  0  0  0  2  0  0  0  0  0  0
  190.0060  177.0390  139.7420 C   0  0  1  0  0  3  0  0  0  0  0  0
  190.9880  176.3480  137.3010 C   0  0  2  0  0  3  0  0  0  0  0  0
  187.7220  178.1510  136.1460 C   0  0  0  0  0  2  0  0  0  0  0  0
  187.0440  177.9760  134.8720 N   0  0  0  0  0  2  0  0  0  0  0  0
  186.6770  176.6260  134.7950 N   0  0  0  0  0  2  0  0  0  0  0  0
  185.5290  176.4790  135.5860 N   0  0  0  0  0  2  0  0  0  0  0  0
  185.0650  175.1120  135.4250 C   0  0  0  0  0  2  0  0  0  0  0  0
  186.2420  174.8880  137.5850 C   0  0  0  0  0  2  0  0  0  0  0  0
  185.0660  174.3970  136.7650 C   0  0  0  0  0  3  0  0  0  0  0  0
  186.3140  173.5470  136.8830 C   0  0  0  0  0  2  0  0  0  0  0  0
  192.9740  175.6450  135.9740 C   0  0  0  0  0  2  0  0  0  0  0  0
  193.6370  176.1700  134.7140 C   0  0  0  0  0  2  0  0  0  0  0  0
  194.6490  177.1500  135.0760 N   0  0  0  0  0  2  0  0  0  0  0  0
  196.9740  177.3670  135.2660 O   0  0  0  0  0  1  0  0  0  0  0  0
  195.9460  176.6240  134.6690 C   0  0  1  0  0  3  0  0  0  0  0  0
  196.6690  174.9130  137.4750 O   0  0  0  0  0  0  0  0  0  0  0  0
  196.0270  175.1250  135.0060 C   0  0  1  0  0  3  0  0  0  0  0  0
  197.3090  174.6560  134.8910 O   0  0  0  0  0  0  0  0  0  0  0  0
  196.6510  174.9000  136.2160 C   0  0  0  0  0  0  0  0  0  0  0  0
  190.6030  177.7230  142.0780 C   0  0  0  0  0  3  0  0  0  0  0  0
  190.5010  178.7440  142.9300 C   0  0  0  0  0  3  0  0  0  0  0  0
  191.5970  179.0620  143.8840 C   0  0  0  0  0  2  0  0  0  0  0  0
  191.9860  177.7880  144.6130 C   0  0  0  0  0  2  0  0  0  0  0  0
  191.3170  176.6810  146.7460 C   0  0  0  0  0  3  0  0  0  0  0  0
  188.6400  177.5020  146.4040 C   0  0  0  0  0  0  0  0  0  0  0  0
  189.0270  176.7470  147.5440 C   0  0  0  0  0  0  0  0  0  0  0  0
  188.1010  176.4170  148.5740 N   0  0  0  0  0  1  0  0  0  0  0  0
  189.6280  177.8360  145.4590 C   0  0  0  0  0  3  0  0  0  0  0  0
  190.9540  177.4270  145.6230 C   0  0  0  0  0  0  0  0  0  0  0  0
  190.3570  176.3460  147.7000 C   0  0  0  0  0  3  0  0  0  0  0  0
  186.4680  177.3410  145.1580 C   0  0  0  0  0  3  0  0  0  0  0  0
  187.2400  177.9530  146.1620 C   0  0  0  0  0  0  0  0  0  0  0  0
  184.5840  178.7630  145.6910 C   0  0  0  0  0  0  0  0  0  0  0  0
  185.1510  177.7440  144.9220 C   0  0  0  0  0  3  0  0  0  0  0  0
  185.3360  179.3780  146.6950 C   0  0  0  0  0  3  0  0  0  0  0  0
  186.6520  178.9720  146.9300 C   0  0  0  0  0  3  0  0  0  0  0  0
  183.2780  179.1670  145.4510 O   0  0  0  0  0  1  0  0  0  0  0  0
  188.4960  178.5650  141.0800 C   0  0  0  0  0  2  0  0  0  0  0  0
  187.0220  178.2340  140.8180 C   0  0  1  0  0  3  0  0  0  0  0  0
  186.1890  178.6560  141.8560 O   0  0  0  0  0  0  0  0  0  0  0  0
  186.9060  179.6740  142.4940 C   0  0  0  0  0  1  0  0  0  0  0  0
  186.5710  178.8360  139.4990 C   0  0  0  0  0  2  0  0  0  0  0  0
  185.0930  178.7140  139.3790 C   0  0  0  0  0  3  0  0  0  0  0  0
  184.5530  178.1340  138.3100 C   0  0  0  0  0  3  0  0  0  0  0  0
  183.0700  178.0140  138.1820 C   0  0  0  0  0  2  0  0  0  0  0  0
  182.4270  178.5060  139.3910 N   0  0  0  0  0  2  0  0  0  0  0  0
  180.6380  176.9870  139.1470 O   0  0  0  0  0  0  0  0  0  0  0  0
  181.6820  177.4050  139.9880 C   0  0  2  0  0  0  0  0  0  0  0  0
  180.2560  177.5530  140.3830 C   0  0  1  0  0  3  0  0  0  0  0  0
  182.4110  176.3110  140.4550 O   0  0  0  0  0  1  0  0  0  0  0  0
  179.7020  178.9550  140.1430 C   0  0  2  0  0  3  0  0  0  0  0  0
  180.1780  179.5440  138.8050 C   0  0  2  0  0  3  0  0  0  0  0  0
  181.0640  180.6000  139.0070 O   0  0  0  0  0  1  0  0  0  0  0  0
  179.0180  180.0120  137.9330 C   0  0  0  0  0  2  0  0  0  0  0  0
  178.9310  181.4080  137.9310 O   0  0  0  0  0  0  0  0  0  0  0  0
  179.0110  181.7630  136.5860 C   0  0  0  0  0  1  0  0  0  0  0  0
  180.4540  178.9710  142.8430 S   0  0  0  0  0  1  0  0  0  0  0  0
  179.8920  179.8710  141.3590 C   0  0  0  0  0  2  0  0  0  0  0  0
  1  2  1  1  0  0  0
  1 30  1  0  0  0  0
  3 10  1  0  0  0  0
  4 21  1  1  0  0  0
  4 12  1  0  0  0  0
  5  7  1  0  0  0  0
  5  8  1  0  0  0  0
  6  9  1  0  0  0  0
  7  4  1  0  0  0  0
  8 13  1  0  0  0  0
  8  3  2  0  0  0  0
  9 11  1  0  0  0  0
 10 11  1  0  0  0  0
 11  1  1  1  0  0  0
 12  3  1  6  0  0  0
 12  6  1  0  0  0  0
 14 13  1  0  0  0  0
 15 14  1  0  0  0  0
 15 16  1  0  0  0  0
 17 16  1  0  0  0  0
 17 19  1  0  0  0  0
 19 20  1  0  0  0  0
 19 18  1  0  0  0  0
 20 18  1  0  0  0  0
 22 23  1  0  0  0  0
 22 21  1  0  0  0  0
 25 23  1  0  0  0  0
 25 24  1  1  0  0  0
 27 25  1  6  0  0  0
 27 29  1  0  0  0  0
 28 27  1  0  0  0  0
 28 29  1  0  0  0  0
 29 26  2  0  0  0  0
 30 31  2  0  0  0  0
 31 32  1  0  0  0  0
 32 33  1  0  0  0  0
 33 39  1  0  0  0  0
 34 40  1  0  0  0  0
 35 36  1  0  0  0  0
 36 40  2  0  0  0  0
 36 37  1  0  0  0  0
 38 39  1  0  0  0  0
 38 35  2  0  0  0  0
 39 34  2  0  0  0  0
 41 42  1  0  0  0  0
 42 35  1  0  0  0  0
 42 46  2  0  0  0  0
 43 45  2  0  0  0  0
 44 41  2  0  0  0  0
 44 43  1  0  0  0  0
 45 46  1  0  0  0  0
 47 43  1  0  0  0  0
 48  1  1  0  0  0  0
 49 52  1  6  0  0  0
 49 48  1  0  0  0  0
 49 50  1  0  0  0  0
 50 51  1  0  0  0  0
 53 52  1  0  0  0  0
 54 53  2  0  0  0  0
 55 54  1  0  0  0  0
 55 56  1  0  0  0  0
 56 58  1  0  0  0  0
 57 58  1  0  0  0  0
 57 59  1  0  0  0  0
 58 59  1  0  0  0  0
 58 60  1  1  0  0  0
 59 61  1  6  0  0  0
 61 68  1  1  0  0  0
 62 63  1  1  0  0  0
 62 61  1  0  0  0  0
 64 62  1  0  0  0  0
 65 64  1  0  0  0  0
 66 65  1  0  0  0  0
 68 67  1  0  0  0  0
M  END
>  <MODEL>
7

>  <REMARK>
 VINA RESULT:      -4.4      1.226      2.142
  Name = 
  30 active torsions:
  status: ('A' for Active; 'I' for Inactive)
    1  A    between atoms: C_4  and  C_25
    2  A    between atoms: C_4  and  N_65
    3  A    between atoms: O_6  and  C_38
    4  A    between atoms: N_7  and  N_22
    5  A    between atoms: N_7  and  N_68
    6  A    between atoms: C_8  and  C_12
    7  A    between atoms: C_9  and  C_25
    8  A    between atoms: C_13  and  N_24
    9  A    between atoms: O_14  and  C_63
   10  A    between atoms: C_17  and  C_43
   11  A    between atoms: C_20  and  C_50
   12  A    between atoms: C_20  and  C_63
   13  A    between atoms: C_21  and  C_44
   14  A    between atoms: C_21  and  N_65
   15  A    between atoms: N_22  and  C_49
   16  A    between atoms: N_24  and  C_56
   17  A    between atoms: C_26  and  C_34
   18  A    between atoms: C_26  and  C_38
   19  A    between atoms: C_30  and  C_59
   20  A    between atoms: C_32  and  C_56
   21  A    between atoms: C_34  and  C_55
   22  A    between atoms: C_34  and  C_64
   23  A    between atoms: C_35  and  C_50
   24  A    between atoms: C_36  and  C_54
   25  A    between atoms: C_36  and  C_60
   26  A    between atoms: C_38  and  C_43
   27  A    between atoms: C_40  and  C_49
   28  A    between atoms: C_48  and  C_50
   29  A    between atoms: C_54  and  C_67
   30  A    between atoms: C_59  and  N_68
                            x       y       z     vdW  Elec       q    Type
                         _______ _______ _______ _____ _____    ______ ____

>  <TORSDO>
F 30

$$$$
=
 OpenBabel10222420493D

 68 74  0  0  1  0  0  0  0  0999 V2000
  189.0040  177.3200  138.5140 C   0  0  2  0  0  0  0  0  0  0  0  0
  187.8010  176.6020  138.4830 O   0  0  0  0  0  1  0  0  0  0  0  0
  190.8530  174.4130  136.7150 C   0  0  0  0  0  0  0  0  0  0  0  0
  193.1120  174.5560  135.5130 C   0  0  2  0  0  3  0  0  0  0  0  0
  191.7580  172.4760  135.4290 C   0  0  0  0  0  2  0  0  0  0  0  0
  192.5260  176.0710  137.3580 N   0  0  0  0  0  2  0  0  0  0  0  0
  192.5210  173.4940  134.5940 C   0  0  0  0  0  2  0  0  0  0  0  0
  190.7160  173.1310  136.3010 C   0  0  0  0  0  0  0  0  0  0  0  0
  191.5150  176.9080  138.0300 C   0  0  0  0  0  2  0  0  0  0  0  0
  189.8190  175.0570  137.6000 C   0  0  0  0  0  2  0  0  0  0  0  0
  190.0510  176.5700  137.6670 C   0  0  1  0  0  3  0  0  0  0  0  0
  191.9840  175.3080  136.2280 C   0  0  2  0  0  3  0  0  0  0  0  0
  189.5600  172.2910  136.7540 C   0  0  0  0  0  2  0  0  0  0  0  0
  188.3550  172.6730  136.0370 N   0  0  0  0  0  2  0  0  0  0  0  0
  187.2740  172.3530  136.8690 N   0  0  0  0  0  2  0  0  0  0  0  0
  186.4320  171.5160  136.1240 N   0  0  0  0  0  2  0  0  0  0  0  0
  185.0630  171.8890  136.4370 C   0  0  0  0  0  2  0  0  0  0  0  0
  183.4200  173.7240  136.2590 C   0  0  0  0  0  2  0  0  0  0  0  0
  184.8960  173.3960  136.3470 C   0  0  0  0  0  3  0  0  0  0  0  0
  184.2790  173.7570  135.0120 C   0  0  0  0  0  2  0  0  0  0  0  0
  193.9250  175.5420  134.6870 C   0  0  0  0  0  2  0  0  0  0  0  0
  195.2490  175.8450  135.3640 C   0  0  0  0  0  2  0  0  0  0  0  0
  196.1690  174.7420  135.1350 N   0  0  0  0  0  2  0  0  0  0  0  0
  195.7500  174.0510  137.3340 O   0  0  0  0  0  1  0  0  0  0  0  0
  196.7590  174.3790  136.4180 C   0  0  1  0  0  3  0  0  0  0  0  0
  196.4550  171.0540  136.0010 O   0  0  0  0  0  0  0  0  0  0  0  0
  197.7720  173.2380  136.2190 C   0  0  1  0  0  3  0  0  0  0  0  0
  198.0870  172.6370  137.4090 O   0  0  0  0  0  0  0  0  0  0  0  0
  197.1930  171.9970  136.3890 C   0  0  0  0  0  0  0  0  0  0  0  0
  189.4580  177.4290  139.9460 C   0  0  0  0  0  3  0  0  0  0  0  0
  190.3270  178.3680  140.3230 C   0  0  0  0  0  3  0  0  0  0  0  0
  190.7370  178.5100  141.7440 C   0  0  0  0  0  2  0  0  0  0  0  0
  190.8690  177.1240  142.3490 C   0  0  0  0  0  2  0  0  0  0  0  0
  190.9210  176.6670  144.8000 C   0  0  0  0  0  3  0  0  0  0  0  0
  188.1980  177.3610  145.0490 C   0  0  0  0  0  0  0  0  0  0  0  0
  188.9510  176.9590  146.1850 C   0  0  0  0  0  0  0  0  0  0  0  0
  188.3820  176.9360  147.4910 N   0  0  0  0  0  1  0  0  0  0  0  0
  188.8500  177.4130  143.8030 C   0  0  0  0  0  3  0  0  0  0  0  0
  190.1960  177.0650  143.6750 C   0  0  0  0  0  0  0  0  0  0  0  0
  190.2990  176.6170  146.0470 C   0  0  0  0  0  3  0  0  0  0  0  0
  186.0690  178.1000  143.9450 C   0  0  0  0  0  3  0  0  0  0  0  0
  186.7540  177.7280  145.1160 C   0  0  0  0  0  0  0  0  0  0  0  0
  184.0230  178.4050  145.1990 C   0  0  0  0  0  0  0  0  0  0  0  0
  184.7140  178.4380  143.9870 C   0  0  0  0  0  3  0  0  0  0  0  0
  184.6880  178.0340  146.3700 C   0  0  0  0  0  3  0  0  0  0  0  0
  186.0420  177.6940  146.3260 C   0  0  0  0  0  3  0  0  0  0  0  0
  182.6780  178.7480  145.2400 O   0  0  0  0  0  1  0  0  0  0  0  0
  188.7850  178.7410  137.9540 C   0  0  0  0  0  2  0  0  0  0  0  0
  188.2070  178.8390  136.5360 C   0  0  1  0  0  3  0  0  0  0  0  0
  188.3830  177.6610  135.8070 O   0  0  0  0  0  0  0  0  0  0  0  0
  187.4960  177.7760  134.7310 C   0  0  0  0  0  1  0  0  0  0  0  0
  186.7370  179.2140  136.5890 C   0  0  0  0  0  2  0  0  0  0  0  0
  186.0860  178.5070  137.7240 C   0  0  0  0  0  3  0  0  0  0  0  0
  184.7810  178.6510  137.9440 C   0  0  0  0  0  3  0  0  0  0  0  0
  184.1230  177.9470  139.0850 C   0  0  0  0  0  2  0  0  0  0  0  0
  182.9590  177.2130  138.6110 N   0  0  0  0  0  2  0  0  0  0  0  0
  181.8240  176.6540  140.6030 O   0  0  0  0  0  0  0  0  0  0  0  0
  181.8410  177.5180  139.4960 C   0  0  2  0  0  0  0  0  0  0  0  0
  180.7330  176.5510  139.7110 C   0  0  1  0  0  3  0  0  0  0  0  0
  181.6800  178.8450  139.8980 O   0  0  0  0  0  1  0  0  0  0  0  0
  180.8750  175.2710  138.8910 C   0  0  2  0  0  3  0  0  0  0  0  0
  180.0770  175.3340  137.5780 C   0  0  2  0  0  3  0  0  0  0  0  0
  178.9640  176.1610  137.7040 O   0  0  0  0  0  1  0  0  0  0  0  0
  179.6350  173.9540  137.1030 C   0  0  0  0  0  2  0  0  0  0  0  0
  180.4160  173.5270  136.0250 O   0  0  0  0  0  0  0  0  0  0  0  0
  179.8450  174.1430  134.9120 C   0  0  0  0  0  1  0  0  0  0  0  0
  178.9380  173.9070  140.3900 S   0  0  0  0  0  1  0  0  0  0  0  0
  180.6370  174.0120  139.7350 C   0  0  0  0  0  2  0  0  0  0  0  0
  1  2  1  6  0  0  0
  1 30  1  0  0  0  0
  3 10  1  0  0  0  0
  4 21  1  6  0  0  0
  4 12  1  0  0  0  0
  5  8  1  0  0  0  0
  6  9  1  0  0  0  0
  7  5  1  0  0  0  0
  7  4  1  0  0  0  0
  8  3  2  0  0  0  0
  8 13  1  0  0  0  0
 10 11  1  0  0  0  0
 11  9  1  0  0  0  0
 11  1  1  1  0  0  0
 12  3  1  1  0  0  0
 12  6  1  0  0  0  0
 14 13  1  0  0  0  0
 14 15  1  0  0  0  0
 16 17  1  0  0  0  0
 16 15  1  0  0  0  0
 18 19  1  0  0  0  0
 19 17  1  0  0  0  0
 20 18  1  0  0  0  0
 20 19  1  0  0  0  0
 21 22  1  0  0  0  0
 23 22  1  0  0  0  0
 23 25  1  0  0  0  0
 25 24  1  1  0  0  0
 26 29  2  0  0  0  0
 27 29  1  0  0  0  0
 27 25  1  1  0  0  0
 27 28  1  0  0  0  0
 29 28  1  0  0  0  0
 30 31  2  0  0  0  0
 31 32  1  0  0  0  0
 32 33  1  0  0  0  0
 33 39  1  0  0  0  0
 34 40  1  0  0  0  0
 35 42  1  0  0  0  0
 35 36  1  0  0  0  0
 36 37  1  0  0  0  0
 38 35  2  0  0  0  0
 39 38  1  0  0  0  0
 39 34  2  0  0  0  0
 40 36  2  0  0  0  0
 41 44  2  0  0  0  0
 41 42  1  0  0  0  0
 42 46  2  0  0  0  0
 43 47  1  0  0  0  0
 43 45  2  0  0  0  0
 44 43  1  0  0  0  0
 46 45  1  0  0  0  0
 48  1  1  0  0  0  0
 49 52  1  1  0  0  0
 49 48  1  0  0  0  0
 50 49  1  0  0  0  0
 51 50  1  0  0  0  0
 52 53  1  0  0  0  0
 53 54  2  0  0  0  0
 54 55  1  0  0  0  0
 56 55  1  0  0  0  0
 56 58  1  0  0  0  0
 58 59  1  0  0  0  0
 58 60  1  1  0  0  0
 58 57  1  0  0  0  0
 59 61  1  6  0  0  0
 59 57  1  0  0  0  0
 61 68  1  1  0  0  0
 62 63  1  1  0  0  0
 62 61  1  0  0  0  0
 64 62  1  0  0  0  0
 65 64  1  0  0  0  0
 66 65  1  0  0  0  0
 68 67  1  0  0  0  0
M  END
>  <MODEL>
8

>  <REMARK>
 VINA RESULT:      -4.2      2.067      3.039
  Name = 
  30 active torsions:
  status: ('A' for Active; 'I' for Inactive)
    1  A    between atoms: C_4  and  C_25
    2  A    between atoms: C_4  and  N_65
    3  A    between atoms: O_6  and  C_38
    4  A    between atoms: N_7  and  N_22
    5  A    between atoms: N_7  and  N_68
    6  A    between atoms: C_8  and  C_12
    7  A    between atoms: C_9  and  C_25
    8  A    between atoms: C_13  and  N_24
    9  A    between atoms: O_14  and  C_63
   10  A    between atoms: C_17  and  C_43
   11  A    between atoms: C_20  and  C_50
   12  A    between atoms: C_20  and  C_63
   13  A    between atoms: C_21  and  C_44
   14  A    between atoms: C_21  and  N_65
   15  A    between atoms: N_22  and  C_49
   16  A    between atoms: N_24  and  C_56
   17  A    between atoms: C_26  and  C_34
   18  A    between atoms: C_26  and  C_38
   19  A    between atoms: C_30  and  C_59
   20  A    between atoms: C_32  and  C_56
   21  A    between atoms: C_34  and  C_55
   22  A    between atoms: C_34  and  C_64
   23  A    between atoms: C_35  and  C_50
   24  A    between atoms: C_36  and  C_54
   25  A    between atoms: C_36  and  C_60
   26  A    between atoms: C_38  and  C_43
   27  A    between atoms: C_40  and  C_49
   28  A    between atoms: C_48  and  C_50
   29  A    between atoms: C_54  and  C_67
   30  A    between atoms: C_59  and  N_68
                            x       y       z     vdW  Elec       q    Type
                         _______ _______ _______ _____ _____    ______ ____

>  <TORSDO>
F 30

$$$$
=
 OpenBabel10222420493D

 68 74  0  0  1  0  0  0  0  0999 V2000
  186.6170  176.0440  136.8150 C   0  0  2  0  0  0  0  0  0  0  0  0
  186.9650  176.8570  135.7280 O   0  0  0  0  0  1  0  0  0  0  0  0
  187.2840  178.0410  140.0820 C   0  0  0  0  0  0  0  0  0  0  0  0
  189.4840  178.1260  141.3930 C   0  0  2  0  0  3  0  0  0  0  0  0
  187.4340  179.2080  142.2820 C   0  0  0  0  0  2  0  0  0  0  0  0
  189.4320  177.6910  138.9750 N   0  0  0  0  0  2  0  0  0  0  0  0
  188.5790  178.2630  142.6120 C   0  0  0  0  0  2  0  0  0  0  0  0
  186.6820  178.7730  141.0490 C   0  0  0  0  0  0  0  0  0  0  0  0
  188.7910  177.0220  137.8270 C   0  0  0  0  0  2  0  0  0  0  0  0
  186.5340  177.6240  138.8440 C   0  0  0  0  0  2  0  0  0  0  0  0
  187.3340  176.5680  138.0750 C   0  0  1  0  0  3  0  0  0  0  0  0
  188.7000  177.5040  140.2330 C   0  0  2  0  0  3  0  0  0  0  0  0
  185.2660  179.2420  140.8960 C   0  0  0  0  0  2  0  0  0  0  0  0
  184.3480  178.2100  141.3500 N   0  0  0  0  0  2  0  0  0  0  0  0
  183.1330  178.8490  141.6310 N   0  0  0  0  0  2  0  0  0  0  0  0
  182.9830  178.8250  143.0250 N   0  0  0  0  0  2  0  0  0  0  0  0
  184.1680  179.4410  143.5980 C   0  0  0  0  0  2  0  0  0  0  0  0
  183.9980  177.8040  145.4390 C   0  0  0  0  0  2  0  0  0  0  0  0
  184.9370  178.4270  144.4270 C   0  0  0  0  0  3  0  0  0  0  0  0
  184.9720  178.8790  145.8720 C   0  0  0  0  0  2  0  0  0  0  0  0
  190.6630  177.2290  141.7400 C   0  0  0  0  0  2  0  0  0  0  0  0
  190.3550  176.3880  142.9640 C   0  0  0  0  0  2  0  0  0  0  0  0
  191.5970  176.0640  143.6490 N   0  0  0  0  0  2  0  0  0  0  0  0
  190.7870  177.9960  144.7000 O   0  0  0  0  0  1  0  0  0  0  0  0
  191.7170  176.9510  144.8000 C   0  0  1  0  0  3  0  0  0  0  0  0
  189.5550  177.0940  147.3750 O   0  0  0  0  0  0  0  0  0  0  0  0
  191.5600  176.1420  146.0980 C   0  0  1  0  0  3  0  0  0  0  0  0
  192.1980  176.7500  147.1470 O   0  0  0  0  0  0  0  0  0  0  0  0
  190.7060  176.7570  146.9910 C   0  0  0  0  0  0  0  0  0  0  0  0
  187.0410  174.6320  136.5100 C   0  0  0  0  0  3  0  0  0  0  0  0
  187.8750  174.3660  135.5040 C   0  0  0  0  0  3  0  0  0  0  0  0
  188.3360  172.9790  135.2330 C   0  0  0  0  0  2  0  0  0  0  0  0
  189.5220  172.6810  136.1330 C   0  0  0  0  0  2  0  0  0  0  0  0
  190.3910  174.7580  135.0590 C   0  0  0  0  0  3  0  0  0  0  0  0
  192.6890  174.7150  136.6940 C   0  0  0  0  0  0  0  0  0  0  0  0
  192.4990  175.7470  135.7370 C   0  0  0  0  0  0  0  0  0  0  0  0
  193.4270  176.8190  135.5980 N   0  0  0  0  0  1  0  0  0  0  0  0
  191.6970  173.7230  136.8100 C   0  0  0  0  0  3  0  0  0  0  0  0
  190.5600  173.7390  135.9980 C   0  0  0  0  0  0  0  0  0  0  0  0
  191.3560  175.7560  134.9330 C   0  0  0  0  0  3  0  0  0  0  0  0
  194.2230  175.7140  138.4100 C   0  0  0  0  0  3  0  0  0  0  0  0
  193.8880  174.6310  137.5760 C   0  0  0  0  0  0  0  0  0  0  0  0
  196.1320  174.5030  139.2720 C   0  0  0  0  0  0  0  0  0  0  0  0
  195.3390  175.6510  139.2500 C   0  0  0  0  0  3  0  0  0  0  0  0
  195.8100  173.4180  138.4530 C   0  0  0  0  0  3  0  0  0  0  0  0
  194.6940  173.4820  137.6160 C   0  0  0  0  0  3  0  0  0  0  0  0
  197.2430  174.4450  140.1020 O   0  0  0  0  0  1  0  0  0  0  0  0
  185.0880  176.0690  137.0240 C   0  0  0  0  0  2  0  0  0  0  0  0
  184.3800  174.7100  137.0790 C   0  0  1  0  0  3  0  0  0  0  0  0
  184.8460  173.9090  138.1230 O   0  0  0  0  0  0  0  0  0  0  0  0
  184.1190  172.7190  138.0070 C   0  0  0  0  0  1  0  0  0  0  0  0
  182.8770  174.9000  137.1880 C   0  0  0  0  0  2  0  0  0  0  0  0
  182.5150  176.2620  136.7110 C   0  0  0  0  0  3  0  0  0  0  0  0
  182.1230  176.4490  135.4530 C   0  0  0  0  0  3  0  0  0  0  0  0
  181.7630  177.8150  134.9690 C   0  0  0  0  0  2  0  0  0  0  0  0
  181.3420  178.6440  136.0890 N   0  0  0  0  0  2  0  0  0  0  0  0
  179.9920  180.3630  135.1990 O   0  0  0  0  0  0  0  0  0  0  0  0
  179.9840  179.1060  135.8250 C   0  0  2  0  0  0  0  0  0  0  0  0
  179.4290  180.3120  136.4930 C   0  0  1  0  0  3  0  0  0  0  0  0
  179.1210  178.2290  135.1670 O   0  0  0  0  0  1  0  0  0  0  0  0
  180.3940  180.9560  137.4860 C   0  0  2  0  0  3  0  0  0  0  0  0
  179.8800  180.8690  138.9320 C   0  0  2  0  0  3  0  0  0  0  0  0
  180.6940  181.5920  139.8010 O   0  0  0  0  0  1  0  0  0  0  0  0
  179.7650  179.4300  139.4210 C   0  0  0  0  0  2  0  0  0  0  0  0
  180.8450  178.6650  138.9680 O   0  0  0  0  0  0  0  0  0  0  0  0
  180.7100  177.4430  139.6260 C   0  0  0  0  0  1  0  0  0  0  0  0
  179.7880  183.6830  137.7130 S   0  0  0  0  0  1  0  0  0  0  0  0
  180.8400  182.3540  137.0390 C   0  0  0  0  0  2  0  0  0  0  0  0
  1  2  1  6  0  0  0
  1 48  1  0  0  0  0
  3 12  1  0  0  0  0
  3  8  2  0  0  0  0
  4 21  1  1  0  0  0
  4  7  1  0  0  0  0
  5  7  1  0  0  0  0
  8  5  1  0  0  0  0
  9 11  1  0  0  0  0
  9  6  1  0  0  0  0
 10  3  1  0  0  0  0
 11  1  1  6  0  0  0
 11 10  1  0  0  0  0
 12  6  1  6  0  0  0
 12  4  1  0  0  0  0
 13  8  1  0  0  0  0
 13 14  1  0  0  0  0
 14 15  1  0  0  0  0
 15 16  1  0  0  0  0
 16 17  1  0  0  0  0
 17 19  1  0  0  0  0
 18 20  1  0  0  0  0
 19 18  1  0  0  0  0
 19 20  1  0  0  0  0
 21 22  1  0  0  0  0
 22 23  1  0  0  0  0
 23 25  1  0  0  0  0
 25 24  1  6  0  0  0
 27 25  1  6  0  0  0
 27 29  1  0  0  0  0
 27 28  1  0  0  0  0
 29 28  1  0  0  0  0
 29 26  2  0  0  0  0
 30  1  1  0  0  0  0
 31 30  2  0  0  0  0
 32 31  1  0  0  0  0
 32 33  1  0  0  0  0
 34 39  1  0  0  0  0
 35 38  1  0  0  0  0
 35 42  1  0  0  0  0
 36 35  2  0  0  0  0
 37 36  1  0  0  0  0
 39 33  1  0  0  0  0
 39 38  2  0  0  0  0
 40 34  2  0  0  0  0
 40 36  1  0  0  0  0
 41 44  1  0  0  0  0
 42 46  1  0  0  0  0
 42 41  2  0  0  0  0
 43 47  1  0  0  0  0
 44 43  2  0  0  0  0
 45 43  1  0  0  0  0
 46 45  2  0  0  0  0
 49 48  1  1  0  0  0
 49 52  1  0  0  0  0
 49 50  1  0  0  0  0
 51 50  1  0  0  0  0
 53 52  1  0  0  0  0
 54 53  2  0  0  0  0
 55 54  1  0  0  0  0
 55 56  1  0  0  0  0
 57 58  1  0  0  0  0
 57 59  1  0  0  0  0
 58 60  1  6  0  0  0
 58 56  1  0  0  0  0
 58 59  1  0  0  0  0
 59 61  1  1  0  0  0
 61 68  1  6  0  0  0
 61 62  1  0  0  0  0
 62 64  1  0  0  0  0
 62 63  1  1  0  0  0
 65 64  1  0  0  0  0
 65 66  1  0  0  0  0
 68 67  1  0  0  0  0
M  END
>  <MODEL>
9

>  <REMARK>
 VINA RESULT:      -4.2      2.807      8.651
  Name = 
  30 active torsions:
  status: ('A' for Active; 'I' for Inactive)
    1  A    between atoms: C_4  and  C_25
    2  A    between atoms: C_4  and  N_65
    3  A    between atoms: O_6  and  C_38
    4  A    between atoms: N_7  and  N_22
    5  A    between atoms: N_7  and  N_68
    6  A    between atoms: C_8  and  C_12
    7  A    between atoms: C_9  and  C_25
    8  A    between atoms: C_13  and  N_24
    9  A    between atoms: O_14  and  C_63
   10  A    between atoms: C_17  and  C_43
   11  A    between atoms: C_20  and  C_50
   12  A    between atoms: C_20  and  C_63
   13  A    between atoms: C_21  and  C_44
   14  A    between atoms: C_21  and  N_65
   15  A    between atoms: N_22  and  C_49
   16  A    between atoms: N_24  and  C_56
   17  A    between atoms: C_26  and  C_34
   18  A    between atoms: C_26  and  C_38
   19  A    between atoms: C_30  and  C_59
   20  A    between atoms: C_32  and  C_56
   21  A    between atoms: C_34  and  C_55
   22  A    between atoms: C_34  and  C_64
   23  A    between atoms: C_35  and  C_50
   24  A    between atoms: C_36  and  C_54
   25  A    between atoms: C_36  and  C_60
   26  A    between atoms: C_38  and  C_43
   27  A    between atoms: C_40  and  C_49
   28  A    between atoms: C_48  and  C_50
   29  A    between atoms: C_54  and  C_67
   30  A    between atoms: C_59  and  N_68
                            x       y       z     vdW  Elec       q    Type
                         _______ _______ _______ _____ _____    ______ ____

>  <TORSDO>
F 30

$$$$
