=
 OpenBabel10222418363D

 62 68  0  0  1  0  0  0  0  0999 V2000
  189.7280  176.8420  143.6350 C   0  0  0  0  0  0  0  0  0  0  0  0
  188.4270  177.1230  146.0700 O   0  0  0  0  0  0  0  0  0  0  0  0
  189.6770  177.2640  137.4540 C   0  0  1  0  0  3  0  0  0  0  0  0
  191.7260  176.2240  147.2460 C   0  0  0  0  0  0  0  0  0  0  0  0
  190.3230  176.4310  142.3180 C   0  0  0  0  0  2  0  0  0  0  0  0
  188.3120  176.5880  135.5800 C   0  0  0  0  0  2  0  0  0  0  0  0
  190.1470  176.9170  139.8440 C   0  0  0  0  0  0  0  0  0  0  0  0
  190.8480  176.7630  136.8950 O   0  0  0  0  0  0  0  0  0  0  0  0
  188.5290  177.6850  136.6150 C   0  0  1  0  0  3  0  0  0  0  0  0
  189.3510  177.2590  138.7350 C   0  0  0  0  0  0  0  0  0  0  0  0
  189.5360  176.9110  141.1220 C   0  0  0  0  0  0  0  0  0  0  0  0
  190.4900  176.7410  147.2830 C   0  0  0  0  0  3  0  0  0  0  0  0
  192.4520  176.0780  145.9670 C   0  0  0  0  0  3  0  0  0  0  0  0
  188.0160  177.5670  138.8680 C   0  0  0  0  0  0  0  0  0  0  0  0
  187.5590  177.3380  142.5130 O   0  0  0  0  0  0  0  0  0  0  0  0
  187.6720  177.2810  144.8980 C   0  0  0  0  0  0  0  0  0  0  0  0
  190.7670  175.9660  135.7110 C   0  0  1  0  0  3  0  0  0  0  0  0
  187.4500  177.7970  137.6690 C   0  0  1  0  0  3  0  0  0  0  0  0
  188.2810  177.1720  143.7010 C   0  0  0  0  0  0  0  0  0  0  0  0
  187.4040  177.5920  140.1250 C   0  0  0  0  0  3  0  0  0  0  0  0
  191.8560  176.3280  144.7980 C   0  0  0  0  0  3  0  0  0  0  0  0
  188.1680  177.2740  141.2580 C   0  0  0  0  0  0  0  0  0  0  0  0
  189.8430  177.3040  146.0500 C   0  0  1  0  0  3  0  0  0  0  0  0
  189.6110  176.3910  134.7820 C   0  0  0  0  0  2  0  0  0  0  0  0
  190.4500  176.7840  144.7680 C   0  0  0  0  0  0  0  0  0  0  0  0
  186.0190  178.2750  137.4270 C   0  0  2  0  0  0  0  0  0  0  0  0
  186.0510  179.3990  136.5860 O   0  0  0  0  0  1  0  0  0  0  0  0
  184.1710  177.8860  138.8400 N   0  0  0  0  0  0  0  0  0  0  0  0
  185.3690  178.6150  138.7100 N   0  0  0  0  0  0  0  0  0  0  0  0
  183.0790  178.7840  138.9550 C   0  0  0  0  0  3  0  0  0  0  0  0
  184.9190  179.9200  138.6830 O   0  0  0  0  0  0  0  0  0  0  0  0
  183.5470  180.0120  138.8550 C   0  0  0  0  0  2  0  0  0  0  0  0
  185.7760  175.8660  137.0320 O   0  0  0  0  0  1  0  0  0  0  0  0
  185.2440  177.1230  136.7380 C   0  0  2  0  0  3  0  0  0  0  0  0
  185.1440  177.3040  135.3240 O   0  0  0  0  0  0  0  0  0  0  0  0
  184.0330  176.8770  134.5940 C   0  0  0  0  0  3  0  0  0  0  0  0
  182.9290  176.6500  135.1600 O   0  0  0  0  0  0  0  0  0  0  0  0
  186.1980  177.5830  144.9760 C   0  0  0  0  0  2  0  0  0  0  0  0
  185.8500  179.0740  145.0800 C   0  0  1  0  0  3  0  0  0  0  0  0
  185.1490  179.4940  143.9470 O   0  0  0  0  0  0  0  0  0  0  0  0
  184.3050  178.4280  143.6350 C   0  0  0  0  0  1  0  0  0  0  0  0
  185.0610  179.3680  146.3520 C   0  0  0  0  0  2  0  0  0  0  0  0
  185.2020  178.2260  147.3430 C   0  0  0  0  0  1  0  0  0  0  0  0
  192.3870  175.7790  148.5070 C   0  0  0  0  0  2  0  0  0  0  0  0
  192.8320  176.9300  149.2780 N   0  0  0  0  0  2  0  0  0  0  0  0
  194.1220  176.6960  149.6070 O   0  0  0  0  0  1  0  0  0  0  0  0
  192.1120  175.9360  135.0000 C   0  0  0  0  0  2  0  0  0  0  0  0
  193.2590  176.1420  135.9750 C   0  0  0  0  0  2  0  0  0  0  0  0
  194.2420  174.9830  135.9040 C   0  0  1  0  0  3  0  0  0  0  0  0
  196.1940  176.3090  135.6010 O   0  0  0  0  0  0  0  0  0  0  0  0
  195.6400  175.4020  136.2750 C   0  0  0  0  0  0  0  0  0  0  0  0
  196.3690  174.7870  137.2980 O   0  0  0  0  0  0  0  0  0  0  0  0
  197.7880  174.7430  137.3320 C   0  0  2  0  0  3  0  0  0  0  0  0
  198.2540  173.3010  137.3770 C   0  0  0  0  0  1  0  0  0  0  0  0
  198.2420  175.4090  138.4660 O   0  0  0  0  0  1  0  0  0  0  0  0
  193.8100  173.9510  136.7420 O   0  0  0  0  0  0  0  0  0  0  0  0
  193.8590  172.8010  135.9510 C   0  0  0  0  0  2  0  0  0  0  0  0
  194.6370  171.7200  136.6740 C   0  0  0  0  0  1  0  0  0  0  0  0
  191.6120  176.6100  139.6810 C   0  0  0  0  0  2  0  0  0  0  0  0
  192.4800  177.7160  140.2690 C   0  0  0  0  0  2  0  0  0  0  0  0
  193.9470  177.4540  139.9940 C   0  0  0  0  0  2  0  0  0  0  0  0
  194.0780  176.2660  139.2760 O   0  0  0  0  0  1  0  0  0  0  0  0
  1 19  1  0  0  0  0
  1 25  2  0  0  0  0
  3  8  1  6  0  0  0
  3 10  1  0  0  0  0
  4 12  2  0  0  0  0
  4 44  1  0  0  0  0
  5  1  1  0  0  0  0
  7 11  1  0  0  0  0
  9  6  1  6  0  0  0
  9  3  1  0  0  0  0
  9 18  1  0  0  0  0
 10 14  1  0  0  0  0
 10  7  2  0  0  0  0
 11 22  2  0  0  0  0
 11  5  1  0  0  0  0
 13  4  1  0  0  0  0
 14 20  2  0  0  0  0
 15 19  1  0  0  0  0
 16 38  1  0  0  0  0
 16  2  1  0  0  0  0
 17 47  1  6  0  0  0
 17  8  1  0  0  0  0
 18 26  1  1  0  0  0
 18 14  1  0  0  0  0
 19 16  2  0  0  0  0
 20 22  1  0  0  0  0
 21 13  2  0  0  0  0
 22 15  1  0  0  0  0
 23  2  1  0  0  0  0
 23 12  1  1  0  0  0
 24  6  1  0  0  0  0
 24 17  1  0  0  0  0
 25 21  1  0  0  0  0
 25 23  1  0  0  0  0
 26 27  1  6  0  0  0
 26 29  1  0  0  0  0
 28 30  2  0  0  0  0
 29 28  1  0  0  0  0
 31 29  1  0  0  0  0
 31 32  1  0  0  0  0
 32 30  1  0  0  0  0
 34 33  1  6  0  0  0
 34 26  1  0  0  0  0
 35 34  1  0  0  0  0
 36 37  2  0  0  0  0
 36 35  1  0  0  0  0
 39 38  1  6  0  0  0
 39 42  1  0  0  0  0
 40 39  1  0  0  0  0
 41 40  1  0  0  0  0
 42 43  1  0  0  0  0
 44 45  1  0  0  0  0
 45 46  1  0  0  0  0
 47 48  1  0  0  0  0
 49 48  1  1  0  0  0
 49 51  1  0  0  0  0
 49 56  1  0  0  0  0
 50 51  2  0  0  0  0
 51 52  1  0  0  0  0
 52 53  1  0  0  0  0
 53 54  1  1  0  0  0
 53 55  1  0  0  0  0
 57 58  1  0  0  0  0
 57 56  1  0  0  0  0
 59  7  1  0  0  0  0
 59 60  1  0  0  0  0
 61 60  1  0  0  0  0
 62 61  1  0  0  0  0
M  END
>  <MODEL>
1

>  <REMARK>
 VINA RESULT:      -6.3      0.000      0.000
  Name = 
  22 active torsions:
  status: ('A' for Active; 'I' for Inactive)
    1  A    between atoms: C_1  and  C_12
    2  A    between atoms: C_1  and  C_19
    3  A    between atoms: C_2  and  C_36
    4  A    between atoms: C_2  and  C_49
    5  A    between atoms: N_4  and  C_23
    6  A    between atoms: O_5  and  C_53
    7  A    between atoms: C_8  and  C_12
    8  A    between atoms: C_11  and  O_62
    9  A    between atoms: O_13  and  C_41
   10  A    between atoms: O_13  and  C_54
   11  A    between atoms: N_14  and  C_24
   12  A    between atoms: C_15  and  C_23
   13  A    between atoms: C_24  and  C_38
   14  A    between atoms: C_24  and  C_54
   15  A    between atoms: C_34  and  C_58
   16  A    between atoms: C_35  and  O_50
   17  A    between atoms: C_36  and  C_48
   18  A    between atoms: C_36  and  O_50
   19  A    between atoms: C_37  and  C_49
   20  A    between atoms: C_39  and  C_53
   21  A    between atoms: C_48  and  O_62
   22  A    between atoms: C_53  and  C_58
                            x       y       z     vdW  Elec       q    Type
                         _______ _______ _______ _____ _____    ______ ____

>  <TORSDO>
F 22

$$$$
=
 OpenBabel10222418363D

 62 68  0  0  1  0  0  0  0  0999 V2000
  184.5240  178.2720  138.9610 C   0  0  0  0  0  0  0  0  0  0  0  0
  182.0830  179.1030  139.9860 O   0  0  0  0  0  0  0  0  0  0  0  0
  190.4860  176.8300  139.8260 C   0  0  1  0  0  3  0  0  0  0  0  0
  181.1160  178.4690  136.5590 C   0  0  0  0  0  0  0  0  0  0  0  0
  185.8970  178.0960  138.3760 C   0  0  0  0  0  2  0  0  0  0  0  0
  192.4600  177.7390  140.8820 C   0  0  0  0  0  2  0  0  0  0  0  0
  188.2190  177.3240  139.0100 C   0  0  0  0  0  0  0  0  0  0  0  0
  191.1370  176.5850  138.6210 O   0  0  0  0  0  0  0  0  0  0  0  0
  191.2220  176.8810  141.1140 C   0  0  1  0  0  3  0  0  0  0  0  0
  189.2340  177.2220  139.9800 C   0  0  0  0  0  0  0  0  0  0  0  0
  186.9690  177.8560  139.4130 C   0  0  0  0  0  0  0  0  0  0  0  0
  180.9740  178.6390  137.8820 C   0  0  0  0  0  3  0  0  0  0  0  0
  182.3980  178.0110  135.9850 C   0  0  0  0  0  3  0  0  0  0  0  0
  189.0400  177.6360  141.2790 C   0  0  0  0  0  0  0  0  0  0  0  0
  185.5200  178.7070  141.2020 O   0  0  0  0  0  0  0  0  0  0  0  0
  183.1980  179.1280  140.8380 C   0  0  0  0  0  0  0  0  0  0  0  0
  192.4590  177.0940  138.4290 C   0  0  1  0  0  3  0  0  0  0  0  0
  190.1670  177.5010  142.0030 C   0  0  1  0  0  3  0  0  0  0  0  0
  184.3920  178.7090  140.3740 C   0  0  0  0  0  0  0  0  0  0  0  0
  187.8050  178.1380  141.6990 C   0  0  0  0  0  3  0  0  0  0  0  0
  183.4910  177.8790  136.7410 C   0  0  0  0  0  3  0  0  0  0  0  0
  186.7620  178.2390  140.7660 C   0  0  0  0  0  0  0  0  0  0  0  0
  182.0650  178.2530  138.8390 C   0  0  1  0  0  3  0  0  0  0  0  0
  193.2810  177.1290  139.7340 C   0  0  0  0  0  2  0  0  0  0  0  0
  183.4260  178.1710  138.1900 C   0  0  0  0  0  0  0  0  0  0  0  0
  190.3060  177.7490  143.5040 C   0  0  2  0  0  0  0  0  0  0  0  0
  190.1810  179.1260  143.7500 O   0  0  0  0  0  1  0  0  0  0  0  0
  191.6130  175.8520  144.0120 N   0  0  0  0  0  0  0  0  0  0  0  0
  191.6150  177.2610  143.9850 N   0  0  0  0  0  0  0  0  0  0  0  0
  191.8460  175.4020  145.3360 C   0  0  0  0  0  3  0  0  0  0  0  0
  191.7810  177.5800  145.3180 O   0  0  0  0  0  0  0  0  0  0  0  0
  191.9430  176.4600  146.1170 C   0  0  0  0  0  2  0  0  0  0  0  0
  188.6300  175.9590  143.4320 O   0  0  0  0  0  1  0  0  0  0  0  0
  189.1660  176.9800  144.2200 C   0  0  2  0  0  3  0  0  0  0  0  0
  188.1300  177.8490  144.6820 O   0  0  0  0  0  0  0  0  0  0  0  0
  187.7600  177.9190  146.0270 C   0  0  0  0  0  3  0  0  0  0  0  0
  186.6680  177.4320  146.4280 O   0  0  0  0  0  0  0  0  0  0  0  0
  183.0600  179.6030  142.2610 C   0  0  0  0  0  2  0  0  0  0  0  0
  182.1970  178.7080  143.1590 C   0  0  1  0  0  3  0  0  0  0  0  0
  182.6720  178.7270  144.4720 O   0  0  0  0  0  0  0  0  0  0  0  0
  184.0620  178.7230  144.3480 C   0  0  0  0  0  1  0  0  0  0  0  0
  180.7290  179.1210  143.1030 C   0  0  0  0  0  2  0  0  0  0  0  0
  179.9060  178.0670  142.3850 C   0  0  0  0  0  1  0  0  0  0  0  0
  179.9730  178.7520  135.6440 C   0  0  0  0  0  2  0  0  0  0  0  0
  180.3810  179.6740  134.5950 N   0  0  0  0  0  2  0  0  0  0  0  0
  180.3330  180.9130  135.1310 O   0  0  0  0  0  1  0  0  0  0  0  0
  193.1610  176.3360  137.3130 C   0  0  0  0  0  2  0  0  0  0  0  0
  193.8570  175.0910  137.8390 C   0  0  0  0  0  2  0  0  0  0  0  0
  194.3030  174.1980  136.6920 C   0  0  1  0  0  3  0  0  0  0  0  0
  196.1330  173.2690  137.8960 O   0  0  0  0  0  0  0  0  0  0  0  0
  195.7480  173.7920  136.8190 C   0  0  0  0  0  0  0  0  0  0  0  0
  196.6920  174.0260  135.8120 O   0  0  0  0  0  0  0  0  0  0  0  0
  197.2430  175.3050  135.5370 C   0  0  2  0  0  3  0  0  0  0  0  0
  198.4490  175.1580  134.6300 C   0  0  0  0  0  1  0  0  0  0  0  0
  197.6360  175.9030  136.7310 O   0  0  0  0  0  1  0  0  0  0  0  0
  193.4880  173.0650  136.6350 O   0  0  0  0  0  0  0  0  0  0  0  0
  192.7230  173.2280  135.4770 C   0  0  0  0  0  2  0  0  0  0  0  0
  191.2530  173.0960  135.8180 C   0  0  0  0  0  1  0  0  0  0  0  0
  188.4410  176.8410  137.6020 C   0  0  0  0  0  2  0  0  0  0  0  0
  188.8880  177.9770  136.6900 C   0  0  0  0  0  2  0  0  0  0  0  0
  189.2300  177.4560  135.3080 C   0  0  0  0  0  2  0  0  0  0  0  0
  190.1520  176.4170  135.4220 O   0  0  0  0  0  1  0  0  0  0  0  0
  1 19  1  0  0  0  0
  2 16  1  0  0  0  0
  3  8  1  6  0  0  0
  3 10  1  0  0  0  0
  3  9  1  0  0  0  0
  4 12  2  0  0  0  0
  5  1  1  0  0  0  0
  5 11  1  0  0  0  0
  7 11  2  0  0  0  0
  7 10  1  0  0  0  0
  9  6  1  6  0  0  0
  9 18  1  0  0  0  0
 10 14  2  0  0  0  0
 11 22  1  0  0  0  0
 13  4  1  0  0  0  0
 13 21  2  0  0  0  0
 14 20  1  0  0  0  0
 14 18  1  0  0  0  0
 16 38  1  0  0  0  0
 17 47  1  6  0  0  0
 17  8  1  0  0  0  0
 17 24  1  0  0  0  0
 18 26  1  1  0  0  0
 19 16  2  0  0  0  0
 19 15  1  0  0  0  0
 21 25  1  0  0  0  0
 22 15  1  0  0  0  0
 22 20  2  0  0  0  0
 23 12  1  6  0  0  0
 23  2  1  0  0  0  0
 24  6  1  0  0  0  0
 25 23  1  0  0  0  0
 25  1  2  0  0  0  0
 26 27  1  1  0  0  0
 26 29  1  0  0  0  0
 26 34  1  0  0  0  0
 28 30  2  0  0  0  0
 29 28  1  0  0  0  0
 29 31  1  0  0  0  0
 30 32  1  0  0  0  0
 31 32  1  0  0  0  0
 34 33  1  6  0  0  0
 34 35  1  0  0  0  0
 35 36  1  0  0  0  0
 36 37  2  0  0  0  0
 39 38  1  6  0  0  0
 39 40  1  0  0  0  0
 41 40  1  0  0  0  0
 42 39  1  0  0  0  0
 43 42  1  0  0  0  0
 44  4  1  0  0  0  0
 45 46  1  0  0  0  0
 45 44  1  0  0  0  0
 47 48  1  0  0  0  0
 49 51  1  0  0  0  0
 49 48  1  1  0  0  0
 51 50  2  0  0  0  0
 52 51  1  0  0  0  0
 53 54  1  6  0  0  0
 53 52  1  0  0  0  0
 53 55  1  0  0  0  0
 56 49  1  0  0  0  0
 57 58  1  0  0  0  0
 57 56  1  0  0  0  0
 59  7  1  0  0  0  0
 60 59  1  0  0  0  0
 61 62  1  0  0  0  0
 61 60  1  0  0  0  0
M  END
>  <MODEL>
2

>  <REMARK>
 VINA RESULT:      -5.9      2.481      8.013
  Name = 
  22 active torsions:
  status: ('A' for Active; 'I' for Inactive)
    1  A    between atoms: C_1  and  C_12
    2  A    between atoms: C_1  and  C_19
    3  A    between atoms: C_2  and  C_36
    4  A    between atoms: C_2  and  C_49
    5  A    between atoms: N_4  and  C_23
    6  A    between atoms: O_5  and  C_53
    7  A    between atoms: C_8  and  C_12
    8  A    between atoms: C_11  and  O_62
    9  A    between atoms: O_13  and  C_41
   10  A    between atoms: O_13  and  C_54
   11  A    between atoms: N_14  and  C_24
   12  A    between atoms: C_15  and  C_23
   13  A    between atoms: C_24  and  C_38
   14  A    between atoms: C_24  and  C_54
   15  A    between atoms: C_34  and  C_58
   16  A    between atoms: C_35  and  O_50
   17  A    between atoms: C_36  and  C_48
   18  A    between atoms: C_36  and  O_50
   19  A    between atoms: C_37  and  C_49
   20  A    between atoms: C_39  and  C_53
   21  A    between atoms: C_48  and  O_62
   22  A    between atoms: C_53  and  C_58
                            x       y       z     vdW  Elec       q    Type
                         _______ _______ _______ _____ _____    ______ ____

>  <TORSDO>
F 22

$$$$
=
 OpenBabel10222418363D

 62 68  0  0  1  0  0  0  0  0999 V2000
  188.9380  177.2350  144.3510 C   0  0  0  0  0  0  0  0  0  0  0  0
  188.0520  177.1330  146.9780 O   0  0  0  0  0  0  0  0  0  0  0  0
  187.7980  178.2550  138.3480 C   0  0  1  0  0  3  0  0  0  0  0  0
  191.5710  176.4840  147.5020 C   0  0  0  0  0  0  0  0  0  0  0  0
  189.3360  177.0220  142.9180 C   0  0  0  0  0  2  0  0  0  0  0  0
  186.2010  177.6230  136.6500 C   0  0  0  0  0  2  0  0  0  0  0  0
  188.6980  177.7280  140.5760 C   0  0  0  0  0  0  0  0  0  0  0  0
  188.8970  177.9410  137.5550 O   0  0  0  0  0  0  0  0  0  0  0  0
  186.4900  178.6300  137.7560 C   0  0  1  0  0  3  0  0  0  0  0  0
  187.6970  178.0890  139.6550 C   0  0  0  0  0  0  0  0  0  0  0  0
  188.3160  177.5300  141.9260 C   0  0  0  0  0  0  0  0  0  0  0  0
  190.3170  176.8580  147.7950 C   0  0  0  0  0  3  0  0  0  0  0  0
  192.0770  176.5430  146.1150 C   0  0  0  0  0  3  0  0  0  0  0  0
  186.3810  178.2360  140.0340 C   0  0  0  0  0  0  0  0  0  0  0  0
  186.5750  177.6020  143.6540 O   0  0  0  0  0  0  0  0  0  0  0  0
  187.0970  177.3230  145.9680 C   0  0  0  0  0  0  0  0  0  0  0  0
  188.6880  177.2600  136.3150 C   0  0  1  0  0  3  0  0  0  0  0  0
  185.6020  178.5200  138.9750 C   0  0  1  0  0  3  0  0  0  0  0  0
  187.5000  177.3980  144.6840 C   0  0  0  0  0  0  0  0  0  0  0  0
  185.9930  178.0710  141.3670 C   0  0  0  0  0  3  0  0  0  0  0  0
  191.2720  176.8420  145.0920 C   0  0  0  0  0  3  0  0  0  0  0  0
  186.9650  177.7280  142.3180 C   0  0  0  0  0  0  0  0  0  0  0  0
  189.4210  177.4670  146.7540 C   0  0  1  0  0  3  0  0  0  0  0  0
  187.3570  177.6470  135.6370 C   0  0  0  0  0  2  0  0  0  0  0  0
  189.8450  177.1440  145.3400 C   0  0  0  0  0  0  0  0  0  0  0  0
  184.1130  178.8620  139.0210 C   0  0  2  0  0  0  0  0  0  0  0  0
  183.9690  180.2580  139.0760 O   0  0  0  0  0  1  0  0  0  0  0  0
  182.3060  177.5650  139.8060 N   0  0  0  0  0  0  0  0  0  0  0  0
  183.4800  178.2370  140.2010 N   0  0  0  0  0  0  0  0  0  0  0  0
  181.1920  178.1180  140.4870 C   0  0  0  0  0  3  0  0  0  0  0  0
  182.9920  179.2090  141.0500 O   0  0  0  0  0  0  0  0  0  0  0  0
  181.6220  179.1150  141.2350 C   0  0  0  0  0  2  0  0  0  0  0  0
  182.2360  178.9270  137.4420 O   0  0  0  0  0  1  0  0  0  0  0  0
  183.4590  178.3150  137.7260 C   0  0  2  0  0  3  0  0  0  0  0  0
  183.3130  176.8940  137.7500 O   0  0  0  0  0  0  0  0  0  0  0  0
  182.7530  176.1840  136.6850 C   0  0  0  0  0  3  0  0  0  0  0  0
  183.2160  176.2900  135.5160 O   0  0  0  0  0  0  0  0  0  0  0  0
  185.6360  177.4550  146.3140 C   0  0  0  0  0  2  0  0  0  0  0  0
  185.0790  178.8810  146.2240 C   0  0  1  0  0  3  0  0  0  0  0  0
  186.0560  179.8130  146.5820 O   0  0  0  0  0  0  0  0  0  0  0  0
  186.0860  179.7790  147.9760 C   0  0  0  0  0  1  0  0  0  0  0  0
  184.5300  179.1720  144.8310 C   0  0  0  0  0  2  0  0  0  0  0  0
  183.0410  178.8840  144.7740 C   0  0  0  0  0  1  0  0  0  0  0  0
  192.4740  175.9910  148.5810 C   0  0  0  0  0  2  0  0  0  0  0  0
  193.5310  176.9570  148.8360 N   0  0  0  0  0  2  0  0  0  0  0  0
  193.0340  177.8450  149.7260 O   0  0  0  0  0  1  0  0  0  0  0  0
  189.8890  177.4450  135.4000 C   0  0  0  0  0  2  0  0  0  0  0  0
  190.1730  176.1870  134.5960 C   0  0  0  0  0  2  0  0  0  0  0  0
  191.0810  175.2450  135.3710 C   0  0  1  0  0  3  0  0  0  0  0  0
  190.3450  173.6930  137.0170 O   0  0  0  0  0  0  0  0  0  0  0  0
  190.3660  173.9900  135.7950 C   0  0  0  0  0  0  0  0  0  0  0  0
  189.7750  173.1090  134.8820 O   0  0  0  0  0  0  0  0  0  0  0  0
  188.3790  173.0690  134.6250 C   0  0  2  0  0  3  0  0  0  0  0  0
  187.6360  173.8070  135.7220 C   0  0  0  0  0  1  0  0  0  0  0  0
  187.9550  171.7430  134.5940 O   0  0  0  0  0  1  0  0  0  0  0  0
  192.1980  174.9250  134.5940 O   0  0  0  0  0  0  0  0  0  0  0  0
  193.1160  175.9480  134.8430 C   0  0  0  0  0  2  0  0  0  0  0  0
  193.9520  175.5940  136.0560 C   0  0  0  0  0  1  0  0  0  0  0  0
  190.1350  177.5980  140.1470 C   0  0  0  0  0  2  0  0  0  0  0  0
  190.4260  176.2090  139.5930 C   0  0  0  0  0  2  0  0  0  0  0  0
  191.6790  176.2210  138.7390 C   0  0  0  0  0  2  0  0  0  0  0  0
  192.6450  177.0190  139.3470 O   0  0  0  0  0  1  0  0  0  0  0  0
  1 19  1  0  0  0  0
  1 25  2  0  0  0  0
  3  8  1  6  0  0  0
  3 10  1  0  0  0  0
  4 12  2  0  0  0  0
  4 44  1  0  0  0  0
  5  1  1  0  0  0  0
  7 11  1  0  0  0  0
  9  6  1  6  0  0  0
  9  3  1  0  0  0  0
  9 18  1  0  0  0  0
 10 14  1  0  0  0  0
 10  7  2  0  0  0  0
 11 22  2  0  0  0  0
 11  5  1  0  0  0  0
 13  4  1  0  0  0  0
 14 20  2  0  0  0  0
 15 19  1  0  0  0  0
 16 38  1  0  0  0  0
 16  2  1  0  0  0  0
 17 47  1  6  0  0  0
 17  8  1  0  0  0  0
 18 26  1  1  0  0  0
 18 14  1  0  0  0  0
 19 16  2  0  0  0  0
 20 22  1  0  0  0  0
 21 25  1  0  0  0  0
 21 13  2  0  0  0  0
 22 15  1  0  0  0  0
 23  2  1  0  0  0  0
 23 12  1  1  0  0  0
 24 17  1  0  0  0  0
 24  6  1  0  0  0  0
 25 23  1  0  0  0  0
 26 27  1  1  0  0  0
 26 29  1  0  0  0  0
 28 29  1  0  0  0  0
 28 30  2  0  0  0  0
 29 31  1  0  0  0  0
 30 32  1  0  0  0  0
 31 32  1  0  0  0  0
 34 33  1  1  0  0  0
 34 35  1  0  0  0  0
 34 26  1  0  0  0  0
 36 35  1  0  0  0  0
 37 36  2  0  0  0  0
 39 42  1  6  0  0  0
 39 38  1  0  0  0  0
 39 40  1  0  0  0  0
 40 41  1  0  0  0  0
 43 42  1  0  0  0  0
 44 45  1  0  0  0  0
 45 46  1  0  0  0  0
 48 47  1  0  0  0  0
 49 48  1  6  0  0  0
 49 51  1  0  0  0  0
 51 50  2  0  0  0  0
 52 51  1  0  0  0  0
 53 52  1  0  0  0  0
 53 54  1  1  0  0  0
 55 53  1  0  0  0  0
 56 57  1  0  0  0  0
 56 49  1  0  0  0  0
 57 58  1  0  0  0  0
 59  7  1  0  0  0  0
 60 59  1  0  0  0  0
 61 62  1  0  0  0  0
 61 60  1  0  0  0  0
M  END
>  <MODEL>
3

>  <REMARK>
 VINA RESULT:      -5.5      2.055      3.567
  Name = 
  22 active torsions:
  status: ('A' for Active; 'I' for Inactive)
    1  A    between atoms: C_1  and  C_12
    2  A    between atoms: C_1  and  C_19
    3  A    between atoms: C_2  and  C_36
    4  A    between atoms: C_2  and  C_49
    5  A    between atoms: N_4  and  C_23
    6  A    between atoms: O_5  and  C_53
    7  A    between atoms: C_8  and  C_12
    8  A    between atoms: C_11  and  O_62
    9  A    between atoms: O_13  and  C_41
   10  A    between atoms: O_13  and  C_54
   11  A    between atoms: N_14  and  C_24
   12  A    between atoms: C_15  and  C_23
   13  A    between atoms: C_24  and  C_38
   14  A    between atoms: C_24  and  C_54
   15  A    between atoms: C_34  and  C_58
   16  A    between atoms: C_35  and  O_50
   17  A    between atoms: C_36  and  C_48
   18  A    between atoms: C_36  and  O_50
   19  A    between atoms: C_37  and  C_49
   20  A    between atoms: C_39  and  C_53
   21  A    between atoms: C_48  and  O_62
   22  A    between atoms: C_53  and  C_58
                            x       y       z     vdW  Elec       q    Type
                         _______ _______ _______ _____ _____    ______ ____

>  <TORSDO>
F 22

$$$$
=
 OpenBabel10222418363D

 62 68  0  0  1  0  0  0  0  0999 V2000
  188.6710  177.2690  144.1800 C   0  0  0  0  0  0  0  0  0  0  0  0
  188.0030  177.4050  146.8700 O   0  0  0  0  0  0  0  0  0  0  0  0
  187.0960  177.9560  138.2290 C   0  0  1  0  0  3  0  0  0  0  0  0
  191.5070  176.5570  147.1590 C   0  0  0  0  0  0  0  0  0  0  0  0
  188.9330  176.9340  142.7400 C   0  0  0  0  0  2  0  0  0  0  0  0
  185.3250  177.3200  136.7140 C   0  0  0  0  0  2  0  0  0  0  0  0
  188.1450  177.5210  140.4110 C   0  0  0  0  0  0  0  0  0  0  0  0
  188.1020  177.5160  137.3760 O   0  0  0  0  0  0  0  0  0  0  0  0
  185.7680  178.3780  137.7170 C   0  0  1  0  0  3  0  0  0  0  0  0
  187.0940  177.8860  139.5480 C   0  0  0  0  0  0  0  0  0  0  0  0
  187.8660  177.4410  141.7980 C   0  0  0  0  0  0  0  0  0  0  0  0
  190.3080  177.0340  147.5220 C   0  0  0  0  0  3  0  0  0  0  0  0
  191.8980  176.4890  145.7360 C   0  0  0  0  0  3  0  0  0  0  0  0
  185.8270  178.1470  140.0190 C   0  0  0  0  0  0  0  0  0  0  0  0
  186.2840  177.7470  143.6490 O   0  0  0  0  0  0  0  0  0  0  0  0
  186.9800  177.5900  145.9280 C   0  0  0  0  0  0  0  0  0  0  0  0
  187.7480  176.7680  136.2090 C   0  0  1  0  0  3  0  0  0  0  0  0
  184.9800  178.4110  139.0070 C   0  0  1  0  0  3  0  0  0  0  0  0
  187.2790  177.5520  144.6140 C   0  0  0  0  0  0  0  0  0  0  0  0
  185.5430  178.0990  141.3870 C   0  0  0  0  0  3  0  0  0  0  0  0
  191.0290  176.7710  144.7610 C   0  0  0  0  0  3  0  0  0  0  0  0
  186.5680  177.7560  142.2810 C   0  0  0  0  0  0  0  0  0  0  0  0
  189.3670  177.6310  146.5140 C   0  0  1  0  0  3  0  0  0  0  0  0
  186.3920  177.1980  135.6130 C   0  0  0  0  0  2  0  0  0  0  0  0
  189.6500  177.1850  145.0990 C   0  0  0  0  0  0  0  0  0  0  0  0
  183.5240  178.8550  139.1460 C   0  0  2  0  0  0  0  0  0  0  0  0
  183.2620  179.1350  140.4980 O   0  0  0  0  0  1  0  0  0  0  0  0
  181.4120  177.8340  139.3880 N   0  0  0  0  0  2  0  0  0  0  0  0
  182.6170  177.7960  138.6590 N   0  0  0  0  0  0  0  0  0  0  0  0
  181.2200  176.5950  140.0520 C   0  0  0  0  0  3  0  0  0  0  0  0
  183.1200  176.5520  138.9840 O   0  0  0  0  0  0  0  0  0  0  0  0
  182.2630  175.8300  139.8000 C   0  0  0  0  0  3  0  0  0  0  0  0
  183.9030  181.2650  138.8920 O   0  0  0  0  0  1  0  0  0  0  0  0
  183.3350  180.1370  138.2960 C   0  0  2  0  0  3  0  0  0  0  0  0
  181.9640  180.3800  137.9760 O   0  0  0  0  0  0  0  0  0  0  0  0
  181.2450  181.4420  138.5290 C   0  0  0  0  0  3  0  0  0  0  0  0
  180.6570  181.3230  139.6390 O   0  0  0  0  0  0  0  0  0  0  0  0
  185.5650  177.8440  146.3780 C   0  0  0  0  0  2  0  0  0  0  0  0
  184.7320  178.7140  145.4290 C   0  0  1  0  0  3  0  0  0  0  0  0
  183.3900  178.7160  145.8150 O   0  0  0  0  0  0  0  0  0  0  0  0
  182.6740  178.7480  144.6180 C   0  0  0  0  0  1  0  0  0  0  0  0
  185.2820  180.1350  145.3570 C   0  0  0  0  0  2  0  0  0  0  0  0
  185.2390  180.6520  143.9300 C   0  0  0  0  0  1  0  0  0  0  0  0
  192.4650  176.0790  148.1960 C   0  0  0  0  0  2  0  0  0  0  0  0
  192.7680  177.1470  149.1360 N   0  0  0  0  0  2  0  0  0  0  0  0
  194.0270  176.9270  149.5760 O   0  0  0  0  0  1  0  0  0  0  0  0
  188.8770  176.8100  135.1910 C   0  0  0  0  0  2  0  0  0  0  0  0
  189.9890  175.8400  135.5560 C   0  0  0  0  0  2  0  0  0  0  0  0
  189.4330  174.6400  136.3080 C   0  0  1  0  0  3  0  0  0  0  0  0
  190.3060  172.7700  135.1240 O   0  0  0  0  0  0  0  0  0  0  0  0
  189.2800  173.4350  135.4180 C   0  0  0  0  0  0  0  0  0  0  0  0
  188.0530  173.0580  134.8600 O   0  0  0  0  0  0  0  0  0  0  0  0
  187.4710  171.7750  135.0430 C   0  0  2  0  0  3  0  0  0  0  0  0
  185.9600  171.8950  135.0370 C   0  0  0  0  0  1  0  0  0  0  0  0
  187.8870  171.2520  136.2640 O   0  0  0  0  0  1  0  0  0  0  0  0
  190.2650  174.3390  137.3900 O   0  0  0  0  0  0  0  0  0  0  0  0
  191.3260  175.2420  137.2920 C   0  0  0  0  0  2  0  0  0  0  0  0
  192.6340  174.5150  137.5290 C   0  0  0  0  0  1  0  0  0  0  0  0
  189.5300  177.2660  139.8800 C   0  0  0  0  0  2  0  0  0  0  0  0
  190.5550  178.1800  140.5400 C   0  0  0  0  0  2  0  0  0  0  0  0
  191.8110  177.4110  140.8990 C   0  0  0  0  0  2  0  0  0  0  0  0
  192.6360  177.3240  139.7790 O   0  0  0  0  0  1  0  0  0  0  0  0
  1 19  1  0  0  0  0
  1 25  2  0  0  0  0
  3  8  1  6  0  0  0
  3 10  1  0  0  0  0
  4 12  2  0  0  0  0
  4 44  1  0  0  0  0
  5  1  1  0  0  0  0
  7 11  1  0  0  0  0
  9  6  1  6  0  0  0
  9  3  1  0  0  0  0
  9 18  1  0  0  0  0
 10 14  1  0  0  0  0
 10  7  2  0  0  0  0
 11 22  2  0  0  0  0
 11  5  1  0  0  0  0
 13  4  1  0  0  0  0
 14 20  2  0  0  0  0
 15 19  1  0  0  0  0
 16 38  1  0  0  0  0
 16  2  1  0  0  0  0
 17 47  1  6  0  0  0
 17  8  1  0  0  0  0
 18 26  1  1  0  0  0
 18 14  1  0  0  0  0
 19 16  2  0  0  0  0
 20 22  1  0  0  0  0
 21 25  1  0  0  0  0
 21 13  2  0  0  0  0
 22 15  1  0  0  0  0
 23  2  1  0  0  0  0
 23 12  1  1  0  0  0
 24 17  1  0  0  0  0
 24  6  1  0  0  0  0
 25 23  1  0  0  0  0
 26 27  1  1  0  0  0
 28 30  1  0  0  0  0
 29 31  1  0  0  0  0
 29 26  1  0  0  0  0
 29 28  1  0  0  0  0
 31 32  1  0  0  0  0
 32 30  2  0  0  0  0
 34 33  1  1  0  0  0
 34 26  1  0  0  0  0
 35 34  1  0  0  0  0
 35 36  1  0  0  0  0
 36 37  2  0  0  0  0
 39 42  1  1  0  0  0
 39 40  1  0  0  0  0
 39 38  1  0  0  0  0
 41 40  1  0  0  0  0
 43 42  1  0  0  0  0
 44 45  1  0  0  0  0
 45 46  1  0  0  0  0
 47 48  1  0  0  0  0
 49 48  1  6  0  0  0
 49 56  1  0  0  0  0
 50 51  2  0  0  0  0
 51 49  1  0  0  0  0
 52 53  1  0  0  0  0
 52 51  1  0  0  0  0
 53 54  1  1  0  0  0
 53 55  1  0  0  0  0
 57 56  1  0  0  0  0
 57 58  1  0  0  0  0
 59  7  1  0  0  0  0
 59 60  1  0  0  0  0
 60 61  1  0  0  0  0
 62 61  1  0  0  0  0
M  END
>  <MODEL>
4

>  <REMARK>
 VINA RESULT:      -5.4      2.334      4.192
  Name = 
  22 active torsions:
  status: ('A' for Active; 'I' for Inactive)
    1  A    between atoms: C_1  and  C_12
    2  A    between atoms: C_1  and  C_19
    3  A    between atoms: C_2  and  C_36
    4  A    between atoms: C_2  and  C_49
    5  A    between atoms: N_4  and  C_23
    6  A    between atoms: O_5  and  C_53
    7  A    between atoms: C_8  and  C_12
    8  A    between atoms: C_11  and  O_62
    9  A    between atoms: O_13  and  C_41
   10  A    between atoms: O_13  and  C_54
   11  A    between atoms: N_14  and  C_24
   12  A    between atoms: C_15  and  C_23
   13  A    between atoms: C_24  and  C_38
   14  A    between atoms: C_24  and  C_54
   15  A    between atoms: C_34  and  C_58
   16  A    between atoms: C_35  and  O_50
   17  A    between atoms: C_36  and  C_48
   18  A    between atoms: C_36  and  O_50
   19  A    between atoms: C_37  and  C_49
   20  A    between atoms: C_39  and  C_53
   21  A    between atoms: C_48  and  O_62
   22  A    between atoms: C_53  and  C_58
                            x       y       z     vdW  Elec       q    Type
                         _______ _______ _______ _____ _____    ______ ____

>  <TORSDO>
F 22

$$$$
=
 OpenBabel10222418363D

 62 68  0  0  1  0  0  0  0  0999 V2000
  184.5090  178.0590  138.4340 C   0  0  0  0  0  0  0  0  0  0  0  0
  182.0020  178.8520  139.3200 O   0  0  0  0  0  0  0  0  0  0  0  0
  190.4460  176.7530  139.6240 C   0  0  1  0  0  3  0  0  0  0  0  0
  181.2260  178.1560  135.8570 C   0  0  0  0  0  0  0  0  0  0  0  0
  185.9130  177.9060  137.9230 C   0  0  0  0  0  2  0  0  0  0  0  0
  192.3430  177.7160  140.7670 C   0  0  0  0  0  2  0  0  0  0  0  0
  188.2140  177.1900  138.6860 C   0  0  0  0  0  0  0  0  0  0  0  0
  191.1630  176.5080  138.4570 O   0  0  0  0  0  0  0  0  0  0  0  0
  191.1130  176.8360  140.9470 C   0  0  1  0  0  3  0  0  0  0  0  0
  189.1800  177.1210  139.7080 C   0  0  0  0  0  0  0  0  0  0  0  0
  186.9340  177.7010  139.0170 C   0  0  0  0  0  0  0  0  0  0  0  0
  181.0120  178.3390  137.1680 C   0  0  0  0  0  3  0  0  0  0  0  0
  182.5450  177.7180  135.3560 C   0  0  0  0  0  3  0  0  0  0  0  0
  188.9110  177.5460  140.9900 C   0  0  0  0  0  0  0  0  0  0  0  0
  185.3780  178.5420  140.7170 O   0  0  0  0  0  0  0  0  0  0  0  0
  183.0700  178.9100  140.2280 C   0  0  0  0  0  0  0  0  0  0  0  0
  192.4830  177.0420  138.3270 C   0  0  1  0  0  3  0  0  0  0  0  0
  190.0010  177.4440  141.7720 C   0  0  1  0  0  3  0  0  0  0  0  0
  184.2940  178.5110  139.8320 C   0  0  0  0  0  0  0  0  0  0  0  0
  187.6460  178.0280  141.3380 C   0  0  0  0  0  3  0  0  0  0  0  0
  183.6000  177.6180  136.1690 C   0  0  0  0  0  3  0  0  0  0  0  0
  186.6500  178.0950  140.3520 C   0  0  0  0  0  0  0  0  0  0  0  0
  182.0600  177.9880  138.1860 C   0  0  1  0  0  3  0  0  0  0  0  0
  193.2360  177.1100  139.6720 C   0  0  0  0  0  2  0  0  0  0  0  0
  183.4540  177.9260  137.6080 C   0  0  0  0  0  0  0  0  0  0  0  0
  190.0570  177.7130  143.2750 C   0  0  2  0  0  0  0  0  0  0  0  0
  189.7390  179.0610  143.5070 O   0  0  0  0  0  1  0  0  0  0  0  0
  191.5300  176.0190  143.9980 N   0  0  0  0  0  0  0  0  0  0  0  0
  191.4040  177.4080  143.8000 N   0  0  0  0  0  0  0  0  0  0  0  0
  191.8010  175.7570  145.3660 C   0  0  0  0  0  3  0  0  0  0  0  0
  191.5370  177.9020  145.0820 O   0  0  0  0  0  0  0  0  0  0  0  0
  191.7990  176.9070  146.0110 C   0  0  0  0  0  2  0  0  0  0  0  0
  188.4760  175.8460  143.0900 O   0  0  0  0  0  1  0  0  0  0  0  0
  189.0100  176.7990  143.9600 C   0  0  2  0  0  3  0  0  0  0  0  0
  187.9630  177.5450  144.5850 O   0  0  0  0  0  0  0  0  0  0  0  0
  187.4900  177.2400  145.8630 C   0  0  0  0  0  3  0  0  0  0  0  0
  188.0100  177.7570  146.8900 O   0  0  0  0  0  0  0  0  0  0  0  0
  182.8490  179.4000  141.6360 C   0  0  0  0  0  2  0  0  0  0  0  0
  181.4980  179.0090  142.2500 C   0  0  1  0  0  3  0  0  0  0  0  0
  181.0540  180.0010  143.1270 O   0  0  0  0  0  0  0  0  0  0  0  0
  179.7420  180.2650  142.7310 C   0  0  0  0  0  1  0  0  0  0  0  0
  180.4600  178.7310  141.1680 C   0  0  0  0  0  2  0  0  0  0  0  0
  179.8590  177.3490  141.3490 C   0  0  0  0  0  1  0  0  0  0  0  0
  180.1270  178.4040  134.8810 C   0  0  0  0  0  2  0  0  0  0  0  0
  179.4270  179.6360  135.2090 N   0  0  0  0  0  2  0  0  0  0  0  0
  180.1100  180.6380  134.6110 O   0  0  0  0  0  1  0  0  0  0  0  0
  193.2570  176.2850  137.2580 C   0  0  0  0  0  2  0  0  0  0  0  0
  193.2470  174.7880  137.5210 C   0  0  0  0  0  2  0  0  0  0  0  0
  194.6540  174.2160  137.4330 C   0  0  1  0  0  3  0  0  0  0  0  0
  194.6720  173.7110  135.1080 O   0  0  0  0  0  0  0  0  0  0  0  0
  194.8080  173.2640  136.2770 C   0  0  0  0  0  0  0  0  0  0  0  0
  195.0380  171.8950  136.4480 O   0  0  0  0  0  0  0  0  0  0  0  0
  194.2210  170.8860  135.8730 C   0  0  2  0  0  3  0  0  0  0  0  0
  194.2790  169.6330  136.7260 C   0  0  0  0  0  1  0  0  0  0  0  0
  194.6840  170.5930  134.5940 O   0  0  0  0  0  1  0  0  0  0  0  0
  195.5780  175.2590  137.3260 O   0  0  0  0  0  0  0  0  0  0  0  0
  196.7240  174.7940  137.9750 C   0  0  0  0  0  2  0  0  0  0  0  0
  196.3830  174.4260  139.4040 C   0  0  0  0  0  1  0  0  0  0  0  0
  188.5190  176.6950  137.2970 C   0  0  0  0  0  2  0  0  0  0  0  0
  188.1690  175.2200  137.1440 C   0  0  0  0  0  2  0  0  0  0  0  0
  188.9680  174.5900  136.0210 C   0  0  0  0  0  2  0  0  0  0  0  0
  188.6000  175.1720  134.8090 O   0  0  0  0  0  1  0  0  0  0  0  0
  1 19  1  0  0  0  0
  2 16  1  0  0  0  0
  3  8  1  6  0  0  0
  3 10  1  0  0  0  0
  3  9  1  0  0  0  0
  4 12  2  0  0  0  0
  5  1  1  0  0  0  0
  5 11  1  0  0  0  0
  7 11  2  0  0  0  0
  7 10  1  0  0  0  0
  9  6  1  6  0  0  0
  9 18  1  0  0  0  0
 10 14  2  0  0  0  0
 11 22  1  0  0  0  0
 13  4  1  0  0  0  0
 13 21  2  0  0  0  0
 14 20  1  0  0  0  0
 14 18  1  0  0  0  0
 16 38  1  0  0  0  0
 17 47  1  6  0  0  0
 17  8  1  0  0  0  0
 17 24  1  0  0  0  0
 18 26  1  1  0  0  0
 19 16  2  0  0  0  0
 19 15  1  0  0  0  0
 21 25  1  0  0  0  0
 22 15  1  0  0  0  0
 22 20  2  0  0  0  0
 23 12  1  6  0  0  0
 23  2  1  0  0  0  0
 24  6  1  0  0  0  0
 25 23  1  0  0  0  0
 25  1  2  0  0  0  0
 26 27  1  1  0  0  0
 26 29  1  0  0  0  0
 26 34  1  0  0  0  0
 28 30  2  0  0  0  0
 29 28  1  0  0  0  0
 29 31  1  0  0  0  0
 30 32  1  0  0  0  0
 31 32  1  0  0  0  0
 34 33  1  6  0  0  0
 34 35  1  0  0  0  0
 35 36  1  0  0  0  0
 36 37  2  0  0  0  0
 38 39  1  0  0  0  0
 39 42  1  6  0  0  0
 39 40  1  0  0  0  0
 41 40  1  0  0  0  0
 42 43  1  0  0  0  0
 44 45  1  0  0  0  0
 44  4  1  0  0  0  0
 46 45  1  0  0  0  0
 47 48  1  0  0  0  0
 49 48  1  6  0  0  0
 50 51  2  0  0  0  0
 51 52  1  0  0  0  0
 51 49  1  0  0  0  0
 53 52  1  0  0  0  0
 53 54  1  1  0  0  0
 55 53  1  0  0  0  0
 56 49  1  0  0  0  0
 56 57  1  0  0  0  0
 57 58  1  0  0  0  0
 59  7  1  0  0  0  0
 60 59  1  0  0  0  0
 61 60  1  0  0  0  0
 62 61  1  0  0  0  0
M  END
>  <MODEL>
5

>  <REMARK>
 VINA RESULT:      -4.9      2.557      8.327
  Name = 
  22 active torsions:
  status: ('A' for Active; 'I' for Inactive)
    1  A    between atoms: C_1  and  C_12
    2  A    between atoms: C_1  and  C_19
    3  A    between atoms: C_2  and  C_36
    4  A    between atoms: C_2  and  C_49
    5  A    between atoms: N_4  and  C_23
    6  A    between atoms: O_5  and  C_53
    7  A    between atoms: C_8  and  C_12
    8  A    between atoms: C_11  and  O_62
    9  A    between atoms: O_13  and  C_41
   10  A    between atoms: O_13  and  C_54
   11  A    between atoms: N_14  and  C_24
   12  A    between atoms: C_15  and  C_23
   13  A    between atoms: C_24  and  C_38
   14  A    between atoms: C_24  and  C_54
   15  A    between atoms: C_34  and  C_58
   16  A    between atoms: C_35  and  O_50
   17  A    between atoms: C_36  and  C_48
   18  A    between atoms: C_36  and  O_50
   19  A    between atoms: C_37  and  C_49
   20  A    between atoms: C_39  and  C_53
   21  A    between atoms: C_48  and  O_62
   22  A    between atoms: C_53  and  C_58
                            x       y       z     vdW  Elec       q    Type
                         _______ _______ _______ _____ _____    ______ ____

>  <TORSDO>
F 22

$$$$
=
 OpenBabel10222418363D

 62 68  0  0  1  0  0  0  0  0999 V2000
  190.4230  177.0270  139.0490 C   0  0  0  0  0  0  0  0  0  0  0  0
  192.9000  176.8720  140.2910 O   0  0  0  0  0  0  0  0  0  0  0  0
  184.3950  178.4370  139.2750 C   0  0  1  0  0  3  0  0  0  0  0  0
  193.8420  175.8960  136.9390 C   0  0  0  0  0  0  0  0  0  0  0  0
  189.0450  176.8510  138.4780 C   0  0  0  0  0  2  0  0  0  0  0  0
  182.4670  178.0310  140.6710 C   0  0  0  0  0  2  0  0  0  0  0  0
  186.6870  177.7250  138.7320 C   0  0  0  0  0  0  0  0  0  0  0  0
  183.7370  178.0690  138.1070 O   0  0  0  0  0  0  0  0  0  0  0  0
  183.6600  178.9530  140.4560 C   0  0  1  0  0  3  0  0  0  0  0  0
  185.6650  178.2160  139.5660 C   0  0  0  0  0  0  0  0  0  0  0  0
  187.9600  177.4940  139.3090 C   0  0  0  0  0  0  0  0  0  0  0  0
  193.9900  176.3620  138.1880 C   0  0  0  0  0  3  0  0  0  0  0  0
  192.5410  175.9790  136.2450 C   0  0  0  0  0  3  0  0  0  0  0  0
  185.8760  178.4580  140.9060 C   0  0  0  0  0  0  0  0  0  0  0  0
  189.4450  177.6310  141.2590 O   0  0  0  0  0  0  0  0  0  0  0  0
  191.7860  177.1940  141.0820 C   0  0  0  0  0  0  0  0  0  0  0  0
  182.4410  177.4710  138.1980 C   0  0  1  0  0  3  0  0  0  0  0  0
  184.7420  178.8610  141.5080 C   0  0  1  0  0  3  0  0  0  0  0  0
  190.5740  177.2980  140.5020 C   0  0  0  0  0  0  0  0  0  0  0  0
  187.1330  178.2620  141.4840 C   0  0  0  0  0  3  0  0  0  0  0  0
  191.4410  176.3970  136.8770 C   0  0  0  0  0  3  0  0  0  0  0  0
  188.1820  177.7890  140.6820 C   0  0  0  0  0  0  0  0  0  0  0  0
  192.8790  177.0970  138.8820 C   0  0  1  0  0  3  0  0  0  0  0  0
  181.6190  178.0050  139.3890 C   0  0  0  0  0  2  0  0  0  0  0  0
  191.5170  176.8090  138.2960 C   0  0  0  0  0  0  0  0  0  0  0  0
  184.6120  179.3280  142.9580 C   0  0  2  0  0  0  0  0  0  0  0  0
  185.4980  180.3970  143.1720 O   0  0  0  0  0  1  0  0  0  0  0  0
  184.2230  178.4060  145.0940 N   0  0  0  0  0  2  0  0  0  0  0  0
  184.9190  178.2180  143.8830 N   0  0  0  0  0  0  0  0  0  0  0  0
  185.1500  178.5060  146.1630 C   0  0  0  0  0  3  0  0  0  0  0  0
  186.2370  178.2860  144.2870 O   0  0  0  0  0  0  0  0  0  0  0  0
  186.3650  178.4340  145.6590 C   0  0  0  0  0  3  0  0  0  0  0  0
  183.0570  180.8340  144.1120 O   0  0  0  0  0  1  0  0  0  0  0  0
  183.1530  179.8020  143.1750 C   0  0  2  0  0  3  0  0  0  0  0  0
  182.2790  178.7270  143.5270 O   0  0  0  0  0  0  0  0  0  0  0  0
  180.8990  178.8980  143.6520 C   0  0  0  0  0  3  0  0  0  0  0  0
  180.2090  178.1250  144.3730 O   0  0  0  0  0  0  0  0  0  0  0  0
  191.9440  177.4350  142.5600 C   0  0  0  0  0  2  0  0  0  0  0  0
  190.9350  176.6930  143.4460 C   0  0  1  0  0  3  0  0  0  0  0  0
  191.1200  175.3120  143.3480 O   0  0  0  0  0  0  0  0  0  0  0  0
  192.0600  175.0080  144.3340 C   0  0  0  0  0  1  0  0  0  0  0  0
  191.0300  177.1560  144.8960 C   0  0  0  0  0  2  0  0  0  0  0  0
  189.6750  177.6280  145.3940 C   0  0  0  0  0  1  0  0  0  0  0  0
  195.0000  175.2740  136.2340 C   0  0  0  0  0  2  0  0  0  0  0  0
  196.2170  175.4430  137.0120 N   0  0  0  0  0  2  0  0  0  0  0  0
  197.1130  174.5570  136.5230 O   0  0  0  0  0  1  0  0  0  0  0  0
  181.7060  177.5960  136.8720 C   0  0  0  0  0  2  0  0  0  0  0  0
  182.3560  176.7440  135.7940 C   0  0  0  0  0  2  0  0  0  0  0  0
  182.9460  175.4760  136.3920 C   0  0  1  0  0  3  0  0  0  0  0  0
  181.9920  173.6910  135.1400 O   0  0  0  0  0  0  0  0  0  0  0  0
  182.0220  174.2960  136.2430 C   0  0  0  0  0  0  0  0  0  0  0  0
  181.1540  173.8800  137.2590 O   0  0  0  0  0  0  0  0  0  0  0  0
  179.7520  174.1010  137.2310 C   0  0  2  0  0  3  0  0  0  0  0  0
  179.2980  174.6780  138.5570 C   0  0  0  0  0  1  0  0  0  0  0  0
  179.1000  172.8910  137.0080 O   0  0  0  0  0  1  0  0  0  0  0  0
  184.1770  175.2030  135.7910 O   0  0  0  0  0  0  0  0  0  0  0  0
  184.9120  174.5250  136.7670 C   0  0  0  0  0  2  0  0  0  0  0  0
  186.1090  173.8530  136.1240 C   0  0  0  0  0  1  0  0  0  0  0  0
  186.4440  177.4920  137.2650 C   0  0  0  0  0  2  0  0  0  0  0  0
  187.0770  178.5880  136.4170 C   0  0  0  0  0  2  0  0  0  0  0  0
  187.4360  178.0660  135.0400 C   0  0  0  0  0  2  0  0  0  0  0  0
  187.6520  176.6910  135.1100 O   0  0  0  0  0  1  0  0  0  0  0  0
  1 19  1  0  0  0  0
  2 16  1  0  0  0  0
  3  8  1  1  0  0  0
  3 10  1  0  0  0  0
  3  9  1  0  0  0  0
  4 12  2  0  0  0  0
  5  1  1  0  0  0  0
  5 11  1  0  0  0  0
  7 11  2  0  0  0  0
  7 10  1  0  0  0  0
  8 17  1  0  0  0  0
  9  6  1  1  0  0  0
  9 18  1  0  0  0  0
 10 14  2  0  0  0  0
 11 22  1  0  0  0  0
 13 21  2  0  0  0  0
 13  4  1  0  0  0  0
 14 20  1  0  0  0  0
 14 18  1  0  0  0  0
 16 38  1  0  0  0  0
 17 47  1  6  0  0  0
 17 24  1  0  0  0  0
 18 26  1  6  0  0  0
 19 16  2  0  0  0  0
 19 15  1  0  0  0  0
 21 25  1  0  0  0  0
 22 15  1  0  0  0  0
 22 20  2  0  0  0  0
 23 12  1  6  0  0  0
 23  2  1  0  0  0  0
 24  6  1  0  0  0  0
 25 23  1  0  0  0  0
 25  1  2  0  0  0  0
 26 27  1  1  0  0  0
 26 34  1  0  0  0  0
 26 29  1  0  0  0  0
 28 30  1  0  0  0  0
 29 31  1  0  0  0  0
 29 28  1  0  0  0  0
 31 32  1  0  0  0  0
 32 30  2  0  0  0  0
 34 35  1  0  0  0  0
 34 33  1  1  0  0  0
 35 36  1  0  0  0  0
 36 37  2  0  0  0  0
 39 38  1  6  0  0  0
 39 42  1  0  0  0  0
 40 39  1  0  0  0  0
 40 41  1  0  0  0  0
 42 43  1  0  0  0  0
 44  4  1  0  0  0  0
 44 45  1  0  0  0  0
 46 45  1  0  0  0  0
 48 47  1  0  0  0  0
 49 48  1  6  0  0  0
 50 51  2  0  0  0  0
 51 49  1  0  0  0  0
 51 52  1  0  0  0  0
 53 52  1  0  0  0  0
 53 54  1  1  0  0  0
 55 53  1  0  0  0  0
 56 49  1  0  0  0  0
 56 57  1  0  0  0  0
 58 57  1  0  0  0  0
 59  7  1  0  0  0  0
 60 59  1  0  0  0  0
 61 62  1  0  0  0  0
 61 60  1  0  0  0  0
M  END
>  <MODEL>
6

>  <REMARK>
 VINA RESULT:      -4.6      2.943      8.997
  Name = 
  22 active torsions:
  status: ('A' for Active; 'I' for Inactive)
    1  A    between atoms: C_1  and  C_12
    2  A    between atoms: C_1  and  C_19
    3  A    between atoms: C_2  and  C_36
    4  A    between atoms: C_2  and  C_49
    5  A    between atoms: N_4  and  C_23
    6  A    between atoms: O_5  and  C_53
    7  A    between atoms: C_8  and  C_12
    8  A    between atoms: C_11  and  O_62
    9  A    between atoms: O_13  and  C_41
   10  A    between atoms: O_13  and  C_54
   11  A    between atoms: N_14  and  C_24
   12  A    between atoms: C_15  and  C_23
   13  A    between atoms: C_24  and  C_38
   14  A    between atoms: C_24  and  C_54
   15  A    between atoms: C_34  and  C_58
   16  A    between atoms: C_35  and  O_50
   17  A    between atoms: C_36  and  C_48
   18  A    between atoms: C_36  and  O_50
   19  A    between atoms: C_37  and  C_49
   20  A    between atoms: C_39  and  C_53
   21  A    between atoms: C_48  and  O_62
   22  A    between atoms: C_53  and  C_58
                            x       y       z     vdW  Elec       q    Type
                         _______ _______ _______ _____ _____    ______ ____

>  <TORSDO>
F 22

$$$$
=
 OpenBabel10222418363D

 62 68  0  0  1  0  0  0  0  0999 V2000
  184.4290  178.0710  137.8320 C   0  0  0  0  0  0  0  0  0  0  0  0
  182.4960  177.4990  135.9260 O   0  0  0  0  0  0  0  0  0  0  0  0
  190.3060  177.7500  139.7660 C   0  0  1  0  0  3  0  0  0  0  0  0
  180.5240  179.4950  138.2070 C   0  0  0  0  0  0  0  0  0  0  0  0
  185.4080  178.1310  138.9710 C   0  0  0  0  0  2  0  0  0  0  0  0
  192.0600  176.1130  140.0410 C   0  0  0  0  0  2  0  0  0  0  0  0
  187.8930  178.0930  139.4300 C   0  0  0  0  0  0  0  0  0  0  0  0
  190.4520  178.2510  141.0550 O   0  0  0  0  0  0  0  0  0  0  0  0
  191.4270  177.0870  139.0550 C   0  0  1  0  0  3  0  0  0  0  0  0
  189.1750  177.6180  139.0950 C   0  0  0  0  0  0  0  0  0  0  0  0
  186.8150  177.7450  138.5790 C   0  0  0  0  0  0  0  0  0  0  0  0
  180.8800  178.9080  137.0560 C   0  0  0  0  0  3  0  0  0  0  0  0
  181.5320  179.8280  139.2340 C   0  0  0  0  0  3  0  0  0  0  0  0
  189.3900  176.8280  137.9870 C   0  0  0  0  0  0  0  0  0  0  0  0
  186.0170  176.6660  136.5240 O   0  0  0  0  0  0  0  0  0  0  0  0
  183.7680  176.9290  135.7650 C   0  0  0  0  0  0  0  0  0  0  0  0
  191.2990  177.5620  141.9780 C   0  0  1  0  0  3  0  0  0  0  0  0
  190.6780  176.4460  137.9090 C   0  0  1  0  0  3  0  0  0  0  0  0
  184.7330  177.2070  136.6630 C   0  0  0  0  0  0  0  0  0  0  0  0
  188.3420  176.5000  137.1230 C   0  0  0  0  0  3  0  0  0  0  0  0
  182.8040  179.4390  139.1120 C   0  0  0  0  0  3  0  0  0  0  0  0
  187.0520  176.9680  137.4130 C   0  0  0  0  0  0  0  0  0  0  0  0
  182.3230  178.6790  136.7100 C   0  0  1  0  0  3  0  0  0  0  0  0
  192.5050  176.8880  141.2920 C   0  0  0  0  0  2  0  0  0  0  0  0
  183.2320  178.6790  137.9170 C   0  0  0  0  0  0  0  0  0  0  0  0
  191.3130  175.6610  136.7610 C   0  0  2  0  0  0  0  0  0  0  0  0
  190.6640  176.0030  135.5640 O   0  0  0  0  0  1  0  0  0  0  0  0
  190.9790  173.5380  135.7890 N   0  0  0  0  0  0  0  0  0  0  0  0
  191.1990  174.2090  137.0090 N   0  0  0  0  0  0  0  0  0  0  0  0
  189.7430  172.8450  135.8450 C   0  0  0  0  0  3  0  0  0  0  0  0
  190.0400  173.9360  137.7080 O   0  0  0  0  0  0  0  0  0  0  0  0
  189.1850  173.0970  137.0120 C   0  0  0  0  0  2  0  0  0  0  0  0
  193.0400  177.1000  135.7790 O   0  0  0  0  0  1  0  0  0  0  0  0
  192.8080  176.0620  136.6830 C   0  0  2  0  0  3  0  0  0  0  0  0
  193.6550  174.9480  136.3900 O   0  0  0  0  0  0  0  0  0  0  0  0
  194.5410  174.4170  137.3300 C   0  0  0  0  0  3  0  0  0  0  0  0
  194.9650  175.1140  138.2920 O   0  0  0  0  0  0  0  0  0  0  0  0
  184.0570  176.0270  134.5940 C   0  0  0  0  0  2  0  0  0  0  0  0
  183.8300  174.5320  134.8590 C   0  0  1  0  0  3  0  0  0  0  0  0
  185.0480  173.8810  135.0660 O   0  0  0  0  0  0  0  0  0  0  0  0
  184.7010  172.5630  135.3620 C   0  0  0  0  0  1  0  0  0  0  0  0
  182.8880  174.3190  136.0400 C   0  0  0  0  0  2  0  0  0  0  0  0
  181.5110  173.9030  135.5550 C   0  0  0  0  0  1  0  0  0  0  0  0
  179.0910  179.8150  138.4700 C   0  0  0  0  0  2  0  0  0  0  0  0
  178.9340  181.2300  138.7670 N   0  0  0  0  0  2  0  0  0  0  0  0
  179.6650  181.8990  137.8470 O   0  0  0  0  0  1  0  0  0  0  0  0
  191.7100  178.4870  143.1130 C   0  0  0  0  0  2  0  0  0  0  0  0
  190.5300  178.8220  144.0110 C   0  0  0  0  0  2  0  0  0  0  0  0
  190.3020  177.7200  145.0340 C   0  0  1  0  0  3  0  0  0  0  0  0
  188.2460  176.6050  144.5940 O   0  0  0  0  0  0  0  0  0  0  0  0
  188.8370  177.4740  145.2850 C   0  0  0  0  0  0  0  0  0  0  0  0
  188.0940  178.2120  146.2140 O   0  0  0  0  0  0  0  0  0  0  0  0
  186.7390  177.9320  146.5310 C   0  0  2  0  0  3  0  0  0  0  0  0
  185.8340  178.4960  145.4530 C   0  0  0  0  0  1  0  0  0  0  0  0
  186.4210  178.5190  147.7520 O   0  0  0  0  0  1  0  0  0  0  0  0
  190.9210  176.5440  144.6020 O   0  0  0  0  0  0  0  0  0  0  0  0
  191.8220  176.2170  145.6180 C   0  0  0  0  0  2  0  0  0  0  0  0
  191.2900  176.7140  146.9470 C   0  0  0  0  0  1  0  0  0  0  0  0
  187.6830  178.9770  140.6300 C   0  0  0  0  0  2  0  0  0  0  0  0
  187.2060  178.1750  141.8340 C   0  0  0  0  0  2  0  0  0  0  0  0
  185.7040  178.2950  142.0010 C   0  0  0  0  0  2  0  0  0  0  0  0
  185.3930  179.5660  142.4820 O   0  0  0  0  0  1  0  0  0  0  0  0
  1 25  2  0  0  0  0
  1  5  1  0  0  0  0
  2 23  1  0  0  0  0
  3 10  1  1  0  0  0
  3  8  1  0  0  0  0
  4 44  1  0  0  0  0
  4 13  1  0  0  0  0
  6 24  1  0  0  0  0
  7 59  1  0  0  0  0
  8 17  1  0  0  0  0
  9  3  1  0  0  0  0
  9  6  1  1  0  0  0
 10  7  1  0  0  0  0
 11  5  1  0  0  0  0
 11  7  2  0  0  0  0
 12  4  2  0  0  0  0
 14 10  2  0  0  0  0
 15 19  1  0  0  0  0
 15 22  1  0  0  0  0
 16  2  1  0  0  0  0
 16 19  2  0  0  0  0
 17 47  1  1  0  0  0
 18 26  1  6  0  0  0
 18 14  1  0  0  0  0
 18  9  1  0  0  0  0
 19  1  1  0  0  0  0
 20 22  2  0  0  0  0
 20 14  1  0  0  0  0
 21 13  2  0  0  0  0
 22 11  1  0  0  0  0
 23 12  1  1  0  0  0
 23 25  1  0  0  0  0
 24 17  1  0  0  0  0
 25 21  1  0  0  0  0
 26 27  1  6  0  0  0
 26 29  1  0  0  0  0
 28 30  2  0  0  0  0
 28 29  1  0  0  0  0
 29 31  1  0  0  0  0
 30 32  1  0  0  0  0
 32 31  1  0  0  0  0
 34 33  1  6  0  0  0
 34 26  1  0  0  0  0
 35 34  1  0  0  0  0
 35 36  1  0  0  0  0
 36 37  2  0  0  0  0
 38 16  1  0  0  0  0
 39 38  1  1  0  0  0
 39 40  1  0  0  0  0
 39 42  1  0  0  0  0
 40 41  1  0  0  0  0
 43 42  1  0  0  0  0
 44 45  1  0  0  0  0
 46 45  1  0  0  0  0
 47 48  1  0  0  0  0
 49 48  1  6  0  0  0
 49 51  1  0  0  0  0
 50 51  2  0  0  0  0
 51 52  1  0  0  0  0
 52 53  1  0  0  0  0
 53 54  1  6  0  0  0
 53 55  1  0  0  0  0
 56 49  1  0  0  0  0
 56 57  1  0  0  0  0
 57 58  1  0  0  0  0
 59 60  1  0  0  0  0
 60 61  1  0  0  0  0
 61 62  1  0  0  0  0
M  END
>  <MODEL>
7

>  <REMARK>
 VINA RESULT:      -4.3      2.725     10.039
  Name = 
  22 active torsions:
  status: ('A' for Active; 'I' for Inactive)
    1  A    between atoms: C_1  and  C_12
    2  A    between atoms: C_1  and  C_19
    3  A    between atoms: C_2  and  C_36
    4  A    between atoms: C_2  and  C_49
    5  A    between atoms: N_4  and  C_23
    6  A    between atoms: O_5  and  C_53
    7  A    between atoms: C_8  and  C_12
    8  A    between atoms: C_11  and  O_62
    9  A    between atoms: O_13  and  C_41
   10  A    between atoms: O_13  and  C_54
   11  A    between atoms: N_14  and  C_24
   12  A    between atoms: C_15  and  C_23
   13  A    between atoms: C_24  and  C_38
   14  A    between atoms: C_24  and  C_54
   15  A    between atoms: C_34  and  C_58
   16  A    between atoms: C_35  and  O_50
   17  A    between atoms: C_36  and  C_48
   18  A    between atoms: C_36  and  O_50
   19  A    between atoms: C_37  and  C_49
   20  A    between atoms: C_39  and  C_53
   21  A    between atoms: C_48  and  O_62
   22  A    between atoms: C_53  and  C_58
                            x       y       z     vdW  Elec       q    Type
                         _______ _______ _______ _____ _____    ______ ____

>  <TORSDO>
F 22

$$$$
=
 OpenBabel10222418363D

 62 68  0  0  1  0  0  0  0  0999 V2000
  184.5220  178.3060  138.0460 C   0  0  0  0  0  0  0  0  0  0  0  0
  182.8300  177.8050  135.9050 O   0  0  0  0  0  0  0  0  0  0  0  0
  190.1320  177.9200  140.6450 C   0  0  1  0  0  3  0  0  0  0  0  0
  180.5910  179.7080  138.0130 C   0  0  0  0  0  0  0  0  0  0  0  0
  185.3590  178.3230  139.2930 C   0  0  0  0  0  2  0  0  0  0  0  0
  191.8520  176.2770  141.0620 C   0  0  0  0  0  2  0  0  0  0  0  0
  187.7740  178.2720  140.0400 C   0  0  0  0  0  0  0  0  0  0  0  0
  190.1220  178.3710  141.9610 O   0  0  0  0  0  0  0  0  0  0  0  0
  191.3330  177.2870  140.0470 C   0  0  1  0  0  3  0  0  0  0  0  0
  189.0890  177.8130  139.8410 C   0  0  0  0  0  0  0  0  0  0  0  0
  186.8050  177.9560  139.0560 C   0  0  0  0  0  0  0  0  0  0  0  0
  181.0830  179.1660  136.8900 C   0  0  0  0  0  3  0  0  0  0  0  0
  181.4690  180.0030  139.1640 C   0  0  0  0  0  3  0  0  0  0  0  0
  189.4380  177.0670  138.7370 C   0  0  0  0  0  0  0  0  0  0  0  0
  186.2610  176.9560  136.8820 O   0  0  0  0  0  0  0  0  0  0  0  0
  184.1160  177.2440  135.8740 C   0  0  0  0  0  0  0  0  0  0  0  0
  190.8590  177.6480  142.9500 C   0  0  1  0  0  3  0  0  0  0  0  0
  190.7280  176.6900  138.7960 C   0  0  1  0  0  3  0  0  0  0  0  0
  184.9670  177.4880  136.8890 C   0  0  0  0  0  0  0  0  0  0  0  0
  188.5000  176.7700  137.7430 C   0  0  0  0  0  3  0  0  0  0  0  0
  182.7490  179.6210  139.1770 C   0  0  0  0  0  3  0  0  0  0  0  0
  187.1820  177.2250  137.8970 C   0  0  0  0  0  0  0  0  0  0  0  0
  182.5590  178.9540  136.7080 C   0  0  1  0  0  3  0  0  0  0  0  0
  192.1420  177.0030  142.3860 C   0  0  0  0  0  2  0  0  0  0  0  0
  183.3190  178.9080  138.0130 C   0  0  0  0  0  0  0  0  0  0  0  0
  191.4990  175.9520  137.7020 C   0  0  2  0  0  0  0  0  0  0  0  0
  191.1180  176.4660  136.4520 O   0  0  0  0  0  1  0  0  0  0  0  0
  191.6880  173.8780  136.5940 N   0  0  0  0  0  0  0  0  0  0  0  0
  191.2180  174.5030  137.7660 N   0  0  0  0  0  0  0  0  0  0  0  0
  190.6050  173.2570  135.9210 C   0  0  0  0  0  3  0  0  0  0  0  0
  189.8580  174.2790  137.6940 O   0  0  0  0  0  0  0  0  0  0  0  0
  189.5030  173.5100  136.5970 C   0  0  0  0  0  2  0  0  0  0  0  0
  193.5440  177.1400  137.0500 O   0  0  0  0  0  1  0  0  0  0  0  0
  193.0110  176.2010  137.9360 C   0  0  2  0  0  3  0  0  0  0  0  0
  193.7730  174.9930  137.9000 O   0  0  0  0  0  0  0  0  0  0  0  0
  194.9770  174.8490  138.5940 C   0  0  0  0  0  3  0  0  0  0  0  0
  196.0370  175.3910  138.1770 O   0  0  0  0  0  0  0  0  0  0  0  0
  184.5460  176.3880  134.7110 C   0  0  0  0  0  2  0  0  0  0  0  0
  184.2010  174.8990  134.8430 C   0  0  1  0  0  3  0  0  0  0  0  0
  185.2130  174.2200  135.5240 O   0  0  0  0  0  0  0  0  0  0  0  0
  186.2500  174.1040  134.5980 C   0  0  0  0  0  1  0  0  0  0  0  0
  182.8530  174.7040  135.5290 C   0  0  0  0  0  2  0  0  0  0  0  0
  183.0350  174.0370  136.8810 C   0  0  0  0  0  1  0  0  0  0  0  0
  179.1350  180.0140  138.1180 C   0  0  0  0  0  2  0  0  0  0  0  0
  178.9310  181.2600  138.8410 N   0  0  0  0  0  2  0  0  0  0  0  0
  179.2330  182.2580  137.9810 O   0  0  0  0  0  1  0  0  0  0  0  0
  191.1280  178.5290  144.1600 C   0  0  0  0  0  2  0  0  0  0  0  0
  189.9100  178.6150  145.0650 C   0  0  0  0  0  2  0  0  0  0  0  0
  189.5650  177.2470  145.6350 C   0  0  1  0  0  3  0  0  0  0  0  0
  189.0060  177.2660  147.9480 O   0  0  0  0  0  0  0  0  0  0  0  0
  189.9200  177.1350  147.0930 C   0  0  0  0  0  0  0  0  0  0  0  0
  191.2330  176.9480  147.5410 O   0  0  0  0  0  0  0  0  0  0  0  0
  191.9400  175.7240  147.4060 C   0  0  2  0  0  3  0  0  0  0  0  0
  192.2360  175.4640  145.9420 C   0  0  0  0  0  1  0  0  0  0  0  0
  191.1620  174.6860  147.9100 O   0  0  0  0  0  1  0  0  0  0  0  0
  188.2030  176.9920  145.4490 O   0  0  0  0  0  0  0  0  0  0  0  0
  187.5620  177.7020  146.4670 C   0  0  0  0  0  2  0  0  0  0  0  0
  186.2040  178.1680  145.9820 C   0  0  0  0  0  1  0  0  0  0  0  0
  187.4180  179.1090  141.2400 C   0  0  0  0  0  2  0  0  0  0  0  0
  186.4830  178.3600  142.1820 C   0  0  0  0  0  2  0  0  0  0  0  0
  185.0630  178.8740  142.0520 C   0  0  0  0  0  2  0  0  0  0  0  0
  184.4190  178.7670  143.2830 O   0  0  0  0  0  1  0  0  0  0  0  0
  1  5  1  0  0  0  0
  2 23  1  0  0  0  0
  3 10  1  1  0  0  0
  3  8  1  0  0  0  0
  4 44  1  0  0  0  0
  4 13  1  0  0  0  0
  6 24  1  0  0  0  0
  7 59  1  0  0  0  0
  8 17  1  0  0  0  0
  9  3  1  0  0  0  0
  9  6  1  1  0  0  0
 10  7  1  0  0  0  0
 11  5  1  0  0  0  0
 11  7  2  0  0  0  0
 12  4  2  0  0  0  0
 13 21  2  0  0  0  0
 14 18  1  0  0  0  0
 14 10  2  0  0  0  0
 15 19  1  0  0  0  0
 15 22  1  0  0  0  0
 16  2  1  0  0  0  0
 16 19  2  0  0  0  0
 17 47  1  1  0  0  0
 18 26  1  6  0  0  0
 18  9  1  0  0  0  0
 19  1  1  0  0  0  0
 20 22  2  0  0  0  0
 20 14  1  0  0  0  0
 22 11  1  0  0  0  0
 23 12  1  1  0  0  0
 23 25  1  0  0  0  0
 24 17  1  0  0  0  0
 25  1  2  0  0  0  0
 25 21  1  0  0  0  0
 26 27  1  6  0  0  0
 26 29  1  0  0  0  0
 26 34  1  0  0  0  0
 28 29  1  0  0  0  0
 30 28  2  0  0  0  0
 30 32  1  0  0  0  0
 31 29  1  0  0  0  0
 32 31  1  0  0  0  0
 34 33  1  6  0  0  0
 35 34  1  0  0  0  0
 35 36  1  0  0  0  0
 37 36  2  0  0  0  0
 38 16  1  0  0  0  0
 39 38  1  1  0  0  0
 39 40  1  0  0  0  0
 39 42  1  0  0  0  0
 41 40  1  0  0  0  0
 42 43  1  0  0  0  0
 44 45  1  0  0  0  0
 46 45  1  0  0  0  0
 47 48  1  0  0  0  0
 49 48  1  1  0  0  0
 49 51  1  0  0  0  0
 51 52  1  0  0  0  0
 51 50  2  0  0  0  0
 53 54  1  6  0  0  0
 53 52  1  0  0  0  0
 53 55  1  0  0  0  0
 56 49  1  0  0  0  0
 56 57  1  0  0  0  0
 58 57  1  0  0  0  0
 59 60  1  0  0  0  0
 61 60  1  0  0  0  0
 61 62  1  0  0  0  0
M  END
>  <MODEL>
8

>  <REMARK>
 VINA RESULT:      -4.1      2.688     10.096
  Name = 
  22 active torsions:
  status: ('A' for Active; 'I' for Inactive)
    1  A    between atoms: C_1  and  C_12
    2  A    between atoms: C_1  and  C_19
    3  A    between atoms: C_2  and  C_36
    4  A    between atoms: C_2  and  C_49
    5  A    between atoms: N_4  and  C_23
    6  A    between atoms: O_5  and  C_53
    7  A    between atoms: C_8  and  C_12
    8  A    between atoms: C_11  and  O_62
    9  A    between atoms: O_13  and  C_41
   10  A    between atoms: O_13  and  C_54
   11  A    between atoms: N_14  and  C_24
   12  A    between atoms: C_15  and  C_23
   13  A    between atoms: C_24  and  C_38
   14  A    between atoms: C_24  and  C_54
   15  A    between atoms: C_34  and  C_58
   16  A    between atoms: C_35  and  O_50
   17  A    between atoms: C_36  and  C_48
   18  A    between atoms: C_36  and  O_50
   19  A    between atoms: C_37  and  C_49
   20  A    between atoms: C_39  and  C_53
   21  A    between atoms: C_48  and  O_62
   22  A    between atoms: C_53  and  C_58
                            x       y       z     vdW  Elec       q    Type
                         _______ _______ _______ _____ _____    ______ ____

>  <TORSDO>
F 22

$$$$
=
 OpenBabel10222418363D

 62 68  0  0  1  0  0  0  0  0999 V2000
  190.0620  177.1630  139.0770 C   0  0  0  0  0  0  0  0  0  0  0  0
  192.5940  176.7190  140.1220 O   0  0  0  0  0  0  0  0  0  0  0  0
  184.1650  178.8870  139.8710 C   0  0  1  0  0  3  0  0  0  0  0  0
  193.2650  176.0900  136.6250 C   0  0  0  0  0  0  0  0  0  0  0  0
  188.6430  177.1370  138.5850 C   0  0  0  0  0  2  0  0  0  0  0  0
  182.3020  178.4320  141.3400 C   0  0  0  0  0  2  0  0  0  0  0  0
  186.3670  178.1100  139.0960 C   0  0  0  0  0  0  0  0  0  0  0  0
  183.4140  178.6980  138.7160 O   0  0  0  0  0  0  0  0  0  0  0  0
  183.5380  179.3020  141.1500 C   0  0  1  0  0  3  0  0  0  0  0  0
  185.4330  178.5590  140.0490 C   0  0  0  0  0  0  0  0  0  0  0  0
  187.6560  177.7400  139.5550 C   0  0  0  0  0  0  0  0  0  0  0  0
  193.5180  176.3970  137.9050 C   0  0  0  0  0  3  0  0  0  0  0  0
  191.9320  176.3310  136.0350 C   0  0  0  0  0  3  0  0  0  0  0  0
  185.7400  178.6290  141.3890 C   0  0  0  0  0  0  0  0  0  0  0  0
  189.2610  177.5590  141.4020 O   0  0  0  0  0  0  0  0  0  0  0  0
  191.5530  177.0100  141.0180 C   0  0  0  0  0  0  0  0  0  0  0  0
  182.0890  178.1690  138.8270 C   0  0  1  0  0  3  0  0  0  0  0  0
  184.6740  179.0240  142.1100 C   0  0  1  0  0  3  0  0  0  0  0  0
  190.3180  177.2520  140.5370 C   0  0  0  0  0  0  0  0  0  0  0  0
  187.0150  178.2930  141.8540 C   0  0  0  0  0  3  0  0  0  0  0  0
  190.9020  176.7350  136.7830 C   0  0  0  0  0  3  0  0  0  0  0  0
  187.9790  177.8570  140.9340 C   0  0  0  0  0  0  0  0  0  0  0  0
  192.5020  177.1090  138.7520 C   0  0  1  0  0  3  0  0  0  0  0  0
  181.3780  178.6070  140.1240 C   0  0  0  0  0  2  0  0  0  0  0  0
  191.0910  176.9720  138.2310 C   0  0  0  0  0  0  0  0  0  0  0  0
  184.6640  179.3240  143.6080 C   0  0  2  0  0  0  0  0  0  0  0  0
  185.3760  180.5120  143.8380 O   0  0  0  0  0  1  0  0  0  0  0  0
  184.5550  177.9850  145.5470 N   0  0  0  0  0  0  0  0  0  0  0  0
  185.2770  178.2080  144.3580 N   0  0  0  0  0  0  0  0  0  0  0  0
  185.4120  178.1640  146.6630 C   0  0  0  0  0  3  0  0  0  0  0  0
  186.5190  178.5790  144.8320 O   0  0  0  0  0  0  0  0  0  0  0  0
  186.5980  178.5260  146.2140 C   0  0  0  0  0  2  0  0  0  0  0  0
  183.0670  179.8640  145.3900 O   0  0  0  0  0  1  0  0  0  0  0  0
  183.1880  179.4990  144.0470 C   0  0  2  0  0  3  0  0  0  0  0  0
  182.3970  178.3410  143.7720 O   0  0  0  0  0  0  0  0  0  0  0  0
  181.0550  178.2480  144.1470 C   0  0  0  0  0  3  0  0  0  0  0  0
  180.2720  179.2290  144.0150 O   0  0  0  0  0  0  0  0  0  0  0  0
  191.8170  177.0660  142.5000 C   0  0  0  0  0  2  0  0  0  0  0  0
  190.5640  176.9740  143.3810 C   0  0  1  0  0  3  0  0  0  0  0  0
  190.5550  175.7740  144.0960 O   0  0  0  0  0  0  0  0  0  0  0  0
  191.4460  175.9800  145.1490 C   0  0  0  0  0  1  0  0  0  0  0  0
  190.4620  178.1710  144.3210 C   0  0  0  0  0  2  0  0  0  0  0  0
  191.3820  179.2880  143.8630 C   0  0  0  0  0  1  0  0  0  0  0  0
  194.3340  175.4890  135.7760 C   0  0  0  0  0  2  0  0  0  0  0  0
  195.6350  176.0220  136.1490 N   0  0  0  0  0  2  0  0  0  0  0  0
  196.2220  175.0910  136.9330 O   0  0  0  0  0  1  0  0  0  0  0  0
  181.2850  178.4920  137.5770 C   0  0  0  0  0  2  0  0  0  0  0  0
  180.0830  179.3640  137.9010 C   0  0  0  0  0  2  0  0  0  0  0  0
  180.1150  180.6510  137.0890 C   0  0  1  0  0  3  0  0  0  0  0  0
  180.1370  181.8360  139.1520 O   0  0  0  0  0  0  0  0  0  0  0  0
  180.4620  181.8460  137.9370 C   0  0  0  0  0  0  0  0  0  0  0  0
  181.0780  182.9900  137.4170 O   0  0  0  0  0  0  0  0  0  0  0  0
  180.3590  184.1020  136.9050 C   0  0  2  0  0  3  0  0  0  0  0  0
  181.0550  184.6330  135.6670 C   0  0  0  0  0  1  0  0  0  0  0  0
  180.3100  185.1030  137.8700 O   0  0  0  0  0  1  0  0  0  0  0  0
  181.0310  180.5210  136.0410 O   0  0  0  0  0  0  0  0  0  0  0  0
  180.2560  180.2030  134.9230 C   0  0  0  0  0  2  0  0  0  0  0  0
  179.0230  181.0830  134.8950 C   0  0  0  0  0  1  0  0  0  0  0  0
  186.0210  178.0670  137.6320 C   0  0  0  0  0  2  0  0  0  0  0  0
  186.0180  176.6380  137.1040 C   0  0  0  0  0  2  0  0  0  0  0  0
  184.6040  176.0980  137.0180 C   0  0  0  0  0  2  0  0  0  0  0  0
  184.6130  174.7330  137.2980 O   0  0  0  0  0  1  0  0  0  0  0  0
  1 19  1  0  0  0  0
  2 16  1  0  0  0  0
  3  8  1  1  0  0  0
  3 10  1  0  0  0  0
  3  9  1  0  0  0  0
  4 12  2  0  0  0  0
  5  1  1  0  0  0  0
  5 11  1  0  0  0  0
  7 11  2  0  0  0  0
  7 10  1  0  0  0  0
  8 17  1  0  0  0  0
  9  6  1  1  0  0  0
  9 18  1  0  0  0  0
 10 14  2  0  0  0  0
 11 22  1  0  0  0  0
 13  4  1  0  0  0  0
 13 21  2  0  0  0  0
 14 20  1  0  0  0  0
 14 18  1  0  0  0  0
 16 38  1  0  0  0  0
 17 47  1  6  0  0  0
 17 24  1  0  0  0  0
 18 26  1  6  0  0  0
 19 16  2  0  0  0  0
 19 15  1  0  0  0  0
 21 25  1  0  0  0  0
 22 15  1  0  0  0  0
 22 20  2  0  0  0  0
 23 12  1  6  0  0  0
 23  2  1  0  0  0  0
 24  6  1  0  0  0  0
 25 23  1  0  0  0  0
 25  1  2  0  0  0  0
 26 27  1  1  0  0  0
 26 34  1  0  0  0  0
 26 29  1  0  0  0  0
 28 30  2  0  0  0  0
 29 31  1  0  0  0  0
 29 28  1  0  0  0  0
 31 32  1  0  0  0  0
 32 30  1  0  0  0  0
 34 33  1  1  0  0  0
 35 34  1  0  0  0  0
 35 36  1  0  0  0  0
 37 36  2  0  0  0  0
 39 38  1  1  0  0  0
 39 40  1  0  0  0  0
 39 42  1  0  0  0  0
 40 41  1  0  0  0  0
 43 42  1  0  0  0  0
 44 45  1  0  0  0  0
 44  4  1  0  0  0  0
 45 46  1  0  0  0  0
 47 48  1  0  0  0  0
 49 48  1  1  0  0  0
 49 51  1  0  0  0  0
 51 50  2  0  0  0  0
 52 51  1  0  0  0  0
 53 54  1  6  0  0  0
 53 52  1  0  0  0  0
 53 55  1  0  0  0  0
 56 49  1  0  0  0  0
 57 56  1  0  0  0  0
 58 57  1  0  0  0  0
 59  7  1  0  0  0  0
 60 59  1  0  0  0  0
 61 60  1  0  0  0  0
 61 62  1  0  0  0  0
M  END
>  <MODEL>
9

>  <REMARK>
 VINA RESULT:      -3.7      3.233     10.157
  Name = 
  22 active torsions:
  status: ('A' for Active; 'I' for Inactive)
    1  A    between atoms: C_1  and  C_12
    2  A    between atoms: C_1  and  C_19
    3  A    between atoms: C_2  and  C_36
    4  A    between atoms: C_2  and  C_49
    5  A    between atoms: N_4  and  C_23
    6  A    between atoms: O_5  and  C_53
    7  A    between atoms: C_8  and  C_12
    8  A    between atoms: C_11  and  O_62
    9  A    between atoms: O_13  and  C_41
   10  A    between atoms: O_13  and  C_54
   11  A    between atoms: N_14  and  C_24
   12  A    between atoms: C_15  and  C_23
   13  A    between atoms: C_24  and  C_38
   14  A    between atoms: C_24  and  C_54
   15  A    between atoms: C_34  and  C_58
   16  A    between atoms: C_35  and  O_50
   17  A    between atoms: C_36  and  C_48
   18  A    between atoms: C_36  and  O_50
   19  A    between atoms: C_37  and  C_49
   20  A    between atoms: C_39  and  C_53
   21  A    between atoms: C_48  and  O_62
   22  A    between atoms: C_53  and  C_58
                            x       y       z     vdW  Elec       q    Type
                         _______ _______ _______ _____ _____    ______ ____

>  <TORSDO>
F 22

$$$$
