=
 OpenBabel10222421093D

 29 32  0  0  1  0  0  0  0  0999 V2000
  185.8460  180.0750  146.9310 O   0  0  0  0  0  0  0  0  0  0  0  0
  185.3980  178.8730  146.1480 S   0  0  0  0  0  0  0  0  0  0  0  0
  184.4900  178.0240  146.9920 O   0  0  0  0  0  0  0  0  0  0  0  0
  186.6260  177.1260  144.4220 C   0  0  0  0  0  2  0  0  0  0  0  0
  185.1320  180.5740  144.2040 F   0  0  0  0  0  0  0  0  0  0  0  0
  186.0020  177.9260  143.2830 C   0  0  0  0  0  2  0  0  0  0  0  0
  184.5360  179.4210  144.6880 C   0  0  1  0  0  3  0  0  0  0  0  0
  184.5680  178.3160  143.6290 C   0  0  1  0  0  3  0  0  0  0  0  0
  186.7660  177.9380  145.6290 N   0  0  2  0  0  0  0  0  0  0  0  0
  191.7920  176.7700  146.0580 N   0  0  0  0  0  0  0  0  0  0  0  0
  187.9620  177.9660  147.8680 C   0  0  0  0  0  3  0  0  0  0  0  0
  189.9410  177.3850  147.2890 C   0  0  0  0  0  0  0  0  0  0  0  0
  189.7280  177.1050  144.9080 N   0  0  0  0  0  0  0  0  0  0  0  0
  189.1790  177.4000  146.1050 C   0  0  0  0  0  0  0  0  0  0  0  0
  191.0580  176.7840  144.8930 C   0  0  0  0  0  0  0  0  0  0  0  0
  191.2510  177.0680  147.2480 N   0  0  0  0  0  0  0  0  0  0  0  0
  191.7170  176.4470  143.6050 C   0  0  0  0  0  1  0  0  0  0  0  0
  189.2110  177.7270  148.3620 N   0  0  0  0  0  0  0  0  0  0  0  0
  187.9130  177.7730  146.4790 C   0  0  2  0  0  3  0  0  0  0  0  0
  183.8400  178.7500  142.3670 C   0  0  0  0  0  2  0  0  0  0  0  0
  184.8340  179.0260  141.2510 C   0  0  0  0  0  2  0  0  0  0  0  0
  183.3700  177.5730  140.1510 C   0  0  0  0  0  2  0  0  0  0  0  0
  185.3050  178.4120  139.0330 C   0  0  0  0  0  2  0  0  0  0  0  0
  182.5790  177.3020  138.8630 C   0  0  1  0  0  3  0  0  0  0  0  0
  184.8160  177.7130  137.7500 C   0  0  0  0  0  2  0  0  0  0  0  0
  183.2960  177.7730  137.5870 C   0  0  0  0  0  2  0  0  0  0  0  0
  184.2200  178.7460  139.9650 N   0  0  0  0  0  0  0  0  0  0  0  0
  180.9870  175.8590  139.6660 C   0  0  0  0  0  1  0  0  0  0  0  0
  182.0690  175.9880  138.7790 O   0  0  0  0  0  0  0  0  0  0  0  0
  2  1  2  0  0  0  0
  2  3  2  0  0  0  0
  6  8  1  0  0  0  0
  6  4  1  0  0  0  0
  7  5  1  6  0  0  0
  7  2  1  0  0  0  0
  8 20  1  6  0  0  0
  8  7  1  0  0  0  0
  9  4  1  1  0  0  0
  9  2  1  0  0  0  0
  9 19  1  0  0  0  0
 10 16  1  0  0  0  0
 11 18  2  0  0  0  0
 12 18  1  0  0  0  0
 13 14  2  0  0  0  0
 14 19  1  0  0  0  0
 14 12  1  0  0  0  0
 15 13  1  0  0  0  0
 15 10  2  0  0  0  0
 16 12  2  0  0  0  0
 17 15  1  0  0  0  0
 19 11  1  6  0  0  0
 21 20  1  0  0  0  0
 23 27  1  0  0  0  0
 24 29  1  6  0  0  0
 24 22  1  0  0  0  0
 25 23  1  0  0  0  0
 26 25  1  0  0  0  0
 26 24  1  0  0  0  0
 27 22  1  0  0  0  0
 27 21  1  0  0  0  0
 29 28  1  0  0  0  0
M  END
>  <MODEL>
1

>  <REMARK>
 VINA RESULT:      -8.5      0.000      0.000
  Name = 
  5 active torsions:
  status: ('A' for Active; 'I' for Inactive)
    1  A    between atoms: C_8  and  C_14
    2  A    between atoms: C_8  and  N_26
    3  A    between atoms: C_9  and  O_11
    4  A    between atoms: C_14  and  C_24
    5  A    between atoms: N_27  and  C_29
                            x       y       z     vdW  Elec       q    Type
                         _______ _______ _______ _____ _____    ______ ____

>  <TORSDO>
F 5

$$$$
=
 OpenBabel10222421093D

 29 32  0  0  1  0  0  0  0  0999 V2000
  185.8420  180.1090  146.8350 O   0  0  0  0  0  0  0  0  0  0  0  0
  185.3760  178.9010  146.0710 S   0  0  0  0  0  0  0  0  0  0  0  0
  184.4570  178.0790  146.9300 O   0  0  0  0  0  0  0  0  0  0  0  0
  186.5800  177.1080  144.3750 C   0  0  0  0  0  2  0  0  0  0  0  0
  185.1340  180.5730  144.1000 F   0  0  0  0  0  0  0  0  0  0  0  0
  185.9670  177.8980  143.2230 C   0  0  0  0  0  2  0  0  0  0  0  0
  184.5220  179.4370  144.6030 C   0  0  1  0  0  3  0  0  0  0  0  0
  184.5380  178.3140  143.5620 C   0  0  1  0  0  3  0  0  0  0  0  0
  186.7310  177.9380  145.5680 N   0  0  2  0  0  0  0  0  0  0  0  0
  191.7630  176.8000  146.0040 N   0  0  0  0  0  0  0  0  0  0  0  0
  187.9180  177.9480  147.8130 C   0  0  0  0  0  3  0  0  0  0  0  0
  189.9030  177.3870  147.2340 C   0  0  0  0  0  0  0  0  0  0  0  0
  189.7010  177.1340  144.8490 N   0  0  0  0  0  0  0  0  0  0  0  0
  189.1450  177.4110  146.0480 C   0  0  0  0  0  0  0  0  0  0  0  0
  191.0340  176.8220  144.8360 C   0  0  0  0  0  0  0  0  0  0  0  0
  191.2160  177.0800  147.1950 N   0  0  0  0  0  0  0  0  0  0  0  0
  191.7010  176.5050  143.5470 C   0  0  0  0  0  1  0  0  0  0  0  0
  189.1660  177.7120  148.3090 N   0  0  0  0  0  0  0  0  0  0  0  0
  187.8750  177.7700  146.4210 C   0  0  2  0  0  3  0  0  0  0  0  0
  183.8160  178.7370  142.2930 C   0  0  0  0  0  2  0  0  0  0  0  0
  184.7610  178.6850  141.1040 C   0  0  0  0  0  2  0  0  0  0  0  0
  183.1510  179.5460  139.6450 C   0  0  0  0  0  2  0  0  0  0  0  0
  183.1780  177.2200  140.1740 C   0  0  0  0  0  2  0  0  0  0  0  0
  182.4310  179.3690  138.3000 C   0  0  1  0  0  3  0  0  0  0  0  0
  182.0450  177.0160  139.1510 C   0  0  0  0  0  2  0  0  0  0  0  0
  182.2020  177.8990  137.9120 C   0  0  0  0  0  2  0  0  0  0  0  0
  184.0130  178.3950  139.8940 N   0  0  0  0  0  0  0  0  0  0  0  0
  181.6470  181.5240  138.3690 C   0  0  0  0  0  1  0  0  0  0  0  0
  181.2850  180.1830  138.1620 O   0  0  0  0  0  0  0  0  0  0  0  0
  2  1  2  0  0  0  0
  2  3  2  0  0  0  0
  6  8  1  0  0  0  0
  6  4  1  0  0  0  0
  7  5  1  6  0  0  0
  7  2  1  0  0  0  0
  8 20  1  6  0  0  0
  8  7  1  0  0  0  0
  9  4  1  1  0  0  0
  9  2  1  0  0  0  0
  9 19  1  0  0  0  0
 10 16  1  0  0  0  0
 11 18  2  0  0  0  0
 12 18  1  0  0  0  0
 13 14  2  0  0  0  0
 14 19  1  0  0  0  0
 14 12  1  0  0  0  0
 15 13  1  0  0  0  0
 15 10  2  0  0  0  0
 16 12  2  0  0  0  0
 17 15  1  0  0  0  0
 19 11  1  6  0  0  0
 21 20  1  0  0  0  0
 22 27  1  0  0  0  0
 24 29  1  1  0  0  0
 24 22  1  0  0  0  0
 25 23  1  0  0  0  0
 26 24  1  0  0  0  0
 26 25  1  0  0  0  0
 27 23  1  0  0  0  0
 27 21  1  0  0  0  0
 29 28  1  0  0  0  0
M  END
>  <MODEL>
2

>  <REMARK>
 VINA RESULT:      -8.4      1.264      1.669
  Name = 
  5 active torsions:
  status: ('A' for Active; 'I' for Inactive)
    1  A    between atoms: C_8  and  C_14
    2  A    between atoms: C_8  and  N_26
    3  A    between atoms: C_9  and  O_11
    4  A    between atoms: C_14  and  C_24
    5  A    between atoms: N_27  and  C_29
                            x       y       z     vdW  Elec       q    Type
                         _______ _______ _______ _____ _____    ______ ____

>  <TORSDO>
F 5

$$$$
=
 OpenBabel10222421093D

 29 32  0  0  1  0  0  0  0  0999 V2000
  191.4490  177.6470  145.3660 O   0  0  0  0  0  0  0  0  0  0  0  0
  190.8080  178.2390  144.1430 S   0  0  0  0  0  0  0  0  0  0  0  0
  190.9700  179.7330  144.1560 O   0  0  0  0  0  0  0  0  0  0  0  0
  188.4760  177.7750  142.7690 C   0  0  0  0  0  2  0  0  0  0  0  0
  191.9050  176.2270  142.9230 F   0  0  0  0  0  0  0  0  0  0  0  0
  189.3090  176.9730  141.7730 C   0  0  0  0  0  2  0  0  0  0  0  0
  191.5830  177.5540  142.6930 C   0  0  1  0  0  3  0  0  0  0  0  0
  190.6340  177.6770  141.4980 C   0  0  1  0  0  3  0  0  0  0  0  0
  189.1210  177.8290  144.0790 N   0  0  2  0  0  0  0  0  0  0  0  0
  184.5390  178.6400  146.3480 N   0  0  0  0  0  0  0  0  0  0  0  0
  188.7420  177.3480  146.5430 C   0  0  0  0  0  3  0  0  0  0  0  0
  186.6890  177.9170  146.7650 C   0  0  0  0  0  0  0  0  0  0  0  0
  186.0970  178.6190  144.5400 N   0  0  0  0  0  0  0  0  0  0  0  0
  187.0120  178.1490  145.4150 C   0  0  0  0  0  0  0  0  0  0  0  0
  184.8420  178.8690  145.0240 C   0  0  0  0  0  0  0  0  0  0  0  0
  185.4430  178.1680  147.2180 N   0  0  0  0  0  0  0  0  0  0  0  0
  183.7930  179.3910  144.1110 C   0  0  0  0  0  1  0  0  0  0  0  0
  187.7320  177.4310  147.4560 N   0  0  0  0  0  0  0  0  0  0  0  0
  188.3260  177.7840  145.2750 C   0  0  2  0  0  3  0  0  0  0  0  0
  191.2650  177.1020  140.2400 C   0  0  0  0  0  2  0  0  0  0  0  0
  190.2320  176.3300  139.4360 C   0  0  0  0  0  2  0  0  0  0  0  0
  188.7980  177.7780  138.2920 C   0  0  0  0  0  2  0  0  0  0  0  0
  189.7900  175.9230  137.1650 C   0  0  0  0  0  2  0  0  0  0  0  0
  188.5840  178.6090  137.0180 C   0  0  1  0  0  3  0  0  0  0  0  0
  189.1610  176.4350  135.8550 C   0  0  0  0  0  2  0  0  0  0  0  0
  189.1700  177.9610  135.7520 C   0  0  0  0  0  2  0  0  0  0  0  0
  190.0150  176.9830  138.1570 N   0  0  0  0  0  0  0  0  0  0  0  0
  186.3930  178.2310  137.5820 C   0  0  0  0  0  1  0  0  0  0  0  0
  187.2580  179.0710  136.8610 O   0  0  0  0  0  0  0  0  0  0  0  0
  2  3  2  0  0  0  0
  2  1  2  0  0  0  0
  6  4  1  0  0  0  0
  7  5  1  1  0  0  0
  7  2  1  0  0  0  0
  8 20  1  6  0  0  0
  8  6  1  0  0  0  0
  8  7  1  0  0  0  0
  9  4  1  6  0  0  0
  9  2  1  0  0  0  0
  9 19  1  0  0  0  0
 10 16  1  0  0  0  0
 11 18  2  0  0  0  0
 12 16  2  0  0  0  0
 12 18  1  0  0  0  0
 13 15  1  0  0  0  0
 13 14  2  0  0  0  0
 14 12  1  0  0  0  0
 15 10  2  0  0  0  0
 17 15  1  0  0  0  0
 19 14  1  0  0  0  0
 19 11  1  6  0  0  0
 21 20  1  0  0  0  0
 23 27  1  0  0  0  0
 24 29  1  6  0  0  0
 24 22  1  0  0  0  0
 25 23  1  0  0  0  0
 26 25  1  0  0  0  0
 26 24  1  0  0  0  0
 27 22  1  0  0  0  0
 27 21  1  0  0  0  0
 29 28  1  0  0  0  0
M  END
>  <MODEL>
3

>  <REMARK>
 VINA RESULT:      -8.3      3.899      5.734
  Name = 
  5 active torsions:
  status: ('A' for Active; 'I' for Inactive)
    1  A    between atoms: C_8  and  C_14
    2  A    between atoms: C_8  and  N_26
    3  A    between atoms: C_9  and  O_11
    4  A    between atoms: C_14  and  C_24
    5  A    between atoms: N_27  and  C_29
                            x       y       z     vdW  Elec       q    Type
                         _______ _______ _______ _____ _____    ______ ____

>  <TORSDO>
F 5

$$$$
=
 OpenBabel10222421093D

 29 32  0  0  1  0  0  0  0  0999 V2000
  191.4970  177.7920  145.4670 O   0  0  0  0  0  0  0  0  0  0  0  0
  190.8250  178.2680  144.2090 S   0  0  0  0  0  0  0  0  0  0  0  0
  190.9360  179.7630  144.1070 O   0  0  0  0  0  0  0  0  0  0  0  0
  188.4980  177.6230  142.9020 C   0  0  0  0  0  2  0  0  0  0  0  0
  191.9780  176.2050  143.1330 F   0  0  0  0  0  0  0  0  0  0  0  0
  189.3480  176.7760  141.9600 C   0  0  0  0  0  2  0  0  0  0  0  0
  191.6100  177.5000  142.8070 C   0  0  1  0  0  3  0  0  0  0  0  0
  190.6470  177.4990  141.6170 C   0  0  1  0  0  3  0  0  0  0  0  0
  189.1530  177.7980  144.1960 N   0  0  2  0  0  0  0  0  0  0  0  0
  184.5660  178.6290  146.4500 N   0  0  0  0  0  0  0  0  0  0  0  0
  188.8130  177.4960  146.6940 C   0  0  0  0  0  3  0  0  0  0  0  0
  186.7430  178.0120  146.8960 C   0  0  0  0  0  0  0  0  0  0  0  0
  186.1080  178.5210  144.6310 N   0  0  0  0  0  0  0  0  0  0  0  0
  187.0460  178.1500  145.5280 C   0  0  0  0  0  0  0  0  0  0  0  0
  184.8490  178.7660  145.1090 C   0  0  0  0  0  0  0  0  0  0  0  0
  185.4940  178.2550  147.3420 N   0  0  0  0  0  0  0  0  0  0  0  0
  183.7750  179.1810  144.1700 C   0  0  0  0  0  1  0  0  0  0  0  0
  187.8090  177.6150  147.6100 N   0  0  0  0  0  0  0  0  0  0  0  0
  188.3710  177.8180  145.4020 C   0  0  2  0  0  3  0  0  0  0  0  0
  191.2850  176.8510  140.4000 C   0  0  0  0  0  2  0  0  0  0  0  0
  190.2830  176.7630  139.2610 C   0  0  0  0  0  2  0  0  0  0  0  0
  191.9360  175.7330  137.9690 C   0  0  0  0  0  2  0  0  0  0  0  0
  189.6480  175.6350  137.3000 C   0  0  0  0  0  2  0  0  0  0  0  0
  192.3500  174.4600  137.2150 C   0  0  1  0  0  3  0  0  0  0  0  0
  190.0670  174.7030  136.1480 C   0  0  0  0  0  2  0  0  0  0  0  0
  191.1730  173.7270  136.5490 C   0  0  0  0  0  2  0  0  0  0  0  0
  190.5640  175.5930  138.4470 N   0  0  0  0  0  0  0  0  0  0  0  0
  193.8230  176.0020  136.3690 C   0  0  0  0  0  1  0  0  0  0  0  0
  193.4630  174.6450  136.3640 O   0  0  0  0  0  0  0  0  0  0  0  0
  2  1  2  0  0  0  0
  3  2  2  0  0  0  0
  6  4  1  0  0  0  0
  7  5  1  1  0  0  0
  7  2  1  0  0  0  0
  8 20  1  6  0  0  0
  8  6  1  0  0  0  0
  8  7  1  0  0  0  0
  9  4  1  6  0  0  0
  9  2  1  0  0  0  0
  9 19  1  0  0  0  0
 10 16  1  0  0  0  0
 11 18  2  0  0  0  0
 12 16  2  0  0  0  0
 12 18  1  0  0  0  0
 13 15  1  0  0  0  0
 13 14  2  0  0  0  0
 14 12  1  0  0  0  0
 15 10  2  0  0  0  0
 17 15  1  0  0  0  0
 19 14  1  0  0  0  0
 19 11  1  6  0  0  0
 21 20  1  0  0  0  0
 22 27  1  0  0  0  0
 23 27  1  0  0  0  0
 24 29  1  6  0  0  0
 24 22  1  0  0  0  0
 25 26  1  0  0  0  0
 25 23  1  0  0  0  0
 26 24  1  0  0  0  0
 27 21  1  0  0  0  0
 29 28  1  0  0  0  0
M  END
>  <MODEL>
4

>  <REMARK>
 VINA RESULT:      -8.1      4.886      6.860
  Name = 
  5 active torsions:
  status: ('A' for Active; 'I' for Inactive)
    1  A    between atoms: C_8  and  C_14
    2  A    between atoms: C_8  and  N_26
    3  A    between atoms: C_9  and  O_11
    4  A    between atoms: C_14  and  C_24
    5  A    between atoms: N_27  and  C_29
                            x       y       z     vdW  Elec       q    Type
                         _______ _______ _______ _____ _____    ______ ____

>  <TORSDO>
F 5

$$$$
=
 OpenBabel10222421093D

 29 32  0  0  1  0  0  0  0  0999 V2000
  188.3050  175.6480  143.2720 O   0  0  0  0  0  0  0  0  0  0  0  0
  189.7740  175.8230  143.0080 S   0  0  0  0  0  0  0  0  0  0  0  0
  190.4880  174.5170  143.2190 O   0  0  0  0  0  0  0  0  0  0  0  0
  191.6240  177.7640  143.6010 C   0  0  0  0  0  2  0  0  0  0  0  0
  188.9700  177.2360  140.9840 F   0  0  0  0  0  0  0  0  0  0  0  0
  191.4510  178.2620  142.1700 C   0  0  0  0  0  2  0  0  0  0  0  0
  190.0000  176.3790  141.3320 C   0  0  1  0  0  3  0  0  0  0  0  0
  191.3520  177.0860  141.2030 C   0  0  1  0  0  3  0  0  0  0  0  0
  190.4420  177.0360  144.0570 N   0  0  2  0  0  0  0  0  0  0  0  0
  186.6440  178.2210  147.3700 N   0  0  0  0  0  0  0  0  0  0  0  0
  190.7560  176.8690  146.5710 C   0  0  0  0  0  3  0  0  0  0  0  0
  188.8340  177.5070  147.2720 C   0  0  0  0  0  0  0  0  0  0  0  0
  187.6490  177.9440  145.2230 N   0  0  0  0  0  0  0  0  0  0  0  0
  188.7740  177.5640  145.8670 C   0  0  0  0  0  0  0  0  0  0  0  0
  186.5710  178.2790  145.9960 C   0  0  0  0  0  0  0  0  0  0  0  0
  187.7570  177.8390  148.0120 N   0  0  0  0  0  0  0  0  0  0  0  0
  185.3060  178.7090  145.3450 C   0  0  0  0  0  1  0  0  0  0  0  0
  190.0330  177.0860  147.7070 N   0  0  0  0  0  0  0  0  0  0  0  0
  190.0040  177.1550  145.4210 C   0  0  2  0  0  3  0  0  0  0  0  0
  191.5800  177.5740  139.7820 C   0  0  0  0  0  2  0  0  0  0  0  0
  191.2650  176.4690  138.7870 C   0  0  0  0  0  2  0  0  0  0  0  0
  189.5260  177.8550  138.0690 C   0  0  0  0  0  2  0  0  0  0  0  0
  190.1180  175.9140  136.8140 C   0  0  0  0  0  2  0  0  0  0  0  0
  188.9030  178.5990  136.8780 C   0  0  1  0  0  3  0  0  0  0  0  0
  189.0940  176.3430  135.7460 C   0  0  0  0  0  2  0  0  0  0  0  0
  189.0550  177.8580  135.5390 C   0  0  0  0  0  2  0  0  0  0  0  0
  190.6410  177.0360  137.6050 N   0  0  0  0  0  0  0  0  0  0  0  0
  186.9320  178.1540  137.9650 C   0  0  0  0  0  1  0  0  0  0  0  0
  187.5940  179.0670  137.1270 O   0  0  0  0  0  0  0  0  0  0  0  0
  2  3  2  0  0  0  0
  2  1  2  0  0  0  0
  2  9  1  0  0  0  0
  6  4  1  0  0  0  0
  7  5  1  1  0  0  0
  7  2  1  0  0  0  0
  8 20  1  6  0  0  0
  8  7  1  0  0  0  0
  8  6  1  0  0  0  0
  9  4  1  1  0  0  0
  9 19  1  0  0  0  0
 10 16  1  0  0  0  0
 11 18  2  0  0  0  0
 12 18  1  0  0  0  0
 12 16  2  0  0  0  0
 13 14  2  0  0  0  0
 13 15  1  0  0  0  0
 14 12  1  0  0  0  0
 15 10  2  0  0  0  0
 17 15  1  0  0  0  0
 19 14  1  0  0  0  0
 19 11  1  6  0  0  0
 21 20  1  0  0  0  0
 23 27  1  0  0  0  0
 24 29  1  1  0  0  0
 24 22  1  0  0  0  0
 25 23  1  0  0  0  0
 26 25  1  0  0  0  0
 26 24  1  0  0  0  0
 27 22  1  0  0  0  0
 27 21  1  0  0  0  0
 29 28  1  0  0  0  0
M  END
>  <MODEL>
5

>  <REMARK>
 VINA RESULT:      -7.8      3.989      5.684
  Name = 
  5 active torsions:
  status: ('A' for Active; 'I' for Inactive)
    1  A    between atoms: C_8  and  C_14
    2  A    between atoms: C_8  and  N_26
    3  A    between atoms: C_9  and  O_11
    4  A    between atoms: C_14  and  C_24
    5  A    between atoms: N_27  and  C_29
                            x       y       z     vdW  Elec       q    Type
                         _______ _______ _______ _____ _____    ______ ____

>  <TORSDO>
F 5

$$$$
=
 OpenBabel10222421093D

 29 32  0  0  1  0  0  0  0  0999 V2000
  191.6780  177.4960  142.4850 O   0  0  0  0  0  0  0  0  0  0  0  0
  190.3760  176.9650  141.9520 S   0  0  0  0  0  0  0  0  0  0  0  0
  190.1820  175.5450  142.4030 O   0  0  0  0  0  0  0  0  0  0  0  0
  189.0550  177.1500  139.5520 C   0  0  0  0  0  2  0  0  0  0  0  0
  189.4620  179.3040  142.6130 F   0  0  0  0  0  0  0  0  0  0  0  0
  188.1910  178.2310  140.1950 C   0  0  0  0  0  2  0  0  0  0  0  0
  189.0460  177.9840  142.5540 C   0  0  1  0  0  3  0  0  0  0  0  0
  187.8340  177.8460  141.6280 C   0  0  1  0  0  3  0  0  0  0  0  0
  190.3520  177.0420  140.2170 N   0  0  2  0  0  0  0  0  0  0  0  0
  192.5940  174.3180  136.4270 N   0  0  0  0  0  0  0  0  0  0  0  0
  192.7860  177.3850  139.5800 C   0  0  0  0  0  3  0  0  0  0  0  0
  193.0060  175.9530  138.0010 C   0  0  0  0  0  0  0  0  0  0  0  0
  190.8080  174.9810  137.8660 N   0  0  0  0  0  0  0  0  0  0  0  0
  191.6720  175.8460  138.4390 C   0  0  0  0  0  0  0  0  0  0  0  0
  191.2860  174.2060  136.8440 C   0  0  0  0  0  0  0  0  0  0  0  0
  193.4530  175.1800  136.9900 N   0  0  0  0  0  0  0  0  0  0  0  0
  190.3840  173.2330  136.1770 C   0  0  0  0  0  1  0  0  0  0  0  0
  193.6880  176.8840  138.6870 N   0  0  0  0  0  0  0  0  0  0  0  0
  191.5340  176.7640  139.4490 C   0  0  2  0  0  3  0  0  0  0  0  0
  186.6770  178.7030  142.1120 C   0  0  0  0  0  2  0  0  0  0  0  0
  185.8090  177.9190  143.0830 C   0  0  0  0  0  2  0  0  0  0  0  0
  186.8200  177.5190  145.1520 C   0  0  0  0  0  2  0  0  0  0  0  0
  184.6330  178.4670  145.0420 C   0  0  0  0  0  2  0  0  0  0  0  0
  187.1450  178.0920  146.5400 C   0  0  1  0  0  3  0  0  0  0  0  0
  184.6700  178.6260  146.5730 C   0  0  0  0  0  2  0  0  0  0  0  0
  186.0520  179.0220  147.0940 C   0  0  0  0  0  2  0  0  0  0  0  0
  185.9660  178.4530  144.4250 N   0  0  0  0  0  0  0  0  0  0  0  0
  188.3400  177.7510  148.4670 C   0  0  0  0  0  1  0  0  0  0  0  0
  187.5890  177.1200  147.4620 O   0  0  0  0  0  0  0  0  0  0  0  0
  2  3  2  0  0  0  0
  2  1  2  0  0  0  0
  2  7  1  0  0  0  0
  4  6  1  0  0  0  0
  6  8  1  0  0  0  0
  7  5  1  6  0  0  0
  8 20  1  1  0  0  0
  8  7  1  0  0  0  0
  9  4  1  6  0  0  0
  9  2  1  0  0  0  0
 10 15  2  0  0  0  0
 10 16  1  0  0  0  0
 12 14  1  0  0  0  0
 12 18  1  0  0  0  0
 13 14  2  0  0  0  0
 14 19  1  0  0  0  0
 15 13  1  0  0  0  0
 16 12  2  0  0  0  0
 17 15  1  0  0  0  0
 18 11  2  0  0  0  0
 19 11  1  6  0  0  0
 19  9  1  0  0  0  0
 20 21  1  0  0  0  0
 21 27  1  0  0  0  0
 22 24  1  0  0  0  0
 23 25  1  0  0  0  0
 24 26  1  0  0  0  0
 24 29  1  1  0  0  0
 25 26  1  0  0  0  0
 27 23  1  0  0  0  0
 27 22  1  0  0  0  0
 29 28  1  0  0  0  0
M  END
>  <MODEL>
6

>  <REMARK>
 VINA RESULT:      -7.7      5.117      7.815
  Name = 
  5 active torsions:
  status: ('A' for Active; 'I' for Inactive)
    1  A    between atoms: C_8  and  C_14
    2  A    between atoms: C_8  and  N_26
    3  A    between atoms: C_9  and  O_11
    4  A    between atoms: C_14  and  C_24
    5  A    between atoms: N_27  and  C_29
                            x       y       z     vdW  Elec       q    Type
                         _______ _______ _______ _____ _____    ______ ____

>  <TORSDO>
F 5

$$$$
=
 OpenBabel10222421093D

 29 32  0  0  1  0  0  0  0  0999 V2000
  187.0420  178.2340  138.3860 O   0  0  0  0  0  0  0  0  0  0  0  0
  188.4380  178.3380  138.9340 S   0  0  0  0  0  0  0  0  0  0  0  0
  189.1120  179.5620  138.3830 O   0  0  0  0  0  0  0  0  0  0  0  0
  190.4630  176.5450  139.4060 C   0  0  0  0  0  2  0  0  0  0  0  0
  187.3220  177.6370  141.1720 F   0  0  0  0  0  0  0  0  0  0  0  0
  190.0370  176.5610  140.8710 C   0  0  0  0  0  2  0  0  0  0  0  0
  188.3570  178.4340  140.7110 C   0  0  1  0  0  3  0  0  0  0  0  0
  189.6900  177.9810  141.3100 C   0  0  1  0  0  3  0  0  0  0  0  0
  189.3590  176.9230  138.5270 N   0  0  2  0  0  0  0  0  0  0  0  0
  186.6720  173.6600  135.5370 N   0  0  0  0  0  0  0  0  0  0  0  0
  190.0170  176.4620  136.1190 C   0  0  0  0  0  3  0  0  0  0  0  0
  188.5090  175.0540  135.5390 C   0  0  0  0  0  0  0  0  0  0  0  0
  187.1870  174.8510  137.5400 N   0  0  0  0  0  0  0  0  0  0  0  0
  188.2390  175.3820  136.8810 C   0  0  0  0  0  0  0  0  0  0  0  0
  186.3960  173.9740  136.8490 C   0  0  0  0  0  0  0  0  0  0  0  0
  187.7130  174.1900  134.8780 N   0  0  0  0  0  0  0  0  0  0  0  0
  185.2250  173.3540  137.5210 C   0  0  0  0  0  1  0  0  0  0  0  0
  189.5850  175.7050  135.0690 N   0  0  0  0  0  0  0  0  0  0  0  0
  189.2050  176.2840  137.2500 C   0  0  2  0  0  3  0  0  0  0  0  0
  189.6580  178.0510  142.8280 C   0  0  0  0  0  2  0  0  0  0  0  0
  189.4490  176.6660  143.4170 C   0  0  0  0  0  2  0  0  0  0  0  0
  187.7050  177.7620  144.5220 C   0  0  0  0  0  2  0  0  0  0  0  0
  189.7420  177.2790  145.6660 C   0  0  0  0  0  2  0  0  0  0  0  0
  186.8480  177.8240  145.7950 C   0  0  1  0  0  3  0  0  0  0  0  0
  189.0980  177.8210  146.9560 C   0  0  0  0  0  2  0  0  0  0  0  0
  187.6170  177.4570  147.0750 C   0  0  0  0  0  2  0  0  0  0  0  0
  188.7650  176.7730  144.6940 N   0  0  0  0  0  0  0  0  0  0  0  0
  184.7380  178.7120  145.6520 C   0  0  0  0  0  1  0  0  0  0  0  0
  186.0870  179.0090  145.9060 O   0  0  0  0  0  0  0  0  0  0  0  0
  1  2  2  0  0  0  0
  2  7  1  0  0  0  0
  3  2  2  0  0  0  0
  4  6  1  0  0  0  0
  6  8  1  0  0  0  0
  7  5  1  1  0  0  0
  7  8  1  0  0  0  0
  8 20  1  1  0  0  0
  9  2  1  0  0  0  0
  9  4  1  6  0  0  0
 10 15  2  0  0  0  0
 12 14  1  0  0  0  0
 14 19  1  0  0  0  0
 14 13  2  0  0  0  0
 15 17  1  0  0  0  0
 15 13  1  0  0  0  0
 16 10  1  0  0  0  0
 16 12  2  0  0  0  0
 18 12  1  0  0  0  0
 18 11  2  0  0  0  0
 19 11  1  6  0  0  0
 19  9  1  0  0  0  0
 20 21  1  0  0  0  0
 21 27  1  0  0  0  0
 22 27  1  0  0  0  0
 22 24  1  0  0  0  0
 23 25  1  0  0  0  0
 24 29  1  1  0  0  0
 24 26  1  0  0  0  0
 25 26  1  0  0  0  0
 27 23  1  0  0  0  0
 28 29  1  0  0  0  0
M  END
>  <MODEL>
7

>  <REMARK>
 VINA RESULT:      -7.6      4.620      8.893
  Name = 
  5 active torsions:
  status: ('A' for Active; 'I' for Inactive)
    1  A    between atoms: C_8  and  C_14
    2  A    between atoms: C_8  and  N_26
    3  A    between atoms: C_9  and  O_11
    4  A    between atoms: C_14  and  C_24
    5  A    between atoms: N_27  and  C_29
                            x       y       z     vdW  Elec       q    Type
                         _______ _______ _______ _____ _____    ______ ____

>  <TORSDO>
F 5

$$$$
=
 OpenBabel10222421093D

 29 32  0  0  1  0  0  0  0  0999 V2000
  191.5120  177.1650  137.7750 O   0  0  0  0  0  0  0  0  0  0  0  0
  190.7370  176.6020  138.9330 S   0  0  0  0  0  0  0  0  0  0  0  0
  190.4940  175.1350  138.7170 O   0  0  0  0  0  0  0  0  0  0  0  0
  188.6150  177.4740  140.4420 C   0  0  0  0  0  2  0  0  0  0  0  0
  192.3320  178.0650  140.3660 F   0  0  0  0  0  0  0  0  0  0  0  0
  189.6320  177.8820  141.5030 C   0  0  0  0  0  2  0  0  0  0  0  0
  191.6680  176.8520  140.4300 C   0  0  1  0  0  3  0  0  0  0  0  0
  190.7220  176.8220  141.6330 C   0  0  1  0  0  3  0  0  0  0  0  0
  189.2210  177.4310  139.1130 N   0  0  2  0  0  0  0  0  0  0  0  0
  185.7860  176.2250  135.4310 N   0  0  0  0  0  0  0  0  0  0  0  0
  188.4760  179.1200  137.3710 C   0  0  0  0  0  3  0  0  0  0  0  0
  187.1060  177.9470  136.2150 C   0  0  0  0  0  0  0  0  0  0  0  0
  187.1680  175.8170  137.3350 N   0  0  0  0  0  0  0  0  0  0  0  0
  187.5910  177.0940  137.2250 C   0  0  0  0  0  0  0  0  0  0  0  0
  186.2510  175.3820  136.4160 C   0  0  0  0  0  0  0  0  0  0  0  0
  186.2000  177.4950  135.3230 N   0  0  0  0  0  0  0  0  0  0  0  0
  185.7510  173.9840  136.4840 C   0  0  0  0  0  1  0  0  0  0  0  0
  187.6370  179.1770  136.2960 N   0  0  0  0  0  0  0  0  0  0  0  0
  188.4670  177.8480  137.9640 C   0  0  2  0  0  3  0  0  0  0  0  0
  191.4840  177.0320  142.9310 C   0  0  0  0  0  2  0  0  0  0  0  0
  191.0820  178.3490  143.5740 C   0  0  0  0  0  2  0  0  0  0  0  0
  191.5330  176.9980  145.4270 C   0  0  0  0  0  2  0  0  0  0  0  0
  189.3140  177.7680  145.0070 C   0  0  0  0  0  2  0  0  0  0  0  0
  191.3220  176.7980  146.9350 C   0  0  1  0  0  3  0  0  0  0  0  0
  188.8830  177.1270  146.3400 C   0  0  0  0  0  2  0  0  0  0  0  0
  189.9440  177.2650  147.4330 C   0  0  0  0  0  2  0  0  0  0  0  0
  190.7360  178.1310  144.9680 N   0  0  0  0  0  0  0  0  0  0  0  0
  192.8040  175.6280  148.2380 C   0  0  0  0  0  1  0  0  0  0  0  0
  191.6890  175.5130  147.3910 O   0  0  0  0  0  0  0  0  0  0  0  0
  1  2  2  0  0  0  0
  2  9  1  0  0  0  0
  2  7  1  0  0  0  0
  3  2  2  0  0  0  0
  4  6  1  0  0  0  0
  6  8  1  0  0  0  0
  7  5  1  6  0  0  0
  7  8  1  0  0  0  0
  8 20  1  1  0  0  0
  9  4  1  6  0  0  0
 10 15  2  0  0  0  0
 12 18  1  0  0  0  0
 12 14  1  0  0  0  0
 14 13  2  0  0  0  0
 14 19  1  0  0  0  0
 15 17  1  0  0  0  0
 15 13  1  0  0  0  0
 16 10  1  0  0  0  0
 16 12  2  0  0  0  0
 18 11  2  0  0  0  0
 19 11  1  1  0  0  0
 19  9  1  0  0  0  0
 20 21  1  0  0  0  0
 21 27  1  0  0  0  0
 22 24  1  0  0  0  0
 23 25  1  0  0  0  0
 24 29  1  6  0  0  0
 24 26  1  0  0  0  0
 25 26  1  0  0  0  0
 27 23  1  0  0  0  0
 27 22  1  0  0  0  0
 29 28  1  0  0  0  0
M  END
>  <MODEL>
8

>  <REMARK>
 VINA RESULT:      -7.6      4.755      9.818
  Name = 
  5 active torsions:
  status: ('A' for Active; 'I' for Inactive)
    1  A    between atoms: C_8  and  C_14
    2  A    between atoms: C_8  and  N_26
    3  A    between atoms: C_9  and  O_11
    4  A    between atoms: C_14  and  C_24
    5  A    between atoms: N_27  and  C_29
                            x       y       z     vdW  Elec       q    Type
                         _______ _______ _______ _____ _____    ______ ____

>  <TORSDO>
F 5

$$$$
=
 OpenBabel10222421093D

 29 32  0  0  1  0  0  0  0  0999 V2000
  191.6420  176.7640  143.5210 O   0  0  0  0  0  0  0  0  0  0  0  0
  190.3430  176.4000  142.8580 S   0  0  0  0  0  0  0  0  0  0  0  0
  190.1820  174.9070  142.8370 O   0  0  0  0  0  0  0  0  0  0  0  0
  188.9840  177.3060  140.6500 C   0  0  0  0  0  2  0  0  0  0  0  0
  189.3950  178.3890  144.2330 F   0  0  0  0  0  0  0  0  0  0  0  0
  188.1090  178.1080  141.6090 C   0  0  0  0  0  2  0  0  0  0  0  0
  189.0030  177.1470  143.7620 C   0  0  1  0  0  3  0  0  0  0  0  0
  187.7810  177.2820  142.8490 C   0  0  1  0  0  3  0  0  0  0  0  0
  190.2920  177.0220  141.2370 N   0  0  2  0  0  0  0  0  0  0  0  0
  192.6320  175.4160  136.9060 N   0  0  0  0  0  0  0  0  0  0  0  0
  192.6670  177.7130  140.6610 C   0  0  0  0  0  3  0  0  0  0  0  0
  192.9560  176.6920  138.8000 C   0  0  0  0  0  0  0  0  0  0  0  0
  190.8450  175.5810  138.4790 N   0  0  0  0  0  0  0  0  0  0  0  0
  191.6510  176.3720  139.2190 C   0  0  0  0  0  0  0  0  0  0  0  0
  191.3530  175.0970  137.3050 C   0  0  0  0  0  0  0  0  0  0  0  0
  193.4330  176.2050  137.6360 N   0  0  0  0  0  0  0  0  0  0  0  0
  190.5150  174.2190  136.4480 C   0  0  0  0  0  1  0  0  0  0  0  0
  193.5790  177.5050  139.6680 N   0  0  0  0  0  0  0  0  0  0  0  0
  191.4680  177.0270  140.4100 C   0  0  2  0  0  3  0  0  0  0  0  0
  186.6150  177.9150  143.5890 C   0  0  0  0  0  2  0  0  0  0  0  0
  185.6540  178.5640  142.6060 C   0  0  0  0  0  2  0  0  0  0  0  0
  183.4230  178.9630  142.0350 C   0  0  0  0  0  2  0  0  0  0  0  0
  184.1090  179.0050  144.3200 C   0  0  0  0  0  2  0  0  0  0  0  0
  181.9550  178.6340  142.3420 C   0  0  1  0  0  3  0  0  0  0  0  0
  182.6330  179.1930  144.7170 C   0  0  0  0  0  2  0  0  0  0  0  0
  181.6770  178.3880  143.8350 C   0  0  0  0  0  2  0  0  0  0  0  0
  184.2850  178.3290  143.0280 N   0  0  0  0  0  0  0  0  0  0  0  0
  179.7300  179.1040  142.0350 C   0  0  0  0  0  1  0  0  0  0  0  0
  181.0380  179.5150  141.7280 O   0  0  0  0  0  0  0  0  0  0  0  0
  2  1  2  0  0  0  0
  2  7  1  0  0  0  0
  3  2  2  0  0  0  0
  4  6  1  0  0  0  0
  6  8  1  0  0  0  0
  7  5  1  6  0  0  0
  8 20  1  1  0  0  0
  8  7  1  0  0  0  0
  9  4  1  6  0  0  0
  9  2  1  0  0  0  0
 10 15  2  0  0  0  0
 10 16  1  0  0  0  0
 12 14  1  0  0  0  0
 12 18  1  0  0  0  0
 13 14  2  0  0  0  0
 14 19  1  0  0  0  0
 15 13  1  0  0  0  0
 16 12  2  0  0  0  0
 17 15  1  0  0  0  0
 18 11  2  0  0  0  0
 19 11  1  6  0  0  0
 19  9  1  0  0  0  0
 21 27  1  0  0  0  0
 21 20  1  0  0  0  0
 22 24  1  0  0  0  0
 22 27  1  0  0  0  0
 23 25  1  0  0  0  0
 24 29  1  1  0  0  0
 24 26  1  0  0  0  0
 26 25  1  0  0  0  0
 27 23  1  0  0  0  0
 29 28  1  0  0  0  0
M  END
>  <MODEL>
9

>  <REMARK>
 VINA RESULT:      -7.3      4.827      6.403
  Name = 
  5 active torsions:
  status: ('A' for Active; 'I' for Inactive)
    1  A    between atoms: C_8  and  C_14
    2  A    between atoms: C_8  and  N_26
    3  A    between atoms: C_9  and  O_11
    4  A    between atoms: C_14  and  C_24
    5  A    between atoms: N_27  and  C_29
                            x       y       z     vdW  Elec       q    Type
                         _______ _______ _______ _____ _____    ______ ____

>  <TORSDO>
F 5

$$$$
