=
 OpenBabel10222419233D

 49 55  0  0  1  0  0  0  0  0999 V2000
  186.7190  176.5700  134.5940 O   0  0  0  0  0  0  0  0  0  0  0  0
  186.2470  176.3420  137.4020 C   0  0  2  0  0  3  0  0  0  0  0  0
  184.0820  178.4180  143.2210 C   0  0  0  0  0  1  0  0  0  0  0  0
  189.2950  176.7050  141.3430 C   0  0  0  0  0  2  0  0  0  0  0  0
  190.9150  176.8250  139.4240 C   0  0  0  0  0  0  0  0  0  0  0  0
  189.4160  177.8720  142.3260 C   0  0  1  0  0  3  0  0  0  0  0  0
  185.2780  177.4740  137.0820 C   0  0  0  0  0  2  0  0  0  0  0  0
  184.4450  178.5710  141.9520 C   0  0  0  0  0  0  0  0  0  0  0  0
  189.0350  177.0510  134.7690 C   0  0  0  0  0  2  0  0  0  0  0  0
  185.8310  179.0550  141.6020 C   0  0  0  0  0  0  0  0  0  0  0  0
  183.8210  178.4270  139.6070 N   0  0  0  0  0  0  0  0  0  0  0  0
  187.5600  176.5820  136.7930 N   0  0  0  0  0  0  0  0  0  0  0  0
  188.2790  178.8790  142.1360 C   0  0  0  0  0  2  0  0  0  0  0  0
  185.6640  175.0150  136.9430 C   0  0  0  0  0  1  0  0  0  0  0  0
  191.1220  176.6340  138.1100 C   0  0  0  0  0  0  0  0  0  0  0  0
  183.4900  178.3740  140.9490 O   0  0  0  0  0  0  0  0  0  0  0  0
  189.5440  177.1930  139.9220 C   0  0  1  0  0  3  0  0  0  0  0  0
  191.2690  176.3950  135.1650 O   0  0  0  0  0  0  0  0  0  0  0  0
  190.1540  176.6700  135.6800 C   0  0  0  0  0  0  0  0  0  0  0  0
  188.5260  176.7110  139.0460 O   0  0  0  0  0  0  0  0  0  0  0  0
  186.0980  179.0020  140.1220 C   0  0  0  0  0  3  0  0  0  0  0  0
  189.9670  176.6710  137.1540 C   0  0  0  0  0  0  0  0  0  0  0  0
  186.9030  178.2460  142.3280 C   0  0  0  0  0  2  0  0  0  0  0  0
  185.1790  178.6960  139.2080 C   0  0  0  0  0  0  0  0  0  0  0  0
  191.9800  176.7630  140.3200 O   0  0  0  0  0  1  0  0  0  0  0  0
  187.7120  176.7020  135.3620 C   0  0  0  0  0  0  0  0  0  0  0  0
  188.7110  176.6670  137.6570 C   0  0  0  0  0  0  0  0  0  0  0  0
  185.5810  178.6110  137.8750 O   0  0  0  0  0  0  0  0  0  0  0  0
  178.9310  176.0280  139.3690 C   0  0  0  0  0  3  0  0  0  0  0  0
  180.5590  179.3950  139.0890 C   0  0  0  0  0  3  0  0  0  0  0  0
  181.7360  177.3700  138.9010 C   0  0  0  0  0  0  0  0  0  0  0  0
  181.1920  174.9300  139.2040 C   0  0  0  0  0  3  0  0  0  0  0  0
  179.8760  174.9090  139.3960 C   0  0  0  0  0  3  0  0  0  0  0  0
  181.9830  179.7200  138.6450 C   0  0  0  0  0  3  0  0  0  0  0  0
  180.4680  177.9470  139.1760 N   0  0  0  0  0  0  0  0  0  0  0  0
  182.0530  176.0790  138.9170 C   0  0  0  0  0  3  0  0  0  0  0  0
  179.1790  177.3320  139.2790 C   0  0  0  0  0  3  0  0  0  0  0  0
  182.7580  178.4040  138.6000 C   0  0  1  0  0  3  0  0  0  0  0  0
  192.8080  174.8840  137.6170 C   0  0  0  0  0  1  0  0  0  0  0  0
  192.5190  176.3750  137.6310 C   0  0  0  0  0  2  0  0  0  0  0  0
  189.5550  177.4380  143.7590 C   0  0  0  0  0  0  0  0  0  0  0  0
  190.6860  177.0680  144.1770 O   0  0  0  0  0  0  0  0  0  0  0  0
  189.6610  177.7050  146.7080 C   0  0  0  0  0  3  0  0  0  0  0  0
  188.4130  177.4200  144.6330 N   0  0  0  0  0  0  0  0  0  0  0  0
  188.4100  177.6030  145.9230 C   0  0  0  0  0  0  0  0  0  0  0  0
  189.6250  177.8550  148.0320 C   0  0  0  0  0  3  0  0  0  0  0  0
  187.1010  177.5040  146.6510 C   0  0  0  0  0  2  0  0  0  0  0  0
  188.3710  177.9690  148.7110 N   0  0  0  0  0  2  0  0  0  0  0  0
  187.1410  178.2690  147.9760 C   0  0  0  0  0  2  0  0  0  0  0  0
  1 26  2  0  0  0  0
  2 14  1  6  0  0  0
  4  6  1  0  0  0  0
  5 17  1  0  0  0  0
  5 25  1  0  0  0  0
  6 41  1  1  0  0  0
  7  2  1  0  0  0  0
  7 28  1  0  0  0  0
  8  3  1  0  0  0  0
  9 26  1  0  0  0  0
  9 19  1  0  0  0  0
 10  8  2  0  0  0  0
 10 23  1  0  0  0  0
 11 16  1  0  0  0  0
 12  2  1  0  0  0  0
 12 27  1  0  0  0  0
 13  6  1  0  0  0  0
 13 23  1  0  0  0  0
 15  5  2  0  0  0  0
 16  8  1  0  0  0  0
 17  4  1  1  0  0  0
 18 19  2  0  0  0  0
 19 22  1  0  0  0  0
 20 17  1  0  0  0  0
 21 10  1  0  0  0  0
 22 27  2  0  0  0  0
 22 15  1  0  0  0  0
 24 11  1  0  0  0  0
 24 21  2  0  0  0  0
 26 12  1  0  0  0  0
 27 20  1  0  0  0  0
 28 24  1  0  0  0  0
 29 33  1  0  0  0  0
 30 35  1  0  0  0  0
 31 36  2  0  0  0  0
 31 35  1  0  0  0  0
 32 33  2  0  0  0  0
 34 30  2  0  0  0  0
 35 37  1  0  0  0  0
 36 32  1  0  0  0  0
 37 29  2  0  0  0  0
 38 34  1  1  0  0  0
 38 31  1  0  0  0  0
 38 11  1  0  0  0  0
 39 40  1  0  0  0  0
 40 15  1  0  0  0  0
 41 42  2  0  0  0  0
 41 44  1  0  0  0  0
 43 46  2  0  0  0  0
 44 45  2  0  0  0  0
 45 47  1  0  0  0  0
 45 43  1  0  0  0  0
 46 48  1  0  0  0  0
 47 49  1  0  0  0  0
 49 48  1  0  0  0  0
M  END
>  <MODEL>
1

>  <REMARK>
 VINA RESULT:     -10.2      0.000      0.000
  Name = 
  4 active torsions:
  status: ('A' for Active; 'I' for Inactive)
    1  A    between atoms: C_4  and  C_13
    2  A    between atoms: C_4  and  N_16
    3  A    between atoms: C_10  and  C_25
    4  A    between atoms: N_20  and  C_44
                            x       y       z     vdW  Elec       q    Type
                         _______ _______ _______ _____ _____    ______ ____

>  <TORSDO>
F 4

$$$$
=
 OpenBabel10222419233D

 49 55  0  0  1  0  0  0  0  0999 V2000
  191.7080  176.5320  143.6470 O   0  0  0  0  0  0  0  0  0  0  0  0
  189.0380  176.3950  142.6400 C   0  0  2  0  0  3  0  0  0  0  0  0
  184.0870  178.1890  138.7500 C   0  0  0  0  0  1  0  0  0  0  0  0
  184.6760  177.9480  144.5140 C   0  0  0  0  0  2  0  0  0  0  0  0
  186.2470  178.3900  146.4270 C   0  0  0  0  0  0  0  0  0  0  0  0
  183.8600  179.1720  144.0910 C   0  0  1  0  0  3  0  0  0  0  0  0
  189.6920  177.1630  141.4970 C   0  0  0  0  0  2  0  0  0  0  0  0
  185.2730  178.3420  139.3310 C   0  0  0  0  0  0  0  0  0  0  0  0
  191.1610  177.6870  145.6460 C   0  0  0  0  0  2  0  0  0  0  0  0
  185.4140  179.1840  140.5760 C   0  0  0  0  0  0  0  0  0  0  0  0
  187.6500  177.8380  139.3100 N   0  0  0  0  0  0  0  0  0  0  0  0
  189.4120  176.9640  143.9400 N   0  0  0  0  0  0  0  0  0  0  0  0
  184.4020  179.7810  142.7960 C   0  0  0  0  0  2  0  0  0  0  0  0
  189.4110  174.9240  142.5570 C   0  0  0  0  0  1  0  0  0  0  0  0
  187.4570  178.1660  146.9660 C   0  0  0  0  0  0  0  0  0  0  0  0
  186.4020  177.7940  138.7150 O   0  0  0  0  0  0  0  0  0  0  0  0
  186.0770  178.3750  144.9320 C   0  0  1  0  0  3  0  0  0  0  0  0
  190.2580  177.7520  147.8260 O   0  0  0  0  0  0  0  0  0  0  0  0
  190.0090  177.7260  146.5930 C   0  0  0  0  0  0  0  0  0  0  0  0
  187.0560  177.5480  144.3060 O   0  0  0  0  0  0  0  0  0  0  0  0
  186.7930  179.0970  141.1700 C   0  0  0  0  0  3  0  0  0  0  0  0
  188.6120  177.7860  146.0880 C   0  0  0  0  0  0  0  0  0  0  0  0
  184.3910  178.7870  141.6370 C   0  0  0  0  0  2  0  0  0  0  0  0
  187.8150  178.4630  140.5970 C   0  0  0  0  0  0  0  0  0  0  0  0
  185.1640  178.7160  147.2400 O   0  0  0  0  0  1  0  0  0  0  0  0
  190.7900  177.0110  144.3690 C   0  0  0  0  0  0  0  0  0  0  0  0
  188.3640  177.4510  144.8020 C   0  0  0  0  0  0  0  0  0  0  0  0
  189.0220  178.3960  141.2940 O   0  0  0  0  0  0  0  0  0  0  0  0
  188.3210  175.1860  134.5940 C   0  0  0  0  0  3  0  0  0  0  0  0
  189.2670  178.3780  136.3200 C   0  0  0  0  0  3  0  0  0  0  0  0
  188.4750  176.4790  137.4560 C   0  0  0  0  0  0  0  0  0  0  0  0
  187.5370  174.2390  136.7930 C   0  0  0  0  0  3  0  0  0  0  0  0
  187.6900  174.1980  135.4710 C   0  0  0  0  0  3  0  0  0  0  0  0
  189.4160  178.6320  137.8190 C   0  0  0  0  0  3  0  0  0  0  0  0
  188.7370  177.0330  136.1740 N   0  0  0  0  0  0  0  0  0  0  0  0
  187.9570  175.2860  137.7260 C   0  0  0  0  0  3  0  0  0  0  0  0
  188.7680  176.4040  134.8880 C   0  0  0  0  0  3  0  0  0  0  0  0
  188.8280  177.4240  138.5460 C   0  0  1  0  0  3  0  0  0  0  0  0
  187.5180  176.9330  149.1160 C   0  0  0  0  0  1  0  0  0  0  0  0
  187.6200  178.2950  148.4510 C   0  0  0  0  0  2  0  0  0  0  0  0
  182.3800  178.9120  144.0200 C   0  0  0  0  0  0  0  0  0  0  0  0
  181.8980  177.9510  144.6790 O   0  0  0  0  0  0  0  0  0  0  0  0
  181.0370  178.0070  141.5390 C   0  0  0  0  0  3  0  0  0  0  0  0
  181.5330  179.7290  143.1930 N   0  0  0  0  0  0  0  0  0  0  0  0
  180.8710  179.3510  142.1360 C   0  0  0  0  0  0  0  0  0  0  0  0
  180.3720  177.6650  140.4360 C   0  0  0  0  0  3  0  0  0  0  0  0
  180.0720  180.3830  141.3940 C   0  0  0  0  0  2  0  0  0  0  0  0
  179.4470  178.5770  139.8380 N   0  0  0  0  0  2  0  0  0  0  0  0
  178.9490  179.7370  140.5780 C   0  0  0  0  0  2  0  0  0  0  0  0
  1 26  2  0  0  0  0
  2 14  1  1  0  0  0
  2 12  1  0  0  0  0
  3  8  1  0  0  0  0
  5 15  2  0  0  0  0
  5 25  1  0  0  0  0
  6 41  1  6  0  0  0
  6  4  1  0  0  0  0
  7  2  1  0  0  0  0
  8 10  2  0  0  0  0
  9 19  1  0  0  0  0
 10 21  1  0  0  0  0
 10 23  1  0  0  0  0
 11 24  1  0  0  0  0
 12 26  1  0  0  0  0
 12 27  1  0  0  0  0
 13  6  1  0  0  0  0
 15 40  1  0  0  0  0
 16 11  1  0  0  0  0
 16  8  1  0  0  0  0
 17  4  1  1  0  0  0
 17  5  1  0  0  0  0
 19 18  2  0  0  0  0
 20 27  1  0  0  0  0
 20 17  1  0  0  0  0
 22 19  1  0  0  0  0
 22 15  1  0  0  0  0
 23 13  1  0  0  0  0
 24 21  2  0  0  0  0
 24 28  1  0  0  0  0
 26  9  1  0  0  0  0
 27 22  2  0  0  0  0
 28  7  1  0  0  0  0
 29 37  2  0  0  0  0
 29 33  1  0  0  0  0
 30 34  2  0  0  0  0
 31 36  2  0  0  0  0
 31 38  1  0  0  0  0
 32 36  1  0  0  0  0
 33 32  2  0  0  0  0
 35 30  1  0  0  0  0
 35 31  1  0  0  0  0
 37 35  1  0  0  0  0
 38 34  1  6  0  0  0
 38 11  1  0  0  0  0
 40 39  1  0  0  0  0
 41 42  2  0  0  0  0
 43 45  1  0  0  0  0
 44 41  1  0  0  0  0
 45 44  2  0  0  0  0
 46 43  2  0  0  0  0
 47 45  1  0  0  0  0
 48 46  1  0  0  0  0
 48 49  1  0  0  0  0
 49 47  1  0  0  0  0
M  END
>  <MODEL>
2

>  <REMARK>
 VINA RESULT:      -8.6      2.370      8.213
  Name = 
  4 active torsions:
  status: ('A' for Active; 'I' for Inactive)
    1  A    between atoms: C_4  and  C_13
    2  A    between atoms: C_4  and  N_16
    3  A    between atoms: C_10  and  C_25
    4  A    between atoms: N_20  and  C_44
                            x       y       z     vdW  Elec       q    Type
                         _______ _______ _______ _____ _____    ______ ____

>  <TORSDO>
F 4

$$$$
=
 OpenBabel10222419233D

 49 55  0  0  1  0  0  0  0  0999 V2000
  191.2110  176.3380  144.9920 O   0  0  0  0  0  0  0  0  0  0  0  0
  189.3800  175.9680  142.8300 C   0  0  2  0  0  3  0  0  0  0  0  0
  187.1740  176.8640  136.7310 C   0  0  0  0  0  1  0  0  0  0  0  0
  184.8310  177.8340  141.9470 C   0  0  0  0  0  2  0  0  0  0  0  0
  185.2950  178.6800  144.2690 C   0  0  0  0  0  0  0  0  0  0  0  0
  184.4490  178.9350  140.9540 C   0  0  1  0  0  3  0  0  0  0  0  0
  190.5810  176.4880  142.0480 C   0  0  0  0  0  2  0  0  0  0  0  0
  187.9300  177.1470  137.7870 C   0  0  0  0  0  0  0  0  0  0  0  0
  189.8670  177.8790  146.1950 C   0  0  0  0  0  2  0  0  0  0  0  0
  187.5220  178.2310  138.7550 C   0  0  0  0  0  0  0  0  0  0  0  0
  189.9510  176.6730  139.0520 N   0  0  0  0  0  0  0  0  0  0  0  0
  189.1200  176.7990  144.0110 N   0  0  0  0  0  0  0  0  0  0  0  0
  185.6130  179.2670  140.0170 C   0  0  0  0  0  2  0  0  0  0  0  0
  189.6030  174.5160  143.2180 C   0  0  0  0  0  1  0  0  0  0  0  0
  186.0570  178.5850  145.3720 C   0  0  0  0  0  0  0  0  0  0  0  0
  189.1580  176.4940  137.9320 O   0  0  0  0  0  0  0  0  0  0  0  0
  185.8800  178.3530  142.9220 C   0  0  1  0  0  3  0  0  0  0  0  0
  188.0210  178.3870  147.5760 O   0  0  0  0  0  0  0  0  0  0  0  0
  188.4080  178.1020  146.4130 C   0  0  0  0  0  0  0  0  0  0  0  0
  186.9560  177.4230  143.0350 O   0  0  0  0  0  0  0  0  0  0  0  0
  188.4160  178.2830  139.9640 C   0  0  0  0  0  3  0  0  0  0  0  0
  187.4520  178.0420  145.2770 C   0  0  0  0  0  0  0  0  0  0  0  0
  186.0770  178.0530  139.2150 C   0  0  0  0  0  2  0  0  0  0  0  0
  189.5220  177.5540  140.1080 C   0  0  0  0  0  0  0  0  0  0  0  0
  183.9890  179.1570  144.3550 O   0  0  0  0  0  1  0  0  0  0  0  0
  190.1070  176.9470  145.0550 C   0  0  0  0  0  0  0  0  0  0  0  0
  187.8360  177.4440  144.1260 C   0  0  0  0  0  0  0  0  0  0  0  0
  190.2180  177.6460  141.3130 O   0  0  0  0  0  0  0  0  0  0  0  0
  193.0670  174.2460  135.2930 C   0  0  0  0  0  3  0  0  0  0  0  0
  193.0810  177.1270  137.6940 C   0  0  0  0  0  3  0  0  0  0  0  0
  191.5930  175.3170  137.8560 C   0  0  0  0  0  0  0  0  0  0  0  0
  191.0360  173.3050  136.4470 C   0  0  0  0  0  3  0  0  0  0  0  0
  191.9470  173.3220  135.4770 C   0  0  0  0  0  3  0  0  0  0  0  0
  192.3240  177.2600  139.0140 C   0  0  0  0  0  3  0  0  0  0  0  0
  192.6210  175.8990  137.0690 N   0  0  0  0  0  0  0  0  0  0  0  0
  190.9070  174.2090  137.5920 C   0  0  0  0  0  3  0  0  0  0  0  0
  193.3600  175.3550  135.9690 C   0  0  0  0  0  3  0  0  0  0  0  0
  191.3070  176.1210  139.0710 C   0  0  1  0  0  3  0  0  0  0  0  0
  184.7260  177.8770  147.3390 C   0  0  0  0  0  1  0  0  0  0  0  0
  185.4810  179.0220  146.6850 C   0  0  0  0  0  2  0  0  0  0  0  0
  183.1780  178.6510  140.2020 C   0  0  0  0  0  0  0  0  0  0  0  0
  182.5030  177.6310  140.5090 O   0  0  0  0  0  0  0  0  0  0  0  0
  180.7070  180.2850  140.2140 C   0  0  0  0  0  3  0  0  0  0  0  0
  182.7530  179.5130  139.1330 N   0  0  0  0  0  0  0  0  0  0  0  0
  181.7130  180.2980  139.1270 C   0  0  0  0  0  0  0  0  0  0  0  0
  179.6350  181.0750  140.1590 C   0  0  0  0  0  3  0  0  0  0  0  0
  181.4290  181.0900  137.8830 C   0  0  0  0  0  2  0  0  0  0  0  0
  179.4640  181.9860  139.0700 N   0  0  0  0  0  2  0  0  0  0  0  0
  180.5830  182.3280  138.1910 C   0  0  0  0  0  2  0  0  0  0  0  0
  1 26  2  0  0  0  0
  2 14  1  1  0  0  0
  2 12  1  0  0  0  0
  3  8  1  0  0  0  0
  5 25  1  0  0  0  0
  5 15  2  0  0  0  0
  6 41  1  6  0  0  0
  6  4  1  0  0  0  0
  7  2  1  0  0  0  0
  8 16  1  0  0  0  0
  8 10  2  0  0  0  0
  9 19  1  0  0  0  0
 10 23  1  0  0  0  0
 10 21  1  0  0  0  0
 11 38  1  0  0  0  0
 11 24  1  0  0  0  0
 12 27  1  0  0  0  0
 12 26  1  0  0  0  0
 13  6  1  0  0  0  0
 15 40  1  0  0  0  0
 16 11  1  0  0  0  0
 17  4  1  6  0  0  0
 17 20  1  0  0  0  0
 17  5  1  0  0  0  0
 19 18  2  0  0  0  0
 20 27  1  0  0  0  0
 21 24  2  0  0  0  0
 22 15  1  0  0  0  0
 22 19  1  0  0  0  0
 23 13  1  0  0  0  0
 24 28  1  0  0  0  0
 26  9  1  0  0  0  0
 27 22  2  0  0  0  0
 28  7  1  0  0  0  0
 29 33  1  0  0  0  0
 29 37  2  0  0  0  0
 30 34  2  0  0  0  0
 31 38  1  0  0  0  0
 32 36  1  0  0  0  0
 33 32  2  0  0  0  0
 35 30  1  0  0  0  0
 35 31  1  0  0  0  0
 36 31  2  0  0  0  0
 37 35  1  0  0  0  0
 38 34  1  6  0  0  0
 40 39  1  0  0  0  0
 41 42  2  0  0  0  0
 44 41  1  0  0  0  0
 45 44  2  0  0  0  0
 45 43  1  0  0  0  0
 46 43  2  0  0  0  0
 47 49  1  0  0  0  0
 47 45  1  0  0  0  0
 48 46  1  0  0  0  0
 49 48  1  0  0  0  0
M  END
>  <MODEL>
3

>  <REMARK>
 VINA RESULT:      -8.1      2.360      9.403
  Name = 
  4 active torsions:
  status: ('A' for Active; 'I' for Inactive)
    1  A    between atoms: C_4  and  C_13
    2  A    between atoms: C_4  and  N_16
    3  A    between atoms: C_10  and  C_25
    4  A    between atoms: N_20  and  C_44
                            x       y       z     vdW  Elec       q    Type
                         _______ _______ _______ _____ _____    ______ ____

>  <TORSDO>
F 4

$$$$
=
 OpenBabel10222419233D

 49 55  0  0  1  0  0  0  0  0999 V2000
  191.3540  176.2880  145.0020 O   0  0  0  0  0  0  0  0  0  0  0  0
  189.5160  175.9470  142.8420 C   0  0  2  0  0  3  0  0  0  0  0  0
  187.3030  176.9030  136.7550 C   0  0  0  0  0  1  0  0  0  0  0  0
  184.9790  177.8510  141.9820 C   0  0  0  0  0  2  0  0  0  0  0  0
  185.4540  178.6760  144.3090 C   0  0  0  0  0  0  0  0  0  0  0  0
  184.6030  178.9630  140.9990 C   0  0  1  0  0  3  0  0  0  0  0  0
  190.7190  176.4640  142.0600 C   0  0  0  0  0  2  0  0  0  0  0  0
  188.0640  177.1730  137.8110 C   0  0  0  0  0  0  0  0  0  0  0  0
  190.0240  177.8290  146.2190 C   0  0  0  0  0  2  0  0  0  0  0  0
  187.6650  178.2530  138.7880 C   0  0  0  0  0  0  0  0  0  0  0  0
  190.0840  176.6750  139.0670 N   0  0  0  0  0  0  0  0  0  0  0  0
  189.2650  176.7700  144.0300 N   0  0  0  0  0  0  0  0  0  0  0  0
  185.7670  179.2930  140.0620 C   0  0  0  0  0  2  0  0  0  0  0  0
  189.7290  174.4900  143.2190 C   0  0  0  0  0  1  0  0  0  0  0  0
  186.2170  178.5690  145.4100 C   0  0  0  0  0  0  0  0  0  0  0  0
  189.2880  176.5100  137.9480 O   0  0  0  0  0  0  0  0  0  0  0  0
  186.0340  178.3550  142.9590 C   0  0  1  0  0  3  0  0  0  0  0  0
  188.1850  178.3400  147.6080 O   0  0  0  0  0  0  0  0  0  0  0  0
  188.5670  178.0610  146.4420 C   0  0  0  0  0  0  0  0  0  0  0  0
  187.1040  177.4170  143.0620 O   0  0  0  0  0  0  0  0  0  0  0  0
  188.5630  178.2890  139.9950 C   0  0  0  0  0  3  0  0  0  0  0  0
  187.6090  178.0160  145.3080 C   0  0  0  0  0  0  0  0  0  0  0  0
  186.2210  178.0820  139.2490 C   0  0  0  0  0  2  0  0  0  0  0  0
  189.6630  177.5520  140.1310 C   0  0  0  0  0  0  0  0  0  0  0  0
  184.1510  179.1620  144.4020 O   0  0  0  0  0  1  0  0  0  0  0  0
  190.2560  176.9040  145.0720 C   0  0  0  0  0  0  0  0  0  0  0  0
  187.9860  177.4240  144.1520 C   0  0  0  0  0  0  0  0  0  0  0  0
  190.3630  177.6290  141.3350 O   0  0  0  0  0  0  0  0  0  0  0  0
  193.1850  174.2780  135.2770 C   0  0  0  0  0  3  0  0  0  0  0  0
  193.2180  177.1260  137.7170 C   0  0  0  0  0  3  0  0  0  0  0  0
  191.7170  175.3240  137.8530 C   0  0  0  0  0  0  0  0  0  0  0  0
  191.1460  173.3350  136.4170 C   0  0  0  0  0  3  0  0  0  0  0  0
  192.0570  173.3600  135.4480 C   0  0  0  0  0  3  0  0  0  0  0  0
  192.4610  177.2460  139.0380 C   0  0  0  0  0  3  0  0  0  0  0  0
  192.7500  175.9100  137.0750 N   0  0  0  0  0  0  0  0  0  0  0  0
  191.0230  174.2250  137.5740 C   0  0  0  0  0  3  0  0  0  0  0  0
  193.4850  175.3750  135.9680 C   0  0  0  0  0  3  0  0  0  0  0  0
  191.4360  176.1130  139.0800 C   0  0  1  0  0  3  0  0  0  0  0  0
  184.8290  177.8780  147.3430 C   0  0  0  0  0  1  0  0  0  0  0  0
  185.6480  178.9990  146.7280 C   0  0  0  0  0  2  0  0  0  0  0  0
  183.3280  178.6930  140.2470 C   0  0  0  0  0  0  0  0  0  0  0  0
  182.6280  179.6690  139.8650 O   0  0  0  0  0  0  0  0  0  0  0  0
  183.2120  177.4220  137.5740 C   0  0  0  0  0  3  0  0  0  0  0  0
  182.9020  177.3430  139.9910 N   0  0  0  0  0  0  0  0  0  0  0  0
  182.9010  176.7270  138.8440 C   0  0  0  0  0  0  0  0  0  0  0  0
  183.1660  176.7710  136.4120 C   0  0  0  0  0  3  0  0  0  0  0  0
  182.3750  175.3220  138.7930 C   0  0  0  0  0  2  0  0  0  0  0  0
  182.8640  175.3730  136.3790 N   0  0  0  0  0  2  0  0  0  0  0  0
  182.9370  174.5580  137.5920 C   0  0  0  0  0  2  0  0  0  0  0  0
  1 26  2  0  0  0  0
  2 14  1  1  0  0  0
  2 12  1  0  0  0  0
  3  8  1  0  0  0  0
  5 25  1  0  0  0  0
  5 15  2  0  0  0  0
  6 41  1  6  0  0  0
  6  4  1  0  0  0  0
  7  2  1  0  0  0  0
  8 16  1  0  0  0  0
  8 10  2  0  0  0  0
  9 19  1  0  0  0  0
 10 23  1  0  0  0  0
 10 21  1  0  0  0  0
 11 38  1  0  0  0  0
 11 24  1  0  0  0  0
 12 27  1  0  0  0  0
 12 26  1  0  0  0  0
 13  6  1  0  0  0  0
 15 40  1  0  0  0  0
 16 11  1  0  0  0  0
 17  4  1  6  0  0  0
 17 20  1  0  0  0  0
 17  5  1  0  0  0  0
 19 18  2  0  0  0  0
 20 27  1  0  0  0  0
 21 24  2  0  0  0  0
 22 15  1  0  0  0  0
 22 19  1  0  0  0  0
 23 13  1  0  0  0  0
 24 28  1  0  0  0  0
 26  9  1  0  0  0  0
 27 22  2  0  0  0  0
 28  7  1  0  0  0  0
 29 33  1  0  0  0  0
 29 37  2  0  0  0  0
 30 34  2  0  0  0  0
 31 38  1  0  0  0  0
 32 36  1  0  0  0  0
 33 32  2  0  0  0  0
 35 30  1  0  0  0  0
 35 31  1  0  0  0  0
 36 31  2  0  0  0  0
 37 35  1  0  0  0  0
 38 34  1  6  0  0  0
 40 39  1  0  0  0  0
 42 41  2  0  0  0  0
 43 45  1  0  0  0  0
 44 41  1  0  0  0  0
 45 44  2  0  0  0  0
 46 43  2  0  0  0  0
 47 45  1  0  0  0  0
 48 46  1  0  0  0  0
 48 49  1  0  0  0  0
 49 47  1  0  0  0  0
M  END
>  <MODEL>
4

>  <REMARK>
 VINA RESULT:      -8.0      2.166      9.359
  Name = 
  4 active torsions:
  status: ('A' for Active; 'I' for Inactive)
    1  A    between atoms: C_4  and  C_13
    2  A    between atoms: C_4  and  N_16
    3  A    between atoms: C_10  and  C_25
    4  A    between atoms: N_20  and  C_44
                            x       y       z     vdW  Elec       q    Type
                         _______ _______ _______ _____ _____    ______ ____

>  <TORSDO>
F 4

$$$$
=
 OpenBabel10222419233D

 49 55  0  0  1  0  0  0  0  0999 V2000
  185.8890  177.2180  134.7310 O   0  0  0  0  0  0  0  0  0  0  0  0
  185.8270  176.6430  137.5290 C   0  0  2  0  0  3  0  0  0  0  0  0
  184.5950  177.9890  143.8160 C   0  0  0  0  0  1  0  0  0  0  0  0
  189.4280  176.4830  140.9870 C   0  0  0  0  0  2  0  0  0  0  0  0
  190.7520  176.8300  138.8790 C   0  0  0  0  0  0  0  0  0  0  0  0
  189.7230  177.5170  142.0780 C   0  0  1  0  0  3  0  0  0  0  0  0
  184.8530  177.8150  137.4990 C   0  0  0  0  0  2  0  0  0  0  0  0
  184.7710  178.2980  142.5360 C   0  0  0  0  0  0  0  0  0  0  0  0
  188.2170  177.6550  134.6180 C   0  0  0  0  0  2  0  0  0  0  0  0
  186.1040  178.8100  142.0460 C   0  0  0  0  0  0  0  0  0  0  0  0
  183.8070  178.4550  140.3100 N   0  0  0  0  0  0  0  0  0  0  0  0
  187.0430  176.9470  136.7660 N   0  0  0  0  0  0  0  0  0  0  0  0
  188.5980  178.5490  142.1840 C   0  0  0  0  0  2  0  0  0  0  0  0
  185.1480  175.3890  137.0020 C   0  0  0  0  0  1  0  0  0  0  0  0
  190.7600  176.8040  137.5350 C   0  0  0  0  0  0  0  0  0  0  0  0
  183.6750  178.2360  141.6700 O   0  0  0  0  0  0  0  0  0  0  0  0
  189.4790  177.1440  139.6160 C   0  0  1  0  0  3  0  0  0  0  0  0
  190.4660  176.9360  134.5940 O   0  0  0  0  0  0  0  0  0  0  0  0
  189.4470  177.1530  135.2990 C   0  0  0  0  0  0  0  0  0  0  0  0
  188.3310  176.7850  138.8490 O   0  0  0  0  0  0  0  0  0  0  0  0
  186.1490  178.9410  140.5480 C   0  0  0  0  0  3  0  0  0  0  0  0
  189.4780  176.9700  136.7730 C   0  0  0  0  0  0  0  0  0  0  0  0
  187.2480  177.9080  142.4990 C   0  0  0  0  0  2  0  0  0  0  0  0
  185.0990  178.7600  139.7500 C   0  0  0  0  0  0  0  0  0  0  0  0
  191.9350  176.6480  139.5920 O   0  0  0  0  0  1  0  0  0  0  0  0
  186.9860  177.2450  135.3540 C   0  0  0  0  0  0  0  0  0  0  0  0
  188.3100  176.9130  137.4520 C   0  0  0  0  0  0  0  0  0  0  0  0
  185.2980  178.8400  138.3710 O   0  0  0  0  0  0  0  0  0  0  0  0
  179.3130  181.5280  140.6020 C   0  0  0  0  0  3  0  0  0  0  0  0
  182.1200  180.6570  138.2730 C   0  0  0  0  0  3  0  0  0  0  0  0
  181.5450  179.3600  140.1460 C   0  0  0  0  0  0  0  0  0  0  0  0
  179.9500  179.5900  142.0810 C   0  0  0  0  0  3  0  0  0  0  0  0
  179.2440  180.6810  141.7950 C   0  0  0  0  0  3  0  0  0  0  0  0
  182.9340  179.3660  138.2170 C   0  0  0  0  0  3  0  0  0  0  0  0
  181.2640  180.5620  139.4420 N   0  0  0  0  0  0  0  0  0  0  0  0
  180.9890  178.9420  141.2780 C   0  0  0  0  0  3  0  0  0  0  0  0
  180.1790  181.4840  139.5920 C   0  0  0  0  0  3  0  0  0  0  0  0
  182.6080  178.5670  139.4780 C   0  0  1  0  0  3  0  0  0  0  0  0
  192.3460  175.1130  136.6570 C   0  0  0  0  0  1  0  0  0  0  0  0
  192.0640  176.5970  136.8250 C   0  0  0  0  0  2  0  0  0  0  0  0
  190.0590  176.9050  143.4100 C   0  0  0  0  0  0  0  0  0  0  0  0
  190.9280  175.9920  143.4590 O   0  0  0  0  0  0  0  0  0  0  0  0
  191.1840  176.7660  146.1470 C   0  0  0  0  0  3  0  0  0  0  0  0
  189.3840  177.3350  144.6040 N   0  0  0  0  0  0  0  0  0  0  0  0
  189.8680  177.3550  145.8140 C   0  0  0  0  0  0  0  0  0  0  0  0
  191.6340  176.7700  147.4010 C   0  0  0  0  0  3  0  0  0  0  0  0
  188.9710  177.8100  146.9290 C   0  0  0  0  0  2  0  0  0  0  0  0
  190.8720  177.3900  148.4410 N   0  0  0  0  0  2  0  0  0  0  0  0
  189.7820  178.3140  148.1250 C   0  0  0  0  0  2  0  0  0  0  0  0
  1 26  2  0  0  0  0
  2 14  1  6  0  0  0
  4  6  1  0  0  0  0
  5 25  1  0  0  0  0
  5 17  1  0  0  0  0
  6 13  1  0  0  0  0
  6 41  1  1  0  0  0
  7  2  1  0  0  0  0
  7 28  1  0  0  0  0
  8  3  1  0  0  0  0
  9 19  1  0  0  0  0
  9 26  1  0  0  0  0
 10 23  1  0  0  0  0
 10  8  2  0  0  0  0
 11 16  1  0  0  0  0
 12 27  1  0  0  0  0
 12  2  1  0  0  0  0
 13 23  1  0  0  0  0
 15  5  2  0  0  0  0
 16  8  1  0  0  0  0
 17  4  1  1  0  0  0
 18 19  2  0  0  0  0
 19 22  1  0  0  0  0
 20 17  1  0  0  0  0
 21 10  1  0  0  0  0
 22 27  2  0  0  0  0
 22 15  1  0  0  0  0
 24 11  1  0  0  0  0
 24 21  2  0  0  0  0
 26 12  1  0  0  0  0
 27 20  1  0  0  0  0
 28 24  1  0  0  0  0
 29 33  1  0  0  0  0
 30 35  1  0  0  0  0
 31 36  2  0  0  0  0
 33 32  2  0  0  0  0
 34 30  2  0  0  0  0
 35 37  1  0  0  0  0
 35 31  1  0  0  0  0
 36 32  1  0  0  0  0
 37 29  2  0  0  0  0
 38 34  1  6  0  0  0
 38 31  1  0  0  0  0
 38 11  1  0  0  0  0
 39 40  1  0  0  0  0
 40 15  1  0  0  0  0
 41 42  2  0  0  0  0
 41 44  1  0  0  0  0
 43 46  2  0  0  0  0
 44 45  2  0  0  0  0
 45 43  1  0  0  0  0
 45 47  1  0  0  0  0
 46 48  1  0  0  0  0
 47 49  1  0  0  0  0
 49 48  1  0  0  0  0
M  END
>  <MODEL>
5

>  <REMARK>
 VINA RESULT:      -7.3      1.557      2.038
  Name = 
  4 active torsions:
  status: ('A' for Active; 'I' for Inactive)
    1  A    between atoms: C_4  and  C_13
    2  A    between atoms: C_4  and  N_16
    3  A    between atoms: C_10  and  C_25
    4  A    between atoms: N_20  and  C_44
                            x       y       z     vdW  Elec       q    Type
                         _______ _______ _______ _____ _____    ______ ____

>  <TORSDO>
F 4

$$$$
