=
 OpenBabel10222419173D

 35 38  0  0  1  0  0  0  0  0999 V2000
  188.9800  177.2620  145.9520 C   0  0  0  0  0  0  0  0  0  0  0  0
  187.6740  177.6170  146.2740 C   0  0  0  0  0  3  0  0  0  0  0  0
  187.1590  177.9800  143.9250 C   0  0  0  0  0  0  0  0  0  0  0  0
  188.4850  177.6050  143.5950 C   0  0  0  0  0  0  0  0  0  0  0  0
  189.3770  177.2530  144.6140 C   0  0  0  0  0  3  0  0  0  0  0  0
  186.7470  177.9730  145.2840 C   0  0  0  0  0  0  0  0  0  0  0  0
  186.0800  178.5510  142.6430 Cl  0  0  0  0  0  0  0  0  0  0  0  0
  189.8170  177.4890  139.5170 C   0  0  0  0  0  0  0  0  0  0  0  0
  188.5430  178.5420  141.2870 C   0  0  0  0  0  3  0  0  0  0  0  0
  188.9720  177.5640  142.1990 C   0  0  0  0  0  0  0  0  0  0  0  0
  190.2460  176.5070  140.4190 C   0  0  0  0  0  3  0  0  0  0  0  0
  188.9660  178.5070  139.9570 C   0  0  0  0  0  3  0  0  0  0  0  0
  189.8270  176.5370  141.7520 C   0  0  0  0  0  0  0  0  0  0  0  0
  190.2750  175.5520  142.6240 O   0  0  0  0  0  1  0  0  0  0  0  0
  190.2620  177.4750  138.0870 C   0  0  2  0  0  3  0  0  0  0  0  0
  189.3020  178.1780  137.2470 N   0  0  0  0  0  2  0  0  0  0  0  0
  186.2130  176.5000  136.4830 O   0  0  0  0  0  0  0  0  0  0  0  0
  186.4690  178.5440  137.5540 N   0  0  0  0  0  1  0  0  0  0  0  0
  188.4030  177.2200  136.7610 N   0  0  0  0  0  2  0  0  0  0  0  0
  186.9960  177.3850  136.9160 C   0  0  0  0  0  0  0  0  0  0  0  0
  190.4380  176.0430  137.6000 C   0  0  0  0  0  2  0  0  0  0  0  0
  191.8500  175.8090  137.0890 C   0  0  0  0  0  2  0  0  0  0  0  0
  192.7300  176.7110  137.6890 O   0  0  0  0  0  1  0  0  0  0  0  0
  185.1770  178.7930  146.8910 O   0  0  0  0  0  0  0  0  0  0  0  0
  185.3810  178.3260  145.7370 C   0  0  0  0  0  0  0  0  0  0  0  0
  184.3070  178.1620  144.8560 O   0  0  0  0  0  0  0  0  0  0  0  0
  183.2150  179.0710  144.8070 C   0  0  0  0  0  2  0  0  0  0  0  0
  182.6190  179.0520  143.4810 N   0  0  0  0  0  2  0  0  0  0  0  0
  180.5760  180.0130  142.7320 N   0  0  0  0  0  2  0  0  0  0  0  0
  181.1800  179.0520  143.6660 C   0  0  1  0  0  3  0  0  0  0  0  0
  180.5320  178.5720  142.4520 C   0  0  0  0  0  2  0  0  0  0  0  0
  189.8850  176.9050  146.9970 N   0  0  0  0  0  2  0  0  0  0  0  0
  191.9780  176.9810  147.9360 O   0  0  0  0  0  0  0  0  0  0  0  0
  191.7970  175.6500  147.6010 N   0  0  0  0  0  2  0  0  0  0  0  0
  191.3130  176.7300  146.7800 C   0  0  1  0  0  3  0  0  0  0  0  0
  1  2  1  0  0  0  0
  1 32  1  0  0  0  0
  3  6  1  0  0  0  0
  4  3  2  0  0  0  0
  4  5  1  0  0  0  0
  5  1  2  0  0  0  0
  6 25  1  0  0  0  0
  6  2  2  0  0  0  0
  7  3  1  0  0  0  0
  8 12  2  0  0  0  0
  8 11  1  0  0  0  0
  9 10  2  0  0  0  0
 10  4  1  0  0  0  0
 11 13  2  0  0  0  0
 12  9  1  0  0  0  0
 13 10  1  0  0  0  0
 13 14  1  0  0  0  0
 15 21  1  6  0  0  0
 15  8  1  0  0  0  0
 16 15  1  0  0  0  0
 17 20  2  0  0  0  0
 19 20  1  0  0  0  0
 19 16  1  0  0  0  0
 20 18  1  0  0  0  0
 22 21  1  0  0  0  0
 22 23  1  0  0  0  0
 25 24  2  0  0  0  0
 26 25  1  0  0  0  0
 27 26  1  0  0  0  0
 28 27  1  0  0  0  0
 29 30  1  0  0  0  0
 30 28  1  6  0  0  0
 31 29  1  0  0  0  0
 31 30  1  0  0  0  0
 34 33  1  0  0  0  0
 35 32  1  1  0  0  0
 35 34  1  0  0  0  0
 35 33  1  0  0  0  0
M  END
>  <MODEL>
1

>  <REMARK>
 VINA RESULT:      -7.9      0.000      0.000
  Name = 
  13 active torsions:
  status: ('A' for Active; 'I' for Inactive)
    1  A    between atoms: C_2  and  C_19
    2  A    between atoms: N_3  and  C_7
    3  A    between atoms: N_3  and  C_33
    4  A    between atoms: N_4  and  C_19
    5  A    between atoms: N_4  and  N_25
    6  A    between atoms: C_6  and  C_11
    7  A    between atoms: N_9  and  C_17
    8  A    between atoms: N_9  and  C_29
    9  A    between atoms: C_17  and  O_20
   10  A    between atoms: C_18  and  C_31
   11  A    between atoms: C_19  and  C_31
   12  A    between atoms: O_20  and  C_24
   13  A    between atoms: C_24  and  C_26
                            x       y       z     vdW  Elec       q    Type
                         _______ _______ _______ _____ _____    ______ ____

>  <TORSDO>
F 13

$$$$
=
 OpenBabel10222419173D

 35 38  0  0  1  0  0  0  0  0999 V2000
  187.4630  178.1520  139.3270 C   0  0  0  0  0  0  0  0  0  0  0  0
  188.4710  177.6140  138.5330 C   0  0  0  0  0  3  0  0  0  0  0  0
  189.7390  176.9880  140.5130 C   0  0  0  0  0  0  0  0  0  0  0  0
  188.7060  177.5250  141.3220 C   0  0  0  0  0  0  0  0  0  0  0  0
  187.5830  178.1010  140.7160 C   0  0  0  0  0  3  0  0  0  0  0  0
  189.6100  177.0250  139.0990 C   0  0  0  0  0  0  0  0  0  0  0  0
  191.2130  176.3850  141.2850 Cl  0  0  0  0  0  0  0  0  0  0  0  0
  188.7850  177.4600  145.6120 C   0  0  0  0  0  0  0  0  0  0  0  0
  187.8780  176.6700  143.5100 C   0  0  0  0  0  3  0  0  0  0  0  0
  188.7620  177.4970  142.7990 C   0  0  0  0  0  0  0  0  0  0  0  0
  189.6680  178.2910  144.9110 C   0  0  0  0  0  3  0  0  0  0  0  0
  187.8930  176.6480  144.9060 C   0  0  0  0  0  3  0  0  0  0  0  0
  189.6580  178.3170  143.5140 C   0  0  0  0  0  0  0  0  0  0  0  0
  190.5490  179.1490  142.8460 O   0  0  0  0  0  1  0  0  0  0  0  0
  188.7870  177.4150  147.1090 C   0  0  2  0  0  3  0  0  0  0  0  0
  187.9640  178.4870  147.6520 N   0  0  0  0  0  2  0  0  0  0  0  0
  184.4200  178.1430  147.1350 O   0  0  0  0  0  0  0  0  0  0  0  0
  185.8310  179.7150  146.1700 N   0  0  0  0  0  1  0  0  0  0  0  0
  186.6560  177.9930  147.7440 N   0  0  0  0  0  2  0  0  0  0  0  0
  185.5880  178.5990  147.0210 C   0  0  0  0  0  0  0  0  0  0  0  0
  190.2100  177.5220  147.6410 C   0  0  0  0  0  2  0  0  0  0  0  0
  190.9840  176.2380  147.3900 C   0  0  0  0  0  2  0  0  0  0  0  0
  192.1040  176.5030  146.6010 O   0  0  0  0  0  1  0  0  0  0  0  0
  190.9040  177.0720  137.0880 O   0  0  0  0  0  0  0  0  0  0  0  0
  190.6190  176.4750  138.1620 C   0  0  0  0  0  0  0  0  0  0  0  0
  191.2810  175.2880  138.4930 O   0  0  0  0  0  0  0  0  0  0  0  0
  192.3190  174.7450  137.6880 C   0  0  0  0  0  2  0  0  0  0  0  0
  193.6000  175.3000  138.0970 N   0  0  0  0  0  2  0  0  0  0  0  0
  195.8890  174.8830  137.6030 N   0  0  0  0  0  2  0  0  0  0  0  0
  194.5920  174.2590  137.9010 C   0  0  1  0  0  3  0  0  0  0  0  0
  195.6070  174.3500  138.9420 C   0  0  0  0  0  2  0  0  0  0  0  0
  186.3200  178.7400  138.7030 N   0  0  0  0  0  2  0  0  0  0  0  0
  184.9200  179.6970  140.2480 O   0  0  0  0  0  0  0  0  0  0  0  0
  184.3270  179.9690  139.0280 N   0  0  0  0  0  2  0  0  0  0  0  0
  184.9960  178.7240  139.3050 C   0  0  1  0  0  3  0  0  0  0  0  0
  1  5  1  0  0  0  0
  2  6  1  0  0  0  0
  2  1  2  0  0  0  0
  3  7  1  0  0  0  0
  3  4  1  0  0  0  0
  4 10  1  0  0  0  0
  5  4  2  0  0  0  0
  6  3  2  0  0  0  0
  8 15  1  0  0  0  0
  9 12  1  0  0  0  0
 10  9  2  0  0  0  0
 10 13  1  0  0  0  0
 11  8  1  0  0  0  0
 12  8  2  0  0  0  0
 13 11  2  0  0  0  0
 14 13  1  0  0  0  0
 15 21  1  1  0  0  0
 15 16  1  0  0  0  0
 16 19  1  0  0  0  0
 18 20  1  0  0  0  0
 20 17  2  0  0  0  0
 20 19  1  0  0  0  0
 22 21  1  0  0  0  0
 23 22  1  0  0  0  0
 24 25  2  0  0  0  0
 25 26  1  0  0  0  0
 25  6  1  0  0  0  0
 27 28  1  0  0  0  0
 27 26  1  0  0  0  0
 29 30  1  0  0  0  0
 29 31  1  0  0  0  0
 30 28  1  1  0  0  0
 30 31  1  0  0  0  0
 32  1  1  0  0  0  0
 34 35  1  0  0  0  0
 34 33  1  0  0  0  0
 35 32  1  6  0  0  0
 35 33  1  0  0  0  0
M  END
>  <MODEL>
2

>  <REMARK>
 VINA RESULT:      -7.8      2.816      9.446
  Name = 
  13 active torsions:
  status: ('A' for Active; 'I' for Inactive)
    1  A    between atoms: C_2  and  C_19
    2  A    between atoms: N_3  and  C_7
    3  A    between atoms: N_3  and  C_33
    4  A    between atoms: N_4  and  C_19
    5  A    between atoms: N_4  and  N_25
    6  A    between atoms: C_6  and  C_11
    7  A    between atoms: N_9  and  C_17
    8  A    between atoms: N_9  and  C_29
    9  A    between atoms: C_17  and  O_20
   10  A    between atoms: C_18  and  C_31
   11  A    between atoms: C_19  and  C_31
   12  A    between atoms: O_20  and  C_24
   13  A    between atoms: C_24  and  C_26
                            x       y       z     vdW  Elec       q    Type
                         _______ _______ _______ _____ _____    ______ ____

>  <TORSDO>
F 13

$$$$
=
 OpenBabel10222419173D

 35 38  0  0  1  0  0  0  0  0999 V2000
  188.8060  177.7170  146.0230 C   0  0  0  0  0  0  0  0  0  0  0  0
  187.4810  177.9890  146.3490 C   0  0  0  0  0  3  0  0  0  0  0  0
  186.8790  178.0350  143.9920 C   0  0  0  0  0  0  0  0  0  0  0  0
  188.2260  177.7450  143.6610 C   0  0  0  0  0  0  0  0  0  0  0  0
  189.1710  177.5920  144.6820 C   0  0  0  0  0  3  0  0  0  0  0  0
  186.5030  178.1460  145.3580 C   0  0  0  0  0  0  0  0  0  0  0  0
  185.7210  178.3590  142.6930 Cl  0  0  0  0  0  0  0  0  0  0  0  0
  189.4650  177.2900  139.5770 C   0  0  0  0  0  0  0  0  0  0  0  0
  188.1860  178.4540  141.2730 C   0  0  0  0  0  3  0  0  0  0  0  0
  188.6810  177.5900  142.2630 C   0  0  0  0  0  0  0  0  0  0  0  0
  189.9600  176.4200  140.5570 C   0  0  0  0  0  3  0  0  0  0  0  0
  188.5780  178.3080  139.9410 C   0  0  0  0  0  3  0  0  0  0  0  0
  189.5720  176.5620  141.8920 C   0  0  0  0  0  0  0  0  0  0  0  0
  190.0850  175.6870  142.8430 O   0  0  0  0  0  1  0  0  0  0  0  0
  189.8760  177.1560  138.1430 C   0  0  2  0  0  3  0  0  0  0  0  0
  191.3230  177.0400  138.0360 N   0  0  0  0  0  2  0  0  0  0  0  0
  193.1020  174.0710  137.0570 O   0  0  0  0  0  0  0  0  0  0  0  0
  193.9270  175.8530  138.2950 N   0  0  0  0  0  1  0  0  0  0  0  0
  191.5930  175.7860  137.4730 N   0  0  0  0  0  2  0  0  0  0  0  0
  192.8840  175.1910  137.5860 C   0  0  0  0  0  0  0  0  0  0  0  0
  189.3810  178.3490  137.3370 C   0  0  0  0  0  2  0  0  0  0  0  0
  188.4240  177.9080  136.2410 C   0  0  0  0  0  2  0  0  0  0  0  0
  187.3040  178.7390  136.2230 O   0  0  0  0  0  1  0  0  0  0  0  0
  184.7180  178.0360  146.9450 O   0  0  0  0  0  0  0  0  0  0  0  0
  185.1200  178.4250  145.8150 C   0  0  0  0  0  0  0  0  0  0  0  0
  184.2620  179.1550  144.9860 O   0  0  0  0  0  0  0  0  0  0  0  0
  182.9210  178.7550  144.7360 C   0  0  0  0  0  2  0  0  0  0  0  0
  182.4660  179.3210  143.4770 N   0  0  0  0  0  2  0  0  0  0  0  0
  180.3790  180.2250  142.7800 N   0  0  0  0  0  2  0  0  0  0  0  0
  181.0400  179.0630  143.3900 C   0  0  1  0  0  3  0  0  0  0  0  0
  180.6380  179.0150  141.9900 C   0  0  0  0  0  2  0  0  0  0  0  0
  189.7660  177.5640  147.0700 N   0  0  0  0  0  2  0  0  0  0  0  0
  191.9060  176.9670  146.4970 O   0  0  0  0  0  0  0  0  0  0  0  0
  191.8910  176.9140  147.8800 N   0  0  0  0  0  2  0  0  0  0  0  0
  190.7670  176.5080  147.0750 C   0  0  1  0  0  3  0  0  0  0  0  0
  1  2  1  0  0  0  0
  1 32  1  0  0  0  0
  3  6  1  0  0  0  0
  4  3  2  0  0  0  0
  4  5  1  0  0  0  0
  5  1  2  0  0  0  0
  6 25  1  0  0  0  0
  6  2  2  0  0  0  0
  7  3  1  0  0  0  0
  8 12  2  0  0  0  0
  8 11  1  0  0  0  0
  9 10  2  0  0  0  0
 10  4  1  0  0  0  0
 11 13  2  0  0  0  0
 12  9  1  0  0  0  0
 13 10  1  0  0  0  0
 13 14  1  0  0  0  0
 15 21  1  6  0  0  0
 15  8  1  0  0  0  0
 16 15  1  0  0  0  0
 17 20  2  0  0  0  0
 19 20  1  0  0  0  0
 19 16  1  0  0  0  0
 20 18  1  0  0  0  0
 22 21  1  0  0  0  0
 23 22  1  0  0  0  0
 25 24  2  0  0  0  0
 26 25  1  0  0  0  0
 27 26  1  0  0  0  0
 28 27  1  0  0  0  0
 29 30  1  0  0  0  0
 30 28  1  6  0  0  0
 31 29  1  0  0  0  0
 31 30  1  0  0  0  0
 33 35  1  0  0  0  0
 33 34  1  0  0  0  0
 35 32  1  1  0  0  0
 35 34  1  0  0  0  0
M  END
>  <MODEL>
3

>  <REMARK>
 VINA RESULT:      -7.7      1.462      2.643
  Name = 
  13 active torsions:
  status: ('A' for Active; 'I' for Inactive)
    1  A    between atoms: C_2  and  C_19
    2  A    between atoms: N_3  and  C_7
    3  A    between atoms: N_3  and  C_33
    4  A    between atoms: N_4  and  C_19
    5  A    between atoms: N_4  and  N_25
    6  A    between atoms: C_6  and  C_11
    7  A    between atoms: N_9  and  C_17
    8  A    between atoms: N_9  and  C_29
    9  A    between atoms: C_17  and  O_20
   10  A    between atoms: C_18  and  C_31
   11  A    between atoms: C_19  and  C_31
   12  A    between atoms: O_20  and  C_24
   13  A    between atoms: C_24  and  C_26
                            x       y       z     vdW  Elec       q    Type
                         _______ _______ _______ _____ _____    ______ ____

>  <TORSDO>
F 13

$$$$
=
 OpenBabel10222419173D

 35 38  0  0  1  0  0  0  0  0999 V2000
  187.4810  177.0810  143.5750 C   0  0  0  0  0  0  0  0  0  0  0  0
  187.2430  177.4100  144.9050 C   0  0  0  0  0  3  0  0  0  0  0  0
  185.1810  178.5430  144.2890 C   0  0  0  0  0  0  0  0  0  0  0  0
  185.4170  178.1960  142.9350 C   0  0  0  0  0  0  0  0  0  0  0  0
  186.5650  177.4710  142.5980 C   0  0  0  0  0  3  0  0  0  0  0  0
  186.1040  178.1320  145.2870 C   0  0  0  0  0  0  0  0  0  0  0  0
  183.7980  179.5730  144.6880 Cl  0  0  0  0  0  0  0  0  0  0  0  0
  182.6740  179.1990  139.7900 C   0  0  0  0  0  0  0  0  0  0  0  0
  183.1010  178.4450  142.0510 C   0  0  0  0  0  3  0  0  0  0  0  0
  184.4840  178.5680  141.8490 C   0  0  0  0  0  0  0  0  0  0  0  0
  184.0530  179.3220  139.5780 C   0  0  0  0  0  3  0  0  0  0  0  0
  182.2020  178.7620  141.0310 C   0  0  0  0  0  3  0  0  0  0  0  0
  184.9570  179.0060  140.5960 C   0  0  0  0  0  0  0  0  0  0  0  0
  186.3200  179.1430  140.3560 O   0  0  0  0  0  1  0  0  0  0  0  0
  181.6910  179.5400  138.7130 C   0  0  2  0  0  3  0  0  0  0  0  0
  180.9040  180.7050  139.0900 N   0  0  0  0  0  2  0  0  0  0  0  0
  181.2900  183.5930  136.9800 O   0  0  0  0  0  0  0  0  0  0  0  0
  179.3740  182.3130  137.2660 N   0  0  0  0  0  1  0  0  0  0  0  0
  181.4840  181.8130  138.4580 N   0  0  0  0  0  2  0  0  0  0  0  0
  180.7380  182.6130  137.5440 C   0  0  0  0  0  0  0  0  0  0  0  0
  180.7770  178.3530  138.4350 C   0  0  0  0  0  2  0  0  0  0  0  0
  181.2570  177.5660  137.2270 C   0  0  0  0  0  2  0  0  0  0  0  0
  181.9400  178.4080  136.3490 O   0  0  0  0  0  1  0  0  0  0  0  0
  184.8160  178.3410  147.2910 O   0  0  0  0  0  0  0  0  0  0  0  0
  185.9440  178.4210  146.7320 C   0  0  0  0  0  0  0  0  0  0  0  0
  187.0700  178.7620  147.4890 O   0  0  0  0  0  0  0  0  0  0  0  0
  187.8010  177.8030  148.2410 C   0  0  0  0  0  2  0  0  0  0  0  0
  189.2260  177.9840  148.0150 N   0  0  0  0  0  2  0  0  0  0  0  0
  190.5550  177.1840  146.2120 N   0  0  0  0  0  2  0  0  0  0  0  0
  189.7000  176.7900  147.3410 C   0  0  1  0  0  3  0  0  0  0  0  0
  191.1500  176.7030  147.4660 C   0  0  0  0  0  2  0  0  0  0  0  0
  188.6560  176.3410  143.2370 N   0  0  0  0  0  2  0  0  0  0  0  0
  190.2750  177.8390  142.6020 O   0  0  0  0  0  0  0  0  0  0  0  0
  190.9300  176.6210  142.6520 N   0  0  0  0  0  2  0  0  0  0  0  0
  189.5740  176.7540  142.1860 C   0  0  1  0  0  3  0  0  0  0  0  0
  1  2  1  0  0  0  0
  2  6  2  0  0  0  0
  3  7  1  0  0  0  0
  3  6  1  0  0  0  0
  4  3  2  0  0  0  0
  5  4  1  0  0  0  0
  5  1  2  0  0  0  0
  6 25  1  0  0  0  0
  8 12  1  0  0  0  0
 10  9  1  0  0  0  0
 10  4  1  0  0  0  0
 11  8  2  0  0  0  0
 11 13  1  0  0  0  0
 12  9  2  0  0  0  0
 13 10  2  0  0  0  0
 14 13  1  0  0  0  0
 15 21  1  1  0  0  0
 15 16  1  0  0  0  0
 15  8  1  0  0  0  0
 17 20  2  0  0  0  0
 18 20  1  0  0  0  0
 19 16  1  0  0  0  0
 20 19  1  0  0  0  0
 22 21  1  0  0  0  0
 23 22  1  0  0  0  0
 25 24  2  0  0  0  0
 25 26  1  0  0  0  0
 26 27  1  0  0  0  0
 28 27  1  0  0  0  0
 29 30  1  0  0  0  0
 29 31  1  0  0  0  0
 30 31  1  0  0  0  0
 30 28  1  1  0  0  0
 32  1  1  0  0  0  0
 33 34  1  0  0  0  0
 35 33  1  0  0  0  0
 35 34  1  0  0  0  0
 35 32  1  1  0  0  0
M  END
>  <MODEL>
4

>  <REMARK>
 VINA RESULT:      -7.7      3.546      6.869
  Name = 
  13 active torsions:
  status: ('A' for Active; 'I' for Inactive)
    1  A    between atoms: C_2  and  C_19
    2  A    between atoms: N_3  and  C_7
    3  A    between atoms: N_3  and  C_33
    4  A    between atoms: N_4  and  C_19
    5  A    between atoms: N_4  and  N_25
    6  A    between atoms: C_6  and  C_11
    7  A    between atoms: N_9  and  C_17
    8  A    between atoms: N_9  and  C_29
    9  A    between atoms: C_17  and  O_20
   10  A    between atoms: C_18  and  C_31
   11  A    between atoms: C_19  and  C_31
   12  A    between atoms: O_20  and  C_24
   13  A    between atoms: C_24  and  C_26
                            x       y       z     vdW  Elec       q    Type
                         _______ _______ _______ _____ _____    ______ ____

>  <TORSDO>
F 13

$$$$
=
 OpenBabel10222419173D

 35 38  0  0  1  0  0  0  0  0999 V2000
  189.0460  178.1910  139.1430 C   0  0  0  0  0  0  0  0  0  0  0  0
  190.3370  177.7850  138.8200 C   0  0  0  0  0  3  0  0  0  0  0  0
  190.7780  177.2290  141.1460 C   0  0  0  0  0  0  0  0  0  0  0  0
  189.4590  177.6310  141.4730 C   0  0  0  0  0  0  0  0  0  0  0  0
  188.6120  178.1070  140.4670 C   0  0  0  0  0  3  0  0  0  0  0  0
  191.2160  177.2980  139.7970 C   0  0  0  0  0  0  0  0  0  0  0  0
  191.8830  176.7540  142.4450 Cl  0  0  0  0  0  0  0  0  0  0  0  0
  187.8460  177.4510  145.4460 C   0  0  0  0  0  0  0  0  0  0  0  0
  187.7840  176.7940  143.1160 C   0  0  0  0  0  3  0  0  0  0  0  0
  188.9300  177.5600  142.8520 C   0  0  0  0  0  0  0  0  0  0  0  0
  188.9870  178.2210  145.1910 C   0  0  0  0  0  3  0  0  0  0  0  0
  187.2480  176.7360  144.4040 C   0  0  0  0  0  3  0  0  0  0  0  0
  189.5280  178.2830  143.9040 C   0  0  0  0  0  0  0  0  0  0  0  0
  190.6650  179.0520  143.6840 O   0  0  0  0  0  1  0  0  0  0  0  0
  187.2580  177.3680  146.8210 C   0  0  2  0  0  3  0  0  0  0  0  0
  186.6370  178.6330  147.1870 N   0  0  0  0  0  2  0  0  0  0  0  0
  183.3810  178.9600  145.6900 O   0  0  0  0  0  0  0  0  0  0  0  0
  185.3800  179.8400  144.9020 N   0  0  0  0  0  1  0  0  0  0  0  0
  185.2590  178.4910  146.9730 N   0  0  0  0  0  2  0  0  0  0  0  0
  184.6230  179.0930  145.8480 C   0  0  0  0  0  0  0  0  0  0  0  0
  188.3310  176.9960  147.8360 C   0  0  0  0  0  2  0  0  0  0  0  0
  188.6600  178.1720  148.7400 C   0  0  0  0  0  2  0  0  0  0  0  0
  190.0420  178.3010  148.8720 O   0  0  0  0  0  1  0  0  0  0  0  0
  193.6050  177.3640  139.8710 O   0  0  0  0  0  0  0  0  0  0  0  0
  192.5650  176.8850  139.3420 C   0  0  0  0  0  0  0  0  0  0  0  0
  192.6800  175.9270  138.3300 O   0  0  0  0  0  0  0  0  0  0  0  0
  193.2770  176.2150  137.0720 C   0  0  0  0  0  2  0  0  0  0  0  0
  192.9180  175.1850  136.1100 N   0  0  0  0  0  2  0  0  0  0  0  0
  191.2880  173.4540  136.1470 N   0  0  0  0  0  2  0  0  0  0  0  0
  192.4180  174.0550  136.8700 C   0  0  1  0  0  3  0  0  0  0  0  0
  192.6160  172.8280  136.1080 C   0  0  0  0  0  2  0  0  0  0  0  0
  188.1870  178.6790  138.1100 N   0  0  0  0  0  2  0  0  0  0  0  0
  187.9350  177.2950  136.2970 O   0  0  0  0  0  0  0  0  0  0  0  0
  187.2220  178.4340  135.9660 N   0  0  0  0  0  2  0  0  0  0  0  0
  188.4630  178.4810  136.6960 C   0  0  1  0  0  3  0  0  0  0  0  0
  1  5  1  0  0  0  0
  2  1  2  0  0  0  0
  2  6  1  0  0  0  0
  3  4  1  0  0  0  0
  3  7  1  0  0  0  0
  4 10  1  0  0  0  0
  5  4  2  0  0  0  0
  6  3  2  0  0  0  0
  8 15  1  0  0  0  0
  9 12  1  0  0  0  0
 10  9  2  0  0  0  0
 10 13  1  0  0  0  0
 11  8  1  0  0  0  0
 12  8  2  0  0  0  0
 13 11  2  0  0  0  0
 14 13  1  0  0  0  0
 15 16  1  0  0  0  0
 15 21  1  1  0  0  0
 17 20  2  0  0  0  0
 18 20  1  0  0  0  0
 19 16  1  0  0  0  0
 20 19  1  0  0  0  0
 21 22  1  0  0  0  0
 22 23  1  0  0  0  0
 25  6  1  0  0  0  0
 25 24  2  0  0  0  0
 26 25  1  0  0  0  0
 27 26  1  0  0  0  0
 28 27  1  0  0  0  0
 29 30  1  0  0  0  0
 30 28  1  6  0  0  0
 31 29  1  0  0  0  0
 31 30  1  0  0  0  0
 32  1  1  0  0  0  0
 33 35  1  0  0  0  0
 34 33  1  0  0  0  0
 34 35  1  0  0  0  0
 35 32  1  1  0  0  0
M  END
>  <MODEL>
5

>  <REMARK>
 VINA RESULT:      -7.7      2.661      9.445
  Name = 
  13 active torsions:
  status: ('A' for Active; 'I' for Inactive)
    1  A    between atoms: C_2  and  C_19
    2  A    between atoms: N_3  and  C_7
    3  A    between atoms: N_3  and  C_33
    4  A    between atoms: N_4  and  C_19
    5  A    between atoms: N_4  and  N_25
    6  A    between atoms: C_6  and  C_11
    7  A    between atoms: N_9  and  C_17
    8  A    between atoms: N_9  and  C_29
    9  A    between atoms: C_17  and  O_20
   10  A    between atoms: C_18  and  C_31
   11  A    between atoms: C_19  and  C_31
   12  A    between atoms: O_20  and  C_24
   13  A    between atoms: C_24  and  C_26
                            x       y       z     vdW  Elec       q    Type
                         _______ _______ _______ _____ _____    ______ ____

>  <TORSDO>
F 13

$$$$
=
 OpenBabel10222419173D

 35 38  0  0  1  0  0  0  0  0999 V2000
  188.2920  178.1220  139.4220 C   0  0  0  0  0  0  0  0  0  0  0  0
  189.3030  177.4220  138.7700 C   0  0  0  0  0  3  0  0  0  0  0  0
  190.3670  176.9180  140.8990 C   0  0  0  0  0  0  0  0  0  0  0  0
  189.3310  177.6200  141.5620 C   0  0  0  0  0  0  0  0  0  0  0  0
  188.3090  178.2140  140.8140 C   0  0  0  0  0  3  0  0  0  0  0  0
  190.3430  176.8100  139.4830 C   0  0  0  0  0  0  0  0  0  0  0  0
  191.7240  176.2860  141.8430 Cl  0  0  0  0  0  0  0  0  0  0  0  0
  189.2660  177.9740  145.8390 C   0  0  0  0  0  0  0  0  0  0  0  0
  190.1920  178.5920  143.6890 C   0  0  0  0  0  3  0  0  0  0  0  0
  189.2790  177.7490  143.0350 C   0  0  0  0  0  0  0  0  0  0  0  0
  188.3540  177.1270  145.1960 C   0  0  0  0  0  3  0  0  0  0  0  0
  190.1820  178.7070  145.0800 C   0  0  0  0  0  3  0  0  0  0  0  0
  188.3590  177.0090  143.8030 C   0  0  0  0  0  0  0  0  0  0  0  0
  187.4390  176.1640  143.1930 O   0  0  0  0  0  1  0  0  0  0  0  0
  189.2700  178.1180  147.3300 C   0  0  2  0  0  3  0  0  0  0  0  0
  190.3900  177.3910  147.9100 N   0  0  0  0  0  2  0  0  0  0  0  0
  192.4180  174.9540  146.2100 O   0  0  0  0  0  0  0  0  0  0  0  0
  192.8810  175.9950  148.2320 N   0  0  0  0  0  1  0  0  0  0  0  0
  190.8160  176.4630  146.9510 N   0  0  0  0  0  2  0  0  0  0  0  0
  192.0540  175.7710  147.0950 C   0  0  0  0  0  0  0  0  0  0  0  0
  187.9560  177.6160  147.9150 C   0  0  0  0  0  2  0  0  0  0  0  0
  186.9380  178.7400  148.0160 C   0  0  0  0  0  2  0  0  0  0  0  0
  185.8260  178.4490  147.2250 O   0  0  0  0  0  1  0  0  0  0  0  0
  191.1770  174.8870  138.3310 O   0  0  0  0  0  0  0  0  0  0  0  0
  191.3630  176.0820  138.6910 C   0  0  0  0  0  0  0  0  0  0  0  0
  192.5370  176.7440  138.3180 O   0  0  0  0  0  0  0  0  0  0  0  0
  193.5750  176.1030  137.5870 C   0  0  0  0  0  2  0  0  0  0  0  0
  194.5540  175.5480  138.5070 N   0  0  0  0  0  2  0  0  0  0  0  0
  195.5120  173.3820  138.7260 N   0  0  0  0  0  2  0  0  0  0  0  0
  195.2470  174.4900  137.7970 C   0  0  1  0  0  3  0  0  0  0  0  0
  194.4100  173.2970  137.7590 C   0  0  0  0  0  2  0  0  0  0  0  0
  187.2530  178.7280  138.6500 N   0  0  0  0  0  2  0  0  0  0  0  0
  185.2850  178.5010  139.8080 O   0  0  0  0  0  0  0  0  0  0  0  0
  184.9650  179.3180  138.7380 N   0  0  0  0  0  2  0  0  0  0  0  0
  185.8900  178.2190  138.6270 C   0  0  1  0  0  3  0  0  0  0  0  0
  1  5  1  0  0  0  0
  2  1  2  0  0  0  0
  2  6  1  0  0  0  0
  3  4  1  0  0  0  0
  3  7  1  0  0  0  0
  4 10  1  0  0  0  0
  5  4  2  0  0  0  0
  6  3  2  0  0  0  0
  8 15  1  0  0  0  0
  9 12  1  0  0  0  0
 10  9  2  0  0  0  0
 10 13  1  0  0  0  0
 11  8  1  0  0  0  0
 12  8  2  0  0  0  0
 13 11  2  0  0  0  0
 14 13  1  0  0  0  0
 15 16  1  0  0  0  0
 15 21  1  1  0  0  0
 17 20  2  0  0  0  0
 19 20  1  0  0  0  0
 19 16  1  0  0  0  0
 20 18  1  0  0  0  0
 21 22  1  0  0  0  0
 23 22  1  0  0  0  0
 24 25  2  0  0  0  0
 25  6  1  0  0  0  0
 26 25  1  0  0  0  0
 27 26  1  0  0  0  0
 27 28  1  0  0  0  0
 30 28  1  1  0  0  0
 30 29  1  0  0  0  0
 31 30  1  0  0  0  0
 31 29  1  0  0  0  0
 32  1  1  0  0  0  0
 34 33  1  0  0  0  0
 35 32  1  1  0  0  0
 35 34  1  0  0  0  0
 35 33  1  0  0  0  0
M  END
>  <MODEL>
6

>  <REMARK>
 VINA RESULT:      -7.6      2.982      9.833
  Name = 
  13 active torsions:
  status: ('A' for Active; 'I' for Inactive)
    1  A    between atoms: C_2  and  C_19
    2  A    between atoms: N_3  and  C_7
    3  A    between atoms: N_3  and  C_33
    4  A    between atoms: N_4  and  C_19
    5  A    between atoms: N_4  and  N_25
    6  A    between atoms: C_6  and  C_11
    7  A    between atoms: N_9  and  C_17
    8  A    between atoms: N_9  and  C_29
    9  A    between atoms: C_17  and  O_20
   10  A    between atoms: C_18  and  C_31
   11  A    between atoms: C_19  and  C_31
   12  A    between atoms: O_20  and  C_24
   13  A    between atoms: C_24  and  C_26
                            x       y       z     vdW  Elec       q    Type
                         _______ _______ _______ _____ _____    ______ ____

>  <TORSDO>
F 13

$$$$
=
 OpenBabel10222419173D

 35 38  0  0  1  0  0  0  0  0999 V2000
  187.7110  177.3080  143.3440 C   0  0  0  0  0  0  0  0  0  0  0  0
  187.5920  177.5440  144.7110 C   0  0  0  0  0  3  0  0  0  0  0  0
  185.3670  178.4720  144.3890 C   0  0  0  0  0  0  0  0  0  0  0  0
  185.4830  178.2200  142.9990 C   0  0  0  0  0  0  0  0  0  0  0  0
  186.6540  177.6430  142.4970 C   0  0  0  0  0  3  0  0  0  0  0  0
  186.4350  178.1160  145.2560 C   0  0  0  0  0  0  0  0  0  0  0  0
  183.9390  179.3230  144.9960 Cl  0  0  0  0  0  0  0  0  0  0  0  0
  182.3070  179.0730  140.2410 C   0  0  0  0  0  0  0  0  0  0  0  0
  183.0620  178.3910  142.4390 C   0  0  0  0  0  3  0  0  0  0  0  0
  184.4000  178.5410  142.0440 C   0  0  0  0  0  0  0  0  0  0  0  0
  183.6400  179.2210  139.8370 C   0  0  0  0  0  3  0  0  0  0  0  0
  182.0230  178.6600  141.5460 C   0  0  0  0  0  3  0  0  0  0  0  0
  184.6840  178.9540  140.7270 C   0  0  0  0  0  0  0  0  0  0  0  0
  185.9960  179.1150  140.2980 O   0  0  0  0  0  1  0  0  0  0  0  0
  181.1760  179.3600  139.3020 C   0  0  2  0  0  3  0  0  0  0  0  0
  180.5010  178.1270  138.9240 N   0  0  0  0  0  2  0  0  0  0  0  0
  182.4980  175.9430  136.8790 O   0  0  0  0  0  0  0  0  0  0  0  0
  181.8900  175.6180  139.0960 N   0  0  0  0  0  1  0  0  0  0  0  0
  181.1820  177.6120  137.8130 N   0  0  0  0  0  2  0  0  0  0  0  0
  181.8830  176.3730  137.8890 C   0  0  0  0  0  0  0  0  0  0  0  0
  181.6870  180.0840  138.0630 C   0  0  0  0  0  2  0  0  0  0  0  0
  181.3720  181.5690  138.1300 C   0  0  0  0  0  2  0  0  0  0  0  0
  180.3560  181.8010  139.0560 O   0  0  0  0  0  1  0  0  0  0  0  0
  185.7250  179.2380  147.2450 O   0  0  0  0  0  0  0  0  0  0  0  0
  186.4100  178.3150  146.7240 C   0  0  0  0  0  0  0  0  0  0  0  0
  187.1370  177.4460  147.5430 O   0  0  0  0  0  0  0  0  0  0  0  0
  188.1070  177.9080  148.4740 C   0  0  0  0  0  2  0  0  0  0  0  0
  189.3780  178.1150  147.7990 N   0  0  0  0  0  2  0  0  0  0  0  0
  190.7320  176.9810  146.2060 N   0  0  0  0  0  2  0  0  0  0  0  0
  189.8400  176.8110  147.3620 C   0  0  1  0  0  3  0  0  0  0  0  0
  191.2840  176.7210  147.5410 C   0  0  0  0  0  2  0  0  0  0  0  0
  188.9110  176.7200  142.8380 N   0  0  0  0  0  2  0  0  0  0  0  0
  190.6800  178.1790  142.9220 O   0  0  0  0  0  0  0  0  0  0  0  0
  191.2180  177.0110  142.4100 N   0  0  0  0  0  2  0  0  0  0  0  0
  189.8950  177.4690  142.0720 C   0  0  1  0  0  3  0  0  0  0  0  0
  1  2  1  0  0  0  0
  2  6  2  0  0  0  0
  3  7  1  0  0  0  0
  3  6  1  0  0  0  0
  4  3  2  0  0  0  0
  5  4  1  0  0  0  0
  5  1  2  0  0  0  0
  6 25  1  0  0  0  0
  8 12  1  0  0  0  0
 10  9  1  0  0  0  0
 10  4  1  0  0  0  0
 11  8  2  0  0  0  0
 11 13  1  0  0  0  0
 12  9  2  0  0  0  0
 13 10  2  0  0  0  0
 14 13  1  0  0  0  0
 15 21  1  6  0  0  0
 15  8  1  0  0  0  0
 16 15  1  0  0  0  0
 17 20  2  0  0  0  0
 19 20  1  0  0  0  0
 19 16  1  0  0  0  0
 20 18  1  0  0  0  0
 21 22  1  0  0  0  0
 22 23  1  0  0  0  0
 25 24  2  0  0  0  0
 25 26  1  0  0  0  0
 26 27  1  0  0  0  0
 28 27  1  0  0  0  0
 29 30  1  0  0  0  0
 29 31  1  0  0  0  0
 30 31  1  0  0  0  0
 30 28  1  1  0  0  0
 32  1  1  0  0  0  0
 34 33  1  0  0  0  0
 35 34  1  0  0  0  0
 35 32  1  1  0  0  0
 35 33  1  0  0  0  0
M  END
>  <MODEL>
7

>  <REMARK>
 VINA RESULT:      -7.5      3.444      6.827
  Name = 
  13 active torsions:
  status: ('A' for Active; 'I' for Inactive)
    1  A    between atoms: C_2  and  C_19
    2  A    between atoms: N_3  and  C_7
    3  A    between atoms: N_3  and  C_33
    4  A    between atoms: N_4  and  C_19
    5  A    between atoms: N_4  and  N_25
    6  A    between atoms: C_6  and  C_11
    7  A    between atoms: N_9  and  C_17
    8  A    between atoms: N_9  and  C_29
    9  A    between atoms: C_17  and  O_20
   10  A    between atoms: C_18  and  C_31
   11  A    between atoms: C_19  and  C_31
   12  A    between atoms: O_20  and  C_24
   13  A    between atoms: C_24  and  C_26
                            x       y       z     vdW  Elec       q    Type
                         _______ _______ _______ _____ _____    ______ ____

>  <TORSDO>
F 13

$$$$
=
 OpenBabel10222419173D

 35 38  0  0  1  0  0  0  0  0999 V2000
  189.6700  176.4840  137.5800 C   0  0  0  0  0  0  0  0  0  0  0  0
  191.0610  176.4810  137.6260 C   0  0  0  0  0  3  0  0  0  0  0  0
  191.0140  177.0510  139.9910 C   0  0  0  0  0  0  0  0  0  0  0  0
  189.5980  177.0420  139.9460 C   0  0  0  0  0  0  0  0  0  0  0  0
  188.9460  176.7600  138.7410 C   0  0  0  0  0  3  0  0  0  0  0  0
  191.7530  176.7550  138.8140 C   0  0  0  0  0  0  0  0  0  0  0  0
  191.8280  177.5400  141.4850 Cl  0  0  0  0  0  0  0  0  0  0  0  0
  187.2100  177.9190  143.4030 C   0  0  0  0  0  0  0  0  0  0  0  0
  187.7880  178.3200  141.0850 C   0  0  0  0  0  3  0  0  0  0  0  0
  188.7670  177.3160  141.1390 C   0  0  0  0  0  0  0  0  0  0  0  0
  188.1880  176.9190  143.4670 C   0  0  0  0  0  3  0  0  0  0  0  0
  187.0110  178.6160  142.2080 C   0  0  0  0  0  3  0  0  0  0  0  0
  188.9670  176.6170  142.3470 C   0  0  0  0  0  0  0  0  0  0  0  0
  189.9270  175.6150  142.4400 O   0  0  0  0  0  1  0  0  0  0  0  0
  186.3610  178.2500  144.5920 C   0  0  2  0  0  3  0  0  0  0  0  0
  186.6850  177.3750  145.7090 N   0  0  0  0  0  2  0  0  0  0  0  0
  188.4560  178.6260  148.5800 O   0  0  0  0  0  0  0  0  0  0  0  0
  188.9430  176.7130  147.3580 N   0  0  0  0  0  1  0  0  0  0  0  0
  187.0500  178.1980  146.7830 N   0  0  0  0  0  2  0  0  0  0  0  0
  188.1620  177.8750  147.6130 C   0  0  0  0  0  0  0  0  0  0  0  0
  184.8850  178.1300  144.2390 C   0  0  0  0  0  2  0  0  0  0  0  0
  184.0820  179.2640  144.8580 C   0  0  0  0  0  2  0  0  0  0  0  0
  183.8300  178.9910  146.2030 O   0  0  0  0  0  1  0  0  0  0  0  0
  193.9350  177.2410  139.6620 O   0  0  0  0  0  0  0  0  0  0  0  0
  193.2330  176.7170  138.7540 C   0  0  0  0  0  0  0  0  0  0  0  0
  193.8560  176.0630  137.6860 O   0  0  0  0  0  0  0  0  0  0  0  0
  194.4760  174.7910  137.8280 C   0  0  0  0  0  2  0  0  0  0  0  0
  195.9100  174.9180  137.6240 N   0  0  0  0  0  2  0  0  0  0  0  0
  197.7640  174.8420  139.1130 N   0  0  0  0  0  2  0  0  0  0  0  0
  196.5530  174.1390  138.6660 C   0  0  1  0  0  3  0  0  0  0  0  0
  196.5360  174.8870  139.9170 C   0  0  0  0  0  2  0  0  0  0  0  0
  189.0110  176.1970  136.3450 N   0  0  0  0  0  2  0  0  0  0  0  0
  187.2770  176.3720  134.8530 O   0  0  0  0  0  0  0  0  0  0  0  0
  187.0830  175.1470  135.4670 N   0  0  0  0  0  2  0  0  0  0  0  0
  187.5700  176.3020  136.1760 C   0  0  1  0  0  3  0  0  0  0  0  0
  1  2  2  0  0  0  0
  1  5  1  0  0  0  0
  2  6  1  0  0  0  0
  3  7  1  0  0  0  0
  4  3  1  0  0  0  0
  4 10  1  0  0  0  0
  5  4  2  0  0  0  0
  6  3  2  0  0  0  0
  8 11  1  0  0  0  0
  8 15  1  0  0  0  0
  9 10  2  0  0  0  0
  9 12  1  0  0  0  0
 10 13  1  0  0  0  0
 12  8  2  0  0  0  0
 13 14  1  0  0  0  0
 13 11  2  0  0  0  0
 15 21  1  6  0  0  0
 15 16  1  0  0  0  0
 16 19  1  0  0  0  0
 18 20  1  0  0  0  0
 19 20  1  0  0  0  0
 20 17  2  0  0  0  0
 21 22  1  0  0  0  0
 22 23  1  0  0  0  0
 25  6  1  0  0  0  0
 25 24  2  0  0  0  0
 26 27  1  0  0  0  0
 26 25  1  0  0  0  0
 28 27  1  0  0  0  0
 29 31  1  0  0  0  0
 30 28  1  6  0  0  0
 30 29  1  0  0  0  0
 30 31  1  0  0  0  0
 32  1  1  0  0  0  0
 33 34  1  0  0  0  0
 33 35  1  0  0  0  0
 34 35  1  0  0  0  0
 35 32  1  6  0  0  0
M  END
>  <MODEL>
8

>  <REMARK>
 VINA RESULT:      -7.4      3.074     10.272
  Name = 
  13 active torsions:
  status: ('A' for Active; 'I' for Inactive)
    1  A    between atoms: C_2  and  C_19
    2  A    between atoms: N_3  and  C_7
    3  A    between atoms: N_3  and  C_33
    4  A    between atoms: N_4  and  C_19
    5  A    between atoms: N_4  and  N_25
    6  A    between atoms: C_6  and  C_11
    7  A    between atoms: N_9  and  C_17
    8  A    between atoms: N_9  and  C_29
    9  A    between atoms: C_17  and  O_20
   10  A    between atoms: C_18  and  C_31
   11  A    between atoms: C_19  and  C_31
   12  A    between atoms: O_20  and  C_24
   13  A    between atoms: C_24  and  C_26
                            x       y       z     vdW  Elec       q    Type
                         _______ _______ _______ _____ _____    ______ ____

>  <TORSDO>
F 13

$$$$
=
 OpenBabel10222419173D

 35 38  0  0  1  0  0  0  0  0999 V2000
  187.9550  177.2730  145.8290 C   0  0  0  0  0  0  0  0  0  0  0  0
  189.0520  177.3900  144.9810 C   0  0  0  0  0  3  0  0  0  0  0  0
  187.5950  178.0060  143.1330 C   0  0  0  0  0  0  0  0  0  0  0  0
  186.4800  177.8990  144.0010 C   0  0  0  0  0  0  0  0  0  0  0  0
  186.6760  177.5320  145.3360 C   0  0  0  0  0  3  0  0  0  0  0  0
  188.9000  177.7590  143.6370 C   0  0  0  0  0  0  0  0  0  0  0  0
  187.3240  178.3400  141.4160 Cl  0  0  0  0  0  0  0  0  0  0  0  0
  182.4990  178.7280  142.6260 C   0  0  0  0  0  0  0  0  0  0  0  0
  184.7390  177.9030  142.2180 C   0  0  0  0  0  3  0  0  0  0  0  0
  185.0970  178.1680  143.5490 C   0  0  0  0  0  0  0  0  0  0  0  0
  182.8490  179.0000  143.9550 C   0  0  0  0  0  3  0  0  0  0  0  0
  183.4490  178.1760  141.7610 C   0  0  0  0  0  3  0  0  0  0  0  0
  184.1390  178.7270  144.4180 C   0  0  0  0  0  0  0  0  0  0  0  0
  184.4540  179.0040  145.7430 O   0  0  0  0  0  1  0  0  0  0  0  0
  181.1200  179.0070  142.1150 C   0  0  2  0  0  3  0  0  0  0  0  0
  181.1770  179.5720  140.7740 N   0  0  0  0  0  2  0  0  0  0  0  0
  180.2260  177.6520  137.8840 O   0  0  0  0  0  0  0  0  0  0  0  0
  182.1230  178.9670  138.1290 N   0  0  0  0  0  1  0  0  0  0  0  0
  180.4520  178.7140  139.9360 N   0  0  0  0  0  2  0  0  0  0  0  0
  180.9060  178.4140  138.6190 C   0  0  0  0  0  0  0  0  0  0  0  0
  180.3880  179.9550  143.0550 C   0  0  0  0  0  2  0  0  0  0  0  0
  179.0710  179.3550  143.5190 C   0  0  0  0  0  2  0  0  0  0  0  0
  179.3110  178.2480  144.3330 O   0  0  0  0  0  1  0  0  0  0  0  0
  190.9650  178.7920  143.0170 O   0  0  0  0  0  0  0  0  0  0  0  0
  190.1350  177.8630  142.8240 C   0  0  0  0  0  0  0  0  0  0  0  0
  190.3910  176.8970  141.8450 O   0  0  0  0  0  0  0  0  0  0  0  0
  191.0480  177.2050  140.6230 C   0  0  0  0  0  2  0  0  0  0  0  0
  190.5540  176.3380  139.5670 N   0  0  0  0  0  2  0  0  0  0  0  0
  189.5370  176.3710  137.4160 N   0  0  0  0  0  2  0  0  0  0  0  0
  190.1010  177.2000  138.4910 C   0  0  1  0  0  3  0  0  0  0  0  0
  188.6540  177.0840  138.3490 C   0  0  0  0  0  2  0  0  0  0  0  0
  188.1630  176.8960  147.1920 N   0  0  0  0  0  2  0  0  0  0  0  0
  187.9840  178.8640  148.3590 O   0  0  0  0  0  0  0  0  0  0  0  0
  187.9310  177.8790  149.3300 N   0  0  0  0  0  2  0  0  0  0  0  0
  188.7790  177.7800  148.1700 C   0  0  1  0  0  3  0  0  0  0  0  0
  1 32  1  0  0  0  0
  2  1  2  0  0  0  0
  3  6  2  0  0  0  0
  3  4  1  0  0  0  0
  4  5  2  0  0  0  0
  5  1  1  0  0  0  0
  6  2  1  0  0  0  0
  7  3  1  0  0  0  0
  8 11  1  0  0  0  0
  9 10  2  0  0  0  0
 10  4  1  0  0  0  0
 10 13  1  0  0  0  0
 11 13  2  0  0  0  0
 12  9  1  0  0  0  0
 12  8  2  0  0  0  0
 13 14  1  0  0  0  0
 15  8  1  0  0  0  0
 15 21  1  1  0  0  0
 16 15  1  0  0  0  0
 17 20  2  0  0  0  0
 18 20  1  0  0  0  0
 19 16  1  0  0  0  0
 20 19  1  0  0  0  0
 21 22  1  0  0  0  0
 22 23  1  0  0  0  0
 25 24  2  0  0  0  0
 25  6  1  0  0  0  0
 26 25  1  0  0  0  0
 27 26  1  0  0  0  0
 28 27  1  0  0  0  0
 29 31  1  0  0  0  0
 29 30  1  0  0  0  0
 30 28  1  1  0  0  0
 31 30  1  0  0  0  0
 33 34  1  0  0  0  0
 35 32  1  6  0  0  0
 35 33  1  0  0  0  0
 35 34  1  0  0  0  0
M  END
>  <MODEL>
9

>  <REMARK>
 VINA RESULT:      -7.4      2.470      7.460
  Name = 
  13 active torsions:
  status: ('A' for Active; 'I' for Inactive)
    1  A    between atoms: C_2  and  C_19
    2  A    between atoms: N_3  and  C_7
    3  A    between atoms: N_3  and  C_33
    4  A    between atoms: N_4  and  C_19
    5  A    between atoms: N_4  and  N_25
    6  A    between atoms: C_6  and  C_11
    7  A    between atoms: N_9  and  C_17
    8  A    between atoms: N_9  and  C_29
    9  A    between atoms: C_17  and  O_20
   10  A    between atoms: C_18  and  C_31
   11  A    between atoms: C_19  and  C_31
   12  A    between atoms: O_20  and  C_24
   13  A    between atoms: C_24  and  C_26
                            x       y       z     vdW  Elec       q    Type
                         _______ _______ _______ _____ _____    ______ ____

>  <TORSDO>
F 13

$$$$
