=
 OpenBabel10222419523D

 50 54  0  0  1  0  0  0  0  0999 V2000
  187.0680  177.5140  137.6050 N   0  0  0  0  0  0  0  0  0  0  0  0
  185.0810  178.2040  138.6230 C   0  0  0  0  0  0  0  0  0  0  0  0
  186.4890  178.1210  138.7200 N   0  0  0  0  0  0  0  0  0  0  0  0
  184.2910  178.6780  139.6050 C   0  0  1  0  0  3  0  0  0  0  0  0
  186.1320  177.0580  136.5850 C   0  0  0  0  0  2  0  0  0  0  0  0
  184.4380  177.5600  137.0810 S   0  0  0  0  0  0  0  0  0  0  0  0
  191.1680  176.1420  137.5900 C   0  0  1  0  0  3  0  0  0  0  0  0
  190.5550  176.8500  138.7760 C   0  0  0  0  0  0  0  0  0  0  0  0
  190.4860  176.5400  136.2650 C   0  0  1  0  0  3  0  0  0  0  0  0
  190.9940  176.6510  139.8980 O   0  0  0  0  0  0  0  0  0  0  0  0
  188.4850  177.3150  137.5010 C   0  0  0  0  0  0  0  0  0  0  0  0
  189.4000  177.7940  138.5960 C   0  0  0  0  0  2  0  0  0  0  0  0
  190.7520  175.5060  135.1880 C   0  0  0  0  0  1  0  0  0  0  0  0
  189.0030  176.7190  136.4190 C   0  0  0  0  0  3  0  0  0  0  0  0
  192.6560  176.4620  137.5200 C   0  0  0  0  0  2  0  0  0  0  0  0
  193.4040  175.3740  137.9740 O   0  0  0  0  0  0  0  0  0  0  0  0
  196.1530  173.3460  136.4880 S   0  0  0  0  0  0  0  0  0  0  0  0
  193.8620  174.7450  136.8140 C   0  0  2  0  0  3  0  0  0  0  0  0
  193.5800  173.2530  136.9020 C   0  0  1  0  0  3  0  0  0  0  0  0
  195.3580  174.9620  136.6770 C   0  0  2  0  0  3  0  0  0  0  0  0
  193.0620  172.7390  135.5700 C   0  0  0  0  0  1  0  0  0  0  0  0
  194.7930  172.5400  137.2790 N   0  0  0  0  0  2  0  0  0  0  0  0
  195.6400  175.8150  135.4550 C   0  0  0  0  0  1  0  0  0  0  0  0
  182.8730  178.6900  139.3830 N   0  0  0  0  0  0  0  0  0  0  0  0
  182.1910  179.7710  139.1770 C   0  0  0  0  0  3  0  0  0  0  0  0
  180.7190  179.7040  138.9490 C   0  0  0  0  0  2  0  0  0  0  0  0
  180.6670  180.1340  136.6890 N   0  0  0  0  0  2  0  0  0  0  0  0
  180.1100  182.4400  135.9200 C   0  0  0  0  0  2  0  0  0  0  0  0
  180.3220  180.6760  137.9420 N   0  0  0  0  0  0  0  0  0  0  0  0
  180.0120  180.9300  135.6450 C   0  0  0  0  0  2  0  0  0  0  0  0
  181.1420  181.8720  138.1660 C   0  0  0  0  0  2  0  0  0  0  0  0
  181.2310  182.7530  136.9090 C   0  0  2  0  0  3  0  0  0  0  0  0
  181.2290  184.2000  137.2750 C   0  0  0  0  0  0  0  0  0  0  0  0
  180.1720  184.8800  137.1970 O   0  0  0  0  0  0  0  0  0  0  0  0
  182.4060  184.8020  137.6990 O   0  0  0  0  0  1  0  0  0  0  0  0
  184.3970  178.8040  142.1070 C   0  0  0  0  0  3  0  0  0  0  0  0
  184.8150  179.1860  140.9030 C   0  0  0  0  0  3  0  0  0  0  0  0
  185.0010  179.3860  143.3370 C   0  0  0  0  0  2  0  0  0  0  0  0
  184.3180  178.8740  144.5200 N   0  0  0  0  0  2  0  0  0  0  0  0
  185.2960  178.3580  145.4770 C   0  0  2  0  0  3  0  0  0  0  0  0
  185.6310  179.3370  146.4170 O   0  0  0  0  0  1  0  0  0  0  0  0
  186.4470  177.9100  144.8200 O   0  0  0  0  0  0  0  0  0  0  0  0
  187.3670  177.6610  145.8400 C   0  0  0  0  0  2  0  0  0  0  0  0
  188.5060  177.0560  145.3060 O   0  0  0  0  0  0  0  0  0  0  0  0
  188.3320  177.1230  143.9190 C   0  0  2  0  0  3  0  0  0  0  0  0
  189.4880  176.3690  143.2310 C   0  0  0  0  0  0  0  0  0  0  0  0
  190.4590  178.5750  144.0820 C   0  0  0  0  0  1  0  0  0  0  0  0
  189.3650  177.8850  143.2800 C   0  0  2  0  0  0  0  0  0  0  0  0
  189.0300  178.4350  142.0430 O   0  0  0  0  0  1  0  0  0  0  0  0
  190.0640  175.3440  142.9070 O   0  0  0  0  0  0  0  0  0  0  0  0
  1  3  1  0  0  0  0
  2  3  2  0  0  0  0
  2  4  1  0  0  0  0
  4 37  1  1  0  0  0
  5  6  1  0  0  0  0
  5  1  1  0  0  0  0
  6  2  1  0  0  0  0
  7 15  1  6  0  0  0
  7  8  1  0  0  0  0
  8 10  2  0  0  0  0
  9 13  1  6  0  0  0
  9 14  1  0  0  0  0
  9  7  1  0  0  0  0
 11  1  1  0  0  0  0
 11 12  1  0  0  0  0
 12  8  1  0  0  0  0
 14 11  2  0  0  0  0
 15 16  1  0  0  0  0
 17 20  1  0  0  0  0
 17 22  1  0  0  0  0
 18 19  1  0  0  0  0
 18 16  1  1  0  0  0
 19 21  1  6  0  0  0
 19 22  1  0  0  0  0
 20 23  1  6  0  0  0
 20 18  1  0  0  0  0
 24  4  1  0  0  0  0
 25 24  2  0  0  0  0
 26 25  1  0  0  0  0
 27 29  1  0  0  0  0
 28 32  1  0  0  0  0
 29 31  1  0  0  0  0
 29 26  1  0  0  0  0
 30 28  1  0  0  0  0
 30 27  1  0  0  0  0
 32 33  1  1  0  0  0
 32 31  1  0  0  0  0
 33 35  1  0  0  0  0
 34 33  2  0  0  0  0
 36 38  1  0  0  0  0
 37 36  2  0  0  0  0
 38 39  1  0  0  0  0
 39 40  1  0  0  0  0
 40 41  1  1  0  0  0
 42 40  1  0  0  0  0
 42 43  1  0  0  0  0
 44 43  1  0  0  0  0
 45 44  1  1  0  0  0
 46 48  1  0  0  0  0
 46 45  1  0  0  0  0
 48 45  1  0  0  0  0
 48 47  1  1  0  0  0
 49 48  1  0  0  0  0
 50 46  2  0  0  0  0
M  END
>  <MODEL>
1

>  <REMARK>
 VINA RESULT:      -7.6      0.000      0.000
  Name = 
  16 active torsions:
  status: ('A' for Active; 'I' for Inactive)
    1  A    between atoms: C_1  and  C_11
    2  A    between atoms: N_2  and  C_25
    3  A    between atoms: N_4  and  C_5
    4  A    between atoms: N_4  and  C_18
    5  A    between atoms: C_5  and  O_29
    6  A    between atoms: C_6  and  O_39
    7  A    between atoms: C_7  and  C_18
    8  A    between atoms: N_8  and  C_40
    9  A    between atoms: C_11  and  O_48
   10  A    between atoms: C_13  and  C_45
   11  A    between atoms: C_16  and  O_29
   12  A    between atoms: C_16  and  O_39
   13  A    between atoms: C_19  and  C_25
   14  A    between atoms: C_22  and  O_48
   15  A    between atoms: C_23  and  N_32
   16  A    between atoms: C_23  and  C_43
                            x       y       z     vdW  Elec       q    Type
                         _______ _______ _______ _____ _____    ______ ____

>  <TORSDO>
F 16

$$$$
=
 OpenBabel10222419523D

 50 54  0  0  1  0  0  0  0  0999 V2000
  183.2440  178.7480  143.2860 N   0  0  0  0  0  0  0  0  0  0  0  0
  185.2810  178.1440  144.2610 C   0  0  0  0  0  0  0  0  0  0  0  0
  184.5310  178.2560  143.0660 N   0  0  0  0  0  0  0  0  0  0  0  0
  186.5210  177.6220  144.3180 C   0  0  1  0  0  3  0  0  0  0  0  0
  182.9080  179.0190  144.6790 C   0  0  0  0  0  2  0  0  0  0  0  0
  184.3950  178.7130  145.7090 S   0  0  0  0  0  0  0  0  0  0  0  0
  180.7230  180.0820  140.0370 C   0  0  1  0  0  3  0  0  0  0  0  0
  180.2940  180.1680  141.4830 C   0  0  0  0  0  0  0  0  0  0  0  0
  181.7410  178.9470  139.8040 C   0  0  1  0  0  3  0  0  0  0  0  0
  179.4790  181.0100  141.8290 O   0  0  0  0  0  0  0  0  0  0  0  0
  182.3080  178.9280  142.2140 C   0  0  0  0  0  0  0  0  0  0  0  0
  180.8640  179.2330  142.5120 C   0  0  0  0  0  2  0  0  0  0  0  0
  182.5130  179.1680  138.5180 C   0  0  0  0  0  1  0  0  0  0  0  0
  182.7100  178.8070  140.9420 C   0  0  0  0  0  3  0  0  0  0  0  0
  179.4990  179.8660  139.1550 C   0  0  0  0  0  2  0  0  0  0  0  0
  178.9750  181.0960  138.7520 O   0  0  0  0  0  0  0  0  0  0  0  0
  179.0570  182.5060  135.3050 S   0  0  0  0  0  0  0  0  0  0  0  0
  179.8020  181.5130  137.7060 C   0  0  2  0  0  3  0  0  0  0  0  0
  179.9030  183.0300  137.7150 C   0  0  1  0  0  3  0  0  0  0  0  0
  179.2140  181.0600  136.3830 C   0  0  2  0  0  3  0  0  0  0  0  0
  181.3370  183.4610  137.4620 C   0  0  0  0  0  1  0  0  0  0  0  0
  179.0220  183.5920  136.7000 N   0  0  0  0  0  2  0  0  0  0  0  0
  180.1340  180.0400  135.7380 C   0  0  0  0  0  1  0  0  0  0  0  0
  187.1630  177.5510  145.6000 N   0  0  0  0  0  0  0  0  0  0  0  0
  188.3730  177.9580  145.8160 C   0  0  0  0  0  3  0  0  0  0  0  0
  188.9720  177.8560  147.1770 C   0  0  0  0  0  2  0  0  0  0  0  0
  191.1140  177.4550  147.9140 N   0  0  0  0  0  2  0  0  0  0  0  0
  192.3600  175.5080  146.9770 C   0  0  0  0  0  2  0  0  0  0  0  0
  190.0570  176.8870  147.1780 N   0  0  0  0  0  0  0  0  0  0  0  0
  192.0960  176.4020  148.2000 C   0  0  0  0  0  2  0  0  0  0  0  0
  190.4930  176.7430  145.7850 C   0  0  0  0  0  2  0  0  0  0  0  0
  191.9250  176.1940  145.6840 C   0  0  2  0  0  3  0  0  0  0  0  0
  192.0570  175.2680  144.5200 C   0  0  0  0  0  0  0  0  0  0  0  0
  191.7810  175.6600  143.3550 O   0  0  0  0  0  0  0  0  0  0  0  0
  192.4810  173.9630  144.7260 O   0  0  0  0  0  1  0  0  0  0  0  0
  188.3630  177.6440  142.6170 C   0  0  0  0  0  3  0  0  0  0  0  0
  187.2520  177.1160  143.1240 C   0  0  0  0  0  3  0  0  0  0  0  0
  189.0030  177.0460  141.4130 C   0  0  0  0  0  2  0  0  0  0  0  0
  190.2810  177.7010  141.1510 N   0  0  0  0  0  2  0  0  0  0  0  0
  190.9390  177.0690  140.0080 C   0  0  2  0  0  3  0  0  0  0  0  0
  192.3100  177.3410  140.0150 O   0  0  0  0  0  1  0  0  0  0  0  0
  190.3710  177.5010  138.8050 O   0  0  0  0  0  0  0  0  0  0  0  0
  189.9520  176.3320  138.1670 C   0  0  0  0  0  2  0  0  0  0  0  0
  188.9680  176.6390  137.2250 O   0  0  0  0  0  0  0  0  0  0  0  0
  187.7910  176.7800  137.9680 C   0  0  2  0  0  3  0  0  0  0  0  0
  186.5810  176.6880  137.0170 C   0  0  0  0  0  0  0  0  0  0  0  0
  187.6380  178.9850  136.6360 C   0  0  0  0  0  1  0  0  0  0  0  0
  187.0830  177.9830  137.6390 C   0  0  2  0  0  0  0  0  0  0  0  0
  186.2280  178.4690  138.6270 O   0  0  0  0  0  1  0  0  0  0  0  0
  185.8170  176.0600  136.3030 O   0  0  0  0  0  0  0  0  0  0  0  0
  1  5  1  0  0  0  0
  2  4  1  0  0  0  0
  2  6  1  0  0  0  0
  3  1  1  0  0  0  0
  3  2  2  0  0  0  0
  4 37  1  1  0  0  0
  4 24  1  0  0  0  0
  5  6  1  0  0  0  0
  7 15  1  6  0  0  0
  7  8  1  0  0  0  0
  8 10  2  0  0  0  0
  8 12  1  0  0  0  0
  9 13  1  6  0  0  0
  9  7  1  0  0  0  0
  9 14  1  0  0  0  0
 11 12  1  0  0  0  0
 11  1  1  0  0  0  0
 14 11  2  0  0  0  0
 16 15  1  0  0  0  0
 17 20  1  0  0  0  0
 17 22  1  0  0  0  0
 18 19  1  0  0  0  0
 18 16  1  1  0  0  0
 19 21  1  6  0  0  0
 20 23  1  6  0  0  0
 20 18  1  0  0  0  0
 22 19  1  0  0  0  0
 24 25  2  0  0  0  0
 25 26  1  0  0  0  0
 26 29  1  0  0  0  0
 27 30  1  0  0  0  0
 28 30  1  0  0  0  0
 29 27  1  0  0  0  0
 31 29  1  0  0  0  0
 32 33  1  6  0  0  0
 32 31  1  0  0  0  0
 32 28  1  0  0  0  0
 33 35  1  0  0  0  0
 34 33  2  0  0  0  0
 36 37  2  0  0  0  0
 38 36  1  0  0  0  0
 39 38  1  0  0  0  0
 40 41  1  6  0  0  0
 40 39  1  0  0  0  0
 42 40  1  0  0  0  0
 43 42  1  0  0  0  0
 44 43  1  0  0  0  0
 45 44  1  6  0  0  0
 46 48  1  0  0  0  0
 46 45  1  0  0  0  0
 48 47  1  6  0  0  0
 48 45  1  0  0  0  0
 48 49  1  0  0  0  0
 50 46  2  0  0  0  0
M  END
>  <MODEL>
2

>  <REMARK>
 VINA RESULT:      -7.5      4.168     11.725
  Name = 
  16 active torsions:
  status: ('A' for Active; 'I' for Inactive)
    1  A    between atoms: C_1  and  C_11
    2  A    between atoms: N_2  and  C_25
    3  A    between atoms: N_4  and  C_5
    4  A    between atoms: N_4  and  C_18
    5  A    between atoms: C_5  and  O_29
    6  A    between atoms: C_6  and  O_39
    7  A    between atoms: C_7  and  C_18
    8  A    between atoms: N_8  and  C_40
    9  A    between atoms: C_11  and  O_48
   10  A    between atoms: C_13  and  C_45
   11  A    between atoms: C_16  and  O_29
   12  A    between atoms: C_16  and  O_39
   13  A    between atoms: C_19  and  C_25
   14  A    between atoms: C_22  and  O_48
   15  A    between atoms: C_23  and  N_32
   16  A    between atoms: C_23  and  C_43
                            x       y       z     vdW  Elec       q    Type
                         _______ _______ _______ _____ _____    ______ ____

>  <TORSDO>
F 16

$$$$
=
 OpenBabel10222419523D

 50 54  0  0  1  0  0  0  0  0999 V2000
  187.3810  177.2100  137.0600 N   0  0  0  0  0  0  0  0  0  0  0  0
  185.3120  177.8550  137.9350 C   0  0  0  0  0  0  0  0  0  0  0  0
  186.7150  177.8430  138.1100 N   0  0  0  0  0  0  0  0  0  0  0  0
  184.4490  178.3390  138.8480 C   0  0  1  0  0  3  0  0  0  0  0  0
  186.5230  176.6620  136.0160 C   0  0  0  0  0  2  0  0  0  0  0  0
  184.7830  177.1070  136.3960 S   0  0  0  0  0  0  0  0  0  0  0  0
  191.5440  176.1350  137.5070 C   0  0  1  0  0  3  0  0  0  0  0  0
  190.8570  177.1150  138.4300 C   0  0  0  0  0  0  0  0  0  0  0  0
  190.8860  176.0960  136.1130 C   0  0  1  0  0  3  0  0  0  0  0  0
  191.2680  177.2710  139.5690 O   0  0  0  0  0  0  0  0  0  0  0  0
  188.8080  177.0730  137.0410 C   0  0  0  0  0  0  0  0  0  0  0  0
  189.6610  177.8980  137.9670 C   0  0  0  0  0  2  0  0  0  0  0  0
  191.2400  174.8150  135.3830 C   0  0  0  0  0  1  0  0  0  0  0  0
  189.3910  176.2250  136.1840 C   0  0  0  0  0  3  0  0  0  0  0  0
  193.0150  176.5090  137.3730 C   0  0  0  0  0  2  0  0  0  0  0  0
  193.7730  175.8270  138.3270 O   0  0  0  0  0  0  0  0  0  0  0  0
  196.9490  174.8600  136.6360 S   0  0  0  0  0  0  0  0  0  0  0  0
  194.4280  174.8200  137.6130 C   0  0  2  0  0  3  0  0  0  0  0  0
  195.3610  174.0630  138.5450 C   0  0  1  0  0  3  0  0  0  0  0  0
  195.2400  175.4420  136.4920 C   0  0  2  0  0  3  0  0  0  0  0  0
  195.2680  172.5710  138.2780 C   0  0  0  0  0  1  0  0  0  0  0  0
  196.7300  174.5230  138.3580 N   0  0  0  0  0  2  0  0  0  0  0  0
  194.6690  175.0170  135.1510 C   0  0  0  0  0  1  0  0  0  0  0  0
  183.0460  178.2730  138.5510 N   0  0  0  0  0  0  0  0  0  0  0  0
  182.2940  179.3190  138.4180 C   0  0  0  0  0  3  0  0  0  0  0  0
  180.8440  179.1710  138.1040 C   0  0  0  0  0  2  0  0  0  0  0  0
  180.4490  180.9020  139.5660 N   0  0  0  0  0  2  0  0  0  0  0  0
  179.0330  180.4770  141.5740 C   0  0  0  0  0  2  0  0  0  0  0  0
  180.0390  179.5960  139.2380 N   0  0  0  0  0  0  0  0  0  0  0  0
  179.4640  181.4780  140.4900 C   0  0  0  0  0  2  0  0  0  0  0  0
  180.3860  178.7120  140.3550 C   0  0  0  0  0  2  0  0  0  0  0  0
  180.0440  179.3410  141.7160 C   0  0  2  0  0  3  0  0  0  0  0  0
  179.5510  178.3050  142.6700 C   0  0  0  0  0  0  0  0  0  0  0  0
  179.2860  178.6070  143.8640 O   0  0  0  0  0  1  0  0  0  0  0  0
  179.3890  176.9960  142.2390 O   0  0  0  0  0  0  0  0  0  0  0  0
  184.6540  178.4080  141.3470 C   0  0  0  0  0  3  0  0  0  0  0  0
  184.8770  178.9330  140.1450 C   0  0  0  0  0  3  0  0  0  0  0  0
  185.1340  179.1000  142.5750 C   0  0  0  0  0  2  0  0  0  0  0  0
  184.3480  178.6730  143.7270 N   0  0  0  0  0  2  0  0  0  0  0  0
  185.2370  178.2970  144.8260 C   0  0  2  0  0  3  0  0  0  0  0  0
  185.6830  179.4310  145.5110 O   0  0  0  0  0  1  0  0  0  0  0  0
  186.3300  177.5620  144.3520 O   0  0  0  0  0  0  0  0  0  0  0  0
  187.3700  177.8580  145.2350 C   0  0  0  0  0  2  0  0  0  0  0  0
  188.4290  176.9750  145.0250 O   0  0  0  0  0  0  0  0  0  0  0  0
  189.2100  177.5790  144.0340 C   0  0  2  0  0  3  0  0  0  0  0  0
  190.1020  176.5080  143.3740 C   0  0  0  0  0  0  0  0  0  0  0  0
  191.1120  176.9840  145.6740 C   0  0  0  0  0  1  0  0  0  0  0  0
  190.6080  177.5550  144.3570 C   0  0  2  0  0  0  0  0  0  0  0  0
  191.3850  178.5350  143.7400 O   0  0  0  0  0  1  0  0  0  0  0  0
  190.2700  175.5500  142.6390 O   0  0  0  0  0  0  0  0  0  0  0  0
  1  3  1  0  0  0  0
  2  3  2  0  0  0  0
  2  4  1  0  0  0  0
  4 37  1  1  0  0  0
  5  6  1  0  0  0  0
  5  1  1  0  0  0  0
  6  2  1  0  0  0  0
  7 15  1  6  0  0  0
  7  8  1  0  0  0  0
  8 10  2  0  0  0  0
  9 13  1  1  0  0  0
  9 14  1  0  0  0  0
  9  7  1  0  0  0  0
 11  1  1  0  0  0  0
 11 12  1  0  0  0  0
 12  8  1  0  0  0  0
 14 11  2  0  0  0  0
 15 16  1  0  0  0  0
 17 22  1  0  0  0  0
 18 16  1  1  0  0  0
 18 19  1  0  0  0  0
 19 21  1  6  0  0  0
 20 23  1  6  0  0  0
 20 17  1  0  0  0  0
 20 18  1  0  0  0  0
 22 19  1  0  0  0  0
 24  4  1  0  0  0  0
 25 24  2  0  0  0  0
 26 25  1  0  0  0  0
 26 29  1  0  0  0  0
 27 30  1  0  0  0  0
 28 32  1  0  0  0  0
 29 27  1  0  0  0  0
 29 31  1  0  0  0  0
 30 28  1  0  0  0  0
 31 32  1  0  0  0  0
 32 33  1  1  0  0  0
 33 34  1  0  0  0  0
 35 33  2  0  0  0  0
 36 38  1  0  0  0  0
 37 36  2  0  0  0  0
 38 39  1  0  0  0  0
 39 40  1  0  0  0  0
 40 41  1  6  0  0  0
 42 40  1  0  0  0  0
 42 43  1  0  0  0  0
 44 43  1  0  0  0  0
 45 48  1  0  0  0  0
 45 44  1  1  0  0  0
 46 45  1  0  0  0  0
 46 48  1  0  0  0  0
 48 47  1  1  0  0  0
 49 48  1  0  0  0  0
 50 46  2  0  0  0  0
M  END
>  <MODEL>
3

>  <REMARK>
 VINA RESULT:      -7.2      2.457      2.944
  Name = 
  16 active torsions:
  status: ('A' for Active; 'I' for Inactive)
    1  A    between atoms: C_1  and  C_11
    2  A    between atoms: N_2  and  C_25
    3  A    between atoms: N_4  and  C_5
    4  A    between atoms: N_4  and  C_18
    5  A    between atoms: C_5  and  O_29
    6  A    between atoms: C_6  and  O_39
    7  A    between atoms: C_7  and  C_18
    8  A    between atoms: N_8  and  C_40
    9  A    between atoms: C_11  and  O_48
   10  A    between atoms: C_13  and  C_45
   11  A    between atoms: C_16  and  O_29
   12  A    between atoms: C_16  and  O_39
   13  A    between atoms: C_19  and  C_25
   14  A    between atoms: C_22  and  O_48
   15  A    between atoms: C_23  and  N_32
   16  A    between atoms: C_23  and  C_43
                            x       y       z     vdW  Elec       q    Type
                         _______ _______ _______ _____ _____    ______ ____

>  <TORSDO>
F 16

$$$$
=
 OpenBabel10222419523D

 50 54  0  0  1  0  0  0  0  0999 V2000
  182.7670  178.8330  142.5300 N   0  0  0  0  0  0  0  0  0  0  0  0
  184.8200  178.2120  143.4590 C   0  0  0  0  0  0  0  0  0  0  0  0
  184.1080  178.5380  142.2810 N   0  0  0  0  0  0  0  0  0  0  0  0
  186.1070  177.8170  143.4690 C   0  0  1  0  0  3  0  0  0  0  0  0
  182.3500  178.7210  143.9230 C   0  0  0  0  0  2  0  0  0  0  0  0
  183.8230  178.3210  144.9420 S   0  0  0  0  0  0  0  0  0  0  0  0
  180.4460  180.6010  139.3390 C   0  0  1  0  0  3  0  0  0  0  0  0
  180.0540  180.7280  140.7930 C   0  0  0  0  0  0  0  0  0  0  0  0
  181.2700  179.3250  139.0740 C   0  0  1  0  0  3  0  0  0  0  0  0
  179.3870  181.6820  141.1630 O   0  0  0  0  0  0  0  0  0  0  0  0
  181.8580  179.1760  141.4750 C   0  0  0  0  0  0  0  0  0  0  0  0
  180.4840  179.6980  141.7990 C   0  0  0  0  0  2  0  0  0  0  0  0
  182.0520  179.4440  137.7800 C   0  0  0  0  0  1  0  0  0  0  0  0
  182.2200  179.0150  140.1950 C   0  0  0  0  0  3  0  0  0  0  0  0
  179.1930  180.5950  138.4730 C   0  0  0  0  0  2  0  0  0  0  0  0
  178.9320  181.8820  137.9970 O   0  0  0  0  0  0  0  0  0  0  0  0
  180.2100  183.8860  135.1290 S   0  0  0  0  0  0  0  0  0  0  0  0
  180.0670  182.2290  137.2610 C   0  0  2  0  0  3  0  0  0  0  0  0
  180.5530  183.6030  137.6980 C   0  0  1  0  0  3  0  0  0  0  0  0
  179.7200  182.2710  135.7840 C   0  0  2  0  0  3  0  0  0  0  0  0
  182.0670  183.6080  137.8190 C   0  0  0  0  0  1  0  0  0  0  0  0
  180.1210  184.6100  136.7390 N   0  0  0  0  0  2  0  0  0  0  0  0
  180.4710  181.1740  135.0520 C   0  0  0  0  0  1  0  0  0  0  0  0
  186.7040  177.4990  144.7340 N   0  0  0  0  0  0  0  0  0  0  0  0
  187.2490  178.3820  145.5090 C   0  0  0  0  0  3  0  0  0  0  0  0
  187.8460  177.9760  146.8140 C   0  0  0  0  0  2  0  0  0  0  0  0
  189.9670  177.6310  147.6370 N   0  0  0  0  0  2  0  0  0  0  0  0
  191.6290  176.4420  146.2080 C   0  0  0  0  0  2  0  0  0  0  0  0
  189.0950  177.2620  146.5940 N   0  0  0  0  0  0  0  0  0  0  0  0
  191.1100  176.7100  147.6300 C   0  0  0  0  0  2  0  0  0  0  0  0
  189.6500  177.7650  145.3330 C   0  0  0  0  0  2  0  0  0  0  0  0
  191.1660  177.5230  145.2340 C   0  0  2  0  0  3  0  0  0  0  0  0
  191.5570  177.1820  143.8350 C   0  0  0  0  0  0  0  0  0  0  0  0
  191.6930  175.9810  143.4810 O   0  0  0  0  0  1  0  0  0  0  0  0
  191.7800  178.2000  142.9170 O   0  0  0  0  0  0  0  0  0  0  0  0
  188.2250  177.9990  142.1390 C   0  0  0  0  0  3  0  0  0  0  0  0
  186.9340  177.6920  142.2370 C   0  0  0  0  0  3  0  0  0  0  0  0
  188.9460  177.8310  140.8470 C   0  0  0  0  0  2  0  0  0  0  0  0
  188.1400  178.3610  139.7520 N   0  0  0  0  0  2  0  0  0  0  0  0
  188.9140  178.3500  138.5120 C   0  0  2  0  0  3  0  0  0  0  0  0
  188.8370  179.5900  137.8710 O   0  0  0  0  0  1  0  0  0  0  0  0
  188.4670  177.3380  137.6560 O   0  0  0  0  0  0  0  0  0  0  0  0
  187.0790  177.4850  137.6220 C   0  0  0  0  0  2  0  0  0  0  0  0
  186.5610  176.7900  136.5280 O   0  0  0  0  0  0  0  0  0  0  0  0
  185.4190  176.1480  137.0190 C   0  0  2  0  0  3  0  0  0  0  0  0
  184.9780  175.0670  136.0130 C   0  0  0  0  0  0  0  0  0  0  0  0
  184.3260  177.3200  134.9970 C   0  0  0  0  0  1  0  0  0  0  0  0
  184.2650  176.3970  136.2050 C   0  0  2  0  0  0  0  0  0  0  0  0
  183.0340  176.2570  136.8450 O   0  0  0  0  0  1  0  0  0  0  0  0
  185.1080  173.9820  135.4710 O   0  0  0  0  0  0  0  0  0  0  0  0
  1  5  1  0  0  0  0
  2  4  1  0  0  0  0
  2  6  1  0  0  0  0
  3  1  1  0  0  0  0
  3  2  2  0  0  0  0
  4 37  1  6  0  0  0
  4 24  1  0  0  0  0
  5  6  1  0  0  0  0
  7 15  1  6  0  0  0
  7  8  1  0  0  0  0
  8 10  2  0  0  0  0
  8 12  1  0  0  0  0
  9 13  1  6  0  0  0
  9  7  1  0  0  0  0
  9 14  1  0  0  0  0
 11 12  1  0  0  0  0
 11  1  1  0  0  0  0
 14 11  2  0  0  0  0
 16 15  1  0  0  0  0
 17 20  1  0  0  0  0
 17 22  1  0  0  0  0
 18 19  1  0  0  0  0
 18 16  1  1  0  0  0
 19 21  1  6  0  0  0
 20 23  1  6  0  0  0
 20 18  1  0  0  0  0
 22 19  1  0  0  0  0
 24 25  2  0  0  0  0
 25 26  1  0  0  0  0
 28 30  1  0  0  0  0
 29 26  1  0  0  0  0
 29 27  1  0  0  0  0
 30 27  1  0  0  0  0
 31 29  1  0  0  0  0
 32 33  1  6  0  0  0
 32 31  1  0  0  0  0
 32 28  1  0  0  0  0
 34 33  1  0  0  0  0
 35 33  2  0  0  0  0
 36 37  2  0  0  0  0
 38 36  1  0  0  0  0
 39 38  1  0  0  0  0
 40 41  1  6  0  0  0
 40 39  1  0  0  0  0
 42 40  1  0  0  0  0
 43 42  1  0  0  0  0
 44 43  1  0  0  0  0
 45 44  1  6  0  0  0
 46 48  1  0  0  0  0
 46 45  1  0  0  0  0
 48 47  1  6  0  0  0
 48 49  1  0  0  0  0
 48 45  1  0  0  0  0
 50 46  2  0  0  0  0
M  END
>  <MODEL>
4

>  <REMARK>
 VINA RESULT:      -7.0      4.538     11.504
  Name = 
  16 active torsions:
  status: ('A' for Active; 'I' for Inactive)
    1  A    between atoms: C_1  and  C_11
    2  A    between atoms: N_2  and  C_25
    3  A    between atoms: N_4  and  C_5
    4  A    between atoms: N_4  and  C_18
    5  A    between atoms: C_5  and  O_29
    6  A    between atoms: C_6  and  O_39
    7  A    between atoms: C_7  and  C_18
    8  A    between atoms: N_8  and  C_40
    9  A    between atoms: C_11  and  O_48
   10  A    between atoms: C_13  and  C_45
   11  A    between atoms: C_16  and  O_29
   12  A    between atoms: C_16  and  O_39
   13  A    between atoms: C_19  and  C_25
   14  A    between atoms: C_22  and  O_48
   15  A    between atoms: C_23  and  N_32
   16  A    between atoms: C_23  and  C_43
                            x       y       z     vdW  Elec       q    Type
                         _______ _______ _______ _____ _____    ______ ____

>  <TORSDO>
F 16

$$$$
=
 OpenBabel10222419523D

 50 54  0  0  1  0  0  0  0  0999 V2000
  183.5550  178.4760  142.8110 N   0  0  0  0  0  0  0  0  0  0  0  0
  182.1600  178.6540  140.9450 C   0  0  0  0  0  0  0  0  0  0  0  0
  183.3990  178.2000  141.4520 N   0  0  0  0  0  0  0  0  0  0  0  0
  181.8090  178.5740  139.6470 C   0  0  1  0  0  3  0  0  0  0  0  0
  182.4490  179.1940  143.4340 C   0  0  0  0  0  2  0  0  0  0  0  0
  181.1150  179.4040  142.1910 S   0  0  0  0  0  0  0  0  0  0  0  0
  187.3430  178.2020  144.8760 C   0  0  1  0  0  3  0  0  0  0  0  0
  187.2110  177.9620  143.3900 C   0  0  0  0  0  0  0  0  0  0  0  0
  186.0330  177.8910  145.6290 C   0  0  1  0  0  3  0  0  0  0  0  0
  188.1680  178.1510  142.6550 O   0  0  0  0  0  0  0  0  0  0  0  0
  184.7440  178.1150  143.5270 C   0  0  0  0  0  0  0  0  0  0  0  0
  185.9100  177.5010  142.7980 C   0  0  0  0  0  2  0  0  0  0  0  0
  186.0120  178.5750  146.9820 C   0  0  0  0  0  1  0  0  0  0  0  0
  184.8170  178.3030  144.8510 C   0  0  0  0  0  3  0  0  0  0  0  0
  188.4730  177.3430  145.4310 C   0  0  0  0  0  2  0  0  0  0  0  0
  189.1650  178.0420  146.4220 O   0  0  0  0  0  0  0  0  0  0  0  0
  191.7060  175.6950  145.0400 S   0  0  0  0  0  0  0  0  0  0  0  0
  190.5150  177.8780  146.1020 C   0  0  2  0  0  3  0  0  0  0  0  0
  190.7060  178.0630  144.6040 C   0  0  1  0  0  3  0  0  0  0  0  0
  190.9600  176.4810  146.4910 C   0  0  2  0  0  3  0  0  0  0  0  0
  191.9510  178.8890  144.3350 C   0  0  0  0  0  1  0  0  0  0  0  0
  190.8120  176.7650  143.9530 N   0  0  0  0  0  2  0  0  0  0  0  0
  191.9850  176.5640  147.6080 C   0  0  0  0  0  1  0  0  0  0  0  0
  180.5260  179.0900  139.2630 N   0  0  0  0  0  0  0  0  0  0  0  0
  180.3550  179.9250  138.2880 C   0  0  0  0  0  3  0  0  0  0  0  0
  178.9890  180.4140  137.9440 C   0  0  0  0  0  2  0  0  0  0  0  0
  179.4010  181.0040  135.7580 N   0  0  0  0  0  2  0  0  0  0  0  0
  179.7340  183.4140  135.2090 C   0  0  0  0  0  2  0  0  0  0  0  0
  179.0750  181.5350  137.0210 N   0  0  0  0  0  0  0  0  0  0  0  0
  179.1930  182.0490  134.7500 C   0  0  0  0  0  2  0  0  0  0  0  0
  180.1960  182.3660  137.4720 C   0  0  0  0  0  2  0  0  0  0  0  0
  180.7430  183.2570  136.3450 C   0  0  2  0  0  3  0  0  0  0  0  0
  181.1580  184.5890  136.8760 C   0  0  0  0  0  0  0  0  0  0  0  0
  182.2660  184.7310  137.4580 O   0  0  0  0  0  1  0  0  0  0  0  0
  180.3110  185.6800  136.7320 O   0  0  0  0  0  0  0  0  0  0  0  0
  182.4950  176.8040  138.0090 C   0  0  0  0  0  3  0  0  0  0  0  0
  182.6840  177.9810  138.5980 C   0  0  0  0  0  3  0  0  0  0  0  0
  183.4440  176.3170  136.9700 C   0  0  0  0  0  2  0  0  0  0  0  0
  184.0150  175.0370  137.3760 N   0  0  0  0  0  2  0  0  0  0  0  0
  185.1730  174.7200  136.5400 C   0  0  2  0  0  3  0  0  0  0  0  0
  185.1770  173.3660  136.1950 O   0  0  0  0  0  1  0  0  0  0  0  0
  186.3640  175.0530  137.1930 O   0  0  0  0  0  0  0  0  0  0  0  0
  187.1140  175.7440  136.2390 C   0  0  0  0  0  2  0  0  0  0  0  0
  188.1010  176.4980  136.8760 O   0  0  0  0  0  0  0  0  0  0  0  0
  187.4170  177.5740  137.4520 C   0  0  2  0  0  3  0  0  0  0  0  0
  188.3920  178.7560  137.6250 C   0  0  0  0  0  0  0  0  0  0  0  0
  188.9850  177.0480  139.4320 C   0  0  0  0  0  1  0  0  0  0  0  0
  187.8980  177.8800  138.7680 C   0  0  2  0  0  0  0  0  0  0  0  0
  186.9970  178.5440  139.5990 O   0  0  0  0  0  1  0  0  0  0  0  0
  189.0580  179.6770  137.1820 O   0  0  0  0  0  0  0  0  0  0  0  0
  1  5  1  0  0  0  0
  1 11  1  0  0  0  0
  2  3  2  0  0  0  0
  2  6  1  0  0  0  0
  3  1  1  0  0  0  0
  4 37  1  6  0  0  0
  4  2  1  0  0  0  0
  6  5  1  0  0  0  0
  7 15  1  1  0  0  0
  7  9  1  0  0  0  0
  8  7  1  0  0  0  0
  9 13  1  1  0  0  0
 10  8  2  0  0  0  0
 11 14  2  0  0  0  0
 12  8  1  0  0  0  0
 12 11  1  0  0  0  0
 14  9  1  0  0  0  0
 15 16  1  0  0  0  0
 17 20  1  0  0  0  0
 18 16  1  6  0  0  0
 18 20  1  0  0  0  0
 19 21  1  1  0  0  0
 19 18  1  0  0  0  0
 20 23  1  1  0  0  0
 22 19  1  0  0  0  0
 22 17  1  0  0  0  0
 24  4  1  0  0  0  0
 25 24  2  0  0  0  0
 26 25  1  0  0  0  0
 27 29  1  0  0  0  0
 28 32  1  0  0  0  0
 29 31  1  0  0  0  0
 29 26  1  0  0  0  0
 30 28  1  0  0  0  0
 30 27  1  0  0  0  0
 32 33  1  1  0  0  0
 32 31  1  0  0  0  0
 33 34  1  0  0  0  0
 35 33  2  0  0  0  0
 36 37  2  0  0  0  0
 38 39  1  0  0  0  0
 38 36  1  0  0  0  0
 40 41  1  1  0  0  0
 40 42  1  0  0  0  0
 40 39  1  0  0  0  0
 43 44  1  0  0  0  0
 43 42  1  0  0  0  0
 45 44  1  6  0  0  0
 45 46  1  0  0  0  0
 45 48  1  0  0  0  0
 46 48  1  0  0  0  0
 48 47  1  1  0  0  0
 48 49  1  0  0  0  0
 50 46  2  0  0  0  0
M  END
>  <MODEL>
5

>  <REMARK>
 VINA RESULT:      -6.8      3.735      7.154
  Name = 
  16 active torsions:
  status: ('A' for Active; 'I' for Inactive)
    1  A    between atoms: C_1  and  C_11
    2  A    between atoms: N_2  and  C_25
    3  A    between atoms: N_4  and  C_5
    4  A    between atoms: N_4  and  C_18
    5  A    between atoms: C_5  and  O_29
    6  A    between atoms: C_6  and  O_39
    7  A    between atoms: C_7  and  C_18
    8  A    between atoms: N_8  and  C_40
    9  A    between atoms: C_11  and  O_48
   10  A    between atoms: C_13  and  C_45
   11  A    between atoms: C_16  and  O_29
   12  A    between atoms: C_16  and  O_39
   13  A    between atoms: C_19  and  C_25
   14  A    between atoms: C_22  and  O_48
   15  A    between atoms: C_23  and  N_32
   16  A    between atoms: C_23  and  C_43
                            x       y       z     vdW  Elec       q    Type
                         _______ _______ _______ _____ _____    ______ ____

>  <TORSDO>
F 16

$$$$
=
 OpenBabel10222419523D

 50 54  0  0  1  0  0  0  0  0999 V2000
  183.4290  178.6480  142.5910 N   0  0  0  0  0  0  0  0  0  0  0  0
  182.1440  178.3950  140.6560 C   0  0  0  0  0  0  0  0  0  0  0  0
  183.3790  178.1380  141.2940 N   0  0  0  0  0  0  0  0  0  0  0  0
  181.8820  178.0700  139.3760 C   0  0  1  0  0  3  0  0  0  0  0  0
  182.2360  179.3640  143.0270 C   0  0  0  0  0  2  0  0  0  0  0  0
  180.9700  179.2520  141.7030 S   0  0  0  0  0  0  0  0  0  0  0  0
  186.6240  177.4790  145.2590 C   0  0  1  0  0  3  0  0  0  0  0  0
  185.4000  178.2250  145.7390 C   0  0  0  0  0  0  0  0  0  0  0  0
  186.9280  177.7650  143.7750 C   0  0  1  0  0  3  0  0  0  0  0  0
  185.0330  178.1130  146.8990 O   0  0  0  0  0  0  0  0  0  0  0  0
  184.5950  178.5130  143.4150 C   0  0  0  0  0  0  0  0  0  0  0  0
  184.6160  179.0990  144.8020 C   0  0  0  0  0  2  0  0  0  0  0  0
  187.8140  176.6840  143.1860 C   0  0  0  0  0  1  0  0  0  0  0  0
  185.6800  177.8810  142.9480 C   0  0  0  0  0  3  0  0  0  0  0  0
  187.8230  177.8670  146.1150 C   0  0  0  0  0  2  0  0  0  0  0  0
  188.6650  176.7670  146.2890 O   0  0  0  0  0  0  0  0  0  0  0  0
  192.2670  176.0050  146.8610 S   0  0  0  0  0  0  0  0  0  0  0  0
  189.9530  177.3050  146.3420 C   0  0  2  0  0  3  0  0  0  0  0  0
  190.6830  177.0000  145.0440 C   0  0  1  0  0  3  0  0  0  0  0  0
  190.7140  176.6840  147.4990 C   0  0  2  0  0  3  0  0  0  0  0  0
  191.4580  178.2210  144.5810 C   0  0  0  0  0  1  0  0  0  0  0  0
  191.5860  175.8730  145.2350 N   0  0  0  0  0  2  0  0  0  0  0  0
  191.0120  177.7450  148.5420 C   0  0  0  0  0  1  0  0  0  0  0  0
  180.5900  178.4050  138.8460 N   0  0  0  0  0  0  0  0  0  0  0  0
  180.4030  179.3100  137.9390 C   0  0  0  0  0  3  0  0  0  0  0  0
  179.0310  179.6000  137.4340 C   0  0  0  0  0  2  0  0  0  0  0  0
  179.4470  180.6210  135.4150 N   0  0  0  0  0  2  0  0  0  0  0  0
  179.5040  183.1130  135.3200 C   0  0  0  0  0  2  0  0  0  0  0  0
  179.0130  180.8730  136.7300 N   0  0  0  0  0  0  0  0  0  0  0  0
  179.1510  181.8020  134.5960 C   0  0  0  0  0  2  0  0  0  0  0  0
  180.0070  181.7290  137.3850 C   0  0  0  0  0  2  0  0  0  0  0  0
  180.4820  182.8670  136.4670 C   0  0  2  0  0  3  0  0  0  0  0  0
  180.7110  184.1180  137.2480 C   0  0  0  0  0  0  0  0  0  0  0  0
  179.7990  184.5980  137.9730 O   0  0  0  0  0  1  0  0  0  0  0  0
  181.9380  184.7620  137.1690 O   0  0  0  0  0  0  0  0  0  0  0  0
  184.0210  177.8970  138.0790 C   0  0  0  0  0  3  0  0  0  0  0  0
  182.8620  177.3870  138.4880 C   0  0  0  0  0  3  0  0  0  0  0  0
  184.9200  177.1130  137.1880 C   0  0  0  0  0  2  0  0  0  0  0  0
  186.1270  177.8800  136.8970 N   0  0  0  0  0  2  0  0  0  0  0  0
  187.2980  177.1960  137.4440 C   0  0  2  0  0  3  0  0  0  0  0  0
  187.9130  177.9780  138.4260 O   0  0  0  0  0  1  0  0  0  0  0  0
  188.2130  176.8880  136.4320 O   0  0  0  0  0  0  0  0  0  0  0  0
  189.0050  175.8690  136.9650 C   0  0  0  0  0  2  0  0  0  0  0  0
  190.2130  175.8030  136.2690 O   0  0  0  0  0  0  0  0  0  0  0  0
  191.0540  175.0330  137.0810 C   0  0  2  0  0  3  0  0  0  0  0  0
  192.3590  175.8130  137.3350 C   0  0  0  0  0  0  0  0  0  0  0  0
  192.4750  174.9610  134.9280 C   0  0  0  0  0  1  0  0  0  0  0  0
  192.2440  174.6230  136.3930 C   0  0  2  0  0  0  0  0  0  0  0  0
  192.8660  173.4810  136.8950 O   0  0  0  0  0  1  0  0  0  0  0  0
  192.9930  176.7060  137.8720 O   0  0  0  0  0  0  0  0  0  0  0  0
  1  5  1  0  0  0  0
  1 11  1  0  0  0  0
  2  3  2  0  0  0  0
  2  6  1  0  0  0  0
  3  1  1  0  0  0  0
  4 37  1  6  0  0  0
  4  2  1  0  0  0  0
  6  5  1  0  0  0  0
  7  8  1  0  0  0  0
  7 15  1  1  0  0  0
  8 10  2  0  0  0  0
  9 13  1  6  0  0  0
  9  7  1  0  0  0  0
 11 12  1  0  0  0  0
 12  8  1  0  0  0  0
 14 11  2  0  0  0  0
 14  9  1  0  0  0  0
 15 16  1  0  0  0  0
 17 20  1  0  0  0  0
 18 16  1  6  0  0  0
 18 20  1  0  0  0  0
 19 21  1  1  0  0  0
 19 22  1  0  0  0  0
 19 18  1  0  0  0  0
 20 23  1  1  0  0  0
 22 17  1  0  0  0  0
 24  4  1  0  0  0  0
 25 24  2  0  0  0  0
 26 25  1  0  0  0  0
 27 29  1  0  0  0  0
 28 32  1  0  0  0  0
 29 31  1  0  0  0  0
 29 26  1  0  0  0  0
 30 28  1  0  0  0  0
 30 27  1  0  0  0  0
 32 33  1  1  0  0  0
 32 31  1  0  0  0  0
 33 34  1  0  0  0  0
 35 33  2  0  0  0  0
 36 37  2  0  0  0  0
 38 36  1  0  0  0  0
 39 38  1  0  0  0  0
 39 40  1  0  0  0  0
 40 41  1  1  0  0  0
 42 43  1  0  0  0  0
 42 40  1  0  0  0  0
 44 43  1  0  0  0  0
 45 44  1  6  0  0  0
 45 46  1  0  0  0  0
 46 50  2  0  0  0  0
 48 47  1  6  0  0  0
 48 49  1  0  0  0  0
 48 45  1  0  0  0  0
 48 46  1  0  0  0  0
M  END
>  <MODEL>
6

>  <REMARK>
 VINA RESULT:      -6.8      2.876      7.369
  Name = 
  16 active torsions:
  status: ('A' for Active; 'I' for Inactive)
    1  A    between atoms: C_1  and  C_11
    2  A    between atoms: N_2  and  C_25
    3  A    between atoms: N_4  and  C_5
    4  A    between atoms: N_4  and  C_18
    5  A    between atoms: C_5  and  O_29
    6  A    between atoms: C_6  and  O_39
    7  A    between atoms: C_7  and  C_18
    8  A    between atoms: N_8  and  C_40
    9  A    between atoms: C_11  and  O_48
   10  A    between atoms: C_13  and  C_45
   11  A    between atoms: C_16  and  O_29
   12  A    between atoms: C_16  and  O_39
   13  A    between atoms: C_19  and  C_25
   14  A    between atoms: C_22  and  O_48
   15  A    between atoms: C_23  and  N_32
   16  A    between atoms: C_23  and  C_43
                            x       y       z     vdW  Elec       q    Type
                         _______ _______ _______ _____ _____    ______ ____

>  <TORSDO>
F 16

$$$$
=
 OpenBabel10222419523D

 50 54  0  0  1  0  0  0  0  0999 V2000
  183.8490  178.5680  143.3330 N   0  0  0  0  0  0  0  0  0  0  0  0
  185.8760  177.9000  144.2850 C   0  0  0  0  0  0  0  0  0  0  0  0
  185.1150  178.0280  143.1000 N   0  0  0  0  0  0  0  0  0  0  0  0
  187.0980  177.3350  144.3300 C   0  0  1  0  0  3  0  0  0  0  0  0
  183.5420  178.8620  144.7280 C   0  0  0  0  0  2  0  0  0  0  0  0
  185.0320  178.5130  145.7400 S   0  0  0  0  0  0  0  0  0  0  0  0
  181.1270  180.0040  140.2960 C   0  0  1  0  0  3  0  0  0  0  0  0
  180.6780  179.6910  141.7040 C   0  0  0  0  0  0  0  0  0  0  0  0
  182.3660  179.1800  139.8900 C   0  0  1  0  0  3  0  0  0  0  0  0
  179.6990  180.2540  142.1710 O   0  0  0  0  0  0  0  0  0  0  0  0
  182.9050  178.7720  142.2720 C   0  0  0  0  0  0  0  0  0  0  0  0
  181.4270  178.7000  142.5490 C   0  0  0  0  0  2  0  0  0  0  0  0
  183.0840  179.8240  138.7200 C   0  0  0  0  0  1  0  0  0  0  0  0
  183.3340  179.0080  141.0260 C   0  0  0  0  0  3  0  0  0  0  0  0
  179.9850  179.7290  139.3250 C   0  0  0  0  0  2  0  0  0  0  0  0
  179.4850  178.4410  139.5240 O   0  0  0  0  0  0  0  0  0  0  0  0
  179.6050  175.1960  137.7000 S   0  0  0  0  0  0  0  0  0  0  0  0
  180.2560  177.6240  138.6950 C   0  0  2  0  0  3  0  0  0  0  0  0
  179.7750  177.7600  137.2590 C   0  0  1  0  0  3  0  0  0  0  0  0
  180.1120  176.1790  139.1340 C   0  0  2  0  0  3  0  0  0  0  0  0
  180.9610  177.8430  136.3150 C   0  0  0  0  0  1  0  0  0  0  0  0
  178.9310  176.6260  136.9090 N   0  0  0  0  0  2  0  0  0  0  0  0
  181.4430  175.6680  139.6560 C   0  0  0  0  0  1  0  0  0  0  0  0
  187.7550  177.2520  145.6040 N   0  0  0  0  0  0  0  0  0  0  0  0
  188.6600  178.0900  145.9960 C   0  0  0  0  0  3  0  0  0  0  0  0
  189.2960  177.9430  147.3370 C   0  0  0  0  0  2  0  0  0  0  0  0
  191.4220  177.3640  147.9970 N   0  0  0  0  0  2  0  0  0  0  0  0
  192.4610  175.3120  147.0320 C   0  0  0  0  0  2  0  0  0  0  0  0
  190.2930  176.8840  147.3060 N   0  0  0  0  0  0  0  0  0  0  0  0
  192.3200  176.2320  148.2560 C   0  0  0  0  0  2  0  0  0  0  0  0
  190.6630  176.6960  145.8990 C   0  0  0  0  0  2  0  0  0  0  0  0
  192.0390  176.0260  145.7500 C   0  0  2  0  0  3  0  0  0  0  0  0
  192.0480  175.0860  144.5900 C   0  0  0  0  0  0  0  0  0  0  0  0
  191.5720  175.4360  143.4770 O   0  0  0  0  0  0  0  0  0  0  0  0
  192.5790  173.8130  144.7420 O   0  0  0  0  0  1  0  0  0  0  0  0
  188.6340  177.4720  142.3530 C   0  0  0  0  0  3  0  0  0  0  0  0
  187.7940  176.7940  143.1310 C   0  0  0  0  0  3  0  0  0  0  0  0
  189.2700  176.8180  141.1760 C   0  0  0  0  0  2  0  0  0  0  0  0
  189.8230  177.8290  140.2820 N   0  0  0  0  0  2  0  0  0  0  0  0
  189.2530  177.6780  138.9440 C   0  0  2  0  0  3  0  0  0  0  0  0
  190.2600  177.6770  137.9750 O   0  0  0  0  0  1  0  0  0  0  0  0
  188.3320  178.6970  138.6780 O   0  0  0  0  0  0  0  0  0  0  0  0
  187.1280  178.0350  138.4290 C   0  0  0  0  0  2  0  0  0  0  0  0
  187.3750  176.8720  137.6970 O   0  0  0  0  0  0  0  0  0  0  0  0
  186.1620  176.5820  137.0630 C   0  0  2  0  0  3  0  0  0  0  0  0
  186.0500  175.0570  136.8670 C   0  0  0  0  0  0  0  0  0  0  0  0
  187.7420  175.8910  135.1430 C   0  0  0  0  0  1  0  0  0  0  0  0
  186.3540  176.0420  135.7480 C   0  0  2  0  0  0  0  0  0  0  0  0
  185.2830  176.2010  134.8690 O   0  0  0  0  0  1  0  0  0  0  0  0
  185.8680  173.9270  137.2900 O   0  0  0  0  0  0  0  0  0  0  0  0
  1  5  1  0  0  0  0
  2  4  1  0  0  0  0
  2  6  1  0  0  0  0
  3  1  1  0  0  0  0
  3  2  2  0  0  0  0
  4 37  1  1  0  0  0
  4 24  1  0  0  0  0
  5  6  1  0  0  0  0
  7 15  1  6  0  0  0
  7  8  1  0  0  0  0
  8 10  2  0  0  0  0
  8 12  1  0  0  0  0
  9 13  1  6  0  0  0
  9  7  1  0  0  0  0
  9 14  1  0  0  0  0
 11 12  1  0  0  0  0
 11  1  1  0  0  0  0
 14 11  2  0  0  0  0
 15 16  1  0  0  0  0
 17 20  1  0  0  0  0
 18 20  1  0  0  0  0
 18 16  1  1  0  0  0
 19 21  1  6  0  0  0
 19 18  1  0  0  0  0
 20 23  1  6  0  0  0
 22 19  1  0  0  0  0
 22 17  1  0  0  0  0
 24 25  2  0  0  0  0
 25 26  1  0  0  0  0
 27 30  1  0  0  0  0
 28 30  1  0  0  0  0
 29 26  1  0  0  0  0
 29 27  1  0  0  0  0
 31 29  1  0  0  0  0
 32 33  1  6  0  0  0
 32 31  1  0  0  0  0
 32 28  1  0  0  0  0
 33 35  1  0  0  0  0
 34 33  2  0  0  0  0
 36 37  2  0  0  0  0
 38 36  1  0  0  0  0
 39 38  1  0  0  0  0
 40 41  1  6  0  0  0
 40 39  1  0  0  0  0
 42 40  1  0  0  0  0
 43 42  1  0  0  0  0
 44 43  1  0  0  0  0
 45 44  1  1  0  0  0
 46 45  1  0  0  0  0
 46 50  2  0  0  0  0
 48 47  1  6  0  0  0
 48 46  1  0  0  0  0
 48 45  1  0  0  0  0
 49 48  1  0  0  0  0
M  END
>  <MODEL>
7

>  <REMARK>
 VINA RESULT:      -6.7      4.527     11.351
  Name = 
  16 active torsions:
  status: ('A' for Active; 'I' for Inactive)
    1  A    between atoms: C_1  and  C_11
    2  A    between atoms: N_2  and  C_25
    3  A    between atoms: N_4  and  C_5
    4  A    between atoms: N_4  and  C_18
    5  A    between atoms: C_5  and  O_29
    6  A    between atoms: C_6  and  O_39
    7  A    between atoms: C_7  and  C_18
    8  A    between atoms: N_8  and  C_40
    9  A    between atoms: C_11  and  O_48
   10  A    between atoms: C_13  and  C_45
   11  A    between atoms: C_16  and  O_29
   12  A    between atoms: C_16  and  O_39
   13  A    between atoms: C_19  and  C_25
   14  A    between atoms: C_22  and  O_48
   15  A    between atoms: C_23  and  N_32
   16  A    between atoms: C_23  and  C_43
                            x       y       z     vdW  Elec       q    Type
                         _______ _______ _______ _____ _____    ______ ____

>  <TORSDO>
F 16

$$$$
=
 OpenBabel10222419523D

 50 54  0  0  1  0  0  0  0  0999 V2000
  191.3360  176.8350  140.3330 N   0  0  0  0  0  0  0  0  0  0  0  0
  191.5490  175.8090  138.2440 C   0  0  0  0  0  0  0  0  0  0  0  0
  190.7230  176.0320  139.3700 N   0  0  0  0  0  0  0  0  0  0  0  0
  191.2110  175.0040  137.2180 C   0  0  1  0  0  3  0  0  0  0  0  0
  192.6950  177.2590  140.0200 C   0  0  0  0  0  2  0  0  0  0  0  0
  193.1220  176.6590  138.3390 S   0  0  0  0  0  0  0  0  0  0  0  0
  189.1700  177.0440  144.0690 C   0  0  1  0  0  3  0  0  0  0  0  0
  188.5010  177.2590  142.7310 C   0  0  0  0  0  0  0  0  0  0  0  0
  190.6690  177.4040  144.0280 C   0  0  1  0  0  3  0  0  0  0  0  0
  187.3080  177.0310  142.6030 O   0  0  0  0  0  0  0  0  0  0  0  0
  190.6820  177.1770  141.5620 C   0  0  0  0  0  0  0  0  0  0  0  0
  189.2870  177.7450  141.5470 C   0  0  0  0  0  2  0  0  0  0  0  0
  191.4150  176.7460  145.1730 C   0  0  0  0  0  1  0  0  0  0  0  0
  191.3150  177.0120  142.7310 C   0  0  0  0  0  3  0  0  0  0  0  0
  188.4670  177.8810  145.1300 C   0  0  0  0  0  2  0  0  0  0  0  0
  187.1560  177.4340  145.3040 O   0  0  0  0  0  0  0  0  0  0  0  0
  183.7050  178.8190  145.5320 S   0  0  0  0  0  0  0  0  0  0  0  0
  186.3990  178.5960  145.4730 C   0  0  2  0  0  3  0  0  0  0  0  0
  185.9130  178.6790  146.9110 C   0  0  1  0  0  3  0  0  0  0  0  0
  185.2000  178.5580  144.5440 C   0  0  2  0  0  3  0  0  0  0  0  0
  186.0550  180.1000  147.4290 C   0  0  0  0  0  1  0  0  0  0  0  0
  184.5240  178.2500  146.9920 N   0  0  0  0  0  2  0  0  0  0  0  0
  185.3240  179.6590  143.5060 C   0  0  0  0  0  1  0  0  0  0  0  0
  192.1510  174.8520  136.1440 N   0  0  0  0  0  0  0  0  0  0  0  0
  192.7900  173.7520  135.9050 C   0  0  0  0  0  3  0  0  0  0  0  0
  193.7490  173.6680  134.7660 C   0  0  0  0  0  2  0  0  0  0  0  0
  194.8390  172.1410  136.0980 N   0  0  0  0  0  2  0  0  0  0  0  0
  197.2510  172.5040  136.6130 C   0  0  0  0  0  2  0  0  0  0  0  0
  195.0550  173.2350  135.2400 N   0  0  0  0  0  0  0  0  0  0  0  0
  196.1290  171.4870  136.3480 C   0  0  0  0  0  2  0  0  0  0  0  0
  195.6000  174.3410  136.0350 C   0  0  0  0  0  2  0  0  0  0  0  0
  196.6850  173.8650  137.0150 C   0  0  2  0  0  3  0  0  0  0  0  0
  197.7730  174.8800  137.1360 C   0  0  0  0  0  0  0  0  0  0  0  0
  198.3060  175.3740  136.1070 O   0  0  0  0  0  0  0  0  0  0  0  0
  198.2040  175.2770  138.3940 O   0  0  0  0  0  1  0  0  0  0  0  0
  188.8820  174.6010  136.3820 C   0  0  0  0  0  3  0  0  0  0  0  0
  189.9190  174.2680  137.1460 C   0  0  0  0  0  3  0  0  0  0  0  0
  187.6380  173.7820  136.3980 C   0  0  0  0  0  2  0  0  0  0  0  0
  186.4980  174.5990  135.9940 N   0  0  0  0  0  2  0  0  0  0  0  0
  185.5820  174.7680  137.1220 C   0  0  2  0  0  3  0  0  0  0  0  0
  185.1440  173.5270  137.5920 O   0  0  0  0  0  1  0  0  0  0  0  0
  184.4870  175.5580  136.7590 O   0  0  0  0  0  0  0  0  0  0  0  0
  184.9290  176.8740  136.9110 C   0  0  0  0  0  2  0  0  0  0  0  0
  184.6460  177.3160  138.2040 O   0  0  0  0  0  0  0  0  0  0  0  0
  183.5020  178.1120  138.0690 C   0  0  2  0  0  3  0  0  0  0  0  0
  183.6830  179.3970  138.9010 C   0  0  0  0  0  0  0  0  0  0  0  0
  183.2250  177.5100  140.5630 C   0  0  0  0  0  1  0  0  0  0  0  0
  182.7820  178.2390  139.3030 C   0  0  2  0  0  0  0  0  0  0  0  0
  181.4280  178.5470  139.1810 O   0  0  0  0  0  1  0  0  0  0  0  0
  184.1780  180.4950  139.0940 O   0  0  0  0  0  0  0  0  0  0  0  0
  1 11  1  0  0  0  0
  2  6  1  0  0  0  0
  2  3  2  0  0  0  0
  3  1  1  0  0  0  0
  4 37  1  1  0  0  0
  4  2  1  0  0  0  0
  5  1  1  0  0  0  0
  6  5  1  0  0  0  0
  7 15  1  1  0  0  0
  8  7  1  0  0  0  0
  9  7  1  0  0  0  0
  9 13  1  1  0  0  0
 10  8  2  0  0  0  0
 11 14  2  0  0  0  0
 12 11  1  0  0  0  0
 12  8  1  0  0  0  0
 14  9  1  0  0  0  0
 15 16  1  0  0  0  0
 17 22  1  0  0  0  0
 18 16  1  1  0  0  0
 18 19  1  0  0  0  0
 19 22  1  0  0  0  0
 19 21  1  6  0  0  0
 20 23  1  6  0  0  0
 20 18  1  0  0  0  0
 20 17  1  0  0  0  0
 24  4  1  0  0  0  0
 25 24  2  0  0  0  0
 26 29  1  0  0  0  0
 26 25  1  0  0  0  0
 27 30  1  0  0  0  0
 28 32  1  0  0  0  0
 29 31  1  0  0  0  0
 29 27  1  0  0  0  0
 30 28  1  0  0  0  0
 31 32  1  0  0  0  0
 32 33  1  6  0  0  0
 33 35  1  0  0  0  0
 34 33  2  0  0  0  0
 36 38  1  0  0  0  0
 36 37  2  0  0  0  0
 39 38  1  0  0  0  0
 39 40  1  0  0  0  0
 40 41  1  6  0  0  0
 42 43  1  0  0  0  0
 42 40  1  0  0  0  0
 43 44  1  0  0  0  0
 45 44  1  1  0  0  0
 45 46  1  0  0  0  0
 45 48  1  0  0  0  0
 46 50  2  0  0  0  0
 46 48  1  0  0  0  0
 48 47  1  1  0  0  0
 49 48  1  0  0  0  0
M  END
>  <MODEL>
8

>  <REMARK>
 VINA RESULT:      -6.7      3.616     11.708
  Name = 
  16 active torsions:
  status: ('A' for Active; 'I' for Inactive)
    1  A    between atoms: C_1  and  C_11
    2  A    between atoms: N_2  and  C_25
    3  A    between atoms: N_4  and  C_5
    4  A    between atoms: N_4  and  C_18
    5  A    between atoms: C_5  and  O_29
    6  A    between atoms: C_6  and  O_39
    7  A    between atoms: C_7  and  C_18
    8  A    between atoms: N_8  and  C_40
    9  A    between atoms: C_11  and  O_48
   10  A    between atoms: C_13  and  C_45
   11  A    between atoms: C_16  and  O_29
   12  A    between atoms: C_16  and  O_39
   13  A    between atoms: C_19  and  C_25
   14  A    between atoms: C_22  and  O_48
   15  A    between atoms: C_23  and  N_32
   16  A    between atoms: C_23  and  C_43
                            x       y       z     vdW  Elec       q    Type
                         _______ _______ _______ _____ _____    ______ ____

>  <TORSDO>
F 16

$$$$
=
 OpenBabel10222419523D

 50 54  0  0  1  0  0  0  0  0999 V2000
  186.8230  177.5110  137.3860 N   0  0  0  0  0  0  0  0  0  0  0  0
  189.0710  176.8720  137.3660 C   0  0  0  0  0  0  0  0  0  0  0  0
  187.9180  177.1070  138.1510 N   0  0  0  0  0  0  0  0  0  0  0  0
  190.2720  176.5480  137.8820 C   0  0  1  0  0  3  0  0  0  0  0  0
  187.0740  177.6440  135.9560 C   0  0  0  0  0  2  0  0  0  0  0  0
  188.7930  177.1020  135.6120 S   0  0  0  0  0  0  0  0  0  0  0  0
  182.8390  178.8170  138.4450 C   0  0  1  0  0  3  0  0  0  0  0  0
  184.0680  179.6500  138.7310 C   0  0  0  0  0  0  0  0  0  0  0  0
  183.1650  177.3110  138.3870 C   0  0  1  0  0  3  0  0  0  0  0  0
  183.9740  180.8640  138.8200 O   0  0  0  0  0  0  0  0  0  0  0  0
  185.5540  177.8170  137.9810 C   0  0  0  0  0  0  0  0  0  0  0  0
  185.4140  179.0030  138.8980 C   0  0  0  0  0  2  0  0  0  0  0  0
  182.0840  176.5520  137.6420 C   0  0  0  0  0  1  0  0  0  0  0  0
  184.4920  177.0380  137.7400 C   0  0  0  0  0  3  0  0  0  0  0  0
  181.7880  179.0780  139.5160 C   0  0  0  0  0  2  0  0  0  0  0  0
  182.2650  178.6750  140.7650 O   0  0  0  0  0  0  0  0  0  0  0  0
  179.2390  179.9950  142.4900 S   0  0  0  0  0  0  0  0  0  0  0  0
  181.1230  178.3320  141.4920 C   0  0  2  0  0  3  0  0  0  0  0  0
  179.9110  178.3590  140.5740 C   0  0  1  0  0  3  0  0  0  0  0  0
  180.9190  179.3320  142.6150 C   0  0  2  0  0  3  0  0  0  0  0  0
  179.0190  177.1620  140.8500 C   0  0  0  0  0  1  0  0  0  0  0  0
  179.1680  179.5970  140.7690 N   0  0  0  0  0  2  0  0  0  0  0  0
  181.0940  178.6380  143.9540 C   0  0  0  0  0  1  0  0  0  0  0  0
  191.3650  176.3540  136.9720 N   0  0  0  0  0  0  0  0  0  0  0  0
  192.0790  175.2750  136.9350 C   0  0  0  0  0  3  0  0  0  0  0  0
  193.1980  175.1430  135.9580 C   0  0  0  0  0  2  0  0  0  0  0  0
  193.6920  173.0810  136.8510 N   0  0  0  0  0  2  0  0  0  0  0  0
  195.8910  172.7610  137.9840 C   0  0  0  0  0  2  0  0  0  0  0  0
  194.2620  174.3250  136.5190 N   0  0  0  0  0  0  0  0  0  0  0  0
  194.7790  172.1340  137.1260 C   0  0  0  0  0  2  0  0  0  0  0  0
  194.6860  174.9820  137.7600 C   0  0  0  0  0  2  0  0  0  0  0  0
  195.3930  174.0060  138.7150 C   0  0  2  0  0  3  0  0  0  0  0  0
  196.5120  174.6840  139.4340 C   0  0  0  0  0  0  0  0  0  0  0  0
  197.7100  174.4500  139.1210 O   0  0  0  0  0  0  0  0  0  0  0  0
  196.2290  175.5760  140.4590 O   0  0  0  0  0  1  0  0  0  0  0  0
  190.9020  177.3520  140.1720 C   0  0  0  0  0  3  0  0  0  0  0  0
  190.5190  176.3860  139.3410 C   0  0  0  0  0  3  0  0  0  0  0  0
  191.1180  177.0660  141.6170 C   0  0  0  0  0  2  0  0  0  0  0  0
  190.1190  177.7620  142.4190 N   0  0  0  0  0  2  0  0  0  0  0  0
  188.9360  176.9180  142.5850 C   0  0  2  0  0  3  0  0  0  0  0  0
  187.8250  177.4960  141.9640 O   0  0  0  0  0  1  0  0  0  0  0  0
  188.6680  176.6980  143.9400 O   0  0  0  0  0  0  0  0  0  0  0  0
  188.0640  177.8780  144.3810 C   0  0  0  0  0  2  0  0  0  0  0  0
  188.5120  178.1810  145.6670 O   0  0  0  0  0  0  0  0  0  0  0  0
  187.6680  177.4620  146.5210 C   0  0  2  0  0  3  0  0  0  0  0  0
  186.7670  178.4510  147.2870 C   0  0  0  0  0  0  0  0  0  0  0  0
  189.0950  178.6270  148.3280 C   0  0  0  0  0  1  0  0  0  0  0  0
  187.9500  177.7190  147.9040 C   0  0  2  0  0  0  0  0  0  0  0  0
  187.5560  176.7210  148.7940 O   0  0  0  0  0  1  0  0  0  0  0  0
  185.8310  179.2310  147.3480 O   0  0  0  0  0  0  0  0  0  0  0  0
  1 11  1  0  0  0  0
  1  3  1  0  0  0  0
  2  4  1  0  0  0  0
  2  3  2  0  0  0  0
  4 37  1  1  0  0  0
  5  1  1  0  0  0  0
  6  5  1  0  0  0  0
  6  2  1  0  0  0  0
  7  8  1  0  0  0  0
  7 15  1  1  0  0  0
  8 10  2  0  0  0  0
  8 12  1  0  0  0  0
  9 13  1  6  0  0  0
  9  7  1  0  0  0  0
 11 12  1  0  0  0  0
 14 11  2  0  0  0  0
 14  9  1  0  0  0  0
 15 16  1  0  0  0  0
 17 20  1  0  0  0  0
 18 16  1  6  0  0  0
 18 20  1  0  0  0  0
 19 22  1  0  0  0  0
 19 21  1  1  0  0  0
 19 18  1  0  0  0  0
 20 23  1  1  0  0  0
 22 17  1  0  0  0  0
 24  4  1  0  0  0  0
 25 24  2  0  0  0  0
 26 29  1  0  0  0  0
 26 25  1  0  0  0  0
 27 30  1  0  0  0  0
 28 32  1  0  0  0  0
 29 27  1  0  0  0  0
 29 31  1  0  0  0  0
 30 28  1  0  0  0  0
 31 32  1  0  0  0  0
 32 33  1  6  0  0  0
 33 35  1  0  0  0  0
 34 33  2  0  0  0  0
 36 38  1  0  0  0  0
 37 36  2  0  0  0  0
 38 39  1  0  0  0  0
 39 40  1  0  0  0  0
 40 41  1  1  0  0  0
 40 42  1  0  0  0  0
 42 43  1  0  0  0  0
 43 44  1  0  0  0  0
 45 44  1  6  0  0  0
 45 46  1  0  0  0  0
 45 48  1  0  0  0  0
 46 50  2  0  0  0  0
 46 48  1  0  0  0  0
 48 47  1  1  0  0  0
 48 49  1  0  0  0  0
M  END
>  <MODEL>
9

>  <REMARK>
 VINA RESULT:      -6.6      3.063     11.044
  Name = 
  16 active torsions:
  status: ('A' for Active; 'I' for Inactive)
    1  A    between atoms: C_1  and  C_11
    2  A    between atoms: N_2  and  C_25
    3  A    between atoms: N_4  and  C_5
    4  A    between atoms: N_4  and  C_18
    5  A    between atoms: C_5  and  O_29
    6  A    between atoms: C_6  and  O_39
    7  A    between atoms: C_7  and  C_18
    8  A    between atoms: N_8  and  C_40
    9  A    between atoms: C_11  and  O_48
   10  A    between atoms: C_13  and  C_45
   11  A    between atoms: C_16  and  O_29
   12  A    between atoms: C_16  and  O_39
   13  A    between atoms: C_19  and  C_25
   14  A    between atoms: C_22  and  O_48
   15  A    between atoms: C_23  and  N_32
   16  A    between atoms: C_23  and  C_43
                            x       y       z     vdW  Elec       q    Type
                         _______ _______ _______ _____ _____    ______ ____

>  <TORSDO>
F 16

$$$$
