=
 OpenBabel10222421153D

 37 43  0  0  1  0  0  0  0  0999 V2000
  184.6050  178.9950  146.3810 O   0  0  0  0  0  0  0  0  0  0  0  0
  186.5320  177.8490  141.5340 O   0  0  0  0  0  0  0  0  0  0  0  0
  187.7020  178.5760  141.7950 C   0  0  1  0  0  3  0  0  0  0  0  0
  188.9880  178.4490  139.6290 C   0  0  0  0  0  3  0  0  0  0  0  0
  190.8900  176.5720  142.1290 N   0  0  0  0  0  0  0  0  0  0  0  0
  189.8370  177.2340  141.5600 C   0  0  0  0  0  0  0  0  0  0  0  0
  191.9760  175.9080  146.3410 N   0  0  0  0  0  0  0  0  0  0  0  0
  188.7660  177.6770  142.3690 C   0  0  0  0  0  0  0  0  0  0  0  0
  188.1920  179.3280  140.5490 C   0  0  0  0  0  2  0  0  0  0  0  0
  189.9070  176.7420  144.2840 C   0  0  0  0  0  0  0  0  0  0  0  0
  187.9280  177.7210  144.8320 C   0  0  0  0  0  0  0  0  0  0  0  0
  189.8130  177.5020  140.0960 C   0  0  0  0  0  0  0  0  0  0  0  0
  191.9790  175.5580  143.9030 C   0  0  0  0  0  3  0  0  0  0  0  0
  185.3100  178.0620  144.0960 C   0  0  1  0  0  3  0  0  0  0  0  0
  185.2400  178.5250  145.4020 C   0  0  0  0  0  0  0  0  0  0  0  0
  185.2710  179.2240  143.1280 C   0  0  0  0  0  2  0  0  0  0  0  0
  186.5390  178.0350  144.7550 N   0  0  0  0  0  0  0  0  0  0  0  0
  189.8430  176.8470  145.6170 C   0  0  0  0  0  0  0  0  0  0  0  0
  190.9620  176.3050  143.4640 C   0  0  0  0  0  0  0  0  0  0  0  0
  188.7940  177.3290  143.7260 C   0  0  0  0  0  0  0  0  0  0  0  0
  191.0080  177.5590  147.7790 C   0  0  0  0  0  1  0  0  0  0  0  0
  188.5460  177.4490  145.9730 C   0  0  0  0  0  3  0  0  0  0  0  0
  190.9750  176.7070  146.5580 C   0  0  0  0  0  0  0  0  0  0  0  0
  192.0460  174.9330  145.2620 C   0  0  0  0  0  2  0  0  0  0  0  0
  185.4500  178.7400  141.6840 C   0  0  0  0  0  2  0  0  0  0  0  0
  191.8050  177.0720  138.6790 C   0  0  0  0  0  3  0  0  0  0  0  0
  190.2450  175.5480  138.6100 C   0  0  0  0  0  3  0  0  0  0  0  0
  191.2380  175.1180  137.7490 C   0  0  0  0  0  3  0  0  0  0  0  0
  192.2280  176.0810  137.8220 C   0  0  0  0  0  0  0  0  0  0  0  0
  190.5990  176.7230  139.1700 N   0  0  0  0  0  0  0  0  0  0  0  0
  193.4610  176.1570  137.0210 C   0  0  0  0  0  3  0  0  0  0  0  0
  194.5940  175.4510  137.1830 C   0  0  0  0  0  0  0  0  0  0  0  0
  194.5930  173.3550  138.2790 O   0  0  0  0  0  0  0  0  0  0  0  0
  195.4660  175.0840  139.4910 O   0  0  0  0  0  1  0  0  0  0  0  0
  194.8530  174.5850  138.3470 C   0  0  0  0  0  0  0  0  0  0  0  0
  196.8410  175.5220  136.5120 O   0  0  0  0  0  1  0  0  0  0  0  0
  195.6320  175.5680  136.2030 N   0  0  0  0  0  2  0  0  0  0  0  0
  2 25  1  0  0  0  0
  2  3  1  0  0  0  0
  3  9  1  6  0  0  0
  3  8  1  0  0  0  0
  4 12  2  0  0  0  0
  4  9  1  0  0  0  0
  5 19  1  0  0  0  0
  6  5  2  0  0  0  0
  6  8  1  0  0  0  0
  7 23  2  0  0  0  0
  8 20  2  0  0  0  0
 10 18  2  0  0  0  0
 11 22  2  0  0  0  0
 12  6  1  0  0  0  0
 13 24  1  0  0  0  0
 14 16  1  6  0  0  0
 14 17  1  0  0  0  0
 14 15  1  0  0  0  0
 15  1  2  0  0  0  0
 17 11  1  0  0  0  0
 17 15  1  0  0  0  0
 18 22  1  0  0  0  0
 18 23  1  0  0  0  0
 19 13  2  0  0  0  0
 19 10  1  0  0  0  0
 20 10  1  0  0  0  0
 20 11  1  0  0  0  0
 23 21  1  0  0  0  0
 24  7  1  0  0  0  0
 25 16  1  0  0  0  0
 26 30  1  0  0  0  0
 27 30  1  0  0  0  0
 28 29  1  0  0  0  0
 28 27  2  0  0  0  0
 29 26  2  0  0  0  0
 30 12  1  0  0  0  0
 31 32  2  0  0  0  0
 31 29  1  0  0  0  0
 32 35  1  0  0  0  0
 33 35  2  0  0  0  0
 35 34  1  0  0  0  0
 37 36  1  0  0  0  0
 37 32  1  0  0  0  0
M  END
>  <MODEL>
1

>  <REMARK>
 VINA RESULT:      -9.0      0.000      0.000
  Name = 
  4 active torsions:
  status: ('A' for Active; 'I' for Inactive)
    1  A    between atoms: C_5  and  C_33
    2  A    between atoms: C_17  and  N_35
    3  A    between atoms: C_19  and  N_22
    4  A    between atoms: C_19  and  C_31
                            x       y       z     vdW  Elec       q    Type
                         _______ _______ _______ _____ _____    ______ ____

>  <TORSDO>
F 4

$$$$
=
 OpenBabel10222421153D

 37 43  0  0  1  0  0  0  0  0999 V2000
  192.2240  176.3400  147.8990 O   0  0  0  0  0  0  0  0  0  0  0  0
  187.0800  177.1430  146.7090 O   0  0  0  0  0  0  0  0  0  0  0  0
  187.4010  178.2890  145.9680 C   0  0  1  0  0  3  0  0  0  0  0  0
  185.1570  179.1850  145.2420 C   0  0  0  0  0  3  0  0  0  0  0  0
  186.9060  178.0690  142.2270 N   0  0  0  0  0  0  0  0  0  0  0  0
  186.6270  178.2220  143.5570 C   0  0  0  0  0  0  0  0  0  0  0  0
  190.6880  177.2970  140.1150 N   0  0  0  0  0  0  0  0  0  0  0  0
  187.6230  177.9390  144.5200 C   0  0  0  0  0  0  0  0  0  0  0  0
  186.3420  179.3890  146.1400 C   0  0  0  0  0  2  0  0  0  0  0  0
  189.1200  177.3610  142.7120 C   0  0  0  0  0  0  0  0  0  0  0  0
  190.0880  177.1390  144.7580 C   0  0  0  0  0  0  0  0  0  0  0  0
  185.2880  178.6950  144.0010 C   0  0  0  0  0  0  0  0  0  0  0  0
  188.2520  177.4240  140.4570 C   0  0  0  0  0  2  0  0  0  0  0  0
  189.7210  176.2830  147.3370 C   0  0  1  0  0  3  0  0  0  0  0  0
  191.1010  176.4180  147.3370 C   0  0  0  0  0  0  0  0  0  0  0  0
  189.0850  177.4280  148.0950 C   0  0  0  0  0  2  0  0  0  0  0  0
  190.2280  176.7440  146.1220 N   0  0  0  0  0  0  0  0  0  0  0  0
  190.4360  177.1870  142.5400 C   0  0  0  0  0  0  0  0  0  0  0  0
  188.1170  177.6440  141.7670 C   0  0  0  0  0  0  0  0  0  0  0  0
  188.8390  177.4180  144.0580 C   0  0  1  0  0  3  0  0  0  0  0  0
  192.5830  177.9880  141.4050 C   0  0  0  0  0  1  0  0  0  0  0  0
  191.0570  177.0090  143.8640 C   0  0  0  0  0  3  0  0  0  0  0  0
  191.1960  177.4550  141.3000 C   0  0  0  0  0  0  0  0  0  0  0  0
  189.3960  176.6850  139.8360 C   0  0  0  0  0  2  0  0  0  0  0  0
  187.5560  177.3520  148.0190 C   0  0  0  0  0  2  0  0  0  0  0  0
  184.1100  178.0680  141.9080 C   0  0  0  0  0  3  0  0  0  0  0  0
  182.8720  178.9800  143.4570 C   0  0  0  0  0  3  0  0  0  0  0  0
  182.0270  178.7280  142.3920 C   0  0  0  0  0  3  0  0  0  0  0  0
  182.8210  178.1290  141.4300 C   0  0  0  0  0  0  0  0  0  0  0  0
  184.1230  178.5730  143.1580 N   0  0  0  0  0  0  0  0  0  0  0  0
  182.4330  177.7550  140.0590 C   0  0  0  0  0  3  0  0  0  0  0  0
  182.6350  178.4500  138.9260 C   0  0  0  0  0  0  0  0  0  0  0  0
  182.3240  180.7900  138.7650 O   0  0  0  0  0  0  0  0  0  0  0  0
  184.4800  180.1190  139.1160 O   0  0  0  0  0  1  0  0  0  0  0  0
  183.1360  179.8370  138.9010 C   0  0  0  0  0  0  0  0  0  0  0  0
  183.1960  177.4580  136.8750 O   0  0  0  0  0  1  0  0  0  0  0  0
  182.3120  177.8420  137.6700 N   0  0  0  0  0  2  0  0  0  0  0  0
  2 25  1  0  0  0  0
  3  9  1  6  0  0  0
  3  2  1  0  0  0  0
  4  9  1  0  0  0  0
  5  6  1  0  0  0  0
  6 12  1  0  0  0  0
  6  8  2  0  0  0  0
  7 23  2  0  0  0  0
  8  3  1  0  0  0  0
 11 17  1  0  0  0  0
 12  4  2  0  0  0  0
 13 19  1  0  0  0  0
 14 15  1  0  0  0  0
 14 16  1  1  0  0  0
 15  1  2  0  0  0  0
 17 14  1  0  0  0  0
 17 15  1  0  0  0  0
 18 10  2  0  0  0  0
 18 22  1  0  0  0  0
 19  5  2  0  0  0  0
 19 10  1  0  0  0  0
 20 10  1  6  0  0  0
 20  8  1  0  0  0  0
 20 11  1  0  0  0  0
 22 11  2  0  0  0  0
 23 21  1  0  0  0  0
 23 18  1  0  0  0  0
 24  7  1  0  0  0  0
 24 13  1  0  0  0  0
 25 16  1  0  0  0  0
 26 30  1  0  0  0  0
 28 27  2  0  0  0  0
 29 26  2  0  0  0  0
 29 28  1  0  0  0  0
 30 27  1  0  0  0  0
 30 12  1  0  0  0  0
 31 29  1  0  0  0  0
 32 31  2  0  0  0  0
 33 35  2  0  0  0  0
 35 32  1  0  0  0  0
 35 34  1  0  0  0  0
 36 37  1  0  0  0  0
 37 32  1  0  0  0  0
M  END
>  <MODEL>
2

>  <REMARK>
 VINA RESULT:      -9.0      3.914      7.892
  Name = 
  4 active torsions:
  status: ('A' for Active; 'I' for Inactive)
    1  A    between atoms: C_5  and  C_33
    2  A    between atoms: C_17  and  N_35
    3  A    between atoms: C_19  and  N_22
    4  A    between atoms: C_19  and  C_31
                            x       y       z     vdW  Elec       q    Type
                         _______ _______ _______ _____ _____    ______ ____

>  <TORSDO>
F 4

$$$$
=
 OpenBabel10222421153D

 37 43  0  0  1  0  0  0  0  0999 V2000
  183.8370  179.2800  143.5810 O   0  0  0  0  0  0  0  0  0  0  0  0
  186.7650  177.5280  139.4720 O   0  0  0  0  0  0  0  0  0  0  0  0
  187.8530  178.3140  139.8750 C   0  0  1  0  0  3  0  0  0  0  0  0
  189.5780  177.9230  138.0770 C   0  0  0  0  0  3  0  0  0  0  0  0
  190.8830  176.4570  141.1660 N   0  0  0  0  0  0  0  0  0  0  0  0
  189.9820  177.0070  140.2950 C   0  0  0  0  0  0  0  0  0  0  0  0
  191.0260  176.4080  145.5630 N   0  0  0  0  0  0  0  0  0  0  0  0
  188.7630  177.5310  140.7850 C   0  0  0  0  0  0  0  0  0  0  0  0
  188.6060  178.9000  138.6710 C   0  0  0  0  0  2  0  0  0  0  0  0
  189.4570  176.8980  143.0120 C   0  0  0  0  0  0  0  0  0  0  0  0
  187.4110  177.8910  142.9790 C   0  0  0  0  0  0  0  0  0  0  0  0
  190.2780  177.0710  138.8390 C   0  0  0  0  0  0  0  0  0  0  0  0
  191.5570  175.7260  143.2560 C   0  0  0  0  0  3  0  0  0  0  0  0
  185.0170  178.0610  141.6550 C   0  0  1  0  0  3  0  0  0  0  0  0
  184.6680  178.6960  142.8370 C   0  0  0  0  0  0  0  0  0  0  0  0
  185.1950  179.0770  140.5480 C   0  0  0  0  0  2  0  0  0  0  0  0
  186.0740  178.1560  142.5600 N   0  0  0  0  0  0  0  0  0  0  0  0
  189.1060  177.1830  144.2720 C   0  0  0  0  0  0  0  0  0  0  0  0
  190.6630  176.3790  142.5080 C   0  0  0  0  0  0  0  0  0  0  0  0
  188.4950  177.3730  142.1510 C   0  0  0  0  0  0  0  0  0  0  0  0
  189.7780  178.2160  146.5130 C   0  0  0  0  0  1  0  0  0  0  0  0
  187.7660  177.7950  144.2530 C   0  0  0  0  0  3  0  0  0  0  0  0
  190.0060  177.2030  145.4450 C   0  0  0  0  0  0  0  0  0  0  0  0
  191.3250  175.2960  144.6710 C   0  0  0  0  0  2  0  0  0  0  0  0
  185.6800  178.4030  139.2600 C   0  0  0  0  0  2  0  0  0  0  0  0
  192.5390  176.4870  137.9960 C   0  0  0  0  0  3  0  0  0  0  0  0
  191.0030  174.9590  137.7320 C   0  0  0  0  0  3  0  0  0  0  0  0
  192.1610  174.4350  137.1870 C   0  0  0  0  0  3  0  0  0  0  0  0
  193.1280  175.4040  137.3840 C   0  0  0  0  0  0  0  0  0  0  0  0
  191.2420  176.1930  138.2220 N   0  0  0  0  0  0  0  0  0  0  0  0
  194.5180  175.3910  136.8970 C   0  0  0  0  0  3  0  0  0  0  0  0
  195.5980  174.8620  137.4990 C   0  0  0  0  0  0  0  0  0  0  0  0
  195.4590  173.1160  139.0890 O   0  0  0  0  0  0  0  0  0  0  0  0
  195.8130  175.1980  139.9610 O   0  0  0  0  0  1  0  0  0  0  0  0
  195.5890  174.3510  138.8820 C   0  0  0  0  0  0  0  0  0  0  0  0
  197.7090  175.7110  136.9270 O   0  0  0  0  0  1  0  0  0  0  0  0
  196.8410  174.8240  136.7880 N   0  0  0  0  0  2  0  0  0  0  0  0
  2  3  1  0  0  0  0
  3  9  1  6  0  0  0
  3  8  1  0  0  0  0
  4  9  1  0  0  0  0
  4 12  2  0  0  0  0
  5 19  1  0  0  0  0
  6  8  1  0  0  0  0
  6  5  2  0  0  0  0
  8 20  2  0  0  0  0
 10 18  2  0  0  0  0
 11 22  2  0  0  0  0
 12  6  1  0  0  0  0
 13 24  1  0  0  0  0
 14 16  1  6  0  0  0
 14 17  1  0  0  0  0
 14 15  1  0  0  0  0
 15  1  2  0  0  0  0
 17 15  1  0  0  0  0
 17 11  1  0  0  0  0
 18 23  1  0  0  0  0
 19 10  1  0  0  0  0
 19 13  2  0  0  0  0
 20 11  1  0  0  0  0
 20 10  1  0  0  0  0
 22 18  1  0  0  0  0
 23  7  2  0  0  0  0
 23 21  1  0  0  0  0
 24  7  1  0  0  0  0
 25  2  1  0  0  0  0
 25 16  1  0  0  0  0
 26 30  1  0  0  0  0
 27 30  1  0  0  0  0
 28 29  1  0  0  0  0
 28 27  2  0  0  0  0
 29 26  2  0  0  0  0
 30 12  1  0  0  0  0
 31 29  1  0  0  0  0
 31 32  2  0  0  0  0
 32 35  1  0  0  0  0
 35 33  2  0  0  0  0
 35 34  1  0  0  0  0
 37 36  1  0  0  0  0
 37 32  1  0  0  0  0
M  END
>  <MODEL>
3

>  <REMARK>
 VINA RESULT:      -8.6      1.303      1.669
  Name = 
  4 active torsions:
  status: ('A' for Active; 'I' for Inactive)
    1  A    between atoms: C_5  and  C_33
    2  A    between atoms: C_17  and  N_35
    3  A    between atoms: C_19  and  N_22
    4  A    between atoms: C_19  and  C_31
                            x       y       z     vdW  Elec       q    Type
                         _______ _______ _______ _____ _____    ______ ____

>  <TORSDO>
F 4

$$$$
=
 OpenBabel10222421153D

 37 43  0  0  1  0  0  0  0  0999 V2000
  179.3060  179.0590  144.6020 O   0  0  0  0  0  0  0  0  0  0  0  0
  181.9580  178.2930  140.0300 O   0  0  0  0  0  0  0  0  0  0  0  0
  182.8570  179.3200  140.3470 C   0  0  1  0  0  3  0  0  0  0  0  0
  184.3470  179.4640  138.3160 C   0  0  0  0  0  3  0  0  0  0  0  0
  186.4130  178.2730  141.0920 N   0  0  0  0  0  0  0  0  0  0  0  0
  185.2860  178.6010  140.3890 C   0  0  0  0  0  0  0  0  0  0  0  0
  187.1970  178.0940  145.4180 N   0  0  0  0  0  0  0  0  0  0  0  0
  184.0580  178.7680  141.0700 C   0  0  0  0  0  0  0  0  0  0  0  0
  183.2550  180.1280  139.1020 C   0  0  0  0  0  2  0  0  0  0  0  0
  185.2040  178.2530  143.1360 C   0  0  0  0  0  0  0  0  0  0  0  0
  182.9900  178.6770  143.4410 C   0  0  0  0  0  0  0  0  0  0  0  0
  185.3420  178.7960  138.9150 C   0  0  0  0  0  0  0  0  0  0  0  0
  187.5440  177.6640  143.0180 C   0  0  0  0  0  3  0  0  0  0  0  0
  180.4660  178.2650  142.4550 C   0  0  1  0  0  3  0  0  0  0  0  0
  180.1410  178.7410  143.7170 C   0  0  0  0  0  0  0  0  0  0  0  0
  180.2190  179.3340  141.4130 C   0  0  0  0  0  2  0  0  0  0  0  0
  181.5830  178.5980  143.2200 N   0  0  0  0  0  0  0  0  0  0  0  0
  184.9770  178.3880  144.4470 C   0  0  0  0  0  0  0  0  0  0  0  0
  186.4160  178.0880  142.4420 C   0  0  0  0  0  0  0  0  0  0  0  0
  184.0380  178.4930  142.4440 C   0  0  0  0  0  0  0  0  0  0  0  0
  185.6810  179.4740  146.6530 C   0  0  0  0  0  1  0  0  0  0  0  0
  183.5370  178.6280  144.6480 C   0  0  0  0  0  3  0  0  0  0  0  0
  186.0020  178.5970  145.4930 C   0  0  0  0  0  0  0  0  0  0  0  0
  187.6360  177.1330  144.4150 C   0  0  0  0  0  2  0  0  0  0  0  0
  180.6680  178.8610  140.0260 C   0  0  0  0  0  2  0  0  0  0  0  0
  186.7290  176.9180  138.0690 C   0  0  0  0  0  3  0  0  0  0  0  0
  187.2560  178.9000  137.3210 C   0  0  0  0  0  3  0  0  0  0  0  0
  188.1510  178.0210  136.7390 C   0  0  0  0  0  3  0  0  0  0  0  0
  187.7890  176.7690  137.2040 C   0  0  0  0  0  0  0  0  0  0  0  0
  186.3990  178.2250  138.1150 N   0  0  0  0  0  0  0  0  0  0  0  0
  188.4860  175.4930  136.9700 C   0  0  0  0  0  3  0  0  0  0  0  0
  189.6710  175.0980  137.4670 C   0  0  0  0  0  0  0  0  0  0  0  0
  190.5450  176.0030  139.4710 O   0  0  0  0  0  1  0  0  0  0  0  0
  191.5360  176.7510  137.5520 O   0  0  0  0  0  0  0  0  0  0  0  0
  190.5790  175.9890  138.2120 C   0  0  0  0  0  0  0  0  0  0  0  0
  191.2610  173.4950  136.8290 O   0  0  0  0  0  1  0  0  0  0  0  0
  190.1080  173.7540  137.2350 N   0  0  0  0  0  2  0  0  0  0  0  0
  2  3  1  0  0  0  0
  3  9  1  6  0  0  0
  3  8  1  0  0  0  0
  4 12  2  0  0  0  0
  4  9  1  0  0  0  0
  5 19  1  0  0  0  0
  6  8  1  0  0  0  0
  6  5  2  0  0  0  0
  7 23  2  0  0  0  0
  8 20  2  0  0  0  0
 10 18  2  0  0  0  0
 11 22  2  0  0  0  0
 12  6  1  0  0  0  0
 13 24  1  0  0  0  0
 14 16  1  6  0  0  0
 14 17  1  0  0  0  0
 14 15  1  0  0  0  0
 15  1  2  0  0  0  0
 17 11  1  0  0  0  0
 17 15  1  0  0  0  0
 18 22  1  0  0  0  0
 18 23  1  0  0  0  0
 19 13  2  0  0  0  0
 19 10  1  0  0  0  0
 20 10  1  0  0  0  0
 20 11  1  0  0  0  0
 23 21  1  0  0  0  0
 24  7  1  0  0  0  0
 25  2  1  0  0  0  0
 25 16  1  0  0  0  0
 26 30  1  0  0  0  0
 27 30  1  0  0  0  0
 28 29  1  0  0  0  0
 28 27  2  0  0  0  0
 29 26  2  0  0  0  0
 30 12  1  0  0  0  0
 31 29  1  0  0  0  0
 31 32  2  0  0  0  0
 32 35  1  0  0  0  0
 34 35  2  0  0  0  0
 35 33  1  0  0  0  0
 36 37  1  0  0  0  0
 37 32  1  0  0  0  0
M  END
>  <MODEL>
4

>  <REMARK>
 VINA RESULT:      -8.4      3.413      5.095
  Name = 
  4 active torsions:
  status: ('A' for Active; 'I' for Inactive)
    1  A    between atoms: C_5  and  C_33
    2  A    between atoms: C_17  and  N_35
    3  A    between atoms: C_19  and  N_22
    4  A    between atoms: C_19  and  C_31
                            x       y       z     vdW  Elec       q    Type
                         _______ _______ _______ _____ _____    ______ ____

>  <TORSDO>
F 4

$$$$
=
 OpenBabel10222421153D

 37 43  0  0  1  0  0  0  0  0999 V2000
  188.6290  177.8990  149.0160 O   0  0  0  0  0  0  0  0  0  0  0  0
  184.8430  177.8400  145.2500 O   0  0  0  0  0  0  0  0  0  0  0  0
  185.4630  178.8980  144.5710 C   0  0  1  0  0  3  0  0  0  0  0  0
  183.9000  179.3780  142.6490 C   0  0  0  0  0  3  0  0  0  0  0  0
  187.0070  178.0730  141.2200 N   0  0  0  0  0  0  0  0  0  0  0  0
  186.0670  178.3800  142.1660 C   0  0  0  0  0  0  0  0  0  0  0  0
  191.3590  177.5030  141.5160 N   0  0  0  0  0  0  0  0  0  0  0  0
  186.4220  178.3730  143.5350 C   0  0  0  0  0  0  0  0  0  0  0  0
  184.4320  179.8640  143.9660 C   0  0  0  0  0  2  0  0  0  0  0  0
  188.6630  177.7390  142.8880 C   0  0  0  0  0  0  0  0  0  0  0  0
  188.4240  177.9450  145.1410 C   0  0  0  0  0  0  0  0  0  0  0  0
  184.6780  178.7340  141.7680 C   0  0  0  0  0  0  0  0  0  0  0  0
  189.1020  177.3590  140.5420 C   0  0  0  0  0  2  0  0  0  0  0  0
  186.7940  177.4340  147.2840 C   0  0  1  0  0  3  0  0  0  0  0  0
  187.9650  177.7460  147.9590 C   0  0  0  0  0  0  0  0  0  0  0  0
  185.8140  178.5840  147.3780 C   0  0  0  0  0  2  0  0  0  0  0  0
  187.8450  177.7750  146.4320 N   0  0  0  0  0  0  0  0  0  0  0  0
  189.8790  177.7150  143.4450 C   0  0  0  0  0  0  0  0  0  0  0  0
  188.2930  177.7470  141.5310 C   0  0  0  0  0  0  0  0  0  0  0  0
  187.7180  177.9540  143.8650 C   0  0  1  0  0  3  0  0  0  0  0  0
  192.2730  178.6160  143.4280 C   0  0  0  0  0  1  0  0  0  0  0  0
  189.7230  177.8140  144.9070 C   0  0  0  0  0  3  0  0  0  0  0  0
  191.1670  177.8960  142.7380 C   0  0  0  0  0  0  0  0  0  0  0  0
  190.4270  176.6930  140.7430 C   0  0  0  0  0  2  0  0  0  0  0  0
  184.5550  178.2980  146.5520 C   0  0  0  0  0  2  0  0  0  0  0  0
  183.2720  177.3210  140.2880 C   0  0  0  0  0  3  0  0  0  0  0  0
  184.4210  178.8880  139.2940 C   0  0  0  0  0  3  0  0  0  0  0  0
  183.7320  178.2250  138.2940 C   0  0  0  0  0  3  0  0  0  0  0  0
  182.9920  177.2530  138.9430 C   0  0  0  0  0  0  0  0  0  0  0  0
  184.1320  178.3390  140.4920 N   0  0  0  0  0  0  0  0  0  0  0  0
  182.1620  176.2030  138.3270 C   0  0  0  0  0  3  0  0  0  0  0  0
  182.5740  175.0720  137.7280 C   0  0  0  0  0  0  0  0  0  0  0  0
  184.5560  173.8030  137.9680 O   0  0  0  0  0  1  0  0  0  0  0  0
  184.6780  175.5190  136.4650 O   0  0  0  0  0  0  0  0  0  0  0  0
  183.9870  174.7830  137.4200 C   0  0  0  0  0  0  0  0  0  0  0  0
  180.5860  173.8590  138.0100 O   0  0  0  0  0  1  0  0  0  0  0  0
  181.5980  174.1060  137.3210 N   0  0  0  0  0  2  0  0  0  0  0  0
  2 25  1  0  0  0  0
  3  9  1  6  0  0  0
  3  2  1  0  0  0  0
  4  9  1  0  0  0  0
  5 19  2  0  0  0  0
  5  6  1  0  0  0  0
  6  8  2  0  0  0  0
  7 23  2  0  0  0  0
  8 20  1  0  0  0  0
  8  3  1  0  0  0  0
 10 18  2  0  0  0  0
 11 17  1  0  0  0  0
 12  6  1  0  0  0  0
 12  4  2  0  0  0  0
 13 24  1  0  0  0  0
 13 19  1  0  0  0  0
 14 16  1  1  0  0  0
 14 15  1  0  0  0  0
 15  1  2  0  0  0  0
 17 14  1  0  0  0  0
 17 15  1  0  0  0  0
 18 22  1  0  0  0  0
 19 10  1  0  0  0  0
 20 10  1  6  0  0  0
 20 11  1  0  0  0  0
 22 11  2  0  0  0  0
 23 21  1  0  0  0  0
 23 18  1  0  0  0  0
 24  7  1  0  0  0  0
 25 16  1  0  0  0  0
 26 30  1  0  0  0  0
 27 30  1  0  0  0  0
 28 29  1  0  0  0  0
 28 27  2  0  0  0  0
 29 26  2  0  0  0  0
 30 12  1  0  0  0  0
 31 29  1  0  0  0  0
 32 31  2  0  0  0  0
 34 35  2  0  0  0  0
 35 32  1  0  0  0  0
 35 33  1  0  0  0  0
 37 32  1  0  0  0  0
 37 36  1  0  0  0  0
M  END
>  <MODEL>
5

>  <REMARK>
 VINA RESULT:      -8.2      4.203      7.003
  Name = 
  4 active torsions:
  status: ('A' for Active; 'I' for Inactive)
    1  A    between atoms: C_5  and  C_33
    2  A    between atoms: C_17  and  N_35
    3  A    between atoms: C_19  and  N_22
    4  A    between atoms: C_19  and  C_31
                            x       y       z     vdW  Elec       q    Type
                         _______ _______ _______ _____ _____    ______ ____

>  <TORSDO>
F 4

$$$$
=
 OpenBabel10222421153D

 37 43  0  0  1  0  0  0  0  0999 V2000
  184.6570  178.8540  147.0200 O   0  0  0  0  0  0  0  0  0  0  0  0
  186.3650  177.8330  142.0640 O   0  0  0  0  0  0  0  0  0  0  0  0
  187.5300  178.5810  142.2810 C   0  0  1  0  0  3  0  0  0  0  0  0
  188.7100  178.5190  140.0520 C   0  0  0  0  0  3  0  0  0  0  0  0
  190.7730  176.6410  142.4210 N   0  0  0  0  0  0  0  0  0  0  0  0
  189.6790  177.2890  141.9160 C   0  0  0  0  0  0  0  0  0  0  0  0
  192.0800  175.9300  146.5620 N   0  0  0  0  0  0  0  0  0  0  0  0
  188.6410  177.6960  142.7860 C   0  0  0  0  0  0  0  0  0  0  0  0
  187.9430  179.3650  141.0260 C   0  0  0  0  0  2  0  0  0  0  0  0
  189.8950  176.7540  144.6250 C   0  0  0  0  0  0  0  0  0  0  0  0
  187.9260  177.6790  145.2870 C   0  0  0  0  0  0  0  0  0  0  0  0
  189.5770  177.5820  140.4610 C   0  0  0  0  0  0  0  0  0  0  0  0
  191.9700  175.6220  144.1210 C   0  0  0  0  0  3  0  0  0  0  0  0
  185.2670  177.9760  144.6880 C   0  0  1  0  0  3  0  0  0  0  0  0
  185.2530  178.4150  146.0030 C   0  0  0  0  0  0  0  0  0  0  0  0
  185.1570  179.1530  143.7430 C   0  0  0  0  0  2  0  0  0  0  0  0
  186.5280  177.9640  145.2840 N   0  0  0  0  0  0  0  0  0  0  0  0
  189.8950  176.8340  145.9600 C   0  0  0  0  0  0  0  0  0  0  0  0
  190.9170  176.3530  143.7460 C   0  0  0  0  0  0  0  0  0  0  0  0
  188.7440  177.3260  144.1330 C   0  0  0  0  0  0  0  0  0  0  0  0
  191.1510  177.5350  148.0750 C   0  0  0  0  0  1  0  0  0  0  0  0
  188.6050  177.4020  146.3910 C   0  0  0  0  0  3  0  0  0  0  0  0
  191.0750  176.7020  146.8430 C   0  0  0  0  0  0  0  0  0  0  0  0
  192.1180  174.9750  145.4630 C   0  0  0  0  0  2  0  0  0  0  0  0
  185.2730  178.6980  142.2840 C   0  0  0  0  0  2  0  0  0  0  0  0
  189.8120  176.0120  138.5520 C   0  0  0  0  0  3  0  0  0  0  0  0
  191.6760  176.8040  139.3650 C   0  0  0  0  0  3  0  0  0  0  0  0
  192.0380  175.9540  138.3360 C   0  0  0  0  0  3  0  0  0  0  0  0
  190.8460  175.4800  137.8170 C   0  0  0  0  0  0  0  0  0  0  0  0
  190.3320  176.8370  139.4830 N   0  0  0  0  0  0  0  0  0  0  0  0
  190.6710  174.4610  136.7680 C   0  0  0  0  0  3  0  0  0  0  0  0
  190.0010  174.5770  135.6090 C   0  0  0  0  0  0  0  0  0  0  0  0
  187.9090  175.6740  135.4800 O   0  0  0  0  0  1  0  0  0  0  0  0
  189.7040  176.9240  134.8180 O   0  0  0  0  0  0  0  0  0  0  0  0
  189.1500  175.7340  135.2740 C   0  0  0  0  0  0  0  0  0  0  0  0
  189.2030  172.6170  134.5950 O   0  0  0  0  0  1  0  0  0  0  0  0
  190.0730  173.5120  134.6540 N   0  0  0  0  0  2  0  0  0  0  0  0
  2  3  1  0  0  0  0
  2 25  1  0  0  0  0
  3  9  1  6  0  0  0
  3  8  1  0  0  0  0
  4 12  2  0  0  0  0
  4  9  1  0  0  0  0
  5 19  1  0  0  0  0
  6  5  2  0  0  0  0
  6  8  1  0  0  0  0
  7 23  2  0  0  0  0
  8 20  2  0  0  0  0
 10 18  2  0  0  0  0
 11 22  2  0  0  0  0
 12  6  1  0  0  0  0
 13 24  1  0  0  0  0
 14 16  1  6  0  0  0
 14 17  1  0  0  0  0
 14 15  1  0  0  0  0
 15  1  2  0  0  0  0
 17 11  1  0  0  0  0
 17 15  1  0  0  0  0
 18 22  1  0  0  0  0
 18 23  1  0  0  0  0
 19 13  2  0  0  0  0
 19 10  1  0  0  0  0
 20 10  1  0  0  0  0
 20 11  1  0  0  0  0
 23 21  1  0  0  0  0
 24  7  1  0  0  0  0
 25 16  1  0  0  0  0
 26 30  1  0  0  0  0
 27 30  1  0  0  0  0
 28 27  2  0  0  0  0
 29 28  1  0  0  0  0
 29 26  2  0  0  0  0
 30 12  1  0  0  0  0
 31 29  1  0  0  0  0
 32 31  2  0  0  0  0
 34 35  2  0  0  0  0
 35 33  1  0  0  0  0
 35 32  1  0  0  0  0
 36 37  1  0  0  0  0
 37 32  1  0  0  0  0
M  END
>  <MODEL>
6

>  <REMARK>
 VINA RESULT:      -8.2      2.458      2.947
  Name = 
  4 active torsions:
  status: ('A' for Active; 'I' for Inactive)
    1  A    between atoms: C_5  and  C_33
    2  A    between atoms: C_17  and  N_35
    3  A    between atoms: C_19  and  N_22
    4  A    between atoms: C_19  and  C_31
                            x       y       z     vdW  Elec       q    Type
                         _______ _______ _______ _____ _____    ______ ____

>  <TORSDO>
F 4

$$$$
=
 OpenBabel10222421153D

 37 43  0  0  1  0  0  0  0  0999 V2000
  187.8570  178.0860  149.7220 O   0  0  0  0  0  0  0  0  0  0  0  0
  190.8670  177.3840  145.3680 O   0  0  0  0  0  0  0  0  0  0  0  0
  189.9390  176.4760  144.8380 C   0  0  1  0  0  3  0  0  0  0  0  0
  191.0160  175.6940  142.6950 C   0  0  0  0  0  3  0  0  0  0  0  0
  188.0370  177.6080  141.7730 N   0  0  0  0  0  0  0  0  0  0  0  0
  189.0440  177.1140  142.5550 C   0  0  0  0  0  0  0  0  0  0  0  0
  184.0060  179.0530  142.7870 N   0  0  0  0  0  0  0  0  0  0  0  0
  188.9400  177.1890  143.9640 C   0  0  0  0  0  0  0  0  0  0  0  0
  190.6340  175.3230  144.0980 C   0  0  0  0  0  2  0  0  0  0  0  0
  186.7950  178.2680  143.6870 C   0  0  0  0  0  0  0  0  0  0  0  0
  187.3740  178.0110  145.8720 C   0  0  0  0  0  0  0  0  0  0  0  0
  190.2430  176.4860  141.9390 C   0  0  0  0  0  0  0  0  0  0  0  0
  186.0430  178.7370  141.4390 C   0  0  0  0  0  2  0  0  0  0  0  0
  189.4200  178.1730  147.6890 C   0  0  1  0  0  3  0  0  0  0  0  0
  188.3450  178.1030  148.5630 C   0  0  0  0  0  0  0  0  0  0  0  0
  190.1490  176.8470  147.6520 C   0  0  0  0  0  2  0  0  0  0  0  0
  188.1910  178.0550  147.0400 N   0  0  0  0  0  0  0  0  0  0  0  0
  185.7240  178.5380  144.4420 C   0  0  0  0  0  0  0  0  0  0  0  0
  186.9160  178.1890  142.2880 C   0  0  0  0  0  0  0  0  0  0  0  0
  187.8330  177.8620  144.4960 C   0  0  1  0  0  3  0  0  0  0  0  0
  183.2320  178.1440  144.8610 C   0  0  0  0  0  1  0  0  0  0  0  0
  186.1080  178.4040  145.8580 C   0  0  0  0  0  3  0  0  0  0  0  0
  184.3240  178.6250  143.9710 C   0  0  0  0  0  0  0  0  0  0  0  0
  184.9340  179.6580  141.8410 C   0  0  0  0  0  2  0  0  0  0  0  0
  191.2780  176.8720  146.6150 C   0  0  0  0  0  2  0  0  0  0  0  0
  189.8230  176.6720  139.4990 C   0  0  0  0  0  3  0  0  0  0  0  0
  191.8580  177.1190  140.1490 C   0  0  0  0  0  3  0  0  0  0  0  0
  191.8540  177.2700  138.7740 C   0  0  0  0  0  3  0  0  0  0  0  0
  190.5540  177.0060  138.3820 C   0  0  0  0  0  0  0  0  0  0  0  0
  190.6290  176.7650  140.5760 N   0  0  0  0  0  0  0  0  0  0  0  0
  190.0350  176.9280  137.0050 C   0  0  0  0  0  3  0  0  0  0  0  0
  189.1620  177.7550  136.4050 C   0  0  0  0  0  0  0  0  0  0  0  0
  187.2120  178.6270  137.4220 O   0  0  0  0  0  0  0  0  0  0  0  0
  189.0540  179.9740  137.5400 O   0  0  0  0  0  1  0  0  0  0  0  0
  188.4200  178.8110  137.1170 C   0  0  0  0  0  0  0  0  0  0  0  0
  187.9270  176.9180  134.5940 O   0  0  0  0  0  1  0  0  0  0  0  0
  188.8960  177.5900  135.0070 N   0  0  0  0  0  2  0  0  0  0  0  0
  2 25  1  0  0  0  0
  3  9  1  6  0  0  0
  3  2  1  0  0  0  0
  4  9  1  0  0  0  0
  5 19  2  0  0  0  0
  5  6  1  0  0  0  0
  6  8  2  0  0  0  0
  7 23  2  0  0  0  0
  8 20  1  0  0  0  0
  8  3  1  0  0  0  0
 10 18  2  0  0  0  0
 11 17  1  0  0  0  0
 12  6  1  0  0  0  0
 12  4  2  0  0  0  0
 13 24  1  0  0  0  0
 13 19  1  0  0  0  0
 14 16  1  1  0  0  0
 14 15  1  0  0  0  0
 15  1  2  0  0  0  0
 17 14  1  0  0  0  0
 17 15  1  0  0  0  0
 18 22  1  0  0  0  0
 19 10  1  0  0  0  0
 20 10  1  6  0  0  0
 20 11  1  0  0  0  0
 22 11  2  0  0  0  0
 23 18  1  0  0  0  0
 23 21  1  0  0  0  0
 24  7  1  0  0  0  0
 25 16  1  0  0  0  0
 26 30  1  0  0  0  0
 27 30  1  0  0  0  0
 28 27  2  0  0  0  0
 29 28  1  0  0  0  0
 29 26  2  0  0  0  0
 30 12  1  0  0  0  0
 31 29  1  0  0  0  0
 32 31  2  0  0  0  0
 32 35  1  0  0  0  0
 35 33  2  0  0  0  0
 35 34  1  0  0  0  0
 36 37  1  0  0  0  0
 37 32  1  0  0  0  0
M  END
>  <MODEL>
7

>  <REMARK>
 VINA RESULT:      -8.0      3.307      5.575
  Name = 
  4 active torsions:
  status: ('A' for Active; 'I' for Inactive)
    1  A    between atoms: C_5  and  C_33
    2  A    between atoms: C_17  and  N_35
    3  A    between atoms: C_19  and  N_22
    4  A    between atoms: C_19  and  C_31
                            x       y       z     vdW  Elec       q    Type
                         _______ _______ _______ _____ _____    ______ ____

>  <TORSDO>
F 4

$$$$
=
 OpenBabel10222421153D

 37 43  0  0  1  0  0  0  0  0999 V2000
  184.5560  178.6280  147.2820 O   0  0  0  0  0  0  0  0  0  0  0  0
  189.1830  177.8430  144.7320 O   0  0  0  0  0  0  0  0  0  0  0  0
  188.6120  176.8290  143.9500 C   0  0  1  0  0  3  0  0  0  0  0  0
  190.5420  175.9770  142.5660 C   0  0  0  0  0  3  0  0  0  0  0  0
  188.1850  177.5780  140.2690 N   0  0  0  0  0  0  0  0  0  0  0  0
  188.7720  177.2230  141.4530 C   0  0  0  0  0  0  0  0  0  0  0  0
  184.0610  178.7730  139.3070 N   0  0  0  0  0  0  0  0  0  0  0  0
  188.0650  177.3940  142.6660 C   0  0  0  0  0  0  0  0  0  0  0  0
  189.6030  175.6820  143.7000 C   0  0  0  0  0  2  0  0  0  0  0  0
  186.2120  178.2790  141.3890 C   0  0  0  0  0  0  0  0  0  0  0  0
  185.7950  178.2300  143.6250 C   0  0  0  0  0  0  0  0  0  0  0  0
  190.1430  176.6470  141.4760 C   0  0  0  0  0  0  0  0  0  0  0  0
  186.4920  178.5190  139.0020 C   0  0  0  0  0  2  0  0  0  0  0  0
  186.8420  178.6860  146.1170 C   0  0  1  0  0  3  0  0  0  0  0  0
  185.4990  178.5970  146.4490 C   0  0  0  0  0  0  0  0  0  0  0  0
  187.5660  177.4230  146.5300 C   0  0  0  0  0  2  0  0  0  0  0  0
  186.0220  178.4250  145.0200 N   0  0  0  0  0  0  0  0  0  0  0  0
  184.9100  178.5180  141.5820 C   0  0  0  0  0  0  0  0  0  0  0  0
  186.9300  178.1050  140.1930 C   0  0  0  0  0  0  0  0  0  0  0  0
  186.8110  178.0160  142.6010 C   0  0  1  0  0  3  0  0  0  0  0  0
  182.5000  177.9620  140.9300 C   0  0  0  0  0  1  0  0  0  0  0  0
  184.6460  178.5210  143.0310 C   0  0  0  0  0  3  0  0  0  0  0  0
  183.8510  178.4600  140.5500 C   0  0  0  0  0  0  0  0  0  0  0  0
  185.2830  179.3780  138.7950 C   0  0  0  0  0  2  0  0  0  0  0  0
  189.0310  177.4600  146.0800 C   0  0  0  0  0  2  0  0  0  0  0  0
  190.9220  176.3880  139.1330 C   0  0  0  0  0  3  0  0  0  0  0  0
  192.2510  177.5030  140.4570 C   0  0  0  0  0  3  0  0  0  0  0  0
  192.8790  177.4700  139.2250 C   0  0  0  0  0  3  0  0  0  0  0  0
  192.0140  176.7820  138.3930 C   0  0  0  0  0  0  0  0  0  0  0  0
  191.0700  176.8540  140.3890 N   0  0  0  0  0  0  0  0  0  0  0  0
  192.2500  176.3780  136.9970 C   0  0  0  0  0  3  0  0  0  0  0  0
  193.0990  175.4390  136.5430 C   0  0  0  0  0  0  0  0  0  0  0  0
  193.7990  173.6850  137.9690 O   0  0  0  0  0  1  0  0  0  0  0  0
  195.3940  175.2530  137.5010 O   0  0  0  0  0  0  0  0  0  0  0  0
  194.0970  174.7650  137.3930 C   0  0  0  0  0  0  0  0  0  0  0  0
  192.5350  174.0420  134.7440 O   0  0  0  0  0  1  0  0  0  0  0  0
  193.0730  175.0920  135.1540 N   0  0  0  0  0  2  0  0  0  0  0  0
  2 25  1  0  0  0  0
  3  9  1  6  0  0  0
  3  2  1  0  0  0  0
  4  9  1  0  0  0  0
  5  6  1  0  0  0  0
  6 12  1  0  0  0  0
  6  8  2  0  0  0  0
  7 23  2  0  0  0  0
  8  3  1  0  0  0  0
 10 18  2  0  0  0  0
 11 17  1  0  0  0  0
 12  4  2  0  0  0  0
 13 19  1  0  0  0  0
 14 15  1  0  0  0  0
 14 16  1  1  0  0  0
 15  1  2  0  0  0  0
 17 14  1  0  0  0  0
 17 15  1  0  0  0  0
 18 22  1  0  0  0  0
 19  5  2  0  0  0  0
 19 10  1  0  0  0  0
 20 10  1  6  0  0  0
 20  8  1  0  0  0  0
 20 11  1  0  0  0  0
 22 11  2  0  0  0  0
 23 21  1  0  0  0  0
 23 18  1  0  0  0  0
 24 13  1  0  0  0  0
 24  7  1  0  0  0  0
 25 16  1  0  0  0  0
 26 30  1  0  0  0  0
 28 27  2  0  0  0  0
 29 26  2  0  0  0  0
 29 28  1  0  0  0  0
 30 27  1  0  0  0  0
 30 12  1  0  0  0  0
 31 29  1  0  0  0  0
 32 31  2  0  0  0  0
 32 35  1  0  0  0  0
 35 34  2  0  0  0  0
 35 33  1  0  0  0  0
 36 37  1  0  0  0  0
 37 32  1  0  0  0  0
M  END
>  <MODEL>
8

>  <REMARK>
 VINA RESULT:      -7.8      2.012      4.795
  Name = 
  4 active torsions:
  status: ('A' for Active; 'I' for Inactive)
    1  A    between atoms: C_5  and  C_33
    2  A    between atoms: C_17  and  N_35
    3  A    between atoms: C_19  and  N_22
    4  A    between atoms: C_19  and  C_31
                            x       y       z     vdW  Elec       q    Type
                         _______ _______ _______ _____ _____    ______ ____

>  <TORSDO>
F 4

$$$$
=
 OpenBabel10222421153D

 37 43  0  0  1  0  0  0  0  0999 V2000
  188.9360  177.8250  149.0380 O   0  0  0  0  0  0  0  0  0  0  0  0
  184.8890  177.8440  145.5540 O   0  0  0  0  0  0  0  0  0  0  0  0
  185.4660  178.9070  144.8460 C   0  0  1  0  0  3  0  0  0  0  0  0
  183.7740  179.4230  143.0480 C   0  0  0  0  0  3  0  0  0  0  0  0
  186.7590  178.1160  141.3820 N   0  0  0  0  0  0  0  0  0  0  0  0
  185.8920  178.4170  142.3970 C   0  0  0  0  0  0  0  0  0  0  0  0
  191.1170  177.5110  141.3570 N   0  0  0  0  0  0  0  0  0  0  0  0
  186.3440  178.3890  143.7370 C   0  0  0  0  0  0  0  0  0  0  0  0
  184.4020  179.8870  144.3290 C   0  0  0  0  0  2  0  0  0  0  0  0
  188.5280  177.7480  142.9220 C   0  0  0  0  0  0  0  0  0  0  0  0
  188.4530  177.9250  145.1890 C   0  0  0  0  0  0  0  0  0  0  0  0
  184.4810  178.7860  142.1050 C   0  0  0  0  0  0  0  0  0  0  0  0
  188.7940  177.3960  140.5460 C   0  0  0  0  0  2  0  0  0  0  0  0
  186.9770  177.3960  147.4370 C   0  0  1  0  0  3  0  0  0  0  0  0
  188.1960  177.6910  148.0300 C   0  0  0  0  0  0  0  0  0  0  0  0
  186.0160  178.5520  147.6160 C   0  0  0  0  0  2  0  0  0  0  0  0
  187.9670  177.7420  146.5160 N   0  0  0  0  0  0  0  0  0  0  0  0
  189.7810  177.7080  143.3900 C   0  0  0  0  0  0  0  0  0  0  0  0
  188.0610  177.7770  141.5960 C   0  0  0  0  0  0  0  0  0  0  0  0
  187.6570  177.9570  143.9670 C   0  0  1  0  0  3  0  0  0  0  0  0
  192.1740  178.5920  143.2120 C   0  0  0  0  0  1  0  0  0  0  0  0
  189.7310  177.7880  144.8600 C   0  0  0  0  0  3  0  0  0  0  0  0
  191.0160  177.8900  142.5950 C   0  0  0  0  0  0  0  0  0  0  0  0
  190.1250  176.7190  140.6430 C   0  0  0  0  0  2  0  0  0  0  0  0
  184.6980  178.2860  146.8790 C   0  0  0  0  0  2  0  0  0  0  0  0
  183.4970  179.2580  139.8750 C   0  0  0  0  0  3  0  0  0  0  0  0
  183.4430  177.1720  140.5130 C   0  0  0  0  0  3  0  0  0  0  0  0
  182.8400  177.2070  139.2690 C   0  0  0  0  0  3  0  0  0  0  0  0
  182.9040  178.5300  138.8690 C   0  0  0  0  0  0  0  0  0  0  0  0
  183.8410  178.4120  140.8660 N   0  0  0  0  0  0  0  0  0  0  0  0
  182.3100  179.1280  137.6610 C   0  0  0  0  0  3  0  0  0  0  0  0
  181.1620  179.8200  137.5630 C   0  0  0  0  0  0  0  0  0  0  0  0
  179.4600  178.9550  138.9620 O   0  0  0  0  0  0  0  0  0  0  0  0
  180.1170  181.0910  139.4380 O   0  0  0  0  0  1  0  0  0  0  0  0
  180.1870  179.9390  138.6630 C   0  0  0  0  0  0  0  0  0  0  0  0
  180.4750  181.6420  136.2530 O   0  0  0  0  0  1  0  0  0  0  0  0
  180.8320  180.4460  136.3180 N   0  0  0  0  0  2  0  0  0  0  0  0
  2 25  1  0  0  0  0
  3  9  1  6  0  0  0
  3  2  1  0  0  0  0
  4  9  1  0  0  0  0
  5 19  2  0  0  0  0
  5  6  1  0  0  0  0
  6  8  2  0  0  0  0
  7 23  2  0  0  0  0
  8 20  1  0  0  0  0
  8  3  1  0  0  0  0
 10 18  2  0  0  0  0
 11 17  1  0  0  0  0
 12  6  1  0  0  0  0
 12  4  2  0  0  0  0
 13 24  1  0  0  0  0
 13 19  1  0  0  0  0
 14 16  1  1  0  0  0
 14 15  1  0  0  0  0
 15  1  2  0  0  0  0
 17 14  1  0  0  0  0
 17 15  1  0  0  0  0
 18 22  1  0  0  0  0
 19 10  1  0  0  0  0
 20 10  1  6  0  0  0
 20 11  1  0  0  0  0
 22 11  2  0  0  0  0
 23 21  1  0  0  0  0
 23 18  1  0  0  0  0
 24  7  1  0  0  0  0
 25 16  1  0  0  0  0
 26 30  1  0  0  0  0
 27 30  1  0  0  0  0
 28 27  2  0  0  0  0
 29 28  1  0  0  0  0
 29 26  2  0  0  0  0
 30 12  1  0  0  0  0
 31 29  1  0  0  0  0
 32 31  2  0  0  0  0
 32 35  1  0  0  0  0
 35 33  2  0  0  0  0
 35 34  1  0  0  0  0
 36 37  1  0  0  0  0
 37 32  1  0  0  0  0
M  END
>  <MODEL>
9

>  <REMARK>
 VINA RESULT:      -7.7      4.711      8.143
  Name = 
  4 active torsions:
  status: ('A' for Active; 'I' for Inactive)
    1  A    between atoms: C_5  and  C_33
    2  A    between atoms: C_17  and  N_35
    3  A    between atoms: C_19  and  N_22
    4  A    between atoms: C_19  and  C_31
                            x       y       z     vdW  Elec       q    Type
                         _______ _______ _______ _____ _____    ______ ____

>  <TORSDO>
F 4

$$$$
