=
 OpenBabel10222419563D

 37 39  0  0  1  0  0  0  0  0999 V2000
  184.4970  178.5850  144.7170 N   0  0  0  0  0  0  0  0  0  0  0  0
  185.4680  178.8250  145.7860 C   0  0  0  0  0  0  0  0  0  0  0  0
  185.6800  180.0380  146.2000 O   0  0  0  0  0  0  0  0  0  0  0  0
  187.7680  177.1990  143.2240 C   0  0  0  0  0  3  0  0  0  0  0  0
  186.9400  178.0600  142.5030 C   0  0  0  0  0  0  0  0  0  0  0  0
  185.9160  178.5810  143.0310 C   0  0  0  0  0  2  0  0  0  0  0  0
  189.0440  176.8740  141.2610 C   0  0  0  0  0  0  0  0  0  0  0  0
  190.2490  176.7410  138.0730 N   0  0  0  0  0  0  0  0  0  0  0  0
  188.8720  176.6260  142.6190 C   0  0  0  0  0  3  0  0  0  0  0  0
  189.2060  177.1700  137.0110 C   0  0  1  0  0  3  0  0  0  0  0  0
  190.0350  176.4120  140.4990 N   0  0  0  0  0  2  0  0  0  0  0  0
  188.4580  177.7580  139.1830 C   0  0  2  0  0  3  0  0  0  0  0  0
  188.1610  177.5910  140.5420 C   0  0  0  0  0  0  0  0  0  0  0  0
  187.4080  177.7750  137.7090 S   0  0  0  0  0  0  0  0  0  0  0  0
  189.6200  176.8650  139.2060 C   0  0  0  0  0  0  0  0  0  0  0  0
  187.1780  178.2570  141.2090 N   0  0  0  0  0  0  0  0  0  0  0  0
  184.7310  178.9580  143.3660 C   0  0  0  0  0  2  0  0  0  0  0  0
  189.7360  177.9680  135.6320 C   0  0  0  0  0  2  0  0  0  0  0  0
  190.1100  176.8660  134.5950 C   0  0  0  0  0  2  0  0  0  0  0  0
  189.0950  175.7540  134.6820 C   0  0  0  0  0  1  0  0  0  0  0  0
  183.1610  178.8240  144.9990 C   0  0  0  0  0  2  0  0  0  0  0  0
  182.6070  179.0180  143.5750 C   0  0  0  0  0  3  0  0  0  0  0  0
  181.1160  178.9230  143.3800 C   0  0  0  0  0  3  0  0  0  0  0  0
  180.5280  179.4720  142.0500 C   0  0  2  0  0  3  0  0  0  0  0  0
  179.3180  180.4630  142.4550 C   0  0  0  0  0  1  0  0  0  0  0  0
  179.3410  177.2150  142.1010 O   0  0  0  0  0  1  0  0  0  0  0  0
  180.1150  178.0580  141.4780 C   0  0  0  0  0  0  0  0  0  0  0  0
  180.9790  177.5260  140.5080 O   0  0  0  0  0  0  0  0  0  0  0  0
  186.5160  177.7930  146.2180 C   0  0  0  0  0  2  0  0  0  0  0  0
  186.8870  178.0730  147.7440 C   0  0  0  0  0  2  0  0  0  0  0  0
  191.7510  177.8220  144.0300 C   0  0  0  0  0  1  0  0  0  0  0  0
  189.3130  176.2430  147.4700 O   0  0  0  0  0  0  0  0  0  0  0  0
  188.3410  178.3750  147.7410 N   0  0  0  0  0  2  0  0  0  0  0  0
  191.3460  177.3750  145.5030 C   0  0  0  0  0  0  0  0  0  0  0  0
  189.9920  177.7730  145.8170 N   0  0  0  0  0  2  0  0  0  0  0  0
  189.2920  177.4410  147.0740 C   0  0  0  0  0  0  0  0  0  0  0  0
  192.0390  176.8760  146.4800 O   0  0  0  0  0  0  0  0  0  0  0  0
  1 21  1  0  0  0  0
  1  2  1  0  0  0  0
  2  3  2  0  0  0  0
  2 29  1  0  0  0  0
  5  6  1  0  0  0  0
  5  4  2  0  0  0  0
  6 17  1  0  0  0  0
  7  9  2  0  0  0  0
  8 15  2  0  0  0  0
  9  4  1  0  0  0  0
 10 18  1  1  0  0  0
 10 14  1  0  0  0  0
 10  8  1  0  0  0  0
 11  7  1  0  0  0  0
 12 14  1  6  0  0  0
 12 15  1  0  0  0  0
 12 13  1  0  0  0  0
 13 16  2  0  0  0  0
 13  7  1  0  0  0  0
 15 11  1  0  0  0  0
 16  5  1  0  0  0  0
 17  1  1  0  0  0  0
 19 20  1  0  0  0  0
 19 18  1  0  0  0  0
 22 21  1  0  0  0  0
 23 22  2  0  0  0  0
 24 25  1  1  0  0  0
 24 23  1  0  0  0  0
 27 24  1  0  0  0  0
 27 26  1  0  0  0  0
 28 27  2  0  0  0  0
 29 30  1  0  0  0  0
 31 34  1  0  0  0  0
 33 30  1  0  0  0  0
 34 35  1  0  0  0  0
 34 37  2  0  0  0  0
 35 36  1  0  0  0  0
 36 32  2  0  0  0  0
 36 33  1  0  0  0  0
M  END
>  <MODEL>
1

>  <REMARK>
 VINA RESULT:      -7.7      0.000      0.000
  Name = 
  11 active torsions:
  status: ('A' for Active; 'I' for Inactive)
    1  A    between atoms: C_4  and  N_7
    2  A    between atoms: C_4  and  C_30
    3  A    between atoms: N_7  and  C_37
    4  A    between atoms: C_8  and  C_18
    5  A    between atoms: N_9  and  C_17
    6  A    between atoms: C_11  and  C_16
    7  A    between atoms: C_11  and  C_19
    8  A    between atoms: C_14  and  C_30
    9  A    between atoms: C_14  and  C_32
   10  A    between atoms: C_17  and  C_18
   11  A    between atoms: C_27  and  C_32
                            x       y       z     vdW  Elec       q    Type
                         _______ _______ _______ _____ _____    ______ ____

>  <TORSDO>
F 11

$$$$
=
 OpenBabel10222419563D

 37 39  0  0  1  0  0  0  0  0999 V2000
  189.2690  177.7500  142.9980 N   0  0  0  0  0  0  0  0  0  0  0  0
  187.9550  177.4930  143.5900 C   0  0  0  0  0  0  0  0  0  0  0  0
  187.8720  176.8340  144.7070 O   0  0  0  0  0  0  0  0  0  0  0  0
  189.2450  177.7570  139.1440 C   0  0  0  0  0  3  0  0  0  0  0  0
  189.9160  176.7730  139.8710 C   0  0  0  0  0  0  0  0  0  0  0  0
  189.8450  176.7260  141.1330 C   0  0  0  0  0  2  0  0  0  0  0  0
  190.2260  176.8910  137.1760 C   0  0  0  0  0  0  0  0  0  0  0  0
  192.1230  175.2630  134.8550 N   0  0  0  0  0  0  0  0  0  0  0  0
  189.3530  177.7990  137.7660 C   0  0  0  0  0  3  0  0  0  0  0  0
  193.3270  174.5110  135.4750 C   0  0  1  0  0  3  0  0  0  0  0  0
  190.4740  176.7750  135.8710 N   0  0  0  0  0  2  0  0  0  0  0  0
  191.8150  175.1830  137.1730 C   0  0  2  0  0  3  0  0  0  0  0  0
  190.9770  176.0390  137.8990 C   0  0  0  0  0  0  0  0  0  0  0  0
  193.4930  174.5810  137.4880 S   0  0  0  0  0  0  0  0  0  0  0  0
  191.5240  175.8030  135.8770 C   0  0  0  0  0  0  0  0  0  0  0  0
  190.7230  175.9320  139.2320 N   0  0  0  0  0  0  0  0  0  0  0  0
  190.0590  176.7290  142.4030 C   0  0  0  0  0  2  0  0  0  0  0  0
  193.8310  173.0720  134.7720 C   0  0  0  0  0  2  0  0  0  0  0  0
  192.7310  172.0120  135.0820 C   0  0  0  0  0  2  0  0  0  0  0  0
  193.3670  170.8510  135.8040 C   0  0  0  0  0  1  0  0  0  0  0  0
  190.1210  178.6060  143.6770 C   0  0  0  0  0  2  0  0  0  0  0  0
  191.1060  177.5910  144.2870 C   0  0  0  0  0  2  0  0  0  0  0  0
  191.3440  177.6460  145.7750 C   0  0  0  0  0  2  0  0  0  0  0  0
  190.5640  176.6410  146.6660 C   0  0  2  0  0  3  0  0  0  0  0  0
  189.6490  177.5230  147.6650 C   0  0  0  0  0  1  0  0  0  0  0  0
  192.5450  176.5020  148.2660 O   0  0  0  0  0  1  0  0  0  0  0  0
  191.8500  175.9750  147.2980 C   0  0  0  0  0  0  0  0  0  0  0  0
  192.5100  175.0460  146.4780 O   0  0  0  0  0  0  0  0  0  0  0  0
  186.6400  177.6370  142.8160 C   0  0  0  0  0  2  0  0  0  0  0  0
  186.8120  178.8230  141.7630 C   0  0  0  0  0  2  0  0  0  0  0  0
  181.0360  177.6170  140.1180 C   0  0  0  0  0  1  0  0  0  0  0  0
  185.0440  179.5300  139.3790 O   0  0  0  0  0  0  0  0  0  0  0  0
  185.4800  179.4780  141.6970 N   0  0  0  0  0  2  0  0  0  0  0  0
  182.1440  178.7320  139.8660 C   0  0  0  0  0  0  0  0  0  0  0  0
  183.3540  178.4420  140.6020 N   0  0  0  0  0  2  0  0  0  0  0  0
  184.5940  179.2410  140.5220 C   0  0  0  0  0  0  0  0  0  0  0  0
  182.0990  179.8810  139.2650 O   0  0  0  0  0  0  0  0  0  0  0  0
  1  2  1  0  0  0  0
  1 21  1  0  0  0  0
  2  3  2  0  0  0  0
  4  5  1  0  0  0  0
  5  6  1  0  0  0  0
  6 17  1  0  0  0  0
  7  9  1  0  0  0  0
  7 13  2  0  0  0  0
  8 10  1  0  0  0  0
  8 15  2  0  0  0  0
  9  4  2  0  0  0  0
 10 18  1  1  0  0  0
 10 14  1  0  0  0  0
 11 15  1  0  0  0  0
 11  7  1  0  0  0  0
 12 15  1  6  0  0  0
 12 14  1  0  0  0  0
 12 13  1  0  0  0  0
 13 16  1  0  0  0  0
 16  5  2  0  0  0  0
 17  1  1  0  0  0  0
 18 19  1  0  0  0  0
 19 20  1  0  0  0  0
 21 22  1  0  0  0  0
 22 23  1  0  0  0  0
 23 24  1  0  0  0  0
 24 27  1  0  0  0  0
 24 25  1  1  0  0  0
 27 26  1  0  0  0  0
 28 27  2  0  0  0  0
 29  2  1  0  0  0  0
 30 29  1  0  0  0  0
 32 36  2  0  0  0  0
 33 30  1  0  0  0  0
 34 31  1  0  0  0  0
 34 35  1  0  0  0  0
 36 35  1  0  0  0  0
 36 33  1  0  0  0  0
 37 34  2  0  0  0  0
M  END
>  <MODEL>
2

>  <REMARK>
 VINA RESULT:      -7.6      2.935      7.896
  Name = 
  11 active torsions:
  status: ('A' for Active; 'I' for Inactive)
    1  A    between atoms: C_4  and  N_7
    2  A    between atoms: C_4  and  C_30
    3  A    between atoms: N_7  and  C_37
    4  A    between atoms: C_8  and  C_18
    5  A    between atoms: N_9  and  C_17
    6  A    between atoms: C_11  and  C_16
    7  A    between atoms: C_11  and  C_19
    8  A    between atoms: C_14  and  C_30
    9  A    between atoms: C_14  and  C_32
   10  A    between atoms: C_17  and  C_18
   11  A    between atoms: C_27  and  C_32
                            x       y       z     vdW  Elec       q    Type
                         _______ _______ _______ _____ _____    ______ ____

>  <TORSDO>
F 11

$$$$
=
 OpenBabel10222419563D

 37 39  0  0  1  0  0  0  0  0999 V2000
  181.7790  178.4870  139.4480 N   0  0  0  0  0  0  0  0  0  0  0  0
  180.8120  177.4120  139.6740 C   0  0  0  0  0  0  0  0  0  0  0  0
  180.4320  177.1350  140.8850 O   0  0  0  0  0  0  0  0  0  0  0  0
  182.4870  178.9510  143.2080 C   0  0  0  0  0  3  0  0  0  0  0  0
  183.5180  178.7710  142.2850 C   0  0  0  0  0  0  0  0  0  0  0  0
  183.2840  178.7100  141.0430 C   0  0  0  0  0  2  0  0  0  0  0  0
  184.0830  178.7570  144.9400 C   0  0  0  0  0  0  0  0  0  0  0  0
  186.8490  178.1890  146.8540 N   0  0  0  0  0  0  0  0  0  0  0  0
  182.7650  178.9950  144.5610 C   0  0  0  0  0  3  0  0  0  0  0  0
  187.9740  177.4480  146.0890 C   0  0  1  0  0  3  0  0  0  0  0  0
  184.5510  178.7510  146.1890 N   0  0  0  0  0  2  0  0  0  0  0  0
  186.3240  178.2260  144.5730 C   0  0  2  0  0  3  0  0  0  0  0  0
  185.0430  178.4450  144.0510 C   0  0  0  0  0  0  0  0  0  0  0  0
  187.6200  177.0380  144.1420 S   0  0  0  0  0  0  0  0  0  0  0  0
  185.9000  178.3220  145.9730 C   0  0  0  0  0  0  0  0  0  0  0  0
  184.7550  178.5620  142.7260 N   0  0  0  0  0  0  0  0  0  0  0  0
  183.1510  178.3770  139.8060 C   0  0  0  0  0  2  0  0  0  0  0  0
  189.5730  177.8020  146.4590 C   0  0  0  0  0  2  0  0  0  0  0  0
  190.1130  176.6050  147.2980 C   0  0  0  0  0  2  0  0  0  0  0  0
  191.5460  176.3450  146.9040 C   0  0  0  0  0  1  0  0  0  0  0  0
  181.3720  179.7840  139.7190 C   0  0  0  0  0  2  0  0  0  0  0  0
  181.2480  180.3410  138.2880 C   0  0  0  0  0  2  0  0  0  0  0  0
  181.3490  181.8330  138.1010 C   0  0  0  0  0  2  0  0  0  0  0  0
  180.3470  182.5050  137.1230 C   0  0  2  0  0  3  0  0  0  0  0  0
  180.6440  181.8870  135.6600 C   0  0  0  0  0  1  0  0  0  0  0  0
  180.1570  185.0490  137.1290 O   0  0  0  0  0  0  0  0  0  0  0  0
  180.8580  183.9790  137.3790 C   0  0  0  0  0  0  0  0  0  0  0  0
  182.2530  184.1320  137.4250 O   0  0  0  0  0  1  0  0  0  0  0  0
  180.4720  176.3510  138.6220 C   0  0  0  0  0  2  0  0  0  0  0  0
  180.5970  177.0230  137.1810 C   0  0  0  0  0  2  0  0  0  0  0  0
  185.1470  172.9720  137.8210 C   0  0  0  0  0  1  0  0  0  0  0  0
  183.5720  176.9790  136.5050 O   0  0  0  0  0  0  0  0  0  0  0  0
  181.4010  176.0680  136.3760 N   0  0  0  0  0  2  0  0  0  0  0  0
  184.7610  174.2000  136.8840 C   0  0  0  0  0  0  0  0  0  0  0  0
  183.4730  174.7480  137.2460 N   0  0  0  0  0  2  0  0  0  0  0  0
  182.8660  175.9400  136.6200 C   0  0  0  0  0  0  0  0  0  0  0  0
  185.3050  174.6730  135.8050 O   0  0  0  0  0  0  0  0  0  0  0  0
  1  2  1  0  0  0  0
  1 21  1  0  0  0  0
  1 17  1  0  0  0  0
  2  3  2  0  0  0  0
  4  9  1  0  0  0  0
  5 16  1  0  0  0  0
  5  4  2  0  0  0  0
  6  5  1  0  0  0  0
  7 11  1  0  0  0  0
  9  7  2  0  0  0  0
 10 18  1  6  0  0  0
 10  8  1  0  0  0  0
 12 13  1  6  0  0  0
 12 15  1  0  0  0  0
 13  7  1  0  0  0  0
 14 12  1  0  0  0  0
 14 10  1  0  0  0  0
 15 11  1  0  0  0  0
 15  8  2  0  0  0  0
 16 13  2  0  0  0  0
 17  6  1  0  0  0  0
 18 19  1  0  0  0  0
 20 19  1  0  0  0  0
 22 21  1  0  0  0  0
 23 22  1  0  0  0  0
 24 25  1  6  0  0  0
 24 27  1  0  0  0  0
 24 23  1  0  0  0  0
 26 27  2  0  0  0  0
 27 28  1  0  0  0  0
 29  2  1  0  0  0  0
 30 29  1  0  0  0  0
 32 36  2  0  0  0  0
 33 36  1  0  0  0  0
 33 30  1  0  0  0  0
 34 35  1  0  0  0  0
 34 31  1  0  0  0  0
 36 35  1  0  0  0  0
 37 34  2  0  0  0  0
M  END
>  <MODEL>
3

>  <REMARK>
 VINA RESULT:      -7.6      4.706      8.702
  Name = 
  11 active torsions:
  status: ('A' for Active; 'I' for Inactive)
    1  A    between atoms: C_4  and  N_7
    2  A    between atoms: C_4  and  C_30
    3  A    between atoms: N_7  and  C_37
    4  A    between atoms: C_8  and  C_18
    5  A    between atoms: N_9  and  C_17
    6  A    between atoms: C_11  and  C_16
    7  A    between atoms: C_11  and  C_19
    8  A    between atoms: C_14  and  C_30
    9  A    between atoms: C_14  and  C_32
   10  A    between atoms: C_17  and  C_18
   11  A    between atoms: C_27  and  C_32
                            x       y       z     vdW  Elec       q    Type
                         _______ _______ _______ _____ _____    ______ ____

>  <TORSDO>
F 11

$$$$
=
 OpenBabel10222419563D

 37 39  0  0  1  0  0  0  0  0999 V2000
  185.9260  178.6380  143.5170 N   0  0  0  0  0  0  0  0  0  0  0  0
  185.1770  178.5180  144.7700 C   0  0  0  0  0  0  0  0  0  0  0  0
  183.9560  178.0750  144.7480 O   0  0  0  0  0  0  0  0  0  0  0  0
  183.3980  177.5160  140.8330 C   0  0  0  0  0  3  0  0  0  0  0  0
  184.0200  178.7640  140.7780 C   0  0  0  0  0  0  0  0  0  0  0  0
  184.9140  179.0890  141.6110 C   0  0  0  0  0  2  0  0  0  0  0  0
  182.0150  178.1900  139.0390 C   0  0  0  0  0  0  0  0  0  0  0  0
  180.2950  179.8920  136.6360 N   0  0  0  0  0  0  0  0  0  0  0  0
  182.4100  177.1900  139.9220 C   0  0  0  0  0  3  0  0  0  0  0  0
  180.4350  181.4290  136.7630 C   0  0  1  0  0  3  0  0  0  0  0  0
  181.0810  178.0780  138.0940 N   0  0  0  0  0  2  0  0  0  0  0  0
  182.0300  180.3420  138.1390 C   0  0  2  0  0  3  0  0  0  0  0  0
  182.5220  179.4350  139.0870 C   0  0  0  0  0  0  0  0  0  0  0  0
  181.6330  182.1050  138.2440 S   0  0  0  0  0  0  0  0  0  0  0  0
  181.0150  179.4250  137.6140 C   0  0  0  0  0  0  0  0  0  0  0  0
  183.5940  179.6620  139.8950 N   0  0  0  0  0  0  0  0  0  0  0  0
  185.6320  179.6250  142.5370 C   0  0  0  0  0  2  0  0  0  0  0  0
  180.4420  182.3610  135.3660 C   0  0  0  0  0  2  0  0  0  0  0  0
  179.8180  183.7380  135.7430 C   0  0  0  0  0  2  0  0  0  0  0  0
  180.8990  184.7880  135.6970 C   0  0  0  0  0  1  0  0  0  0  0  0
  186.2600  177.4680  142.8550 C   0  0  0  0  0  2  0  0  0  0  0  0
  187.5860  177.1200  143.5580 C   0  0  0  0  0  3  0  0  0  0  0  0
  188.8430  177.7870  143.0630 C   0  0  0  0  0  3  0  0  0  0  0  0
  190.1450  177.5690  143.8830 C   0  0  2  0  0  3  0  0  0  0  0  0
  190.8430  179.0180  144.0340 C   0  0  0  0  0  1  0  0  0  0  0  0
  190.5870  175.2930  142.8220 O   0  0  0  0  0  1  0  0  0  0  0  0
  190.8070  176.5770  142.8470 C   0  0  0  0  0  0  0  0  0  0  0  0
  192.0030  177.0260  142.2650 O   0  0  0  0  0  0  0  0  0  0  0  0
  185.6020  179.2040  146.0730 C   0  0  0  0  0  2  0  0  0  0  0  0
  186.3990  178.1410  146.9560 C   0  0  0  0  0  2  0  0  0  0  0  0
  191.9490  175.5550  146.7930 C   0  0  0  0  0  1  0  0  0  0  0  0
  188.7370  177.9020  148.9010 O   0  0  0  0  0  0  0  0  0  0  0  0
  187.8300  178.5100  146.8110 N   0  0  0  0  0  2  0  0  0  0  0  0
  191.2070  176.7490  147.5400 C   0  0  0  0  0  0  0  0  0  0  0  0
  189.8370  176.8730  147.0940 N   0  0  0  0  0  2  0  0  0  0  0  0
  188.8600  177.8330  147.6470 C   0  0  0  0  0  0  0  0  0  0  0  0
  191.6410  177.6840  148.3280 O   0  0  0  0  0  0  0  0  0  0  0  0
  1  2  1  0  0  0  0
  2 29  1  0  0  0  0
  3  2  2  0  0  0  0
  5  4  1  0  0  0  0
  5  6  1  0  0  0  0
  6 17  1  0  0  0  0
  7 13  2  0  0  0  0
  7  9  1  0  0  0  0
  8 10  1  0  0  0  0
  8 15  2  0  0  0  0
  9  4  2  0  0  0  0
 10 18  1  6  0  0  0
 10 14  1  0  0  0  0
 11  7  1  0  0  0  0
 12 15  1  1  0  0  0
 12 14  1  0  0  0  0
 12 13  1  0  0  0  0
 13 16  1  0  0  0  0
 15 11  1  0  0  0  0
 16  5  2  0  0  0  0
 17  1  1  0  0  0  0
 18 19  1  0  0  0  0
 20 19  1  0  0  0  0
 21  1  1  0  0  0  0
 21 22  1  0  0  0  0
 23 22  2  0  0  0  0
 23 24  1  0  0  0  0
 24 25  1  6  0  0  0
 26 27  1  0  0  0  0
 27 24  1  0  0  0  0
 28 27  2  0  0  0  0
 29 30  1  0  0  0  0
 31 34  1  0  0  0  0
 33 30  1  0  0  0  0
 33 36  1  0  0  0  0
 34 37  2  0  0  0  0
 35 34  1  0  0  0  0
 35 36  1  0  0  0  0
 36 32  2  0  0  0  0
M  END
>  <MODEL>
4

>  <REMARK>
 VINA RESULT:      -7.5      3.962      7.082
  Name = 
  11 active torsions:
  status: ('A' for Active; 'I' for Inactive)
    1  A    between atoms: C_4  and  N_7
    2  A    between atoms: C_4  and  C_30
    3  A    between atoms: N_7  and  C_37
    4  A    between atoms: C_8  and  C_18
    5  A    between atoms: N_9  and  C_17
    6  A    between atoms: C_11  and  C_16
    7  A    between atoms: C_11  and  C_19
    8  A    between atoms: C_14  and  C_30
    9  A    between atoms: C_14  and  C_32
   10  A    between atoms: C_17  and  C_18
   11  A    between atoms: C_27  and  C_32
                            x       y       z     vdW  Elec       q    Type
                         _______ _______ _______ _____ _____    ______ ____

>  <TORSDO>
F 11

$$$$
=
 OpenBabel10222419563D

 37 39  0  0  1  0  0  0  0  0999 V2000
  190.2900  175.8210  136.1100 N   0  0  0  0  0  0  0  0  0  0  0  0
  191.1690  174.7750  135.5820 C   0  0  0  0  0  0  0  0  0  0  0  0
  190.6510  173.7230  135.0230 O   0  0  0  0  0  0  0  0  0  0  0  0
  191.9690  177.0120  139.3680 C   0  0  0  0  0  3  0  0  0  0  0  0
  190.7200  176.3880  139.3720 C   0  0  0  0  0  0  0  0  0  0  0  0
  190.2170  175.9200  138.3110 C   0  0  0  0  0  2  0  0  0  0  0  0
  191.6740  177.4890  141.6640 C   0  0  0  0  0  0  0  0  0  0  0  0
  190.4870  177.9840  144.8230 N   0  0  0  0  0  0  0  0  0  0  0  0
  192.4900  177.5330  140.5380 C   0  0  0  0  0  3  0  0  0  0  0  0
  188.9450  177.8650  144.9170 C   0  0  1  0  0  3  0  0  0  0  0  0
  191.9880  177.9410  142.8780 N   0  0  0  0  0  2  0  0  0  0  0  0
  189.7080  177.0320  142.8320 C   0  0  2  0  0  3  0  0  0  0  0  0
  190.4160  177.0130  141.6240 C   0  0  0  0  0  0  0  0  0  0  0  0
  187.9730  177.3840  143.2120 S   0  0  0  0  0  0  0  0  0  0  0  0
  190.7470  177.7580  143.5680 C   0  0  0  0  0  0  0  0  0  0  0  0
  190.0060  176.3750  140.4930 N   0  0  0  0  0  0  0  0  0  0  0  0
  189.4990  175.6440  137.2770 C   0  0  0  0  0  2  0  0  0  0  0  0
  188.2650  177.2420  146.3200 C   0  0  0  0  0  2  0  0  0  0  0  0
  189.0260  177.8950  147.5140 C   0  0  0  0  0  2  0  0  0  0  0  0
  188.1430  177.8430  148.7360 C   0  0  0  0  0  1  0  0  0  0  0  0
  189.5460  176.5530  135.1990 C   0  0  0  0  0  2  0  0  0  0  0  0
  188.1320  176.0260  135.5070 C   0  0  0  0  0  2  0  0  0  0  0  0
  187.0290  177.0350  135.6990 C   0  0  0  0  0  2  0  0  0  0  0  0
  186.2720  177.0250  137.0550 C   0  0  2  0  0  3  0  0  0  0  0  0
  184.6970  177.1070  136.7050 C   0  0  0  0  0  1  0  0  0  0  0  0
  187.4790  179.2620  136.8500 O   0  0  0  0  0  0  0  0  0  0  0  0
  186.9380  178.3490  137.6050 C   0  0  0  0  0  0  0  0  0  0  0  0
  187.3650  178.2960  138.9410 O   0  0  0  0  0  1  0  0  0  0  0  0
  192.6520  174.6580  135.9490 C   0  0  0  0  0  2  0  0  0  0  0  0
  192.7570  173.9430  137.3710 C   0  0  0  0  0  2  0  0  0  0  0  0
  197.6090  175.2530  140.8730 C   0  0  0  0  0  1  0  0  0  0  0  0
  195.2860  175.6160  137.0330 O   0  0  0  0  0  0  0  0  0  0  0  0
  194.1900  173.5850  137.5200 N   0  0  0  0  0  2  0  0  0  0  0  0
  197.2390  175.1600  139.3270 C   0  0  0  0  0  0  0  0  0  0  0  0
  195.8650  174.7500  139.1420 N   0  0  0  0  0  2  0  0  0  0  0  0
  195.1920  174.6440  137.8320 C   0  0  0  0  0  0  0  0  0  0  0  0
  197.9650  175.2370  138.2540 O   0  0  0  0  0  0  0  0  0  0  0  0
  1 17  1  0  0  0  0
  2 29  1  0  0  0  0
  2  1  1  0  0  0  0
  3  2  2  0  0  0  0
  4  5  2  0  0  0  0
  4  9  1  0  0  0  0
  5 16  1  0  0  0  0
  6  5  1  0  0  0  0
  7 11  1  0  0  0  0
  8 10  1  0  0  0  0
  9  7  2  0  0  0  0
 10 18  1  1  0  0  0
 11 15  1  0  0  0  0
 12 13  1  6  0  0  0
 12 14  1  0  0  0  0
 12 15  1  0  0  0  0
 13  7  1  0  0  0  0
 14 10  1  0  0  0  0
 15  8  2  0  0  0  0
 16 13  2  0  0  0  0
 17  6  1  0  0  0  0
 18 19  1  0  0  0  0
 19 20  1  0  0  0  0
 21 22  1  0  0  0  0
 21  1  1  0  0  0  0
 22 23  1  0  0  0  0
 23 24  1  0  0  0  0
 24 25  1  6  0  0  0
 24 27  1  0  0  0  0
 26 27  2  0  0  0  0
 27 28  1  0  0  0  0
 29 30  1  0  0  0  0
 30 33  1  0  0  0  0
 32 36  2  0  0  0  0
 33 36  1  0  0  0  0
 34 31  1  0  0  0  0
 35 34  1  0  0  0  0
 36 35  1  0  0  0  0
 37 34  2  0  0  0  0
M  END
>  <MODEL>
5

>  <REMARK>
 VINA RESULT:      -7.4      4.746      9.171
  Name = 
  11 active torsions:
  status: ('A' for Active; 'I' for Inactive)
    1  A    between atoms: C_4  and  N_7
    2  A    between atoms: C_4  and  C_30
    3  A    between atoms: N_7  and  C_37
    4  A    between atoms: C_8  and  C_18
    5  A    between atoms: N_9  and  C_17
    6  A    between atoms: C_11  and  C_16
    7  A    between atoms: C_11  and  C_19
    8  A    between atoms: C_14  and  C_30
    9  A    between atoms: C_14  and  C_32
   10  A    between atoms: C_17  and  C_18
   11  A    between atoms: C_27  and  C_32
                            x       y       z     vdW  Elec       q    Type
                         _______ _______ _______ _____ _____    ______ ____

>  <TORSDO>
F 11

$$$$
=
 OpenBabel10222419563D

 37 39  0  0  1  0  0  0  0  0999 V2000
  188.9660  176.9950  137.0640 N   0  0  0  0  0  0  0  0  0  0  0  0
  189.2110  175.9700  136.0470 C   0  0  0  0  0  0  0  0  0  0  0  0
  188.2110  175.4730  135.3830 O   0  0  0  0  0  0  0  0  0  0  0  0
  191.2740  177.3410  140.1310 C   0  0  0  0  0  3  0  0  0  0  0  0
  189.9570  176.8940  140.2510 C   0  0  0  0  0  0  0  0  0  0  0  0
  189.2350  176.6970  139.2310 C   0  0  0  0  0  2  0  0  0  0  0  0
  191.4010  177.4220  142.4890 C   0  0  0  0  0  0  0  0  0  0  0  0
  190.7860  177.4790  145.8440 N   0  0  0  0  0  0  0  0  0  0  0  0
  192.0380  177.5670  141.2610 C   0  0  0  0  0  3  0  0  0  0  0  0
  189.2760  177.5450  146.1830 C   0  0  1  0  0  3  0  0  0  0  0  0
  191.9580  177.5990  143.6880 N   0  0  0  0  0  2  0  0  0  0  0  0
  189.5810  177.0170  143.8920 C   0  0  2  0  0  3  0  0  0  0  0  0
  190.0920  177.1280  142.5920 C   0  0  0  0  0  0  0  0  0  0  0  0
  187.9990  177.5150  144.6170 S   0  0  0  0  0  0  0  0  0  0  0  0
  190.8190  177.4550  144.5430 C   0  0  0  0  0  0  0  0  0  0  0  0
  189.4230  176.7680  141.4620 N   0  0  0  0  0  0  0  0  0  0  0  0
  188.3380  176.7110  138.3070 C   0  0  0  0  0  2  0  0  0  0  0  0
  188.7210  176.7680  147.5640 C   0  0  0  0  0  2  0  0  0  0  0  0
  188.2710  177.8830  148.5550 C   0  0  0  0  0  2  0  0  0  0  0  0
  187.1100  178.6300  147.9470 C   0  0  0  0  0  1  0  0  0  0  0  0
  188.5130  178.2310  136.6320 C   0  0  0  0  0  2  0  0  0  0  0  0
  186.9910  177.9960  136.6600 C   0  0  0  0  0  2  0  0  0  0  0  0
  186.1760  178.7700  137.6640 C   0  0  0  0  0  2  0  0  0  0  0  0
  184.9880  178.0370  138.3460 C   0  0  2  0  0  3  0  0  0  0  0  0
  184.0700  177.4410  137.1570 C   0  0  0  0  0  1  0  0  0  0  0  0
  184.8720  179.7450  140.2360 O   0  0  0  0  0  1  0  0  0  0  0  0
  184.4310  179.3170  139.0870 C   0  0  0  0  0  0  0  0  0  0  0  0
  183.1330  179.7050  138.7220 O   0  0  0  0  0  0  0  0  0  0  0  0
  190.5210  175.1820  135.9460 C   0  0  0  0  0  2  0  0  0  0  0  0
  191.6560  176.0060  136.7060 C   0  0  0  0  0  2  0  0  0  0  0  0
  196.7140  175.1290  140.0480 C   0  0  0  0  0  1  0  0  0  0  0  0
  194.0530  174.1240  136.5580 O   0  0  0  0  0  0  0  0  0  0  0  0
  192.2180  175.0630  137.7050 N   0  0  0  0  0  2  0  0  0  0  0  0
  195.7670  174.3030  139.0710 C   0  0  0  0  0  0  0  0  0  0  0  0
  194.6630  175.1120  138.6040 N   0  0  0  0  0  2  0  0  0  0  0  0
  193.6520  174.6630  137.6260 C   0  0  0  0  0  0  0  0  0  0  0  0
  195.7300  173.0440  138.7560 O   0  0  0  0  0  0  0  0  0  0  0  0
  1 17  1  0  0  0  0
  2  1  1  0  0  0  0
  3  2  2  0  0  0  0
  4  5  2  0  0  0  0
  4  9  1  0  0  0  0
  5 16  1  0  0  0  0
  6  5  1  0  0  0  0
  7 13  1  0  0  0  0
  7 11  1  0  0  0  0
  8 10  1  0  0  0  0
  9  7  2  0  0  0  0
 10 18  1  1  0  0  0
 11 15  1  0  0  0  0
 12 13  1  6  0  0  0
 12 15  1  0  0  0  0
 12 14  1  0  0  0  0
 14 10  1  0  0  0  0
 15  8  2  0  0  0  0
 16 13  2  0  0  0  0
 17  6  1  0  0  0  0
 18 19  1  0  0  0  0
 20 19  1  0  0  0  0
 21 22  1  0  0  0  0
 21  1  1  0  0  0  0
 22 23  1  0  0  0  0
 23 24  1  0  0  0  0
 24 25  1  6  0  0  0
 24 27  1  0  0  0  0
 27 26  1  0  0  0  0
 28 27  2  0  0  0  0
 29  2  1  0  0  0  0
 29 30  1  0  0  0  0
 30 33  1  0  0  0  0
 32 36  2  0  0  0  0
 34 31  1  0  0  0  0
 35 34  1  0  0  0  0
 36 33  1  0  0  0  0
 36 35  1  0  0  0  0
 37 34  2  0  0  0  0
M  END
>  <MODEL>
6

>  <REMARK>
 VINA RESULT:      -7.4      4.131      8.441
  Name = 
  11 active torsions:
  status: ('A' for Active; 'I' for Inactive)
    1  A    between atoms: C_4  and  N_7
    2  A    between atoms: C_4  and  C_30
    3  A    between atoms: N_7  and  C_37
    4  A    between atoms: C_8  and  C_18
    5  A    between atoms: N_9  and  C_17
    6  A    between atoms: C_11  and  C_16
    7  A    between atoms: C_11  and  C_19
    8  A    between atoms: C_14  and  C_30
    9  A    between atoms: C_14  and  C_32
   10  A    between atoms: C_17  and  C_18
   11  A    between atoms: C_27  and  C_32
                            x       y       z     vdW  Elec       q    Type
                         _______ _______ _______ _____ _____    ______ ____

>  <TORSDO>
F 11

$$$$
=
 OpenBabel10222419563D

 37 39  0  0  1  0  0  0  0  0999 V2000
  184.6860  177.9180  138.5110 N   0  0  0  0  0  0  0  0  0  0  0  0
  184.7210  179.0040  139.4920 C   0  0  0  0  0  0  0  0  0  0  0  0
  184.5360  180.2300  139.1010 O   0  0  0  0  0  0  0  0  0  0  0  0
  188.2480  177.8000  139.9760 C   0  0  0  0  0  3  0  0  0  0  0  0
  188.0190  177.7310  138.6020 C   0  0  0  0  0  0  0  0  0  0  0  0
  186.8550  177.8600  138.1230 C   0  0  0  0  0  2  0  0  0  0  0  0
  190.5220  177.3070  139.5630 C   0  0  0  0  0  0  0  0  0  0  0  0
  193.5300  176.3860  138.2430 N   0  0  0  0  0  0  0  0  0  0  0  0
  189.5270  177.6360  140.4770 C   0  0  0  0  0  3  0  0  0  0  0  0
  193.4040  175.7370  136.8420 C   0  0  1  0  0  3  0  0  0  0  0  0
  191.8100  177.1040  139.8440 N   0  0  0  0  0  2  0  0  0  0  0  0
  191.3620  176.7750  137.4520 C   0  0  2  0  0  3  0  0  0  0  0  0
  190.2640  177.1040  138.2580 C   0  0  0  0  0  0  0  0  0  0  0  0
  191.5430  175.6290  136.0630 S   0  0  0  0  0  0  0  0  0  0  0  0
  192.3040  176.6750  138.5710 C   0  0  0  0  0  0  0  0  0  0  0  0
  189.0260  177.4240  137.7900 N   0  0  0  0  0  0  0  0  0  0  0  0
  185.7110  177.7180  137.5470 C   0  0  0  0  0  2  0  0  0  0  0  0
  194.6280  175.9880  135.7200 C   0  0  0  0  0  2  0  0  0  0  0  0
  195.4940  174.6920  135.7060 C   0  0  0  0  0  2  0  0  0  0  0  0
  194.6870  173.5640  136.2980 C   0  0  0  0  0  1  0  0  0  0  0  0
  183.4720  177.6430  137.9030 C   0  0  0  0  0  2  0  0  0  0  0  0
  183.1540  176.2700  138.5250 C   0  0  0  0  0  2  0  0  0  0  0  0
  182.3490  176.2420  139.7990 C   0  0  0  0  0  2  0  0  0  0  0  0
  180.9550  175.5580  139.7530 C   0  0  2  0  0  3  0  0  0  0  0  0
  180.6500  175.2330  138.2000 C   0  0  0  0  0  1  0  0  0  0  0  0
  179.2730  176.6670  141.3170 O   0  0  0  0  0  1  0  0  0  0  0  0
  180.1720  176.7790  140.3810 C   0  0  0  0  0  0  0  0  0  0  0  0
  180.1110  177.9290  139.5780 O   0  0  0  0  0  0  0  0  0  0  0  0
  185.3060  178.8480  140.9000 C   0  0  0  0  0  2  0  0  0  0  0  0
  184.1140  178.9840  141.9510 C   0  0  0  0  0  2  0  0  0  0  0  0
  187.5290  177.5460  146.8280 C   0  0  0  0  0  1  0  0  0  0  0  0
  183.5790  178.5710  144.9260 O   0  0  0  0  0  0  0  0  0  0  0  0
  184.7230  179.6170  143.1480 N   0  0  0  0  0  2  0  0  0  0  0  0
  186.1760  178.3170  146.5010 C   0  0  0  0  0  0  0  0  0  0  0  0
  185.9150  178.3350  145.0790 N   0  0  0  0  0  2  0  0  0  0  0  0
  184.7020  178.9040  144.4570 C   0  0  0  0  0  0  0  0  0  0  0  0
  185.3820  179.0300  147.2390 O   0  0  0  0  0  0  0  0  0  0  0  0
  1  2  1  0  0  0  0
  2 29  1  0  0  0  0
  3  2  2  0  0  0  0
  4  9  1  0  0  0  0
  5  4  2  0  0  0  0
  6  5  1  0  0  0  0
  7 11  1  0  0  0  0
  7  9  2  0  0  0  0
  8 15  2  0  0  0  0
 10 18  1  6  0  0  0
 10  8  1  0  0  0  0
 12 14  1  1  0  0  0
 12 13  1  0  0  0  0
 12 15  1  0  0  0  0
 13  7  1  0  0  0  0
 14 10  1  0  0  0  0
 15 11  1  0  0  0  0
 16 13  2  0  0  0  0
 16  5  1  0  0  0  0
 17  6  1  0  0  0  0
 17  1  1  0  0  0  0
 19 18  1  0  0  0  0
 19 20  1  0  0  0  0
 21  1  1  0  0  0  0
 21 22  1  0  0  0  0
 22 23  1  0  0  0  0
 24 25  1  6  0  0  0
 24 23  1  0  0  0  0
 24 27  1  0  0  0  0
 27 26  1  0  0  0  0
 28 27  2  0  0  0  0
 29 30  1  0  0  0  0
 30 33  1  0  0  0  0
 33 36  1  0  0  0  0
 34 31  1  0  0  0  0
 34 37  2  0  0  0  0
 35 34  1  0  0  0  0
 36 32  2  0  0  0  0
 36 35  1  0  0  0  0
M  END
>  <MODEL>
7

>  <REMARK>
 VINA RESULT:      -7.3      3.073      4.995
  Name = 
  11 active torsions:
  status: ('A' for Active; 'I' for Inactive)
    1  A    between atoms: C_4  and  N_7
    2  A    between atoms: C_4  and  C_30
    3  A    between atoms: N_7  and  C_37
    4  A    between atoms: C_8  and  C_18
    5  A    between atoms: N_9  and  C_17
    6  A    between atoms: C_11  and  C_16
    7  A    between atoms: C_11  and  C_19
    8  A    between atoms: C_14  and  C_30
    9  A    between atoms: C_14  and  C_32
   10  A    between atoms: C_17  and  C_18
   11  A    between atoms: C_27  and  C_32
                            x       y       z     vdW  Elec       q    Type
                         _______ _______ _______ _____ _____    ______ ____

>  <TORSDO>
F 11

$$$$
=
 OpenBabel10222419563D

 37 39  0  0  1  0  0  0  0  0999 V2000
  181.1940  179.3870  139.6140 N   0  0  0  0  0  0  0  0  0  0  0  0
  180.8660  178.4530  138.5340 C   0  0  0  0  0  0  0  0  0  0  0  0
  179.7160  177.8490  138.5350 O   0  0  0  0  0  0  0  0  0  0  0  0
  184.9220  178.7360  140.3400 C   0  0  0  0  0  3  0  0  0  0  0  0
  183.9350  178.4890  141.2960 C   0  0  0  0  0  0  0  0  0  0  0  0
  182.7080  178.6200  141.0200 C   0  0  0  0  0  2  0  0  0  0  0  0
  186.5520  178.3190  142.0000 C   0  0  0  0  0  0  0  0  0  0  0  0
  188.2800  177.7960  144.8930 N   0  0  0  0  0  0  0  0  0  0  0  0
  186.2580  178.6040  140.6700 C   0  0  0  0  0  3  0  0  0  0  0  0
  187.4250  178.0320  146.1630 C   0  0  1  0  0  3  0  0  0  0  0  0
  187.7700  178.1590  142.5180 N   0  0  0  0  0  2  0  0  0  0  0  0
  186.0370  177.9350  144.2430 C   0  0  2  0  0  3  0  0  0  0  0  0
  185.5980  178.2220  142.9440 C   0  0  0  0  0  0  0  0  0  0  0  0
  185.4870  178.5220  145.8640 S   0  0  0  0  0  0  0  0  0  0  0  0
  187.4610  178.0290  143.9090 C   0  0  0  0  0  0  0  0  0  0  0  0
  184.2960  178.2090  142.5440 N   0  0  0  0  0  0  0  0  0  0  0  0
  181.4680  178.9620  140.9420 C   0  0  0  0  0  2  0  0  0  0  0  0
  187.7160  177.0910  147.5230 C   0  0  0  0  0  2  0  0  0  0  0  0
  188.1580  178.0660  148.6550 C   0  0  0  0  0  2  0  0  0  0  0  0
  189.6540  178.2450  148.5830 C   0  0  0  0  0  1  0  0  0  0  0  0
  180.4660  180.5640  139.6860 C   0  0  0  0  0  2  0  0  0  0  0  0
  180.8370  181.2030  138.3340 C   0  0  0  0  0  2  0  0  0  0  0  0
  180.5400  182.6680  138.1400 C   0  0  0  0  0  2  0  0  0  0  0  0
  180.1420  183.1400  136.7150 C   0  0  2  0  0  3  0  0  0  0  0  0
  180.5730  181.9580  135.7000 C   0  0  0  0  0  1  0  0  0  0  0  0
  182.1730  184.5240  137.3940 O   0  0  0  0  0  1  0  0  0  0  0  0
  181.0610  184.4250  136.7230 C   0  0  0  0  0  0  0  0  0  0  0  0
  180.4180  185.6260  136.3840 O   0  0  0  0  0  0  0  0  0  0  0  0
  181.9150  177.8650  137.5840 C   0  0  0  0  0  2  0  0  0  0  0  0
  182.0230  176.3000  137.8720 C   0  0  0  0  0  2  0  0  0  0  0  0
  187.6530  178.4920  136.8620 C   0  0  0  0  0  1  0  0  0  0  0  0
  184.4650  175.3630  136.3010 O   0  0  0  0  0  0  0  0  0  0  0  0
  183.4290  176.0800  138.2950 N   0  0  0  0  0  2  0  0  0  0  0  0
  186.9050  177.0870  136.8990 C   0  0  0  0  0  0  0  0  0  0  0  0
  185.5100  177.2470  137.2460 N   0  0  0  0  0  2  0  0  0  0  0  0
  184.5270  176.1460  137.2890 C   0  0  0  0  0  0  0  0  0  0  0  0
  187.3420  175.8680  136.8260 O   0  0  0  0  0  0  0  0  0  0  0  0
  1 21  1  0  0  0  0
  1 17  1  0  0  0  0
  2  3  2  0  0  0  0
  2  1  1  0  0  0  0
  4  9  2  0  0  0  0
  4  5  1  0  0  0  0
  5 16  2  0  0  0  0
  6  5  1  0  0  0  0
  7 11  1  0  0  0  0
  7 13  2  0  0  0  0
  8 10  1  0  0  0  0
  9  7  1  0  0  0  0
 10 18  1  1  0  0  0
 11 15  1  0  0  0  0
 12 13  1  6  0  0  0
 12 14  1  0  0  0  0
 14 10  1  0  0  0  0
 15 12  1  0  0  0  0
 15  8  2  0  0  0  0
 16 13  1  0  0  0  0
 17  6  1  0  0  0  0
 18 19  1  0  0  0  0
 20 19  1  0  0  0  0
 22 21  1  0  0  0  0
 23 22  1  0  0  0  0
 24 25  1  6  0  0  0
 24 27  1  0  0  0  0
 24 23  1  0  0  0  0
 27 26  1  0  0  0  0
 28 27  2  0  0  0  0
 29 30  1  0  0  0  0
 29  2  1  0  0  0  0
 30 33  1  0  0  0  0
 31 34  1  0  0  0  0
 32 36  2  0  0  0  0
 34 35  1  0  0  0  0
 35 36  1  0  0  0  0
 36 33  1  0  0  0  0
 37 34  2  0  0  0  0
M  END
>  <MODEL>
8

>  <REMARK>
 VINA RESULT:      -7.3      4.382      8.328
  Name = 
  11 active torsions:
  status: ('A' for Active; 'I' for Inactive)
    1  A    between atoms: C_4  and  N_7
    2  A    between atoms: C_4  and  C_30
    3  A    between atoms: N_7  and  C_37
    4  A    between atoms: C_8  and  C_18
    5  A    between atoms: N_9  and  C_17
    6  A    between atoms: C_11  and  C_16
    7  A    between atoms: C_11  and  C_19
    8  A    between atoms: C_14  and  C_30
    9  A    between atoms: C_14  and  C_32
   10  A    between atoms: C_17  and  C_18
   11  A    between atoms: C_27  and  C_32
                            x       y       z     vdW  Elec       q    Type
                         _______ _______ _______ _____ _____    ______ ____

>  <TORSDO>
F 11

$$$$
=
 OpenBabel10222419563D

 37 39  0  0  1  0  0  0  0  0999 V2000
  181.9380  177.4700  139.8800 N   0  0  0  0  0  0  0  0  0  0  0  0
  181.3230  178.6430  139.2560 C   0  0  0  0  0  0  0  0  0  0  0  0
  181.6000  178.9320  138.0200 O   0  0  0  0  0  0  0  0  0  0  0  0
  182.7320  178.6190  143.4720 C   0  0  0  0  0  3  0  0  0  0  0  0
  183.7420  178.2610  142.5770 C   0  0  0  0  0  0  0  0  0  0  0  0
  183.4800  177.9720  141.3740 C   0  0  0  0  0  2  0  0  0  0  0  0
  184.3650  178.7370  145.1760 C   0  0  0  0  0  0  0  0  0  0  0  0
  187.1710  178.5100  147.1030 N   0  0  0  0  0  0  0  0  0  0  0  0
  183.0410  178.9130  144.7870 C   0  0  0  0  0  3  0  0  0  0  0  0
  188.2750  177.6300  146.4660 C   0  0  1  0  0  3  0  0  0  0  0  0
  184.8620  178.9590  146.3940 N   0  0  0  0  0  2  0  0  0  0  0  0
  186.5960  178.1260  144.8680 C   0  0  2  0  0  3  0  0  0  0  0  0
  185.3040  178.2560  144.3410 C   0  0  0  0  0  0  0  0  0  0  0  0
  187.8750  176.8670  144.6380 S   0  0  0  0  0  0  0  0  0  0  0  0
  186.2030  178.4850  146.2340 C   0  0  0  0  0  0  0  0  0  0  0  0
  184.9870  178.1270  143.0230 N   0  0  0  0  0  0  0  0  0  0  0  0
  183.3170  177.4160  140.2230 C   0  0  0  0  0  2  0  0  0  0  0  0
  189.8840  178.0320  146.7300 C   0  0  0  0  0  2  0  0  0  0  0  0
  190.6060  176.7220  147.1690 C   0  0  0  0  0  2  0  0  0  0  0  0
  191.6850  176.4050  146.1640 C   0  0  0  0  0  1  0  0  0  0  0  0
  181.5690  176.2220  139.4040 C   0  0  0  0  0  2  0  0  0  0  0  0
  182.8940  175.7670  138.7620 C   0  0  0  0  0  2  0  0  0  0  0  0
  182.8390  175.1730  137.3780 C   0  0  0  0  0  2  0  0  0  0  0  0
  182.7650  173.6250  137.2620 C   0  0  2  0  0  3  0  0  0  0  0  0
  184.2850  173.0830  137.3390 C   0  0  0  0  0  1  0  0  0  0  0  0
  181.9580  174.6730  135.0810 O   0  0  0  0  0  0  0  0  0  0  0  0
  182.0900  173.6170  135.8330 C   0  0  0  0  0  0  0  0  0  0  0  0
  181.2060  172.5530  135.5920 O   0  0  0  0  0  1  0  0  0  0  0  0
  180.6420  179.7600  140.0530 C   0  0  0  0  0  2  0  0  0  0  0  0
  179.5120  180.4090  139.1330 C   0  0  0  0  0  2  0  0  0  0  0  0
  180.7490  185.0530  135.3340 C   0  0  0  0  0  1  0  0  0  0  0  0
  182.0080  182.0010  138.3950 O   0  0  0  0  0  0  0  0  0  0  0  0
  179.7810  181.8690  139.1600 N   0  0  0  0  0  2  0  0  0  0  0  0
  181.3200  184.4240  136.6800 C   0  0  0  0  0  0  0  0  0  0  0  0
  180.5240  183.2950  137.1090 N   0  0  0  0  0  2  0  0  0  0  0  0
  180.8340  182.4470  138.2780 C   0  0  0  0  0  0  0  0  0  0  0  0
  182.2400  184.8230  137.5030 O   0  0  0  0  0  0  0  0  0  0  0  0
  1 17  1  0  0  0  0
  2  1  1  0  0  0  0
  2 29  1  0  0  0  0
  3  2  2  0  0  0  0
  4  9  1  0  0  0  0
  5 16  1  0  0  0  0
  5  4  2  0  0  0  0
  6  5  1  0  0  0  0
  7 11  1  0  0  0  0
  9  7  2  0  0  0  0
 10 18  1  6  0  0  0
 10  8  1  0  0  0  0
 12 13  1  6  0  0  0
 12 15  1  0  0  0  0
 13  7  1  0  0  0  0
 14 12  1  0  0  0  0
 14 10  1  0  0  0  0
 15 11  1  0  0  0  0
 15  8  2  0  0  0  0
 16 13  2  0  0  0  0
 17  6  1  0  0  0  0
 18 19  1  0  0  0  0
 20 19  1  0  0  0  0
 21  1  1  0  0  0  0
 22 21  1  0  0  0  0
 23 22  1  0  0  0  0
 24 25  1  6  0  0  0
 24 23  1  0  0  0  0
 26 27  2  0  0  0  0
 27 24  1  0  0  0  0
 28 27  1  0  0  0  0
 30 33  1  0  0  0  0
 30 29  1  0  0  0  0
 31 34  1  0  0  0  0
 34 35  1  0  0  0  0
 34 37  2  0  0  0  0
 35 36  1  0  0  0  0
 36 32  2  0  0  0  0
 36 33  1  0  0  0  0
M  END
>  <MODEL>
9

>  <REMARK>
 VINA RESULT:      -7.2      5.134      9.389
  Name = 
  11 active torsions:
  status: ('A' for Active; 'I' for Inactive)
    1  A    between atoms: C_4  and  N_7
    2  A    between atoms: C_4  and  C_30
    3  A    between atoms: N_7  and  C_37
    4  A    between atoms: C_8  and  C_18
    5  A    between atoms: N_9  and  C_17
    6  A    between atoms: C_11  and  C_16
    7  A    between atoms: C_11  and  C_19
    8  A    between atoms: C_14  and  C_30
    9  A    between atoms: C_14  and  C_32
   10  A    between atoms: C_17  and  C_18
   11  A    between atoms: C_27  and  C_32
                            x       y       z     vdW  Elec       q    Type
                         _______ _______ _______ _____ _____    ______ ____

>  <TORSDO>
F 11

$$$$
