=
 OpenBabel10222418283D

 28 29  0  0  1  0  0  0  0  0999 V2000
  183.9140  178.3730  142.0150 C   0  0  0  0  0  3  0  0  0  0  0  0
  184.9700  178.4960  142.9310 C   0  0  0  0  0  0  0  0  0  0  0  0
  182.3250  178.9640  143.7400 C   0  0  0  0  0  3  0  0  0  0  0  0
  184.6950  178.8570  144.2610 C   0  0  0  0  0  0  0  0  0  0  0  0
  183.3700  179.0890  144.6580 C   0  0  0  0  0  3  0  0  0  0  0  0
  182.5950  178.6020  142.4180 C   0  0  0  0  0  0  0  0  0  0  0  0
  186.3210  178.2620  142.5230 N   0  0  0  0  0  2  0  0  0  0  0  0
  186.8590  178.7250  141.2510 C   0  0  0  0  0  2  0  0  0  0  0  0
  188.6460  177.1470  141.9030 C   0  0  0  0  0  1  0  0  0  0  0  0
  188.7960  178.3320  139.7410 C   0  0  0  0  0  1  0  0  0  0  0  0
  188.3480  178.4470  141.1850 C   0  0  0  0  0  3  0  0  0  0  0  0
  185.7650  178.9860  145.2000 N   0  0  0  0  0  2  0  0  0  0  0  0
  186.0870  177.9560  146.0960 N   0  0  0  0  0  2  0  0  0  0  0  0
  189.5920  176.8820  145.6920 N   0  0  0  0  0  0  0  0  0  0  0  0
  189.2670  177.4500  147.9880 C   0  0  0  0  0  3  0  0  0  0  0  0
  187.9360  177.7690  147.7130 C   0  0  0  0  0  3  0  0  0  0  0  0
  187.4430  177.6380  146.4100 C   0  0  0  0  0  0  0  0  0  0  0  0
  188.2980  177.1890  145.4030 C   0  0  0  0  0  3  0  0  0  0  0  0
  190.0950  177.0010  146.9520 C   0  0  0  0  0  0  0  0  0  0  0  0
  192.1020  177.1340  148.2130 O   0  0  0  0  0  1  0  0  0  0  0  0
  192.1780  175.8030  146.3530 O   0  0  0  0  0  0  0  0  0  0  0  0
  191.5000  176.6590  147.2130 C   0  0  0  0  0  0  0  0  0  0  0  0
  181.4830  178.4840  141.4320 C   0  0  0  0  0  2  0  0  0  0  0  0
  181.7640  179.3230  140.1930 C   0  0  1  0  0  3  0  0  0  0  0  0
  181.9550  178.4960  139.0840 O   0  0  0  0  0  1  0  0  0  0  0  0
  179.7280  180.5720  140.9930 N   0  0  0  0  0  1  0  0  0  0  0  0
  180.4580  180.7610  138.7970 O   0  0  0  0  0  0  0  0  0  0  0  0
  180.6310  180.2590  139.9400 C   0  0  0  0  0  0  0  0  0  0  0  0
  1  6  2  0  0  0  0
  1  2  1  0  0  0  0
  2  4  2  0  0  0  0
  3  5  2  0  0  0  0
  4  5  1  0  0  0  0
  4 12  1  0  0  0  0
  6  3  1  0  0  0  0
  7  2  1  0  0  0  0
  8  7  1  0  0  0  0
 10 11  1  0  0  0  0
 11  8  1  0  0  0  0
 11  9  1  0  0  0  0
 12 13  1  0  0  0  0
 13 17  1  0  0  0  0
 14 19  1  0  0  0  0
 16 15  1  0  0  0  0
 17 16  2  0  0  0  0
 18 14  2  0  0  0  0
 18 17  1  0  0  0  0
 19 22  1  0  0  0  0
 19 15  2  0  0  0  0
 21 22  2  0  0  0  0
 22 20  1  0  0  0  0
 23  6  1  0  0  0  0
 24 25  1  6  0  0  0
 24 23  1  0  0  0  0
 27 28  2  0  0  0  0
 28 24  1  0  0  0  0
 28 26  1  0  0  0  0
M  END
>  <MODEL>
1

>  <REMARK>
 VINA RESULT:      -7.5      0.000      0.000
  Name = 
  10 active torsions:
  status: ('A' for Active; 'I' for Inactive)
    1  A    between atoms: N_2  and  C_15
    2  A    between atoms: N_2  and  N_23
    3  A    between atoms: C_7  and  N_11
    4  A    between atoms: C_8  and  N_11
    5  A    between atoms: C_8  and  C_14
    6  A    between atoms: C_18  and  C_25
    7  A    between atoms: C_18  and  C_26
    8  A    between atoms: CA_19  and  C_22
    9  A    between atoms: N_23  and  C_24
   10  A    between atoms: C_26  and  C_28
                            x       y       z     vdW  Elec       q    Type
                         _______ _______ _______ _____ _____    ______ ____

>  <TORSDO>
F 10

$$$$
=
 OpenBabel10222418283D

 28 29  0  0  1  0  0  0  0  0999 V2000
  184.1870  178.6310  144.5560 C   0  0  0  0  0  3  0  0  0  0  0  0
  185.5120  178.4200  144.1450 C   0  0  0  0  0  0  0  0  0  0  0  0
  183.4520  178.6130  142.2510 C   0  0  0  0  0  3  0  0  0  0  0  0
  185.8040  178.3060  142.7750 C   0  0  0  0  0  0  0  0  0  0  0  0
  184.7690  178.4030  141.8340 C   0  0  0  0  0  3  0  0  0  0  0  0
  183.1600  178.7310  143.6120 C   0  0  0  0  0  0  0  0  0  0  0  0
  186.5670  178.3180  145.1080 N   0  0  0  0  0  2  0  0  0  0  0  0
  186.3300  178.0500  146.5190 C   0  0  0  0  0  2  0  0  0  0  0  0
  188.7130  177.5090  146.1480 C   0  0  0  0  0  1  0  0  0  0  0  0
  187.9780  178.3150  148.3630 C   0  0  0  0  0  1  0  0  0  0  0  0
  187.5850  177.4850  147.1580 C   0  0  0  0  0  3  0  0  0  0  0  0
  187.1510  178.0910  142.3490 N   0  0  0  0  0  2  0  0  0  0  0  0
  187.6300  178.6010  141.1340 N   0  0  0  0  0  2  0  0  0  0  0  0
  190.6780  176.7200  140.2520 N   0  0  0  0  0  0  0  0  0  0  0  0
  189.3980  177.0070  138.2570 C   0  0  0  0  0  3  0  0  0  0  0  0
  188.4310  177.6990  138.9860 C   0  0  0  0  0  3  0  0  0  0  0  0
  188.6020  177.8970  140.3610 C   0  0  0  0  0  0  0  0  0  0  0  0
  189.7450  177.3920  140.9800 C   0  0  0  0  0  3  0  0  0  0  0  0
  190.5340  176.5150  138.9130 C   0  0  0  0  0  0  0  0  0  0  0  0
  192.6210  176.3620  137.7950 O   0  0  0  0  0  0  0  0  0  0  0  0
  191.3890  174.4350  137.8790 O   0  0  0  0  0  1  0  0  0  0  0  0
  191.5680  175.7820  138.1710 C   0  0  0  0  0  0  0  0  0  0  0  0
  181.7530  178.9380  144.0610 C   0  0  0  0  0  2  0  0  0  0  0  0
  180.7710  178.5590  142.9600 C   0  0  1  0  0  3  0  0  0  0  0  0
  179.6950  177.8490  143.4970 O   0  0  0  0  0  1  0  0  0  0  0  0
  180.1200  179.7820  140.8560 N   0  0  0  0  0  1  0  0  0  0  0  0
  180.0150  180.8280  142.9260 O   0  0  0  0  0  0  0  0  0  0  0  0
  180.2780  179.7850  142.2690 C   0  0  0  0  0  0  0  0  0  0  0  0
  2  1  1  0  0  0  0
  2  7  1  0  0  0  0
  3  6  1  0  0  0  0
  4  2  2  0  0  0  0
  5  3  2  0  0  0  0
  5  4  1  0  0  0  0
  6 23  1  0  0  0  0
  6  1  2  0  0  0  0
  7  8  1  0  0  0  0
  8 11  1  0  0  0  0
  9 11  1  0  0  0  0
 11 10  1  0  0  0  0
 12  4  1  0  0  0  0
 13 12  1  0  0  0  0
 14 18  1  0  0  0  0
 15 19  1  0  0  0  0
 15 16  2  0  0  0  0
 16 17  1  0  0  0  0
 17 18  2  0  0  0  0
 17 13  1  0  0  0  0
 19 14  2  0  0  0  0
 20 22  2  0  0  0  0
 21 22  1  0  0  0  0
 22 19  1  0  0  0  0
 24 25  1  1  0  0  0
 24 23  1  0  0  0  0
 26 28  1  0  0  0  0
 28 27  2  0  0  0  0
 28 24  1  0  0  0  0
M  END
>  <MODEL>
2

>  <REMARK>
 VINA RESULT:      -7.4      3.180      5.638
  Name = 
  10 active torsions:
  status: ('A' for Active; 'I' for Inactive)
    1  A    between atoms: N_2  and  C_15
    2  A    between atoms: N_2  and  N_23
    3  A    between atoms: C_7  and  N_11
    4  A    between atoms: C_8  and  N_11
    5  A    between atoms: C_8  and  C_14
    6  A    between atoms: C_18  and  C_25
    7  A    between atoms: C_18  and  C_26
    8  A    between atoms: CA_19  and  C_22
    9  A    between atoms: N_23  and  C_24
   10  A    between atoms: C_26  and  C_28
                            x       y       z     vdW  Elec       q    Type
                         _______ _______ _______ _____ _____    ______ ____

>  <TORSDO>
F 10

$$$$
=
 OpenBabel10222418283D

 28 29  0  0  1  0  0  0  0  0999 V2000
  183.6070  178.5970  142.3610 C   0  0  0  0  0  3  0  0  0  0  0  0
  185.0060  178.7030  142.3750 C   0  0  0  0  0  0  0  0  0  0  0  0
  183.5850  178.9780  139.9720 C   0  0  0  0  0  3  0  0  0  0  0  0
  185.6950  178.9480  141.1750 C   0  0  0  0  0  0  0  0  0  0  0  0
  184.9780  179.0840  139.9780 C   0  0  0  0  0  3  0  0  0  0  0  0
  182.8980  178.7380  141.1650 C   0  0  0  0  0  0  0  0  0  0  0  0
  185.7370  178.5610  143.5980 N   0  0  0  0  0  2  0  0  0  0  0  0
  185.1920  178.9330  144.8960 C   0  0  0  0  0  2  0  0  0  0  0  0
  187.1420  177.5350  145.4920 C   0  0  0  0  0  1  0  0  0  0  0  0
  186.0570  178.9160  147.2280 C   0  0  0  0  0  1  0  0  0  0  0  0
  185.8180  178.0820  145.9850 C   0  0  0  0  0  3  0  0  0  0  0  0
  187.1210  179.0560  141.1810 N   0  0  0  0  0  2  0  0  0  0  0  0
  187.9450  177.9290  141.0550 N   0  0  0  0  0  2  0  0  0  0  0  0
  189.9630  175.8530  143.3400 N   0  0  0  0  0  0  0  0  0  0  0  0
  190.4580  178.1410  143.8090 C   0  0  0  0  0  3  0  0  0  0  0  0
  189.5630  178.5310  142.8130 C   0  0  0  0  0  3  0  0  0  0  0  0
  188.8680  177.5620  142.0810 C   0  0  0  0  0  0  0  0  0  0  0  0
  189.0870  176.2130  142.3640 C   0  0  0  0  0  3  0  0  0  0  0  0
  190.6510  176.7780  144.0660 C   0  0  0  0  0  0  0  0  0  0  0  0
  192.1770  175.2280  145.0160 O   0  0  0  0  0  0  0  0  0  0  0  0
  191.8320  177.1500  146.2100 O   0  0  0  0  0  1  0  0  0  0  0  0
  191.5880  176.3380  145.1090 C   0  0  0  0  0  0  0  0  0  0  0  0
  181.4130  178.6070  141.1590 C   0  0  0  0  0  2  0  0  0  0  0  0
  180.8100  179.1990  142.4260 C   0  0  1  0  0  3  0  0  0  0  0  0
  180.2050  180.4260  142.1440 O   0  0  0  0  0  1  0  0  0  0  0  0
  179.3710  178.4320  144.3460 N   0  0  0  0  0  1  0  0  0  0  0  0
  179.3570  177.3020  142.3180 O   0  0  0  0  0  0  0  0  0  0  0  0
  179.8070  178.2590  143.0040 C   0  0  0  0  0  0  0  0  0  0  0  0
  1  2  1  0  0  0  0
  2  7  1  0  0  0  0
  3  5  2  0  0  0  0
  3  6  1  0  0  0  0
  4 12  1  0  0  0  0
  4  2  2  0  0  0  0
  5  4  1  0  0  0  0
  6  1  2  0  0  0  0
  7  8  1  0  0  0  0
  8 11  1  0  0  0  0
  9 11  1  0  0  0  0
 11 10  1  0  0  0  0
 13 12  1  0  0  0  0
 13 17  1  0  0  0  0
 14 19  1  0  0  0  0
 15 19  2  0  0  0  0
 16 15  1  0  0  0  0
 17 18  1  0  0  0  0
 17 16  2  0  0  0  0
 18 14  2  0  0  0  0
 19 22  1  0  0  0  0
 20 22  2  0  0  0  0
 22 21  1  0  0  0  0
 23  6  1  0  0  0  0
 23 24  1  0  0  0  0
 24 25  1  6  0  0  0
 24 28  1  0  0  0  0
 27 28  2  0  0  0  0
 28 26  1  0  0  0  0
M  END
>  <MODEL>
3

>  <REMARK>
 VINA RESULT:      -7.3      2.084      3.864
  Name = 
  10 active torsions:
  status: ('A' for Active; 'I' for Inactive)
    1  A    between atoms: N_2  and  C_15
    2  A    between atoms: N_2  and  N_23
    3  A    between atoms: C_7  and  N_11
    4  A    between atoms: C_8  and  N_11
    5  A    between atoms: C_8  and  C_14
    6  A    between atoms: C_18  and  C_25
    7  A    between atoms: C_18  and  C_26
    8  A    between atoms: CA_19  and  C_22
    9  A    between atoms: N_23  and  C_24
   10  A    between atoms: C_26  and  C_28
                            x       y       z     vdW  Elec       q    Type
                         _______ _______ _______ _____ _____    ______ ____

>  <TORSDO>
F 10

$$$$
=
 OpenBabel10222418283D

 28 29  0  0  1  0  0  0  0  0999 V2000
  188.0240  176.7200  143.3660 C   0  0  0  0  0  3  0  0  0  0  0  0
  189.1520  176.5350  142.5520 C   0  0  0  0  0  0  0  0  0  0  0  0
  187.2090  178.4420  141.8770 C   0  0  0  0  0  3  0  0  0  0  0  0
  189.3030  177.3130  141.3910 C   0  0  0  0  0  0  0  0  0  0  0  0
  188.3280  178.2640  141.0600 C   0  0  0  0  0  3  0  0  0  0  0  0
  187.0570  177.6730  143.0330 C   0  0  0  0  0  0  0  0  0  0  0  0
  190.1440  175.5610  142.8900 N   0  0  0  0  0  2  0  0  0  0  0  0
  191.3520  175.8850  143.6360 C   0  0  0  0  0  2  0  0  0  0  0  0
  191.6490  176.6280  145.9740 C   0  0  0  0  0  1  0  0  0  0  0  0
  191.7010  178.2930  144.1510 C   0  0  0  0  0  1  0  0  0  0  0  0
  191.0690  176.9990  144.6250 C   0  0  0  0  0  3  0  0  0  0  0  0
  190.4490  177.1300  140.5550 N   0  0  0  0  0  0  0  0  0  0  0  0
  190.4220  176.2700  139.4480 N   0  0  0  0  0  0  0  0  0  0  0  0
  193.7360  176.7500  137.9010 N   0  0  0  0  0  0  0  0  0  0  0  0
  192.2800  175.8490  136.2360 C   0  0  0  0  0  3  0  0  0  0  0  0
  191.2410  175.8300  137.1670 C   0  0  0  0  0  3  0  0  0  0  0  0
  191.4650  176.2780  138.4730 C   0  0  0  0  0  0  0  0  0  0  0  0
  192.7350  176.7380  138.8220 C   0  0  0  0  0  3  0  0  0  0  0  0
  193.5410  176.3190  136.6230 C   0  0  0  0  0  0  0  0  0  0  0  0
  195.0000  175.3080  135.0470 O   0  0  0  0  0  0  0  0  0  0  0  0
  195.3370  177.5390  135.4310 O   0  0  0  0  0  1  0  0  0  0  0  0
  194.6550  176.3510  135.6640 C   0  0  0  0  0  0  0  0  0  0  0  0
  185.8550  177.8500  143.8970 C   0  0  0  0  0  2  0  0  0  0  0  0
  184.7690  178.6270  143.1640 C   0  0  1  0  0  3  0  0  0  0  0  0
  184.2850  177.8810  142.0870 O   0  0  0  0  0  1  0  0  0  0  0  0
  183.9110  179.0600  145.4930 N   0  0  0  0  0  1  0  0  0  0  0  0
  182.4810  179.1150  143.6650 O   0  0  0  0  0  0  0  0  0  0  0  0
  183.6530  178.9520  144.0990 C   0  0  0  0  0  0  0  0  0  0  0  0
  2  7  1  0  0  0  0
  2  1  2  0  0  0  0
  3  6  2  0  0  0  0
  4  2  1  0  0  0  0
  5  4  2  0  0  0  0
  5  3  1  0  0  0  0
  6  1  1  0  0  0  0
  6 23  1  0  0  0  0
  7  8  1  0  0  0  0
  8 11  1  0  0  0  0
 10 11  1  0  0  0  0
 11  9  1  0  0  0  0
 12  4  1  0  0  0  0
 13 12  2  0  0  0  0
 14 18  1  0  0  0  0
 15 19  1  0  0  0  0
 15 16  2  0  0  0  0
 16 17  1  0  0  0  0
 17 18  2  0  0  0  0
 17 13  1  0  0  0  0
 19 14  2  0  0  0  0
 20 22  2  0  0  0  0
 21 22  1  0  0  0  0
 22 19  1  0  0  0  0
 24 25  1  6  0  0  0
 24 23  1  0  0  0  0
 24 28  1  0  0  0  0
 27 28  2  0  0  0  0
 28 26  1  0  0  0  0
M  END
>  <MODEL>
4

>  <REMARK>
 VINA RESULT:      -7.2      4.873      7.655
  Name = 
  10 active torsions:
  status: ('A' for Active; 'I' for Inactive)
    1  A    between atoms: N_2  and  C_15
    2  A    between atoms: N_2  and  N_23
    3  A    between atoms: C_7  and  N_11
    4  A    between atoms: C_8  and  N_11
    5  A    between atoms: C_8  and  C_14
    6  A    between atoms: C_18  and  C_25
    7  A    between atoms: C_18  and  C_26
    8  A    between atoms: CA_19  and  C_22
    9  A    between atoms: N_23  and  C_24
   10  A    between atoms: C_26  and  C_28
                            x       y       z     vdW  Elec       q    Type
                         _______ _______ _______ _____ _____    ______ ____

>  <TORSDO>
F 10

$$$$
=
 OpenBabel10222418283D

 28 29  0  0  1  0  0  0  0  0999 V2000
  190.9490  176.6890  138.9570 C   0  0  0  0  0  3  0  0  0  0  0  0
  190.0930  177.4400  139.7780 C   0  0  0  0  0  0  0  0  0  0  0  0
  189.7310  177.4140  136.9970 C   0  0  0  0  0  3  0  0  0  0  0  0
  189.0500  178.1810  139.1980 C   0  0  0  0  0  0  0  0  0  0  0  0
  188.8750  178.1640  137.8070 C   0  0  0  0  0  3  0  0  0  0  0  0
  190.7660  176.6730  137.5710 C   0  0  0  0  0  0  0  0  0  0  0  0
  190.2760  177.4590  141.1970 N   0  0  0  0  0  2  0  0  0  0  0  0
  191.5850  177.3960  141.8310 C   0  0  0  0  0  2  0  0  0  0  0  0
  191.3230  177.6500  144.2750 C   0  0  0  0  0  1  0  0  0  0  0  0
  190.2970  175.7150  143.1350 C   0  0  0  0  0  1  0  0  0  0  0  0
  191.4890  176.6520  143.1490 C   0  0  0  0  0  3  0  0  0  0  0  0
  188.1750  178.9500  140.0280 N   0  0  0  0  0  2  0  0  0  0  0  0
  186.9060  178.4800  140.3940 N   0  0  0  0  0  2  0  0  0  0  0  0
  184.9800  179.4270  143.3940 N   0  0  0  0  0  0  0  0  0  0  0  0
  186.5840  177.7830  144.0490 C   0  0  0  0  0  3  0  0  0  0  0  0
  187.0440  177.7190  142.7330 C   0  0  0  0  0  3  0  0  0  0  0  0
  186.4580  178.5230  141.7490 C   0  0  0  0  0  0  0  0  0  0  0  0
  185.4140  179.3780  142.1060 C   0  0  0  0  0  3  0  0  0  0  0  0
  185.5350  178.6550  144.3700 C   0  0  0  0  0  0  0  0  0  0  0  0
  185.8120  178.6190  146.7260 O   0  0  0  0  0  1  0  0  0  0  0  0
  183.6770  178.9650  145.9770 O   0  0  0  0  0  0  0  0  0  0  0  0
  185.0300  178.7430  145.7460 C   0  0  0  0  0  0  0  0  0  0  0  0
  191.6910  175.8850  136.7070 C   0  0  0  0  0  2  0  0  0  0  0  0
  192.6270  175.0290  137.5510 C   0  0  1  0  0  3  0  0  0  0  0  0
  192.5840  173.7010  137.1230 O   0  0  0  0  0  1  0  0  0  0  0  0
  195.0590  174.9260  138.2030 N   0  0  0  0  0  1  0  0  0  0  0  0
  194.2850  176.5470  136.7310 O   0  0  0  0  0  0  0  0  0  0  0  0
  194.0220  175.5500  137.4550 C   0  0  0  0  0  0  0  0  0  0  0  0
  1  2  1  0  0  0  0
  2  7  1  0  0  0  0
  3  6  1  0  0  0  0
  3  5  2  0  0  0  0
  4  2  2  0  0  0  0
  4 12  1  0  0  0  0
  5  4  1  0  0  0  0
  6  1  2  0  0  0  0
  7  8  1  0  0  0  0
  8 11  1  0  0  0  0
 10 11  1  0  0  0  0
 11  9  1  0  0  0  0
 12 13  1  0  0  0  0
 13 17  1  0  0  0  0
 14 19  1  0  0  0  0
 15 19  2  0  0  0  0
 16 15  1  0  0  0  0
 17 18  1  0  0  0  0
 17 16  2  0  0  0  0
 18 14  2  0  0  0  0
 19 22  1  0  0  0  0
 22 21  2  0  0  0  0
 22 20  1  0  0  0  0
 23 24  1  0  0  0  0
 23  6  1  0  0  0  0
 24 25  1  6  0  0  0
 27 28  2  0  0  0  0
 28 24  1  0  0  0  0
 28 26  1  0  0  0  0
M  END
>  <MODEL>
5

>  <REMARK>
 VINA RESULT:      -7.2      4.571      8.502
  Name = 
  10 active torsions:
  status: ('A' for Active; 'I' for Inactive)
    1  A    between atoms: N_2  and  C_15
    2  A    between atoms: N_2  and  N_23
    3  A    between atoms: C_7  and  N_11
    4  A    between atoms: C_8  and  N_11
    5  A    between atoms: C_8  and  C_14
    6  A    between atoms: C_18  and  C_25
    7  A    between atoms: C_18  and  C_26
    8  A    between atoms: CA_19  and  C_22
    9  A    between atoms: N_23  and  C_24
   10  A    between atoms: C_26  and  C_28
                            x       y       z     vdW  Elec       q    Type
                         _______ _______ _______ _____ _____    ______ ____

>  <TORSDO>
F 10

$$$$
=
 OpenBabel10222418283D

 28 29  0  0  1  0  0  0  0  0999 V2000
  189.1740  176.9060  144.3770 C   0  0  0  0  0  3  0  0  0  0  0  0
  188.2930  177.1020  143.3020 C   0  0  0  0  0  0  0  0  0  0  0  0
  187.5460  177.8370  145.9040 C   0  0  0  0  0  3  0  0  0  0  0  0
  187.0290  177.6700  143.5370 C   0  0  0  0  0  0  0  0  0  0  0  0
  186.6630  178.0350  144.8410 C   0  0  0  0  0  3  0  0  0  0  0  0
  188.8050  177.2760  145.6730 C   0  0  0  0  0  0  0  0  0  0  0  0
  188.6670  176.7250  141.9740 N   0  0  0  0  0  2  0  0  0  0  0  0
  189.6760  177.4360  141.2010 C   0  0  0  0  0  2  0  0  0  0  0  0
  189.0170  178.4720  139.0560 C   0  0  0  0  0  1  0  0  0  0  0  0
  190.7590  176.7220  139.0790 C   0  0  0  0  0  1  0  0  0  0  0  0
  189.4660  177.1870  139.7190 C   0  0  0  0  0  3  0  0  0  0  0  0
  186.1240  177.8710  142.4480 N   0  0  0  0  0  2  0  0  0  0  0  0
  185.3340  179.0250  142.3510 N   0  0  0  0  0  2  0  0  0  0  0  0
  181.7320  178.7980  141.5870 N   0  0  0  0  0  0  0  0  0  0  0  0
  181.9610  179.0050  143.9550 C   0  0  0  0  0  3  0  0  0  0  0  0
  183.3480  179.0560  143.8090 C   0  0  0  0  0  3  0  0  0  0  0  0
  183.9180  178.9760  142.5340 C   0  0  0  0  0  0  0  0  0  0  0  0
  183.0820  178.8440  141.4250 C   0  0  0  0  0  3  0  0  0  0  0  0
  181.1530  178.8740  142.8180 C   0  0  0  0  0  0  0  0  0  0  0  0
  179.0410  177.8620  142.4390 O   0  0  0  0  0  0  0  0  0  0  0  0
  179.0110  179.8220  143.6210 O   0  0  0  0  0  1  0  0  0  0  0  0
  179.6910  178.8170  142.9420 C   0  0  0  0  0  0  0  0  0  0  0  0
  189.7430  177.0490  146.8090 C   0  0  0  0  0  2  0  0  0  0  0  0
  191.1490  176.7570  146.3030 C   0  0  1  0  0  3  0  0  0  0  0  0
  191.6620  177.8700  145.6330 O   0  0  0  0  0  1  0  0  0  0  0  0
  192.8040  175.1970  147.3880 N   0  0  0  0  0  1  0  0  0  0  0  0
  192.1060  177.1340  148.4630 O   0  0  0  0  0  0  0  0  0  0  0  0
  192.0390  176.3950  147.4440 C   0  0  0  0  0  0  0  0  0  0  0  0
  1  6  1  0  0  0  0
  2  4  1  0  0  0  0
  2  1  2  0  0  0  0
  4  5  2  0  0  0  0
  5  3  1  0  0  0  0
  6  3  2  0  0  0  0
  6 23  1  0  0  0  0
  7  2  1  0  0  0  0
  8  7  1  0  0  0  0
  9 11  1  0  0  0  0
 10 11  1  0  0  0  0
 11  8  1  0  0  0  0
 12  4  1  0  0  0  0
 13 12  1  0  0  0  0
 13 17  1  0  0  0  0
 14 19  1  0  0  0  0
 16 15  1  0  0  0  0
 17 16  2  0  0  0  0
 18 14  2  0  0  0  0
 18 17  1  0  0  0  0
 19 22  1  0  0  0  0
 19 15  2  0  0  0  0
 20 22  2  0  0  0  0
 22 21  1  0  0  0  0
 24 25  1  1  0  0  0
 24 23  1  0  0  0  0
 24 28  1  0  0  0  0
 26 28  1  0  0  0  0
 28 27  2  0  0  0  0
M  END
>  <MODEL>
6

>  <REMARK>
 VINA RESULT:      -7.1      2.179      8.866
  Name = 
  10 active torsions:
  status: ('A' for Active; 'I' for Inactive)
    1  A    between atoms: N_2  and  C_15
    2  A    between atoms: N_2  and  N_23
    3  A    between atoms: C_7  and  N_11
    4  A    between atoms: C_8  and  N_11
    5  A    between atoms: C_8  and  C_14
    6  A    between atoms: C_18  and  C_25
    7  A    between atoms: C_18  and  C_26
    8  A    between atoms: CA_19  and  C_22
    9  A    between atoms: N_23  and  C_24
   10  A    between atoms: C_26  and  C_28
                            x       y       z     vdW  Elec       q    Type
                         _______ _______ _______ _____ _____    ______ ____

>  <TORSDO>
F 10

$$$$
=
 OpenBabel10222418283D

 28 29  0  0  1  0  0  0  0  0999 V2000
  187.9850  177.5780  143.8730 C   0  0  0  0  0  3  0  0  0  0  0  0
  188.5300  177.8760  142.6150 C   0  0  0  0  0  0  0  0  0  0  0  0
  185.7890  178.2250  143.0950 C   0  0  0  0  0  3  0  0  0  0  0  0
  187.6920  178.3520  141.5920 C   0  0  0  0  0  0  0  0  0  0  0  0
  186.3220  178.5240  141.8400 C   0  0  0  0  0  3  0  0  0  0  0  0
  186.6200  177.7550  144.1150 C   0  0  0  0  0  0  0  0  0  0  0  0
  189.9270  177.6970  142.3630 N   0  0  0  0  0  2  0  0  0  0  0  0
  190.7430  176.7190  143.0700 C   0  0  0  0  0  2  0  0  0  0  0  0
  191.4860  178.9200  143.9140 C   0  0  0  0  0  1  0  0  0  0  0  0
  191.3590  177.0020  145.4630 C   0  0  0  0  0  1  0  0  0  0  0  0
  191.6720  177.4230  144.0410 C   0  0  0  0  0  3  0  0  0  0  0  0
  188.2390  178.6570  140.3070 N   0  0  0  0  0  2  0  0  0  0  0  0
  188.2380  177.7190  139.2650 N   0  0  0  0  0  2  0  0  0  0  0  0
  190.5110  175.3960  137.5190 N   0  0  0  0  0  0  0  0  0  0  0  0
  191.8380  176.7750  138.9480 C   0  0  0  0  0  3  0  0  0  0  0  0
  190.6840  177.4350  139.3700 C   0  0  0  0  0  3  0  0  0  0  0  0
  189.4380  177.0620  138.8530 C   0  0  0  0  0  0  0  0  0  0  0  0
  189.3740  176.0290  137.9180 C   0  0  0  0  0  3  0  0  0  0  0  0
  191.7350  175.7410  138.0080 C   0  0  0  0  0  0  0  0  0  0  0  0
  192.8590  173.8310  137.1610 O   0  0  0  0  0  0  0  0  0  0  0  0
  194.1630  175.6770  137.5270 O   0  0  0  0  0  1  0  0  0  0  0  0
  192.9330  175.0290  137.5450 C   0  0  0  0  0  0  0  0  0  0  0  0
  186.0500  177.4190  145.4510 C   0  0  0  0  0  2  0  0  0  0  0  0
  186.4530  178.4570  146.4900 C   0  0  1  0  0  3  0  0  0  0  0  0
  185.3320  178.8860  147.2040 O   0  0  0  0  0  1  0  0  0  0  0  0
  187.8340  178.6020  148.5920 N   0  0  0  0  0  1  0  0  0  0  0  0
  187.9980  176.7660  147.1810 O   0  0  0  0  0  0  0  0  0  0  0  0
  187.4610  177.8800  147.4260 C   0  0  0  0  0  0  0  0  0  0  0  0
  1  6  1  0  0  0  0
  2  1  2  0  0  0  0
  3  6  2  0  0  0  0
  4  5  2  0  0  0  0
  4  2  1  0  0  0  0
  5  3  1  0  0  0  0
  6 23  1  0  0  0  0
  7  2  1  0  0  0  0
  7  8  1  0  0  0  0
  8 11  1  0  0  0  0
  9 11  1  0  0  0  0
 11 10  1  0  0  0  0
 12  4  1  0  0  0  0
 13 12  1  0  0  0  0
 14 18  2  0  0  0  0
 14 19  1  0  0  0  0
 15 16  1  0  0  0  0
 17 13  1  0  0  0  0
 17 16  2  0  0  0  0
 18 17  1  0  0  0  0
 19 15  2  0  0  0  0
 20 22  2  0  0  0  0
 21 22  1  0  0  0  0
 22 19  1  0  0  0  0
 23 24  1  0  0  0  0
 24 25  1  1  0  0  0
 24 28  1  0  0  0  0
 27 28  2  0  0  0  0
 28 26  1  0  0  0  0
M  END
>  <MODEL>
7

>  <REMARK>
 VINA RESULT:      -7.1      4.145      7.570
  Name = 
  10 active torsions:
  status: ('A' for Active; 'I' for Inactive)
    1  A    between atoms: N_2  and  C_15
    2  A    between atoms: N_2  and  N_23
    3  A    between atoms: C_7  and  N_11
    4  A    between atoms: C_8  and  N_11
    5  A    between atoms: C_8  and  C_14
    6  A    between atoms: C_18  and  C_25
    7  A    between atoms: C_18  and  C_26
    8  A    between atoms: CA_19  and  C_22
    9  A    between atoms: N_23  and  C_24
   10  A    between atoms: C_26  and  C_28
                            x       y       z     vdW  Elec       q    Type
                         _______ _______ _______ _____ _____    ______ ____

>  <TORSDO>
F 10

$$$$
=
 OpenBabel10222418283D

 28 29  0  0  1  0  0  0  0  0999 V2000
  186.1170  178.2590  143.2600 C   0  0  0  0  0  3  0  0  0  0  0  0
  186.5710  178.6240  141.9830 C   0  0  0  0  0  0  0  0  0  0  0  0
  188.2030  177.1130  143.6920 C   0  0  0  0  0  3  0  0  0  0  0  0
  187.8520  178.2270  141.5630 C   0  0  0  0  0  0  0  0  0  0  0  0
  188.6620  177.4720  142.4230 C   0  0  0  0  0  3  0  0  0  0  0  0
  186.9280  177.5020  144.1100 C   0  0  0  0  0  0  0  0  0  0  0  0
  185.7430  179.3970  141.1080 N   0  0  0  0  0  2  0  0  0  0  0  0
  184.4140  178.9740  140.6920 C   0  0  0  0  0  2  0  0  0  0  0  0
  184.9820  178.4320  138.3480 C   0  0  0  0  0  1  0  0  0  0  0  0
  182.7080  179.2210  138.8990 C   0  0  0  0  0  1  0  0  0  0  0  0
  184.1780  179.3530  139.2420 C   0  0  0  0  0  3  0  0  0  0  0  0
  188.3220  178.5960  140.2640 N   0  0  0  0  0  2  0  0  0  0  0  0
  188.4130  177.6630  139.2210 N   0  0  0  0  0  2  0  0  0  0  0  0
  192.0050  176.8360  139.0960 N   0  0  0  0  0  0  0  0  0  0  0  0
  191.0660  176.3180  136.9630 C   0  0  0  0  0  3  0  0  0  0  0  0
  189.8180  176.7450  137.4170 C   0  0  0  0  0  3  0  0  0  0  0  0
  189.6770  177.2200  138.7260 C   0  0  0  0  0  0  0  0  0  0  0  0
  190.7970  177.2560  139.5580 C   0  0  0  0  0  3  0  0  0  0  0  0
  192.1680  176.3700  137.8260 C   0  0  0  0  0  0  0  0  0  0  0  0
  193.7600  175.8480  136.1460 O   0  0  0  0  0  0  0  0  0  0  0  0
  194.4680  175.5900  138.3070 O   0  0  0  0  0  1  0  0  0  0  0  0
  193.4940  175.9260  137.3750 C   0  0  0  0  0  0  0  0  0  0  0  0
  186.4430  177.1340  145.4710 C   0  0  0  0  0  2  0  0  0  0  0  0
  186.6370  178.2860  146.4480 C   0  0  1  0  0  3  0  0  0  0  0  0
  185.4240  178.6110  147.0590 O   0  0  0  0  0  1  0  0  0  0  0  0
  188.4340  176.7450  147.3110 N   0  0  0  0  0  1  0  0  0  0  0  0
  187.7910  178.6220  148.5160 O   0  0  0  0  0  0  0  0  0  0  0  0
  187.6450  177.9160  147.4830 C   0  0  0  0  0  0  0  0  0  0  0  0
  1  6  1  0  0  0  0
  2  1  2  0  0  0  0
  3  6  2  0  0  0  0
  4  2  1  0  0  0  0
  4  5  2  0  0  0  0
  5  3  1  0  0  0  0
  6 23  1  0  0  0  0
  7  2  1  0  0  0  0
  8  7  1  0  0  0  0
  9 11  1  0  0  0  0
 10 11  1  0  0  0  0
 11  8  1  0  0  0  0
 12  4  1  0  0  0  0
 13 12  1  0  0  0  0
 14 18  1  0  0  0  0
 15 16  2  0  0  0  0
 15 19  1  0  0  0  0
 16 17  1  0  0  0  0
 17 13  1  0  0  0  0
 17 18  2  0  0  0  0
 19 14  2  0  0  0  0
 20 22  2  0  0  0  0
 22 19  1  0  0  0  0
 22 21  1  0  0  0  0
 23 24  1  0  0  0  0
 24 25  1  1  0  0  0
 24 28  1  0  0  0  0
 26 28  1  0  0  0  0
 28 27  2  0  0  0  0
M  END
>  <MODEL>
8

>  <REMARK>
 VINA RESULT:      -7.0      3.997      7.753
  Name = 
  10 active torsions:
  status: ('A' for Active; 'I' for Inactive)
    1  A    between atoms: N_2  and  C_15
    2  A    between atoms: N_2  and  N_23
    3  A    between atoms: C_7  and  N_11
    4  A    between atoms: C_8  and  N_11
    5  A    between atoms: C_8  and  C_14
    6  A    between atoms: C_18  and  C_25
    7  A    between atoms: C_18  and  C_26
    8  A    between atoms: CA_19  and  C_22
    9  A    between atoms: N_23  and  C_24
   10  A    between atoms: C_26  and  C_28
                            x       y       z     vdW  Elec       q    Type
                         _______ _______ _______ _____ _____    ______ ____

>  <TORSDO>
F 10

$$$$
=
 OpenBabel10222418283D

 28 29  0  0  1  0  0  0  0  0999 V2000
  183.4070  178.5010  142.1400 C   0  0  0  0  0  3  0  0  0  0  0  0
  184.7990  178.4380  141.9800 C   0  0  0  0  0  0  0  0  0  0  0  0
  183.1520  179.1540  139.8250 C   0  0  0  0  0  3  0  0  0  0  0  0
  185.3670  178.7360  140.7300 C   0  0  0  0  0  0  0  0  0  0  0  0
  184.5380  179.0930  139.6570 C   0  0  0  0  0  3  0  0  0  0  0  0
  182.5850  178.8620  141.0680 C   0  0  0  0  0  0  0  0  0  0  0  0
  185.6440  178.0700  143.0750 N   0  0  0  0  0  2  0  0  0  0  0  0
  185.5350  178.6680  144.3980 C   0  0  0  0  0  2  0  0  0  0  0  0
  187.6600  177.6220  145.1040 C   0  0  0  0  0  1  0  0  0  0  0  0
  186.0430  178.3690  146.8150 C   0  0  0  0  0  1  0  0  0  0  0  0
  186.1880  177.7690  145.4300 C   0  0  0  0  0  3  0  0  0  0  0  0
  186.7850  178.6720  140.5580 N   0  0  0  0  0  2  0  0  0  0  0  0
  187.3740  178.6780  139.2850 N   0  0  0  0  0  2  0  0  0  0  0  0
  190.2030  177.1640  137.4670 N   0  0  0  0  0  0  0  0  0  0  0  0
  190.6260  176.9180  139.8040 C   0  0  0  0  0  3  0  0  0  0  0  0
  189.4220  177.5660  140.0820 C   0  0  0  0  0  3  0  0  0  0  0  0
  188.6110  178.0110  139.0330 C   0  0  0  0  0  0  0  0  0  0  0  0
  189.0260  177.7980  137.7180 C   0  0  0  0  0  3  0  0  0  0  0  0
  191.0100  176.7200  138.4710 C   0  0  0  0  0  0  0  0  0  0  0  0
  192.2790  174.8320  137.7990 O   0  0  0  0  0  0  0  0  0  0  0  0
  193.4740  176.7370  138.2270 O   0  0  0  0  0  1  0  0  0  0  0  0
  192.2730  176.0420  138.1490 C   0  0  0  0  0  0  0  0  0  0  0  0
  181.1060  178.9100  141.2460 C   0  0  0  0  0  2  0  0  0  0  0  0
  180.7420  179.2330  142.6890 C   0  0  1  0  0  3  0  0  0  0  0  0
  180.3330  180.5640  142.7970 O   0  0  0  0  0  1  0  0  0  0  0  0
  178.9360  178.6430  144.3440 N   0  0  0  0  0  1  0  0  0  0  0  0
  179.3770  177.2760  142.5200 O   0  0  0  0  0  0  0  0  0  0  0  0
  179.6540  178.3270  143.1570 C   0  0  0  0  0  0  0  0  0  0  0  0
  2  1  1  0  0  0  0
  2  7  1  0  0  0  0
  3  6  1  0  0  0  0
  4  2  2  0  0  0  0
  5  3  2  0  0  0  0
  5  4  1  0  0  0  0
  6 23  1  0  0  0  0
  6  1  2  0  0  0  0
  7  8  1  0  0  0  0
  8 11  1  0  0  0  0
  9 11  1  0  0  0  0
 11 10  1  0  0  0  0
 12  4  1  0  0  0  0
 13 12  1  0  0  0  0
 14 18  2  0  0  0  0
 14 19  1  0  0  0  0
 15 16  1  0  0  0  0
 17 13  1  0  0  0  0
 17 16  2  0  0  0  0
 18 17  1  0  0  0  0
 19 15  2  0  0  0  0
 20 22  2  0  0  0  0
 22 21  1  0  0  0  0
 22 19  1  0  0  0  0
 23 24  1  0  0  0  0
 24 25  1  6  0  0  0
 24 28  1  0  0  0  0
 27 28  2  0  0  0  0
 28 26  1  0  0  0  0
M  END
>  <MODEL>
9

>  <REMARK>
 VINA RESULT:      -6.9      3.468      5.893
  Name = 
  10 active torsions:
  status: ('A' for Active; 'I' for Inactive)
    1  A    between atoms: N_2  and  C_15
    2  A    between atoms: N_2  and  N_23
    3  A    between atoms: C_7  and  N_11
    4  A    between atoms: C_8  and  N_11
    5  A    between atoms: C_8  and  C_14
    6  A    between atoms: C_18  and  C_25
    7  A    between atoms: C_18  and  C_26
    8  A    between atoms: CA_19  and  C_22
    9  A    between atoms: N_23  and  C_24
   10  A    between atoms: C_26  and  C_28
                            x       y       z     vdW  Elec       q    Type
                         _______ _______ _______ _____ _____    ______ ____

>  <TORSDO>
F 10

$$$$
