=
 OpenBabel10222418423D

 41 44  0  0  1  0  0  0  0  0999 V2000
  190.9510  176.6200  138.5120 N   0  0  0  0  0  0  0  0  0  0  0  0
  190.1260  177.7660  138.9870 C   0  0  2  0  0  3  0  0  0  0  0  0
  190.2390  176.6770  139.8230 C   0  0  2  0  0  3  0  0  0  0  0  0
  191.7980  176.0160  137.5370 C   0  0  0  0  0  0  0  0  0  0  0  0
  189.7060  172.2870  135.3040 N   0  0  0  0  0  2  0  0  0  0  0  0
  191.8890  173.2440  135.3570 N   0  0  0  0  0  0  0  0  0  0  0  0
  193.9800  176.0280  136.4820 C   0  0  0  0  0  3  0  0  0  0  0  0
  193.6510  174.8400  135.7400 N   0  0  0  0  0  2  0  0  0  0  0  0
  190.2020  174.1280  136.8260 C   0  0  0  0  0  0  0  0  0  0  0  0
  193.1170  176.5610  137.3100 N   0  0  0  0  0  0  0  0  0  0  0  0
  191.4290  174.9210  136.8590 C   0  0  0  0  0  0  0  0  0  0  0  0
  190.5610  173.0790  135.8620 C   0  0  0  0  0  0  0  0  0  0  0  0
  192.3550  174.2920  135.9500 C   0  0  0  0  0  0  0  0  0  0  0  0
  188.6910  174.7460  136.9610 S   0  0  0  0  0  0  0  0  0  0  0  0
  184.9690  179.2360  139.9210 N   0  0  0  0  0  2  0  0  0  0  0  0
  184.1270  178.4600  137.8960 O   0  0  0  0  0  0  0  0  0  0  0  0
  187.6410  178.2310  138.9260 C   0  0  0  0  0  0  0  0  0  0  0  0
  187.6800  178.7320  140.1200 N   0  0  0  0  0  2  0  0  0  0  0  0
  185.1270  178.6100  138.6450 C   0  0  0  0  0  0  0  0  0  0  0  0
  188.8360  177.7380  138.3160 N   0  0  0  0  0  2  0  0  0  0  0  0
  186.4090  178.1510  138.2000 N   0  0  0  0  0  2  0  0  0  0  0  0
  183.7630  179.6880  140.3440 O   0  0  0  0  0  0  0  0  0  0  0  0
  183.2730  178.6840  141.1840 C   0  0  0  0  0  2  0  0  0  0  0  0
  184.2830  178.3770  142.2760 C   0  0  0  0  0  2  0  0  0  0  0  0
  184.0840  179.3130  143.4560 C   0  0  0  0  0  2  0  0  0  0  0  0
  183.7140  178.5260  144.7010 C   0  0  0  0  0  2  0  0  0  0  0  0
  184.7060  178.8020  145.8160 C   0  0  0  0  0  1  0  0  0  0  0  0
  191.2460  176.9640  140.9210 C   0  0  0  0  0  2  0  0  0  0  0  0
  190.5770  177.6780  142.0810 C   0  0  0  0  0  2  0  0  0  0  0  0
  189.3700  176.8880  142.5560 C   0  0  0  0  0  2  0  0  0  0  0  0
  188.3650  176.8580  144.8070 C   0  0  1  0  0  3  0  0  0  0  0  0
  187.2470  177.0510  143.8030 C   0  0  0  0  0  2  0  0  0  0  0  0
  188.5940  177.7020  143.5700 C   0  0  2  0  0  3  0  0  0  0  0  0
  188.1450  177.7590  145.9750 C   0  0  0  0  0  3  0  0  0  0  0  0
  188.6900  177.5140  147.1630 C   0  0  0  0  0  3  0  0  0  0  0  0
  189.4930  176.3970  147.3700 O   0  0  0  0  0  0  0  0  0  0  0  0
  191.6950  177.5700  148.2000 O   0  0  0  0  0  1  0  0  0  0  0  0
  191.1970  176.5150  147.2400 P   0  0  1  0  0  0  0  0  0  0  0  0
  191.9000  175.0270  147.6310 O   0  0  0  0  0  0  0  0  0  0  0  0
  191.6640  176.9820  145.5490 C   0  0  0  0  0  2  0  0  0  0  0  0
  191.9730  175.8390  144.8140 O   0  0  0  0  0  1  0  0  0  0  0  0
  1  2  1  0  0  0  0
  1  3  1  0  0  0  0
  2 20  1  6  0  0  0
  2  3  1  0  0  0  0
  3 28  1  1  0  0  0
  4  1  1  0  0  0  0
  5 12  2  0  0  0  0
  6 12  1  0  0  0  0
  6 13  2  0  0  0  0
  7 10  2  0  0  0  0
  8 13  1  0  0  0  0
  8  7  1  0  0  0  0
  9 11  1  0  0  0  0
  9 14  2  0  0  0  0
 10  4  1  0  0  0  0
 11  4  2  0  0  0  0
 12  9  1  0  0  0  0
 13 11  1  0  0  0  0
 15 22  1  0  0  0  0
 16 19  2  0  0  0  0
 17 18  2  0  0  0  0
 19 15  1  0  0  0  0
 20 17  1  0  0  0  0
 21 19  1  0  0  0  0
 21 17  1  0  0  0  0
 22 23  1  0  0  0  0
 23 24  1  0  0  0  0
 24 25  1  0  0  0  0
 25 26  1  0  0  0  0
 26 27  1  0  0  0  0
 28 29  1  0  0  0  0
 29 30  1  0  0  0  0
 31 34  1  1  0  0  0
 32 31  1  0  0  0  0
 33 30  1  6  0  0  0
 33 32  1  0  0  0  0
 33 31  1  0  0  0  0
 34 35  2  0  0  0  0
 35 36  1  0  0  0  0
 38 36  1  0  0  0  0
 38 39  2  1  0  0  0
 38 37  1  0  0  0  0
 40 38  1  0  0  0  0
 41 40  1  0  0  0  0
M  END
>  <MODEL>
1

>  <REMARK>
 VINA RESULT:      -7.6      0.000      0.000
  Name = 
  15 active torsions:
  status: ('A' for Active; 'I' for Inactive)
    1  A    between atoms: C_1  and  P_20
    2  A    between atoms: C_2  and  N_8
    3  A    between atoms: N_4  and  O_27
    4  A    between atoms: C_6  and  C_13
    5  A    between atoms: C_7  and  C_40
    6  A    between atoms: C_7  and  C_41
    7  A    between atoms: C_14  and  C_22
    8  A    between atoms: C_14  and  C_41
    9  A    between atoms: C_17  and  O_33
   10  A    between atoms: C_19  and  O_27
   11  A    between atoms: C_19  and  C_31
   12  A    between atoms: P_20  and  O_33
   13  A    between atoms: C_21  and  N_36
   14  A    between atoms: C_28  and  C_29
   15  A    between atoms: C_29  and  C_31
                            x       y       z     vdW  Elec       q    Type
                         _______ _______ _______ _____ _____    ______ ____

>  <TORSDO>
F 15

$$$$
=
 OpenBabel10222418423D

 41 44  0  0  1  0  0  0  0  0999 V2000
  185.7510  178.4350  139.5460 N   0  0  0  0  0  0  0  0  0  0  0  0
  184.6200  179.3380  139.9030 C   0  0  2  0  0  3  0  0  0  0  0  0
  184.8870  178.2880  140.7550 C   0  0  2  0  0  3  0  0  0  0  0  0
  186.8340  178.0740  138.6910 C   0  0  0  0  0  0  0  0  0  0  0  0
  185.6220  174.6980  135.4670 N   0  0  0  0  0  2  0  0  0  0  0  0
  187.6420  175.7630  136.1530 N   0  0  0  0  0  0  0  0  0  0  0  0
  189.1720  178.4160  138.1540 C   0  0  0  0  0  3  0  0  0  0  0  0
  189.1210  177.3670  137.1710 N   0  0  0  0  0  2  0  0  0  0  0  0
  185.6120  176.2550  137.3460 C   0  0  0  0  0  0  0  0  0  0  0  0
  188.1100  178.7330  138.8510 N   0  0  0  0  0  0  0  0  0  0  0  0
  186.7220  177.1020  137.7770 C   0  0  0  0  0  0  0  0  0  0  0  0
  186.2620  175.4250  136.3220 C   0  0  0  0  0  0  0  0  0  0  0  0
  187.8700  176.7100  137.0000 C   0  0  0  0  0  0  0  0  0  0  0  0
  184.0520  176.7420  137.2500 S   0  0  0  0  0  0  0  0  0  0  0  0
  180.6800  181.9060  137.1620 N   0  0  0  0  0  2  0  0  0  0  0  0
  179.6110  179.9780  136.4150 O   0  0  0  0  0  0  0  0  0  0  0  0
  182.6200  180.0220  138.5160 C   0  0  0  0  0  0  0  0  0  0  0  0
  182.8620  181.2750  138.7390 N   0  0  0  0  0  2  0  0  0  0  0  0
  180.5580  180.4840  137.0740 C   0  0  0  0  0  0  0  0  0  0  0  0
  183.4700  179.0170  139.0720 N   0  0  0  0  0  2  0  0  0  0  0  0
  181.4990  179.6180  137.7210 N   0  0  0  0  0  2  0  0  0  0  0  0
  179.8050  182.7320  136.5390 O   0  0  0  0  0  0  0  0  0  0  0  0
  180.5430  183.3410  135.5210 C   0  0  0  0  0  2  0  0  0  0  0  0
  180.7340  184.8170  135.8240 C   0  0  0  0  0  2  0  0  0  0  0  0
  179.5850  185.3330  136.6740 C   0  0  0  0  0  2  0  0  0  0  0  0
  180.1000  185.8420  138.0090 C   0  0  0  0  0  2  0  0  0  0  0  0
  178.9420  186.1450  138.9420 C   0  0  0  0  0  1  0  0  0  0  0  0
  185.6480  178.7830  141.9700 C   0  0  0  0  0  2  0  0  0  0  0  0
  184.6840  179.2290  143.0540 C   0  0  0  0  0  2  0  0  0  0  0  0
  184.7490  178.2790  144.2360 C   0  0  0  0  0  2  0  0  0  0  0  0
  186.4100  177.4860  145.8770 C   0  0  1  0  0  3  0  0  0  0  0  0
  185.4430  178.3980  146.6020 C   0  0  0  0  0  2  0  0  0  0  0  0
  185.8530  178.7090  145.1780 C   0  0  2  0  0  3  0  0  0  0  0  0
  187.8010  177.7760  146.3290 C   0  0  0  0  0  3  0  0  0  0  0  0
  188.8620  177.3900  145.6280 C   0  0  0  0  0  3  0  0  0  0  0  0
  188.7210  176.6910  144.4330 O   0  0  0  0  0  0  0  0  0  0  0  0
  190.2340  175.3460  142.7550 O   0  0  0  0  0  1  0  0  0  0  0  0
  189.9510  176.7480  143.2410 P   0  0  1  0  0  0  0  0  0  0  0  0
  189.4360  177.6990  141.9410 O   0  0  0  0  0  0  0  0  0  0  0  0
  191.4690  177.4520  143.9450 C   0  0  0  0  0  2  0  0  0  0  0  0
  191.5880  178.7880  143.5670 O   0  0  0  0  0  1  0  0  0  0  0  0
  1  2  1  0  0  0  0
  1  3  1  0  0  0  0
  2 20  1  6  0  0  0
  2  3  1  0  0  0  0
  3 28  1  1  0  0  0
  4 10  1  0  0  0  0
  4  1  1  0  0  0  0
  5 12  2  0  0  0  0
  6 12  1  0  0  0  0
  6 13  2  0  0  0  0
  7 10  2  0  0  0  0
  8  7  1  0  0  0  0
  9 11  1  0  0  0  0
 11  4  2  0  0  0  0
 12  9  1  0  0  0  0
 13  8  1  0  0  0  0
 13 11  1  0  0  0  0
 14  9  2  0  0  0  0
 16 19  2  0  0  0  0
 17 18  2  0  0  0  0
 17 20  1  0  0  0  0
 19 15  1  0  0  0  0
 19 21  1  0  0  0  0
 21 17  1  0  0  0  0
 22 15  1  0  0  0  0
 23 24  1  0  0  0  0
 23 22  1  0  0  0  0
 24 25  1  0  0  0  0
 25 26  1  0  0  0  0
 26 27  1  0  0  0  0
 28 29  1  0  0  0  0
 29 30  1  0  0  0  0
 31 34  1  1  0  0  0
 31 32  1  0  0  0  0
 33 30  1  6  0  0  0
 33 31  1  0  0  0  0
 33 32  1  0  0  0  0
 35 34  2  0  0  0  0
 36 35  1  0  0  0  0
 37 38  1  0  0  0  0
 38 39  2  6  0  0  0
 38 40  1  0  0  0  0
 38 36  1  0  0  0  0
 41 40  1  0  0  0  0
M  END
>  <MODEL>
2

>  <REMARK>
 VINA RESULT:      -7.0      4.098      5.843
  Name = 
  15 active torsions:
  status: ('A' for Active; 'I' for Inactive)
    1  A    between atoms: C_1  and  P_20
    2  A    between atoms: C_2  and  N_8
    3  A    between atoms: N_4  and  O_27
    4  A    between atoms: C_6  and  C_13
    5  A    between atoms: C_7  and  C_40
    6  A    between atoms: C_7  and  C_41
    7  A    between atoms: C_14  and  C_22
    8  A    between atoms: C_14  and  C_41
    9  A    between atoms: C_17  and  O_33
   10  A    between atoms: C_19  and  O_27
   11  A    between atoms: C_19  and  C_31
   12  A    between atoms: P_20  and  O_33
   13  A    between atoms: C_21  and  N_36
   14  A    between atoms: C_28  and  C_29
   15  A    between atoms: C_29  and  C_31
                            x       y       z     vdW  Elec       q    Type
                         _______ _______ _______ _____ _____    ______ ____

>  <TORSDO>
F 15

$$$$
=
 OpenBabel10222418423D

 41 44  0  0  1  0  0  0  0  0999 V2000
  189.1350  177.2280  143.5020 N   0  0  0  0  0  0  0  0  0  0  0  0
  188.8260  178.0430  142.2920 C   0  0  2  0  0  3  0  0  0  0  0  0
  187.9240  177.0620  142.6440 C   0  0  2  0  0  3  0  0  0  0  0  0
  189.9670  176.9260  144.6200 C   0  0  0  0  0  0  0  0  0  0  0  0
  188.0110  178.2720  148.8190 N   0  0  0  0  0  2  0  0  0  0  0  0
  190.1250  177.4320  148.1070 N   0  0  0  0  0  0  0  0  0  0  0  0
  192.0850  176.0130  145.3630 C   0  0  0  0  0  3  0  0  0  0  0  0
  191.7970  176.3920  146.7200 N   0  0  0  0  0  2  0  0  0  0  0  0
  188.4630  177.9400  146.4440 C   0  0  0  0  0  0  0  0  0  0  0  0
  191.2330  176.2660  144.4000 N   0  0  0  0  0  0  0  0  0  0  0  0
  189.6360  177.2860  145.8670 C   0  0  0  0  0  0  0  0  0  0  0  0
  188.8400  178.0090  147.8630 C   0  0  0  0  0  0  0  0  0  0  0  0
  190.5520  177.0420  146.9530 C   0  0  0  0  0  0  0  0  0  0  0  0
  186.9250  177.7120  145.9330 S   0  0  0  0  0  0  0  0  0  0  0  0
  188.6970  177.9290  136.8520 N   0  0  0  0  0  2  0  0  0  0  0  0
  190.7200  176.8100  136.5870 O   0  0  0  0  0  0  0  0  0  0  0  0
  189.2430  177.7250  139.8190 C   0  0  0  0  0  0  0  0  0  0  0  0
  188.1120  178.2870  139.5300 N   0  0  0  0  0  2  0  0  0  0  0  0
  189.8720  177.3040  137.3760 C   0  0  0  0  0  0  0  0  0  0  0  0
  189.6460  177.5820  141.1830 N   0  0  0  0  0  2  0  0  0  0  0  0
  190.1040  177.2300  138.7870 N   0  0  0  0  0  2  0  0  0  0  0  0
  188.4770  178.0190  135.5170 O   0  0  0  0  0  0  0  0  0  0  0  0
  187.0860  178.0740  135.3820 C   0  0  0  0  0  2  0  0  0  0  0  0
  186.4430  176.9170  136.1250 C   0  0  0  0  0  2  0  0  0  0  0  0
  185.1710  177.3770  136.8170 C   0  0  0  0  0  2  0  0  0  0  0  0
  183.9490  176.8530  136.0840 C   0  0  0  0  0  2  0  0  0  0  0  0
  182.7360  176.8700  136.9960 C   0  0  0  0  0  1  0  0  0  0  0  0
  186.7300  177.6780  143.3480 C   0  0  0  0  0  2  0  0  0  0  0  0
  185.8670  178.4410  142.3590 C   0  0  0  0  0  2  0  0  0  0  0  0
  184.8920  179.3390  143.0990 C   0  0  0  0  0  2  0  0  0  0  0  0
  182.5450  179.4370  143.8460 C   0  0  1  0  0  3  0  0  0  0  0  0
  183.3830  178.9580  145.0140 C   0  0  0  0  0  2  0  0  0  0  0  0
  183.7250  178.5190  143.6060 C   0  0  2  0  0  3  0  0  0  0  0  0
  181.2870  178.6390  143.7770 C   0  0  0  0  0  3  0  0  0  0  0  0
  180.4930  178.6710  142.7110 C   0  0  0  0  0  3  0  0  0  0  0  0
  180.8020  179.4590  141.6070 O   0  0  0  0  0  0  0  0  0  0  0  0
  182.4810  177.7900  140.4610 O   0  0  0  0  0  1  0  0  0  0  0  0
  181.3470  178.7390  140.1500 P   0  0  1  0  0  0  0  0  0  0  0  0
  180.0790  177.8790  139.4340 O   0  0  0  0  0  0  0  0  0  0  0  0
  181.9380  180.0170  139.0040 C   0  0  0  0  0  2  0  0  0  0  0  0
  183.3310  180.0140  138.9730 O   0  0  0  0  0  1  0  0  0  0  0  0
  1  4  1  0  0  0  0
  2 20  1  6  0  0  0
  2  3  1  0  0  0  0
  2  1  1  0  0  0  0
  3 28  1  1  0  0  0
  3  1  1  0  0  0  0
  4 11  2  0  0  0  0
  7  8  1  0  0  0  0
  8 13  1  0  0  0  0
  9 12  1  0  0  0  0
 10  4  1  0  0  0  0
 10  7  2  0  0  0  0
 11  9  1  0  0  0  0
 11 13  1  0  0  0  0
 12  6  1  0  0  0  0
 12  5  2  0  0  0  0
 13  6  2  0  0  0  0
 14  9  2  0  0  0  0
 15 19  1  0  0  0  0
 16 19  2  0  0  0  0
 17 20  1  0  0  0  0
 18 17  2  0  0  0  0
 19 21  1  0  0  0  0
 21 17  1  0  0  0  0
 22 15  1  0  0  0  0
 23 22  1  0  0  0  0
 23 24  1  0  0  0  0
 24 25  1  0  0  0  0
 26 25  1  0  0  0  0
 26 27  1  0  0  0  0
 29 30  1  0  0  0  0
 29 28  1  0  0  0  0
 31 34  1  1  0  0  0
 31 32  1  0  0  0  0
 33 30  1  6  0  0  0
 33 31  1  0  0  0  0
 33 32  1  0  0  0  0
 35 34  2  0  0  0  0
 36 35  1  0  0  0  0
 38 39  2  6  0  0  0
 38 37  1  0  0  0  0
 38 36  1  0  0  0  0
 40 38  1  0  0  0  0
 41 40  1  0  0  0  0
M  END
>  <MODEL>
3

>  <REMARK>
 VINA RESULT:      -6.9      4.766      8.636
  Name = 
  15 active torsions:
  status: ('A' for Active; 'I' for Inactive)
    1  A    between atoms: C_1  and  P_20
    2  A    between atoms: C_2  and  N_8
    3  A    between atoms: N_4  and  O_27
    4  A    between atoms: C_6  and  C_13
    5  A    between atoms: C_7  and  C_40
    6  A    between atoms: C_7  and  C_41
    7  A    between atoms: C_14  and  C_22
    8  A    between atoms: C_14  and  C_41
    9  A    between atoms: C_17  and  O_33
   10  A    between atoms: C_19  and  O_27
   11  A    between atoms: C_19  and  C_31
   12  A    between atoms: P_20  and  O_33
   13  A    between atoms: C_21  and  N_36
   14  A    between atoms: C_28  and  C_29
   15  A    between atoms: C_29  and  C_31
                            x       y       z     vdW  Elec       q    Type
                         _______ _______ _______ _____ _____    ______ ____

>  <TORSDO>
F 15

$$$$
=
 OpenBabel10222418423D

 41 44  0  0  1  0  0  0  0  0999 V2000
  190.3640  176.9350  140.1960 N   0  0  0  0  0  0  0  0  0  0  0  0
  189.6180  176.5360  141.4230 C   0  0  2  0  0  3  0  0  0  0  0  0
  189.6070  177.8700  141.0800 C   0  0  2  0  0  3  0  0  0  0  0  0
  191.1520  176.6020  139.0550 C   0  0  0  0  0  0  0  0  0  0  0  0
  188.4970  175.0210  135.3520 N   0  0  0  0  0  2  0  0  0  0  0  0
  190.8240  175.1750  135.8470 N   0  0  0  0  0  0  0  0  0  0  0  0
  193.3870  176.4380  138.1320 C   0  0  0  0  0  3  0  0  0  0  0  0
  192.8680  175.8500  136.9260 N   0  0  0  0  0  2  0  0  0  0  0  0
  189.2370  175.7750  137.5510 C   0  0  0  0  0  0  0  0  0  0  0  0
  192.5850  176.7810  139.1090 N   0  0  0  0  0  0  0  0  0  0  0  0
  190.6100  176.0760  137.9490 C   0  0  0  0  0  0  0  0  0  0  0  0
  189.4420  175.2000  136.2140 C   0  0  0  0  0  0  0  0  0  0  0  0
  191.4580  175.6690  136.8570 C   0  0  0  0  0  0  0  0  0  0  0  0
  187.9330  176.6810  137.9490 S   0  0  0  0  0  0  0  0  0  0  0  0
  189.9870  177.3640  146.7900 N   0  0  0  0  0  2  0  0  0  0  0  0
  192.1390  176.5080  147.0180 O   0  0  0  0  0  0  0  0  0  0  0  0
  190.2900  176.7050  143.8540 C   0  0  0  0  0  0  0  0  0  0  0  0
  189.1650  177.2760  144.1520 N   0  0  0  0  0  2  0  0  0  0  0  0
  191.1730  176.7700  146.2540 C   0  0  0  0  0  0  0  0  0  0  0  0
  190.5620  176.3140  142.5070 N   0  0  0  0  0  2  0  0  0  0  0  0
  191.2820  176.4630  144.8600 N   0  0  0  0  0  2  0  0  0  0  0  0
  189.8690  177.6430  148.1110 O   0  0  0  0  0  0  0  0  0  0  0  0
  188.5670  178.1280  148.2650 C   0  0  0  0  0  2  0  0  0  0  0  0
  187.6830  177.6150  147.1420 C   0  0  0  0  0  2  0  0  0  0  0  0
  186.3580  178.3600  147.1320 C   0  0  0  0  0  2  0  0  0  0  0  0
  185.9830  178.7540  145.7140 C   0  0  0  0  0  2  0  0  0  0  0  0
  184.4790  178.6850  145.5260 C   0  0  0  0  0  1  0  0  0  0  0  0
  188.2920  178.2280  140.4120 C   0  0  0  0  0  2  0  0  0  0  0  0
  187.4370  179.0690  141.3420 C   0  0  0  0  0  2  0  0  0  0  0  0
  186.2790  178.2450  141.8760 C   0  0  0  0  0  2  0  0  0  0  0  0
  183.8250  178.1790  141.6520 C   0  0  1  0  0  3  0  0  0  0  0  0
  184.3700  179.0240  140.5200 C   0  0  0  0  0  2  0  0  0  0  0  0
  185.0180  179.0820  141.8870 C   0  0  2  0  0  3  0  0  0  0  0  0
  182.6060  178.8280  142.2150 C   0  0  0  0  0  3  0  0  0  0  0  0
  181.3950  178.6020  141.7140 C   0  0  0  0  0  3  0  0  0  0  0  0
  181.2120  177.7460  140.6320 O   0  0  0  0  0  0  0  0  0  0  0  0
  181.8760  177.8550  138.0900 O   0  0  0  0  0  0  0  0  0  0  0  0
  180.8570  178.3740  139.0780 P   0  0  1  0  0  0  0  0  0  0  0  0
  179.3130  177.8740  138.6030 O   0  0  0  0  0  1  0  0  0  0  0  0
  180.9260  180.1880  139.1060 C   0  0  0  0  0  2  0  0  0  0  0  0
  179.6750  180.7020  139.4420 O   0  0  0  0  0  1  0  0  0  0  0  0
  1  3  1  0  0  0  0
  1  2  1  0  0  0  0
  2 20  1  1  0  0  0
  3 28  1  6  0  0  0
  3  2  1  0  0  0  0
  4 10  1  0  0  0  0
  4  1  1  0  0  0  0
  5 12  2  0  0  0  0
  6 12  1  0  0  0  0
  6 13  2  0  0  0  0
  7 10  2  0  0  0  0
  8  7  1  0  0  0  0
  9 14  2  0  0  0  0
  9 11  1  0  0  0  0
 11  4  2  0  0  0  0
 12  9  1  0  0  0  0
 13  8  1  0  0  0  0
 13 11  1  0  0  0  0
 15 22  1  0  0  0  0
 17 18  2  0  0  0  0
 17 21  1  0  0  0  0
 19 15  1  0  0  0  0
 19 16  2  0  0  0  0
 20 17  1  0  0  0  0
 21 19  1  0  0  0  0
 22 23  1  0  0  0  0
 24 23  1  0  0  0  0
 25 24  1  0  0  0  0
 26 25  1  0  0  0  0
 27 26  1  0  0  0  0
 28 29  1  0  0  0  0
 29 30  1  0  0  0  0
 31 33  1  0  0  0  0
 31 34  1  1  0  0  0
 32 31  1  0  0  0  0
 32 33  1  0  0  0  0
 33 30  1  6  0  0  0
 35 34  2  0  0  0  0
 36 35  1  0  0  0  0
 38 37  2  6  0  0  0
 38 40  1  0  0  0  0
 38 36  1  0  0  0  0
 39 38  1  0  0  0  0
 40 41  1  0  0  0  0
M  END
>  <MODEL>
4

>  <REMARK>
 VINA RESULT:      -6.9      3.345      7.201
  Name = 
  15 active torsions:
  status: ('A' for Active; 'I' for Inactive)
    1  A    between atoms: C_1  and  P_20
    2  A    between atoms: C_2  and  N_8
    3  A    between atoms: N_4  and  O_27
    4  A    between atoms: C_6  and  C_13
    5  A    between atoms: C_7  and  C_40
    6  A    between atoms: C_7  and  C_41
    7  A    between atoms: C_14  and  C_22
    8  A    between atoms: C_14  and  C_41
    9  A    between atoms: C_17  and  O_33
   10  A    between atoms: C_19  and  O_27
   11  A    between atoms: C_19  and  C_31
   12  A    between atoms: P_20  and  O_33
   13  A    between atoms: C_21  and  N_36
   14  A    between atoms: C_28  and  C_29
   15  A    between atoms: C_29  and  C_31
                            x       y       z     vdW  Elec       q    Type
                         _______ _______ _______ _____ _____    ______ ____

>  <TORSDO>
F 15

$$$$
=
 OpenBabel10222418423D

 41 44  0  0  1  0  0  0  0  0999 V2000
  188.7570  177.5790  143.2660 N   0  0  0  0  0  0  0  0  0  0  0  0
  187.5010  177.4200  142.4780 C   0  0  2  0  0  3  0  0  0  0  0  0
  188.2280  178.5740  142.2870 C   0  0  2  0  0  3  0  0  0  0  0  0
  189.7090  177.0810  144.2030 C   0  0  0  0  0  0  0  0  0  0  0  0
  188.5070  178.0460  148.7740 N   0  0  0  0  0  2  0  0  0  0  0  0
  190.4120  177.1440  147.6590 N   0  0  0  0  0  0  0  0  0  0  0  0
  191.8180  175.9270  144.5080 C   0  0  0  0  0  3  0  0  0  0  0  0
  191.7640  176.1580  145.9260 N   0  0  0  0  0  2  0  0  0  0  0  0
  188.5830  177.9730  146.3360 C   0  0  0  0  0  0  0  0  0  0  0  0
  190.8640  176.3590  143.7210 N   0  0  0  0  0  0  0  0  0  0  0  0
  189.5950  177.3090  145.5180 C   0  0  0  0  0  0  0  0  0  0  0  0
  189.1630  177.8410  147.6790 C   0  0  0  0  0  0  0  0  0  0  0  0
  190.6300  176.8660  146.4170 C   0  0  0  0  0  0  0  0  0  0  0  0
  186.9720  177.9260  146.0440 S   0  0  0  0  0  0  0  0  0  0  0  0
  182.2950  178.9460  142.0350 N   0  0  0  0  0  2  0  0  0  0  0  0
  181.8610  178.9880  144.3210 O   0  0  0  0  0  0  0  0  0  0  0  0
  185.0930  178.1100  142.8200 C   0  0  0  0  0  0  0  0  0  0  0  0
  184.9250  178.2500  141.5430 N   0  0  0  0  0  2  0  0  0  0  0  0
  182.6930  178.7790  143.3990 C   0  0  0  0  0  0  0  0  0  0  0  0
  186.3590  177.6940  143.3360 N   0  0  0  0  0  2  0  0  0  0  0  0
  184.0250  178.3750  143.7370 N   0  0  0  0  0  2  0  0  0  0  0  0
  181.0320  179.3120  141.7050 O   0  0  0  0  0  0  0  0  0  0  0  0
  180.9220  179.0410  140.3380 C   0  0  0  0  0  2  0  0  0  0  0  0
  181.6050  177.7250  140.0090 C   0  0  0  0  0  2  0  0  0  0  0  0
  182.1890  177.7700  138.6070 C   0  0  0  0  0  2  0  0  0  0  0  0
  183.4200  176.8860  138.5170 C   0  0  0  0  0  2  0  0  0  0  0  0
  184.5630  177.6360  137.8580 C   0  0  0  0  0  1  0  0  0  0  0  0
  189.0310  178.4790  141.0020 C   0  0  0  0  0  2  0  0  0  0  0  0
  188.1140  178.2040  139.8240 C   0  0  0  0  0  2  0  0  0  0  0  0
  188.8200  178.5400  138.5220 C   0  0  0  0  0  2  0  0  0  0  0  0
  189.1930  177.8330  136.1900 C   0  0  1  0  0  3  0  0  0  0  0  0
  187.7940  178.4060  136.2820 C   0  0  0  0  0  2  0  0  0  0  0  0
  188.3570  177.5980  137.4320 C   0  0  2  0  0  3  0  0  0  0  0  0
  189.1710  176.6010  135.3500 C   0  0  0  0  0  3  0  0  0  0  0  0
  190.2200  175.7900  135.2660 C   0  0  0  0  0  3  0  0  0  0  0  0
  191.3960  176.0590  135.9610 O   0  0  0  0  0  0  0  0  0  0  0  0
  191.0150  175.2880  138.4470 O   0  0  0  0  0  1  0  0  0  0  0  0
  191.8980  175.0410  137.2450 P   0  0  1  0  0  0  0  0  0  0  0  0
  191.7600  173.4230  136.7740 O   0  0  0  0  0  0  0  0  0  0  0  0
  193.6210  175.4000  137.6900 C   0  0  0  0  0  2  0  0  0  0  0  0
  193.6660  176.4840  138.5640 O   0  0  0  0  0  1  0  0  0  0  0  0
  1  4  1  0  0  0  0
  2  1  1  0  0  0  0
  2 20  1  1  0  0  0
  3 28  1  6  0  0  0
  3  2  1  0  0  0  0
  3  1  1  0  0  0  0
  4 11  2  0  0  0  0
  6 12  1  0  0  0  0
  7  8  1  0  0  0  0
  8 13  1  0  0  0  0
  9 12  1  0  0  0  0
 10  4  1  0  0  0  0
 10  7  2  0  0  0  0
 11  9  1  0  0  0  0
 11 13  1  0  0  0  0
 12  5  2  0  0  0  0
 13  6  2  0  0  0  0
 14  9  2  0  0  0  0
 15 19  1  0  0  0  0
 17 20  1  0  0  0  0
 17 21  1  0  0  0  0
 18 17  2  0  0  0  0
 19 21  1  0  0  0  0
 19 16  2  0  0  0  0
 22 15  1  0  0  0  0
 23 22  1  0  0  0  0
 24 23  1  0  0  0  0
 25 24  1  0  0  0  0
 26 25  1  0  0  0  0
 27 26  1  0  0  0  0
 29 28  1  0  0  0  0
 30 29  1  0  0  0  0
 31 34  1  6  0  0  0
 31 32  1  0  0  0  0
 31 33  1  0  0  0  0
 32 33  1  0  0  0  0
 33 30  1  1  0  0  0
 35 34  2  0  0  0  0
 35 36  1  0  0  0  0
 36 38  1  0  0  0  0
 38 39  2  6  0  0  0
 38 40  1  0  0  0  0
 38 37  1  0  0  0  0
 40 41  1  0  0  0  0
M  END
>  <MODEL>
5

>  <REMARK>
 VINA RESULT:      -6.7      4.900      8.088
  Name = 
  15 active torsions:
  status: ('A' for Active; 'I' for Inactive)
    1  A    between atoms: C_1  and  P_20
    2  A    between atoms: C_2  and  N_8
    3  A    between atoms: N_4  and  O_27
    4  A    between atoms: C_6  and  C_13
    5  A    between atoms: C_7  and  C_40
    6  A    between atoms: C_7  and  C_41
    7  A    between atoms: C_14  and  C_22
    8  A    between atoms: C_14  and  C_41
    9  A    between atoms: C_17  and  O_33
   10  A    between atoms: C_19  and  O_27
   11  A    between atoms: C_19  and  C_31
   12  A    between atoms: P_20  and  O_33
   13  A    between atoms: C_21  and  N_36
   14  A    between atoms: C_28  and  C_29
   15  A    between atoms: C_29  and  C_31
                            x       y       z     vdW  Elec       q    Type
                         _______ _______ _______ _____ _____    ______ ____

>  <TORSDO>
F 15

$$$$
=
 OpenBabel10222418423D

 41 44  0  0  1  0  0  0  0  0999 V2000
  186.9990  177.9770  143.3350 N   0  0  0  0  0  0  0  0  0  0  0  0
  186.9290  177.5260  141.9160 C   0  0  2  0  0  3  0  0  0  0  0  0
  188.1650  177.8850  142.4080 C   0  0  2  0  0  3  0  0  0  0  0  0
  186.3750  178.2340  144.5920 C   0  0  0  0  0  0  0  0  0  0  0  0
  189.4290  177.8410  148.3050 N   0  0  0  0  0  2  0  0  0  0  0  0
  187.0770  178.1330  148.0470 N   0  0  0  0  0  0  0  0  0  0  0  0
  184.3100  178.7740  145.7400 C   0  0  0  0  0  3  0  0  0  0  0  0
  184.9580  178.6300  147.0160 N   0  0  0  0  0  2  0  0  0  0  0  0
  188.4210  177.7820  146.0830 C   0  0  0  0  0  0  0  0  0  0  0  0
  184.9750  178.5870  144.6260 N   0  0  0  0  0  0  0  0  0  0  0  0
  187.0350  178.1050  145.7500 C   0  0  0  0  0  0  0  0  0  0  0  0
  188.3790  177.8090  147.5530 C   0  0  0  0  0  0  0  0  0  0  0  0
  186.3380  178.2840  146.9990 C   0  0  0  0  0  0  0  0  0  0  0  0
  189.7230  178.2590  145.2130 S   0  0  0  0  0  0  0  0  0  0  0  0
  182.1710  179.1150  139.8040 N   0  0  0  0  0  2  0  0  0  0  0  0
  183.0080  180.9900  138.7090 O   0  0  0  0  0  0  0  0  0  0  0  0
  185.0180  178.6690  140.7190 C   0  0  0  0  0  0  0  0  0  0  0  0
  184.1910  177.7530  141.1110 N   0  0  0  0  0  2  0  0  0  0  0  0
  183.2410  179.9920  139.4400 C   0  0  0  0  0  0  0  0  0  0  0  0
  186.3940  178.6030  141.0970 N   0  0  0  0  0  2  0  0  0  0  0  0
  184.5780  179.7570  139.8970 N   0  0  0  0  0  2  0  0  0  0  0  0
  180.8990  179.3390  139.3910 O   0  0  0  0  0  0  0  0  0  0  0  0
  180.1170  179.2220  140.5440 C   0  0  0  0  0  2  0  0  0  0  0  0
  180.8270  178.3590  141.5710 C   0  0  0  0  0  2  0  0  0  0  0  0
  179.8300  177.8070  142.5760 C   0  0  0  0  0  2  0  0  0  0  0  0
  179.9600  178.5300  143.9050 C   0  0  0  0  0  2  0  0  0  0  0  0
  179.2530  179.8710  143.8500 C   0  0  0  0  0  1  0  0  0  0  0  0
  188.9710  176.6450  142.7480 C   0  0  0  0  0  2  0  0  0  0  0  0
  189.9700  176.3430  141.6470 C   0  0  0  0  0  2  0  0  0  0  0  0
  190.5570  177.6330  141.1040 C   0  0  0  0  0  2  0  0  0  0  0  0
  189.2380  178.0610  139.0660 C   0  0  1  0  0  3  0  0  0  0  0  0
  189.5560  176.5810  139.1090 C   0  0  0  0  0  2  0  0  0  0  0  0
  190.5780  177.5890  139.5910 C   0  0  2  0  0  3  0  0  0  0  0  0
  189.4130  178.5670  137.6740 C   0  0  0  0  0  3  0  0  0  0  0  0
  188.3760  178.7790  136.8690 C   0  0  0  0  0  3  0  0  0  0  0  0
  187.0740  178.5320  137.2910 O   0  0  0  0  0  0  0  0  0  0  0  0
  185.9070  177.5240  135.1610 O   0  0  0  0  0  0  0  0  0  0  0  0
  186.1720  177.2390  136.6200 P   0  0  1  0  0  0  0  0  0  0  0  0
  187.0540  175.8020  136.7580 O   0  0  0  0  0  1  0  0  0  0  0  0
  184.5880  177.0640  137.4890 C   0  0  0  0  0  2  0  0  0  0  0  0
  183.5500  177.5040  136.6700 O   0  0  0  0  0  1  0  0  0  0  0  0
  1  4  1  0  0  0  0
  2 20  1  6  0  0  0
  2  3  1  0  0  0  0
  2  1  1  0  0  0  0
  3 28  1  1  0  0  0
  3  1  1  0  0  0  0
  4 10  1  0  0  0  0
  4 11  2  0  0  0  0
  7  8  1  0  0  0  0
  9 12  1  0  0  0  0
 10  7  2  0  0  0  0
 11  9  1  0  0  0  0
 11 13  1  0  0  0  0
 12  6  1  0  0  0  0
 12  5  2  0  0  0  0
 13  8  1  0  0  0  0
 13  6  2  0  0  0  0
 14  9  2  0  0  0  0
 16 19  2  0  0  0  0
 17 20  1  0  0  0  0
 17 18  2  0  0  0  0
 19 15  1  0  0  0  0
 19 21  1  0  0  0  0
 21 17  1  0  0  0  0
 22 15  1  0  0  0  0
 22 23  1  0  0  0  0
 23 24  1  0  0  0  0
 24 25  1  0  0  0  0
 25 26  1  0  0  0  0
 27 26  1  0  0  0  0
 29 28  1  0  0  0  0
 30 29  1  0  0  0  0
 31 34  1  6  0  0  0
 31 32  1  0  0  0  0
 31 33  1  0  0  0  0
 32 33  1  0  0  0  0
 33 30  1  1  0  0  0
 35 36  1  0  0  0  0
 35 34  2  0  0  0  0
 38 37  2  6  0  0  0
 38 39  1  0  0  0  0
 38 36  1  0  0  0  0
 38 40  1  0  0  0  0
 41 40  1  0  0  0  0
M  END
>  <MODEL>
6

>  <REMARK>
 VINA RESULT:      -6.6      5.517      8.587
  Name = 
  15 active torsions:
  status: ('A' for Active; 'I' for Inactive)
    1  A    between atoms: C_1  and  P_20
    2  A    between atoms: C_2  and  N_8
    3  A    between atoms: N_4  and  O_27
    4  A    between atoms: C_6  and  C_13
    5  A    between atoms: C_7  and  C_40
    6  A    between atoms: C_7  and  C_41
    7  A    between atoms: C_14  and  C_22
    8  A    between atoms: C_14  and  C_41
    9  A    between atoms: C_17  and  O_33
   10  A    between atoms: C_19  and  O_27
   11  A    between atoms: C_19  and  C_31
   12  A    between atoms: P_20  and  O_33
   13  A    between atoms: C_21  and  N_36
   14  A    between atoms: C_28  and  C_29
   15  A    between atoms: C_29  and  C_31
                            x       y       z     vdW  Elec       q    Type
                         _______ _______ _______ _____ _____    ______ ____

>  <TORSDO>
F 15

$$$$
=
 OpenBabel10222418423D

 41 44  0  0  1  0  0  0  0  0999 V2000
  187.2880  177.8760  144.0730 N   0  0  0  0  0  0  0  0  0  0  0  0
  187.6130  178.2820  142.6760 C   0  0  2  0  0  3  0  0  0  0  0  0
  186.4700  177.5380  142.8710 C   0  0  2  0  0  3  0  0  0  0  0  0
  187.5740  177.8850  145.4700 C   0  0  0  0  0  0  0  0  0  0  0  0
  192.1120  176.5790  146.4540 N   0  0  0  0  0  2  0  0  0  0  0  0
  190.1430  177.0190  147.7250 N   0  0  0  0  0  0  0  0  0  0  0  0
  186.6990  178.2540  147.7000 C   0  0  0  0  0  3  0  0  0  0  0  0
  187.9390  177.8140  148.2820 N   0  0  0  0  0  2  0  0  0  0  0  0
  189.9980  177.0390  145.3250 C   0  0  0  0  0  0  0  0  0  0  0  0
  186.5410  178.2810  146.4000 N   0  0  0  0  0  0  0  0  0  0  0  0
  188.7560  177.4830  145.9540 C   0  0  0  0  0  0  0  0  0  0  0  0
  190.8320  176.7530  146.5010 C   0  0  0  0  0  0  0  0  0  0  0  0
  188.9670  177.4220  147.3780 C   0  0  0  0  0  0  0  0  0  0  0  0
  190.5960  177.6350  143.9220 S   0  0  0  0  0  0  0  0  0  0  0  0
  190.0340  177.1210  137.9410 N   0  0  0  0  0  2  0  0  0  0  0  0
  191.4920  175.5250  138.8020 O   0  0  0  0  0  0  0  0  0  0  0  0
  189.0260  177.3890  140.7800 C   0  0  0  0  0  0  0  0  0  0  0  0
  188.3970  178.1330  139.9260 N   0  0  0  0  0  2  0  0  0  0  0  0
  190.5690  176.3530  139.0220 C   0  0  0  0  0  0  0  0  0  0  0  0
  188.6740  177.4300  142.1640 N   0  0  0  0  0  2  0  0  0  0  0  0
  190.0750  176.5090  140.3570 N   0  0  0  0  0  2  0  0  0  0  0  0
  190.5070  176.9920  136.6770 O   0  0  0  0  0  0  0  0  0  0  0  0
  189.4090  177.2500  135.8510 C   0  0  0  0  0  2  0  0  0  0  0  0
  188.6750  178.4900  136.3300 C   0  0  0  0  0  2  0  0  0  0  0  0
  187.1820  178.3480  136.0810 C   0  0  0  0  0  2  0  0  0  0  0  0
  186.6820  177.0140  136.6070 C   0  0  0  0  0  2  0  0  0  0  0  0
  185.2030  177.0960  136.9360 C   0  0  0  0  0  1  0  0  0  0  0  0
  185.2490  178.4370  142.8340 C   0  0  0  0  0  2  0  0  0  0  0  0
  185.2960  179.3470  141.6200 C   0  0  0  0  0  2  0  0  0  0  0  0
  184.7280  178.6330  140.4070 C   0  0  0  0  0  2  0  0  0  0  0  0
  182.7250  177.5050  139.5140 C   0  0  1  0  0  3  0  0  0  0  0  0
  182.2680  178.7510  140.2440 C   0  0  0  0  0  2  0  0  0  0  0  0
  183.4320  177.9440  140.7800 C   0  0  2  0  0  3  0  0  0  0  0  0
  181.8080  176.3740  139.8380 C   0  0  0  0  0  3  0  0  0  0  0  0
  181.5190  175.4290  138.9500 C   0  0  0  0  0  3  0  0  0  0  0  0
  182.0610  175.4540  137.6680 O   0  0  0  0  0  0  0  0  0  0  0  0
  181.5080  172.8900  137.4820 O   0  0  0  0  0  1  0  0  0  0  0  0
  182.2370  174.0060  136.7700 P   0  0  1  0  0  0  0  0  0  0  0  0
  181.5760  174.2110  135.2270 O   0  0  0  0  0  0  0  0  0  0  0  0
  183.9940  173.5700  136.6260 C   0  0  0  0  0  2  0  0  0  0  0  0
  184.5560  173.4540  137.8950 O   0  0  0  0  0  1  0  0  0  0  0  0
  1  4  1  0  0  0  0
  2 20  1  6  0  0  0
  2  3  1  0  0  0  0
  2  1  1  0  0  0  0
  3 28  1  1  0  0  0
  3  1  1  0  0  0  0
  4 11  2  0  0  0  0
  4 10  1  0  0  0  0
  5 12  2  0  0  0  0
  7  8  1  0  0  0  0
  9 11  1  0  0  0  0
  9 12  1  0  0  0  0
 10  7  2  0  0  0  0
 11 13  1  0  0  0  0
 12  6  1  0  0  0  0
 13  6  2  0  0  0  0
 13  8  1  0  0  0  0
 14  9  2  0  0  0  0
 15 19  1  0  0  0  0
 16 19  2  0  0  0  0
 17 20  1  0  0  0  0
 18 17  2  0  0  0  0
 19 21  1  0  0  0  0
 21 17  1  0  0  0  0
 22 15  1  0  0  0  0
 23 24  1  0  0  0  0
 23 22  1  0  0  0  0
 25 24  1  0  0  0  0
 25 26  1  0  0  0  0
 26 27  1  0  0  0  0
 29 28  1  0  0  0  0
 30 29  1  0  0  0  0
 31 34  1  1  0  0  0
 31 32  1  0  0  0  0
 31 33  1  0  0  0  0
 32 33  1  0  0  0  0
 33 30  1  6  0  0  0
 35 34  2  0  0  0  0
 36 35  1  0  0  0  0
 38 39  2  6  0  0  0
 38 37  1  0  0  0  0
 38 36  1  0  0  0  0
 40 38  1  0  0  0  0
 40 41  1  0  0  0  0
M  END
>  <MODEL>
7

>  <REMARK>
 VINA RESULT:      -6.4      4.539      9.442
  Name = 
  15 active torsions:
  status: ('A' for Active; 'I' for Inactive)
    1  A    between atoms: C_1  and  P_20
    2  A    between atoms: C_2  and  N_8
    3  A    between atoms: N_4  and  O_27
    4  A    between atoms: C_6  and  C_13
    5  A    between atoms: C_7  and  C_40
    6  A    between atoms: C_7  and  C_41
    7  A    between atoms: C_14  and  C_22
    8  A    between atoms: C_14  and  C_41
    9  A    between atoms: C_17  and  O_33
   10  A    between atoms: C_19  and  O_27
   11  A    between atoms: C_19  and  C_31
   12  A    between atoms: P_20  and  O_33
   13  A    between atoms: C_21  and  N_36
   14  A    between atoms: C_28  and  C_29
   15  A    between atoms: C_29  and  C_31
                            x       y       z     vdW  Elec       q    Type
                         _______ _______ _______ _____ _____    ______ ____

>  <TORSDO>
F 15

$$$$
=
 OpenBabel10222418423D

 41 44  0  0  1  0  0  0  0  0999 V2000
  186.7350  177.8640  143.2850 N   0  0  0  0  0  0  0  0  0  0  0  0
  185.8970  178.9180  142.6440 C   0  0  2  0  0  3  0  0  0  0  0  0
  185.2660  178.0320  143.4900 C   0  0  2  0  0  3  0  0  0  0  0  0
  188.0010  177.2500  143.5140 C   0  0  0  0  0  0  0  0  0  0  0  0
  189.4720  177.6550  148.0900 N   0  0  0  0  0  2  0  0  0  0  0  0
  190.4290  176.8850  146.0460 N   0  0  0  0  0  0  0  0  0  0  0  0
  189.8660  176.0560  142.5280 C   0  0  0  0  0  3  0  0  0  0  0  0
  190.5860  176.1120  143.7710 N   0  0  0  0  0  2  0  0  0  0  0  0
  188.2400  177.8810  145.9950 C   0  0  0  0  0  0  0  0  0  0  0  0
  188.6730  176.5870  142.4200 N   0  0  0  0  0  0  0  0  0  0  0  0
  188.6170  177.3160  144.7010 C   0  0  0  0  0  0  0  0  0  0  0  0
  189.4330  177.5820  146.8000 C   0  0  0  0  0  0  0  0  0  0  0  0
  189.9370  176.7610  144.8590 C   0  0  0  0  0  0  0  0  0  0  0  0
  186.7210  177.8780  146.6050 S   0  0  0  0  0  0  0  0  0  0  0  0
  188.5410  178.6170  137.8960 N   0  0  0  0  0  2  0  0  0  0  0  0
  186.7110  177.9070  136.6460 O   0  0  0  0  0  0  0  0  0  0  0  0
  186.6370  178.6220  140.2450 C   0  0  0  0  0  0  0  0  0  0  0  0
  187.8330  179.0240  140.5380 N   0  0  0  0  0  2  0  0  0  0  0  0
  187.1660  178.2470  137.7700 C   0  0  0  0  0  0  0  0  0  0  0  0
  185.6360  178.5480  141.2620 N   0  0  0  0  0  2  0  0  0  0  0  0
  186.2910  178.2520  138.9050 N   0  0  0  0  0  2  0  0  0  0  0  0
  189.3810  178.5990  136.8320 O   0  0  0  0  0  0  0  0  0  0  0  0
  190.0620  177.3820  136.9280 C   0  0  0  0  0  2  0  0  0  0  0  0
  190.2890  177.0240  138.3860 C   0  0  0  0  0  2  0  0  0  0  0  0
  191.4050  176.0000  138.5100 C   0  0  0  0  0  2  0  0  0  0  0  0
  192.7600  176.6840  138.4570 C   0  0  0  0  0  2  0  0  0  0  0  0
  193.1830  177.1290  139.8440 C   0  0  0  0  0  1  0  0  0  0  0  0
  185.0260  178.6810  144.8410 C   0  0  0  0  0  2  0  0  0  0  0  0
  183.5380  178.8210  145.1050 C   0  0  0  0  0  2  0  0  0  0  0  0
  182.8570  179.4890  143.9240 C   0  0  0  0  0  2  0  0  0  0  0  0
  181.3580  179.0040  142.0280 C   0  0  1  0  0  3  0  0  0  0  0  0
  180.5110  179.5420  143.1620 C   0  0  0  0  0  2  0  0  0  0  0  0
  181.6910  178.6420  143.4610 C   0  0  2  0  0  3  0  0  0  0  0  0
  180.6590  177.8540  141.3860 C   0  0  0  0  0  3  0  0  0  0  0  0
  180.2140  177.9120  140.1350 C   0  0  0  0  0  3  0  0  0  0  0  0
  180.3810  179.0580  139.3640 O   0  0  0  0  0  0  0  0  0  0  0  0
  182.6850  178.0670  138.5740 O   0  0  0  0  0  1  0  0  0  0  0  0
  181.7470  179.2290  138.3440 P   0  0  1  0  0  0  0  0  0  0  0  0
  181.2510  179.2360  136.7270 O   0  0  0  0  0  0  0  0  0  0  0  0
  182.6170  180.7780  138.7190 C   0  0  0  0  0  2  0  0  0  0  0  0
  183.9360  180.5020  139.0760 O   0  0  0  0  0  1  0  0  0  0  0  0
  1  3  1  0  0  0  0
  1  4  1  0  0  0  0
  2 20  1  6  0  0  0
  2  1  1  0  0  0  0
  2  3  1  0  0  0  0
  3 28  1  1  0  0  0
  4 11  2  0  0  0  0
  6 12  1  0  0  0  0
  7  8  1  0  0  0  0
  8 13  1  0  0  0  0
  9 14  2  0  0  0  0
  9 12  1  0  0  0  0
 10  7  2  0  0  0  0
 10  4  1  0  0  0  0
 11 13  1  0  0  0  0
 11  9  1  0  0  0  0
 12  5  2  0  0  0  0
 13  6  2  0  0  0  0
 16 19  2  0  0  0  0
 17 18  2  0  0  0  0
 17 20  1  0  0  0  0
 19 15  1  0  0  0  0
 19 21  1  0  0  0  0
 21 17  1  0  0  0  0
 22 23  1  0  0  0  0
 22 15  1  0  0  0  0
 23 24  1  0  0  0  0
 24 25  1  0  0  0  0
 26 25  1  0  0  0  0
 26 27  1  0  0  0  0
 28 29  1  0  0  0  0
 30 29  1  0  0  0  0
 31 34  1  6  0  0  0
 31 32  1  0  0  0  0
 31 33  1  0  0  0  0
 32 33  1  0  0  0  0
 33 30  1  1  0  0  0
 35 34  2  0  0  0  0
 36 35  1  0  0  0  0
 38 39  2  6  0  0  0
 38 37  1  0  0  0  0
 38 40  1  0  0  0  0
 38 36  1  0  0  0  0
 40 41  1  0  0  0  0
M  END
>  <MODEL>
8

>  <REMARK>
 VINA RESULT:      -6.4      4.970      8.925
  Name = 
  15 active torsions:
  status: ('A' for Active; 'I' for Inactive)
    1  A    between atoms: C_1  and  P_20
    2  A    between atoms: C_2  and  N_8
    3  A    between atoms: N_4  and  O_27
    4  A    between atoms: C_6  and  C_13
    5  A    between atoms: C_7  and  C_40
    6  A    between atoms: C_7  and  C_41
    7  A    between atoms: C_14  and  C_22
    8  A    between atoms: C_14  and  C_41
    9  A    between atoms: C_17  and  O_33
   10  A    between atoms: C_19  and  O_27
   11  A    between atoms: C_19  and  C_31
   12  A    between atoms: P_20  and  O_33
   13  A    between atoms: C_21  and  N_36
   14  A    between atoms: C_28  and  C_29
   15  A    between atoms: C_29  and  C_31
                            x       y       z     vdW  Elec       q    Type
                         _______ _______ _______ _____ _____    ______ ____

>  <TORSDO>
F 15

$$$$
=
 OpenBabel10222418423D

 41 44  0  0  1  0  0  0  0  0999 V2000
  190.7300  176.6960  139.0170 N   0  0  0  0  0  0  0  0  0  0  0  0
  189.8620  176.7000  140.2280 C   0  0  2  0  0  3  0  0  0  0  0  0
  190.0550  177.9010  139.5810 C   0  0  2  0  0  3  0  0  0  0  0  0
  191.5350  176.0020  138.0650 C   0  0  0  0  0  0  0  0  0  0  0  0
  189.0380  172.7460  135.5310 N   0  0  0  0  0  2  0  0  0  0  0  0
  191.3350  173.3390  135.7620 N   0  0  0  0  0  0  0  0  0  0  0  0
  193.7570  175.7060  137.1450 C   0  0  0  0  0  3  0  0  0  0  0  0
  193.2970  174.6170  136.3280 N   0  0  0  0  0  2  0  0  0  0  0  0
  189.7140  174.4240  137.1690 C   0  0  0  0  0  0  0  0  0  0  0  0
  192.9350  176.3380  137.9450 N   0  0  0  0  0  0  0  0  0  0  0  0
  191.0450  175.0080  137.3140 C   0  0  0  0  0  0  0  0  0  0  0  0
  189.9670  173.3680  136.1770 C   0  0  0  0  0  0  0  0  0  0  0  0
  191.9190  174.2740  136.4330 C   0  0  0  0  0  0  0  0  0  0  0  0
  188.3130  175.2690  137.2430 S   0  0  0  0  0  0  0  0  0  0  0  0
  189.4640  177.5930  145.5830 N   0  0  0  0  0  2  0  0  0  0  0  0
  191.6870  177.1100  146.0730 O   0  0  0  0  0  0  0  0  0  0  0  0
  190.2100  176.9860  142.7160 C   0  0  0  0  0  0  0  0  0  0  0  0
  188.9790  177.3610  142.8710 N   0  0  0  0  0  2  0  0  0  0  0  0
  190.7850  177.2040  145.1990 C   0  0  0  0  0  0  0  0  0  0  0  0
  190.6970  176.6430  141.4170 N   0  0  0  0  0  2  0  0  0  0  0  0
  191.1050  176.9170  143.8330 N   0  0  0  0  0  2  0  0  0  0  0  0
  189.1480  177.8510  146.8760 O   0  0  0  0  0  0  0  0  0  0  0  0
  187.8990  177.2540  147.0700 C   0  0  0  0  0  2  0  0  0  0  0  0
  186.9840  177.5640  145.8990 C   0  0  0  0  0  2  0  0  0  0  0  0
  186.0040  178.6630  146.2720 C   0  0  0  0  0  2  0  0  0  0  0  0
  184.9440  178.8160  145.1960 C   0  0  0  0  0  2  0  0  0  0  0  0
  185.4730  178.3310  143.8590 C   0  0  0  0  0  1  0  0  0  0  0  0
  188.8450  178.2350  138.7280 C   0  0  0  0  0  2  0  0  0  0  0  0
  187.5900  178.2800  139.5810 C   0  0  0  0  0  2  0  0  0  0  0  0
  186.3570  178.3160  138.6970 C   0  0  0  0  0  2  0  0  0  0  0  0
  183.9170  177.9600  138.6830 C   0  0  1  0  0  3  0  0  0  0  0  0
  184.1740  179.3900  139.1110 C   0  0  0  0  0  2  0  0  0  0  0  0
  185.1110  178.2870  139.5560 C   0  0  2  0  0  3  0  0  0  0  0  0
  182.8410  177.3730  139.5310 C   0  0  0  0  0  3  0  0  0  0  0  0
  182.4890  176.0950  139.4340 C   0  0  0  0  0  3  0  0  0  0  0  0
  183.1120  175.2430  138.5270 O   0  0  0  0  0  0  0  0  0  0  0  0
  183.0250  175.2620  135.8980 O   0  0  0  0  0  0  0  0  0  0  0  0
  182.2940  174.7340  137.1100 P   0  0  1  0  0  0  0  0  0  0  0  0
  182.2610  173.0440  137.0510 O   0  0  0  0  0  1  0  0  0  0  0  0
  180.5950  175.3740  137.1060 C   0  0  0  0  0  2  0  0  0  0  0  0
  180.5440  176.5660  136.3850 O   0  0  0  0  0  1  0  0  0  0  0  0
  1  3  1  0  0  0  0
  1  2  1  0  0  0  0
  2 20  1  1  0  0  0
  3 28  1  6  0  0  0
  3  2  1  0  0  0  0
  4  1  1  0  0  0  0
  5 12  2  0  0  0  0
  6 12  1  0  0  0  0
  6 13  2  0  0  0  0
  7 10  2  0  0  0  0
  8 13  1  0  0  0  0
  8  7  1  0  0  0  0
  9 14  2  0  0  0  0
  9 11  1  0  0  0  0
 10  4  1  0  0  0  0
 11  4  2  0  0  0  0
 12  9  1  0  0  0  0
 13 11  1  0  0  0  0
 15 22  1  0  0  0  0
 17 18  2  0  0  0  0
 17 21  1  0  0  0  0
 19 15  1  0  0  0  0
 19 16  2  0  0  0  0
 20 17  1  0  0  0  0
 21 19  1  0  0  0  0
 22 23  1  0  0  0  0
 24 25  1  0  0  0  0
 24 23  1  0  0  0  0
 26 25  1  0  0  0  0
 27 26  1  0  0  0  0
 28 29  1  0  0  0  0
 30 29  1  0  0  0  0
 31 32  1  0  0  0  0
 31 34  1  1  0  0  0
 31 33  1  0  0  0  0
 32 33  1  0  0  0  0
 33 30  1  6  0  0  0
 35 34  2  0  0  0  0
 36 35  1  0  0  0  0
 38 37  2  6  0  0  0
 38 36  1  0  0  0  0
 39 38  1  0  0  0  0
 40 38  1  0  0  0  0
 41 40  1  0  0  0  0
M  END
>  <MODEL>
9

>  <REMARK>
 VINA RESULT:      -6.4      3.218      7.047
  Name = 
  15 active torsions:
  status: ('A' for Active; 'I' for Inactive)
    1  A    between atoms: C_1  and  P_20
    2  A    between atoms: C_2  and  N_8
    3  A    between atoms: N_4  and  O_27
    4  A    between atoms: C_6  and  C_13
    5  A    between atoms: C_7  and  C_40
    6  A    between atoms: C_7  and  C_41
    7  A    between atoms: C_14  and  C_22
    8  A    between atoms: C_14  and  C_41
    9  A    between atoms: C_17  and  O_33
   10  A    between atoms: C_19  and  O_27
   11  A    between atoms: C_19  and  C_31
   12  A    between atoms: P_20  and  O_33
   13  A    between atoms: C_21  and  N_36
   14  A    between atoms: C_28  and  C_29
   15  A    between atoms: C_29  and  C_31
                            x       y       z     vdW  Elec       q    Type
                         _______ _______ _______ _____ _____    ______ ____

>  <TORSDO>
F 15

$$$$
