=
 OpenBabel10222421173D

 37 41  0  0  1  0  0  0  0  0999 V2000
  185.5150  178.2730  144.6120 C   0  0  0  0  0  0  0  0  0  0  0  0
  184.2620  178.5210  144.0290 C   0  0  0  0  0  0  0  0  0  0  0  0
  187.1690  177.9580  146.2890 N   0  0  0  0  0  0  0  0  0  0  0  0
  181.9430  179.0290  142.5360 C   0  0  0  0  0  0  0  0  0  0  0  0
  185.8990  178.2670  142.1080 S   0  0  0  0  0  0  0  0  0  0  0  0
  185.8650  178.1900  145.9640 C   0  0  0  0  0  0  0  0  0  0  0  0
  186.5140  178.1150  143.6670 C   0  0  0  0  0  0  0  0  0  0  0  0
  181.9080  179.0050  143.9470 C   0  0  0  0  0  3  0  0  0  0  0  0
  184.8950  178.3390  146.9970 N   0  0  0  0  0  1  0  0  0  0  0  0
  188.1320  177.8160  145.3310 C   0  0  0  0  0  0  0  0  0  0  0  0
  183.1630  178.7940  141.8550 C   0  0  0  0  0  0  0  0  0  0  0  0
  187.8040  177.8980  144.0110 N   0  0  0  0  0  2  0  0  0  0  0  0
  183.0610  178.7470  144.6970 C   0  0  0  0  0  3  0  0  0  0  0  0
  189.3250  177.6160  145.6700 O   0  0  0  0  0  0  0  0  0  0  0  0
  184.3090  178.5460  142.6320 C   0  0  0  0  0  0  0  0  0  0  0  0
  184.3760  179.5470  139.8710 N   0  0  0  0  0  2  0  0  0  0  0  0
  184.4350  177.6180  138.4460 C   0  0  1  0  0  3  0  0  0  0  0  0
  184.5670  179.1240  138.4960 C   0  0  0  0  0  2  0  0  0  0  0  0
  183.2040  178.8320  140.3490 C   0  0  1  0  0  3  0  0  0  0  0  0
  183.1470  177.1600  139.6280 S   0  0  0  0  0  0  0  0  0  0  0  0
  184.0460  177.2070  137.1090 N   0  0  0  0  0  2  0  0  0  0  0  0
  184.9460  175.8420  135.0340 O   0  0  0  0  0  0  0  0  0  0  0  0
  185.6320  175.0660  137.2500 O   0  0  0  0  0  0  0  0  0  0  0  0
  185.3410  176.2840  136.4140 S   0  0  0  0  0  0  0  0  0  0  0  0
  186.8280  177.2950  136.2930 C   0  0  0  0  0  2  0  0  0  0  0  0
  187.6420  177.3360  137.5160 N   0  0  0  0  0  0  0  0  0  0  0  0
  190.1160  177.0970  138.4470 S   0  0  0  0  0  0  0  0  0  0  0  0
  188.0780  178.6520  137.7440 N   0  0  0  0  0  2  0  0  0  0  0  0
  188.8160  176.4930  137.3460 C   0  0  0  0  0  2  0  0  0  0  0  0
  189.1310  178.5850  138.7420 C   0  0  0  0  0  2  0  0  0  0  0  0
  180.1330  180.5400  142.2450 O   0  0  0  0  0  1  0  0  0  0  0  0
  180.6960  179.3540  141.7670 C   0  0  2  0  0  3  0  0  0  0  0  0
  179.6810  178.2220  141.8340 C   0  0  0  0  0  2  0  0  0  0  0  0
  179.2710  176.2660  140.4650 C   0  0  0  0  0  0  0  0  0  0  0  0
  178.9310  175.0100  140.4090 C   0  0  0  0  0  3  0  0  0  0  0  0
  179.6370  174.0090  141.2520 C   0  0  0  0  0  1  0  0  0  0  0  0
  179.6020  177.5250  140.5200 C   0  0  0  0  0  3  0  0  0  0  0  0
  1  6  1  0  0  0  0
  2  1  1  0  0  0  0
  2 13  1  0  0  0  0
  4  8  1  0  0  0  0
  5 15  1  0  0  0  0
  5  7  1  0  0  0  0
  6  3  2  0  0  0  0
  6  9  1  0  0  0  0
  7 12  1  0  0  0  0
  7  1  2  0  0  0  0
  8 13  2  0  0  0  0
 10 14  2  0  0  0  0
 10  3  1  0  0  0  0
 11  4  2  0  0  0  0
 11 15  1  0  0  0  0
 12 10  1  0  0  0  0
 15  2  2  0  0  0  0
 16 19  1  0  0  0  0
 17 21  1  6  0  0  0
 17 18  1  0  0  0  0
 17 20  1  0  0  0  0
 18 16  1  0  0  0  0
 19 11  1  1  0  0  0
 20 19  1  0  0  0  0
 22 24  2  0  0  0  0
 24 21  1  0  0  0  0
 24 23  2  0  0  0  0
 25 24  1  0  0  0  0
 25 26  1  0  0  0  0
 26 28  1  0  0  0  0
 27 30  1  0  0  0  0
 28 30  1  0  0  0  0
 29 26  1  0  0  0  0
 29 27  1  0  0  0  0
 32 33  1  0  0  0  0
 32 31  1  1  0  0  0
 32  4  1  0  0  0  0
 34 37  2  0  0  0  0
 35 34  2  0  0  0  0
 35 36  1  0  0  0  0
 37 33  1  0  0  0  0
M  END
>  <MODEL>
1

>  <REMARK>
 VINA RESULT:      -8.5      0.000      0.000
  Name = 
  8 active torsions:
  status: ('A' for Active; 'I' for Inactive)
    1  A    between atoms: C_6  and  C_31
    2  A    between atoms: C_6  and  C_34
    3  A    between atoms: C_7  and  N_21
    4  A    between atoms: C_9  and  C_31
    5  A    between atoms: N_11  and  C_27
    6  A    between atoms: C_20  and  C_25
    7  A    between atoms: N_21  and  S_36
    8  A    between atoms: C_27  and  S_36
                            x       y       z     vdW  Elec       q    Type
                         _______ _______ _______ _____ _____    ______ ____

>  <TORSDO>
F 8

$$$$
=
 OpenBabel10222421173D

 37 41  0  0  1  0  0  0  0  0999 V2000
  185.9450  178.2000  144.6580 C   0  0  0  0  0  0  0  0  0  0  0  0
  184.6490  178.4790  144.1960 C   0  0  0  0  0  0  0  0  0  0  0  0
  187.7430  177.8440  146.1710 N   0  0  0  0  0  0  0  0  0  0  0  0
  182.2110  179.0420  142.9310 C   0  0  0  0  0  0  0  0  0  0  0  0
  186.0870  178.1830  142.1290 S   0  0  0  0  0  0  0  0  0  0  0  0
  186.4200  178.1080  145.9700 C   0  0  0  0  0  0  0  0  0  0  0  0
  186.8450  178.0160  143.6220 C   0  0  0  0  0  0  0  0  0  0  0  0
  182.3100  179.0190  144.3390 C   0  0  0  0  0  3  0  0  0  0  0  0
  185.5570  178.2810  147.0910 N   0  0  0  0  0  1  0  0  0  0  0  0
  188.6070  177.6780  145.1250 C   0  0  0  0  0  0  0  0  0  0  0  0
  183.3540  178.7770  142.1370 C   0  0  0  0  0  0  0  0  0  0  0  0
  188.1560  177.7680  143.8420 N   0  0  0  0  0  2  0  0  0  0  0  0
  183.5230  178.7340  144.9760 C   0  0  0  0  0  3  0  0  0  0  0  0
  189.8220  177.4490  145.3490 O   0  0  0  0  0  0  0  0  0  0  0  0
  184.5620  178.5010  142.8010 C   0  0  0  0  0  0  0  0  0  0  0  0
  184.3020  179.6350  140.0530 N   0  0  0  0  0  2  0  0  0  0  0  0
  184.4110  177.7160  138.6190 C   0  0  1  0  0  3  0  0  0  0  0  0
  184.4040  179.2270  138.6640 C   0  0  0  0  0  2  0  0  0  0  0  0
  183.2520  178.8140  140.6340 C   0  0  1  0  0  3  0  0  0  0  0  0
  183.2860  177.1420  139.9120 S   0  0  0  0  0  0  0  0  0  0  0  0
  183.9410  177.2650  137.3210 N   0  0  0  0  0  2  0  0  0  0  0  0
  184.8710  176.2210  135.0790 O   0  0  0  0  0  0  0  0  0  0  0  0
  185.4780  175.0900  137.1610 O   0  0  0  0  0  0  0  0  0  0  0  0
  185.2360  176.4310  136.5210 S   0  0  0  0  0  0  0  0  0  0  0  0
  186.7460  177.4120  136.5970 C   0  0  0  0  0  2  0  0  0  0  0  0
  187.5690  177.1770  137.7910 N   0  0  0  0  0  0  0  0  0  0  0  0
  190.0630  176.8620  138.6420 S   0  0  0  0  0  0  0  0  0  0  0  0
  187.9200  178.4100  138.3680 N   0  0  0  0  0  2  0  0  0  0  0  0
  188.7940  176.4910  137.4100 C   0  0  0  0  0  2  0  0  0  0  0  0
  188.9860  178.1470  139.3190 C   0  0  0  0  0  2  0  0  0  0  0  0
  180.3390  180.5050  142.9200 O   0  0  0  0  0  1  0  0  0  0  0  0
  180.9040  179.3970  142.2830 C   0  0  2  0  0  3  0  0  0  0  0  0
  179.9310  178.2270  142.2960 C   0  0  0  0  0  2  0  0  0  0  0  0
  179.5850  178.7340  139.9520 C   0  0  0  0  0  0  0  0  0  0  0  0
  180.0670  179.2260  138.8470 C   0  0  0  0  0  3  0  0  0  0  0  0
  180.6600  180.5880  138.8350 C   0  0  0  0  0  1  0  0  0  0  0  0
  179.1050  178.2340  141.0560 C   0  0  0  0  0  3  0  0  0  0  0  0
  1  6  1  0  0  0  0
  2  1  1  0  0  0  0
  2 13  1  0  0  0  0
  4  8  1  0  0  0  0
  5 15  1  0  0  0  0
  5  7  1  0  0  0  0
  6  3  2  0  0  0  0
  6  9  1  0  0  0  0
  7 12  1  0  0  0  0
  7  1  2  0  0  0  0
  8 13  2  0  0  0  0
 10 14  2  0  0  0  0
 10  3  1  0  0  0  0
 11 15  1  0  0  0  0
 11  4  2  0  0  0  0
 12 10  1  0  0  0  0
 15  2  2  0  0  0  0
 16 19  1  0  0  0  0
 17 21  1  6  0  0  0
 17 18  1  0  0  0  0
 17 20  1  0  0  0  0
 18 16  1  0  0  0  0
 19 11  1  1  0  0  0
 20 19  1  0  0  0  0
 22 24  2  0  0  0  0
 24 25  1  0  0  0  0
 24 23  2  0  0  0  0
 24 21  1  0  0  0  0
 25 26  1  0  0  0  0
 26 28  1  0  0  0  0
 27 30  1  0  0  0  0
 28 30  1  0  0  0  0
 29 26  1  0  0  0  0
 29 27  1  0  0  0  0
 32 33  1  0  0  0  0
 32 31  1  1  0  0  0
 32  4  1  0  0  0  0
 34 37  2  0  0  0  0
 35 34  2  0  0  0  0
 36 35  1  0  0  0  0
 37 33  1  0  0  0  0
M  END
>  <MODEL>
2

>  <REMARK>
 VINA RESULT:      -8.4      1.051      1.522
  Name = 
  8 active torsions:
  status: ('A' for Active; 'I' for Inactive)
    1  A    between atoms: C_6  and  C_31
    2  A    between atoms: C_6  and  C_34
    3  A    between atoms: C_7  and  N_21
    4  A    between atoms: C_9  and  C_31
    5  A    between atoms: N_11  and  C_27
    6  A    between atoms: C_20  and  C_25
    7  A    between atoms: N_21  and  S_36
    8  A    between atoms: C_27  and  S_36
                            x       y       z     vdW  Elec       q    Type
                         _______ _______ _______ _____ _____    ______ ____

>  <TORSDO>
F 8

$$$$
=
 OpenBabel10222421173D

 37 41  0  0  1  0  0  0  0  0999 V2000
  184.2810  178.5080  143.0720 C   0  0  0  0  0  0  0  0  0  0  0  0
  185.3130  178.2110  143.9760 C   0  0  0  0  0  0  0  0  0  0  0  0
  182.1060  179.0270  142.2650 N   0  0  0  0  0  0  0  0  0  0  0  0
  187.5860  177.5490  145.4790 C   0  0  0  0  0  0  0  0  0  0  0  0
  186.3520  178.1260  141.6640 S   0  0  0  0  0  0  0  0  0  0  0  0
  182.9330  178.7850  143.3230 C   0  0  0  0  0  0  0  0  0  0  0  0
  184.7120  178.4940  141.7570 C   0  0  0  0  0  0  0  0  0  0  0  0
  186.3440  177.7870  146.1070 C   0  0  0  0  0  3  0  0  0  0  0  0
  182.4120  178.8220  144.6490 N   0  0  0  0  0  1  0  0  0  0  0  0
  182.5630  178.9960  140.9780 C   0  0  0  0  0  0  0  0  0  0  0  0
  187.6950  177.6440  144.0700 C   0  0  0  0  0  0  0  0  0  0  0  0
  183.8730  178.7240  140.7210 N   0  0  0  0  0  2  0  0  0  0  0  0
  185.2070  178.1220  145.3630 C   0  0  0  0  0  3  0  0  0  0  0  0
  181.7690  179.2110  140.0280 O   0  0  0  0  0  0  0  0  0  0  0  0
  186.5370  177.9740  143.3440 C   0  0  0  0  0  0  0  0  0  0  0  0
  189.1850  175.9640  143.1040 N   0  0  0  0  0  2  0  0  0  0  0  0
  189.8900  176.9240  141.0230 C   0  0  1  0  0  3  0  0  0  0  0  0
  190.2080  175.8890  142.0780 C   0  0  0  0  0  2  0  0  0  0  0  0
  189.0180  177.3780  143.3980 C   0  0  1  0  0  3  0  0  0  0  0  0
  189.2170  178.3650  141.8800 S   0  0  0  0  0  0  0  0  0  0  0  0
  191.1050  177.2920  140.3180 N   0  0  0  0  0  2  0  0  0  0  0  0
  190.6410  175.2410  138.7200 O   0  0  0  0  0  0  0  0  0  0  0  0
  192.3250  176.8560  137.9860 O   0  0  0  0  0  0  0  0  0  0  0  0
  191.0040  176.6980  138.6900 S   0  0  0  0  0  0  0  0  0  0  0  0
  189.7300  177.5920  137.7820 C   0  0  0  0  0  2  0  0  0  0  0  0
  188.3830  177.0160  137.8910 N   0  0  0  0  0  0  0  0  0  0  0  0
  185.8170  177.4640  137.3800 S   0  0  0  0  0  0  0  0  0  0  0  0
  188.1000  176.2640  136.7370 N   0  0  0  0  0  2  0  0  0  0  0  0
  187.4020  178.0860  137.9840 C   0  0  0  0  0  2  0  0  0  0  0  0
  186.6710  176.0050  136.7370 C   0  0  0  0  0  2  0  0  0  0  0  0
  188.3890  176.9640  147.6370 O   0  0  0  0  0  1  0  0  0  0  0  0
  188.7720  177.1470  146.3060 C   0  0  2  0  0  3  0  0  0  0  0  0
  189.8960  178.1700  146.2160 C   0  0  0  0  0  2  0  0  0  0  0  0
  191.7140  176.5700  146.2610 C   0  0  0  0  0  0  0  0  0  0  0  0
  192.3070  175.5920  146.8840 C   0  0  0  0  0  3  0  0  0  0  0  0
  192.6840  175.7390  148.3140 C   0  0  0  0  0  1  0  0  0  0  0  0
  191.1150  177.5430  145.6340 C   0  0  0  0  0  3  0  0  0  0  0  0
  1  6  1  0  0  0  0
  1  2  1  0  0  0  0
  2 13  1  0  0  0  0
  3  6  2  0  0  0  0
  4  8  1  0  0  0  0
  4 32  1  0  0  0  0
  5  7  1  0  0  0  0
  5 15  1  0  0  0  0
  6  9  1  0  0  0  0
  7  1  2  0  0  0  0
 10  3  1  0  0  0  0
 11  4  2  0  0  0  0
 12 10  1  0  0  0  0
 12  7  1  0  0  0  0
 13  8  2  0  0  0  0
 14 10  2  0  0  0  0
 15  2  2  0  0  0  0
 15 11  1  0  0  0  0
 16 19  1  0  0  0  0
 17 21  1  1  0  0  0
 17 20  1  0  0  0  0
 17 18  1  0  0  0  0
 18 16  1  0  0  0  0
 19 11  1  6  0  0  0
 20 19  1  0  0  0  0
 23 24  2  0  0  0  0
 24 22  2  0  0  0  0
 24 21  1  0  0  0  0
 25 26  1  0  0  0  0
 25 24  1  0  0  0  0
 26 29  1  0  0  0  0
 27 29  1  0  0  0  0
 28 26  1  0  0  0  0
 30 28  1  0  0  0  0
 30 27  1  0  0  0  0
 32 31  1  1  0  0  0
 33 32  1  0  0  0  0
 34 35  2  0  0  0  0
 35 36  1  0  0  0  0
 37 33  1  0  0  0  0
 37 34  2  0  0  0  0
M  END
>  <MODEL>
3

>  <REMARK>
 VINA RESULT:      -8.3      2.860      7.268
  Name = 
  8 active torsions:
  status: ('A' for Active; 'I' for Inactive)
    1  A    between atoms: C_6  and  C_31
    2  A    between atoms: C_6  and  C_34
    3  A    between atoms: C_7  and  N_21
    4  A    between atoms: C_9  and  C_31
    5  A    between atoms: N_11  and  C_27
    6  A    between atoms: C_20  and  C_25
    7  A    between atoms: N_21  and  S_36
    8  A    between atoms: C_27  and  S_36
                            x       y       z     vdW  Elec       q    Type
                         _______ _______ _______ _____ _____    ______ ____

>  <TORSDO>
F 8

$$$$
=
 OpenBabel10222421173D

 37 41  0  0  1  0  0  0  0  0999 V2000
  185.6590  178.3760  144.8740 C   0  0  0  0  0  0  0  0  0  0  0  0
  187.0440  178.1540  144.9360 C   0  0  0  0  0  0  0  0  0  0  0  0
  183.4220  178.7150  145.6020 N   0  0  0  0  0  0  0  0  0  0  0  0
  189.7950  177.6690  144.6860 C   0  0  0  0  0  0  0  0  0  0  0  0
  186.4460  178.2050  142.4720 S   0  0  0  0  0  0  0  0  0  0  0  0
  184.7370  178.5280  145.9150 C   0  0  0  0  0  0  0  0  0  0  0  0
  185.1910  178.4250  143.5730 C   0  0  0  0  0  0  0  0  0  0  0  0
  189.1900  177.7840  145.9570 C   0  0  0  0  0  3  0  0  0  0  0  0
  185.1390  178.4930  147.2810 N   0  0  0  0  0  1  0  0  0  0  0  0
  182.9930  178.7480  144.3060 C   0  0  0  0  0  0  0  0  0  0  0  0
  189.0090  177.7990  143.5150 C   0  0  0  0  0  0  0  0  0  0  0  0
  183.8810  178.5990  143.2830 N   0  0  0  0  0  2  0  0  0  0  0  0
  187.8190  178.0310  146.0880 C   0  0  0  0  0  3  0  0  0  0  0  0
  181.7710  178.9100  144.0570 O   0  0  0  0  0  0  0  0  0  0  0  0
  187.6330  178.0390  143.6730 C   0  0  0  0  0  0  0  0  0  0  0  0
  189.4540  176.3310  141.6120 N   0  0  0  0  0  2  0  0  0  0  0  0
  188.9190  177.6700  139.6950 C   0  0  1  0  0  3  0  0  0  0  0  0
  189.6720  176.4510  140.1820 C   0  0  0  0  0  2  0  0  0  0  0  0
  189.6520  177.6640  142.1590 C   0  0  1  0  0  3  0  0  0  0  0  0
  189.0420  178.9220  140.9910 S   0  0  0  0  0  0  0  0  0  0  0  0
  189.5300  178.1630  138.4720 N   0  0  0  0  0  2  0  0  0  0  0  0
  188.8030  177.5730  136.0020 O   0  0  0  0  0  0  0  0  0  0  0  0
  188.0020  179.6970  136.9130 O   0  0  0  0  0  0  0  0  0  0  0  0
  188.3090  178.2610  137.2430 S   0  0  0  0  0  0  0  0  0  0  0  0
  186.8030  177.4400  137.7970 C   0  0  0  0  0  2  0  0  0  0  0  0
  185.6080  178.2950  137.8090 N   0  0  0  0  0  0  0  0  0  0  0  0
  182.9940  178.3120  138.2680 S   0  0  0  0  0  0  0  0  0  0  0  0
  185.4610  178.8760  139.0800 N   0  0  0  0  0  2  0  0  0  0  0  0
  184.4280  177.4870  137.5430 C   0  0  0  0  0  2  0  0  0  0  0  0
  184.1180  179.4250  139.1450 C   0  0  0  0  0  2  0  0  0  0  0  0
  191.9030  178.3250  143.8070 O   0  0  0  0  0  1  0  0  0  0  0  0
  191.2600  177.3580  144.5860 C   0  0  2  0  0  3  0  0  0  0  0  0
  191.5040  175.9690  144.0130 C   0  0  0  0  0  2  0  0  0  0  0  0
  192.0440  175.3190  146.2840 C   0  0  0  0  0  0  0  0  0  0  0  0
  191.8590  175.5080  147.5590 C   0  0  0  0  0  3  0  0  0  0  0  0
  192.0080  176.8690  148.1390 C   0  0  0  0  0  1  0  0  0  0  0  0
  192.2220  175.1240  145.0070 C   0  0  0  0  0  3  0  0  0  0  0  0
  1  2  1  0  0  0  0
  1  6  1  0  0  0  0
  2 13  1  0  0  0  0
  3  6  2  0  0  0  0
  4  8  1  0  0  0  0
  5  7  1  0  0  0  0
  5 15  1  0  0  0  0
  6  9  1  0  0  0  0
  7  1  2  0  0  0  0
  8 13  2  0  0  0  0
 10  3  1  0  0  0  0
 11 15  1  0  0  0  0
 11  4  2  0  0  0  0
 12  7  1  0  0  0  0
 12 10  1  0  0  0  0
 14 10  2  0  0  0  0
 15  2  2  0  0  0  0
 16 19  1  0  0  0  0
 17 21  1  6  0  0  0
 17 18  1  0  0  0  0
 17 20  1  0  0  0  0
 18 16  1  0  0  0  0
 19 11  1  1  0  0  0
 20 19  1  0  0  0  0
 22 24  2  0  0  0  0
 23 24  2  0  0  0  0
 24 25  1  0  0  0  0
 24 21  1  0  0  0  0
 25 26  1  0  0  0  0
 26 28  1  0  0  0  0
 27 30  1  0  0  0  0
 28 30  1  0  0  0  0
 29 26  1  0  0  0  0
 29 27  1  0  0  0  0
 32 31  1  6  0  0  0
 32  4  1  0  0  0  0
 33 32  1  0  0  0  0
 33 37  1  0  0  0  0
 34 35  2  0  0  0  0
 35 36  1  0  0  0  0
 37 34  2  0  0  0  0
M  END
>  <MODEL>
4

>  <REMARK>
 VINA RESULT:      -8.2      2.935      7.269
  Name = 
  8 active torsions:
  status: ('A' for Active; 'I' for Inactive)
    1  A    between atoms: C_6  and  C_31
    2  A    between atoms: C_6  and  C_34
    3  A    between atoms: C_7  and  N_21
    4  A    between atoms: C_9  and  C_31
    5  A    between atoms: N_11  and  C_27
    6  A    between atoms: C_20  and  C_25
    7  A    between atoms: N_21  and  S_36
    8  A    between atoms: C_27  and  S_36
                            x       y       z     vdW  Elec       q    Type
                         _______ _______ _______ _____ _____    ______ ____

>  <TORSDO>
F 8

$$$$
=
 OpenBabel10222421173D

 37 41  0  0  1  0  0  0  0  0999 V2000
  185.5780  178.2440  144.6580 C   0  0  0  0  0  0  0  0  0  0  0  0
  184.3290  178.5140  144.0750 C   0  0  0  0  0  0  0  0  0  0  0  0
  187.2270  177.9020  146.3340 N   0  0  0  0  0  0  0  0  0  0  0  0
  182.0180  179.0610  142.5840 C   0  0  0  0  0  0  0  0  0  0  0  0
  185.9570  178.2210  142.1530 S   0  0  0  0  0  0  0  0  0  0  0  0
  185.9270  178.1580  146.0100 C   0  0  0  0  0  0  0  0  0  0  0  0
  186.5720  178.0630  143.7120 C   0  0  0  0  0  0  0  0  0  0  0  0
  181.9840  179.0430  143.9950 C   0  0  0  0  0  3  0  0  0  0  0  0
  184.9620  178.3300  147.0430 N   0  0  0  0  0  1  0  0  0  0  0  0
  188.1860  177.7380  145.3750 C   0  0  0  0  0  0  0  0  0  0  0  0
  183.2320  178.8010  141.9030 C   0  0  0  0  0  0  0  0  0  0  0  0
  187.8580  177.8220  144.0550 N   0  0  0  0  0  2  0  0  0  0  0  0
  183.1330  178.7660  144.7450 C   0  0  0  0  0  3  0  0  0  0  0  0
  189.3750  177.5160  145.7130 O   0  0  0  0  0  0  0  0  0  0  0  0
  184.3740  178.5330  142.6780 C   0  0  0  0  0  0  0  0  0  0  0  0
  184.4410  179.5490  139.9140 N   0  0  0  0  0  2  0  0  0  0  0  0
  184.5050  177.6150  138.4970 C   0  0  1  0  0  3  0  0  0  0  0  0
  184.6320  179.1220  138.5400 C   0  0  0  0  0  2  0  0  0  0  0  0
  183.2720  178.8330  140.3970 C   0  0  1  0  0  3  0  0  0  0  0  0
  183.2190  177.1580  139.6820 S   0  0  0  0  0  0  0  0  0  0  0  0
  184.1160  177.1970  137.1620 N   0  0  0  0  0  2  0  0  0  0  0  0
  186.6870  176.6500  136.8920 O   0  0  0  0  0  0  0  0  0  0  0  0
  185.2180  175.9960  135.0490 O   0  0  0  0  0  0  0  0  0  0  0  0
  185.3260  176.1160  136.5460 S   0  0  0  0  0  0  0  0  0  0  0  0
  185.1400  174.4860  137.2910 C   0  0  0  0  0  2  0  0  0  0  0  0
  184.1380  173.6280  136.6430 N   0  0  0  0  0  0  0  0  0  0  0  0
  182.7950  171.3510  136.8840 S   0  0  0  0  0  0  0  0  0  0  0  0
  182.8530  174.0020  137.0730 N   0  0  0  0  0  2  0  0  0  0  0  0
  184.3590  172.2430  137.0320 C   0  0  0  0  0  2  0  0  0  0  0  0
  181.9460  172.9360  136.6830 C   0  0  0  0  0  2  0  0  0  0  0  0
  180.1310  180.4940  142.4120 O   0  0  0  0  0  1  0  0  0  0  0  0
  180.7760  179.4080  141.8150 C   0  0  2  0  0  3  0  0  0  0  0  0
  179.8280  178.2220  141.7100 C   0  0  0  0  0  2  0  0  0  0  0  0
  179.6910  178.7770  139.3560 C   0  0  0  0  0  0  0  0  0  0  0  0
  180.2660  179.2990  138.3100 C   0  0  0  0  0  3  0  0  0  0  0  0
  180.8390  180.6680  138.3820 C   0  0  0  0  0  1  0  0  0  0  0  0
  179.1190  178.2470  140.4010 C   0  0  0  0  0  3  0  0  0  0  0  0
  1  6  1  0  0  0  0
  2  1  1  0  0  0  0
  2 13  1  0  0  0  0
  4  8  1  0  0  0  0
  5 15  1  0  0  0  0
  5  7  1  0  0  0  0
  6  3  2  0  0  0  0
  6  9  1  0  0  0  0
  7 12  1  0  0  0  0
  7  1  2  0  0  0  0
  8 13  2  0  0  0  0
 10 14  2  0  0  0  0
 10  3  1  0  0  0  0
 11  4  2  0  0  0  0
 11 15  1  0  0  0  0
 12 10  1  0  0  0  0
 15  2  2  0  0  0  0
 16 19  1  0  0  0  0
 17 21  1  6  0  0  0
 17 18  1  0  0  0  0
 17 20  1  0  0  0  0
 18 16  1  0  0  0  0
 19 11  1  1  0  0  0
 20 19  1  0  0  0  0
 23 24  2  0  0  0  0
 24 22  2  0  0  0  0
 24 21  1  0  0  0  0
 24 25  1  0  0  0  0
 26 29  1  0  0  0  0
 26 28  1  0  0  0  0
 26 25  1  0  0  0  0
 27 29  1  0  0  0  0
 30 27  1  0  0  0  0
 30 28  1  0  0  0  0
 32 31  1  1  0  0  0
 32  4  1  0  0  0  0
 33 32  1  0  0  0  0
 34 37  2  0  0  0  0
 35 36  1  0  0  0  0
 35 34  2  0  0  0  0
 37 33  1  0  0  0  0
M  END
>  <MODEL>
5

>  <REMARK>
 VINA RESULT:      -8.0      2.045      3.301
  Name = 
  8 active torsions:
  status: ('A' for Active; 'I' for Inactive)
    1  A    between atoms: C_6  and  C_31
    2  A    between atoms: C_6  and  C_34
    3  A    between atoms: C_7  and  N_21
    4  A    between atoms: C_9  and  C_31
    5  A    between atoms: N_11  and  C_27
    6  A    between atoms: C_20  and  C_25
    7  A    between atoms: N_21  and  S_36
    8  A    between atoms: C_27  and  S_36
                            x       y       z     vdW  Elec       q    Type
                         _______ _______ _______ _____ _____    ______ ____

>  <TORSDO>
F 8

$$$$
=
 OpenBabel10222421173D

 37 41  0  0  1  0  0  0  0  0999 V2000
  189.0200  177.2460  145.1930 C   0  0  0  0  0  0  0  0  0  0  0  0
  187.9820  177.5080  144.2840 C   0  0  0  0  0  0  0  0  0  0  0  0
  190.1380  176.9210  147.2650 N   0  0  0  0  0  0  0  0  0  0  0  0
  186.1770  178.0370  142.2040 C   0  0  0  0  0  0  0  0  0  0  0  0
  190.0820  177.2080  142.8930 S   0  0  0  0  0  0  0  0  0  0  0  0
  188.9790  177.1710  146.5890 C   0  0  0  0  0  0  0  0  0  0  0  0
  190.2380  177.0620  144.5630 C   0  0  0  0  0  0  0  0  0  0  0  0
  185.7520  178.0280  143.5510 C   0  0  0  0  0  3  0  0  0  0  0  0
  187.7640  177.3460  147.3120 N   0  0  0  0  0  1  0  0  0  0  0  0
  191.3260  176.7540  146.6120 C   0  0  0  0  0  0  0  0  0  0  0  0
  187.5330  177.7750  141.8900 C   0  0  0  0  0  0  0  0  0  0  0  0
  191.3780  176.8280  145.2520 N   0  0  0  0  0  2  0  0  0  0  0  0
  186.6470  177.7600  144.5920 C   0  0  0  0  0  3  0  0  0  0  0  0
  192.3750  176.5390  147.2690 O   0  0  0  0  0  0  0  0  0  0  0  0
  188.4140  177.5170  142.9540 C   0  0  0  0  0  0  0  0  0  0  0  0
  188.5500  179.0910  140.0980 N   0  0  0  0  0  2  0  0  0  0  0  0
  190.2040  177.6310  139.1570 C   0  0  1  0  0  3  0  0  0  0  0  0
  189.3600  178.8630  138.9160 C   0  0  0  0  0  2  0  0  0  0  0  0
  187.9900  177.7970  140.4540 C   0  0  1  0  0  3  0  0  0  0  0  0
  189.1910  176.4730  140.1050 S   0  0  0  0  0  0  0  0  0  0  0  0
  190.5730  177.0360  137.8850 N   0  0  0  0  0  2  0  0  0  0  0  0
  191.8360  174.7630  138.3480 O   0  0  0  0  0  0  0  0  0  0  0  0
  192.8660  176.7990  139.2270 O   0  0  0  0  0  0  0  0  0  0  0  0
  192.0910  176.2180  138.0750 S   0  0  0  0  0  0  0  0  0  0  0  0
  193.0660  176.3580  136.5660 C   0  0  0  0  0  2  0  0  0  0  0  0
  194.4050  175.7570  136.6440 N   0  0  0  0  0  0  0  0  0  0  0  0
  196.0300  173.9980  135.4990 S   0  0  0  0  0  0  0  0  0  0  0  0
  195.3080  176.5260  135.8910 N   0  0  0  0  0  2  0  0  0  0  0  0
  194.3700  174.4170  136.0770 C   0  0  0  0  0  2  0  0  0  0  0  0
  196.5100  175.7280  135.7210 C   0  0  0  0  0  2  0  0  0  0  0  0
  185.1790  179.7540  140.9000 O   0  0  0  0  0  1  0  0  0  0  0  0
  185.1980  178.3740  141.1180 C   0  0  2  0  0  3  0  0  0  0  0  0
  183.7980  177.8710  141.4430 C   0  0  0  0  0  2  0  0  0  0  0  0
  182.0590  179.0360  142.6620 C   0  0  0  0  0  0  0  0  0  0  0  0
  181.2510  179.0550  143.6830 C   0  0  0  0  0  3  0  0  0  0  0  0
  180.3660  177.8920  143.9540 C   0  0  0  0  0  1  0  0  0  0  0  0
  182.8750  179.0210  141.6450 C   0  0  0  0  0  3  0  0  0  0  0  0
  1  6  1  0  0  0  0
  2 13  1  0  0  0  0
  2  1  1  0  0  0  0
  4  8  1  0  0  0  0
  5 15  1  0  0  0  0
  5  7  1  0  0  0  0
  6  3  2  0  0  0  0
  6  9  1  0  0  0  0
  7  1  2  0  0  0  0
  7 12  1  0  0  0  0
  8 13  2  0  0  0  0
 10  3  1  0  0  0  0
 10 14  2  0  0  0  0
 11  4  2  0  0  0  0
 11 15  1  0  0  0  0
 12 10  1  0  0  0  0
 15  2  2  0  0  0  0
 16 19  1  0  0  0  0
 17 21  1  6  0  0  0
 17 20  1  0  0  0  0
 18 17  1  0  0  0  0
 18 16  1  0  0  0  0
 19 11  1  1  0  0  0
 20 19  1  0  0  0  0
 21 24  1  0  0  0  0
 24 22  2  0  0  0  0
 24 23  2  0  0  0  0
 25 26  1  0  0  0  0
 25 24  1  0  0  0  0
 27 30  1  0  0  0  0
 27 29  1  0  0  0  0
 28 26  1  0  0  0  0
 29 26  1  0  0  0  0
 30 28  1  0  0  0  0
 32 31  1  1  0  0  0
 32 33  1  0  0  0  0
 32  4  1  0  0  0  0
 33 37  1  0  0  0  0
 34 35  2  0  0  0  0
 35 36  1  0  0  0  0
 37 34  2  0  0  0  0
M  END
>  <MODEL>
6

>  <REMARK>
 VINA RESULT:      -7.9      3.817      5.294
  Name = 
  8 active torsions:
  status: ('A' for Active; 'I' for Inactive)
    1  A    between atoms: C_6  and  C_31
    2  A    between atoms: C_6  and  C_34
    3  A    between atoms: C_7  and  N_21
    4  A    between atoms: C_9  and  C_31
    5  A    between atoms: N_11  and  C_27
    6  A    between atoms: C_20  and  C_25
    7  A    between atoms: N_21  and  S_36
    8  A    between atoms: C_27  and  S_36
                            x       y       z     vdW  Elec       q    Type
                         _______ _______ _______ _____ _____    ______ ____

>  <TORSDO>
F 8

$$$$
=
 OpenBabel10222421173D

 37 41  0  0  1  0  0  0  0  0999 V2000
  187.2980  178.2010  139.4140 C   0  0  0  0  0  0  0  0  0  0  0  0
  188.6380  177.8100  139.2650 C   0  0  0  0  0  0  0  0  0  0  0  0
  185.0800  178.8220  138.8280 N   0  0  0  0  0  0  0  0  0  0  0  0
  191.3460  177.0860  139.3380 C   0  0  0  0  0  0  0  0  0  0  0  0
  188.2600  178.1060  141.7550 S   0  0  0  0  0  0  0  0  0  0  0  0
  186.3230  178.4200  138.4350 C   0  0  0  0  0  0  0  0  0  0  0  0
  186.9520  178.4020  140.7390 C   0  0  0  0  0  0  0  0  0  0  0  0
  190.6560  177.1940  138.1110 C   0  0  0  0  0  3  0  0  0  0  0  0
  186.5990  178.2320  137.0500 N   0  0  0  0  0  1  0  0  0  0  0  0
  184.7750  179.0210  140.1440 C   0  0  0  0  0  0  0  0  0  0  0  0
  190.6690  177.3440  140.5550 C   0  0  0  0  0  0  0  0  0  0  0  0
  185.7170  178.8130  141.1070 N   0  0  0  0  0  2  0  0  0  0  0  0
  189.3040  177.5500  138.0680 C   0  0  0  0  0  3  0  0  0  0  0  0
  183.6220  179.4040  140.4670 O   0  0  0  0  0  0  0  0  0  0  0  0
  189.3130  177.7080  140.4850 C   0  0  0  0  0  0  0  0  0  0  0  0
  191.4030  178.5090  142.5750 N   0  0  0  0  0  2  0  0  0  0  0  0
  190.8380  177.0100  144.3600 C   0  0  1  0  0  3  0  0  0  0  0  0
  191.6960  178.1900  143.9600 C   0  0  0  0  0  2  0  0  0  0  0  0
  191.4080  177.2400  141.8640 C   0  0  1  0  0  3  0  0  0  0  0  0
  190.7310  175.9220  142.9220 S   0  0  0  0  0  0  0  0  0  0  0  0
  191.4630  176.3060  145.4660 N   0  0  0  0  0  2  0  0  0  0  0  0
  191.6710  177.2880  147.9100 O   0  0  0  0  0  0  0  0  0  0  0  0
  189.9710  175.5670  147.5510 O   0  0  0  0  0  0  0  0  0  0  0  0
  190.6580  176.7570  146.9360 S   0  0  0  0  0  0  0  0  0  0  0  0
  189.4420  178.0460  146.6080 C   0  0  0  0  0  2  0  0  0  0  0  0
  188.0540  177.5700  146.5240 N   0  0  0  0  0  0  0  0  0  0  0  0
  185.5280  178.2570  146.9610 S   0  0  0  0  0  0  0  0  0  0  0  0
  187.5300  177.8750  145.2560 N   0  0  0  0  0  2  0  0  0  0  0  0
  187.2450  178.2530  147.5230 C   0  0  0  0  0  2  0  0  0  0  0  0
  186.0910  177.6990  145.3350 C   0  0  0  0  0  2  0  0  0  0  0  0
  193.5490  177.8220  139.8380 O   0  0  0  0  0  1  0  0  0  0  0  0
  192.8080  176.7460  139.3410 C   0  0  2  0  0  3  0  0  0  0  0  0
  193.3010  176.3610  137.9530 C   0  0  0  0  0  2  0  0  0  0  0  0
  192.4850  174.2150  137.1820 C   0  0  0  0  0  0  0  0  0  0  0  0
  191.5790  173.5510  136.5230 C   0  0  0  0  0  3  0  0  0  0  0  0
  190.1390  173.7480  136.8310 C   0  0  0  0  0  1  0  0  0  0  0  0
  193.3960  174.8790  137.8360 C   0  0  0  0  0  3  0  0  0  0  0  0
  1  7  2  0  0  0  0
  2  1  1  0  0  0  0
  2 15  1  0  0  0  0
  3 10  1  0  0  0  0
  4 32  1  0  0  0  0
  4 11  1  0  0  0  0
  6  3  2  0  0  0  0
  6  1  1  0  0  0  0
  7 12  1  0  0  0  0
  7  5  1  0  0  0  0
  8  4  2  0  0  0  0
  9  6  1  0  0  0  0
 10 14  2  0  0  0  0
 10 12  1  0  0  0  0
 13  8  1  0  0  0  0
 13  2  2  0  0  0  0
 15 11  2  0  0  0  0
 15  5  1  0  0  0  0
 16 18  1  0  0  0  0
 17 21  1  1  0  0  0
 18 17  1  0  0  0  0
 19 11  1  6  0  0  0
 19 16  1  0  0  0  0
 19 20  1  0  0  0  0
 20 17  1  0  0  0  0
 21 24  1  0  0  0  0
 24 23  2  0  0  0  0
 24 22  2  0  0  0  0
 25 24  1  0  0  0  0
 26 25  1  0  0  0  0
 26 29  1  0  0  0  0
 27 29  1  0  0  0  0
 28 30  1  0  0  0  0
 28 26  1  0  0  0  0
 30 27  1  0  0  0  0
 32 31  1  6  0  0  0
 33 32  1  0  0  0  0
 34 37  2  0  0  0  0
 35 36  1  0  0  0  0
 35 34  2  0  0  0  0
 37 33  1  0  0  0  0
M  END
>  <MODEL>
7

>  <REMARK>
 VINA RESULT:      -7.9      3.788      9.785
  Name = 
  8 active torsions:
  status: ('A' for Active; 'I' for Inactive)
    1  A    between atoms: C_6  and  C_31
    2  A    between atoms: C_6  and  C_34
    3  A    between atoms: C_7  and  N_21
    4  A    between atoms: C_9  and  C_31
    5  A    between atoms: N_11  and  C_27
    6  A    between atoms: C_20  and  C_25
    7  A    between atoms: N_21  and  S_36
    8  A    between atoms: C_27  and  S_36
                            x       y       z     vdW  Elec       q    Type
                         _______ _______ _______ _____ _____    ______ ____

>  <TORSDO>
F 8

$$$$
=
 OpenBabel10222421173D

 37 41  0  0  1  0  0  0  0  0999 V2000
  183.2380  178.7650  142.0500 C   0  0  0  0  0  0  0  0  0  0  0  0
  184.0940  178.6140  143.1530 C   0  0  0  0  0  0  0  0  0  0  0  0
  181.2420  179.1280  140.8110 N   0  0  0  0  0  0  0  0  0  0  0  0
  186.0640  178.2080  145.1060 C   0  0  0  0  0  0  0  0  0  0  0  0
  185.5200  178.2260  141.0920 S   0  0  0  0  0  0  0  0  0  0  0  0
  181.8690  179.0500  142.0200 C   0  0  0  0  0  0  0  0  0  0  0  0
  183.8930  178.5750  140.8450 C   0  0  0  0  0  0  0  0  0  0  0  0
  184.7330  178.5100  145.4680 C   0  0  0  0  0  3  0  0  0  0  0  0
  181.1240  179.2620  143.2160 N   0  0  0  0  0  1  0  0  0  0  0  0
  181.9170  178.9250  139.6410 C   0  0  0  0  0  0  0  0  0  0  0  0
  186.4190  178.1080  143.7380 C   0  0  0  0  0  0  0  0  0  0  0  0
  183.2500  178.6440  139.6570 N   0  0  0  0  0  2  0  0  0  0  0  0
  183.7470  178.7180  144.4980 C   0  0  0  0  0  3  0  0  0  0  0  0
  181.3030  178.9920  138.5470 O   0  0  0  0  0  0  0  0  0  0  0  0
  185.4080  178.3130  142.7830 C   0  0  0  0  0  0  0  0  0  0  0  0
  188.0140  176.3400  143.1840 N   0  0  0  0  0  2  0  0  0  0  0  0
  189.1310  177.1460  141.2210 C   0  0  1  0  0  3  0  0  0  0  0  0
  189.2120  176.1780  142.3800 C   0  0  0  0  0  2  0  0  0  0  0  0
  187.8360  177.7740  143.3510 C   0  0  1  0  0  3  0  0  0  0  0  0
  188.3520  178.6530  141.8410 S   0  0  0  0  0  0  0  0  0  0  0  0
  190.4700  177.4450  140.7420 N   0  0  0  0  0  2  0  0  0  0  0  0
  190.0640  175.5670  138.9290 O   0  0  0  0  0  0  0  0  0  0  0  0
  192.0110  177.0120  138.6070 O   0  0  0  0  0  0  0  0  0  0  0  0
  190.5810  176.9690  139.0760 S   0  0  0  0  0  0  0  0  0  0  0  0
  189.5820  178.0630  138.0500 C   0  0  0  0  0  2  0  0  0  0  0  0
  188.5880  177.3780  137.2130 N   0  0  0  0  0  0  0  0  0  0  0  0
  186.0270  177.3590  136.5140 S   0  0  0  0  0  0  0  0  0  0  0  0
  188.5470  177.9820  135.9440 N   0  0  0  0  0  2  0  0  0  0  0  0
  187.2700  177.5070  137.8170 C   0  0  0  0  0  2  0  0  0  0  0  0
  187.3450  177.5070  135.2840 C   0  0  0  0  0  2  0  0  0  0  0  0
  187.0870  176.5900  146.5130 O   0  0  0  0  0  1  0  0  0  0  0  0
  187.0840  177.9460  146.1750 C   0  0  2  0  0  3  0  0  0  0  0  0
  186.8380  178.7980  147.4120 C   0  0  0  0  0  2  0  0  0  0  0  0
  188.9780  178.0690  148.2830 C   0  0  0  0  0  0  0  0  0  0  0  0
  190.2260  177.7860  148.0460 C   0  0  0  0  0  3  0  0  0  0  0  0
  190.5800  176.8290  146.9650 C   0  0  0  0  0  1  0  0  0  0  0  0
  187.7300  178.3620  148.5220 C   0  0  0  0  0  3  0  0  0  0  0  0
  1  2  1  0  0  0  0
  2 13  1  0  0  0  0
  3  6  2  0  0  0  0
  4  8  1  0  0  0  0
  4 32  1  0  0  0  0
  5 15  1  0  0  0  0
  6  1  1  0  0  0  0
  6  9  1  0  0  0  0
  7  5  1  0  0  0  0
  7  1  2  0  0  0  0
 10 12  1  0  0  0  0
 10  3  1  0  0  0  0
 11  4  2  0  0  0  0
 12  7  1  0  0  0  0
 13  8  2  0  0  0  0
 14 10  2  0  0  0  0
 15  2  2  0  0  0  0
 15 11  1  0  0  0  0
 16 19  1  0  0  0  0
 17 21  1  1  0  0  0
 17 20  1  0  0  0  0
 17 18  1  0  0  0  0
 18 16  1  0  0  0  0
 19 11  1  6  0  0  0
 20 19  1  0  0  0  0
 22 24  2  0  0  0  0
 23 24  2  0  0  0  0
 24 21  1  0  0  0  0
 25 24  1  0  0  0  0
 26 29  1  0  0  0  0
 26 25  1  0  0  0  0
 27 29  1  0  0  0  0
 28 26  1  0  0  0  0
 30 28  1  0  0  0  0
 30 27  1  0  0  0  0
 32 31  1  1  0  0  0
 32 33  1  0  0  0  0
 33 37  1  0  0  0  0
 34 37  2  0  0  0  0
 35 34  2  0  0  0  0
 36 35  1  0  0  0  0
M  END
>  <MODEL>
8

>  <REMARK>
 VINA RESULT:      -7.8      2.690      6.814
  Name = 
  8 active torsions:
  status: ('A' for Active; 'I' for Inactive)
    1  A    between atoms: C_6  and  C_31
    2  A    between atoms: C_6  and  C_34
    3  A    between atoms: C_7  and  N_21
    4  A    between atoms: C_9  and  C_31
    5  A    between atoms: N_11  and  C_27
    6  A    between atoms: C_20  and  C_25
    7  A    between atoms: N_21  and  S_36
    8  A    between atoms: C_27  and  S_36
                            x       y       z     vdW  Elec       q    Type
                         _______ _______ _______ _____ _____    ______ ____

>  <TORSDO>
F 8

$$$$
=
 OpenBabel10222421173D

 37 41  0  0  1  0  0  0  0  0999 V2000
  188.4600  177.6850  143.7550 C   0  0  0  0  0  0  0  0  0  0  0  0
  187.4810  177.9440  142.7830 C   0  0  0  0  0  0  0  0  0  0  0  0
  189.4570  177.4080  145.8950 N   0  0  0  0  0  0  0  0  0  0  0  0
  185.8050  178.4480  140.5920 C   0  0  0  0  0  0  0  0  0  0  0  0
  189.6370  177.5180  141.5190 S   0  0  0  0  0  0  0  0  0  0  0  0
  188.3450  177.6680  145.1500 C   0  0  0  0  0  0  0  0  0  0  0  0
  189.7020  177.4350  143.1990 C   0  0  0  0  0  0  0  0  0  0  0  0
  185.3110  178.5080  141.9130 C   0  0  0  0  0  3  0  0  0  0  0  0
  187.1010  177.9130  145.7990 N   0  0  0  0  0  1  0  0  0  0  0  0
  190.6710  177.1750  145.3130 C   0  0  0  0  0  0  0  0  0  0  0  0
  187.1660  178.1290  140.3600 C   0  0  0  0  0  0  0  0  0  0  0  0
  190.7960  177.1920  143.9560 N   0  0  0  0  0  2  0  0  0  0  0  0
  186.1410  178.2530  143.0100 C   0  0  0  0  0  3  0  0  0  0  0  0
  191.6760  176.9520  146.0330 O   0  0  0  0  0  0  0  0  0  0  0  0
  187.9810  177.8850  141.4790 C   0  0  0  0  0  0  0  0  0  0  0  0
  188.7580  179.0520  138.7500 N   0  0  0  0  0  2  0  0  0  0  0  0
  189.7430  177.1230  137.7200 C   0  0  1  0  0  3  0  0  0  0  0  0
  189.4910  178.6080  137.5790 C   0  0  0  0  0  2  0  0  0  0  0  0
  187.6970  178.0770  138.9510 C   0  0  1  0  0  3  0  0  0  0  0  0
  188.2820  176.4100  138.5080 S   0  0  0  0  0  0  0  0  0  0  0  0
  189.9330  176.5340  136.4060 N   0  0  0  0  0  2  0  0  0  0  0  0
  191.1920  174.5410  135.2140 O   0  0  0  0  0  0  0  0  0  0  0  0
  190.6380  174.2430  137.5770 O   0  0  0  0  0  0  0  0  0  0  0  0
  191.0810  175.2390  136.5400 S   0  0  0  0  0  0  0  0  0  0  0  0
  192.7000  175.8900  136.9870 C   0  0  0  0  0  2  0  0  0  0  0  0
  193.6640  174.8760  137.4390 N   0  0  0  0  0  0  0  0  0  0  0  0
  196.1260  173.9540  137.0790 S   0  0  0  0  0  0  0  0  0  0  0  0
  194.4090  175.3850  138.5160 N   0  0  0  0  0  2  0  0  0  0  0  0
  194.5860  174.5650  136.3580 C   0  0  0  0  0  2  0  0  0  0  0  0
  195.5470  174.5030  138.7020 C   0  0  0  0  0  2  0  0  0  0  0  0
  184.5560  180.1280  139.4680 O   0  0  0  0  0  1  0  0  0  0  0  0
  184.8960  178.7720  139.4420 C   0  0  2  0  0  3  0  0  0  0  0  0
  183.6410  177.9110  139.4550 C   0  0  0  0  0  2  0  0  0  0  0  0
  183.8630  177.3340  137.1120 C   0  0  0  0  0  0  0  0  0  0  0  0
  184.6220  176.8870  136.1530 C   0  0  0  0  0  3  0  0  0  0  0  0
  185.9530  177.5030  135.9080 C   0  0  0  0  0  1  0  0  0  0  0  0
  183.1000  177.7740  138.0730 C   0  0  0  0  0  3  0  0  0  0  0  0
  1  6  1  0  0  0  0
  2 13  1  0  0  0  0
  2  1  1  0  0  0  0
  4  8  1  0  0  0  0
  5  7  1  0  0  0  0
  6  9  1  0  0  0  0
  6  3  2  0  0  0  0
  7  1  2  0  0  0  0
  7 12  1  0  0  0  0
  8 13  2  0  0  0  0
 10  3  1  0  0  0  0
 10 14  2  0  0  0  0
 11  4  2  0  0  0  0
 11 15  1  0  0  0  0
 12 10  1  0  0  0  0
 15  5  1  0  0  0  0
 15  2  2  0  0  0  0
 16 19  1  0  0  0  0
 17 21  1  6  0  0  0
 17 20  1  0  0  0  0
 18 17  1  0  0  0  0
 18 16  1  0  0  0  0
 19 11  1  1  0  0  0
 20 19  1  0  0  0  0
 21 24  1  0  0  0  0
 22 24  2  0  0  0  0
 24 25  1  0  0  0  0
 24 23  2  0  0  0  0
 25 26  1  0  0  0  0
 26 28  1  0  0  0  0
 27 30  1  0  0  0  0
 28 30  1  0  0  0  0
 29 27  1  0  0  0  0
 29 26  1  0  0  0  0
 32 33  1  0  0  0  0
 32 31  1  1  0  0  0
 32  4  1  0  0  0  0
 34 37  2  0  0  0  0
 35 34  2  0  0  0  0
 36 35  1  0  0  0  0
 37 33  1  0  0  0  0
M  END
>  <MODEL>
9

>  <REMARK>
 VINA RESULT:      -7.7      3.468      5.110
  Name = 
  8 active torsions:
  status: ('A' for Active; 'I' for Inactive)
    1  A    between atoms: C_6  and  C_31
    2  A    between atoms: C_6  and  C_34
    3  A    between atoms: C_7  and  N_21
    4  A    between atoms: C_9  and  C_31
    5  A    between atoms: N_11  and  C_27
    6  A    between atoms: C_20  and  C_25
    7  A    between atoms: N_21  and  S_36
    8  A    between atoms: C_27  and  S_36
                            x       y       z     vdW  Elec       q    Type
                         _______ _______ _______ _____ _____    ______ ____

>  <TORSDO>
F 8

$$$$
