=
 OpenBabel10222417003D

 30 33  0  0  1  0  0  0  0  0999 V2000
  189.3840  176.5820  141.9790 N   0  0  0  0  0  0  0  0  0  0  0  0
  188.7230  177.2910  143.0760 C   0  0  1  0  0  3  0  0  0  0  0  0
  187.2620  177.0260  143.1050 C   0  0  1  0  0  3  0  0  0  0  0  0
  188.1530  176.3400  143.9450 O   0  0  0  0  0  0  0  0  0  0  0  0
  186.5730  178.0330  143.8980 N   0  0  0  0  0  2  0  0  0  0  0  0
  182.4720  179.0270  143.5580 C   0  0  0  0  0  3  0  0  0  0  0  0
  183.1930  178.6680  142.4140 C   0  0  0  0  0  3  0  0  0  0  0  0
  184.5470  178.3360  142.5190 C   0  0  0  0  0  3  0  0  0  0  0  0
  184.4620  178.7240  144.9050 C   0  0  0  0  0  3  0  0  0  0  0  0
  183.1060  179.0550  144.8020 C   0  0  0  0  0  3  0  0  0  0  0  0
  185.1870  178.3620  143.7650 C   0  0  0  0  0  0  0  0  0  0  0  0
  190.5430  175.9400  142.6050 C   0  0  0  0  0  2  0  0  0  0  0  0
  191.2260  176.8970  143.5680 C   0  0  0  0  0  2  0  0  0  0  0  0
  191.7490  176.1470  144.7790 C   0  0  0  0  0  2  0  0  0  0  0  0
  191.6250  177.0120  146.0230 C   0  0  2  0  0  3  0  0  0  0  0  0
  190.1170  176.6850  147.3590 C   0  0  0  0  0  2  0  0  0  0  0  0
  191.5200  176.1370  147.2490 C   0  0  0  0  0  2  0  0  0  0  0  0
  190.2590  177.5030  146.1620 N   0  0  0  0  0  2  0  0  0  0  0  0
  189.8460  177.5690  140.9820 C   0  0  1  0  0  3  0  0  0  0  0  0
  192.5890  175.9040  138.1350 C   0  0  0  0  0  0  0  0  0  0  0  0
  192.1660  177.4200  139.9690 C   0  0  0  0  0  3  0  0  0  0  0  0
  190.8310  176.9920  139.9950 C   0  0  0  0  0  0  0  0  0  0  0  0
  191.2450  175.4940  138.1920 C   0  0  0  0  0  0  0  0  0  0  0  0
  190.4100  176.0450  139.1140 N   0  0  0  0  0  0  0  0  0  0  0  0
  193.5480  175.3360  137.1430 C   0  0  0  0  0  1  0  0  0  0  0  0
  193.0410  176.8710  139.0340 C   0  0  0  0  0  3  0  0  0  0  0  0
  190.7240  174.4990  137.2900 C   0  0  0  0  0  0  0  0  0  0  0  0
  190.3050  173.7000  136.5640 N   0  0  0  0  0  0  0  0  0  0  0  0
  188.7080  178.1230  140.2250 C   0  0  0  0  0  0  0  0  0  0  0  0
  187.8150  178.5480  139.6240 N   0  0  0  0  0  0  0  0  0  0  0  0
  1 12  1  0  0  0  0
  2  1  1  6  0  0  0
  2  3  1  0  0  0  0
  2  4  1  0  0  0  0
  3  5  1  1  0  0  0
  3  4  1  0  0  0  0
  6 10  1  0  0  0  0
  7  8  1  0  0  0  0
  7  6  2  0  0  0  0
  8 11  2  0  0  0  0
 10  9  2  0  0  0  0
 11  5  1  0  0  0  0
 11  9  1  0  0  0  0
 12 13  1  0  0  0  0
 13 14  1  0  0  0  0
 15 14  1  6  0  0  0
 15 18  1  0  0  0  0
 15 17  1  0  0  0  0
 17 16  1  0  0  0  0
 18 16  1  0  0  0  0
 19 29  1  6  0  0  0
 19  1  1  0  0  0  0
 20 23  2  0  0  0  0
 20 26  1  0  0  0  0
 21 22  1  0  0  0  0
 22 19  1  0  0  0  0
 23 24  1  0  0  0  0
 24 22  2  0  0  0  0
 25 20  1  0  0  0  0
 26 21  2  0  0  0  0
 27 23  1  0  0  0  0
 28 27  3  0  0  0  0
 30 29  3  0  0  0  0
M  END
>  <MODEL>
1

>  <REMARK>
 VINA RESULT:      -7.4      0.000      0.000
  Name = 
  11 active torsions:
  status: ('A' for Active; 'I' for Inactive)
    1  A    between atoms: C_1  and  C_11
    2  A    between atoms: C_1  and  N_20
    3  A    between atoms: C_3  and  C_30
    4  A    between atoms: C_8  and  C_30
    5  A    between atoms: C_10  and  C_14
    6  A    between atoms: C_11  and  C_24
    7  A    between atoms: C_12  and  N_20
    8  A    between atoms: C_17  and  C_24
    9  A    between atoms: C_19  and  N_22
   10  A    between atoms: N_20  and  C_30
   11  A    between atoms: N_22  and  C_26
                            x       y       z     vdW  Elec       q    Type
                         _______ _______ _______ _____ _____    ______ ____

>  <TORSDO>
F 11

$$$$
=
 OpenBabel10222417003D

 30 33  0  0  1  0  0  0  0  0999 V2000
  189.9680  177.2240  141.0470 N   0  0  0  0  0  0  0  0  0  0  0  0
  188.7060  177.8790  141.3950 C   0  0  1  0  0  3  0  0  0  0  0  0
  188.1020  177.2990  142.6220 C   0  0  1  0  0  3  0  0  0  0  0  0
  188.8500  178.4860  142.6590 O   0  0  0  0  0  0  0  0  0  0  0  0
  186.6910  177.6460  142.7120 N   0  0  0  0  0  2  0  0  0  0  0  0
  184.7230  178.5770  146.3420 C   0  0  0  0  0  3  0  0  0  0  0  0
  184.1060  178.8810  145.1250 C   0  0  0  0  0  3  0  0  0  0  0  0
  184.7490  178.5750  143.9210 C   0  0  0  0  0  3  0  0  0  0  0  0
  186.6230  177.6630  145.1500 C   0  0  0  0  0  3  0  0  0  0  0  0
  185.9800  177.9680  146.3550 C   0  0  0  0  0  3  0  0  0  0  0  0
  186.0100  177.9640  143.9290 C   0  0  0  0  0  0  0  0  0  0  0  0
  190.9190  177.7060  142.0520 C   0  0  0  0  0  2  0  0  0  0  0  0
  191.7640  176.5570  142.5790 C   0  0  0  0  0  2  0  0  0  0  0  0
  191.2030  176.0460  143.8930 C   0  0  0  0  0  2  0  0  0  0  0  0
  191.4850  177.0440  145.0050 C   0  0  2  0  0  3  0  0  0  0  0  0
  190.5650  176.8550  146.8170 C   0  0  0  0  0  2  0  0  0  0  0  0
  191.8640  176.3120  146.2690 C   0  0  0  0  0  2  0  0  0  0  0  0
  190.2340  177.5350  145.5720 N   0  0  0  0  0  2  0  0  0  0  0  0
  190.3910  177.6820  139.7080 C   0  0  1  0  0  3  0  0  0  0  0  0
  191.9390  174.5140  137.2650 C   0  0  0  0  0  0  0  0  0  0  0  0
  192.3370  176.4800  138.6140 C   0  0  0  0  0  3  0  0  0  0  0  0
  190.9600  176.5720  138.8590 C   0  0  0  0  0  0  0  0  0  0  0  0
  190.5630  174.6330  137.5360 C   0  0  0  0  0  0  0  0  0  0  0  0
  190.1170  175.6510  138.3200 N   0  0  0  0  0  0  0  0  0  0  0  0
  192.4840  173.4200  136.4100 C   0  0  0  0  0  1  0  0  0  0  0  0
  192.8200  175.4460  137.8130 C   0  0  0  0  0  3  0  0  0  0  0  0
  189.6080  173.6990  136.9970 C   0  0  0  0  0  0  0  0  0  0  0  0
  188.8400  172.9490  136.5640 N   0  0  0  0  0  0  0  0  0  0  0  0
  189.2620  178.2870  138.9790 C   0  0  0  0  0  0  0  0  0  0  0  0
  188.3830  178.7690  138.4000 N   0  0  0  0  0  0  0  0  0  0  0  0
  1 12  1  0  0  0  0
  2  1  1  1  0  0  0
  2  3  1  0  0  0  0
  2  4  1  0  0  0  0
  3  4  1  0  0  0  0
  3  5  1  6  0  0  0
  5 11  1  0  0  0  0
  6 10  1  0  0  0  0
  7  6  2  0  0  0  0
  8 11  2  0  0  0  0
  8  7  1  0  0  0  0
  9 10  2  0  0  0  0
 11  9  1  0  0  0  0
 12 13  1  0  0  0  0
 13 14  1  0  0  0  0
 15 14  1  6  0  0  0
 15 18  1  0  0  0  0
 15 17  1  0  0  0  0
 17 16  1  0  0  0  0
 18 16  1  0  0  0  0
 19 29  1  6  0  0  0
 19  1  1  0  0  0  0
 20 23  2  0  0  0  0
 20 26  1  0  0  0  0
 21 22  1  0  0  0  0
 22 19  1  0  0  0  0
 23 24  1  0  0  0  0
 24 22  2  0  0  0  0
 25 20  1  0  0  0  0
 26 21  2  0  0  0  0
 27 23  1  0  0  0  0
 28 27  3  0  0  0  0
 30 29  3  0  0  0  0
M  END
>  <MODEL>
2

>  <REMARK>
 VINA RESULT:      -7.4      1.304      1.772
  Name = 
  11 active torsions:
  status: ('A' for Active; 'I' for Inactive)
    1  A    between atoms: C_1  and  C_11
    2  A    between atoms: C_1  and  N_20
    3  A    between atoms: C_3  and  C_30
    4  A    between atoms: C_8  and  C_30
    5  A    between atoms: C_10  and  C_14
    6  A    between atoms: C_11  and  C_24
    7  A    between atoms: C_12  and  N_20
    8  A    between atoms: C_17  and  C_24
    9  A    between atoms: C_19  and  N_22
   10  A    between atoms: N_20  and  C_30
   11  A    between atoms: N_22  and  C_26
                            x       y       z     vdW  Elec       q    Type
                         _______ _______ _______ _____ _____    ______ ____

>  <TORSDO>
F 11

$$$$
=
 OpenBabel10222417003D

 30 33  0  0  1  0  0  0  0  0999 V2000
  189.8960  177.2750  140.9720 N   0  0  0  0  0  0  0  0  0  0  0  0
  188.6610  177.9600  141.3530 C   0  0  1  0  0  3  0  0  0  0  0  0
  188.0360  177.3470  142.5530 C   0  0  1  0  0  3  0  0  0  0  0  0
  188.8280  178.5020  142.6420 O   0  0  0  0  0  0  0  0  0  0  0  0
  186.6390  177.7430  142.6640 N   0  0  0  0  0  2  0  0  0  0  0  0
  184.6130  178.5820  146.2840 C   0  0  0  0  0  3  0  0  0  0  0  0
  185.8890  178.0120  146.3230 C   0  0  0  0  0  3  0  0  0  0  0  0
  186.5660  177.7340  145.1320 C   0  0  0  0  0  3  0  0  0  0  0  0
  184.6930  178.5930  143.8630 C   0  0  0  0  0  3  0  0  0  0  0  0
  184.0160  178.8730  145.0550 C   0  0  0  0  0  3  0  0  0  0  0  0
  185.9710  178.0240  143.8960 C   0  0  0  0  0  0  0  0  0  0  0  0
  190.8920  177.7530  141.9340 C   0  0  0  0  0  2  0  0  0  0  0  0
  191.7060  176.5910  142.4790 C   0  0  0  0  0  2  0  0  0  0  0  0
  191.1180  176.1010  143.7900 C   0  0  0  0  0  2  0  0  0  0  0  0
  191.4810  177.0570  144.9150 C   0  0  2  0  0  3  0  0  0  0  0  0
  190.6060  176.8710  146.7490 C   0  0  0  0  0  2  0  0  0  0  0  0
  191.8590  176.2770  146.1510 C   0  0  0  0  0  2  0  0  0  0  0  0
  190.2730  177.5950  145.5300 N   0  0  0  0  0  2  0  0  0  0  0  0
  190.2810  177.7030  139.6110 C   0  0  1  0  0  3  0  0  0  0  0  0
  191.7500  174.4680  137.2070 C   0  0  0  0  0  0  0  0  0  0  0  0
  189.8770  175.7220  138.0810 C   0  0  0  0  0  3  0  0  0  0  0  0
  190.7740  176.5640  138.7530 C   0  0  0  0  0  0  0  0  0  0  0  0
  192.6220  175.3350  137.8900 C   0  0  0  0  0  0  0  0  0  0  0  0
  192.1120  176.3510  138.6390 N   0  0  0  0  0  0  0  0  0  0  0  0
  192.2520  173.3360  136.3750 C   0  0  0  0  0  1  0  0  0  0  0  0
  190.3730  174.6730  137.3080 C   0  0  0  0  0  3  0  0  0  0  0  0
  194.0510  175.1710  137.8210 C   0  0  0  0  0  0  0  0  0  0  0  0
  195.2000  175.0400  137.7660 N   0  0  0  0  0  0  0  0  0  0  0  0
  189.1450  178.3400  138.9210 C   0  0  0  0  0  0  0  0  0  0  0  0
  188.2560  178.8360  138.3680 N   0  0  0  0  0  0  0  0  0  0  0  0
  1 12  1  0  0  0  0
  2  1  1  1  0  0  0
  2  3  1  0  0  0  0
  2  4  1  0  0  0  0
  3  4  1  0  0  0  0
  3  5  1  6  0  0  0
  5 11  1  0  0  0  0
  6  7  1  0  0  0  0
  8  7  2  0  0  0  0
  9 11  2  0  0  0  0
  9 10  1  0  0  0  0
 10  6  2  0  0  0  0
 11  8  1  0  0  0  0
 12 13  1  0  0  0  0
 13 14  1  0  0  0  0
 15 14  1  6  0  0  0
 15 18  1  0  0  0  0
 15 17  1  0  0  0  0
 17 16  1  0  0  0  0
 18 16  1  0  0  0  0
 19 29  1  6  0  0  0
 19  1  1  0  0  0  0
 20 26  2  0  0  0  0
 20 23  1  0  0  0  0
 21 22  2  0  0  0  0
 22 19  1  0  0  0  0
 23 24  2  0  0  0  0
 24 22  1  0  0  0  0
 25 20  1  0  0  0  0
 26 21  1  0  0  0  0
 27 23  1  0  0  0  0
 28 27  3  0  0  0  0
 30 29  3  0  0  0  0
M  END
>  <MODEL>
3

>  <REMARK>
 VINA RESULT:      -7.3      1.584      2.328
  Name = 
  11 active torsions:
  status: ('A' for Active; 'I' for Inactive)
    1  A    between atoms: C_1  and  C_11
    2  A    between atoms: C_1  and  N_20
    3  A    between atoms: C_3  and  C_30
    4  A    between atoms: C_8  and  C_30
    5  A    between atoms: C_10  and  C_14
    6  A    between atoms: C_11  and  C_24
    7  A    between atoms: C_12  and  N_20
    8  A    between atoms: C_17  and  C_24
    9  A    between atoms: C_19  and  N_22
   10  A    between atoms: N_20  and  C_30
   11  A    between atoms: N_22  and  C_26
                            x       y       z     vdW  Elec       q    Type
                         _______ _______ _______ _____ _____    ______ ____

>  <TORSDO>
F 11

$$$$
=
 OpenBabel10222417003D

 30 33  0  0  1  0  0  0  0  0999 V2000
  188.6670  177.3920  139.8080 N   0  0  0  0  0  0  0  0  0  0  0  0
  187.7760  178.3060  140.5230 C   0  0  1  0  0  3  0  0  0  0  0  0
  187.3910  177.7750  141.8550 C   0  0  1  0  0  3  0  0  0  0  0  0
  188.4160  178.7220  141.7070 O   0  0  0  0  0  0  0  0  0  0  0  0
  186.2090  178.4590  142.3590 N   0  0  0  0  0  2  0  0  0  0  0  0
  184.9470  178.3260  146.3970 C   0  0  0  0  0  3  0  0  0  0  0  0
  184.1210  178.9170  145.4350 C   0  0  0  0  0  3  0  0  0  0  0  0
  184.5300  178.9630  144.0990 C   0  0  0  0  0  3  0  0  0  0  0  0
  186.5870  177.8310  144.6850 C   0  0  0  0  0  3  0  0  0  0  0  0
  186.1780  177.7830  146.0220 C   0  0  0  0  0  3  0  0  0  0  0  0
  185.7650  178.4200  143.7180 C   0  0  0  0  0  0  0  0  0  0  0  0
  190.0090  177.9280  140.0470 C   0  0  0  0  0  2  0  0  0  0  0  0
  190.8970  176.8740  140.6880 C   0  0  0  0  0  2  0  0  0  0  0  0
  191.7280  177.4880  141.8000 C   0  0  0  0  0  2  0  0  0  0  0  0
  191.6370  176.6320  143.0530 C   0  0  2  0  0  3  0  0  0  0  0  0
  190.1140  176.9100  144.3830 C   0  0  0  0  0  2  0  0  0  0  0  0
  190.2580  176.0280  143.1650 C   0  0  0  0  0  2  0  0  0  0  0  0
  191.4480  177.4750  144.2280 N   0  0  0  0  0  2  0  0  0  0  0  0
  188.3600  177.4550  138.3640 C   0  0  1  0  0  3  0  0  0  0  0  0
  188.4600  173.5920  136.5020 C   0  0  0  0  0  0  0  0  0  0  0  0
  187.1760  175.4610  137.3400 C   0  0  0  0  0  3  0  0  0  0  0  0
  188.3700  176.1010  137.7010 C   0  0  0  0  0  0  0  0  0  0  0  0
  189.6390  174.2640  136.8720 C   0  0  0  0  0  0  0  0  0  0  0  0
  189.5610  175.4900  137.4560 N   0  0  0  0  0  0  0  0  0  0  0  0
  188.4850  172.2450  135.8610 C   0  0  0  0  0  1  0  0  0  0  0  0
  187.2280  174.2040  136.7400 C   0  0  0  0  0  3  0  0  0  0  0  0
  190.9370  173.6810  136.6500 C   0  0  0  0  0  0  0  0  0  0  0  0
  191.9810  173.2130  136.4710 N   0  0  0  0  0  0  0  0  0  0  0  0
  187.0400  178.0700  138.1350 C   0  0  0  0  0  0  0  0  0  0  0  0
  185.9990  178.5460  137.9630 N   0  0  0  0  0  0  0  0  0  0  0  0
  1 12  1  0  0  0  0
  2  1  1  6  0  0  0
  2  4  1  0  0  0  0
  2  3  1  0  0  0  0
  3  5  1  1  0  0  0
  4  3  1  0  0  0  0
  5 11  1  0  0  0  0
  7  6  2  0  0  0  0
  8  7  1  0  0  0  0
  9 10  2  0  0  0  0
 10  6  1  0  0  0  0
 11  8  2  0  0  0  0
 11  9  1  0  0  0  0
 12 13  1  0  0  0  0
 13 14  1  0  0  0  0
 15 14  1  6  0  0  0
 15 17  1  0  0  0  0
 15 18  1  0  0  0  0
 17 16  1  0  0  0  0
 18 16  1  0  0  0  0
 19 29  1  1  0  0  0
 19  1  1  0  0  0  0
 20 26  2  0  0  0  0
 20 23  1  0  0  0  0
 21 22  2  0  0  0  0
 22 19  1  0  0  0  0
 23 24  2  0  0  0  0
 24 22  1  0  0  0  0
 25 20  1  0  0  0  0
 26 21  1  0  0  0  0
 27 23  1  0  0  0  0
 28 27  3  0  0  0  0
 30 29  3  0  0  0  0
M  END
>  <MODEL>
4

>  <REMARK>
 VINA RESULT:      -6.7      2.030      3.361
  Name = 
  11 active torsions:
  status: ('A' for Active; 'I' for Inactive)
    1  A    between atoms: C_1  and  C_11
    2  A    between atoms: C_1  and  N_20
    3  A    between atoms: C_3  and  C_30
    4  A    between atoms: C_8  and  C_30
    5  A    between atoms: C_10  and  C_14
    6  A    between atoms: C_11  and  C_24
    7  A    between atoms: C_12  and  N_20
    8  A    between atoms: C_17  and  C_24
    9  A    between atoms: C_19  and  N_22
   10  A    between atoms: N_20  and  C_30
   11  A    between atoms: N_22  and  C_26
                            x       y       z     vdW  Elec       q    Type
                         _______ _______ _______ _____ _____    ______ ____

>  <TORSDO>
F 11

$$$$
=
 OpenBabel10222417003D

 30 33  0  0  1  0  0  0  0  0999 V2000
  188.8510  177.2550  139.7130 N   0  0  0  0  0  0  0  0  0  0  0  0
  187.8730  178.1950  140.2630 C   0  0  1  0  0  3  0  0  0  0  0  0
  187.5170  177.8640  141.6670 C   0  0  1  0  0  3  0  0  0  0  0  0
  188.4580  178.8590  141.3600 O   0  0  0  0  0  0  0  0  0  0  0  0
  186.2720  178.5160  142.0480 N   0  0  0  0  0  2  0  0  0  0  0  0
  184.6960  178.4790  145.9760 C   0  0  0  0  0  3  0  0  0  0  0  0
  183.9240  178.9890  144.9270 C   0  0  0  0  0  3  0  0  0  0  0  0
  184.4370  179.0030  143.6270 C   0  0  0  0  0  3  0  0  0  0  0  0
  186.4900  178.0000  144.4220 C   0  0  0  0  0  3  0  0  0  0  0  0
  185.9780  177.9840  145.7230 C   0  0  0  0  0  3  0  0  0  0  0  0
  185.7230  178.5080  143.3680 C   0  0  0  0  0  0  0  0  0  0  0  0
  190.1490  177.8000  140.1170 C   0  0  0  0  0  2  0  0  0  0  0  0
  190.9680  176.7430  140.8400 C   0  0  0  0  0  2  0  0  0  0  0  0
  191.4500  177.2720  142.1790 C   0  0  0  0  0  2  0  0  0  0  0  0
  190.7600  176.5290  143.3120 C   0  0  2  0  0  3  0  0  0  0  0  0
  191.4420  176.7070  145.2280 C   0  0  0  0  0  2  0  0  0  0  0  0
  190.4260  177.4890  144.4290 C   0  0  0  0  0  2  0  0  0  0  0  0
  191.7420  175.8130  144.1180 N   0  0  0  0  0  2  0  0  0  0  0  0
  188.7480  177.2650  138.2400 C   0  0  1  0  0  3  0  0  0  0  0  0
  185.2000  175.3410  136.7850 C   0  0  0  0  0  0  0  0  0  0  0  0
  187.5700  175.2490  137.2510 C   0  0  0  0  0  3  0  0  0  0  0  0
  187.5120  176.5650  137.7310 C   0  0  0  0  0  0  0  0  0  0  0  0
  185.1770  176.6580  137.2790 C   0  0  0  0  0  0  0  0  0  0  0  0
  186.3250  177.2280  137.7340 N   0  0  0  0  0  0  0  0  0  0  0  0
  183.9730  174.6670  136.2700 C   0  0  0  0  0  1  0  0  0  0  0  0
  186.4080  174.6420  136.7780 C   0  0  0  0  0  3  0  0  0  0  0  0
  183.9590  177.4270  137.3110 C   0  0  0  0  0  0  0  0  0  0  0  0
  182.9800  178.0440  137.3370 N   0  0  0  0  0  0  0  0  0  0  0  0
  188.7390  178.6460  137.7230 C   0  0  0  0  0  0  0  0  0  0  0  0
  188.7370  179.7340  137.3280 N   0  0  0  0  0  0  0  0  0  0  0  0
  1 12  1  0  0  0  0
  2  1  1  1  0  0  0
  2  4  1  0  0  0  0
  2  3  1  0  0  0  0
  3  5  1  6  0  0  0
  4  3  1  0  0  0  0
  5 11  1  0  0  0  0
  7  6  2  0  0  0  0
  8  7  1  0  0  0  0
  9 10  2  0  0  0  0
 10  6  1  0  0  0  0
 11  8  2  0  0  0  0
 11  9  1  0  0  0  0
 12 13  1  0  0  0  0
 13 14  1  0  0  0  0
 15 14  1  6  0  0  0
 15 18  1  0  0  0  0
 15 17  1  0  0  0  0
 17 16  1  0  0  0  0
 18 16  1  0  0  0  0
 19 29  1  1  0  0  0
 19  1  1  0  0  0  0
 20 23  1  0  0  0  0
 21 22  2  0  0  0  0
 22 24  1  0  0  0  0
 22 19  1  0  0  0  0
 23 27  1  0  0  0  0
 23 24  2  0  0  0  0
 25 20  1  0  0  0  0
 26 20  2  0  0  0  0
 26 21  1  0  0  0  0
 27 28  3  0  0  0  0
 30 29  3  0  0  0  0
M  END
>  <MODEL>
5

>  <REMARK>
 VINA RESULT:      -6.6      3.011      4.447
  Name = 
  11 active torsions:
  status: ('A' for Active; 'I' for Inactive)
    1  A    between atoms: C_1  and  C_11
    2  A    between atoms: C_1  and  N_20
    3  A    between atoms: C_3  and  C_30
    4  A    between atoms: C_8  and  C_30
    5  A    between atoms: C_10  and  C_14
    6  A    between atoms: C_11  and  C_24
    7  A    between atoms: C_12  and  N_20
    8  A    between atoms: C_17  and  C_24
    9  A    between atoms: C_19  and  N_22
   10  A    between atoms: N_20  and  C_30
   11  A    between atoms: N_22  and  C_26
                            x       y       z     vdW  Elec       q    Type
                         _______ _______ _______ _____ _____    ______ ____

>  <TORSDO>
F 11

$$$$
=
 OpenBabel10222417003D

 30 33  0  0  1  0  0  0  0  0999 V2000
  181.7290  178.7530  140.4750 N   0  0  0  0  0  0  0  0  0  0  0  0
  180.7730  179.6350  139.8040 C   0  0  1  0  0  3  0  0  0  0  0  0
  181.4550  180.6500  138.9610 C   0  0  1  0  0  3  0  0  0  0  0  0
  180.9180  179.4760  138.4110 O   0  0  0  0  0  0  0  0  0  0  0  0
  180.5530  181.7510  138.6530 N   0  0  0  0  0  2  0  0  0  0  0  0
  180.8310  184.1830  135.1990 C   0  0  0  0  0  3  0  0  0  0  0  0
  181.1660  184.7160  136.4480 C   0  0  0  0  0  3  0  0  0  0  0  0
  181.0790  183.9180  137.5930 C   0  0  0  0  0  3  0  0  0  0  0  0
  180.3220  182.0580  136.2440 C   0  0  0  0  0  3  0  0  0  0  0  0
  180.4100  182.8550  135.0980 C   0  0  0  0  0  3  0  0  0  0  0  0
  180.6560  182.5850  137.4960 C   0  0  0  0  0  0  0  0  0  0  0  0
  181.5500  177.4540  139.8210 C   0  0  0  0  0  2  0  0  0  0  0  0
  182.8950  176.7840  139.5940 C   0  0  0  0  0  2  0  0  0  0  0  0
  183.2350  176.7640  138.1150 C   0  0  0  0  0  2  0  0  0  0  0  0
  184.1200  177.9490  137.7670 C   0  0  2  0  0  3  0  0  0  0  0  0
  186.1150  177.9090  138.1990 C   0  0  0  0  0  2  0  0  0  0  0  0
  185.3240  177.4800  136.9850 C   0  0  0  0  0  2  0  0  0  0  0  0
  184.9240  178.3360  138.9210 N   0  0  0  0  0  2  0  0  0  0  0  0
  181.3590  178.6430  141.9010 C   0  0  1  0  0  3  0  0  0  0  0  0
  184.8040  178.6480  144.4580 C   0  0  0  0  0  0  0  0  0  0  0  0
  182.4030  178.7720  144.2080 C   0  0  0  0  0  3  0  0  0  0  0  0
  182.5550  178.6390  142.8210 C   0  0  0  0  0  0  0  0  0  0  0  0
  184.9200  178.5110  143.0620 C   0  0  0  0  0  0  0  0  0  0  0  0
  183.8000  178.5110  142.2900 N   0  0  0  0  0  0  0  0  0  0  0  0
  185.9970  178.6590  145.3530 C   0  0  0  0  0  1  0  0  0  0  0  0
  183.5340  178.7760  145.0220 C   0  0  0  0  0  3  0  0  0  0  0  0
  186.2050  178.3750  142.4250 C   0  0  0  0  0  0  0  0  0  0  0  0
  187.2370  178.2650  141.9130 N   0  0  0  0  0  0  0  0  0  0  0  0
  180.4750  179.7530  142.3010 C   0  0  0  0  0  0  0  0  0  0  0  0
  179.7850  180.6240  142.6260 N   0  0  0  0  0  0  0  0  0  0  0  0
  1 19  1  0  0  0  0
  2  1  1  1  0  0  0
  3  5  1  6  0  0  0
  3  2  1  0  0  0  0
  4  3  1  0  0  0  0
  4  2  1  0  0  0  0
  6  7  1  0  0  0  0
  7  8  2  0  0  0  0
  9 11  2  0  0  0  0
 10  6  2  0  0  0  0
 10  9  1  0  0  0  0
 11  8  1  0  0  0  0
 11  5  1  0  0  0  0
 12  1  1  0  0  0  0
 13 12  1  0  0  0  0
 14 13  1  0  0  0  0
 15 14  1  1  0  0  0
 15 18  1  0  0  0  0
 16 18  1  0  0  0  0
 17 15  1  0  0  0  0
 17 16  1  0  0  0  0
 19 29  1  1  0  0  0
 19 22  1  0  0  0  0
 20 26  1  0  0  0  0
 20 25  1  0  0  0  0
 21 26  2  0  0  0  0
 22 21  1  0  0  0  0
 23 20  2  0  0  0  0
 24 22  2  0  0  0  0
 24 23  1  0  0  0  0
 27 23  1  0  0  0  0
 28 27  3  0  0  0  0
 29 30  3  0  0  0  0
M  END
>  <MODEL>
6

>  <REMARK>
 VINA RESULT:      -6.5      5.239      9.512
  Name = 
  11 active torsions:
  status: ('A' for Active; 'I' for Inactive)
    1  A    between atoms: C_1  and  C_11
    2  A    between atoms: C_1  and  N_20
    3  A    between atoms: C_3  and  C_30
    4  A    between atoms: C_8  and  C_30
    5  A    between atoms: C_10  and  C_14
    6  A    between atoms: C_11  and  C_24
    7  A    between atoms: C_12  and  N_20
    8  A    between atoms: C_17  and  C_24
    9  A    between atoms: C_19  and  N_22
   10  A    between atoms: N_20  and  C_30
   11  A    between atoms: N_22  and  C_26
                            x       y       z     vdW  Elec       q    Type
                         _______ _______ _______ _____ _____    ______ ____

>  <TORSDO>
F 11

$$$$
=
 OpenBabel10222417003D

 30 33  0  0  1  0  0  0  0  0999 V2000
  189.9860  176.7760  141.3880 N   0  0  0  0  0  0  0  0  0  0  0  0
  188.7110  177.4840  141.2700 C   0  0  1  0  0  3  0  0  0  0  0  0
  187.9950  177.5540  142.5700 C   0  0  1  0  0  3  0  0  0  0  0  0
  188.7570  178.6300  142.0890 O   0  0  0  0  0  0  0  0  0  0  0  0
  186.5870  177.8650  142.3650 N   0  0  0  0  0  2  0  0  0  0  0  0
  183.8600  178.9840  145.4020 C   0  0  0  0  0  3  0  0  0  0  0  0
  185.1620  178.6070  145.7480 C   0  0  0  0  0  3  0  0  0  0  0  0
  186.0690  178.2380  144.7500 C   0  0  0  0  0  3  0  0  0  0  0  0
  184.3760  178.6210  143.0640 C   0  0  0  0  0  3  0  0  0  0  0  0
  183.4680  178.9920  144.0610 C   0  0  0  0  0  3  0  0  0  0  0  0
  185.6800  178.2440  143.4030 C   0  0  0  0  0  0  0  0  0  0  0  0
  190.9040  177.7690  141.9530 C   0  0  0  0  0  2  0  0  0  0  0  0
  191.6670  177.1790  143.1280 C   0  0  0  0  0  2  0  0  0  0  0  0
  191.1940  177.7990  144.4310 C   0  0  0  0  0  2  0  0  0  0  0  0
  190.7690  176.7100  145.4030 C   0  0  2  0  0  3  0  0  0  0  0  0
  190.4520  177.1520  147.3710 C   0  0  0  0  0  2  0  0  0  0  0  0
  189.5430  177.1510  146.1650 C   0  0  0  0  0  2  0  0  0  0  0  0
  191.6120  176.7390  146.5930 N   0  0  0  0  0  2  0  0  0  0  0  0
  190.4460  176.3910  140.0380 C   0  0  1  0  0  3  0  0  0  0  0  0
  187.9490  177.9570  136.9220 C   0  0  0  0  0  0  0  0  0  0  0  0
  189.7340  178.2900  138.5170 C   0  0  0  0  0  3  0  0  0  0  0  0
  189.5850  176.9610  138.9390 C   0  0  0  0  0  0  0  0  0  0  0  0
  187.8300  176.6270  137.3650 C   0  0  0  0  0  0  0  0  0  0  0  0
  188.6450  176.1710  138.3540 N   0  0  0  0  0  0  0  0  0  0  0  0
  187.0790  178.5120  135.8440 C   0  0  0  0  0  1  0  0  0  0  0  0
  188.9100  178.7820  137.5060 C   0  0  0  0  0  3  0  0  0  0  0  0
  186.8560  175.7300  136.7980 C   0  0  0  0  0  0  0  0  0  0  0  0
  186.0730  175.0090  136.3420 N   0  0  0  0  0  0  0  0  0  0  0  0
  191.8340  176.8310  139.8110 C   0  0  0  0  0  0  0  0  0  0  0  0
  192.9210  177.1840  139.6240 N   0  0  0  0  0  0  0  0  0  0  0  0
  1 12  1  0  0  0  0
  2  1  1  1  0  0  0
  2  4  1  0  0  0  0
  2  3  1  0  0  0  0
  3  5  1  6  0  0  0
  4  3  1  0  0  0  0
  5 11  1  0  0  0  0
  6  7  1  0  0  0  0
  8  7  2  0  0  0  0
  9 11  2  0  0  0  0
  9 10  1  0  0  0  0
 10  6  2  0  0  0  0
 11  8  1  0  0  0  0
 12 13  1  0  0  0  0
 13 14  1  0  0  0  0
 15 14  1  6  0  0  0
 15 17  1  0  0  0  0
 15 18  1  0  0  0  0
 17 16  1  0  0  0  0
 18 16  1  0  0  0  0
 19 29  1  6  0  0  0
 19  1  1  0  0  0  0
 20 23  2  0  0  0  0
 20 26  1  0  0  0  0
 21 22  1  0  0  0  0
 22 19  1  0  0  0  0
 23 24  1  0  0  0  0
 24 22  2  0  0  0  0
 25 20  1  0  0  0  0
 26 21  2  0  0  0  0
 27 23  1  0  0  0  0
 28 27  3  0  0  0  0
 30 29  3  0  0  0  0
M  END
>  <MODEL>
7

>  <REMARK>
 VINA RESULT:      -6.5      2.145      3.043
  Name = 
  11 active torsions:
  status: ('A' for Active; 'I' for Inactive)
    1  A    between atoms: C_1  and  C_11
    2  A    between atoms: C_1  and  N_20
    3  A    between atoms: C_3  and  C_30
    4  A    between atoms: C_8  and  C_30
    5  A    between atoms: C_10  and  C_14
    6  A    between atoms: C_11  and  C_24
    7  A    between atoms: C_12  and  N_20
    8  A    between atoms: C_17  and  C_24
    9  A    between atoms: C_19  and  N_22
   10  A    between atoms: N_20  and  C_30
   11  A    between atoms: N_22  and  C_26
                            x       y       z     vdW  Elec       q    Type
                         _______ _______ _______ _____ _____    ______ ____

>  <TORSDO>
F 11

$$$$
=
 OpenBabel10222417003D

 30 33  0  0  1  0  0  0  0  0999 V2000
  189.4600  177.8450  141.4490 N   0  0  0  0  0  0  0  0  0  0  0  0
  190.1190  177.5010  142.7100 C   0  0  1  0  0  3  0  0  0  0  0  0
  189.2270  176.7190  143.6040 C   0  0  1  0  0  3  0  0  0  0  0  0
  190.1990  176.0970  142.8050 O   0  0  0  0  0  0  0  0  0  0  0  0
  189.7180  176.7520  144.9750 N   0  0  0  0  0  2  0  0  0  0  0  0
  187.5820  178.2660  148.3010 C   0  0  0  0  0  3  0  0  0  0  0  0
  186.9370  178.1370  147.0670 C   0  0  0  0  0  3  0  0  0  0  0  0
  187.6350  177.6360  145.9640 C   0  0  0  0  0  3  0  0  0  0  0  0
  189.6200  177.3940  147.3260 C   0  0  0  0  0  3  0  0  0  0  0  0
  188.9230  177.8950  148.4300 C   0  0  0  0  0  3  0  0  0  0  0  0
  188.9800  177.2620  146.0890 C   0  0  0  0  0  0  0  0  0  0  0  0
  188.0640  177.4470  141.6460 C   0  0  0  0  0  2  0  0  0  0  0  0
  187.1360  178.6270  141.4070 C   0  0  0  0  0  2  0  0  0  0  0  0
  185.9350  178.5520  142.3320 C   0  0  0  0  0  2  0  0  0  0  0  0
  184.7080  179.1280  141.6430 C   0  0  2  0  0  3  0  0  0  0  0  0
  184.0410  178.3300  139.8870 C   0  0  0  0  0  2  0  0  0  0  0  0
  183.7260  178.0250  141.3320 C   0  0  0  0  0  2  0  0  0  0  0  0
  184.9910  179.3780  140.2340 N   0  0  0  0  0  2  0  0  0  0  0  0
  190.0550  177.0390  140.3630 C   0  0  1  0  0  3  0  0  0  0  0  0
  188.2290  177.7420  136.5460 C   0  0  0  0  0  0  0  0  0  0  0  0
  189.4290  178.5960  138.4620 C   0  0  0  0  0  3  0  0  0  0  0  0
  189.4260  177.3090  139.0190 C   0  0  0  0  0  0  0  0  0  0  0  0
  188.2490  176.4620  137.1300 C   0  0  0  0  0  0  0  0  0  0  0  0
  188.8430  176.2840  138.3410 N   0  0  0  0  0  0  0  0  0  0  0  0
  187.5890  177.9960  135.2220 C   0  0  0  0  0  1  0  0  0  0  0  0
  188.8260  178.8060  137.2230 C   0  0  0  0  0  3  0  0  0  0  0  0
  187.6480  175.3280  136.4760 C   0  0  0  0  0  0  0  0  0  0  0  0
  187.1660  174.4170  135.9510 N   0  0  0  0  0  0  0  0  0  0  0  0
  191.5030  177.2920  140.2540 C   0  0  0  0  0  0  0  0  0  0  0  0
  192.6380  177.5030  140.1680 N   0  0  0  0  0  0  0  0  0  0  0  0
  1 12  1  0  0  0  0
  2  1  1  6  0  0  0
  2  4  1  0  0  0  0
  2  3  1  0  0  0  0
  3  5  1  1  0  0  0
  4  3  1  0  0  0  0
  5 11  1  0  0  0  0
  6 10  1  0  0  0  0
  7  6  2  0  0  0  0
  8 11  2  0  0  0  0
  8  7  1  0  0  0  0
  9 10  2  0  0  0  0
 11  9  1  0  0  0  0
 13 12  1  0  0  0  0
 13 14  1  0  0  0  0
 15 14  1  1  0  0  0
 16 18  1  0  0  0  0
 16 17  1  0  0  0  0
 17 15  1  0  0  0  0
 18 15  1  0  0  0  0
 19 29  1  6  0  0  0
 19  1  1  0  0  0  0
 20 23  2  0  0  0  0
 20 26  1  0  0  0  0
 21 22  1  0  0  0  0
 22 19  1  0  0  0  0
 23 24  1  0  0  0  0
 24 22  2  0  0  0  0
 25 20  1  0  0  0  0
 26 21  2  0  0  0  0
 27 23  1  0  0  0  0
 28 27  3  0  0  0  0
 30 29  3  0  0  0  0
M  END
>  <MODEL>
8

>  <REMARK>
 VINA RESULT:      -6.4      2.441      5.256
  Name = 
  11 active torsions:
  status: ('A' for Active; 'I' for Inactive)
    1  A    between atoms: C_1  and  C_11
    2  A    between atoms: C_1  and  N_20
    3  A    between atoms: C_3  and  C_30
    4  A    between atoms: C_8  and  C_30
    5  A    between atoms: C_10  and  C_14
    6  A    between atoms: C_11  and  C_24
    7  A    between atoms: C_12  and  N_20
    8  A    between atoms: C_17  and  C_24
    9  A    between atoms: C_19  and  N_22
   10  A    between atoms: N_20  and  C_30
   11  A    between atoms: N_22  and  C_26
                            x       y       z     vdW  Elec       q    Type
                         _______ _______ _______ _____ _____    ______ ____

>  <TORSDO>
F 11

$$$$
=
 OpenBabel10222417003D

 30 33  0  0  1  0  0  0  0  0999 V2000
  190.9030  176.4980  138.8620 N   0  0  0  0  0  0  0  0  0  0  0  0
  190.5040  177.5020  139.8500 C   0  0  1  0  0  3  0  0  0  0  0  0
  189.9380  176.8800  141.0740 C   0  0  1  0  0  3  0  0  0  0  0  0
  191.2720  177.3140  141.0160 O   0  0  0  0  0  0  0  0  0  0  0  0
  189.1750  177.8560  141.8400 N   0  0  0  0  0  2  0  0  0  0  0  0
  188.2990  177.5050  145.9660 C   0  0  0  0  0  3  0  0  0  0  0  0
  187.2700  177.3740  145.0280 C   0  0  0  0  0  3  0  0  0  0  0  0
  187.5510  177.4860  143.6630 C   0  0  0  0  0  3  0  0  0  0  0  0
  189.8860  177.8620  144.1730 C   0  0  0  0  0  3  0  0  0  0  0  0
  189.6060  177.7490  145.5380 C   0  0  0  0  0  3  0  0  0  0  0  0
  188.8620  177.7310  143.2300 C   0  0  0  0  0  0  0  0  0  0  0  0
  192.3260  176.7560  138.6330 C   0  0  0  0  0  2  0  0  0  0  0  0
  192.8250  175.9600  137.4380 C   0  0  0  0  0  2  0  0  0  0  0  0
  193.1100  174.5240  137.8400 C   0  0  0  0  0  2  0  0  0  0  0  0
  194.5160  174.1320  137.4160 C   0  0  2  0  0  3  0  0  0  0  0  0
  196.0390  174.1290  138.7750 C   0  0  0  0  0  2  0  0  0  0  0  0
  195.0540  173.0680  138.3420 C   0  0  0  0  0  2  0  0  0  0  0  0
  195.4780  175.1280  137.8760 N   0  0  0  0  0  2  0  0  0  0  0  0
  190.1510  176.7320  137.6120 C   0  0  1  0  0  3  0  0  0  0  0  0
  187.2600  173.6840  136.7420 C   0  0  0  0  0  0  0  0  0  0  0  0
  189.5610  174.3130  137.1330 C   0  0  0  0  0  3  0  0  0  0  0  0
  189.1520  175.6420  137.3140 C   0  0  0  0  0  0  0  0  0  0  0  0
  186.8830  175.0260  136.9350 C   0  0  0  0  0  0  0  0  0  0  0  0
  187.8330  175.9590  137.2140 N   0  0  0  0  0  0  0  0  0  0  0  0
  186.2620  172.6200  136.4320 C   0  0  0  0  0  1  0  0  0  0  0  0
  188.6080  173.3380  136.8460 C   0  0  0  0  0  3  0  0  0  0  0  0
  185.5070  175.4410  136.8410 C   0  0  0  0  0  0  0  0  0  0  0  0
  184.4010  175.7750  136.7650 N   0  0  0  0  0  0  0  0  0  0  0  0
  189.4290  178.0160  137.6660 C   0  0  0  0  0  0  0  0  0  0  0  0
  188.8700  179.0290  137.7010 N   0  0  0  0  0  0  0  0  0  0  0  0
  2  1  1  6  0  0  0
  2  4  1  0  0  0  0
  2  3  1  0  0  0  0
  3  5  1  1  0  0  0
  4  3  1  0  0  0  0
  5 11  1  0  0  0  0
  7  6  2  0  0  0  0
  8  7  1  0  0  0  0
  9 10  2  0  0  0  0
 10  6  1  0  0  0  0
 11  8  2  0  0  0  0
 11  9  1  0  0  0  0
 12  1  1  0  0  0  0
 13 14  1  0  0  0  0
 13 12  1  0  0  0  0
 15 14  1  1  0  0  0
 15 18  1  0  0  0  0
 15 17  1  0  0  0  0
 17 16  1  0  0  0  0
 18 16  1  0  0  0  0
 19 29  1  1  0  0  0
 19  1  1  0  0  0  0
 20 26  2  0  0  0  0
 20 23  1  0  0  0  0
 21 22  2  0  0  0  0
 22 19  1  0  0  0  0
 23 24  2  0  0  0  0
 24 22  1  0  0  0  0
 25 20  1  0  0  0  0
 26 21  1  0  0  0  0
 27 23  1  0  0  0  0
 28 27  3  0  0  0  0
 29 30  3  0  0  0  0
M  END
>  <MODEL>
9

>  <REMARK>
 VINA RESULT:      -6.4      2.814      5.914
  Name = 
  11 active torsions:
  status: ('A' for Active; 'I' for Inactive)
    1  A    between atoms: C_1  and  C_11
    2  A    between atoms: C_1  and  N_20
    3  A    between atoms: C_3  and  C_30
    4  A    between atoms: C_8  and  C_30
    5  A    between atoms: C_10  and  C_14
    6  A    between atoms: C_11  and  C_24
    7  A    between atoms: C_12  and  N_20
    8  A    between atoms: C_17  and  C_24
    9  A    between atoms: C_19  and  N_22
   10  A    between atoms: N_20  and  C_30
   11  A    between atoms: N_22  and  C_26
                            x       y       z     vdW  Elec       q    Type
                         _______ _______ _______ _____ _____    ______ ____

>  <TORSDO>
F 11

$$$$
