=
 OpenBabel10222421003D

 38 40  0  0  1  0  0  0  0  0999 V2000
  186.4160  179.1370  141.5690 C   0  0  2  0  0  3  0  0  0  0  0  0
  185.3000  178.3430  142.3640 C   0  0  2  0  0  3  0  0  0  0  0  0
  185.0070  179.0720  140.9720 C   0  0  2  0  0  3  0  0  0  0  0  0
  184.7590  179.1640  143.5950 C   0  0  0  0  0  2  0  0  0  0  0  0
  183.4800  179.0180  145.8430 O   0  0  0  0  0  1  0  0  0  0  0  0
  184.6910  178.7490  145.1160 C   0  0  2  0  0  3  0  0  0  0  0  0
  186.0320  178.8500  145.8750 C   0  0  0  0  0  2  0  0  0  0  0  0
  186.7960  177.6880  145.7660 O   0  0  0  0  0  0  0  0  0  0  0  0
  187.7920  177.3560  146.7810 C   0  0  0  0  0  2  0  0  0  0  0  0
  187.7510  178.1500  148.1290 C   0  0  0  0  0  2  0  0  0  0  0  0
  189.2010  178.0300  148.3140 C   0  0  0  0  0  2  0  0  0  0  0  0
  189.7980  177.0530  147.4290 C   0  0  0  0  0  2  0  0  0  0  0  0
  191.1650  177.4360  147.5750 N   0  0  0  0  0  2  0  0  0  0  0  0
  191.9580  175.3590  147.3030 C   0  0  0  0  0  1  0  0  0  0  0  0
  191.8820  176.6910  146.6300 C   0  0  1  0  0  3  0  0  0  0  0  0
  191.6780  176.6870  142.8630 O   0  0  0  0  0  0  0  0  0  0  0  0
  191.2930  176.7450  145.1660 C   0  0  1  0  0  3  0  0  0  0  0  0
  191.3120  178.0980  144.6700 N   0  0  0  0  0  2  0  0  0  0  0  0
  191.7120  175.8880  144.0110 C   0  0  0  0  0  0  0  0  0  0  0  0
  192.0940  174.7320  144.0150 O   0  0  0  0  0  0  0  0  0  0  0  0
  191.3690  178.0170  143.1940 C   0  0  0  0  0  2  0  0  0  0  0  0
  187.0610  178.3330  140.5580 C   0  0  0  0  0  2  0  0  0  0  0  0
  188.3140  177.8710  140.9010 N   0  0  0  0  0  2  0  0  0  0  0  0
  189.1530  178.1250  139.8370 C   0  0  0  0  0  0  0  0  0  0  0  0
  188.8690  179.0230  138.9310 O   0  0  0  0  0  0  0  0  0  0  0  0
  190.0410  177.1120  139.6480 C   0  0  0  0  0  2  0  0  0  0  0  0
  190.9390  177.0100  137.4160 O   0  0  0  0  0  0  0  0  0  0  0  0
  189.9930  176.8400  138.2230 C   0  0  0  0  0  0  0  0  0  0  0  0
  188.4810  175.6890  136.7460 C   0  0  0  0  0  2  0  0  0  0  0  0
  188.8450  176.0220  137.8960 N   0  0  0  0  0  0  0  0  0  0  0  0
  184.0070  178.0400  140.6170 O   0  0  0  0  0  0  0  0  0  0  0  0
  181.8150  178.9140  140.4450 C   0  0  0  0  0  0  0  0  0  0  0  0
  181.4020  179.0270  142.1790 Cl  0  0  0  0  0  0  0  0  0  0  0  0
  182.7600  178.4930  138.4350 C   0  0  0  0  0  3  0  0  0  0  0  0
  180.9920  179.4260  139.3320 C   0  0  0  0  0  0  0  0  0  0  0  0
  179.8830  179.9260  139.3220 O   0  0  0  0  0  0  0  0  0  0  0  0
  182.8760  178.4270  139.8840 C   0  0  0  0  0  0  0  0  0  0  0  0
  181.7140  179.0790  138.1140 N   0  0  0  0  0  0  0  0  0  0  0  0
  1 22  1  6  0  0  0
  1  2  1  0  0  0  0
  2  4  1  1  0  0  0
  3 31  1  6  0  0  0
  3  1  1  0  0  0  0
  3  2  1  0  0  0  0
  4  6  1  0  0  0  0
  6  5  1  1  0  0  0
  6  7  1  0  0  0  0
  8  7  1  0  0  0  0
  8  9  1  0  0  0  0
  9 10  1  0  0  0  0
 10 11  1  0  0  0  0
 12 13  1  0  0  0  0
 12 11  1  0  0  0  0
 15 14  1  1  0  0  0
 15 13  1  0  0  0  0
 16 21  1  0  0  0  0
 16 19  1  0  0  0  0
 17 15  1  1  0  0  0
 18 17  1  0  0  0  0
 19 20  2  0  0  0  0
 19 17  1  0  0  0  0
 21 18  1  0  0  0  0
 22 23  1  0  0  0  0
 24 23  1  0  0  0  0
 25 24  2  0  0  0  0
 26 24  1  0  0  0  0
 27 28  2  0  0  0  0
 28 26  1  0  0  0  0
 29 30  2  0  0  0  0
 30 28  1  0  0  0  0
 32 33  1  0  0  0  0
 34 37  1  0  0  0  0
 35 32  1  0  0  0  0
 36 35  2  0  0  0  0
 37 32  2  0  0  0  0
 37 31  1  0  0  0  0
 38 34  2  0  0  0  0
 38 35  1  0  0  0  0
M  END
>  <MODEL>
1

>  <REMARK>
 VINA RESULT:      -7.0      0.000      0.000
  Name = 
  18 active torsions:
  status: ('A' for Active; 'I' for Inactive)
    1  A    between atoms: N_2  and  C_26
    2  A    between atoms: C_5  and  C_15
    3  A    between atoms: C_7  and  C_13
    4  A    between atoms: C_7  and  C_37
    5  A    between atoms: C_8  and  O_21
    6  A    between atoms: C_8  and  C_37
    7  A    between atoms: C_10  and  C_26
    8  A    between atoms: C_13  and  N_38
    9  A    between atoms: C_15  and  N_38
   10  A    between atoms: C_17  and  O_21
   11  A    between atoms: C_17  and  C_29
   12  A    between atoms: C_19  and  C_33
   13  A    between atoms: C_22  and  C_25
   14  A    between atoms: N_24  and  C_31
   15  A    between atoms: C_25  and  C_29
   16  A    between atoms: O_27  and  C_30
   17  A    between atoms: O_27  and  C_34
   18  A    between atoms: C_31  and  C_33
                            x       y       z     vdW  Elec       q    Type
                         _______ _______ _______ _____ _____    ______ ____

>  <TORSDO>
F 18

$$$$
=
 OpenBabel10222421003D

 38 40  0  0  1  0  0  0  0  0999 V2000
  187.8200  177.1560  143.0390 C   0  0  2  0  0  3  0  0  0  0  0  0
  187.5530  178.1700  144.2260 C   0  0  2  0  0  3  0  0  0  0  0  0
  188.5820  176.9530  144.3520 C   0  0  2  0  0  3  0  0  0  0  0  0
  186.1870  177.8760  144.9530 C   0  0  0  0  0  2  0  0  0  0  0  0
  184.1390  178.6250  146.3530 O   0  0  0  0  0  1  0  0  0  0  0  0
  184.9570  178.8360  145.1900 C   0  0  2  0  0  3  0  0  0  0  0  0
  184.2720  179.3390  143.9010 C   0  0  0  0  0  2  0  0  0  0  0  0
  184.0670  178.3180  142.9710 O   0  0  0  0  0  0  0  0  0  0  0  0
  183.9240  178.6250  141.5510 C   0  0  0  0  0  2  0  0  0  0  0  0
  182.5290  178.3740  140.8880 C   0  0  0  0  0  2  0  0  0  0  0  0
  183.0950  177.4380  139.9110 C   0  0  0  0  0  2  0  0  0  0  0  0
  182.4000  177.4670  138.6420 C   0  0  0  0  0  2  0  0  0  0  0  0
  183.4740  177.9150  137.8170 N   0  0  0  0  0  2  0  0  0  0  0  0
  183.6170  176.0460  136.5910 C   0  0  0  0  0  1  0  0  0  0  0  0
  184.3280  176.8160  137.6560 C   0  0  1  0  0  3  0  0  0  0  0  0
  187.4820  178.8460  137.2560 O   0  0  0  0  0  0  0  0  0  0  0  0
  185.8420  177.1900  137.4090 C   0  0  1  0  0  3  0  0  0  0  0  0
  186.0590  177.4950  136.0170 N   0  0  0  0  0  2  0  0  0  0  0  0
  186.6380  178.2050  138.1700 C   0  0  0  0  0  0  0  0  0  0  0  0
  186.5600  178.5150  139.3460 O   0  0  0  0  0  0  0  0  0  0  0  0
  187.2260  178.4010  135.9490 C   0  0  0  0  0  2  0  0  0  0  0  0
  188.9650  177.5220  142.2390 C   0  0  0  0  0  2  0  0  0  0  0  0
  189.0140  176.9270  140.9960 N   0  0  0  0  0  2  0  0  0  0  0  0
  190.2970  177.0770  140.5170 C   0  0  0  0  0  0  0  0  0  0  0  0
  191.3070  177.3230  141.3090 O   0  0  0  0  0  0  0  0  0  0  0  0
  190.3070  177.3230  139.1790 C   0  0  0  0  0  2  0  0  0  0  0  0
  190.4940  175.0420  138.4310 O   0  0  0  0  0  0  0  0  0  0  0  0
  190.9910  176.1810  138.5990 C   0  0  0  0  0  0  0  0  0  0  0  0
  193.3400  176.1180  138.0780 C   0  0  0  0  0  2  0  0  0  0  0  0
  192.1960  176.6000  137.9160 N   0  0  0  0  0  0  0  0  0  0  0  0
  189.4400  177.7460  145.2620 O   0  0  0  0  0  0  0  0  0  0  0  0
  190.7250  177.0680  147.1300 C   0  0  0  0  0  0  0  0  0  0  0  0
  189.8160  177.8880  148.4310 Cl  0  0  0  0  0  0  0  0  0  0  0  0
  191.5650  176.3330  145.1630 C   0  0  0  0  0  3  0  0  0  0  0  0
  191.8400  176.1210  147.3280 C   0  0  0  0  0  0  0  0  0  0  0  0
  192.4190  175.7680  148.3370 O   0  0  0  0  0  0  0  0  0  0  0  0
  190.5510  177.1210  145.8470 C   0  0  0  0  0  0  0  0  0  0  0  0
  192.2790  175.7430  145.9900 N   0  0  0  0  0  0  0  0  0  0  0  0
  1 22  1  6  0  0  0
  1  2  1  0  0  0  0
  1  3  1  0  0  0  0
  2  3  1  0  0  0  0
  2  4  1  1  0  0  0
  3 31  1  6  0  0  0
  4  6  1  0  0  0  0
  6  5  1  1  0  0  0
  7  6  1  0  0  0  0
  8  7  1  0  0  0  0
  9  8  1  0  0  0  0
 10  9  1  0  0  0  0
 11 10  1  0  0  0  0
 12 11  1  0  0  0  0
 13 12  1  0  0  0  0
 15 14  1  6  0  0  0
 15 13  1  0  0  0  0
 16 19  1  0  0  0  0
 17 15  1  1  0  0  0
 17 19  1  0  0  0  0
 18 17  1  0  0  0  0
 19 20  2  0  0  0  0
 21 18  1  0  0  0  0
 21 16  1  0  0  0  0
 23 22  1  0  0  0  0
 24 23  1  0  0  0  0
 24 25  2  0  0  0  0
 26 24  1  0  0  0  0
 27 28  2  0  0  0  0
 28 26  1  0  0  0  0
 30 29  2  0  0  0  0
 30 28  1  0  0  0  0
 31 37  1  0  0  0  0
 32 35  1  0  0  0  0
 32 33  1  0  0  0  0
 34 37  1  0  0  0  0
 34 38  2  0  0  0  0
 35 36  2  0  0  0  0
 37 32  2  0  0  0  0
 38 35  1  0  0  0  0
M  END
>  <MODEL>
2

>  <REMARK>
 VINA RESULT:      -7.0      2.777      8.241
  Name = 
  18 active torsions:
  status: ('A' for Active; 'I' for Inactive)
    1  A    between atoms: N_2  and  C_26
    2  A    between atoms: C_5  and  C_15
    3  A    between atoms: C_7  and  C_13
    4  A    between atoms: C_7  and  C_37
    5  A    between atoms: C_8  and  O_21
    6  A    between atoms: C_8  and  C_37
    7  A    between atoms: C_10  and  C_26
    8  A    between atoms: C_13  and  N_38
    9  A    between atoms: C_15  and  N_38
   10  A    between atoms: C_17  and  O_21
   11  A    between atoms: C_17  and  C_29
   12  A    between atoms: C_19  and  C_33
   13  A    between atoms: C_22  and  C_25
   14  A    between atoms: N_24  and  C_31
   15  A    between atoms: C_25  and  C_29
   16  A    between atoms: O_27  and  C_30
   17  A    between atoms: O_27  and  C_34
   18  A    between atoms: C_31  and  C_33
                            x       y       z     vdW  Elec       q    Type
                         _______ _______ _______ _____ _____    ______ ____

>  <TORSDO>
F 18

$$$$
=
 OpenBabel10222421003D

 38 40  0  0  1  0  0  0  0  0999 V2000
  185.3430  179.2500  142.3900 C   0  0  2  0  0  3  0  0  0  0  0  0
  184.5600  178.3610  143.4410 C   0  0  2  0  0  3  0  0  0  0  0  0
  183.8130  179.3090  142.3920 C   0  0  2  0  0  3  0  0  0  0  0  0
  184.6030  178.9850  144.8860 C   0  0  0  0  0  2  0  0  0  0  0  0
  185.7040  179.6730  147.1290 O   0  0  0  0  0  1  0  0  0  0  0  0
  185.6290  178.7200  146.0560 C   0  0  2  0  0  3  0  0  0  0  0  0
  186.9300  178.0070  145.6260 C   0  0  0  0  0  2  0  0  0  0  0  0
  187.3200  177.0170  146.5290 O   0  0  0  0  0  0  0  0  0  0  0  0
  188.0370  177.3700  147.7510 C   0  0  0  0  0  2  0  0  0  0  0  0
  189.4760  177.9670  147.6070 C   0  0  0  0  0  2  0  0  0  0  0  0
  190.0410  176.6710  147.2170 C   0  0  0  0  0  2  0  0  0  0  0  0
  191.1710  176.8000  146.3230 C   0  0  0  0  0  2  0  0  0  0  0  0
  190.4720  177.2020  145.1470 N   0  0  0  0  0  2  0  0  0  0  0  0
  191.7920  175.6210  144.2640 C   0  0  0  0  0  1  0  0  0  0  0  0
  191.3730  177.0440  144.0850 C   0  0  1  0  0  3  0  0  0  0  0  0
  189.8960  176.8400  140.6200 O   0  0  0  0  0  0  0  0  0  0  0  0
  190.8070  177.4740  142.6750 C   0  0  1  0  0  3  0  0  0  0  0  0
  191.8590  177.4620  141.6900 N   0  0  0  0  0  2  0  0  0  0  0  0
  189.6090  176.8930  141.9880 C   0  0  0  0  0  0  0  0  0  0  0  0
  188.5800  176.4610  142.4770 O   0  0  0  0  0  0  0  0  0  0  0  0
  191.2190  177.2420  140.3750 C   0  0  0  0  0  2  0  0  0  0  0  0
  185.4820  178.6050  141.1060 C   0  0  0  0  0  2  0  0  0  0  0  0
  186.7480  178.6680  140.5630 N   0  0  0  0  0  2  0  0  0  0  0  0
  186.6140  178.5770  139.1940 C   0  0  0  0  0  0  0  0  0  0  0  0
  185.4870  178.8440  138.5890 O   0  0  0  0  0  0  0  0  0  0  0  0
  187.6120  177.8350  138.6420 C   0  0  0  0  0  2  0  0  0  0  0  0
  188.6650  179.5820  137.3630 O   0  0  0  0  0  0  0  0  0  0  0  0
  187.9670  178.5420  137.4240 C   0  0  0  0  0  0  0  0  0  0  0  0
  187.0230  178.0310  135.2700 C   0  0  0  0  0  2  0  0  0  0  0  0
  187.7170  177.7160  136.2620 N   0  0  0  0  0  0  0  0  0  0  0  0
  182.6740  178.3650  142.3200 O   0  0  0  0  0  0  0  0  0  0  0  0
  181.6690  177.8120  140.2500 C   0  0  0  0  0  0  0  0  0  0  0  0
  182.8340  176.5870  139.6710 Cl  0  0  0  0  0  0  0  0  0  0  0  0
  180.5730  179.4520  141.3560 C   0  0  0  0  0  3  0  0  0  0  0  0
  180.3890  178.1530  139.5990 C   0  0  0  0  0  0  0  0  0  0  0  0
  179.9010  177.7790  138.5500 O   0  0  0  0  0  0  0  0  0  0  0  0
  181.7150  178.5500  141.3130 C   0  0  0  0  0  0  0  0  0  0  0  0
  179.8060  179.2160  140.4090 N   0  0  0  0  0  0  0  0  0  0  0  0
  1 22  1  6  0  0  0
  1  3  1  0  0  0  0
  1  2  1  0  0  0  0
  2  4  1  1  0  0  0
  3 31  1  6  0  0  0
  3  2  1  0  0  0  0
  4  6  1  0  0  0  0
  6  5  1  6  0  0  0
  7  6  1  0  0  0  0
  7  8  1  0  0  0  0
  8  9  1  0  0  0  0
 10  9  1  0  0  0  0
 11 10  1  0  0  0  0
 12 11  1  0  0  0  0
 13 12  1  0  0  0  0
 15 14  1  6  0  0  0
 15 13  1  0  0  0  0
 16 19  1  0  0  0  0
 17 15  1  1  0  0  0
 18 17  1  0  0  0  0
 19 20  2  0  0  0  0
 19 17  1  0  0  0  0
 21 16  1  0  0  0  0
 21 18  1  0  0  0  0
 23 22  1  0  0  0  0
 24 23  1  0  0  0  0
 25 24  2  0  0  0  0
 26 24  1  0  0  0  0
 27 28  2  0  0  0  0
 28 26  1  0  0  0  0
 29 30  2  0  0  0  0
 30 28  1  0  0  0  0
 32 37  2  0  0  0  0
 33 32  1  0  0  0  0
 35 32  1  0  0  0  0
 35 38  1  0  0  0  0
 36 35  2  0  0  0  0
 37 34  1  0  0  0  0
 37 31  1  0  0  0  0
 38 34  2  0  0  0  0
M  END
>  <MODEL>
3

>  <REMARK>
 VINA RESULT:      -6.8      1.958      2.499
  Name = 
  18 active torsions:
  status: ('A' for Active; 'I' for Inactive)
    1  A    between atoms: N_2  and  C_26
    2  A    between atoms: C_5  and  C_15
    3  A    between atoms: C_7  and  C_13
    4  A    between atoms: C_7  and  C_37
    5  A    between atoms: C_8  and  O_21
    6  A    between atoms: C_8  and  C_37
    7  A    between atoms: C_10  and  C_26
    8  A    between atoms: C_13  and  N_38
    9  A    between atoms: C_15  and  N_38
   10  A    between atoms: C_17  and  O_21
   11  A    between atoms: C_17  and  C_29
   12  A    between atoms: C_19  and  C_33
   13  A    between atoms: C_22  and  C_25
   14  A    between atoms: N_24  and  C_31
   15  A    between atoms: C_25  and  C_29
   16  A    between atoms: O_27  and  C_30
   17  A    between atoms: O_27  and  C_34
   18  A    between atoms: C_31  and  C_33
                            x       y       z     vdW  Elec       q    Type
                         _______ _______ _______ _____ _____    ______ ____

>  <TORSDO>
F 18

$$$$
=
 OpenBabel10222421003D

 38 40  0  0  1  0  0  0  0  0999 V2000
  186.6970  178.5130  145.7550 C   0  0  2  0  0  3  0  0  0  0  0  0
  185.6520  177.9640  144.6980 C   0  0  2  0  0  3  0  0  0  0  0  0
  187.1970  178.1790  144.3460 C   0  0  2  0  0  3  0  0  0  0  0  0
  184.7420  179.1130  144.1220 C   0  0  0  0  0  2  0  0  0  0  0  0
  182.3260  178.8210  143.2300 O   0  0  0  0  0  1  0  0  0  0  0  0
  183.7110  179.0620  142.9280 C   0  0  2  0  0  3  0  0  0  0  0  0
  184.2760  178.4900  141.6090 C   0  0  0  0  0  2  0  0  0  0  0  0
  184.3690  179.4550  140.6050 O   0  0  0  0  0  0  0  0  0  0  0  0
  184.4020  179.0620  139.1990 C   0  0  0  0  0  2  0  0  0  0  0  0
  184.1420  177.5580  138.8560 C   0  0  0  0  0  2  0  0  0  0  0  0
  183.6870  177.8830  137.5000 C   0  0  0  0  0  2  0  0  0  0  0  0
  184.4370  177.1870  136.4770 C   0  0  0  0  0  2  0  0  0  0  0  0
  185.1790  176.3040  137.3160 N   0  0  0  0  0  2  0  0  0  0  0  0
  186.0400  176.4090  135.2500 C   0  0  0  0  0  1  0  0  0  0  0  0
  186.3980  176.0770  136.6630 C   0  0  1  0  0  3  0  0  0  0  0  0
  189.3720  178.3610  137.0640 O   0  0  0  0  0  0  0  0  0  0  0  0
  187.6350  176.8190  137.3040 C   0  0  1  0  0  3  0  0  0  0  0  0
  188.8510  176.1010  137.0190 N   0  0  0  0  0  2  0  0  0  0  0  0
  187.9790  178.2690  137.1420 C   0  0  0  0  0  0  0  0  0  0  0  0
  187.2320  179.2230  137.0180 O   0  0  0  0  0  0  0  0  0  0  0  0
  189.9550  177.0840  137.0600 C   0  0  0  0  0  2  0  0  0  0  0  0
  187.4090  177.4590  146.4370 C   0  0  0  0  0  2  0  0  0  0  0  0
  188.7570  177.3970  146.1570 N   0  0  0  0  0  2  0  0  0  0  0  0
  189.3720  176.7750  147.2220 C   0  0  0  0  0  0  0  0  0  0  0  0
  188.7090  176.0220  148.0610 O   0  0  0  0  0  0  0  0  0  0  0  0
  190.5800  177.3350  147.5000 C   0  0  0  0  0  2  0  0  0  0  0  0
  191.6430  177.3370  145.3400 O   0  0  0  0  0  0  0  0  0  0  0  0
  191.4690  176.8250  146.4720 C   0  0  0  0  0  0  0  0  0  0  0  0
  192.7070  175.7490  148.2330 C   0  0  0  0  0  2  0  0  0  0  0  0
  192.3920  175.8590  147.0270 N   0  0  0  0  0  0  0  0  0  0  0  0
  187.1640  177.0350  143.4080 O   0  0  0  0  0  0  0  0  0  0  0  0
  188.6900  177.3630  141.6300 C   0  0  0  0  0  0  0  0  0  0  0  0
  187.7920  178.5880  140.6890 Cl  0  0  0  0  0  0  0  0  0  0  0  0
  189.3620  175.7730  143.0900 C   0  0  0  0  0  3  0  0  0  0  0  0
  190.0670  176.9080  141.3530 C   0  0  0  0  0  0  0  0  0  0  0  0
  190.8260  177.1700  140.4390 O   0  0  0  0  0  0  0  0  0  0  0  0
  188.3300  176.7200  142.6950 C   0  0  0  0  0  0  0  0  0  0  0  0
  190.3560  175.8910  142.3570 N   0  0  0  0  0  0  0  0  0  0  0  0
  1 22  1  1  0  0  0
  2  4  1  6  0  0  0
  2  1  1  0  0  0  0
  3 31  1  1  0  0  0
  3  2  1  0  0  0  0
  3  1  1  0  0  0  0
  6  5  1  1  0  0  0
  6  4  1  0  0  0  0
  7  6  1  0  0  0  0
  8  7  1  0  0  0  0
  9  8  1  0  0  0  0
 10  9  1  0  0  0  0
 11 10  1  0  0  0  0
 12 13  1  0  0  0  0
 12 11  1  0  0  0  0
 15 14  1  6  0  0  0
 15 13  1  0  0  0  0
 16 19  1  0  0  0  0
 17 15  1  6  0  0  0
 18 21  1  0  0  0  0
 18 17  1  0  0  0  0
 19 17  1  0  0  0  0
 20 19  2  0  0  0  0
 21 16  1  0  0  0  0
 23 22  1  0  0  0  0
 23 24  1  0  0  0  0
 24 26  1  0  0  0  0
 24 25  2  0  0  0  0
 27 28  2  0  0  0  0
 28 30  1  0  0  0  0
 28 26  1  0  0  0  0
 30 29  2  0  0  0  0
 32 37  2  0  0  0  0
 33 32  1  0  0  0  0
 35 32  1  0  0  0  0
 35 38  1  0  0  0  0
 36 35  2  0  0  0  0
 37 34  1  0  0  0  0
 37 31  1  0  0  0  0
 38 34  2  0  0  0  0
M  END
>  <MODEL>
4

>  <REMARK>
 VINA RESULT:      -6.7      2.425      8.308
  Name = 
  18 active torsions:
  status: ('A' for Active; 'I' for Inactive)
    1  A    between atoms: N_2  and  C_26
    2  A    between atoms: C_5  and  C_15
    3  A    between atoms: C_7  and  C_13
    4  A    between atoms: C_7  and  C_37
    5  A    between atoms: C_8  and  O_21
    6  A    between atoms: C_8  and  C_37
    7  A    between atoms: C_10  and  C_26
    8  A    between atoms: C_13  and  N_38
    9  A    between atoms: C_15  and  N_38
   10  A    between atoms: C_17  and  O_21
   11  A    between atoms: C_17  and  C_29
   12  A    between atoms: C_19  and  C_33
   13  A    between atoms: C_22  and  C_25
   14  A    between atoms: N_24  and  C_31
   15  A    between atoms: C_25  and  C_29
   16  A    between atoms: O_27  and  C_30
   17  A    between atoms: O_27  and  C_34
   18  A    between atoms: C_31  and  C_33
                            x       y       z     vdW  Elec       q    Type
                         _______ _______ _______ _____ _____    ______ ____

>  <TORSDO>
F 18

$$$$
=
 OpenBabel10222421003D

 38 40  0  0  1  0  0  0  0  0999 V2000
  182.8980  178.0300  140.7980 C   0  0  2  0  0  3  0  0  0  0  0  0
  184.0710  178.9570  141.3190 C   0  0  2  0  0  3  0  0  0  0  0  0
  184.2460  177.9680  140.0740 C   0  0  2  0  0  3  0  0  0  0  0  0
  184.7300  178.3880  142.6320 C   0  0  0  0  0  2  0  0  0  0  0  0
  182.9050  178.7700  144.4300 O   0  0  0  0  0  1  0  0  0  0  0  0
  184.3020  178.6040  144.1350 C   0  0  2  0  0  3  0  0  0  0  0  0
  185.3230  179.3820  144.9930 C   0  0  0  0  0  2  0  0  0  0  0  0
  185.1450  179.1690  146.3610 O   0  0  0  0  0  0  0  0  0  0  0  0
  186.0250  178.2610  147.0910 C   0  0  0  0  0  2  0  0  0  0  0  0
  187.3620  177.8300  146.4020 C   0  0  0  0  0  2  0  0  0  0  0  0
  188.0510  177.6900  147.6900 C   0  0  0  0  0  2  0  0  0  0  0  0
  189.4840  177.8530  147.5770 C   0  0  0  0  0  2  0  0  0  0  0  0
  189.7510  176.7980  146.6550 N   0  0  0  0  0  2  0  0  0  0  0  0
  191.8330  176.0870  146.2370 C   0  0  0  0  0  1  0  0  0  0  0  0
  190.8790  177.1940  145.9240 C   0  0  1  0  0  3  0  0  0  0  0  0
  190.3920  176.7440  142.2110 O   0  0  0  0  0  0  0  0  0  0  0  0
  190.5970  177.5180  144.4050 C   0  0  1  0  0  3  0  0  0  0  0  0
  191.8340  177.7720  143.7110 N   0  0  0  0  0  2  0  0  0  0  0  0
  189.7710  176.6960  143.4640 C   0  0  0  0  0  0  0  0  0  0  0  0
  188.7800  176.0270  143.6980 O   0  0  0  0  0  0  0  0  0  0  0  0
  191.6070  177.4450  142.2870 C   0  0  0  0  0  2  0  0  0  0  0  0
  182.1550  178.6250  139.7120 C   0  0  0  0  0  2  0  0  0  0  0  0
  180.7960  178.3940  139.7480 N   0  0  0  0  0  2  0  0  0  0  0  0
  180.1770  179.6090  139.9520 C   0  0  0  0  0  0  0  0  0  0  0  0
  180.7740  180.7420  139.6930 O   0  0  0  0  0  0  0  0  0  0  0  0
  179.1030  179.4910  140.7790 C   0  0  0  0  0  2  0  0  0  0  0  0
  179.9440  180.8070  142.6110 O   0  0  0  0  0  0  0  0  0  0  0  0
  179.6380  179.6970  142.1120 C   0  0  0  0  0  0  0  0  0  0  0  0
  179.5590  178.4550  144.1720 C   0  0  0  0  0  2  0  0  0  0  0  0
  179.4510  178.5160  142.9270 N   0  0  0  0  0  0  0  0  0  0  0  0
  185.1980  178.9060  139.4370 O   0  0  0  0  0  0  0  0  0  0  0  0
  187.4440  178.1590  139.4120 C   0  0  0  0  0  0  0  0  0  0  0  0
  187.9300  178.6240  141.0670 Cl  0  0  0  0  0  0  0  0  0  0  0  0
  186.3920  177.8680  137.4320 C   0  0  0  0  0  3  0  0  0  0  0  0
  188.2610  177.3760  138.4650 C   0  0  0  0  0  0  0  0  0  0  0  0
  189.4040  176.9680  138.5440 O   0  0  0  0  0  0  0  0  0  0  0  0
  186.3270  178.3780  138.7930 C   0  0  0  0  0  0  0  0  0  0  0  0
  187.4670  177.2770  137.2460 N   0  0  0  0  0  0  0  0  0  0  0  0
  1 22  1  6  0  0  0
  1  2  1  0  0  0  0
  2  4  1  1  0  0  0
  3 31  1  6  0  0  0
  3  1  1  0  0  0  0
  3  2  1  0  0  0  0
  4  6  1  0  0  0  0
  6  5  1  6  0  0  0
  6  7  1  0  0  0  0
  7  8  1  0  0  0  0
  8  9  1  0  0  0  0
 10  9  1  0  0  0  0
 10 11  1  0  0  0  0
 12 11  1  0  0  0  0
 13 12  1  0  0  0  0
 15 14  1  6  0  0  0
 15 13  1  0  0  0  0
 16 21  1  0  0  0  0
 16 19  1  0  0  0  0
 17 15  1  1  0  0  0
 18 17  1  0  0  0  0
 19 20  2  0  0  0  0
 19 17  1  0  0  0  0
 21 18  1  0  0  0  0
 22 23  1  0  0  0  0
 23 24  1  0  0  0  0
 24 26  1  0  0  0  0
 25 24  2  0  0  0  0
 26 28  1  0  0  0  0
 28 27  2  0  0  0  0
 28 30  1  0  0  0  0
 30 29  2  0  0  0  0
 32 33  1  0  0  0  0
 34 37  1  0  0  0  0
 35 36  2  0  0  0  0
 35 32  1  0  0  0  0
 37 32  2  0  0  0  0
 37 31  1  0  0  0  0
 38 34  2  0  0  0  0
 38 35  1  0  0  0  0
M  END
>  <MODEL>
5

>  <REMARK>
 VINA RESULT:      -6.6      2.257      5.831
  Name = 
  18 active torsions:
  status: ('A' for Active; 'I' for Inactive)
    1  A    between atoms: N_2  and  C_26
    2  A    between atoms: C_5  and  C_15
    3  A    between atoms: C_7  and  C_13
    4  A    between atoms: C_7  and  C_37
    5  A    between atoms: C_8  and  O_21
    6  A    between atoms: C_8  and  C_37
    7  A    between atoms: C_10  and  C_26
    8  A    between atoms: C_13  and  N_38
    9  A    between atoms: C_15  and  N_38
   10  A    between atoms: C_17  and  O_21
   11  A    between atoms: C_17  and  C_29
   12  A    between atoms: C_19  and  C_33
   13  A    between atoms: C_22  and  C_25
   14  A    between atoms: N_24  and  C_31
   15  A    between atoms: C_25  and  C_29
   16  A    between atoms: O_27  and  C_30
   17  A    between atoms: O_27  and  C_34
   18  A    between atoms: C_31  and  C_33
                            x       y       z     vdW  Elec       q    Type
                         _______ _______ _______ _____ _____    ______ ____

>  <TORSDO>
F 18

$$$$
=
 OpenBabel10222421003D

 38 40  0  0  1  0  0  0  0  0999 V2000
  187.5610  176.8930  142.8310 C   0  0  2  0  0  3  0  0  0  0  0  0
  187.2480  178.0570  143.8580 C   0  0  2  0  0  3  0  0  0  0  0  0
  188.2860  176.8840  144.1790 C   0  0  2  0  0  3  0  0  0  0  0  0
  185.8650  177.8470  144.5810 C   0  0  0  0  0  2  0  0  0  0  0  0
  184.5710  178.6640  146.6710 O   0  0  0  0  0  1  0  0  0  0  0  0
  184.9480  178.9070  145.3060 C   0  0  2  0  0  3  0  0  0  0  0  0
  183.9320  179.6190  144.3870 C   0  0  0  0  0  2  0  0  0  0  0  0
  182.7950  178.8460  144.1470 O   0  0  0  0  0  0  0  0  0  0  0  0
  182.2070  178.7840  142.8120 C   0  0  0  0  0  2  0  0  0  0  0  0
  180.7900  179.4150  142.6080 C   0  0  0  0  0  2  0  0  0  0  0  0
  180.6220  178.7660  141.3040 C   0  0  0  0  0  2  0  0  0  0  0  0
  180.1580  179.6780  140.2820 C   0  0  0  0  0  2  0  0  0  0  0  0
  181.3930  179.8810  139.5970 N   0  0  0  0  0  2  0  0  0  0  0  0
  181.0730  179.0820  137.5290 C   0  0  0  0  0  1  0  0  0  0  0  0
  181.6310  178.7100  138.8650 C   0  0  1  0  0  3  0  0  0  0  0  0
  185.3090  178.3300  138.1200 O   0  0  0  0  0  0  0  0  0  0  0  0
  183.1200  178.1900  138.9230 C   0  0  1  0  0  3  0  0  0  0  0  0
  183.3220  177.1430  137.9540 N   0  0  0  0  0  2  0  0  0  0  0  0
  184.3560  179.0350  138.8630 C   0  0  0  0  0  0  0  0  0  0  0  0
  184.5350  180.1610  139.2920 O   0  0  0  0  0  0  0  0  0  0  0  0
  184.7600  177.1430  137.6090 C   0  0  0  0  0  2  0  0  0  0  0  0
  188.7240  177.1610  142.0180 C   0  0  0  0  0  2  0  0  0  0  0  0
  188.4490  177.5220  140.7160 N   0  0  0  0  0  2  0  0  0  0  0  0
  189.5560  177.2070  139.9590 C   0  0  0  0  0  0  0  0  0  0  0  0
  190.4450  176.3380  140.3600 O   0  0  0  0  0  0  0  0  0  0  0  0
  189.7930  178.1460  139.0040 C   0  0  0  0  0  2  0  0  0  0  0  0
  190.9050  176.8110  137.3370 O   0  0  0  0  0  0  0  0  0  0  0  0
  189.8810  177.3980  137.7630 C   0  0  0  0  0  0  0  0  0  0  0  0
  188.2130  177.1680  136.0430 C   0  0  0  0  0  2  0  0  0  0  0  0
  188.5610  177.1110  137.2440 N   0  0  0  0  0  0  0  0  0  0  0  0
  189.1090  177.8080  144.9930 O   0  0  0  0  0  0  0  0  0  0  0  0
  191.0440  176.6450  145.7020 C   0  0  0  0  0  0  0  0  0  0  0  0
  191.6810  176.1300  144.1140 Cl  0  0  0  0  0  0  0  0  0  0  0  0
  189.8040  177.4310  147.4220 C   0  0  0  0  0  3  0  0  0  0  0  0
  191.7300  176.4750  146.9980 C   0  0  0  0  0  0  0  0  0  0  0  0
  192.7690  175.9110  147.2840 O   0  0  0  0  0  0  0  0  0  0  0  0
  189.9420  177.2660  145.9820 C   0  0  0  0  0  0  0  0  0  0  0  0
  190.8190  177.0140  148.0010 N   0  0  0  0  0  0  0  0  0  0  0  0
  1 22  1  6  0  0  0
  1  2  1  0  0  0  0
  1  3  1  0  0  0  0
  2  3  1  0  0  0  0
  2  4  1  1  0  0  0
  3 31  1  6  0  0  0
  4  6  1  0  0  0  0
  6  5  1  1  0  0  0
  7  6  1  0  0  0  0
  8  7  1  0  0  0  0
  9  8  1  0  0  0  0
 10  9  1  0  0  0  0
 11 10  1  0  0  0  0
 12 11  1  0  0  0  0
 13 12  1  0  0  0  0
 15 14  1  6  0  0  0
 15 13  1  0  0  0  0
 16 19  1  0  0  0  0
 17 15  1  6  0  0  0
 18 17  1  0  0  0  0
 19 17  1  0  0  0  0
 19 20  2  0  0  0  0
 21 18  1  0  0  0  0
 21 16  1  0  0  0  0
 23 22  1  0  0  0  0
 24 25  2  0  0  0  0
 24 23  1  0  0  0  0
 26 24  1  0  0  0  0
 27 28  2  0  0  0  0
 28 26  1  0  0  0  0
 29 30  2  0  0  0  0
 30 28  1  0  0  0  0
 31 37  1  0  0  0  0
 32 37  2  0  0  0  0
 32 35  1  0  0  0  0
 33 32  1  0  0  0  0
 34 38  2  0  0  0  0
 35 36  2  0  0  0  0
 35 38  1  0  0  0  0
 37 34  1  0  0  0  0
M  END
>  <MODEL>
6

>  <REMARK>
 VINA RESULT:      -6.5      2.644      8.488
  Name = 
  18 active torsions:
  status: ('A' for Active; 'I' for Inactive)
    1  A    between atoms: N_2  and  C_26
    2  A    between atoms: C_5  and  C_15
    3  A    between atoms: C_7  and  C_13
    4  A    between atoms: C_7  and  C_37
    5  A    between atoms: C_8  and  O_21
    6  A    between atoms: C_8  and  C_37
    7  A    between atoms: C_10  and  C_26
    8  A    between atoms: C_13  and  N_38
    9  A    between atoms: C_15  and  N_38
   10  A    between atoms: C_17  and  O_21
   11  A    between atoms: C_17  and  C_29
   12  A    between atoms: C_19  and  C_33
   13  A    between atoms: C_22  and  C_25
   14  A    between atoms: N_24  and  C_31
   15  A    between atoms: C_25  and  C_29
   16  A    between atoms: O_27  and  C_30
   17  A    between atoms: O_27  and  C_34
   18  A    between atoms: C_31  and  C_33
                            x       y       z     vdW  Elec       q    Type
                         _______ _______ _______ _____ _____    ______ ____

>  <TORSDO>
F 18

$$$$
=
 OpenBabel10222421003D

 38 40  0  0  1  0  0  0  0  0999 V2000
  187.0080  178.9390  141.6820 C   0  0  2  0  0  3  0  0  0  0  0  0
  186.0100  178.1650  142.6380 C   0  0  2  0  0  3  0  0  0  0  0  0
  185.5240  178.9070  141.3070 C   0  0  2  0  0  3  0  0  0  0  0  0
  185.6830  178.9920  143.9370 C   0  0  0  0  0  2  0  0  0  0  0  0
  183.4010  179.6250  144.9910 O   0  0  0  0  0  1  0  0  0  0  0  0
  184.5470  178.7560  145.0080 C   0  0  2  0  0  3  0  0  0  0  0  0
  185.0430  178.2360  146.3740 C   0  0  0  0  0  2  0  0  0  0  0  0
  186.1690  177.4190  146.2580 O   0  0  0  0  0  0  0  0  0  0  0  0
  187.4690  177.8730  146.7440 C   0  0  0  0  0  2  0  0  0  0  0  0
  188.0840  177.1340  147.9780 C   0  0  0  0  0  2  0  0  0  0  0  0
  189.2920  177.9660  147.9510 C   0  0  0  0  0  2  0  0  0  0  0  0
  190.5040  177.1860  147.8300 C   0  0  0  0  0  2  0  0  0  0  0  0
  190.3470  176.7480  146.4820 N   0  0  0  0  0  2  0  0  0  0  0  0
  192.1870  175.4720  146.4530 C   0  0  0  0  0  1  0  0  0  0  0  0
  191.6290  176.7510  145.9170 C   0  0  1  0  0  3  0  0  0  0  0  0
  190.6550  177.8860  142.4550 O   0  0  0  0  0  0  0  0  0  0  0  0
  191.6590  176.9700  144.3550 C   0  0  1  0  0  3  0  0  0  0  0  0
  190.9040  175.9380  143.6910 N   0  0  0  0  0  2  0  0  0  0  0  0
  191.3220  178.2390  143.6320 C   0  0  0  0  0  0  0  0  0  0  0  0
  191.5010  179.3910  143.9850 O   0  0  0  0  0  0  0  0  0  0  0  0
  190.4410  176.4990  142.4030 C   0  0  0  0  0  2  0  0  0  0  0  0
  187.4740  178.1260  140.5830 C   0  0  0  0  0  2  0  0  0  0  0  0
  188.3960  178.7400  139.7620 N   0  0  0  0  0  2  0  0  0  0  0  0
  188.1460  178.3180  138.4740 C   0  0  0  0  0  0  0  0  0  0  0  0
  186.9900  177.8190  138.1210 O   0  0  0  0  0  0  0  0  0  0  0  0
  189.2980  178.1250  137.7770 C   0  0  0  0  0  2  0  0  0  0  0  0
  189.0580  176.1000  136.4970 O   0  0  0  0  0  0  0  0  0  0  0  0
  189.3630  176.6910  137.5610 C   0  0  0  0  0  0  0  0  0  0  0  0
  191.3560  176.2810  138.8470 C   0  0  0  0  0  2  0  0  0  0  0  0
  190.1520  176.0530  138.5930 N   0  0  0  0  0  0  0  0  0  0  0  0
  184.4590  177.8970  141.1090 O   0  0  0  0  0  0  0  0  0  0  0  0
  182.7320  178.3500  139.5560 C   0  0  0  0  0  0  0  0  0  0  0  0
  183.6150  178.0450  138.0320 Cl  0  0  0  0  0  0  0  0  0  0  0  0
  182.1080  178.7010  141.7000 C   0  0  0  0  0  3  0  0  0  0  0  0
  181.2870  178.6250  139.6690 C   0  0  0  0  0  0  0  0  0  0  0  0
  180.4350  178.7870  138.8170 O   0  0  0  0  0  0  0  0  0  0  0  0
  183.1720  178.3400  140.7740 C   0  0  0  0  0  0  0  0  0  0  0  0
  181.0360  178.8360  141.0900 N   0  0  0  0  0  0  0  0  0  0  0  0
  1 22  1  6  0  0  0
  1  2  1  0  0  0  0
  2  4  1  1  0  0  0
  3 31  1  6  0  0  0
  3  1  1  0  0  0  0
  3  2  1  0  0  0  0
  4  6  1  0  0  0  0
  6  5  1  1  0  0  0
  6  7  1  0  0  0  0
  8  7  1  0  0  0  0
  8  9  1  0  0  0  0
  9 10  1  0  0  0  0
 11 10  1  0  0  0  0
 12 11  1  0  0  0  0
 13 12  1  0  0  0  0
 15 14  1  6  0  0  0
 15 13  1  0  0  0  0
 16 19  1  0  0  0  0
 17 15  1  1  0  0  0
 18 17  1  0  0  0  0
 19 20  2  0  0  0  0
 19 17  1  0  0  0  0
 21 16  1  0  0  0  0
 21 18  1  0  0  0  0
 23 22  1  0  0  0  0
 24 23  1  0  0  0  0
 25 24  2  0  0  0  0
 26 24  1  0  0  0  0
 27 28  2  0  0  0  0
 28 26  1  0  0  0  0
 28 30  1  0  0  0  0
 30 29  2  0  0  0  0
 32 35  1  0  0  0  0
 32 37  2  0  0  0  0
 33 32  1  0  0  0  0
 35 38  1  0  0  0  0
 36 35  2  0  0  0  0
 37 31  1  0  0  0  0
 37 34  1  0  0  0  0
 38 34  2  0  0  0  0
M  END
>  <MODEL>
7

>  <REMARK>
 VINA RESULT:      -6.4      1.619      1.917
  Name = 
  18 active torsions:
  status: ('A' for Active; 'I' for Inactive)
    1  A    between atoms: N_2  and  C_26
    2  A    between atoms: C_5  and  C_15
    3  A    between atoms: C_7  and  C_13
    4  A    between atoms: C_7  and  C_37
    5  A    between atoms: C_8  and  O_21
    6  A    between atoms: C_8  and  C_37
    7  A    between atoms: C_10  and  C_26
    8  A    between atoms: C_13  and  N_38
    9  A    between atoms: C_15  and  N_38
   10  A    between atoms: C_17  and  O_21
   11  A    between atoms: C_17  and  C_29
   12  A    between atoms: C_19  and  C_33
   13  A    between atoms: C_22  and  C_25
   14  A    between atoms: N_24  and  C_31
   15  A    between atoms: C_25  and  C_29
   16  A    between atoms: O_27  and  C_30
   17  A    between atoms: O_27  and  C_34
   18  A    between atoms: C_31  and  C_33
                            x       y       z     vdW  Elec       q    Type
                         _______ _______ _______ _____ _____    ______ ____

>  <TORSDO>
F 18

$$$$
=
 OpenBabel10222421003D

 38 40  0  0  1  0  0  0  0  0999 V2000
  188.6000  176.7660  142.3800 C   0  0  2  0  0  3  0  0  0  0  0  0
  188.2040  177.8540  143.4590 C   0  0  2  0  0  3  0  0  0  0  0  0
  189.2690  176.7000  143.7550 C   0  0  2  0  0  3  0  0  0  0  0  0
  186.8010  177.5540  144.1090 C   0  0  0  0  0  2  0  0  0  0  0  0
  186.2930  177.3810  146.6440 O   0  0  0  0  0  1  0  0  0  0  0  0
  186.1680  178.1410  145.4300 C   0  0  2  0  0  3  0  0  0  0  0  0
  184.8800  178.9670  145.2200 C   0  0  0  0  0  2  0  0  0  0  0  0
  184.1160  178.5010  144.1490 O   0  0  0  0  0  0  0  0  0  0  0  0
  184.3070  179.0470  142.8080 C   0  0  0  0  0  2  0  0  0  0  0  0
  184.5480  178.0380  141.6370 C   0  0  0  0  0  2  0  0  0  0  0  0
  185.0830  179.0870  140.7620 C   0  0  0  0  0  2  0  0  0  0  0  0
  186.1270  178.6050  139.8850 C   0  0  0  0  0  2  0  0  0  0  0  0
  185.4800  178.8290  138.6340 N   0  0  0  0  0  2  0  0  0  0  0  0
  183.8360  177.6120  137.7210 C   0  0  0  0  0  1  0  0  0  0  0  0
  185.2910  177.5650  138.0590 C   0  0  1  0  0  3  0  0  0  0  0  0
  188.4530  176.5410  136.2780 O   0  0  0  0  0  0  0  0  0  0  0  0
  186.3050  177.2110  136.9030 C   0  0  1  0  0  3  0  0  0  0  0  0
  187.0590  178.3790  136.5250 N   0  0  0  0  0  2  0  0  0  0  0  0
  187.2900  176.0820  136.9050 C   0  0  0  0  0  0  0  0  0  0  0  0
  187.1870  174.9770  137.4060 O   0  0  0  0  0  0  0  0  0  0  0  0
  188.3410  177.9040  135.9600 C   0  0  0  0  0  2  0  0  0  0  0  0
  189.7850  177.1210  141.6350 C   0  0  0  0  0  2  0  0  0  0  0  0
  189.9760  176.4000  140.4760 N   0  0  0  0  0  2  0  0  0  0  0  0
  191.1250  176.8740  139.8810 C   0  0  0  0  0  0  0  0  0  0  0  0
  192.0310  177.5350  140.5530 O   0  0  0  0  0  0  0  0  0  0  0  0
  191.0070  176.9170  138.5260 C   0  0  0  0  0  2  0  0  0  0  0  0
  193.2800  176.3660  137.9550 O   0  0  0  0  0  0  0  0  0  0  0  0
  192.0670  176.0550  138.0350 C   0  0  0  0  0  0  0  0  0  0  0  0
  190.9140  174.1720  137.0760 C   0  0  0  0  0  2  0  0  0  0  0  0
  191.6220  174.6800  137.9760 N   0  0  0  0  0  0  0  0  0  0  0  0
  190.0240  177.5990  144.6570 O   0  0  0  0  0  0  0  0  0  0  0  0
  191.5310  176.1130  145.7160 C   0  0  0  0  0  0  0  0  0  0  0  0
  192.0550  175.1590  144.2980 Cl  0  0  0  0  0  0  0  0  0  0  0  0
  190.5000  177.5090  147.1650 C   0  0  0  0  0  3  0  0  0  0  0  0
  192.0970  176.0100  147.0750 C   0  0  0  0  0  0  0  0  0  0  0  0
  192.9250  175.2510  147.5400 O   0  0  0  0  0  0  0  0  0  0  0  0
  190.6370  177.0470  145.7910 C   0  0  0  0  0  0  0  0  0  0  0  0
  191.3370  176.9500  147.8910 N   0  0  0  0  0  0  0  0  0  0  0  0
  1 22  1  6  0  0  0
  1  2  1  0  0  0  0
  1  3  1  0  0  0  0
  2  3  1  0  0  0  0
  2  4  1  1  0  0  0
  3 31  1  6  0  0  0
  4  6  1  0  0  0  0
  6  5  1  1  0  0  0
  7  6  1  0  0  0  0
  8  7  1  0  0  0  0
  9  8  1  0  0  0  0
 10  9  1  0  0  0  0
 11 10  1  0  0  0  0
 12 11  1  0  0  0  0
 13 12  1  0  0  0  0
 15 14  1  6  0  0  0
 15 13  1  0  0  0  0
 16 19  1  0  0  0  0
 17 19  1  0  0  0  0
 17 15  1  1  0  0  0
 18 17  1  0  0  0  0
 19 20  2  0  0  0  0
 21 16  1  0  0  0  0
 21 18  1  0  0  0  0
 23 22  1  0  0  0  0
 24 23  1  0  0  0  0
 24 25  2  0  0  0  0
 26 24  1  0  0  0  0
 27 28  2  0  0  0  0
 28 26  1  0  0  0  0
 29 30  2  0  0  0  0
 30 28  1  0  0  0  0
 31 37  1  0  0  0  0
 32 37  2  0  0  0  0
 32 35  1  0  0  0  0
 33 32  1  0  0  0  0
 34 38  2  0  0  0  0
 35 36  2  0  0  0  0
 35 38  1  0  0  0  0
 37 34  1  0  0  0  0
M  END
>  <MODEL>
8

>  <REMARK>
 VINA RESULT:      -6.3      3.027      7.957
  Name = 
  18 active torsions:
  status: ('A' for Active; 'I' for Inactive)
    1  A    between atoms: N_2  and  C_26
    2  A    between atoms: C_5  and  C_15
    3  A    between atoms: C_7  and  C_13
    4  A    between atoms: C_7  and  C_37
    5  A    between atoms: C_8  and  O_21
    6  A    between atoms: C_8  and  C_37
    7  A    between atoms: C_10  and  C_26
    8  A    between atoms: C_13  and  N_38
    9  A    between atoms: C_15  and  N_38
   10  A    between atoms: C_17  and  O_21
   11  A    between atoms: C_17  and  C_29
   12  A    between atoms: C_19  and  C_33
   13  A    between atoms: C_22  and  C_25
   14  A    between atoms: N_24  and  C_31
   15  A    between atoms: C_25  and  C_29
   16  A    between atoms: O_27  and  C_30
   17  A    between atoms: O_27  and  C_34
   18  A    between atoms: C_31  and  C_33
                            x       y       z     vdW  Elec       q    Type
                         _______ _______ _______ _____ _____    ______ ____

>  <TORSDO>
F 18

$$$$
=
 OpenBabel10222421003D

 38 40  0  0  1  0  0  0  0  0999 V2000
  190.2660  176.9610  140.9460 C   0  0  2  0  0  3  0  0  0  0  0  0
  189.6240  178.0920  140.0420 C   0  0  2  0  0  3  0  0  0  0  0  0
  188.8280  177.3970  141.2410 C   0  0  2  0  0  3  0  0  0  0  0  0
  189.1860  177.5390  138.6330 C   0  0  0  0  0  2  0  0  0  0  0  0
  188.9620  179.7490  137.2990 O   0  0  0  0  0  1  0  0  0  0  0  0
  189.0190  178.3130  137.2680 C   0  0  2  0  0  3  0  0  0  0  0  0
  188.1740  177.5760  136.2070 C   0  0  0  0  0  2  0  0  0  0  0  0
  186.9420  178.1930  135.9810 O   0  0  0  0  0  0  0  0  0  0  0  0
  185.7240  177.3970  135.8630 C   0  0  0  0  0  2  0  0  0  0  0  0
  185.6790  176.0180  136.6020 C   0  0  0  0  0  2  0  0  0  0  0  0
  184.2130  176.0010  136.6090 C   0  0  0  0  0  2  0  0  0  0  0  0
  183.6590  176.1390  137.9390 C   0  0  0  0  0  2  0  0  0  0  0  0
  182.3420  176.5570  137.5830 N   0  0  0  0  0  2  0  0  0  0  0  0
  182.4200  176.3010  139.8060 C   0  0  0  0  0  1  0  0  0  0  0  0
  181.7890  177.1300  138.7360 C   0  0  1  0  0  3  0  0  0  0  0  0
  180.9610  180.7730  139.2560 O   0  0  0  0  0  0  0  0  0  0  0  0
  181.9450  178.6980  138.8290 C   0  0  1  0  0  3  0  0  0  0  0  0
  181.5990  179.3100  137.5710 N   0  0  0  0  0  2  0  0  0  0  0  0
  181.3540  179.5850  139.8820 C   0  0  0  0  0  0  0  0  0  0  0  0
  181.1550  179.3470  141.0600 O   0  0  0  0  0  0  0  0  0  0  0  0
  181.1560  180.6900  137.8680 C   0  0  0  0  0  2  0  0  0  0  0  0
  190.8480  177.4800  142.1610 C   0  0  0  0  0  2  0  0  0  0  0  0
  190.4140  176.8670  143.3170 N   0  0  0  0  0  2  0  0  0  0  0  0
  191.1260  177.4100  144.3650 C   0  0  0  0  0  0  0  0  0  0  0  0
  191.7240  178.5690  144.2680 O   0  0  0  0  0  0  0  0  0  0  0  0
  191.4420  176.4710  145.2970 C   0  0  0  0  0  2  0  0  0  0  0  0
  189.6960  177.4530  146.6330 O   0  0  0  0  0  0  0  0  0  0  0  0
  190.8430  176.9560  146.5270 C   0  0  0  0  0  0  0  0  0  0  0  0
  192.4970  175.6280  147.6640 C   0  0  0  0  0  2  0  0  0  0  0  0
  191.5820  176.4830  147.6770 N   0  0  0  0  0  0  0  0  0  0  0  0
  188.0890  178.6520  141.5060 O   0  0  0  0  0  0  0  0  0  0  0  0
  186.2850  178.2180  142.9750 C   0  0  0  0  0  0  0  0  0  0  0  0
  187.1890  177.5600  144.3700 Cl  0  0  0  0  0  0  0  0  0  0  0  0
  185.6180  179.0010  140.9620 C   0  0  0  0  0  3  0  0  0  0  0  0
  184.8400  178.5160  142.9530 C   0  0  0  0  0  0  0  0  0  0  0  0
  183.9710  178.3190  143.7800 O   0  0  0  0  0  0  0  0  0  0  0  0
  186.7220  178.5730  141.8080 C   0  0  0  0  0  0  0  0  0  0  0  0
  184.5570  178.9990  141.6060 N   0  0  0  0  0  0  0  0  0  0  0  0
  1  3  1  0  0  0  0
  1 22  1  1  0  0  0
  2  4  1  6  0  0  0
  2  1  1  0  0  0  0
  2  3  1  0  0  0  0
  3 31  1  1  0  0  0
  6  5  1  1  0  0  0
  6  4  1  0  0  0  0
  7  6  1  0  0  0  0
  8  7  1  0  0  0  0
  9  8  1  0  0  0  0
  9 10  1  0  0  0  0
 10 11  1  0  0  0  0
 11 12  1  0  0  0  0
 13 12  1  0  0  0  0
 13 15  1  0  0  0  0
 15 14  1  1  0  0  0
 16 19  1  0  0  0  0
 17 15  1  6  0  0  0
 17 19  1  0  0  0  0
 18 21  1  0  0  0  0
 18 17  1  0  0  0  0
 19 20  2  0  0  0  0
 21 16  1  0  0  0  0
 22 23  1  0  0  0  0
 23 24  1  0  0  0  0
 24 26  1  0  0  0  0
 25 24  2  0  0  0  0
 26 28  1  0  0  0  0
 28 27  2  0  0  0  0
 28 30  1  0  0  0  0
 29 30  2  0  0  0  0
 31 37  1  0  0  0  0
 32 33  1  0  0  0  0
 34 38  2  0  0  0  0
 34 37  1  0  0  0  0
 35 32  1  0  0  0  0
 35 36  2  0  0  0  0
 37 32  2  0  0  0  0
 38 35  1  0  0  0  0
M  END
>  <MODEL>
9

>  <REMARK>
 VINA RESULT:      -6.3      2.392      9.054
  Name = 
  18 active torsions:
  status: ('A' for Active; 'I' for Inactive)
    1  A    between atoms: N_2  and  C_26
    2  A    between atoms: C_5  and  C_15
    3  A    between atoms: C_7  and  C_13
    4  A    between atoms: C_7  and  C_37
    5  A    between atoms: C_8  and  O_21
    6  A    between atoms: C_8  and  C_37
    7  A    between atoms: C_10  and  C_26
    8  A    between atoms: C_13  and  N_38
    9  A    between atoms: C_15  and  N_38
   10  A    between atoms: C_17  and  O_21
   11  A    between atoms: C_17  and  C_29
   12  A    between atoms: C_19  and  C_33
   13  A    between atoms: C_22  and  C_25
   14  A    between atoms: N_24  and  C_31
   15  A    between atoms: C_25  and  C_29
   16  A    between atoms: O_27  and  C_30
   17  A    between atoms: O_27  and  C_34
   18  A    between atoms: C_31  and  C_33
                            x       y       z     vdW  Elec       q    Type
                         _______ _______ _______ _____ _____    ______ ____

>  <TORSDO>
F 18

$$$$
