=
 OpenBabel10222420593D

 38 40  0  0  1  0  0  0  0  0999 V2000
  185.1140  178.0250  143.3020 C   0  0  1  0  0  3  0  0  0  0  0  0
  187.3030  178.2470  141.9350 N   0  0  0  0  0  0  0  0  0  0  0  0
  185.3500  179.1510  145.6670 C   0  0  0  0  0  3  0  0  0  0  0  0
  187.4120  177.5750  144.0970 C   0  0  2  0  0  3  0  0  0  0  0  0
  188.8360  177.6220  143.6590 C   0  0  1  0  0  3  0  0  0  0  0  0
  186.6020  177.9280  143.1250 C   0  0  0  0  0  0  0  0  0  0  0  0
  188.7260  178.0730  142.1950 C   0  0  1  0  0  3  0  0  0  0  0  0
  184.7520  179.0960  144.3130 C   0  0  0  0  0  0  0  0  0  0  0  0
  186.2980  178.3480  146.1700 C   0  0  0  0  0  3  0  0  0  0  0  0
  186.9320  177.1870  145.4590 C   0  0  0  0  0  2  0  0  0  0  0  0
  183.9010  179.9780  144.0180 O   0  0  0  0  0  0  0  0  0  0  0  0
  189.3110  177.0370  141.2800 C   0  0  0  0  0  0  0  0  0  0  0  0
  189.4440  177.2980  139.8710 N   0  0  0  0  0  0  0  0  0  0  0  0
  189.7310  175.9490  141.7650 O   0  0  0  0  0  0  0  0  0  0  0  0
  190.1550  176.3680  139.0040 C   0  0  0  0  0  2  0  0  0  0  0  0
  191.6300  176.7150  138.9610 C   0  0  0  0  0  2  0  0  0  0  0  0
  192.2060  176.2890  137.6260 C   0  0  0  0  0  2  0  0  0  0  0  0
  191.5670  173.9980  137.5150 O   0  0  0  0  0  0  0  0  0  0  0  0
  194.9200  175.2310  137.9660 N   0  0  0  0  0  1  0  0  0  0  0  0
  193.8390  174.3520  137.8240 N   0  0  0  0  0  2  0  0  0  0  0  0
  192.5060  174.8280  137.6450 C   0  0  0  0  0  0  0  0  0  0  0  0
  189.0260  178.5730  139.3030 C   0  0  0  0  0  2  0  0  0  0  0  0
  188.6380  179.5550  137.1640 O   0  0  0  0  0  1  0  0  0  0  0  0
  188.4960  178.3740  137.8920 C   0  0  2  0  0  3  0  0  0  0  0  0
  186.6960  176.8980  137.3960 O   0  0  0  0  0  0  0  0  0  0  0  0
  187.0600  177.9780  137.9310 C   0  0  0  0  0  0  0  0  0  0  0  0
  186.1130  178.8070  138.5250 O   0  0  0  0  0  1  0  0  0  0  0  0
  184.4190  178.1940  142.0110 C   0  0  0  0  0  0  0  0  0  0  0  0
  183.8740  178.3270  140.9990 N   0  0  0  0  0  0  0  0  0  0  0  0
  189.5950  178.6660  144.4680 C   0  0  0  0  0  2  0  0  0  0  0  0
  191.0550  178.7320  144.0380 C   0  0  0  0  0  2  0  0  0  0  0  0
  191.6820  177.4590  144.1730 O   0  0  0  0  0  0  0  0  0  0  0  0
  192.0980  175.4060  145.5440 C   0  0  0  0  0  0  0  0  0  0  0  0
  191.6290  177.3760  146.5390 N   0  0  0  0  0  0  0  0  0  0  0  0
  192.3120  174.6040  144.5990 O   0  0  0  0  0  0  0  0  0  0  0  0
  191.7970  176.4180  147.6330 C   0  0  0  0  0  3  0  0  0  0  0  0
  192.1320  175.0660  146.9830 C   0  0  0  0  0  3  0  0  0  0  0  0
  191.7920  176.7990  145.4000 C   0  0  0  0  0  0  0  0  0  0  0  0
  1 28  1  6  0  0  0
  1  8  1  0  0  0  0
  2  7  1  0  0  0  0
  2  6  2  0  0  0  0
  3  9  2  0  0  0  0
  4 10  1  1  0  0  0
  5  4  1  0  0  0  0
  5 30  1  1  0  0  0
  6  1  1  0  0  0  0
  6  4  1  0  0  0  0
  7 12  1  6  0  0  0
  7  5  1  0  0  0  0
  8  3  1  0  0  0  0
 10  9  1  0  0  0  0
 11  8  2  0  0  0  0
 12 14  2  0  0  0  0
 13 12  1  0  0  0  0
 15 13  1  0  0  0  0
 16 15  1  0  0  0  0
 17 21  1  0  0  0  0
 17 16  1  0  0  0  0
 18 21  2  0  0  0  0
 20 19  1  0  0  0  0
 21 20  1  0  0  0  0
 22 13  1  0  0  0  0
 24 23  1  6  0  0  0
 24 26  1  0  0  0  0
 24 22  1  0  0  0  0
 25 26  2  0  0  0  0
 26 27  1  0  0  0  0
 29 28  3  0  0  0  0
 31 32  1  0  0  0  0
 31 30  1  0  0  0  0
 32 38  1  0  0  0  0
 33 37  1  0  0  0  0
 34 36  1  0  0  0  0
 35 33  2  0  0  0  0
 37 36  2  0  0  0  0
 38 33  1  0  0  0  0
 38 34  2  0  0  0  0
M  END
>  <MODEL>
1

>  <REMARK>
 VINA RESULT:      -8.3      0.000      0.000
  Name = 
  13 active torsions:
  status: ('A' for Active; 'I' for Inactive)
    1  A    between atoms: C_1  and  C_26
    2  A    between atoms: N_2  and  C_6
    3  A    between atoms: N_2  and  C_12
    4  A    between atoms: C_5  and  C_7
    5  A    between atoms: C_6  and  C_30
    6  A    between atoms: C_12  and  C_36
    7  A    between atoms: C_16  and  C_22
    8  A    between atoms: C_18  and  C_24
    9  A    between atoms: C_18  and  C_30
   10  A    between atoms: C_20  and  C_22
   11  A    between atoms: C_20  and  O_32
   12  A    between atoms: C_23  and  C_36
   13  A    between atoms: C_27  and  O_32
                            x       y       z     vdW  Elec       q    Type
                         _______ _______ _______ _____ _____    ______ ____

>  <TORSDO>
F 13

$$$$
=
 OpenBabel10222420593D

 38 40  0  0  1  0  0  0  0  0999 V2000
  189.4560  176.7190  145.8360 C   0  0  1  0  0  3  0  0  0  0  0  0
  187.5200  178.2800  145.1160 N   0  0  0  0  0  2  0  0  0  0  0  0
  191.4210  176.7670  144.0890 C   0  0  0  0  0  3  0  0  0  0  0  0
  188.4300  176.8700  143.5920 C   0  0  0  0  0  0  0  0  0  0  0  0
  187.3970  177.6180  142.8220 C   0  0  1  0  0  3  0  0  0  0  0  0
  188.4700  177.2630  144.8440 C   0  0  0  0  0  0  0  0  0  0  0  0
  186.7970  178.5570  143.8800 C   0  0  1  0  0  3  0  0  0  0  0  0
  190.8790  177.0580  145.4360 C   0  0  0  0  0  0  0  0  0  0  0  0
  190.7630  176.2440  143.0450 C   0  0  0  0  0  3  0  0  0  0  0  0
  189.3260  175.8070  143.0420 C   0  0  0  0  0  2  0  0  0  0  0  0
  191.6560  177.5970  146.2710 O   0  0  0  0  0  0  0  0  0  0  0  0
  185.3310  178.2890  144.0510 C   0  0  0  0  0  0  0  0  0  0  0  0
  184.3990  178.6450  143.0130 N   0  0  0  0  0  0  0  0  0  0  0  0
  184.9250  177.7020  145.0920 O   0  0  0  0  0  0  0  0  0  0  0  0
  183.0010  178.2440  143.0980 C   0  0  0  0  0  2  0  0  0  0  0  0
  182.1780  179.3460  143.7350 C   0  0  0  0  0  2  0  0  0  0  0  0
  180.8950  179.5320  142.9500 C   0  0  0  0  0  2  0  0  0  0  0  0
  179.5820  178.1440  144.3700 O   0  0  0  0  0  0  0  0  0  0  0  0
  179.9490  177.7660  140.8090 N   0  0  0  0  0  1  0  0  0  0  0  0
  179.5460  177.5400  142.1300 N   0  0  0  0  0  2  0  0  0  0  0  0
  179.9760  178.3840  143.1980 C   0  0  0  0  0  0  0  0  0  0  0  0
  184.8550  179.2620  141.7760 C   0  0  0  0  0  2  0  0  0  0  0  0
  183.9640  177.4490  140.5070 O   0  0  0  0  0  1  0  0  0  0  0  0
  183.9690  178.8400  140.6150 C   0  0  2  0  0  3  0  0  0  0  0  0
  185.3640  178.8580  138.6870 O   0  0  0  0  0  0  0  0  0  0  0  0
  184.4610  179.4410  139.3440 C   0  0  0  0  0  0  0  0  0  0  0  0
  183.9560  180.6570  138.8940 O   0  0  0  0  0  1  0  0  0  0  0  0
  189.1330  177.1330  147.2160 C   0  0  0  0  0  0  0  0  0  0  0  0
  188.8790  177.4580  148.2970 N   0  0  0  0  0  0  0  0  0  0  0  0
  188.0590  178.4360  141.7210 C   0  0  0  0  0  2  0  0  0  0  0  0
  188.1550  177.6320  140.4290 C   0  0  0  0  0  2  0  0  0  0  0  0
  189.2680  178.0580  139.6470 O   0  0  0  0  0  0  0  0  0  0  0  0
  189.0530  178.5440  137.2010 C   0  0  0  0  0  0  0  0  0  0  0  0
  189.9220  176.5870  137.9110 N   0  0  0  0  0  0  0  0  0  0  0  0
  188.5500  179.6930  137.2940 O   0  0  0  0  0  0  0  0  0  0  0  0
  189.9420  176.5140  136.4490 C   0  0  0  0  0  3  0  0  0  0  0  0
  189.3660  177.8440  135.9370 C   0  0  0  0  0  3  0  0  0  0  0  0
  189.4240  177.7070  138.3050 C   0  0  0  0  0  0  0  0  0  0  0  0
  1 28  1  1  0  0  0
  3  8  1  0  0  0  0
  4  6  2  0  0  0  0
  5 30  1  6  0  0  0
  5  4  1  0  0  0  0
  5  7  1  0  0  0  0
  6  2  1  0  0  0  0
  6  1  1  0  0  0  0
  7 12  1  1  0  0  0
  7  2  1  0  0  0  0
  8  1  1  0  0  0  0
  8 11  2  0  0  0  0
  9  3  2  0  0  0  0
 10  9  1  0  0  0  0
 10  4  1  0  0  0  0
 12 14  2  0  0  0  0
 13 15  1  0  0  0  0
 13 12  1  0  0  0  0
 15 16  1  0  0  0  0
 17 21  1  0  0  0  0
 17 16  1  0  0  0  0
 19 20  1  0  0  0  0
 20 21  1  0  0  0  0
 21 18  2  0  0  0  0
 22 13  1  0  0  0  0
 24 23  1  6  0  0  0
 24 22  1  0  0  0  0
 25 26  2  0  0  0  0
 26 24  1  0  0  0  0
 27 26  1  0  0  0  0
 28 29  3  0  0  0  0
 31 30  1  0  0  0  0
 32 31  1  0  0  0  0
 33 35  2  0  0  0  0
 33 38  1  0  0  0  0
 34 38  2  0  0  0  0
 36 34  1  0  0  0  0
 37 36  2  0  0  0  0
 37 33  1  0  0  0  0
 38 32  1  0  0  0  0
M  END
>  <MODEL>
2

>  <REMARK>
 VINA RESULT:      -7.0      2.487      8.088
  Name = 
  13 active torsions:
  status: ('A' for Active; 'I' for Inactive)
    1  A    between atoms: C_1  and  C_26
    2  A    between atoms: N_2  and  C_6
    3  A    between atoms: N_2  and  C_12
    4  A    between atoms: C_5  and  C_7
    5  A    between atoms: C_6  and  C_30
    6  A    between atoms: C_12  and  C_36
    7  A    between atoms: C_16  and  C_22
    8  A    between atoms: C_18  and  C_24
    9  A    between atoms: C_18  and  C_30
   10  A    between atoms: C_20  and  C_22
   11  A    between atoms: C_20  and  O_32
   12  A    between atoms: C_23  and  C_36
   13  A    between atoms: C_27  and  O_32
                            x       y       z     vdW  Elec       q    Type
                         _______ _______ _______ _____ _____    ______ ____

>  <TORSDO>
F 13

$$$$
=
 OpenBabel10222420593D

 38 40  0  0  1  0  0  0  0  0999 V2000
  186.3810  178.6640  145.8280 C   0  0  1  0  0  3  0  0  0  0  0  0
  187.3580  177.4590  143.7540 N   0  0  0  0  0  2  0  0  0  0  0  0
  183.7550  178.7500  145.7310 C   0  0  0  0  0  3  0  0  0  0  0  0
  185.7520  179.0320  143.4660 C   0  0  0  0  0  0  0  0  0  0  0  0
  186.0330  178.5440  142.0860 C   0  0  1  0  0  3  0  0  0  0  0  0
  186.4950  178.4120  144.3530 C   0  0  0  0  0  0  0  0  0  0  0  0
  187.1250  177.4880  142.3160 C   0  0  1  0  0  3  0  0  0  0  0  0
  185.0120  178.2680  146.3470 C   0  0  0  0  0  0  0  0  0  0  0  0
  183.6270  179.5190  144.6410 C   0  0  0  0  0  3  0  0  0  0  0  0
  184.7560  180.0860  143.8300 C   0  0  0  0  0  2  0  0  0  0  0  0
  184.9150  177.5110  147.3510 O   0  0  0  0  0  0  0  0  0  0  0  0
  188.3790  177.8610  141.5820 C   0  0  0  0  0  0  0  0  0  0  0  0
  189.6270  177.2140  141.8930 N   0  0  0  0  0  0  0  0  0  0  0  0
  188.3230  178.7140  140.6520 O   0  0  0  0  0  0  0  0  0  0  0  0
  190.8120  177.4510  141.0800 C   0  0  0  0  0  2  0  0  0  0  0  0
  190.8110  176.5340  139.8720 C   0  0  0  0  0  2  0  0  0  0  0  0
  190.7560  177.3690  138.6090 C   0  0  0  0  0  2  0  0  0  0  0  0
  190.1500  176.0540  136.7200 O   0  0  0  0  0  0  0  0  0  0  0  0
  193.5080  176.7240  137.8300 N   0  0  0  0  0  1  0  0  0  0  0  0
  192.4350  176.2220  137.0850 N   0  0  0  0  0  2  0  0  0  0  0  0
  191.0820  176.5230  137.4250 C   0  0  0  0  0  0  0  0  0  0  0  0
  189.7000  176.1800  142.9160 C   0  0  0  0  0  2  0  0  0  0  0  0
  191.4510  174.8490  143.8390 O   0  0  0  0  0  1  0  0  0  0  0  0
  191.0800  176.1620  143.5530 C   0  0  2  0  0  3  0  0  0  0  0  0
  190.6200  178.1400  144.7930 O   0  0  0  0  0  0  0  0  0  0  0  0
  191.0810  176.9690  144.8050 C   0  0  0  0  0  0  0  0  0  0  0  0
  191.6170  176.4500  145.9810 O   0  0  0  0  0  1  0  0  0  0  0  0
  187.4850  178.0340  146.5790 C   0  0  0  0  0  0  0  0  0  0  0  0
  188.3510  177.5400  147.1670 N   0  0  0  0  0  0  0  0  0  0  0  0
  184.7890  177.8850  141.5040 C   0  0  0  0  0  2  0  0  0  0  0  0
  184.2250  178.7080  140.3540 C   0  0  0  0  0  2  0  0  0  0  0  0
  185.2280  178.9710  139.3760 O   0  0  0  0  0  0  0  0  0  0  0  0
  186.5300  178.2470  137.3640 C   0  0  0  0  0  0  0  0  0  0  0  0
  184.5330  177.3100  137.8380 N   0  0  0  0  0  0  0  0  0  0  0  0
  187.5220  179.0050  137.5150 O   0  0  0  0  0  0  0  0  0  0  0  0
  184.9860  176.6590  136.6070 C   0  0  0  0  0  3  0  0  0  0  0  0
  186.3550  177.2710  136.2680 C   0  0  0  0  0  3  0  0  0  0  0  0
  185.3920  178.1840  138.2340 C   0  0  0  0  0  0  0  0  0  0  0  0
  1  8  1  0  0  0  0
  1 28  1  1  0  0  0
  2  6  1  0  0  0  0
  3  8  1  0  0  0  0
  4 10  1  0  0  0  0
  4  6  2  0  0  0  0
  5 30  1  1  0  0  0
  5  7  1  0  0  0  0
  5  4  1  0  0  0  0
  6  1  1  0  0  0  0
  7 12  1  6  0  0  0
  7  2  1  0  0  0  0
  8 11  2  0  0  0  0
  9  3  2  0  0  0  0
 10  9  1  0  0  0  0
 12 13  1  0  0  0  0
 13 22  1  0  0  0  0
 14 12  2  0  0  0  0
 15 13  1  0  0  0  0
 16 15  1  0  0  0  0
 17 16  1  0  0  0  0
 18 21  2  0  0  0  0
 20 21  1  0  0  0  0
 20 19  1  0  0  0  0
 21 17  1  0  0  0  0
 22 24  1  0  0  0  0
 24 23  1  1  0  0  0
 24 26  1  0  0  0  0
 25 26  2  0  0  0  0
 26 27  1  0  0  0  0
 28 29  3  0  0  0  0
 31 30  1  0  0  0  0
 32 31  1  0  0  0  0
 33 35  2  0  0  0  0
 33 38  1  0  0  0  0
 34 38  2  0  0  0  0
 36 34  1  0  0  0  0
 37 36  2  0  0  0  0
 37 33  1  0  0  0  0
 38 32  1  0  0  0  0
M  END
>  <MODEL>
3

>  <REMARK>
 VINA RESULT:      -6.8      1.999      6.261
  Name = 
  13 active torsions:
  status: ('A' for Active; 'I' for Inactive)
    1  A    between atoms: C_1  and  C_26
    2  A    between atoms: N_2  and  C_6
    3  A    between atoms: N_2  and  C_12
    4  A    between atoms: C_5  and  C_7
    5  A    between atoms: C_6  and  C_30
    6  A    between atoms: C_12  and  C_36
    7  A    between atoms: C_16  and  C_22
    8  A    between atoms: C_18  and  C_24
    9  A    between atoms: C_18  and  C_30
   10  A    between atoms: C_20  and  C_22
   11  A    between atoms: C_20  and  O_32
   12  A    between atoms: C_23  and  C_36
   13  A    between atoms: C_27  and  O_32
                            x       y       z     vdW  Elec       q    Type
                         _______ _______ _______ _____ _____    ______ ____

>  <TORSDO>
F 13

$$$$
=
 OpenBabel10222420593D

 38 40  0  0  1  0  0  0  0  0999 V2000
  185.2080  178.0770  144.8200 C   0  0  1  0  0  3  0  0  0  0  0  0
  185.2990  179.2190  142.4970 N   0  0  0  0  0  0  0  0  0  0  0  0
  187.6110  177.8450  145.8620 C   0  0  0  0  0  3  0  0  0  0  0  0
  186.7580  177.5490  142.9660 C   0  0  2  0  0  3  0  0  0  0  0  0
  187.1270  177.9770  141.5870 C   0  0  1  0  0  3  0  0  0  0  0  0
  185.7530  178.2560  143.4320 C   0  0  0  0  0  0  0  0  0  0  0  0
  186.1200  179.1020  141.2990 C   0  0  1  0  0  3  0  0  0  0  0  0
  186.2490  178.4260  145.8660 C   0  0  0  0  0  0  0  0  0  0  0  0
  188.1370  177.0130  144.9520 C   0  0  0  0  0  3  0  0  0  0  0  0
  187.4250  176.4640  143.7490 C   0  0  0  0  0  2  0  0  0  0  0  0
  185.9630  179.2300  146.7940 O   0  0  0  0  0  0  0  0  0  0  0  0
  185.2760  178.7570  140.1070 C   0  0  0  0  0  0  0  0  0  0  0  0
  185.8900  178.3460  138.8720 N   0  0  0  0  0  0  0  0  0  0  0  0
  184.0180  178.7840  140.2110 O   0  0  0  0  0  0  0  0  0  0  0  0
  185.0810  177.8560  137.7650 C   0  0  0  0  0  2  0  0  0  0  0  0
  184.4840  176.5050  138.1090 C   0  0  0  0  0  2  0  0  0  0  0  0
  183.0760  176.4230  137.5540 C   0  0  0  0  0  2  0  0  0  0  0  0
  182.4820  175.7760  139.7670 O   0  0  0  0  0  0  0  0  0  0  0  0
  180.2530  177.1760  137.3110 N   0  0  0  0  0  1  0  0  0  0  0  0
  180.7300  176.6270  138.5080 N   0  0  0  0  0  2  0  0  0  0  0  0
  182.0990  176.2590  138.6690 C   0  0  0  0  0  0  0  0  0  0  0  0
  187.3380  178.2450  138.7530 C   0  0  0  0  0  2  0  0  0  0  0  0
  188.2790  176.3100  137.7230 O   0  0  0  0  0  1  0  0  0  0  0  0
  187.7150  177.5560  137.4520 C   0  0  2  0  0  3  0  0  0  0  0  0
  189.0700  179.4910  137.1630 O   0  0  0  0  0  1  0  0  0  0  0  0
  188.6840  178.3900  136.6880 C   0  0  0  0  0  0  0  0  0  0  0  0
  189.1410  177.9800  135.4380 O   0  0  0  0  0  0  0  0  0  0  0  0
  183.9380  178.8050  145.0080 C   0  0  0  0  0  0  0  0  0  0  0  0
  182.9420  179.3760  145.1550 N   0  0  0  0  0  0  0  0  0  0  0  0
  188.5440  178.5370  141.5790 C   0  0  0  0  0  2  0  0  0  0  0  0
  189.5390  177.4900  141.0950 C   0  0  0  0  0  2  0  0  0  0  0  0
  190.8280  177.7130  141.6620 O   0  0  0  0  0  0  0  0  0  0  0  0
  191.3230  178.2470  144.0570 C   0  0  0  0  0  0  0  0  0  0  0  0
  191.3380  176.1110  143.3300 N   0  0  0  0  0  0  0  0  0  0  0  0
  191.1970  179.4960  143.9890 O   0  0  0  0  0  0  0  0  0  0  0  0
  191.6770  176.0400  144.7520 C   0  0  0  0  0  3  0  0  0  0  0  0
  191.6610  177.4840  145.2780 C   0  0  0  0  0  3  0  0  0  0  0  0
  191.1540  177.3320  142.9660 C   0  0  0  0  0  0  0  0  0  0  0  0
  1 28  1  6  0  0  0
  1  8  1  0  0  0  0
  2  6  2  0  0  0  0
  3  8  1  0  0  0  0
  4  6  1  0  0  0  0
  4 10  1  1  0  0  0
  5 30  1  1  0  0  0
  5  4  1  0  0  0  0
  6  1  1  0  0  0  0
  7 12  1  6  0  0  0
  7  5  1  0  0  0  0
  7  2  1  0  0  0  0
  8 11  2  0  0  0  0
  9  3  2  0  0  0  0
 10  9  1  0  0  0  0
 12 14  2  0  0  0  0
 13 12  1  0  0  0  0
 15 16  1  0  0  0  0
 15 13  1  0  0  0  0
 17 16  1  0  0  0  0
 17 21  1  0  0  0  0
 19 20  1  0  0  0  0
 20 21  1  0  0  0  0
 21 18  2  0  0  0  0
 22 13  1  0  0  0  0
 24 23  1  1  0  0  0
 24 22  1  0  0  0  0
 26 25  1  0  0  0  0
 26 24  1  0  0  0  0
 27 26  2  0  0  0  0
 28 29  3  0  0  0  0
 31 30  1  0  0  0  0
 31 32  1  0  0  0  0
 32 38  1  0  0  0  0
 33 37  1  0  0  0  0
 34 36  1  0  0  0  0
 35 33  2  0  0  0  0
 36 37  2  0  0  0  0
 38 34  2  0  0  0  0
 38 33  1  0  0  0  0
M  END
>  <MODEL>
4

>  <REMARK>
 VINA RESULT:      -6.8      2.740      5.344
  Name = 
  13 active torsions:
  status: ('A' for Active; 'I' for Inactive)
    1  A    between atoms: C_1  and  C_26
    2  A    between atoms: N_2  and  C_6
    3  A    between atoms: N_2  and  C_12
    4  A    between atoms: C_5  and  C_7
    5  A    between atoms: C_6  and  C_30
    6  A    between atoms: C_12  and  C_36
    7  A    between atoms: C_16  and  C_22
    8  A    between atoms: C_18  and  C_24
    9  A    between atoms: C_18  and  C_30
   10  A    between atoms: C_20  and  C_22
   11  A    between atoms: C_20  and  O_32
   12  A    between atoms: C_23  and  C_36
   13  A    between atoms: C_27  and  O_32
                            x       y       z     vdW  Elec       q    Type
                         _______ _______ _______ _____ _____    ______ ____

>  <TORSDO>
F 13

$$$$
=
 OpenBabel10222420593D

 38 40  0  0  1  0  0  0  0  0999 V2000
  188.4880  178.1970  139.0250 C   0  0  1  0  0  3  0  0  0  0  0  0
  185.9000  178.2130  138.9110 N   0  0  0  0  0  0  0  0  0  0  0  0
  189.3370  177.0650  141.2410 C   0  0  0  0  0  3  0  0  0  0  0  0
  186.9270  178.8600  140.8250 C   0  0  2  0  0  3  0  0  0  0  0  0
  185.4740  178.9600  141.1410 C   0  0  1  0  0  3  0  0  0  0  0  0
  187.1210  178.4440  139.5950 C   0  0  0  0  0  0  0  0  0  0  0  0
  184.8100  178.5220  139.8270 C   0  0  1  0  0  3  0  0  0  0  0  0
  189.1970  177.0820  139.7670 C   0  0  0  0  0  0  0  0  0  0  0  0
  188.8360  177.9500  142.1140 C   0  0  0  0  0  3  0  0  0  0  0  0
  188.0460  179.1780  141.7640 C   0  0  0  0  0  2  0  0  0  0  0  0
  189.7090  176.1250  139.1240 O   0  0  0  0  0  0  0  0  0  0  0  0
  183.9520  179.6250  139.2790 C   0  0  0  0  0  0  0  0  0  0  0  0
  182.5170  179.5390  139.3540 N   0  0  0  0  0  0  0  0  0  0  0  0
  184.5000  180.6530  138.7940 O   0  0  0  0  0  0  0  0  0  0  0  0
  181.6820  180.6700  138.9750 C   0  0  0  0  0  2  0  0  0  0  0  0
  181.1630  180.4880  137.5620 C   0  0  0  0  0  2  0  0  0  0  0  0
  180.1990  181.6090  137.2330 C   0  0  0  0  0  2  0  0  0  0  0  0
  180.5710  181.6170  134.8820 O   0  0  0  0  0  0  0  0  0  0  0  0
  181.0860  184.4010  137.1050 N   0  0  0  0  0  1  0  0  0  0  0  0
  181.0390  183.6280  135.9390 N   0  0  0  0  0  2  0  0  0  0  0  0
  180.6020  182.2700  135.9580 C   0  0  0  0  0  0  0  0  0  0  0  0
  181.8670  178.3900  139.9700 C   0  0  0  0  0  2  0  0  0  0  0  0
  181.6750  178.7220  142.3240 O   0  0  0  0  0  1  0  0  0  0  0  0
  180.9800  178.8380  141.1210 C   0  0  2  0  0  3  0  0  0  0  0  0
  179.4300  177.4240  142.2430 O   0  0  0  0  0  1  0  0  0  0  0  0
  179.7440  178.0090  141.1730 C   0  0  0  0  0  0  0  0  0  0  0  0
  178.9510  177.8480  140.0400 O   0  0  0  0  0  0  0  0  0  0  0  0
  188.4430  177.9800  137.5660 C   0  0  0  0  0  0  0  0  0  0  0  0
  188.4080  177.8100  136.4210 N   0  0  0  0  0  0  0  0  0  0  0  0
  185.1150  177.9830  142.2530 C   0  0  0  0  0  2  0  0  0  0  0  0
  185.1190  178.6780  143.6090 C   0  0  0  0  0  2  0  0  0  0  0  0
  185.2760  177.7330  144.6640 O   0  0  0  0  0  0  0  0  0  0  0  0
  186.3160  178.3870  146.8450 C   0  0  0  0  0  0  0  0  0  0  0  0
  187.5010  177.2410  145.3050 N   0  0  0  0  0  0  0  0  0  0  0  0
  185.3210  178.9690  147.3470 O   0  0  0  0  0  0  0  0  0  0  0  0
  188.4210  177.4530  146.4240 C   0  0  0  0  0  3  0  0  0  0  0  0
  187.6330  178.2220  147.4970 C   0  0  0  0  0  3  0  0  0  0  0  0
  186.3530  177.7670  145.5530 C   0  0  0  0  0  0  0  0  0  0  0  0
  1 28  1  6  0  0  0
  1  6  1  0  0  0  0
  1  8  1  0  0  0  0
  2  6  2  0  0  0  0
  2  7  1  0  0  0  0
  3  9  2  0  0  0  0
  4  5  1  0  0  0  0
  4 10  1  1  0  0  0
  5 30  1  1  0  0  0
  6  4  1  0  0  0  0
  7 12  1  6  0  0  0
  7  5  1  0  0  0  0
  8  3  1  0  0  0  0
 10  9  1  0  0  0  0
 11  8  2  0  0  0  0
 12 13  1  0  0  0  0
 13 22  1  0  0  0  0
 14 12  2  0  0  0  0
 15 13  1  0  0  0  0
 16 15  1  0  0  0  0
 17 16  1  0  0  0  0
 18 21  2  0  0  0  0
 20 21  1  0  0  0  0
 20 19  1  0  0  0  0
 21 17  1  0  0  0  0
 22 24  1  0  0  0  0
 24 26  1  0  0  0  0
 24 23  1  1  0  0  0
 26 25  1  0  0  0  0
 27 26  2  0  0  0  0
 29 28  3  0  0  0  0
 30 31  1  0  0  0  0
 31 32  1  0  0  0  0
 32 38  1  0  0  0  0
 33 35  2  0  0  0  0
 33 37  1  0  0  0  0
 34 38  2  0  0  0  0
 34 36  1  0  0  0  0
 36 37  2  0  0  0  0
 38 33  1  0  0  0  0
M  END
>  <MODEL>
5

>  <REMARK>
 VINA RESULT:      -6.8      3.950      8.182
  Name = 
  13 active torsions:
  status: ('A' for Active; 'I' for Inactive)
    1  A    between atoms: C_1  and  C_26
    2  A    between atoms: N_2  and  C_6
    3  A    between atoms: N_2  and  C_12
    4  A    between atoms: C_5  and  C_7
    5  A    between atoms: C_6  and  C_30
    6  A    between atoms: C_12  and  C_36
    7  A    between atoms: C_16  and  C_22
    8  A    between atoms: C_18  and  C_24
    9  A    between atoms: C_18  and  C_30
   10  A    between atoms: C_20  and  C_22
   11  A    between atoms: C_20  and  O_32
   12  A    between atoms: C_23  and  C_36
   13  A    between atoms: C_27  and  O_32
                            x       y       z     vdW  Elec       q    Type
                         _______ _______ _______ _____ _____    ______ ____

>  <TORSDO>
F 13

$$$$
=
 OpenBabel10222420593D

 38 40  0  0  1  0  0  0  0  0999 V2000
  191.5640  176.4190  144.5540 C   0  0  1  0  0  3  0  0  0  0  0  0
  190.5770  175.9050  142.2150 N   0  0  0  0  0  0  0  0  0  0  0  0
  189.9380  177.9300  145.9630 C   0  0  0  0  0  3  0  0  0  0  0  0
  190.5330  178.0350  142.9900 C   0  0  2  0  0  3  0  0  0  0  0  0
  189.8590  178.1170  141.6640 C   0  0  1  0  0  3  0  0  0  0  0  0
  190.9100  176.8050  143.2580 C   0  0  0  0  0  0  0  0  0  0  0  0
  189.9100  176.6650  141.1650 C   0  0  1  0  0  3  0  0  0  0  0  0
  190.6300  176.6430  145.7270 C   0  0  0  0  0  0  0  0  0  0  0  0
  189.9720  179.0250  145.1900 C   0  0  0  0  0  3  0  0  0  0  0  0
  190.7630  179.1800  143.9230 C   0  0  0  0  0  2  0  0  0  0  0  0
  190.4290  175.7150  146.5570 O   0  0  0  0  0  0  0  0  0  0  0  0
  190.6770  176.5780  139.8780 C   0  0  0  0  0  0  0  0  0  0  0  0
  189.9910  176.6450  138.6140 N   0  0  0  0  0  0  0  0  0  0  0  0
  191.9360  176.4960  139.9110 O   0  0  0  0  0  0  0  0  0  0  0  0
  190.7350  176.7250  137.3650 C   0  0  0  0  0  2  0  0  0  0  0  0
  190.9680  175.3350  136.8040 C   0  0  0  0  0  2  0  0  0  0  0  0
  192.2670  175.3210  136.0250 C   0  0  0  0  0  2  0  0  0  0  0  0
  193.3520  174.1250  137.7740 O   0  0  0  0  0  0  0  0  0  0  0  0
  194.6910  176.9720  136.0240 N   0  0  0  0  0  1  0  0  0  0  0  0
  194.5700  175.9080  136.9260 N   0  0  0  0  0  2  0  0  0  0  0  0
  193.4120  175.0750  136.9490 C   0  0  0  0  0  0  0  0  0  0  0  0
  188.5440  176.8060  138.5550 C   0  0  0  0  0  2  0  0  0  0  0  0
  188.6990  179.1810  138.3910 O   0  0  0  0  0  1  0  0  0  0  0  0
  188.1830  178.0490  137.7590 C   0  0  2  0  0  3  0  0  0  0  0  0
  186.0360  178.6440  138.5970 O   0  0  0  0  0  1  0  0  0  0  0  0
  186.7030  178.1730  137.6380 C   0  0  0  0  0  0  0  0  0  0  0  0
  186.0480  177.7410  136.4880 O   0  0  0  0  0  0  0  0  0  0  0  0
  192.1100  175.0490  144.5050 C   0  0  0  0  0  0  0  0  0  0  0  0
  192.5380  173.9740  144.4680 N   0  0  0  0  0  0  0  0  0  0  0  0
  188.4100  178.5520  141.8430 C   0  0  0  0  0  2  0  0  0  0  0  0
  187.5900  177.4520  142.5060 C   0  0  0  0  0  2  0  0  0  0  0  0
  187.0740  177.8880  143.7610 O   0  0  0  0  0  0  0  0  0  0  0  0
  185.1750  178.6720  145.1910 C   0  0  0  0  0  0  0  0  0  0  0  0
  184.8690  178.2740  142.9910 N   0  0  0  0  0  0  0  0  0  0  0  0
  185.7980  178.7580  146.2800 O   0  0  0  0  0  0  0  0  0  0  0  0
  183.5610  178.6970  143.4960 C   0  0  0  0  0  3  0  0  0  0  0  0
  183.7440  178.9890  144.9930 C   0  0  0  0  0  3  0  0  0  0  0  0
  185.7400  178.2600  143.9390 C   0  0  0  0  0  0  0  0  0  0  0  0
  1 28  1  6  0  0  0
  1  8  1  0  0  0  0
  2  6  2  0  0  0  0
  4  6  1  0  0  0  0
  4 10  1  1  0  0  0
  5 30  1  1  0  0  0
  5  4  1  0  0  0  0
  6  1  1  0  0  0  0
  7 12  1  6  0  0  0
  7  5  1  0  0  0  0
  7  2  1  0  0  0  0
  8  3  1  0  0  0  0
  8 11  2  0  0  0  0
  9  3  2  0  0  0  0
 10  9  1  0  0  0  0
 12 14  2  0  0  0  0
 13 12  1  0  0  0  0
 15 13  1  0  0  0  0
 16 15  1  0  0  0  0
 17 16  1  0  0  0  0
 17 21  1  0  0  0  0
 19 20  1  0  0  0  0
 20 21  1  0  0  0  0
 21 18  2  0  0  0  0
 22 13  1  0  0  0  0
 24 23  1  1  0  0  0
 24 22  1  0  0  0  0
 26 24  1  0  0  0  0
 26 25  1  0  0  0  0
 27 26  2  0  0  0  0
 29 28  3  0  0  0  0
 30 31  1  0  0  0  0
 31 32  1  0  0  0  0
 32 38  1  0  0  0  0
 33 35  2  0  0  0  0
 34 36  1  0  0  0  0
 34 38  2  0  0  0  0
 36 37  2  0  0  0  0
 37 33  1  0  0  0  0
 38 33  1  0  0  0  0
M  END
>  <MODEL>
6

>  <REMARK>
 VINA RESULT:      -6.7      1.830      5.025
  Name = 
  13 active torsions:
  status: ('A' for Active; 'I' for Inactive)
    1  A    between atoms: C_1  and  C_26
    2  A    between atoms: N_2  and  C_6
    3  A    between atoms: N_2  and  C_12
    4  A    between atoms: C_5  and  C_7
    5  A    between atoms: C_6  and  C_30
    6  A    between atoms: C_12  and  C_36
    7  A    between atoms: C_16  and  C_22
    8  A    between atoms: C_18  and  C_24
    9  A    between atoms: C_18  and  C_30
   10  A    between atoms: C_20  and  C_22
   11  A    between atoms: C_20  and  O_32
   12  A    between atoms: C_23  and  C_36
   13  A    between atoms: C_27  and  O_32
                            x       y       z     vdW  Elec       q    Type
                         _______ _______ _______ _____ _____    ______ ____

>  <TORSDO>
F 13

$$$$
=
 OpenBabel10222420593D

 38 40  0  0  1  0  0  0  0  0999 V2000
  185.0710  178.1750  144.7330 C   0  0  1  0  0  3  0  0  0  0  0  0
  185.3610  179.2450  142.3930 N   0  0  0  0  0  0  0  0  0  0  0  0
  187.3830  177.9280  145.9620 C   0  0  0  0  0  3  0  0  0  0  0  0
  186.7440  177.5620  143.0190 C   0  0  2  0  0  3  0  0  0  0  0  0
  187.2260  177.9410  141.6610 C   0  0  1  0  0  3  0  0  0  0  0  0
  185.7230  178.3010  143.3870 C   0  0  0  0  0  0  0  0  0  0  0  0
  186.2680  179.0750  141.2650 C   0  0  1  0  0  3  0  0  0  0  0  0
  186.0370  178.5350  145.8450 C   0  0  0  0  0  0  0  0  0  0  0  0
  187.9570  177.0590  145.1190 C   0  0  0  0  0  3  0  0  0  0  0  0
  187.3260  176.4880  143.8820 C   0  0  0  0  0  2  0  0  0  0  0  0
  185.6980  179.3720  146.7260 O   0  0  0  0  0  0  0  0  0  0  0  0
  185.5090  178.7120  140.0220 C   0  0  0  0  0  0  0  0  0  0  0  0
  186.2060  178.2530  138.8500 N   0  0  0  0  0  0  0  0  0  0  0  0
  184.2480  178.7650  140.0290 O   0  0  0  0  0  0  0  0  0  0  0  0
  185.4730  177.7450  137.6980 C   0  0  0  0  0  2  0  0  0  0  0  0
  184.9820  176.3360  137.9690 C   0  0  0  0  0  2  0  0  0  0  0  0
  185.0390  175.5310  136.6870 C   0  0  0  0  0  2  0  0  0  0  0  0
  184.7300  173.4140  137.7320 O   0  0  0  0  0  0  0  0  0  0  0  0
  187.4900  174.3320  135.6120 N   0  0  0  0  0  1  0  0  0  0  0  0
  186.6570  173.5850  136.4520 N   0  0  0  0  0  2  0  0  0  0  0  0
  185.4500  174.1280  136.9860 C   0  0  0  0  0  0  0  0  0  0  0  0
  187.6570  178.1220  138.8440 C   0  0  0  0  0  2  0  0  0  0  0  0
  188.9500  176.4290  137.7690 O   0  0  0  0  0  1  0  0  0  0  0  0
  188.1290  177.5300  137.5260 C   0  0  2  0  0  3  0  0  0  0  0  0
  189.0500  179.7030  137.2190 O   0  0  0  0  0  1  0  0  0  0  0  0
  188.8770  178.5510  136.7400 C   0  0  0  0  0  0  0  0  0  0  0  0
  189.3590  178.2520  135.4690 O   0  0  0  0  0  0  0  0  0  0  0  0
  183.8050  178.9320  144.8030 C   0  0  0  0  0  0  0  0  0  0  0  0
  182.8140  179.5260  144.8570 N   0  0  0  0  0  0  0  0  0  0  0  0
  188.6510  178.4730  141.7450 C   0  0  0  0  0  2  0  0  0  0  0  0
  189.6340  177.4970  141.1100 C   0  0  0  0  0  2  0  0  0  0  0  0
  190.9310  177.6370  141.6830 O   0  0  0  0  0  0  0  0  0  0  0  0
  191.3470  178.2310  144.0780 C   0  0  0  0  0  0  0  0  0  0  0  0
  191.3830  176.0780  143.4070 N   0  0  0  0  0  0  0  0  0  0  0  0
  191.2240  179.4790  143.9740 O   0  0  0  0  0  0  0  0  0  0  0  0
  191.6740  176.0430  144.8410 C   0  0  0  0  0  3  0  0  0  0  0  0
  191.6420  177.5000  145.3290 C   0  0  0  0  0  3  0  0  0  0  0  0
  191.2130  177.2900  143.0060 C   0  0  0  0  0  0  0  0  0  0  0  0
  1 28  1  6  0  0  0
  1  8  1  0  0  0  0
  2  6  2  0  0  0  0
  4  6  1  0  0  0  0
  4 10  1  1  0  0  0
  5 30  1  1  0  0  0
  5  4  1  0  0  0  0
  6  1  1  0  0  0  0
  7 12  1  6  0  0  0
  7  5  1  0  0  0  0
  7  2  1  0  0  0  0
  8  3  1  0  0  0  0
  8 11  2  0  0  0  0
  9  3  2  0  0  0  0
 10  9  1  0  0  0  0
 12 14  2  0  0  0  0
 13 12  1  0  0  0  0
 15 16  1  0  0  0  0
 15 13  1  0  0  0  0
 17 21  1  0  0  0  0
 17 16  1  0  0  0  0
 19 20  1  0  0  0  0
 20 21  1  0  0  0  0
 21 18  2  0  0  0  0
 22 13  1  0  0  0  0
 24 23  1  1  0  0  0
 24 22  1  0  0  0  0
 26 25  1  0  0  0  0
 26 24  1  0  0  0  0
 27 26  2  0  0  0  0
 28 29  3  0  0  0  0
 31 32  1  0  0  0  0
 31 30  1  0  0  0  0
 32 38  1  0  0  0  0
 33 37  1  0  0  0  0
 34 36  1  0  0  0  0
 35 33  2  0  0  0  0
 36 37  2  0  0  0  0
 38 34  2  0  0  0  0
 38 33  1  0  0  0  0
M  END
>  <MODEL>
7

>  <REMARK>
 VINA RESULT:      -6.7      2.684      4.103
  Name = 
  13 active torsions:
  status: ('A' for Active; 'I' for Inactive)
    1  A    between atoms: C_1  and  C_26
    2  A    between atoms: N_2  and  C_6
    3  A    between atoms: N_2  and  C_12
    4  A    between atoms: C_5  and  C_7
    5  A    between atoms: C_6  and  C_30
    6  A    between atoms: C_12  and  C_36
    7  A    between atoms: C_16  and  C_22
    8  A    between atoms: C_18  and  C_24
    9  A    between atoms: C_18  and  C_30
   10  A    between atoms: C_20  and  C_22
   11  A    between atoms: C_20  and  O_32
   12  A    between atoms: C_23  and  C_36
   13  A    between atoms: C_27  and  O_32
                            x       y       z     vdW  Elec       q    Type
                         _______ _______ _______ _____ _____    ______ ____

>  <TORSDO>
F 13

$$$$
=
 OpenBabel10222420593D

 38 40  0  0  1  0  0  0  0  0999 V2000
  185.2820  178.0320  144.0590 C   0  0  1  0  0  3  0  0  0  0  0  0
  186.0330  178.9250  141.7460 N   0  0  0  0  0  0  0  0  0  0  0  0
  187.2830  178.0000  145.7640 C   0  0  0  0  0  3  0  0  0  0  0  0
  187.3030  177.3690  142.7970 C   0  0  2  0  0  3  0  0  0  0  0  0
  188.0530  177.6620  141.5430 C   0  0  1  0  0  3  0  0  0  0  0  0
  186.2030  178.0820  142.8740 C   0  0  0  0  0  0  0  0  0  0  0  0
  187.1660  178.7120  140.8550 C   0  0  1  0  0  3  0  0  0  0  0  0
  185.9750  178.5270  145.3130 C   0  0  0  0  0  0  0  0  0  0  0  0
  188.0530  177.0970  145.1420 C   0  0  0  0  0  3  0  0  0  0  0  0
  187.7210  176.3980  143.8550 C   0  0  0  0  0  2  0  0  0  0  0  0
  185.4290  179.4140  146.0250 O   0  0  0  0  0  0  0  0  0  0  0  0
  186.7030  178.2120  139.5180 C   0  0  0  0  0  0  0  0  0  0  0  0
  185.3500  178.4380  139.0830 N   0  0  0  0  0  0  0  0  0  0  0  0
  187.5250  177.6340  138.7530 O   0  0  0  0  0  0  0  0  0  0  0  0
  184.9370  178.1020  137.7270 C   0  0  0  0  0  2  0  0  0  0  0  0
  184.4420  176.6700  137.6700 C   0  0  0  0  0  2  0  0  0  0  0  0
  184.6310  176.1310  136.2660 C   0  0  0  0  0  2  0  0  0  0  0  0
  186.2730  177.3850  135.0830 O   0  0  0  0  0  0  0  0  0  0  0  0
  186.8760  174.3820  136.9750 N   0  0  0  0  0  1  0  0  0  0  0  0
  187.0920  175.5030  136.1650 N   0  0  0  0  0  2  0  0  0  0  0  0
  186.0280  176.3850  135.8080 C   0  0  0  0  0  0  0  0  0  0  0  0
  184.4040  179.1610  139.9220 C   0  0  0  0  0  2  0  0  0  0  0  0
  183.2420  181.0400  139.0210 O   0  0  0  0  0  1  0  0  0  0  0  0
  183.2260  179.6470  139.0940 C   0  0  2  0  0  3  0  0  0  0  0  0
  180.8780  179.8090  139.4460 O   0  0  0  0  0  0  0  0  0  0  0  0
  181.9450  179.1910  139.7020 C   0  0  0  0  0  0  0  0  0  0  0  0
  181.9220  178.1070  140.5760 O   0  0  0  0  0  1  0  0  0  0  0  0
  184.0070  178.7270  143.7920 C   0  0  0  0  0  0  0  0  0  0  0  0
  183.0080  179.2720  143.5830 N   0  0  0  0  0  0  0  0  0  0  0  0
  189.4090  178.2700  141.8780 C   0  0  0  0  0  2  0  0  0  0  0  0
  190.5030  177.6760  141.0000 C   0  0  0  0  0  2  0  0  0  0  0  0
  191.6940  177.4550  141.7510 O   0  0  0  0  0  0  0  0  0  0  0  0
  191.6770  178.1570  144.1540 C   0  0  0  0  0  0  0  0  0  0  0  0
  191.6700  175.9710  143.5960 N   0  0  0  0  0  0  0  0  0  0  0  0
  191.6790  179.4020  143.9740 O   0  0  0  0  0  0  0  0  0  0  0  0
  191.6690  175.9990  145.0600 C   0  0  0  0  0  3  0  0  0  0  0  0
  191.6610  177.4800  145.4690 C   0  0  0  0  0  3  0  0  0  0  0  0
  191.6810  177.1660  143.1180 C   0  0  0  0  0  0  0  0  0  0  0  0
  1 28  1  6  0  0  0
  1  8  1  0  0  0  0
  2  6  2  0  0  0  0
  4  6  1  0  0  0  0
  4 10  1  1  0  0  0
  5 30  1  1  0  0  0
  5  4  1  0  0  0  0
  6  1  1  0  0  0  0
  7 12  1  6  0  0  0
  7  5  1  0  0  0  0
  7  2  1  0  0  0  0
  8  3  1  0  0  0  0
  8 11  2  0  0  0  0
  9  3  2  0  0  0  0
 10  9  1  0  0  0  0
 13 12  1  0  0  0  0
 13 22  1  0  0  0  0
 14 12  2  0  0  0  0
 15 13  1  0  0  0  0
 16 15  1  0  0  0  0
 17 16  1  0  0  0  0
 18 21  2  0  0  0  0
 20 19  1  0  0  0  0
 21 20  1  0  0  0  0
 21 17  1  0  0  0  0
 24 23  1  1  0  0  0
 24 26  1  0  0  0  0
 24 22  1  0  0  0  0
 25 26  2  0  0  0  0
 26 27  1  0  0  0  0
 29 28  3  0  0  0  0
 31 32  1  0  0  0  0
 31 30  1  0  0  0  0
 32 38  1  0  0  0  0
 33 37  1  0  0  0  0
 34 36  1  0  0  0  0
 35 33  2  0  0  0  0
 36 37  2  0  0  0  0
 38 34  2  0  0  0  0
 38 33  1  0  0  0  0
M  END
>  <MODEL>
8

>  <REMARK>
 VINA RESULT:      -6.6      2.785      4.371
  Name = 
  13 active torsions:
  status: ('A' for Active; 'I' for Inactive)
    1  A    between atoms: C_1  and  C_26
    2  A    between atoms: N_2  and  C_6
    3  A    between atoms: N_2  and  C_12
    4  A    between atoms: C_5  and  C_7
    5  A    between atoms: C_6  and  C_30
    6  A    between atoms: C_12  and  C_36
    7  A    between atoms: C_16  and  C_22
    8  A    between atoms: C_18  and  C_24
    9  A    between atoms: C_18  and  C_30
   10  A    between atoms: C_20  and  C_22
   11  A    between atoms: C_20  and  O_32
   12  A    between atoms: C_23  and  C_36
   13  A    between atoms: C_27  and  O_32
                            x       y       z     vdW  Elec       q    Type
                         _______ _______ _______ _____ _____    ______ ____

>  <TORSDO>
F 13

$$$$
=
 OpenBabel10222420593D

 38 40  0  0  1  0  0  0  0  0999 V2000
  190.1910  177.0790  146.7250 C   0  0  1  0  0  3  0  0  0  0  0  0
  190.6270  176.3010  144.2940 N   0  0  0  0  0  0  0  0  0  0  0  0
  187.6190  177.0950  147.2740 C   0  0  0  0  0  3  0  0  0  0  0  0
  189.0160  177.8470  144.6890 C   0  0  2  0  0  3  0  0  0  0  0  0
  188.9520  177.6240  143.2170 C   0  0  1  0  0  3  0  0  0  0  0  0
  189.9440  177.1010  145.2450 C   0  0  0  0  0  0  0  0  0  0  0  0
  190.0550  176.5800  142.9830 C   0  0  1  0  0  3  0  0  0  0  0  0
  188.9820  176.5520  147.4740 C   0  0  0  0  0  0  0  0  0  0  0  0
  187.2420  178.0440  146.4060 C   0  0  0  0  0  3  0  0  0  0  0  0
  188.1490  178.7840  145.4660 C   0  0  0  0  0  2  0  0  0  0  0  0
  189.1200  175.6240  148.3160 O   0  0  0  0  0  0  0  0  0  0  0  0
  191.1010  177.1200  142.0520 C   0  0  0  0  0  0  0  0  0  0  0  0
  190.8820  177.1170  140.6290 N   0  0  0  0  0  0  0  0  0  0  0  0
  192.1550  177.6240  142.5290 O   0  0  0  0  0  0  0  0  0  0  0  0
  191.8150  177.7840  139.7310 C   0  0  0  0  0  2  0  0  0  0  0  0
  192.9120  176.8250  139.3090 C   0  0  0  0  0  2  0  0  0  0  0  0
  192.6680  176.3810  137.8810 C   0  0  0  0  0  2  0  0  0  0  0  0
  193.6770  174.2260  137.9560 O   0  0  0  0  0  0  0  0  0  0  0  0
  194.8110  177.0150  135.9830 N   0  0  0  0  0  1  0  0  0  0  0  0
  194.7390  175.7390  136.5550 N   0  0  0  0  0  2  0  0  0  0  0  0
  193.7050  175.3890  137.4730 C   0  0  0  0  0  0  0  0  0  0  0  0
  189.6440  176.6010  140.0620 C   0  0  0  0  0  2  0  0  0  0  0  0
  188.3250  178.5070  139.4950 O   0  0  0  0  0  1  0  0  0  0  0  0
  189.1470  177.5170  138.9560 C   0  0  2  0  0  3  0  0  0  0  0  0
  188.9330  175.7470  137.3790 O   0  0  0  0  0  0  0  0  0  0  0  0
  188.3890  176.7340  137.9400 C   0  0  0  0  0  0  0  0  0  0  0  0
  187.0950  177.1050  137.5820 O   0  0  0  0  0  1  0  0  0  0  0  0
  191.4350  176.3610  147.0640 C   0  0  0  0  0  0  0  0  0  0  0  0
  192.4110  175.7990  147.3290 N   0  0  0  0  0  0  0  0  0  0  0  0
  187.5980  177.0400  142.8380 C   0  0  0  0  0  2  0  0  0  0  0  0
  186.6050  178.1440  142.4950 C   0  0  0  0  0  2  0  0  0  0  0  0
  185.6020  178.2560  143.5000 O   0  0  0  0  0  0  0  0  0  0  0  0
  183.2620  178.8430  144.1690 C   0  0  0  0  0  0  0  0  0  0  0  0
  183.7630  178.3990  142.0150 N   0  0  0  0  0  0  0  0  0  0  0  0
  183.4650  179.0020  145.4000 O   0  0  0  0  0  0  0  0  0  0  0  0
  182.3280  178.6840  142.0290 C   0  0  0  0  0  3  0  0  0  0  0  0
  181.9600  179.0040  143.4860 C   0  0  0  0  0  3  0  0  0  0  0  0
  184.2570  178.4850  143.2010 C   0  0  0  0  0  0  0  0  0  0  0  0
  1 28  1  6  0  0  0
  1  8  1  0  0  0  0
  2  6  2  0  0  0  0
  3  8  1  0  0  0  0
  4  6  1  0  0  0  0
  4 10  1  1  0  0  0
  5 30  1  1  0  0  0
  5  4  1  0  0  0  0
  6  1  1  0  0  0  0
  7 12  1  6  0  0  0
  7  5  1  0  0  0  0
  7  2  1  0  0  0  0
  8 11  2  0  0  0  0
  9  3  2  0  0  0  0
 10  9  1  0  0  0  0
 12 14  2  0  0  0  0
 13 12  1  0  0  0  0
 15 13  1  0  0  0  0
 16 15  1  0  0  0  0
 17 16  1  0  0  0  0
 19 20  1  0  0  0  0
 20 21  1  0  0  0  0
 21 17  1  0  0  0  0
 21 18  2  0  0  0  0
 22 13  1  0  0  0  0
 24 23  1  1  0  0  0
 24 22  1  0  0  0  0
 25 26  2  0  0  0  0
 26 24  1  0  0  0  0
 27 26  1  0  0  0  0
 28 29  3  0  0  0  0
 31 30  1  0  0  0  0
 31 32  1  0  0  0  0
 33 35  2  0  0  0  0
 34 36  1  0  0  0  0
 34 38  2  0  0  0  0
 36 37  2  0  0  0  0
 37 33  1  0  0  0  0
 38 32  1  0  0  0  0
 38 33  1  0  0  0  0
M  END
>  <MODEL>
9

>  <REMARK>
 VINA RESULT:      -6.5      1.916      5.455
  Name = 
  13 active torsions:
  status: ('A' for Active; 'I' for Inactive)
    1  A    between atoms: C_1  and  C_26
    2  A    between atoms: N_2  and  C_6
    3  A    between atoms: N_2  and  C_12
    4  A    between atoms: C_5  and  C_7
    5  A    between atoms: C_6  and  C_30
    6  A    between atoms: C_12  and  C_36
    7  A    between atoms: C_16  and  C_22
    8  A    between atoms: C_18  and  C_24
    9  A    between atoms: C_18  and  C_30
   10  A    between atoms: C_20  and  C_22
   11  A    between atoms: C_20  and  O_32
   12  A    between atoms: C_23  and  C_36
   13  A    between atoms: C_27  and  O_32
                            x       y       z     vdW  Elec       q    Type
                         _______ _______ _______ _____ _____    ______ ____

>  <TORSDO>
F 13

$$$$
