=
 OpenBabel10222416573D

 28 32  0  0  1  0  0  0  0  0999 V2000
  187.0510  178.1540  139.1700 C   0  0  0  0  0  2  0  0  0  0  0  0
  188.2690  178.4170  140.0000 C   0  0  1  0  0  3  0  0  0  0  0  0
  189.7510  177.0420  140.9940 C   0  0  2  0  0  3  0  0  0  0  0  0
  191.3560  176.5060  139.1550 C   0  0  0  0  0  2  0  0  0  0  0  0
  188.4910  177.6840  141.0920 C   0  0  1  0  0  3  0  0  0  0  0  0
  189.4610  177.3900  143.2570 C   0  0  2  0  0  3  0  0  0  0  0  0
  190.3790  176.8680  142.2430 N   0  0  0  0  0  2  0  0  0  0  0  0
  188.8290  177.3590  138.0310 C   0  0  0  0  0  0  0  0  0  0  0  0
  190.7530  175.9400  137.8780 C   0  0  0  0  0  3  0  0  0  0  0  0
  188.2810  178.0840  142.5150 C   0  0  2  0  0  3  0  0  0  0  0  0
  189.4290  178.2150  139.0760 C   0  0  2  0  0  3  0  0  0  0  0  0
  187.5410  177.3030  138.0890 N   0  0  0  0  0  0  0  0  0  0  0  0
  189.6060  176.3370  137.3890 N   0  0  0  0  0  0  0  0  0  0  0  0
  190.3520  177.3630  139.8640 C   0  0  1  0  0  3  0  0  0  0  0  0
  185.1340  178.8540  143.8860 C   0  0  0  0  0  0  0  0  0  0  0  0
  186.9210  177.5070  144.5770 C   0  0  0  0  0  2  0  0  0  0  0  0
  185.3970  178.4870  146.3870 C   0  0  0  0  0  1  0  0  0  0  0  0
  185.7900  178.5140  142.6110 C   0  0  0  0  0  2  0  0  0  0  0  0
  186.9330  177.5760  143.0360 C   0  0  1  0  0  3  0  0  0  0  0  0
  184.1190  179.5940  143.9790 O   0  0  0  0  0  0  0  0  0  0  0  0
  185.7690  178.2700  145.0000 N   0  0  0  0  0  0  0  0  0  0  0  0
  190.4690  178.1450  145.4060 C   0  0  0  0  0  3  0  0  0  0  0  0
  190.1790  178.3800  144.1220 C   0  0  0  0  0  3  0  0  0  0  0  0
  190.1090  176.8730  146.1100 C   0  0  0  0  0  2  0  0  0  0  0  0
  192.0700  175.8430  147.2960 C   0  0  0  0  0  0  0  0  0  0  0  0
  192.4190  175.1310  146.1540 O   0  0  0  0  0  0  0  0  0  0  0  0
  190.9350  176.7070  147.2950 N   0  0  0  0  0  2  0  0  0  0  0  0
  192.7630  175.7270  148.3400 O   0  0  0  0  0  1  0  0  0  0  0  0
  2  1  1  6  0  0  0
  2  5  1  0  0  0  0
  3  5  1  0  0  0  0
  3  7  1  1  0  0  0
  4 14  1  0  0  0  0
  5 10  1  0  0  0  0
  6 23  1  0  0  0  0
  7  6  1  0  0  0  0
  8 12  2  0  0  0  0
  8 11  1  0  0  0  0
  9  4  1  0  0  0  0
 10 19  1  0  0  0  0
 10  6  1  0  0  0  0
 11 14  1  0  0  0  0
 11  2  1  0  0  0  0
 12  1  1  0  0  0  0
 13  9  2  0  0  0  0
 13  8  1  0  0  0  0
 14  3  1  0  0  0  0
 15 20  2  0  0  0  0
 15 21  1  0  0  0  0
 16 21  1  0  0  0  0
 18 19  1  0  0  0  0
 18 15  1  0  0  0  0
 19 16  1  0  0  0  0
 21 17  1  0  0  0  0
 22 24  1  0  0  0  0
 23 22  2  0  0  0  0
 24 27  1  0  0  0  0
 25 28  1  0  0  0  0
 26 25  2  0  0  0  0
 27 25  1  0  0  0  0
M  END
>  <MODEL>
1

>  <REMARK>
 VINA RESULT:      -8.8      0.000      0.000
  Name = 
  4 active torsions:
  status: ('A' for Active; 'I' for Inactive)
    1  A    between atoms: C_9  and  C_25
    2  A    between atoms: N_12  and  C_25
    3  A    between atoms: C_13  and  C_26
    4  A    between atoms: C_17  and  C_20
                            x       y       z     vdW  Elec       q    Type
                         _______ _______ _______ _____ _____    ______ ____

>  <TORSDO>
F 4

$$$$
=
 OpenBabel10222416573D

 28 32  0  0  1  0  0  0  0  0999 V2000
  185.3080  178.4170  145.8600 C   0  0  0  0  0  2  0  0  0  0  0  0
  186.3960  177.5210  145.3510 C   0  0  1  0  0  3  0  0  0  0  0  0
  188.5870  177.8680  144.9660 C   0  0  2  0  0  3  0  0  0  0  0  0
  189.6250  177.5270  147.2130 C   0  0  0  0  0  2  0  0  0  0  0  0
  187.2690  177.9900  144.4590 C   0  0  1  0  0  3  0  0  0  0  0  0
  188.8300  177.6570  142.6800 C   0  0  2  0  0  3  0  0  0  0  0  0
  189.5450  177.6430  143.9570 N   0  0  0  0  0  2  0  0  0  0  0  0
  186.8210  178.1820  147.5170 C   0  0  0  0  0  0  0  0  0  0  0  0
  189.0600  178.3670  148.3500 C   0  0  0  0  0  3  0  0  0  0  0  0
  187.3060  177.7190  142.9910 C   0  0  2  0  0  3  0  0  0  0  0  0
  187.1660  177.1060  146.5640 C   0  0  2  0  0  3  0  0  0  0  0  0
  185.8290  178.9110  147.1320 N   0  0  0  0  0  0  0  0  0  0  0  0
  187.7890  178.6550  148.4660 N   0  0  0  0  0  0  0  0  0  0  0  0
  188.5780  177.3130  146.1620 C   0  0  1  0  0  3  0  0  0  0  0  0
  184.5310  178.8050  141.1210 C   0  0  0  0  0  0  0  0  0  0  0  0
  186.8280  178.6640  140.6870 C   0  0  0  0  0  2  0  0  0  0  0  0
  185.2270  178.5350  138.6920 C   0  0  0  0  0  1  0  0  0  0  0  0
  185.1170  178.8760  142.4710 C   0  0  0  0  0  2  0  0  0  0  0  0
  186.6320  178.8480  142.2060 C   0  0  1  0  0  3  0  0  0  0  0  0
  183.2930  178.8270  140.8900 O   0  0  0  0  0  0  0  0  0  0  0  0
  185.5040  178.7000  140.1080 N   0  0  0  0  0  0  0  0  0  0  0  0
  189.9760  176.3970  140.8620 C   0  0  0  0  0  3  0  0  0  0  0  0
  189.1480  176.4100  141.9130 C   0  0  0  0  0  3  0  0  0  0  0  0
  190.6670  177.6210  140.3450 C   0  0  0  0  0  2  0  0  0  0  0  0
  193.0500  177.1150  139.7290 C   0  0  0  0  0  0  0  0  0  0  0  0
  192.6610  176.7040  138.4600 O   0  0  0  0  0  0  0  0  0  0  0  0
  192.0830  177.5700  140.6730 N   0  0  0  0  0  2  0  0  0  0  0  0
  194.2670  177.0880  140.0480 O   0  0  0  0  0  1  0  0  0  0  0  0
  1 12  1  0  0  0  0
  2  1  1  1  0  0  0
  2 11  1  0  0  0  0
  3  7  1  6  0  0  0
  3 14  1  0  0  0  0
  4  9  1  0  0  0  0
  5  3  1  0  0  0  0
  5  2  1  0  0  0  0
  6 10  1  0  0  0  0
  6  7  1  0  0  0  0
  8 13  1  0  0  0  0
  9 13  2  0  0  0  0
 10  5  1  0  0  0  0
 11  8  1  0  0  0  0
 12  8  2  0  0  0  0
 14 11  1  0  0  0  0
 14  4  1  0  0  0  0
 15 18  1  0  0  0  0
 16 19  1  0  0  0  0
 17 21  1  0  0  0  0
 19 18  1  0  0  0  0
 19 10  1  0  0  0  0
 20 15  2  0  0  0  0
 21 16  1  0  0  0  0
 21 15  1  0  0  0  0
 22 23  2  0  0  0  0
 23  6  1  0  0  0  0
 24 27  1  0  0  0  0
 24 22  1  0  0  0  0
 25 28  1  0  0  0  0
 25 27  1  0  0  0  0
 26 25  2  0  0  0  0
M  END
>  <MODEL>
2

>  <REMARK>
 VINA RESULT:      -8.6      2.902      6.419
  Name = 
  4 active torsions:
  status: ('A' for Active; 'I' for Inactive)
    1  A    between atoms: C_9  and  C_25
    2  A    between atoms: N_12  and  C_25
    3  A    between atoms: C_13  and  C_26
    4  A    between atoms: C_17  and  C_20
                            x       y       z     vdW  Elec       q    Type
                         _______ _______ _______ _____ _____    ______ ____

>  <TORSDO>
F 4

$$$$
=
 OpenBabel10222416573D

 28 32  0  0  1  0  0  0  0  0999 V2000
  185.3820  178.1100  146.2970 C   0  0  0  0  0  2  0  0  0  0  0  0
  186.4520  177.3580  145.5670 C   0  0  1  0  0  3  0  0  0  0  0  0
  188.5150  177.9440  144.8790 C   0  0  2  0  0  3  0  0  0  0  0  0
  189.9210  177.5840  146.9130 C   0  0  0  0  0  2  0  0  0  0  0  0
  187.1280  177.9610  144.5880 C   0  0  1  0  0  3  0  0  0  0  0  0
  188.4120  177.8850  142.5740 C   0  0  2  0  0  3  0  0  0  0  0  0
  189.3180  177.8720  143.7240 N   0  0  0  0  0  2  0  0  0  0  0  0
  187.1530  177.9360  147.6850 C   0  0  0  0  0  0  0  0  0  0  0  0
  189.4690  178.2980  148.1790 C   0  0  0  0  0  3  0  0  0  0  0  0
  186.9580  177.7760  143.1160 C   0  0  2  0  0  3  0  0  0  0  0  0
  187.4390  176.9550  146.6170 C   0  0  2  0  0  3  0  0  0  0  0  0
  186.0500  178.5820  147.5060 N   0  0  0  0  0  0  0  0  0  0  0  0
  188.2110  178.4510  148.5070 N   0  0  0  0  0  0  0  0  0  0  0  0
  188.7450  177.3250  146.0210 C   0  0  1  0  0  3  0  0  0  0  0  0
  183.9490  178.6300  141.5040 C   0  0  0  0  0  0  0  0  0  0  0  0
  186.2130  178.9400  140.9890 C   0  0  0  0  0  2  0  0  0  0  0  0
  184.5520  178.8230  139.0430 C   0  0  0  0  0  1  0  0  0  0  0  0
  184.5850  178.6090  142.8330 C   0  0  0  0  0  2  0  0  0  0  0  0
  186.0690  178.8740  142.5240 C   0  0  1  0  0  3  0  0  0  0  0  0
  182.7140  178.4750  141.3130 O   0  0  0  0  0  0  0  0  0  0  0  0
  184.8720  178.8320  140.4600 N   0  0  0  0  0  0  0  0  0  0  0  0
  189.3720  176.8490  140.5220 C   0  0  0  0  0  3  0  0  0  0  0  0
  188.7170  176.7210  141.6810 C   0  0  0  0  0  3  0  0  0  0  0  0
  189.8640  178.1620  139.9960 C   0  0  0  0  0  2  0  0  0  0  0  0
  188.8440  178.5820  137.7390 C   0  0  0  0  0  0  0  0  0  0  0  0
  189.8150  177.7980  137.1270 O   0  0  0  0  0  1  0  0  0  0  0  0
  188.8510  178.7730  139.1520 N   0  0  0  0  0  2  0  0  0  0  0  0
  187.9500  179.1250  137.0410 O   0  0  0  0  0  0  0  0  0  0  0  0
  1 12  1  0  0  0  0
  2  1  1  1  0  0  0
  2 11  1  0  0  0  0
  3  7  1  6  0  0  0
  3 14  1  0  0  0  0
  4  9  1  0  0  0  0
  5  3  1  0  0  0  0
  5  2  1  0  0  0  0
  6 10  1  0  0  0  0
  6  7  1  0  0  0  0
  8 13  1  0  0  0  0
  9 13  2  0  0  0  0
 10  5  1  0  0  0  0
 11  8  1  0  0  0  0
 12  8  2  0  0  0  0
 14 11  1  0  0  0  0
 14  4  1  0  0  0  0
 15 18  1  0  0  0  0
 16 19  1  0  0  0  0
 17 21  1  0  0  0  0
 19 18  1  0  0  0  0
 19 10  1  0  0  0  0
 20 15  2  0  0  0  0
 21 16  1  0  0  0  0
 21 15  1  0  0  0  0
 22 23  2  0  0  0  0
 23  6  1  0  0  0  0
 24 22  1  0  0  0  0
 25 27  1  0  0  0  0
 26 25  1  0  0  0  0
 27 24  1  0  0  0  0
 28 25  2  0  0  0  0
M  END
>  <MODEL>
3

>  <REMARK>
 VINA RESULT:      -8.5      3.428      6.968
  Name = 
  4 active torsions:
  status: ('A' for Active; 'I' for Inactive)
    1  A    between atoms: C_9  and  C_25
    2  A    between atoms: N_12  and  C_25
    3  A    between atoms: C_13  and  C_26
    4  A    between atoms: C_17  and  C_20
                            x       y       z     vdW  Elec       q    Type
                         _______ _______ _______ _____ _____    ______ ____

>  <TORSDO>
F 4

$$$$
=
 OpenBabel10222416573D

 28 32  0  0  1  0  0  0  0  0999 V2000
  184.7340  178.8430  144.0160 C   0  0  0  0  0  2  0  0  0  0  0  0
  185.7880  177.7960  144.2050 C   0  0  1  0  0  3  0  0  0  0  0  0
  187.9190  177.9050  144.9250 C   0  0  2  0  0  3  0  0  0  0  0  0
  187.6870  177.8440  147.4120 C   0  0  0  0  0  2  0  0  0  0  0  0
  187.0400  178.0480  143.8220 C   0  0  1  0  0  3  0  0  0  0  0  0
  189.1960  177.3160  143.0950 C   0  0  2  0  0  3  0  0  0  0  0  0
  189.1990  177.4490  144.5530 N   0  0  0  0  0  2  0  0  0  0  0  0
  185.2120  178.7560  146.2200 C   0  0  0  0  0  0  0  0  0  0  0  0
  186.7750  178.8940  148.0300 C   0  0  0  0  0  3  0  0  0  0  0  0
  187.7380  177.5450  142.6020 C   0  0  2  0  0  3  0  0  0  0  0  0
  185.8110  177.5190  145.6750 C   0  0  2  0  0  3  0  0  0  0  0  0
  184.6460  179.4900  145.3220 N   0  0  0  0  0  0  0  0  0  0  0  0
  185.6620  179.2960  147.4710 N   0  0  0  0  0  0  0  0  0  0  0  0
  187.2550  177.5490  146.0080 C   0  0  1  0  0  3  0  0  0  0  0  0
  186.5020  178.4710  139.4400 C   0  0  0  0  0  0  0  0  0  0  0  0
  188.6530  178.2020  140.3290 C   0  0  0  0  0  2  0  0  0  0  0  0
  188.3550  177.8690  137.8070 C   0  0  0  0  0  1  0  0  0  0  0  0
  186.2840  178.6960  140.8800 C   0  0  0  0  0  2  0  0  0  0  0  0
  187.6970  178.5860  141.4780 C   0  0  1  0  0  3  0  0  0  0  0  0
  185.5870  178.5030  138.5760 O   0  0  0  0  0  0  0  0  0  0  0  0
  187.8500  178.2050  139.1270 N   0  0  0  0  0  0  0  0  0  0  0  0
  190.8130  175.4220  143.1430 C   0  0  0  0  0  3  0  0  0  0  0  0
  189.6580  175.9430  142.7150 C   0  0  0  0  0  3  0  0  0  0  0  0
  191.7620  176.1540  144.0410 C   0  0  0  0  0  2  0  0  0  0  0  0
  191.9940  176.0030  146.5380 C   0  0  0  0  0  0  0  0  0  0  0  0
  191.7670  177.3680  146.6670 O   0  0  0  0  0  0  0  0  0  0  0  0
  191.9950  175.3850  145.2530 N   0  0  0  0  0  2  0  0  0  0  0  0
  192.1980  175.3050  147.5650 O   0  0  0  0  0  1  0  0  0  0  0  0
  1 12  1  0  0  0  0
  2  1  1  1  0  0  0
  2 11  1  0  0  0  0
  3  7  1  6  0  0  0
  3 14  1  0  0  0  0
  4  9  1  0  0  0  0
  5  2  1  0  0  0  0
  5  3  1  0  0  0  0
  6  7  1  0  0  0  0
  8 13  1  0  0  0  0
 10  6  1  0  0  0  0
 10  5  1  0  0  0  0
 11 14  1  0  0  0  0
 11  8  1  0  0  0  0
 12  8  2  0  0  0  0
 13  9  2  0  0  0  0
 14  4  1  0  0  0  0
 15 18  1  0  0  0  0
 16 19  1  0  0  0  0
 17 21  1  0  0  0  0
 18 19  1  0  0  0  0
 19 10  1  0  0  0  0
 20 15  2  0  0  0  0
 21 15  1  0  0  0  0
 21 16  1  0  0  0  0
 22 24  1  0  0  0  0
 23  6  1  0  0  0  0
 23 22  2  0  0  0  0
 24 27  1  0  0  0  0
 25 26  2  0  0  0  0
 25 28  1  0  0  0  0
 27 25  1  0  0  0  0
M  END
>  <MODEL>
4

>  <REMARK>
 VINA RESULT:      -8.5      2.046      5.754
  Name = 
  4 active torsions:
  status: ('A' for Active; 'I' for Inactive)
    1  A    between atoms: C_9  and  C_25
    2  A    between atoms: N_12  and  C_25
    3  A    between atoms: C_13  and  C_26
    4  A    between atoms: C_17  and  C_20
                            x       y       z     vdW  Elec       q    Type
                         _______ _______ _______ _____ _____    ______ ____

>  <TORSDO>
F 4

$$$$
=
 OpenBabel10222416573D

 28 32  0  0  1  0  0  0  0  0999 V2000
  191.4500  177.1850  144.1750 C   0  0  0  0  0  2  0  0  0  0  0  0
  190.2030  178.0130  144.1330 C   0  0  1  0  0  3  0  0  0  0  0  0
  188.0300  177.4950  144.4140 C   0  0  2  0  0  3  0  0  0  0  0  0
  187.7470  177.5430  146.8960 C   0  0  0  0  0  2  0  0  0  0  0  0
  189.1220  177.5420  143.5110 C   0  0  1  0  0  3  0  0  0  0  0  0
  187.0560  177.8770  142.3560 C   0  0  2  0  0  3  0  0  0  0  0  0
  186.7880  177.7130  143.7860 N   0  0  0  0  0  2  0  0  0  0  0  0
  190.5350  177.1340  146.2360 C   0  0  0  0  0  0  0  0  0  0  0  0
  188.6970  176.6670  147.7000 C   0  0  0  0  0  3  0  0  0  0  0  0
  188.6000  177.9330  142.1680 C   0  0  2  0  0  3  0  0  0  0  0  0
  189.8370  178.2490  145.5640 C   0  0  2  0  0  3  0  0  0  0  0  0
  191.3960  176.5370  145.4820 N   0  0  0  0  0  0  0  0  0  0  0  0
  189.9540  176.4920  147.3810 N   0  0  0  0  0  0  0  0  0  0  0  0
  188.3860  177.9440  145.6020 C   0  0  1  0  0  3  0  0  0  0  0  0
  190.9230  177.1300  139.6500 C   0  0  0  0  0  0  0  0  0  0  0  0
  188.5960  177.3930  139.6900 C   0  0  0  0  0  2  0  0  0  0  0  0
  189.8080  177.8330  137.4770 C   0  0  0  0  0  1  0  0  0  0  0  0
  190.5910  176.8380  141.0560 C   0  0  0  0  0  2  0  0  0  0  0  0
  189.0570  176.9430  141.0920 C   0  0  1  0  0  3  0  0  0  0  0  0
  192.0940  177.1220  139.1870 O   0  0  0  0  0  0  0  0  0  0  0  0
  189.7870  177.4310  138.8730 N   0  0  0  0  0  0  0  0  0  0  0  0
  185.1280  179.2540  141.5880 C   0  0  0  0  0  3  0  0  0  0  0  0
  186.4320  179.1480  141.8700 C   0  0  0  0  0  3  0  0  0  0  0  0
  184.1620  178.1180  141.7280 C   0  0  0  0  0  2  0  0  0  0  0  0
  182.2770  178.9980  143.1360 C   0  0  0  0  0  0  0  0  0  0  0  0
  183.0480  178.8790  144.2870 O   0  0  0  0  0  1  0  0  0  0  0  0
  182.8080  178.6290  141.8650 N   0  0  0  0  0  2  0  0  0  0  0  0
  181.1010  179.4380  143.2160 O   0  0  0  0  0  0  0  0  0  0  0  0
  1 12  1  0  0  0  0
  2  1  1  1  0  0  0
  2 11  1  0  0  0  0
  3  7  1  6  0  0  0
  3 14  1  0  0  0  0
  4  9  1  0  0  0  0
  5  2  1  0  0  0  0
  5  3  1  0  0  0  0
  6  7  1  0  0  0  0
  8 13  1  0  0  0  0
 10  6  1  0  0  0  0
 10  5  1  0  0  0  0
 11 14  1  0  0  0  0
 11  8  1  0  0  0  0
 12  8  2  0  0  0  0
 13  9  2  0  0  0  0
 14  4  1  0  0  0  0
 15 18  1  0  0  0  0
 16 19  1  0  0  0  0
 17 21  1  0  0  0  0
 18 19  1  0  0  0  0
 19 10  1  0  0  0  0
 20 15  2  0  0  0  0
 21 15  1  0  0  0  0
 21 16  1  0  0  0  0
 22 24  1  0  0  0  0
 22 23  2  0  0  0  0
 23  6  1  0  0  0  0
 24 27  1  0  0  0  0
 25 28  2  0  0  0  0
 25 26  1  0  0  0  0
 27 25  1  0  0  0  0
M  END
>  <MODEL>
5

>  <REMARK>
 VINA RESULT:      -8.4      2.684      7.545
  Name = 
  4 active torsions:
  status: ('A' for Active; 'I' for Inactive)
    1  A    between atoms: C_9  and  C_25
    2  A    between atoms: N_12  and  C_25
    3  A    between atoms: C_13  and  C_26
    4  A    between atoms: C_17  and  C_20
                            x       y       z     vdW  Elec       q    Type
                         _______ _______ _______ _____ _____    ______ ____

>  <TORSDO>
F 4

$$$$
=
 OpenBabel10222416573D

 28 32  0  0  1  0  0  0  0  0999 V2000
  191.3500  177.7970  143.2230 C   0  0  0  0  0  2  0  0  0  0  0  0
  190.0730  178.3520  143.7760 C   0  0  1  0  0  3  0  0  0  0  0  0
  188.2790  177.3710  144.7200 C   0  0  2  0  0  3  0  0  0  0  0  0
  188.9670  177.0980  147.1070 C   0  0  0  0  0  2  0  0  0  0  0  0
  188.9200  177.7370  143.5100 C   0  0  1  0  0  3  0  0  0  0  0  0
  186.5450  177.7610  143.2480 C   0  0  2  0  0  3  0  0  0  0  0  0
  186.8740  177.3950  144.6270 N   0  0  0  0  0  2  0  0  0  0  0  0
  191.3160  177.3410  145.4320 C   0  0  0  0  0  0  0  0  0  0  0  0
  190.2730  176.3550  147.3500 C   0  0  0  0  0  3  0  0  0  0  0  0
  187.8700  178.1520  142.5330 C   0  0  2  0  0  3  0  0  0  0  0  0
  190.2530  178.3540  145.2610 C   0  0  2  0  0  3  0  0  0  0  0  0
  191.9000  177.0170  144.3280 N   0  0  0  0  0  0  0  0  0  0  0  0
  191.3220  176.4760  146.5780 N   0  0  0  0  0  0  0  0  0  0  0  0
  188.9920  177.7560  145.7610 C   0  0  1  0  0  3  0  0  0  0  0  0
  189.8980  177.3590  139.7690 C   0  0  0  0  0  0  0  0  0  0  0  0
  187.7800  178.3310  140.0050 C   0  0  0  0  0  2  0  0  0  0  0  0
  189.1470  178.9390  137.9260 C   0  0  0  0  0  1  0  0  0  0  0  0
  189.4410  176.8210  141.0630 C   0  0  0  0  0  2  0  0  0  0  0  0
  188.0220  177.3970  141.2090 C   0  0  1  0  0  3  0  0  0  0  0  0
  191.0200  177.1030  139.2580 O   0  0  0  0  0  0  0  0  0  0  0  0
  188.9480  178.2040  139.1630 N   0  0  0  0  0  0  0  0  0  0  0  0
  184.5850  179.0310  142.3810 C   0  0  0  0  0  3  0  0  0  0  0  0
  185.5980  178.9210  143.2480 C   0  0  0  0  0  3  0  0  0  0  0  0
  184.2940  178.0110  141.3240 C   0  0  0  0  0  2  0  0  0  0  0  0
  183.4100  179.4200  139.4410 C   0  0  0  0  0  0  0  0  0  0  0  0
  184.6750  179.9460  139.2080 O   0  0  0  0  0  1  0  0  0  0  0  0
  183.2010  178.4650  140.4790 N   0  0  0  0  0  2  0  0  0  0  0  0
  182.4400  179.7880  138.7290 O   0  0  0  0  0  0  0  0  0  0  0  0
  1 12  1  0  0  0  0
  2  1  1  6  0  0  0
  2 11  1  0  0  0  0
  3  7  1  1  0  0  0
  3 14  1  0  0  0  0
  4  9  1  0  0  0  0
  5  2  1  0  0  0  0
  5  3  1  0  0  0  0
  6  7  1  0  0  0  0
  8 13  1  0  0  0  0
 10  6  1  0  0  0  0
 10  5  1  0  0  0  0
 11  8  1  0  0  0  0
 11 14  1  0  0  0  0
 12  8  2  0  0  0  0
 13  9  2  0  0  0  0
 14  4  1  0  0  0  0
 15 18  1  0  0  0  0
 16 19  1  0  0  0  0
 17 21  1  0  0  0  0
 18 19  1  0  0  0  0
 19 10  1  0  0  0  0
 20 15  2  0  0  0  0
 21 15  1  0  0  0  0
 21 16  1  0  0  0  0
 22 23  2  0  0  0  0
 23  6  1  0  0  0  0
 24 22  1  0  0  0  0
 25 27  1  0  0  0  0
 26 25  1  0  0  0  0
 27 24  1  0  0  0  0
 28 25  2  0  0  0  0
M  END
>  <MODEL>
6

>  <REMARK>
 VINA RESULT:      -8.4      2.803      7.481
  Name = 
  4 active torsions:
  status: ('A' for Active; 'I' for Inactive)
    1  A    between atoms: C_9  and  C_25
    2  A    between atoms: N_12  and  C_25
    3  A    between atoms: C_13  and  C_26
    4  A    between atoms: C_17  and  C_20
                            x       y       z     vdW  Elec       q    Type
                         _______ _______ _______ _____ _____    ______ ____

>  <TORSDO>
F 4

$$$$
=
 OpenBabel10222416573D

 28 32  0  0  1  0  0  0  0  0999 V2000
  184.5250  179.0750  145.9100 C   0  0  0  0  0  2  0  0  0  0  0  0
  185.4470  179.3380  144.7600 C   0  0  1  0  0  3  0  0  0  0  0  0
  185.9580  178.1400  142.9220 C   0  0  2  0  0  3  0  0  0  0  0  0
  184.1210  178.7210  141.3310 C   0  0  0  0  0  2  0  0  0  0  0  0
  186.2200  178.3550  144.2990 C   0  0  1  0  0  3  0  0  0  0  0  0
  188.1840  177.5850  143.1750 C   0  0  2  0  0  3  0  0  0  0  0  0
  187.0920  177.7100  142.2070 N   0  0  0  0  0  2  0  0  0  0  0  0
  183.2580  179.2230  144.0490 C   0  0  0  0  0  0  0  0  0  0  0  0
  182.7010  178.5020  141.8330 C   0  0  0  0  0  3  0  0  0  0  0  0
  187.6830  178.1610  144.5310 C   0  0  2  0  0  3  0  0  0  0  0  0
  184.5630  179.7830  143.6380 C   0  0  2  0  0  3  0  0  0  0  0  0
  183.2370  178.8160  145.2730 N   0  0  0  0  0  0  0  0  0  0  0  0
  182.3330  178.7310  143.0680 N   0  0  0  0  0  0  0  0  0  0  0  0
  185.0400  178.9810  142.4850 C   0  0  1  0  0  3  0  0  0  0  0  0
  188.8400  177.6200  147.8090 C   0  0  0  0  0  0  0  0  0  0  0  0
  189.4100  176.7330  145.7180 C   0  0  0  0  0  2  0  0  0  0  0  0
  191.2140  176.7570  147.5360 C   0  0  0  0  0  1  0  0  0  0  0  0
  187.6000  177.8040  147.0340 C   0  0  0  0  0  2  0  0  0  0  0  0
  187.9320  177.1700  145.6720 C   0  0  1  0  0  3  0  0  0  0  0  0
  188.9810  177.9840  149.0060 O   0  0  0  0  0  0  0  0  0  0  0  0
  189.8620  176.9990  147.0650 N   0  0  0  0  0  0  0  0  0  0  0  0
  190.2830  177.8470  141.8580 C   0  0  0  0  0  3  0  0  0  0  0  0
  189.3720  178.3600  142.6940 C   0  0  0  0  0  3  0  0  0  0  0  0
  190.2090  176.4520  141.3190 C   0  0  0  0  0  2  0  0  0  0  0  0
  189.8600  176.7110  138.8450 C   0  0  0  0  0  0  0  0  0  0  0  0
  188.5240  177.0420  139.0430 O   0  0  0  0  0  1  0  0  0  0  0  0
  190.7070  176.4180  139.9540 N   0  0  0  0  0  2  0  0  0  0  0  0
  190.3270  176.6740  137.6770 O   0  0  0  0  0  0  0  0  0  0  0  0
  2  1  1  1  0  0  0
  3  7  1  6  0  0  0
  3  5  1  0  0  0  0
  4  9  1  0  0  0  0
  4 14  1  0  0  0  0
  5 10  1  0  0  0  0
  5  2  1  0  0  0  0
  6 10  1  0  0  0  0
  7  6  1  0  0  0  0
  8 12  2  0  0  0  0
  9 13  2  0  0  0  0
 10 19  1  0  0  0  0
 11  8  1  0  0  0  0
 11  2  1  0  0  0  0
 12  1  1  0  0  0  0
 13  8  1  0  0  0  0
 14  3  1  0  0  0  0
 14 11  1  0  0  0  0
 15 20  2  0  0  0  0
 16 21  1  0  0  0  0
 18 15  1  0  0  0  0
 19 16  1  0  0  0  0
 19 18  1  0  0  0  0
 21 17  1  0  0  0  0
 21 15  1  0  0  0  0
 22 23  2  0  0  0  0
 23  6  1  0  0  0  0
 24 22  1  0  0  0  0
 25 26  1  0  0  0  0
 25 27  1  0  0  0  0
 27 24  1  0  0  0  0
 28 25  2  0  0  0  0
M  END
>  <MODEL>
7

>  <REMARK>
 VINA RESULT:      -8.4      2.895      6.399
  Name = 
  4 active torsions:
  status: ('A' for Active; 'I' for Inactive)
    1  A    between atoms: C_9  and  C_25
    2  A    between atoms: N_12  and  C_25
    3  A    between atoms: C_13  and  C_26
    4  A    between atoms: C_17  and  C_20
                            x       y       z     vdW  Elec       q    Type
                         _______ _______ _______ _____ _____    ______ ____

>  <TORSDO>
F 4

$$$$
=
 OpenBabel10222416573D

 28 32  0  0  1  0  0  0  0  0999 V2000
  186.3600  177.9130  143.4620 C   0  0  0  0  0  2  0  0  0  0  0  0
  187.3220  177.1550  144.3240 C   0  0  1  0  0  3  0  0  0  0  0  0
  188.8450  177.8210  145.8420 C   0  0  2  0  0  3  0  0  0  0  0  0
  187.4940  178.0940  147.9260 C   0  0  0  0  0  2  0  0  0  0  0  0
  188.5690  177.6040  144.4690 C   0  0  1  0  0  3  0  0  0  0  0  0
  190.8850  177.2420  144.9320 C   0  0  2  0  0  3  0  0  0  0  0  0
  190.1950  177.5950  146.1740 N   0  0  0  0  0  2  0  0  0  0  0  0
  185.7670  178.2680  145.6090 C   0  0  0  0  0  0  0  0  0  0  0  0
  186.2820  179.0100  147.8280 C   0  0  0  0  0  3  0  0  0  0  0  0
  189.8080  177.0800  143.8210 C   0  0  2  0  0  3  0  0  0  0  0  0
  186.6920  177.1170  145.6800 C   0  0  2  0  0  3  0  0  0  0  0  0
  185.5990  178.7190  144.4120 N   0  0  0  0  0  0  0  0  0  0  0  0
  185.5170  179.0770  146.7690 N   0  0  0  0  0  0  0  0  0  0  0  0
  187.8020  177.5030  146.5850 C   0  0  1  0  0  3  0  0  0  0  0  0
  190.5100  177.1240  140.3740 C   0  0  0  0  0  0  0  0  0  0  0  0
  191.6810  177.8190  142.2800 C   0  0  0  0  0  2  0  0  0  0  0  0
  193.0460  177.1500  140.2180 C   0  0  0  0  0  1  0  0  0  0  0  0
  189.4260  177.3830  141.3380 C   0  0  0  0  0  2  0  0  0  0  0  0
  190.1700  177.9020  142.5810 C   0  0  1  0  0  3  0  0  0  0  0  0
  190.3220  176.7050  139.2020 O   0  0  0  0  0  0  0  0  0  0  0  0
  191.7880  177.3860  140.9050 N   0  0  0  0  0  0  0  0  0  0  0  0
  192.0620  175.5350  146.3130 C   0  0  0  0  0  3  0  0  0  0  0  0
  191.6300  175.9560  145.1190 C   0  0  0  0  0  3  0  0  0  0  0  0
  191.8490  176.3030  147.5810 C   0  0  0  0  0  2  0  0  0  0  0  0
  193.3200  177.0930  149.4580 C   0  0  0  0  0  0  0  0  0  0  0  0
  192.5650  178.2530  149.5940 O   0  0  0  0  0  0  0  0  0  0  0  0
  192.9830  176.1190  148.4720 N   0  0  0  0  0  2  0  0  0  0  0  0
  194.3070  176.8990  150.2130 O   0  0  0  0  0  1  0  0  0  0  0  0
  1 12  1  0  0  0  0
  2  1  1  6  0  0  0
  2  5  1  0  0  0  0
  2 11  1  0  0  0  0
  3  7  1  1  0  0  0
  3 14  1  0  0  0  0
  5  3  1  0  0  0  0
  6 23  1  0  0  0  0
  6  7  1  0  0  0  0
  8 11  1  0  0  0  0
  8 13  1  0  0  0  0
  9  4  1  0  0  0  0
 10  5  1  0  0  0  0
 10  6  1  0  0  0  0
 11 14  1  0  0  0  0
 12  8  2  0  0  0  0
 13  9  2  0  0  0  0
 14  4  1  0  0  0  0
 15 21  1  0  0  0  0
 15 18  1  0  0  0  0
 16 19  1  0  0  0  0
 17 21  1  0  0  0  0
 18 19  1  0  0  0  0
 19 10  1  0  0  0  0
 20 15  2  0  0  0  0
 21 16  1  0  0  0  0
 22 24  1  0  0  0  0
 23 22  2  0  0  0  0
 24 27  1  0  0  0  0
 25 26  2  0  0  0  0
 25 28  1  0  0  0  0
 27 25  1  0  0  0  0
M  END
>  <MODEL>
8

>  <REMARK>
 VINA RESULT:      -8.3      2.703      6.103
  Name = 
  4 active torsions:
  status: ('A' for Active; 'I' for Inactive)
    1  A    between atoms: C_9  and  C_25
    2  A    between atoms: N_12  and  C_25
    3  A    between atoms: C_13  and  C_26
    4  A    between atoms: C_17  and  C_20
                            x       y       z     vdW  Elec       q    Type
                         _______ _______ _______ _____ _____    ______ ____

>  <TORSDO>
F 4

$$$$
=
 OpenBabel10222416573D

 28 32  0  0  1  0  0  0  0  0999 V2000
  191.4280  176.0490  138.5310 C   0  0  0  0  0  2  0  0  0  0  0  0
  190.1060  176.0020  139.2320 C   0  0  1  0  0  3  0  0  0  0  0  0
  188.7350  177.6190  139.9920 C   0  0  2  0  0  3  0  0  0  0  0  0
  187.4190  178.2530  137.9650 C   0  0  0  0  0  2  0  0  0  0  0  0
  189.8760  176.8220  140.2590 C   0  0  1  0  0  3  0  0  0  0  0  0
  188.7380  177.3720  142.2870 C   0  0  2  0  0  3  0  0  0  0  0  0
  188.0120  177.9500  141.1550 N   0  0  0  0  0  2  0  0  0  0  0  0
  189.9060  177.0040  137.1670 C   0  0  0  0  0  0  0  0  0  0  0  0
  188.2240  178.6550  136.7380 C   0  0  0  0  0  3  0  0  0  0  0  0
  189.8800  176.4840  141.7130 C   0  0  2  0  0  3  0  0  0  0  0  0
  189.0880  176.3010  138.1770 C   0  0  2  0  0  3  0  0  0  0  0  0
  191.1760  176.8910  137.3650 N   0  0  0  0  0  0  0  0  0  0  0  0
  189.3490  178.0800  136.3970 N   0  0  0  0  0  0  0  0  0  0  0  0
  188.2160  177.3140  138.8180 C   0  0  1  0  0  3  0  0  0  0  0  0
  191.6810  177.2150  144.6460 C   0  0  0  0  0  0  0  0  0  0  0  0
  191.3300  178.3520  142.6290 C   0  0  0  0  0  2  0  0  0  0  0  0
  191.8240  179.7510  144.7170 C   0  0  0  0  0  1  0  0  0  0  0  0
  191.3970  176.1170  143.7050 C   0  0  0  0  0  2  0  0  0  0  0  0
  191.2240  176.8380  142.3560 C   0  0  1  0  0  3  0  0  0  0  0  0
  191.9120  177.0470  145.8720 O   0  0  0  0  0  0  0  0  0  0  0  0
  191.6570  178.4820  144.0310 N   0  0  0  0  0  0  0  0  0  0  0  0
  187.5770  176.7750  144.4080 C   0  0  0  0  0  3  0  0  0  0  0  0
  187.8040  176.5410  143.1110 C   0  0  0  0  0  3  0  0  0  0  0  0
  188.2300  177.8880  145.1690 C   0  0  0  0  0  2  0  0  0  0  0  0
  187.6520  177.8750  147.6140 C   0  0  0  0  0  0  0  0  0  0  0  0
  186.5470  178.6860  147.3820 O   0  0  0  0  0  0  0  0  0  0  0  0
  188.4940  177.4700  146.5360 N   0  0  0  0  0  2  0  0  0  0  0  0
  187.9110  177.4920  148.7840 O   0  0  0  0  0  1  0  0  0  0  0  0
  2  1  1  6  0  0  0
  2  5  1  0  0  0  0
  3  5  1  0  0  0  0
  3  7  1  1  0  0  0
  4 14  1  0  0  0  0
  5 10  1  0  0  0  0
  6 23  1  0  0  0  0
  7  6  1  0  0  0  0
  8 12  2  0  0  0  0
  8 11  1  0  0  0  0
  9  4  1  0  0  0  0
 10  6  1  0  0  0  0
 10 19  1  0  0  0  0
 11 14  1  0  0  0  0
 11  2  1  0  0  0  0
 12  1  1  0  0  0  0
 13  9  2  0  0  0  0
 13  8  1  0  0  0  0
 14  3  1  0  0  0  0
 15 20  2  0  0  0  0
 16 21  1  0  0  0  0
 18 15  1  0  0  0  0
 19 16  1  0  0  0  0
 19 18  1  0  0  0  0
 21 15  1  0  0  0  0
 21 17  1  0  0  0  0
 22 24  1  0  0  0  0
 23 22  2  0  0  0  0
 24 27  1  0  0  0  0
 25 28  1  0  0  0  0
 26 25  2  0  0  0  0
 27 25  1  0  0  0  0
M  END
>  <MODEL>
9

>  <REMARK>
 VINA RESULT:      -7.8      2.126      4.363
  Name = 
  4 active torsions:
  status: ('A' for Active; 'I' for Inactive)
    1  A    between atoms: C_9  and  C_25
    2  A    between atoms: N_12  and  C_25
    3  A    between atoms: C_13  and  C_26
    4  A    between atoms: C_17  and  C_20
                            x       y       z     vdW  Elec       q    Type
                         _______ _______ _______ _____ _____    ______ ____

>  <TORSDO>
F 4

$$$$
