=
 OpenBabel10222418523D

 33 35  0  0  1  0  0  0  0  0999 V2000
  187.9390  178.8950  141.1000 C   0  0  1  0  0  3  0  0  0  0  0  0
  188.7290  178.3860  139.9350 C   0  0  0  0  0  0  0  0  0  0  0  0
  190.0640  176.2070  138.3080 C   0  0  0  0  0  3  0  0  0  0  0  0
  190.5990  176.8380  139.5300 C   0  0  0  0  0  3  0  0  0  0  0  0
  189.2910  176.8200  137.4050 C   0  0  0  0  0  0  0  0  0  0  0  0
  189.0350  178.2910  137.5140 C   0  0  0  0  0  2  0  0  0  0  0  0
  188.2980  178.6030  138.7250 N   0  0  0  0  0  0  0  0  0  0  0  0
  190.0050  177.7780  140.2060 N   0  0  0  0  0  0  0  0  0  0  0  0
  188.6130  174.6080  134.6390 C   0  0  0  0  0  3  0  0  0  0  0  0
  188.8050  176.0890  136.2660 N   0  0  0  0  0  0  0  0  0  0  0  0
  189.3920  175.0120  135.7100 C   0  0  0  0  0  3  0  0  0  0  0  0
  187.6970  176.3900  135.6110 N   0  0  0  0  0  0  0  0  0  0  0  0
  187.5530  175.5030  134.6090 C   0  0  0  0  0  3  0  0  0  0  0  0
  186.4800  178.5020  140.9350 C   0  0  0  0  0  2  0  0  0  0  0  0
  185.6280  179.4820  141.5880 N   0  0  0  0  0  2  0  0  0  0  0  0
  184.5340  178.7530  142.2030 C   0  0  0  0  0  2  0  0  0  0  0  0
  184.7870  178.5620  143.6950 C   0  0  0  0  0  2  0  0  0  0  0  0
  182.3450  178.8320  144.1380 C   0  0  0  0  0  1  0  0  0  0  0  0
  183.9480  178.9880  145.8800 O   0  0  0  0  0  1  0  0  0  0  0  0
  183.7400  179.2770  144.5340 C   0  0  1  0  0  3  0  0  0  0  0  0
  188.4570  178.3620  142.3560 N   0  0  0  0  0  2  0  0  0  0  0  0
  187.9910  176.9910  142.4930 C   0  0  0  0  0  2  0  0  0  0  0  0
  189.8910  175.8770  143.5140 O   0  0  0  0  0  0  0  0  0  0  0  0
  189.5960  177.1050  145.9440 C   0  0  0  0  0  2  0  0  0  0  0  0
  190.9740  177.1350  145.2670 C   0  0  2  0  0  3  0  0  0  0  0  0
  188.5840  176.3850  143.7530 C   0  0  1  0  0  3  0  0  0  0  0  0
  188.4710  177.3600  144.9450 C   0  0  0  0  0  2  0  0  0  0  0  0
  192.0540  176.5530  143.1900 F   0  0  0  0  0  0  0  0  0  0  0  0
  190.8390  176.8900  143.7560 C   0  0  1  0  0  3  0  0  0  0  0  0
  192.9110  175.2100  147.7110 O   0  0  0  0  0  0  0  0  0  0  0  0
  191.8260  176.1160  145.8660 N   0  0  0  0  0  2  0  0  0  0  0  0
  192.2170  176.1480  147.2390 C   0  0  0  0  0  0  0  0  0  0  0  0
  191.8420  177.2050  148.0570 O   0  0  0  0  0  1  0  0  0  0  0  0
  1 14  1  6  0  0  0
  1 21  1  0  0  0  0
  2  8  1  0  0  0  0
  2  1  1  0  0  0  0
  3  4  1  0  0  0  0
  4  8  2  0  0  0  0
  5  6  1  0  0  0  0
  5  3  2  0  0  0  0
  6  7  1  0  0  0  0
  7  2  2  0  0  0  0
  9 11  2  0  0  0  0
 10  5  1  0  0  0  0
 11 10  1  0  0  0  0
 12 10  1  0  0  0  0
 13  9  1  0  0  0  0
 13 12  2  0  0  0  0
 14 15  1  0  0  0  0
 15 16  1  0  0  0  0
 16 17  1  0  0  0  0
 17 20  1  0  0  0  0
 20 18  1  6  0  0  0
 20 19  1  0  0  0  0
 21 22  1  0  0  0  0
 23 26  1  0  0  0  0
 23 29  1  0  0  0  0
 25 31  1  1  0  0  0
 25 24  1  0  0  0  0
 26 22  1  6  0  0  0
 26 27  1  0  0  0  0
 27 24  1  0  0  0  0
 29 28  1  1  0  0  0
 29 25  1  0  0  0  0
 31 32  1  0  0  0  0
 32 30  2  0  0  0  0
 32 33  1  0  0  0  0
M  END
>  <MODEL>
1

>  <REMARK>
 VINA RESULT:      -7.9      0.000      0.000
  Name = 
  11 active torsions:
  status: ('A' for Active; 'I' for Inactive)
    1  A    between atoms: C_2  and  C_3
    2  A    between atoms: C_2  and  C_8
    3  A    between atoms: C_2  and  N_23
    4  A    between atoms: C_8  and  N_25
    5  A    between atoms: C_10  and  N_12
    6  A    between atoms: C_11  and  C_26
    7  A    between atoms: C_13  and  N_16
    8  A    between atoms: C_21  and  C_33
    9  A    between atoms: C_22  and  N_25
   10  A    between atoms: C_22  and  C_33
   11  A    between atoms: N_23  and  C_26
                            x       y       z     vdW  Elec       q    Type
                         _______ _______ _______ _____ _____    ______ ____

>  <TORSDO>
F 11

$$$$
=
 OpenBabel10222418523D

 33 35  0  0  1  0  0  0  0  0999 V2000
  185.9380  178.9890  141.6760 C   0  0  1  0  0  3  0  0  0  0  0  0
  184.7570  178.8620  140.7640 C   0  0  0  0  0  0  0  0  0  0  0  0
  181.7960  178.9590  140.1330 C   0  0  0  0  0  3  0  0  0  0  0  0
  182.5100  177.8590  140.8110 C   0  0  0  0  0  3  0  0  0  0  0  0
  182.3240  179.7530  139.1970 C   0  0  0  0  0  0  0  0  0  0  0  0
  183.6880  179.4640  138.6520 C   0  0  0  0  0  2  0  0  0  0  0  0
  184.7000  179.5920  139.6860 N   0  0  0  0  0  0  0  0  0  0  0  0
  183.7870  177.8420  141.0630 N   0  0  0  0  0  0  0  0  0  0  0  0
  179.8490  181.9670  137.7920 C   0  0  0  0  0  3  0  0  0  0  0  0
  181.5350  180.8130  138.6300 N   0  0  0  0  0  0  0  0  0  0  0  0
  180.2300  180.7400  138.3080 C   0  0  0  0  0  3  0  0  0  0  0  0
  182.0040  182.0170  138.3500 N   0  0  0  0  0  0  0  0  0  0  0  0
  180.9960  182.7460  137.8350 C   0  0  0  0  0  3  0  0  0  0  0  0
  185.5550  178.5230  143.0710 C   0  0  0  0  0  2  0  0  0  0  0  0
  184.8520  179.5860  143.7700 N   0  0  0  0  0  2  0  0  0  0  0  0
  184.4500  179.0550  145.0600 C   0  0  0  0  0  2  0  0  0  0  0  0
  185.5090  178.1000  145.6010 C   0  0  0  0  0  2  0  0  0  0  0  0
  187.3030  178.0630  147.3360 C   0  0  0  0  0  1  0  0  0  0  0  0
  185.6590  179.7730  147.2870 O   0  0  0  0  0  1  0  0  0  0  0  0
  185.8570  178.4150  147.0470 C   0  0  1  0  0  3  0  0  0  0  0  0
  187.0650  178.2050  141.1830 N   0  0  0  0  0  2  0  0  0  0  0  0
  188.2850  178.9530  141.4430 C   0  0  0  0  0  2  0  0  0  0  0  0
  190.1130  178.5610  142.9910 O   0  0  0  0  0  0  0  0  0  0  0  0
  189.6090  175.8830  143.2640 C   0  0  0  0  0  2  0  0  0  0  0  0
  189.7540  176.7370  144.5320 C   0  0  2  0  0  3  0  0  0  0  0  0
  189.3650  177.9990  141.9200 C   0  0  1  0  0  3  0  0  0  0  0  0
  188.7850  176.5950  142.1950 C   0  0  0  0  0  2  0  0  0  0  0  0
  189.9770  179.0360  145.2270 F   0  0  0  0  0  0  0  0  0  0  0  0
  189.5050  178.2200  144.2150 C   0  0  1  0  0  3  0  0  0  0  0  0
  192.5120  176.2190  146.8890 O   0  0  0  0  0  0  0  0  0  0  0  0
  191.0930  176.5590  145.0810 N   0  0  0  0  0  2  0  0  0  0  0  0
  191.3400  176.4230  146.4810 C   0  0  0  0  0  0  0  0  0  0  0  0
  190.2990  176.5180  147.3950 O   0  0  0  0  0  1  0  0  0  0  0  0
  1 14  1  1  0  0  0
  2  8  1  0  0  0  0
  2  1  1  0  0  0  0
  3  4  1  0  0  0  0
  4  8  2  0  0  0  0
  5  3  2  0  0  0  0
  6  5  1  0  0  0  0
  6  7  1  0  0  0  0
  7  2  2  0  0  0  0
  9 13  1  0  0  0  0
  9 11  2  0  0  0  0
 10  5  1  0  0  0  0
 11 10  1  0  0  0  0
 12 10  1  0  0  0  0
 13 12  2  0  0  0  0
 14 15  1  0  0  0  0
 15 16  1  0  0  0  0
 16 17  1  0  0  0  0
 17 20  1  0  0  0  0
 20 19  1  0  0  0  0
 20 18  1  6  0  0  0
 21 22  1  0  0  0  0
 21  1  1  0  0  0  0
 23 29  1  0  0  0  0
 24 25  1  0  0  0  0
 25 31  1  6  0  0  0
 26 22  1  1  0  0  0
 26 27  1  0  0  0  0
 26 23  1  0  0  0  0
 27 24  1  0  0  0  0
 29 25  1  0  0  0  0
 29 28  1  1  0  0  0
 31 32  1  0  0  0  0
 32 30  2  0  0  0  0
 32 33  1  0  0  0  0
M  END
>  <MODEL>
2

>  <REMARK>
 VINA RESULT:      -7.8      3.333      5.451
  Name = 
  11 active torsions:
  status: ('A' for Active; 'I' for Inactive)
    1  A    between atoms: C_2  and  C_3
    2  A    between atoms: C_2  and  C_8
    3  A    between atoms: C_2  and  N_23
    4  A    between atoms: C_8  and  N_25
    5  A    between atoms: C_10  and  N_12
    6  A    between atoms: C_11  and  C_26
    7  A    between atoms: C_13  and  N_16
    8  A    between atoms: C_21  and  C_33
    9  A    between atoms: C_22  and  N_25
   10  A    between atoms: C_22  and  C_33
   11  A    between atoms: N_23  and  C_26
                            x       y       z     vdW  Elec       q    Type
                         _______ _______ _______ _____ _____    ______ ____

>  <TORSDO>
F 11

$$$$
=
 OpenBabel10222418523D

 33 35  0  0  1  0  0  0  0  0999 V2000
  188.3370  178.5060  140.5090 C   0  0  1  0  0  3  0  0  0  0  0  0
  187.9320  178.4960  139.0680 C   0  0  0  0  0  0  0  0  0  0  0  0
  188.2210  177.6410  136.1760 C   0  0  0  0  0  3  0  0  0  0  0  0
  189.0110  178.6810  136.8640 C   0  0  0  0  0  3  0  0  0  0  0  0
  186.9460  177.3450  136.4470 C   0  0  0  0  0  0  0  0  0  0  0  0
  186.1680  178.1890  137.4070 C   0  0  0  0  0  2  0  0  0  0  0  0
  186.7300  178.1110  138.7440 N   0  0  0  0  0  0  0  0  0  0  0  0
  188.8610  179.0320  138.1080 N   0  0  0  0  0  0  0  0  0  0  0  0
  185.9120  174.4290  134.5950 C   0  0  0  0  0  3  0  0  0  0  0  0
  186.2900  176.2870  135.7270 N   0  0  0  0  0  0  0  0  0  0  0  0
  186.8870  175.1970  135.2080 C   0  0  0  0  0  3  0  0  0  0  0  0
  184.9920  176.2530  135.4790 N   0  0  0  0  0  0  0  0  0  0  0  0
  184.7300  175.1290  134.7870 C   0  0  0  0  0  3  0  0  0  0  0  0
  187.1030  178.6570  141.3830 C   0  0  0  0  0  2  0  0  0  0  0  0
  187.2810  177.9160  142.6210 N   0  0  0  0  0  2  0  0  0  0  0  0
  186.0080  177.9370  143.3170 C   0  0  0  0  0  2  0  0  0  0  0  0
  186.2180  178.1470  144.8130 C   0  0  0  0  0  2  0  0  0  0  0  0
  183.8800  178.9850  144.5560 C   0  0  0  0  0  1  0  0  0  0  0  0
  184.8280  178.5870  146.6940 O   0  0  0  0  0  1  0  0  0  0  0  0
  185.1330  179.0300  145.4090 C   0  0  1  0  0  3  0  0  0  0  0  0
  189.0470  177.2810  140.8610 N   0  0  0  0  0  2  0  0  0  0  0  0
  190.4750  177.5530  140.8060 C   0  0  0  0  0  2  0  0  0  0  0  0
  191.6090  177.9860  142.9080 O   0  0  0  0  0  0  0  0  0  0  0  0
  190.5400  175.8160  144.1930 C   0  0  0  0  0  2  0  0  0  0  0  0
  190.4380  177.1930  144.8650 C   0  0  2  0  0  3  0  0  0  0  0  0
  191.1450  176.9630  142.0340 C   0  0  1  0  0  3  0  0  0  0  0  0
  190.2490  175.8960  142.6970 C   0  0  0  0  0  2  0  0  0  0  0  0
  190.8670  179.5270  144.4310 F   0  0  0  0  0  0  0  0  0  0  0  0
  190.5920  178.3140  143.8260 C   0  0  1  0  0  3  0  0  0  0  0  0
  192.2300  176.9580  148.0530 O   0  0  0  0  0  1  0  0  0  0  0  0
  191.4740  177.3080  145.8840 N   0  0  0  0  0  2  0  0  0  0  0  0
  191.2790  176.8810  147.2330 C   0  0  0  0  0  0  0  0  0  0  0  0
  190.0500  176.3850  147.6480 O   0  0  0  0  0  0  0  0  0  0  0  0
  1 21  1  0  0  0  0
  1 14  1  1  0  0  0
  2  1  1  0  0  0  0
  3  5  2  0  0  0  0
  3  4  1  0  0  0  0
  4  8  2  0  0  0  0
  5  6  1  0  0  0  0
  6  7  1  0  0  0  0
  7  2  2  0  0  0  0
  8  2  1  0  0  0  0
  9 13  1  0  0  0  0
  9 11  2  0  0  0  0
 10  5  1  0  0  0  0
 11 10  1  0  0  0  0
 12 10  1  0  0  0  0
 13 12  2  0  0  0  0
 14 15  1  0  0  0  0
 15 16  1  0  0  0  0
 16 17  1  0  0  0  0
 17 20  1  0  0  0  0
 20 18  1  6  0  0  0
 20 19  1  0  0  0  0
 22 21  1  0  0  0  0
 23 29  1  0  0  0  0
 24 25  1  0  0  0  0
 25 31  1  1  0  0  0
 26 22  1  6  0  0  0
 26 27  1  0  0  0  0
 26 23  1  0  0  0  0
 27 24  1  0  0  0  0
 29 28  1  1  0  0  0
 29 25  1  0  0  0  0
 31 32  1  0  0  0  0
 32 33  2  0  0  0  0
 32 30  1  0  0  0  0
M  END
>  <MODEL>
3

>  <REMARK>
 VINA RESULT:      -7.7      1.734      2.329
  Name = 
  11 active torsions:
  status: ('A' for Active; 'I' for Inactive)
    1  A    between atoms: C_2  and  C_3
    2  A    between atoms: C_2  and  C_8
    3  A    between atoms: C_2  and  N_23
    4  A    between atoms: C_8  and  N_25
    5  A    between atoms: C_10  and  N_12
    6  A    between atoms: C_11  and  C_26
    7  A    between atoms: C_13  and  N_16
    8  A    between atoms: C_21  and  C_33
    9  A    between atoms: C_22  and  N_25
   10  A    between atoms: C_22  and  C_33
   11  A    between atoms: N_23  and  C_26
                            x       y       z     vdW  Elec       q    Type
                         _______ _______ _______ _____ _____    ______ ____

>  <TORSDO>
F 11

$$$$
=
 OpenBabel10222418523D

 33 35  0  0  1  0  0  0  0  0999 V2000
  187.9580  177.9950  140.5530 C   0  0  1  0  0  3  0  0  0  0  0  0
  189.0070  177.3540  141.4080 C   0  0  0  0  0  0  0  0  0  0  0  0
  191.4650  177.4030  143.1780 C   0  0  0  0  0  3  0  0  0  0  0  0
  191.4470  177.4710  141.7040 C   0  0  0  0  0  3  0  0  0  0  0  0
  190.5750  176.7420  143.9240 C   0  0  0  0  0  0  0  0  0  0  0  0
  189.5490  175.8700  143.2710 C   0  0  0  0  0  2  0  0  0  0  0  0
  188.6470  176.6560  142.4470 N   0  0  0  0  0  0  0  0  0  0  0  0
  190.3740  177.4420  140.9670 N   0  0  0  0  0  0  0  0  0  0  0  0
  191.4560  176.5960  147.4180 C   0  0  0  0  0  3  0  0  0  0  0  0
  190.6810  176.7750  145.3590 N   0  0  0  0  0  0  0  0  0  0  0  0
  191.7610  176.4200  146.0790 C   0  0  0  0  0  3  0  0  0  0  0  0
  189.7080  177.1680  146.1630 N   0  0  0  0  0  0  0  0  0  0  0  0
  190.1510  177.0680  147.4300 C   0  0  0  0  0  3  0  0  0  0  0  0
  187.1260  178.9470  141.3970 C   0  0  0  0  0  2  0  0  0  0  0  0
  185.7320  178.8740  140.9920 N   0  0  0  0  0  2  0  0  0  0  0  0
  185.0120  178.2060  142.0620 C   0  0  0  0  0  2  0  0  0  0  0  0
  184.8010  179.1530  143.2390 C   0  0  0  0  0  2  0  0  0  0  0  0
  186.1970  178.0380  144.9820 C   0  0  0  0  0  1  0  0  0  0  0  0
  184.2090  179.2050  145.5430 O   0  0  0  0  0  1  0  0  0  0  0  0
  184.7870  178.4030  144.5620 C   0  0  1  0  0  3  0  0  0  0  0  0
  188.5610  178.7190  139.4390 N   0  0  0  0  0  2  0  0  0  0  0  0
  188.0680  178.1380  138.2000 C   0  0  0  0  0  2  0  0  0  0  0  0
  190.3580  177.4410  137.8000 O   0  0  0  0  0  0  0  0  0  0  0  0
  189.9110  176.6690  135.2100 C   0  0  0  0  0  2  0  0  0  0  0  0
  190.6050  175.6840  136.1620 C   0  0  2  0  0  3  0  0  0  0  0  0
  189.2100  178.0360  137.2060 C   0  0  1  0  0  3  0  0  0  0  0  0
  188.7440  177.3820  135.8880 C   0  0  0  0  0  2  0  0  0  0  0  0
  191.1860  175.4200  138.4880 F   0  0  0  0  0  0  0  0  0  0  0  0
  190.3040  176.0440  137.6250 C   0  0  1  0  0  3  0  0  0  0  0  0
  194.0740  174.6240  135.6440 O   0  0  0  0  0  0  0  0  0  0  0  0
  192.0420  175.7160  135.9230 N   0  0  0  0  0  2  0  0  0  0  0  0
  192.8480  174.5360  135.9100 C   0  0  0  0  0  0  0  0  0  0  0  0
  192.2900  173.2960  136.1900 O   0  0  0  0  0  1  0  0  0  0  0  0
  1 14  1  1  0  0  0
  1  2  1  0  0  0  0
  2  7  2  0  0  0  0
  3  5  2  0  0  0  0
  4  3  1  0  0  0  0
  5 10  1  0  0  0  0
  6  5  1  0  0  0  0
  7  6  1  0  0  0  0
  8  2  1  0  0  0  0
  8  4  2  0  0  0  0
  9 13  1  0  0  0  0
 10 11  1  0  0  0  0
 10 12  1  0  0  0  0
 11  9  2  0  0  0  0
 12 13  2  0  0  0  0
 15 14  1  0  0  0  0
 15 16  1  0  0  0  0
 16 17  1  0  0  0  0
 17 20  1  0  0  0  0
 20 18  1  1  0  0  0
 20 19  1  0  0  0  0
 21  1  1  0  0  0  0
 22 21  1  0  0  0  0
 24 27  1  0  0  0  0
 24 25  1  0  0  0  0
 25 31  1  1  0  0  0
 25 29  1  0  0  0  0
 26 23  1  0  0  0  0
 26 22  1  1  0  0  0
 27 26  1  0  0  0  0
 29 23  1  0  0  0  0
 29 28  1  1  0  0  0
 30 32  2  0  0  0  0
 32 31  1  0  0  0  0
 32 33  1  0  0  0  0
M  END
>  <MODEL>
4

>  <REMARK>
 VINA RESULT:      -7.7      3.066      7.419
  Name = 
  11 active torsions:
  status: ('A' for Active; 'I' for Inactive)
    1  A    between atoms: C_2  and  C_3
    2  A    between atoms: C_2  and  C_8
    3  A    between atoms: C_2  and  N_23
    4  A    between atoms: C_8  and  N_25
    5  A    between atoms: C_10  and  N_12
    6  A    between atoms: C_11  and  C_26
    7  A    between atoms: C_13  and  N_16
    8  A    between atoms: C_21  and  C_33
    9  A    between atoms: C_22  and  N_25
   10  A    between atoms: C_22  and  C_33
   11  A    between atoms: N_23  and  C_26
                            x       y       z     vdW  Elec       q    Type
                         _______ _______ _______ _____ _____    ______ ____

>  <TORSDO>
F 11

$$$$
=
 OpenBabel10222418523D

 33 35  0  0  1  0  0  0  0  0999 V2000
  188.5890  178.3070  140.1560 C   0  0  1  0  0  3  0  0  0  0  0  0
  187.7870  177.9630  138.9390 C   0  0  0  0  0  0  0  0  0  0  0  0
  186.5080  176.0250  136.9940 C   0  0  0  0  0  3  0  0  0  0  0  0
  187.9310  176.4150  137.0320 C   0  0  0  0  0  3  0  0  0  0  0  0
  185.4880  176.8180  137.3360 C   0  0  0  0  0  0  0  0  0  0  0  0
  185.7330  178.2600  137.6520 C   0  0  0  0  0  2  0  0  0  0  0  0
  186.5640  178.4000  138.8340 N   0  0  0  0  0  0  0  0  0  0  0  0
  188.4520  177.2560  137.8770 N   0  0  0  0  0  0  0  0  0  0  0  0
  181.9820  176.1100  136.8740 C   0  0  0  0  0  3  0  0  0  0  0  0
  184.1420  176.3120  137.2860 N   0  0  0  0  0  0  0  0  0  0  0  0
  183.0920  176.9190  136.7000 C   0  0  0  0  0  3  0  0  0  0  0  0
  183.7620  175.1640  137.8200 N   0  0  0  0  0  0  0  0  0  0  0  0
  182.4450  175.0120  137.5850 C   0  0  0  0  0  3  0  0  0  0  0  0
  187.6520  178.6780  141.2940 C   0  0  0  0  0  2  0  0  0  0  0  0
  187.6050  177.5980  142.2660 N   0  0  0  0  0  2  0  0  0  0  0  0
  186.5860  177.9450  143.2390 C   0  0  0  0  0  2  0  0  0  0  0  0
  186.8240  177.2070  144.5520 C   0  0  0  0  0  2  0  0  0  0  0  0
  185.2810  178.6260  145.9070 C   0  0  0  0  0  1  0  0  0  0  0  0
  187.0970  177.4690  146.9010 O   0  0  0  0  0  1  0  0  0  0  0  0
  186.7090  178.1420  145.7460 C   0  0  1  0  0  3  0  0  0  0  0  0
  189.4370  177.1890  140.5560 N   0  0  0  0  0  2  0  0  0  0  0  0
  190.8010  177.6790  140.6860 C   0  0  0  0  0  2  0  0  0  0  0  0
  191.8110  178.0960  142.8530 O   0  0  0  0  0  0  0  0  0  0  0  0
  190.7640  175.8540  144.0270 C   0  0  0  0  0  2  0  0  0  0  0  0
  190.5760  177.2080  144.7280 C   0  0  2  0  0  3  0  0  0  0  0  0
  191.4300  177.0810  141.9310 C   0  0  1  0  0  3  0  0  0  0  0  0
  190.5450  175.9640  142.5210 C   0  0  0  0  0  2  0  0  0  0  0  0
  190.9360  179.5670  144.3740 F   0  0  0  0  0  0  0  0  0  0  0  0
  190.7380  178.3620  143.7260 C   0  0  1  0  0  3  0  0  0  0  0  0
  192.2170  176.9500  147.9950 O   0  0  0  0  0  1  0  0  0  0  0  0
  191.5550  177.3340  145.8000 N   0  0  0  0  0  2  0  0  0  0  0  0
  191.3110  176.8600  147.1260 C   0  0  0  0  0  0  0  0  0  0  0  0
  190.0840  176.3040  147.4640 O   0  0  0  0  0  0  0  0  0  0  0  0
  1 21  1  0  0  0  0
  1 14  1  1  0  0  0
  2  1  1  0  0  0  0
  3  4  1  0  0  0  0
  3  5  2  0  0  0  0
  4  8  2  0  0  0  0
  5  6  1  0  0  0  0
  6  7  1  0  0  0  0
  7  2  2  0  0  0  0
  8  2  1  0  0  0  0
  9 13  1  0  0  0  0
 10  5  1  0  0  0  0
 10 12  1  0  0  0  0
 11  9  2  0  0  0  0
 11 10  1  0  0  0  0
 13 12  2  0  0  0  0
 14 15  1  0  0  0  0
 15 16  1  0  0  0  0
 16 17  1  0  0  0  0
 17 20  1  0  0  0  0
 20 18  1  1  0  0  0
 20 19  1  0  0  0  0
 21 22  1  0  0  0  0
 23 29  1  0  0  0  0
 24 25  1  0  0  0  0
 25 31  1  1  0  0  0
 26 22  1  6  0  0  0
 26 27  1  0  0  0  0
 26 23  1  0  0  0  0
 27 24  1  0  0  0  0
 29 28  1  1  0  0  0
 29 25  1  0  0  0  0
 31 32  1  0  0  0  0
 32 33  2  0  0  0  0
 32 30  1  0  0  0  0
M  END
>  <MODEL>
5

>  <REMARK>
 VINA RESULT:      -7.6      2.740      3.413
  Name = 
  11 active torsions:
  status: ('A' for Active; 'I' for Inactive)
    1  A    between atoms: C_2  and  C_3
    2  A    between atoms: C_2  and  C_8
    3  A    between atoms: C_2  and  N_23
    4  A    between atoms: C_8  and  N_25
    5  A    between atoms: C_10  and  N_12
    6  A    between atoms: C_11  and  C_26
    7  A    between atoms: C_13  and  N_16
    8  A    between atoms: C_21  and  C_33
    9  A    between atoms: C_22  and  N_25
   10  A    between atoms: C_22  and  C_33
   11  A    between atoms: N_23  and  C_26
                            x       y       z     vdW  Elec       q    Type
                         _______ _______ _______ _____ _____    ______ ____

>  <TORSDO>
F 11

$$$$
=
 OpenBabel10222418523D

 33 35  0  0  1  0  0  0  0  0999 V2000
  187.9970  178.2800  141.7200 C   0  0  1  0  0  3  0  0  0  0  0  0
  188.6580  178.0780  140.3920 C   0  0  0  0  0  0  0  0  0  0  0  0
  189.9270  176.3830  138.2250 C   0  0  0  0  0  3  0  0  0  0  0  0
  190.5730  176.8350  139.4730 C   0  0  0  0  0  3  0  0  0  0  0  0
  188.9900  177.0650  137.5580 C   0  0  0  0  0  0  0  0  0  0  0  0
  188.6340  178.4570  137.9800 C   0  0  0  0  0  2  0  0  0  0  0  0
  188.0480  178.4640  139.3080 N   0  0  0  0  0  0  0  0  0  0  0  0
  190.0040  177.5690  140.3860 N   0  0  0  0  0  0  0  0  0  0  0  0
  187.9640  175.1580  134.6760 C   0  0  0  0  0  3  0  0  0  0  0  0
  188.4130  176.5050  136.3660 N   0  0  0  0  0  0  0  0  0  0  0  0
  188.7470  175.3280  135.8040 C   0  0  0  0  0  3  0  0  0  0  0  0
  187.4610  177.0910  135.6590 N   0  0  0  0  0  0  0  0  0  0  0  0
  187.1660  176.2910  134.6180 C   0  0  0  0  0  3  0  0  0  0  0  0
  186.4900  178.1650  141.5610 C   0  0  0  0  0  2  0  0  0  0  0  0
  185.8680  179.4550  141.8130 N   0  0  0  0  0  2  0  0  0  0  0  0
  184.7800  179.2270  142.7470 C   0  0  0  0  0  2  0  0  0  0  0  0
  185.1420  179.7570  144.1300 C   0  0  0  0  0  2  0  0  0  0  0  0
  185.6610  178.8860  146.4120 C   0  0  0  0  0  1  0  0  0  0  0  0
  183.4270  179.0920  145.6410 O   0  0  0  0  0  1  0  0  0  0  0  0
  184.7220  178.7890  145.2250 C   0  0  1  0  0  3  0  0  0  0  0  0
  188.4700  177.3020  142.6940 N   0  0  0  0  0  2  0  0  0  0  0  0
  188.1570  177.7990  144.0250 C   0  0  0  0  0  2  0  0  0  0  0  0
  189.2210  178.1580  146.1770 O   0  0  0  0  0  0  0  0  0  0  0  0
  191.5370  176.8590  145.5040 C   0  0  0  0  0  2  0  0  0  0  0  0
  190.8210  176.4620  146.8040 C   0  0  2  0  0  3  0  0  0  0  0  0
  189.4500  178.0650  144.7760 C   0  0  1  0  0  3  0  0  0  0  0  0
  190.5500  177.0670  144.3590 C   0  0  0  0  0  2  0  0  0  0  0  0
  188.7770  176.8710  148.0180 F   0  0  0  0  0  0  0  0  0  0  0  0
  189.3430  176.8800  146.7560 C   0  0  1  0  0  3  0  0  0  0  0  0
  193.2520  177.2230  149.4400 O   0  0  0  0  0  1  0  0  0  0  0  0
  191.4860  177.1000  147.9330 N   0  0  0  0  0  2  0  0  0  0  0  0
  192.6970  176.5970  148.5000 C   0  0  0  0  0  0  0  0  0  0  0  0
  193.2650  175.4220  148.0250 O   0  0  0  0  0  0  0  0  0  0  0  0
  1 14  1  6  0  0  0
  1 21  1  0  0  0  0
  2  1  1  0  0  0  0
  3  4  1  0  0  0  0
  4  8  2  0  0  0  0
  5  6  1  0  0  0  0
  5  3  2  0  0  0  0
  6  7  1  0  0  0  0
  7  2  2  0  0  0  0
  8  2  1  0  0  0  0
  9 11  2  0  0  0  0
 10  5  1  0  0  0  0
 11 10  1  0  0  0  0
 12 10  1  0  0  0  0
 13  9  1  0  0  0  0
 13 12  2  0  0  0  0
 14 15  1  0  0  0  0
 15 16  1  0  0  0  0
 16 17  1  0  0  0  0
 17 20  1  0  0  0  0
 20 19  1  0  0  0  0
 20 18  1  1  0  0  0
 21 22  1  0  0  0  0
 23 29  1  0  0  0  0
 24 25  1  0  0  0  0
 25 31  1  1  0  0  0
 26 22  1  6  0  0  0
 26 23  1  0  0  0  0
 27 26  1  0  0  0  0
 27 24  1  0  0  0  0
 29 25  1  0  0  0  0
 29 28  1  1  0  0  0
 31 32  1  0  0  0  0
 32 30  1  0  0  0  0
 33 32  2  0  0  0  0
M  END
>  <MODEL>
6

>  <REMARK>
 VINA RESULT:      -7.6      1.587      1.943
  Name = 
  11 active torsions:
  status: ('A' for Active; 'I' for Inactive)
    1  A    between atoms: C_2  and  C_3
    2  A    between atoms: C_2  and  C_8
    3  A    between atoms: C_2  and  N_23
    4  A    between atoms: C_8  and  N_25
    5  A    between atoms: C_10  and  N_12
    6  A    between atoms: C_11  and  C_26
    7  A    between atoms: C_13  and  N_16
    8  A    between atoms: C_21  and  C_33
    9  A    between atoms: C_22  and  N_25
   10  A    between atoms: C_22  and  C_33
   11  A    between atoms: N_23  and  C_26
                            x       y       z     vdW  Elec       q    Type
                         _______ _______ _______ _____ _____    ______ ____

>  <TORSDO>
F 11

$$$$
=
 OpenBabel10222418523D

 33 35  0  0  1  0  0  0  0  0999 V2000
  189.9100  176.9890  140.4490 C   0  0  1  0  0  3  0  0  0  0  0  0
  190.2120  177.0680  141.9140 C   0  0  0  0  0  0  0  0  0  0  0  0
  190.5050  178.5390  144.5460 C   0  0  0  0  0  3  0  0  0  0  0  0
  191.4850  178.5160  143.4430 C   0  0  0  0  0  3  0  0  0  0  0  0
  189.6800  177.5340  144.8580 C   0  0  0  0  0  0  0  0  0  0  0  0
  189.8140  176.2130  144.1670 C   0  0  0  0  0  2  0  0  0  0  0  0
  189.5290  176.3360  142.7480 N   0  0  0  0  0  0  0  0  0  0  0  0
  191.3350  177.8690  142.3230 N   0  0  0  0  0  0  0  0  0  0  0  0
  187.8550  177.7630  147.9590 C   0  0  0  0  0  3  0  0  0  0  0  0
  188.7450  177.6860  145.9400 N   0  0  0  0  0  0  0  0  0  0  0  0
  189.0200  177.5310  147.2490 C   0  0  0  0  0  3  0  0  0  0  0  0
  187.4720  178.0060  145.7790 N   0  0  0  0  0  0  0  0  0  0  0  0
  186.9010  178.0590  146.9960 C   0  0  0  0  0  3  0  0  0  0  0  0
  188.8370  178.0060  140.0960 C   0  0  0  0  0  2  0  0  0  0  0  0
  188.3730  178.6720  141.3010 N   0  0  0  0  0  2  0  0  0  0  0  0
  186.9220  178.6660  141.2600 C   0  0  0  0  0  2  0  0  0  0  0  0
  186.3510  178.1280  142.5680 C   0  0  0  0  0  2  0  0  0  0  0  0
  184.3580  178.7900  143.9180 C   0  0  0  0  0  1  0  0  0  0  0  0
  184.4020  179.0500  141.5600 O   0  0  0  0  0  1  0  0  0  0  0  0
  184.8330  178.2220  142.5940 C   0  0  1  0  0  3  0  0  0  0  0  0
  191.1080  177.2360  139.6550 N   0  0  0  0  0  2  0  0  0  0  0  0
  191.1840  176.2160  138.6200 C   0  0  0  0  0  2  0  0  0  0  0  0
  193.5660  176.5160  138.2610 O   0  0  0  0  0  0  0  0  0  0  0  0
  193.5250  175.5900  135.6830 C   0  0  0  0  0  2  0  0  0  0  0  0
  194.5440  174.9910  136.6650 C   0  0  2  0  0  3  0  0  0  0  0  0
  192.2870  176.5780  137.6410 C   0  0  1  0  0  3  0  0  0  0  0  0
  192.1560  175.7710  136.3320 C   0  0  0  0  0  2  0  0  0  0  0  0
  195.1360  175.0240  139.0030 F   0  0  0  0  0  0  0  0  0  0  0  0
  194.0930  175.2180  138.1160 C   0  0  1  0  0  3  0  0  0  0  0  0
  198.1380  175.4320  136.1010 O   0  0  0  0  0  0  0  0  0  0  0  0
  195.8460  175.6070  136.4420 N   0  0  0  0  0  2  0  0  0  0  0  0
  197.0520  174.8470  136.3470 C   0  0  0  0  0  0  0  0  0  0  0  0
  197.0360  173.4700  136.5280 O   0  0  0  0  0  1  0  0  0  0  0  0
  1 14  1  6  0  0  0
  1  2  1  0  0  0  0
  2  8  1  0  0  0  0
  2  7  2  0  0  0  0
  3  5  2  0  0  0  0
  4  3  1  0  0  0  0
  5 10  1  0  0  0  0
  6  5  1  0  0  0  0
  7  6  1  0  0  0  0
  8  4  2  0  0  0  0
 10 11  1  0  0  0  0
 11  9  2  0  0  0  0
 12 10  1  0  0  0  0
 12 13  2  0  0  0  0
 13  9  1  0  0  0  0
 14 15  1  0  0  0  0
 16 15  1  0  0  0  0
 16 17  1  0  0  0  0
 17 20  1  0  0  0  0
 19 20  1  0  0  0  0
 20 18  1  1  0  0  0
 21  1  1  0  0  0  0
 22 21  1  0  0  0  0
 24 27  1  0  0  0  0
 24 25  1  0  0  0  0
 25 31  1  1  0  0  0
 25 29  1  0  0  0  0
 26 23  1  0  0  0  0
 26 22  1  1  0  0  0
 27 26  1  0  0  0  0
 29 23  1  0  0  0  0
 29 28  1  1  0  0  0
 30 32  2  0  0  0  0
 32 31  1  0  0  0  0
 32 33  1  0  0  0  0
M  END
>  <MODEL>
7

>  <REMARK>
 VINA RESULT:      -7.6      4.161      7.894
  Name = 
  11 active torsions:
  status: ('A' for Active; 'I' for Inactive)
    1  A    between atoms: C_2  and  C_3
    2  A    between atoms: C_2  and  C_8
    3  A    between atoms: C_2  and  N_23
    4  A    between atoms: C_8  and  N_25
    5  A    between atoms: C_10  and  N_12
    6  A    between atoms: C_11  and  C_26
    7  A    between atoms: C_13  and  N_16
    8  A    between atoms: C_21  and  C_33
    9  A    between atoms: C_22  and  N_25
   10  A    between atoms: C_22  and  C_33
   11  A    between atoms: N_23  and  C_26
                            x       y       z     vdW  Elec       q    Type
                         _______ _______ _______ _____ _____    ______ ____

>  <TORSDO>
F 11

$$$$
=
 OpenBabel10222418523D

 33 35  0  0  1  0  0  0  0  0999 V2000
  186.6830  178.4930  142.2970 C   0  0  1  0  0  3  0  0  0  0  0  0
  187.9100  178.3260  141.4540 C   0  0  0  0  0  0  0  0  0  0  0  0
  190.3590  176.8200  140.5000 C   0  0  0  0  0  3  0  0  0  0  0  0
  190.2430  177.6020  141.7460 C   0  0  0  0  0  3  0  0  0  0  0  0
  189.7190  177.0980  139.3600 C   0  0  0  0  0  0  0  0  0  0  0  0
  188.9270  178.3620  139.2340 C   0  0  0  0  0  2  0  0  0  0  0  0
  187.8050  178.3680  140.1560 N   0  0  0  0  0  0  0  0  0  0  0  0
  189.1780  178.2450  142.1290 N   0  0  0  0  0  0  0  0  0  0  0  0
  189.6800  175.3320  136.2160 C   0  0  0  0  0  3  0  0  0  0  0  0
  189.8900  176.2410  138.2170 N   0  0  0  0  0  0  0  0  0  0  0  0
  189.2280  176.3420  137.0490 C   0  0  0  0  0  3  0  0  0  0  0  0
  190.7360  175.2260  138.1730 N   0  0  0  0  0  0  0  0  0  0  0  0
  190.6300  174.6500  136.9620 C   0  0  0  0  0  3  0  0  0  0  0  0
  185.4470  178.4240  141.4140 C   0  0  0  0  0  2  0  0  0  0  0  0
  184.2870  178.8940  142.1540 N   0  0  0  0  0  2  0  0  0  0  0  0
  183.1500  178.8190  141.2540 C   0  0  0  0  0  2  0  0  0  0  0  0
  183.5880  178.3370  139.8750 C   0  0  0  0  0  2  0  0  0  0  0  0
  181.9210  179.8480  138.7950 C   0  0  0  0  0  1  0  0  0  0  0  0
  184.1810  180.5050  139.0940 O   0  0  0  0  0  1  0  0  0  0  0  0
  183.3710  179.4060  138.8160 C   0  0  1  0  0  3  0  0  0  0  0  0
  186.6140  177.4640  143.3290 N   0  0  0  0  0  2  0  0  0  0  0  0
  186.8320  178.1010  144.6190 C   0  0  0  0  0  2  0  0  0  0  0  0
  188.8500  176.8190  145.0410 O   0  0  0  0  0  0  0  0  0  0  0  0
  188.7350  177.1060  147.7620 C   0  0  0  0  0  2  0  0  0  0  0  0
  190.0460  177.4540  147.0400 C   0  0  2  0  0  3  0  0  0  0  0  0
  187.5540  177.1320  145.5380 C   0  0  1  0  0  3  0  0  0  0  0  0
  187.5180  177.6230  147.0010 C   0  0  0  0  0  2  0  0  0  0  0  0
  190.9530  177.6970  144.8180 F   0  0  0  0  0  0  0  0  0  0  0  0
  189.7830  177.7410  145.5540 C   0  0  1  0  0  3  0  0  0  0  0  0
  192.8220  175.3610  148.1980 O   0  0  0  0  0  0  0  0  0  0  0  0
  190.9800  176.3440  147.1790 N   0  0  0  0  0  2  0  0  0  0  0  0
  192.0820  176.3720  148.0860 C   0  0  0  0  0  0  0  0  0  0  0  0
  192.3460  177.5060  148.8430 O   0  0  0  0  0  1  0  0  0  0  0  0
  1 14  1  6  0  0  0
  1 21  1  0  0  0  0
  2  8  1  0  0  0  0
  2  1  1  0  0  0  0
  3  4  1  0  0  0  0
  4  8  2  0  0  0  0
  5  3  2  0  0  0  0
  6  5  1  0  0  0  0
  6  7  1  0  0  0  0
  7  2  2  0  0  0  0
  9 13  1  0  0  0  0
  9 11  2  0  0  0  0
 10  5  1  0  0  0  0
 11 10  1  0  0  0  0
 12 10  1  0  0  0  0
 13 12  2  0  0  0  0
 14 15  1  0  0  0  0
 16 15  1  0  0  0  0
 17 16  1  0  0  0  0
 20 18  1  1  0  0  0
 20 19  1  0  0  0  0
 20 17  1  0  0  0  0
 21 22  1  0  0  0  0
 23 26  1  0  0  0  0
 23 29  1  0  0  0  0
 25 31  1  6  0  0  0
 25 24  1  0  0  0  0
 26 22  1  6  0  0  0
 26 27  1  0  0  0  0
 27 24  1  0  0  0  0
 29 28  1  6  0  0  0
 29 25  1  0  0  0  0
 31 32  1  0  0  0  0
 32 30  2  0  0  0  0
 32 33  1  0  0  0  0
M  END
>  <MODEL>
8

>  <REMARK>
 VINA RESULT:      -7.5      2.196      2.806
  Name = 
  11 active torsions:
  status: ('A' for Active; 'I' for Inactive)
    1  A    between atoms: C_2  and  C_3
    2  A    between atoms: C_2  and  C_8
    3  A    between atoms: C_2  and  N_23
    4  A    between atoms: C_8  and  N_25
    5  A    between atoms: C_10  and  N_12
    6  A    between atoms: C_11  and  C_26
    7  A    between atoms: C_13  and  N_16
    8  A    between atoms: C_21  and  C_33
    9  A    between atoms: C_22  and  N_25
   10  A    between atoms: C_22  and  C_33
   11  A    between atoms: N_23  and  C_26
                            x       y       z     vdW  Elec       q    Type
                         _______ _______ _______ _____ _____    ______ ____

>  <TORSDO>
F 11

$$$$
=
 OpenBabel10222418523D

 33 35  0  0  1  0  0  0  0  0999 V2000
  189.5370  177.2700  140.1000 C   0  0  1  0  0  3  0  0  0  0  0  0
  189.5630  177.0920  141.5860 C   0  0  0  0  0  0  0  0  0  0  0  0
  189.8390  178.0900  144.4330 C   0  0  0  0  0  3  0  0  0  0  0  0
  190.9420  177.8150  143.4910 C   0  0  0  0  0  3  0  0  0  0  0  0
  188.6750  177.4350  144.4600 C   0  0  0  0  0  0  0  0  0  0  0  0
  188.4720  176.2300  143.5950 C   0  0  0  0  0  2  0  0  0  0  0  0
  188.5230  176.5860  142.1880 N   0  0  0  0  0  0  0  0  0  0  0  0
  190.7940  177.3790  142.2730 N   0  0  0  0  0  0  0  0  0  0  0  0
  185.7350  178.4100  146.3060 C   0  0  0  0  0  3  0  0  0  0  0  0
  187.6630  177.8170  145.4080 N   0  0  0  0  0  0  0  0  0  0  0  0
  186.3730  178.0800  145.1230 C   0  0  0  0  0  3  0  0  0  0  0  0
  187.8790  177.9590  146.7050 N   0  0  0  0  0  0  0  0  0  0  0  0
  186.7180  178.3230  147.2810 C   0  0  0  0  0  3  0  0  0  0  0  0
  188.6690  178.4660  139.7460 C   0  0  0  0  0  2  0  0  0  0  0  0
  189.0340  178.9690  138.4320 N   0  0  0  0  0  2  0  0  0  0  0  0
  188.1040  178.3890  137.4800 C   0  0  0  0  0  2  0  0  0  0  0  0
  188.8530  177.7780  136.3010 C   0  0  0  0  0  2  0  0  0  0  0  0
  187.5750  175.8400  137.2170 C   0  0  0  0  0  1  0  0  0  0  0  0
  187.8060  176.1820  134.8810 O   0  0  0  0  0  1  0  0  0  0  0  0
  188.4750  176.3200  136.0950 C   0  0  1  0  0  3  0  0  0  0  0  0
  190.8850  177.4620  139.5730 N   0  0  0  0  0  2  0  0  0  0  0  0
  191.2440  176.2800  138.8050 C   0  0  0  0  0  2  0  0  0  0  0  0
  193.6180  176.5410  138.3700 O   0  0  0  0  0  0  0  0  0  0  0  0
  193.4670  175.6860  135.7720 C   0  0  0  0  0  2  0  0  0  0  0  0
  194.5060  175.0400  136.7000 C   0  0  2  0  0  3  0  0  0  0  0  0
  192.3190  176.6460  137.7980 C   0  0  1  0  0  3  0  0  0  0  0  0
  192.1250  175.8770  136.4740 C   0  0  0  0  0  2  0  0  0  0  0  0
  195.1810  174.9970  139.0150 F   0  0  0  0  0  0  0  0  0  0  0  0
  194.1120  175.2370  138.1720 C   0  0  1  0  0  3  0  0  0  0  0  0
  198.1000  175.4270  136.0990 O   0  0  0  0  0  0  0  0  0  0  0  0
  195.8120  175.6350  136.4470 N   0  0  0  0  0  2  0  0  0  0  0  0
  197.0110  174.8610  136.3740 C   0  0  0  0  0  0  0  0  0  0  0  0
  196.9840  173.4920  136.6050 O   0  0  0  0  0  1  0  0  0  0  0  0
  1 14  1  1  0  0  0
  1  2  1  0  0  0  0
  2  7  2  0  0  0  0
  2  8  1  0  0  0  0
  3  5  2  0  0  0  0
  4  3  1  0  0  0  0
  5 10  1  0  0  0  0
  6  5  1  0  0  0  0
  7  6  1  0  0  0  0
  8  4  2  0  0  0  0
  9 13  1  0  0  0  0
 10 12  1  0  0  0  0
 11 10  1  0  0  0  0
 11  9  2  0  0  0  0
 12 13  2  0  0  0  0
 15 14  1  0  0  0  0
 16 15  1  0  0  0  0
 17 16  1  0  0  0  0
 19 20  1  0  0  0  0
 20 17  1  0  0  0  0
 20 18  1  1  0  0  0
 21  1  1  0  0  0  0
 22 21  1  0  0  0  0
 24 27  1  0  0  0  0
 24 25  1  0  0  0  0
 25 31  1  1  0  0  0
 25 29  1  0  0  0  0
 26 23  1  0  0  0  0
 26 22  1  1  0  0  0
 27 26  1  0  0  0  0
 29 23  1  0  0  0  0
 29 28  1  1  0  0  0
 30 32  2  0  0  0  0
 32 31  1  0  0  0  0
 32 33  1  0  0  0  0
M  END
>  <MODEL>
9

>  <REMARK>
 VINA RESULT:      -7.5      4.372      8.490
  Name = 
  11 active torsions:
  status: ('A' for Active; 'I' for Inactive)
    1  A    between atoms: C_2  and  C_3
    2  A    between atoms: C_2  and  C_8
    3  A    between atoms: C_2  and  N_23
    4  A    between atoms: C_8  and  N_25
    5  A    between atoms: C_10  and  N_12
    6  A    between atoms: C_11  and  C_26
    7  A    between atoms: C_13  and  N_16
    8  A    between atoms: C_21  and  C_33
    9  A    between atoms: C_22  and  N_25
   10  A    between atoms: C_22  and  C_33
   11  A    between atoms: N_23  and  C_26
                            x       y       z     vdW  Elec       q    Type
                         _______ _______ _______ _____ _____    ______ ____

>  <TORSDO>
F 11

$$$$
