=
 OpenBabel10222419263D

 42 48  0  0  1  0  0  0  0  0999 V2000
  190.4540  177.1090  140.7080 N   0  0  0  0  0  0  0  0  0  0  0  0
  191.6940  175.9860  136.7830 C   0  0  0  0  0  0  0  0  0  0  0  0
  190.3380  176.0150  137.1180 C   0  0  0  0  0  3  0  0  0  0  0  0
  192.2360  176.7390  139.0350 C   0  0  0  0  0  3  0  0  0  0  0  0
  193.3260  175.0830  135.1150 C   0  0  0  0  0  2  0  0  0  0  0  0
  194.6860  177.4440  135.0640 O   0  0  0  0  0  0  0  0  0  0  0  0
  189.9320  176.3900  138.3990 C   0  0  0  0  0  3  0  0  0  0  0  0
  196.1080  175.3620  135.8250 O   0  0  0  0  0  1  0  0  0  0  0  0
  192.0450  175.5910  135.4790 O   0  0  0  0  0  0  0  0  0  0  0  0
  190.8740  176.7450  139.3760 C   0  0  0  0  0  0  0  0  0  0  0  0
  192.6560  176.3710  137.7530 C   0  0  0  0  0  0  0  0  0  0  0  0
  194.6070  176.1380  135.8230 P   0  0  2  0  0  0  0  0  0  0  0  0
  194.0540  176.4260  137.4530 N   0  0  0  0  0  2  0  0  0  0  0  0
  189.0410  177.1950  141.0560 C   0  0  0  0  0  2  0  0  0  0  0  0
  188.4870  178.3970  140.5440 O   0  0  0  0  0  0  0  0  0  0  0  0
  185.7120  177.8150  137.5060 N   0  0  0  0  0  0  0  0  0  0  0  0
  184.9360  178.6070  139.5420 C   0  0  0  0  0  0  0  0  0  0  0  0
  186.7600  177.9280  138.2720 C   0  0  0  0  0  3  0  0  0  0  0  0
  182.2810  178.6870  138.7820 C   0  0  0  0  0  0  0  0  0  0  0  0
  187.1300  178.6260  140.6180 N   0  0  0  0  0  0  0  0  0  0  0  0
  180.9440  178.7220  138.4110 O   0  0  0  0  0  1  0  0  0  0  0  0
  182.6560  179.0720  140.0880 C   0  0  0  0  0  3  0  0  0  0  0  0
  184.0040  179.0350  140.4860 C   0  0  0  0  0  3  0  0  0  0  0  0
  184.5810  178.2260  138.2730 C   0  0  0  0  0  0  0  0  0  0  0  0
  183.2520  178.2570  137.8570 C   0  0  0  0  0  3  0  0  0  0  0  0
  186.3640  178.4260  139.5970 C   0  0  0  0  0  0  0  0  0  0  0  0
  191.4150  177.4110  141.7630 C   0  0  0  0  0  2  0  0  0  0  0  0
  191.6870  176.5100  145.4530 C   0  0  0  0  0  2  0  0  0  0  0  0
  190.9040  176.9010  143.1040 C   0  0  1  0  0  3  0  0  0  0  0  0
  189.5600  177.6800  145.2010 C   0  0  1  0  0  3  0  0  0  0  0  0
  190.5470  179.4920  143.5980 C   0  0  0  0  0  1  0  0  0  0  0  0
  191.8040  177.4050  144.2280 C   0  0  1  0  0  3  0  0  0  0  0  0
  190.2560  176.5640  145.9610 C   0  0  0  0  0  2  0  0  0  0  0  0
  190.4470  178.0330  144.0240 C   0  0  2  0  0  0  0  0  0  0  0  0
  188.2570  177.2300  144.7210 N   0  0  0  0  0  2  0  0  0  0  0  0
  186.8100  178.0530  146.4570 C   0  0  0  0  0  3  0  0  0  0  0  0
  184.9130  179.4350  146.0420 O   0  0  0  0  0  0  0  0  0  0  0  0
  185.7670  178.1420  143.8960 S   0  0  0  0  0  0  0  0  0  0  0  0
  185.5000  178.5680  146.9700 C   0  0  0  0  0  2  0  0  0  0  0  0
  184.4160  178.6000  145.0370 C   0  0  2  0  0  3  0  0  0  0  0  0
  183.1430  179.4530  144.1340 Cl  0  0  0  0  0  0  0  0  0  0  0  0
  187.0060  177.7700  145.1620 C   0  0  0  0  0  0  0  0  0  0  0  0
  1 14  1  0  0  0  0
  1 27  1  0  0  0  0
  2  3  2  0  0  0  0
  2 11  1  0  0  0  0
  3  7  1  0  0  0  0
  4 10  1  0  0  0  0
  5  9  1  0  0  0  0
  5 12  1  0  0  0  0
  7 10  2  0  0  0  0
  9  2  1  0  0  0  0
 10  1  1  0  0  0  0
 11  4  2  0  0  0  0
 12  6  2  6  0  0  0
 12  8  1  0  0  0  0
 12 13  1  0  0  0  0
 13 11  1  0  0  0  0
 15 20  1  0  0  0  0
 15 14  1  0  0  0  0
 16 18  2  0  0  0  0
 16 24  1  0  0  0  0
 17 26  1  0  0  0  0
 17 23  1  0  0  0  0
 18 26  1  0  0  0  0
 19 22  1  0  0  0  0
 21 19  1  0  0  0  0
 22 23  2  0  0  0  0
 24 17  2  0  0  0  0
 25 24  1  0  0  0  0
 25 19  2  0  0  0  0
 26 20  2  0  0  0  0
 28 33  1  0  0  0  0
 29 27  1  6  0  0  0
 29 34  1  0  0  0  0
 29 32  1  0  0  0  0
 30 35  1  6  0  0  0
 30 33  1  0  0  0  0
 32 28  1  1  0  0  0
 34 31  1  6  0  0  0
 34 32  1  0  0  0  0
 34 30  1  0  0  0  0
 35 42  1  0  0  0  0
 36 39  1  0  0  0  0
 37 39  1  0  0  0  0
 38 40  1  0  0  0  0
 38 42  1  0  0  0  0
 40 41  1  6  0  0  0
 40 37  1  0  0  0  0
 42 36  2  0  0  0  0
M  END
>  <MODEL>
1

>  <REMARK>
 VINA RESULT:      -9.4      0.000      0.000
  Name = 
  8 active torsions:
  status: ('A' for Active; 'I' for Inactive)
    1  A    between atoms: C_10  and  C_29
    2  A    between atoms: N_13  and  C_14
    3  A    between atoms: N_13  and  C_38
    4  A    between atoms: N_18  and  O_30
    5  A    between atoms: C_23  and  O_30
    6  A    between atoms: C_23  and  N_35
    7  A    between atoms: C_27  and  N_35
    8  A    between atoms: C_29  and  N_35
                            x       y       z     vdW  Elec       q    Type
                         _______ _______ _______ _____ _____    ______ ____

>  <TORSDO>
F 8

$$$$
=
 OpenBabel10222419263D

 42 48  0  0  1  0  0  0  0  0999 V2000
  190.8480  176.3010  138.2370 N   0  0  0  0  0  0  0  0  0  0  0  0
  194.1510  175.1750  135.7830 C   0  0  0  0  0  0  0  0  0  0  0  0
  192.9350  175.5510  135.2070 C   0  0  0  0  0  3  0  0  0  0  0  0
  193.1990  175.5820  137.9870 C   0  0  0  0  0  3  0  0  0  0  0  0
  196.3040  173.9850  135.3200 C   0  0  0  0  0  2  0  0  0  0  0  0
  197.7220  175.8800  136.6720 O   0  0  0  0  0  0  0  0  0  0  0  0
  191.8560  175.9260  136.0100 C   0  0  0  0  0  3  0  0  0  0  0  0
  197.9400  173.4370  137.6310 O   0  0  0  0  0  1  0  0  0  0  0  0
  195.2000  174.7970  134.9250 O   0  0  0  0  0  0  0  0  0  0  0  0
  191.9710  175.9350  137.4080 C   0  0  0  0  0  0  0  0  0  0  0  0
  194.2900  175.2090  137.1950 C   0  0  0  0  0  0  0  0  0  0  0  0
  196.9560  174.5930  136.8880 P   0  0  2  0  0  0  0  0  0  0  0  0
  195.5280  174.9010  137.8430 N   0  0  0  0  0  2  0  0  0  0  0  0
  191.0280  177.1120  139.4360 C   0  0  0  0  0  2  0  0  0  0  0  0
  190.8170  176.3210  140.5950 O   0  0  0  0  0  0  0  0  0  0  0  0
  191.0380  176.8840  144.7060 N   0  0  0  0  0  0  0  0  0  0  0  0
  188.9510  177.0320  143.7040 C   0  0  0  0  0  0  0  0  0  0  0  0
  191.2290  176.6560  143.4380 C   0  0  0  0  0  3  0  0  0  0  0  0
  187.5970  177.6290  146.0370 C   0  0  0  0  0  0  0  0  0  0  0  0
  189.7650  176.5920  141.4420 N   0  0  0  0  0  0  0  0  0  0  0  0
  186.9110  177.9370  147.2030 O   0  0  0  0  0  1  0  0  0  0  0  0
  186.8960  177.5400  144.8140 C   0  0  0  0  0  3  0  0  0  0  0  0
  187.5750  177.2370  143.6210 C   0  0  0  0  0  3  0  0  0  0  0  0
  189.6410  177.1200  144.8860 C   0  0  0  0  0  0  0  0  0  0  0  0
  188.9890  177.4170  146.0810 C   0  0  0  0  0  3  0  0  0  0  0  0
  189.9530  176.7300  142.7130 C   0  0  0  0  0  0  0  0  0  0  0  0
  189.4880  175.8780  137.9230 C   0  0  0  0  0  2  0  0  0  0  0  0
  187.9770  177.8370  135.0270 C   0  0  0  0  0  2  0  0  0  0  0  0
  188.7150  177.0230  137.2810 C   0  0  1  0  0  3  0  0  0  0  0  0
  186.2760  177.8040  136.7780 C   0  0  1  0  0  3  0  0  0  0  0  0
  186.6930  175.2950  137.3770 C   0  0  0  0  0  1  0  0  0  0  0  0
  188.2380  176.6110  135.8910 C   0  0  1  0  0  3  0  0  0  0  0  0
  186.8640  178.6530  135.6640 C   0  0  0  0  0  2  0  0  0  0  0  0
  187.2490  176.6690  137.0300 C   0  0  2  0  0  0  0  0  0  0  0  0
  186.1190  178.5990  137.9920 N   0  0  0  0  0  2  0  0  0  0  0  0
  183.9260  177.8090  138.5860 C   0  0  0  0  0  3  0  0  0  0  0  0
  183.2460  177.3830  140.8290 O   0  0  0  0  0  0  0  0  0  0  0  0
  185.3900  178.9240  140.6520 S   0  0  0  0  0  0  0  0  0  0  0  0
  182.7800  177.6410  139.5360 C   0  0  0  0  0  2  0  0  0  0  0  0
  183.7090  178.6170  141.2960 C   0  0  2  0  0  3  0  0  0  0  0  0
  183.7510  178.5990  143.0740 Cl  0  0  0  0  0  0  0  0  0  0  0  0
  185.0680  178.4120  138.9460 C   0  0  0  0  0  0  0  0  0  0  0  0
  1 14  1  0  0  0  0
  2 11  1  0  0  0  0
  3  2  2  0  0  0  0
  3  7  1  0  0  0  0
  5 12  1  0  0  0  0
  7 10  2  0  0  0  0
  9  5  1  0  0  0  0
  9  2  1  0  0  0  0
 10  4  1  0  0  0  0
 10  1  1  0  0  0  0
 11 13  1  0  0  0  0
 11  4  2  0  0  0  0
 12  6  2  6  0  0  0
 12  8  1  0  0  0  0
 12 13  1  0  0  0  0
 14 15  1  0  0  0  0
 15 20  1  0  0  0  0
 16 24  1  0  0  0  0
 17 24  1  0  0  0  0
 18 16  2  0  0  0  0
 19 25  1  0  0  0  0
 19 21  1  0  0  0  0
 20 26  2  0  0  0  0
 22 19  2  0  0  0  0
 23 17  2  0  0  0  0
 23 22  1  0  0  0  0
 24 25  2  0  0  0  0
 26 18  1  0  0  0  0
 26 17  1  0  0  0  0
 27  1  1  0  0  0  0
 28 33  1  0  0  0  0
 29 27  1  1  0  0  0
 30 34  1  0  0  0  0
 30 35  1  1  0  0  0
 32 28  1  6  0  0  0
 32 34  1  0  0  0  0
 32 29  1  0  0  0  0
 33 30  1  0  0  0  0
 34 29  1  0  0  0  0
 34 31  1  1  0  0  0
 35 42  1  0  0  0  0
 36 42  2  0  0  0  0
 36 39  1  0  0  0  0
 37 40  1  0  0  0  0
 38 40  1  0  0  0  0
 39 37  1  0  0  0  0
 40 41  1  1  0  0  0
 42 38  1  0  0  0  0
M  END
>  <MODEL>
2

>  <REMARK>
 VINA RESULT:      -9.1      1.986      6.278
  Name = 
  8 active torsions:
  status: ('A' for Active; 'I' for Inactive)
    1  A    between atoms: C_10  and  C_29
    2  A    between atoms: N_13  and  C_14
    3  A    between atoms: N_13  and  C_38
    4  A    between atoms: N_18  and  O_30
    5  A    between atoms: C_23  and  O_30
    6  A    between atoms: C_23  and  N_35
    7  A    between atoms: C_27  and  N_35
    8  A    between atoms: C_29  and  N_35
                            x       y       z     vdW  Elec       q    Type
                         _______ _______ _______ _____ _____    ______ ____

>  <TORSDO>
F 8

$$$$
=
 OpenBabel10222419263D

 42 48  0  0  1  0  0  0  0  0999 V2000
  186.4230  178.5080  139.8510 N   0  0  0  0  0  0  0  0  0  0  0  0
  183.4900  179.0410  142.9040 C   0  0  0  0  0  0  0  0  0  0  0  0
  184.8480  179.2100  143.1870 C   0  0  0  0  0  3  0  0  0  0  0  0
  184.0630  178.5570  140.5880 C   0  0  0  0  0  3  0  0  0  0  0  0
  181.2560  178.6590  143.9640 C   0  0  0  0  0  2  0  0  0  0  0  0
  180.0700  180.4300  142.2650 O   0  0  0  0  0  1  0  0  0  0  0  0
  185.8070  179.0430  142.1870 C   0  0  0  0  0  3  0  0  0  0  0  0
  179.1220  177.9760  142.1480 O   0  0  0  0  0  0  0  0  0  0  0  0
  182.5700  179.2130  143.9540 O   0  0  0  0  0  0  0  0  0  0  0  0
  185.4280  178.7030  140.8790 C   0  0  0  0  0  0  0  0  0  0  0  0
  183.0920  178.7270  141.5790 C   0  0  0  0  0  0  0  0  0  0  0  0
  180.4660  178.9740  142.3730 P   0  0  2  0  0  0  0  0  0  0  0  0
  181.7140  178.6070  141.2100 N   0  0  0  0  0  2  0  0  0  0  0  0
  187.8450  178.4880  140.1720 C   0  0  0  0  0  2  0  0  0  0  0  0
  188.1790  177.2750  140.8260 O   0  0  0  0  0  0  0  0  0  0  0  0
  191.6920  176.7910  142.9930 N   0  0  0  0  0  0  0  0  0  0  0  0
  189.7120  177.0120  144.1790 C   0  0  0  0  0  0  0  0  0  0  0  0
  190.7490  176.9090  142.1010 C   0  0  0  0  0  3  0  0  0  0  0  0
  190.8980  176.8790  146.6700 C   0  0  0  0  0  0  0  0  0  0  0  0
  188.2960  177.2320  142.1980 N   0  0  0  0  0  0  0  0  0  0  0  0
  191.4880  176.8220  147.9250 O   0  0  0  0  0  1  0  0  0  0  0  0
  189.5000  177.0460  146.5590 C   0  0  0  0  0  3  0  0  0  0  0  0
  188.8860  177.1150  145.2970 C   0  0  0  0  0  3  0  0  0  0  0  0
  191.0710  176.8550  144.2760 C   0  0  0  0  0  0  0  0  0  0  0  0
  191.7010  176.7820  145.5170 C   0  0  0  0  0  3  0  0  0  0  0  0
  189.4460  177.0570  142.7640 C   0  0  0  0  0  0  0  0  0  0  0  0
  186.0570  178.3260  138.4510 C   0  0  0  0  0  2  0  0  0  0  0  0
  186.1850  175.3350  136.0960 C   0  0  0  0  0  2  0  0  0  0  0  0
  186.5770  176.9890  137.9400 C   0  0  1  0  0  3  0  0  0  0  0  0
  188.5060  175.9650  136.5110 C   0  0  1  0  0  3  0  0  0  0  0  0
  188.0280  178.5270  136.3240 C   0  0  0  0  0  1  0  0  0  0  0  0
  186.1960  176.8100  136.4730 C   0  0  1  0  0  3  0  0  0  0  0  0
  187.5890  174.7800  136.2690 C   0  0  0  0  0  2  0  0  0  0  0  0
  187.6200  177.1520  136.8350 C   0  0  2  0  0  0  0  0  0  0  0  0
  189.3990  175.6940  137.6350 N   0  0  0  0  0  2  0  0  0  0  0  0
  191.6490  176.4830  137.9460 C   0  0  0  0  0  3  0  0  0  0  0  0
  193.5530  175.0510  137.9680 O   0  0  0  0  0  0  0  0  0  0  0  0
  191.4160  173.9480  136.8630 S   0  0  0  0  0  0  0  0  0  0  0  0
  193.1350  176.3740  137.7920 C   0  0  0  0  0  2  0  0  0  0  0  0
  193.1840  174.3980  136.7880 C   0  0  2  0  0  3  0  0  0  0  0  0
  194.1620  172.9250  136.5950 Cl  0  0  0  0  0  0  0  0  0  0  0  0
  190.8160  175.5260  137.5150 C   0  0  0  0  0  0  0  0  0  0  0  0
  1 14  1  0  0  0  0
  1 10  1  0  0  0  0
  2  3  1  0  0  0  0
  2  9  1  0  0  0  0
  4 10  2  0  0  0  0
  4 11  1  0  0  0  0
  6 12  1  0  0  0  0
  7  3  2  0  0  0  0
  9  5  1  0  0  0  0
 10  7  1  0  0  0  0
 11  2  2  0  0  0  0
 12  8  2  6  0  0  0
 12  5  1  0  0  0  0
 13 11  1  0  0  0  0
 13 12  1  0  0  0  0
 14 15  1  0  0  0  0
 15 20  1  0  0  0  0
 16 24  1  0  0  0  0
 17 24  2  0  0  0  0
 17 23  1  0  0  0  0
 18 26  1  0  0  0  0
 18 16  2  0  0  0  0
 19 21  1  0  0  0  0
 20 26  2  0  0  0  0
 22 19  1  0  0  0  0
 23 22  2  0  0  0  0
 24 25  1  0  0  0  0
 25 19  2  0  0  0  0
 26 17  1  0  0  0  0
 27  1  1  0  0  0  0
 28 33  1  0  0  0  0
 29 27  1  6  0  0  0
 30 34  1  0  0  0  0
 30 35  1  1  0  0  0
 32 28  1  1  0  0  0
 32 34  1  0  0  0  0
 32 29  1  0  0  0  0
 33 30  1  0  0  0  0
 34 31  1  6  0  0  0
 34 29  1  0  0  0  0
 38 42  1  0  0  0  0
 39 36  1  0  0  0  0
 39 37  1  0  0  0  0
 40 41  1  1  0  0  0
 40 38  1  0  0  0  0
 40 37  1  0  0  0  0
 42 35  1  0  0  0  0
 42 36  2  0  0  0  0
M  END
>  <MODEL>
3

>  <REMARK>
 VINA RESULT:      -8.8      4.433     10.248
  Name = 
  8 active torsions:
  status: ('A' for Active; 'I' for Inactive)
    1  A    between atoms: C_10  and  C_29
    2  A    between atoms: N_13  and  C_14
    3  A    between atoms: N_13  and  C_38
    4  A    between atoms: N_18  and  O_30
    5  A    between atoms: C_23  and  O_30
    6  A    between atoms: C_23  and  N_35
    7  A    between atoms: C_27  and  N_35
    8  A    between atoms: C_29  and  N_35
                            x       y       z     vdW  Elec       q    Type
                         _______ _______ _______ _____ _____    ______ ____

>  <TORSDO>
F 8

$$$$
=
 OpenBabel10222419263D

 42 48  0  0  1  0  0  0  0  0999 V2000
  190.5120  176.9400  138.5690 N   0  0  0  0  0  0  0  0  0  0  0  0
  186.3260  176.8730  137.7410 C   0  0  0  0  0  0  0  0  0  0  0  0
  187.1720  175.8990  137.2030 C   0  0  0  0  0  3  0  0  0  0  0  0
  188.2420  177.8740  138.8620 C   0  0  0  0  0  3  0  0  0  0  0  0
  184.0680  177.9220  137.4940 C   0  0  0  0  0  2  0  0  0  0  0  0
  183.7160  177.9650  140.1960 O   0  0  0  0  0  1  0  0  0  0  0  0
  188.5400  175.9160  137.4800 C   0  0  0  0  0  3  0  0  0  0  0  0
  183.6420  180.3250  139.0310 O   0  0  0  0  0  0  0  0  0  0  0  0
  184.9580  176.8110  137.4200 O   0  0  0  0  0  0  0  0  0  0  0  0
  189.0930  176.9090  138.3020 C   0  0  0  0  0  0  0  0  0  0  0  0
  186.8690  177.8650  138.5980 C   0  0  0  0  0  0  0  0  0  0  0  0
  184.3120  178.7740  139.0650 P   0  0  2  0  0  0  0  0  0  0  0  0
  186.0470  178.8500  139.2330 N   0  0  0  0  0  2  0  0  0  0  0  0
  191.0210  177.1610  139.9170 C   0  0  0  0  0  2  0  0  0  0  0  0
  190.5400  176.1520  140.7900 O   0  0  0  0  0  0  0  0  0  0  0  0
  191.3180  176.8300  144.8160 N   0  0  0  0  0  0  0  0  0  0  0  0
  189.1160  176.9670  144.1020 C   0  0  0  0  0  0  0  0  0  0  0  0
  191.3350  176.5640  143.5400 C   0  0  0  0  0  3  0  0  0  0  0  0
  188.0930  177.6410  146.5780 C   0  0  0  0  0  0  0  0  0  0  0  0
  189.6140  176.4570  141.7640 N   0  0  0  0  0  0  0  0  0  0  0  0
  187.5730  177.9880  147.8170 O   0  0  0  0  0  1  0  0  0  0  0  0
  187.2320  177.5230  145.4650 C   0  0  0  0  0  3  0  0  0  0  0  0
  187.7420  177.1810  144.2000 C   0  0  0  0  0  3  0  0  0  0  0  0
  189.9600  177.0830  145.1770 C   0  0  0  0  0  0  0  0  0  0  0  0
  189.4770  177.4190  146.4390 C   0  0  0  0  0  3  0  0  0  0  0  0
  189.9720  176.6290  142.9940 C   0  0  0  0  0  0  0  0  0  0  0  0
  191.4980  176.7570  137.5100 C   0  0  0  0  0  2  0  0  0  0  0  0
  190.9920  173.4060  135.7700 C   0  0  0  0  0  2  0  0  0  0  0  0
  191.7410  175.2720  137.2680 C   0  0  1  0  0  3  0  0  0  0  0  0
  193.4010  173.6480  136.0780 C   0  0  1  0  0  3  0  0  0  0  0  0
  193.4110  176.1720  135.4010 C   0  0  0  0  0  1  0  0  0  0  0  0
  191.2920  174.8960  135.8590 C   0  0  1  0  0  3  0  0  0  0  0  0
  192.2700  172.6360  136.0580 C   0  0  0  0  0  2  0  0  0  0  0  0
  192.7650  175.0210  136.1610 C   0  0  2  0  0  0  0  0  0  0  0  0
  194.2570  173.4290  137.2400 N   0  0  0  0  0  2  0  0  0  0  0  0
  196.3250  174.1410  136.2400 C   0  0  0  0  0  3  0  0  0  0  0  0
  197.9690  175.4240  137.3930 O   0  0  0  0  0  0  0  0  0  0  0  0
  196.2520  174.2180  139.0050 S   0  0  0  0  0  0  0  0  0  0  0  0
  197.7580  174.5750  136.3010 C   0  0  0  0  0  2  0  0  0  0  0  0
  197.9710  174.5810  138.5080 C   0  0  2  0  0  3  0  0  0  0  0  0
  198.8190  175.3780  139.8520 Cl  0  0  0  0  0  0  0  0  0  0  0  0
  195.6080  173.8920  137.3440 C   0  0  0  0  0  0  0  0  0  0  0  0
  1 14  1  0  0  0  0
  2 11  1  0  0  0  0
  3  7  1  0  0  0  0
  3  2  2  0  0  0  0
  5 12  1  0  0  0  0
  7 10  2  0  0  0  0
  9  5  1  0  0  0  0
  9  2  1  0  0  0  0
 10  1  1  0  0  0  0
 10  4  1  0  0  0  0
 11  4  2  0  0  0  0
 11 13  1  0  0  0  0
 12  8  2  6  0  0  0
 12 13  1  0  0  0  0
 12  6  1  0  0  0  0
 14 15  1  0  0  0  0
 15 20  1  0  0  0  0
 16 24  1  0  0  0  0
 17 23  2  0  0  0  0
 17 24  1  0  0  0  0
 18 16  2  0  0  0  0
 19 21  1  0  0  0  0
 20 26  2  0  0  0  0
 22 19  2  0  0  0  0
 23 22  1  0  0  0  0
 24 25  2  0  0  0  0
 25 19  1  0  0  0  0
 26 18  1  0  0  0  0
 26 17  1  0  0  0  0
 27  1  1  0  0  0  0
 28 33  1  0  0  0  0
 29 27  1  6  0  0  0
 30 34  1  0  0  0  0
 30 35  1  1  0  0  0
 32 28  1  1  0  0  0
 32 34  1  0  0  0  0
 32 29  1  0  0  0  0
 33 30  1  0  0  0  0
 34 31  1  6  0  0  0
 34 29  1  0  0  0  0
 35 42  1  0  0  0  0
 36 39  1  0  0  0  0
 36 42  2  0  0  0  0
 37 40  1  0  0  0  0
 39 37  1  0  0  0  0
 40 38  1  0  0  0  0
 40 41  1  1  0  0  0
 42 38  1  0  0  0  0
M  END
>  <MODEL>
4

>  <REMARK>
 VINA RESULT:      -8.8      4.305      9.564
  Name = 
  8 active torsions:
  status: ('A' for Active; 'I' for Inactive)
    1  A    between atoms: C_10  and  C_29
    2  A    between atoms: N_13  and  C_14
    3  A    between atoms: N_13  and  C_38
    4  A    between atoms: N_18  and  O_30
    5  A    between atoms: C_23  and  O_30
    6  A    between atoms: C_23  and  N_35
    7  A    between atoms: C_27  and  N_35
    8  A    between atoms: C_29  and  N_35
                            x       y       z     vdW  Elec       q    Type
                         _______ _______ _______ _____ _____    ______ ____

>  <TORSDO>
F 8

$$$$
=
 OpenBabel10222419263D

 42 48  0  0  1  0  0  0  0  0999 V2000
  184.2650  178.3490  139.3730 N   0  0  0  0  0  0  0  0  0  0  0  0
  180.6050  176.1550  139.3590 C   0  0  0  0  0  0  0  0  0  0  0  0
  180.6830  177.4010  139.9850 C   0  0  0  0  0  3  0  0  0  0  0  0
  182.9410  176.3710  138.7040 C   0  0  0  0  0  3  0  0  0  0  0  0
  179.2430  174.0600  139.2300 C   0  0  0  0  0  2  0  0  0  0  0  0
  179.5190  173.9650  136.5200 O   0  0  0  0  0  0  0  0  0  0  0  0
  181.8770  178.1230  139.9840 C   0  0  0  0  0  3  0  0  0  0  0  0
  180.4660  171.8700  137.8050 O   0  0  0  0  0  1  0  0  0  0  0  0
  179.3780  175.4690  139.4010 O   0  0  0  0  0  0  0  0  0  0  0  0
  183.0230  177.6130  139.3540 C   0  0  0  0  0  0  0  0  0  0  0  0
  181.7480  175.6400  138.6940 C   0  0  0  0  0  0  0  0  0  0  0  0
  180.2090  173.5410  137.7970 P   0  0  2  0  0  0  0  0  0  0  0  0
  181.7160  174.4020  137.9780 N   0  0  0  0  0  2  0  0  0  0  0  0
  184.7710  178.9410  140.6060 C   0  0  0  0  0  2  0  0  0  0  0  0
  184.4960  178.0860  141.7040 O   0  0  0  0  0  0  0  0  0  0  0  0
  184.1170  179.0850  145.7200 N   0  0  0  0  0  0  0  0  0  0  0  0
  186.1030  178.1040  145.0330 C   0  0  0  0  0  0  0  0  0  0  0  0
  183.9970  178.8880  144.4380 C   0  0  0  0  0  3  0  0  0  0  0  0
  187.2480  178.0710  147.5470 C   0  0  0  0  0  0  0  0  0  0  0  0
  185.4400  177.8920  142.6890 N   0  0  0  0  0  0  0  0  0  0  0  0
  187.8260  178.0430  148.8080 O   0  0  0  0  0  1  0  0  0  0  0  0
  187.9550  177.5530  146.4390 C   0  0  0  0  0  3  0  0  0  0  0  0
  187.3810  177.5640  145.1560 C   0  0  0  0  0  3  0  0  0  0  0  0
  185.4060  178.6060  146.1030 C   0  0  0  0  0  0  0  0  0  0  0  0
  185.9550  178.6060  147.3830 C   0  0  0  0  0  3  0  0  0  0  0  0
  185.2160  178.2620  143.9080 C   0  0  0  0  0  0  0  0  0  0  0  0
  185.0650  178.5400  138.1690 C   0  0  0  0  0  2  0  0  0  0  0  0
  187.1470  175.4570  137.3530 C   0  0  0  0  0  2  0  0  0  0  0  0
  186.3040  177.6550  138.2150 C   0  0  1  0  0  3  0  0  0  0  0  0
  188.6440  177.3670  137.0950 C   0  0  1  0  0  3  0  0  0  0  0  0
  186.8480  178.8350  135.8920 C   0  0  0  0  0  1  0  0  0  0  0  0
  186.2840  176.6730  137.0480 C   0  0  1  0  0  3  0  0  0  0  0  0
  188.5850  175.9150  137.5330 C   0  0  0  0  0  2  0  0  0  0  0  0
  187.2130  177.8600  137.0040 C   0  0  2  0  0  0  0  0  0  0  0  0
  189.3790  178.1620  138.0750 N   0  0  0  0  0  2  0  0  0  0  0  0
  188.4470  178.5500  140.2570 C   0  0  0  0  0  3  0  0  0  0  0  0
  188.7400  177.0630  142.0960 O   0  0  0  0  0  0  0  0  0  0  0  0
  190.4990  176.6980  140.1520 S   0  0  0  0  0  0  0  0  0  0  0  0
  188.4150  178.3780  141.7450 C   0  0  0  0  0  2  0  0  0  0  0  0
  190.1250  176.9780  141.9170 C   0  0  2  0  0  3  0  0  0  0  0  0
  190.7630  175.6240  142.8790 Cl  0  0  0  0  0  0  0  0  0  0  0  0
  189.3500  177.9290  139.4870 C   0  0  0  0  0  0  0  0  0  0  0  0
  1 14  1  0  0  0  0
  2  9  1  0  0  0  0
  2  3  1  0  0  0  0
  4 10  2  0  0  0  0
  5  9  1  0  0  0  0
  7  3  2  0  0  0  0
 10  1  1  0  0  0  0
 10  7  1  0  0  0  0
 11  4  1  0  0  0  0
 11  2  2  0  0  0  0
 12  6  2  6  0  0  0
 12  8  1  0  0  0  0
 12 13  1  0  0  0  0
 12  5  1  0  0  0  0
 13 11  1  0  0  0  0
 14 15  1  0  0  0  0
 15 20  1  0  0  0  0
 16 24  1  0  0  0  0
 17 23  2  0  0  0  0
 17 24  1  0  0  0  0
 18 16  2  0  0  0  0
 19 21  1  0  0  0  0
 20 26  2  0  0  0  0
 22 19  2  0  0  0  0
 23 22  1  0  0  0  0
 24 25  2  0  0  0  0
 25 19  1  0  0  0  0
 26 18  1  0  0  0  0
 26 17  1  0  0  0  0
 27  1  1  0  0  0  0
 28 33  1  0  0  0  0
 29 27  1  6  0  0  0
 30 33  1  0  0  0  0
 30 35  1  1  0  0  0
 32 28  1  1  0  0  0
 32 29  1  0  0  0  0
 34 31  1  6  0  0  0
 34 32  1  0  0  0  0
 34 30  1  0  0  0  0
 34 29  1  0  0  0  0
 35 42  1  0  0  0  0
 36 39  1  0  0  0  0
 38 40  1  0  0  0  0
 39 37  1  0  0  0  0
 40 37  1  0  0  0  0
 40 41  1  1  0  0  0
 42 38  1  0  0  0  0
 42 36  2  0  0  0  0
M  END
>  <MODEL>
5

>  <REMARK>
 VINA RESULT:      -8.7      4.391      9.162
  Name = 
  8 active torsions:
  status: ('A' for Active; 'I' for Inactive)
    1  A    between atoms: C_10  and  C_29
    2  A    between atoms: N_13  and  C_14
    3  A    between atoms: N_13  and  C_38
    4  A    between atoms: N_18  and  O_30
    5  A    between atoms: C_23  and  O_30
    6  A    between atoms: C_23  and  N_35
    7  A    between atoms: C_27  and  N_35
    8  A    between atoms: C_29  and  N_35
                            x       y       z     vdW  Elec       q    Type
                         _______ _______ _______ _____ _____    ______ ____

>  <TORSDO>
F 8

$$$$
=
 OpenBabel10222419263D

 42 48  0  0  1  0  0  0  0  0999 V2000
  184.1550  178.4760  143.1520 N   0  0  0  0  0  0  0  0  0  0  0  0
  186.4150  178.4790  146.7710 C   0  0  0  0  0  0  0  0  0  0  0  0
  185.1170  178.9980  146.7440 C   0  0  0  0  0  3  0  0  0  0  0  0
  186.2090  177.9200  144.4110 C   0  0  0  0  0  3  0  0  0  0  0  0
  188.5390  178.4680  148.0930 C   0  0  0  0  0  2  0  0  0  0  0  0
  188.8610  175.7930  147.6830 O   0  0  0  0  0  1  0  0  0  0  0  0
  184.3750  178.9900  145.5620 C   0  0  0  0  0  3  0  0  0  0  0  0
  190.8180  177.2980  146.7680 O   0  0  0  0  0  0  0  0  0  0  0  0
  187.1180  178.5230  147.9880 O   0  0  0  0  0  0  0  0  0  0  0  0
  184.9150  178.4620  144.3800 C   0  0  0  0  0  0  0  0  0  0  0  0
  186.9610  177.9160  145.5890 C   0  0  0  0  0  0  0  0  0  0  0  0
  189.1600  177.1330  147.0500 P   0  0  2  0  0  0  0  0  0  0  0  0
  188.2570  177.3090  145.5680 N   0  0  0  0  0  2  0  0  0  0  0  0
  184.7460  178.0310  141.8950 C   0  0  0  0  0  2  0  0  0  0  0  0
  185.6870  178.9870  141.4340 O   0  0  0  0  0  0  0  0  0  0  0  0
  189.5700  177.5320  141.7060 N   0  0  0  0  0  0  0  0  0  0  0  0
  188.6960  177.8930  139.5890 C   0  0  0  0  0  0  0  0  0  0  0  0
  188.3670  177.9980  141.8870 C   0  0  0  0  0  3  0  0  0  0  0  0
  190.9370  177.0050  138.2400 C   0  0  0  0  0  0  0  0  0  0  0  0
  186.5260  178.6890  140.3830 N   0  0  0  0  0  0  0  0  0  0  0  0
  192.0560  176.5520  137.5550 O   0  0  0  0  0  1  0  0  0  0  0  0
  189.8070  177.4500  137.5190 C   0  0  0  0  0  3  0  0  0  0  0  0
  188.6610  177.9030  138.1960 C   0  0  0  0  0  3  0  0  0  0  0  0
  189.7870  177.4590  140.2970 C   0  0  0  0  0  0  0  0  0  0  0  0
  190.9340  177.0060  139.6480 C   0  0  0  0  0  3  0  0  0  0  0  0
  187.7260  178.2580  140.5900 C   0  0  0  0  0  0  0  0  0  0  0  0
  182.7720  178.9370  143.1080 C   0  0  0  0  0  2  0  0  0  0  0  0
  180.5840  177.1290  140.5680 C   0  0  0  0  0  2  0  0  0  0  0  0
  182.1750  178.6800  141.7300 C   0  0  1  0  0  3  0  0  0  0  0  0
  180.2770  179.5130  140.1450 C   0  0  1  0  0  3  0  0  0  0  0  0
  180.1530  180.1250  142.6820 C   0  0  0  0  0  1  0  0  0  0  0  0
  180.8930  177.8640  141.8650 C   0  0  1  0  0  3  0  0  0  0  0  0
  180.3540  178.1550  139.4710 C   0  0  0  0  0  2  0  0  0  0  0  0
  180.8070  179.3380  141.5540 C   0  0  2  0  0  0  0  0  0  0  0  0
  181.0950  180.4840  139.4260 N   0  0  0  0  0  2  0  0  0  0  0  0
  179.4520  181.0350  137.7580 C   0  0  0  0  0  3  0  0  0  0  0  0
  179.2340  183.2020  136.7920 O   0  0  0  0  0  0  0  0  0  0  0  0
  181.5700  182.8020  137.9700 S   0  0  0  0  0  0  0  0  0  0  0  0
  178.9340  181.8470  136.6110 C   0  0  0  0  0  2  0  0  0  0  0  0
  180.5990  183.3070  136.5080 C   0  0  2  0  0  3  0  0  0  0  0  0
  180.9890  184.9920  136.0930 Cl  0  0  0  0  0  0  0  0  0  0  0  0
  180.6110  181.3180  138.3670 C   0  0  0  0  0  0  0  0  0  0  0  0
  1 10  1  0  0  0  0
  2  9  1  0  0  0  0
  3  2  1  0  0  0  0
  4 11  1  0  0  0  0
  7  3  2  0  0  0  0
  9  5  1  0  0  0  0
 10  4  2  0  0  0  0
 10  7  1  0  0  0  0
 11  2  2  0  0  0  0
 12  8  2  6  0  0  0
 12  6  1  0  0  0  0
 12  5  1  0  0  0  0
 13 11  1  0  0  0  0
 13 12  1  0  0  0  0
 14  1  1  0  0  0  0
 15 14  1  0  0  0  0
 16 18  2  0  0  0  0
 17 24  1  0  0  0  0
 17 26  1  0  0  0  0
 19 25  1  0  0  0  0
 20 26  2  0  0  0  0
 20 15  1  0  0  0  0
 21 19  1  0  0  0  0
 22 23  1  0  0  0  0
 22 19  2  0  0  0  0
 23 17  2  0  0  0  0
 24 16  1  0  0  0  0
 25 24  2  0  0  0  0
 26 18  1  0  0  0  0
 27  1  1  0  0  0  0
 29 32  1  0  0  0  0
 29 27  1  1  0  0  0
 30 35  1  6  0  0  0
 30 34  1  0  0  0  0
 32 28  1  6  0  0  0
 33 30  1  0  0  0  0
 33 28  1  0  0  0  0
 34 29  1  0  0  0  0
 34 32  1  0  0  0  0
 34 31  1  1  0  0  0
 36 42  2  0  0  0  0
 38 42  1  0  0  0  0
 39 37  1  0  0  0  0
 39 36  1  0  0  0  0
 40 41  1  1  0  0  0
 40 37  1  0  0  0  0
 40 38  1  0  0  0  0
 42 35  1  0  0  0  0
M  END
>  <MODEL>
6

>  <REMARK>
 VINA RESULT:      -8.7      3.983      9.653
  Name = 
  8 active torsions:
  status: ('A' for Active; 'I' for Inactive)
    1  A    between atoms: C_10  and  C_29
    2  A    between atoms: N_13  and  C_14
    3  A    between atoms: N_13  and  C_38
    4  A    between atoms: N_18  and  O_30
    5  A    between atoms: C_23  and  O_30
    6  A    between atoms: C_23  and  N_35
    7  A    between atoms: C_27  and  N_35
    8  A    between atoms: C_29  and  N_35
                            x       y       z     vdW  Elec       q    Type
                         _______ _______ _______ _____ _____    ______ ____

>  <TORSDO>
F 8

$$$$
=
 OpenBabel10222419263D

 42 48  0  0  1  0  0  0  0  0999 V2000
  189.2710  177.8130  141.0330 N   0  0  0  0  0  0  0  0  0  0  0  0
  190.8810  177.4460  144.9670 C   0  0  0  0  0  0  0  0  0  0  0  0
  191.7240  177.6520  143.8720 C   0  0  0  0  0  3  0  0  0  0  0  0
  188.9640  177.5220  143.4680 C   0  0  0  0  0  3  0  0  0  0  0  0
  190.8420  176.6740  147.3480 C   0  0  0  0  0  2  0  0  0  0  0  0
  189.1280  178.6760  148.0410 O   0  0  0  0  0  0  0  0  0  0  0  0
  191.1970  177.7790  142.5860 C   0  0  0  0  0  3  0  0  0  0  0  0
  188.2200  176.2420  148.4690 O   0  0  0  0  0  1  0  0  0  0  0  0
  191.4690  177.3150  146.2380 O   0  0  0  0  0  0  0  0  0  0  0  0
  189.8130  177.7040  142.3670 C   0  0  0  0  0  0  0  0  0  0  0  0
  189.4780  177.3980  144.7630 C   0  0  0  0  0  0  0  0  0  0  0  0
  189.1450  177.2670  147.4940 P   0  0  2  0  0  0  0  0  0  0  0  0
  188.5580  177.2570  145.8500 N   0  0  0  0  0  2  0  0  0  0  0  0
  188.1310  178.6770  140.7510 C   0  0  0  0  0  2  0  0  0  0  0  0
  187.1910  178.6030  141.8100 O   0  0  0  0  0  0  0  0  0  0  0  0
  184.1200  178.7990  144.6040 N   0  0  0  0  0  0  0  0  0  0  0  0
  183.5370  178.6710  142.3630 C   0  0  0  0  0  0  0  0  0  0  0  0
  185.2410  178.7310  143.9430 C   0  0  0  0  0  3  0  0  0  0  0  0
  180.8130  178.7940  142.8070 C   0  0  0  0  0  0  0  0  0  0  0  0
  185.8390  178.6020  141.5440 N   0  0  0  0  0  0  0  0  0  0  0  0
  179.4440  178.8630  143.0210 O   0  0  0  0  0  1  0  0  0  0  0  0
  181.3120  178.7000  141.4890 C   0  0  0  0  0  3  0  0  0  0  0  0
  182.6970  178.6380  141.2520 C   0  0  0  0  0  3  0  0  0  0  0  0
  183.0620  178.7670  143.6460 C   0  0  0  0  0  0  0  0  0  0  0  0
  181.6950  178.8280  143.9050 C   0  0  0  0  0  3  0  0  0  0  0  0
  184.9710  178.6480  142.5000 C   0  0  0  0  0  0  0  0  0  0  0  0
  189.8300  177.0660  139.9120 C   0  0  0  0  0  2  0  0  0  0  0  0
  188.6130  178.1260  136.4620 C   0  0  0  0  0  2  0  0  0  0  0  0
  188.8670  177.0900  138.7310 C   0  0  1  0  0  3  0  0  0  0  0  0
  188.2150  175.7220  136.6070 C   0  0  1  0  0  3  0  0  0  0  0  0
  190.5090  175.2350  137.7580 C   0  0  0  0  0  1  0  0  0  0  0  0
  189.5970  177.5630  137.4770 C   0  0  1  0  0  3  0  0  0  0  0  0
  187.6620  177.0190  136.0410 C   0  0  0  0  0  2  0  0  0  0  0  0
  189.2620  176.1000  137.6360 C   0  0  2  0  0  0  0  0  0  0  0  0
  187.1510  174.9520  137.2430 N   0  0  0  0  0  2  0  0  0  0  0  0
  186.9470  173.3060  135.5020 C   0  0  0  0  0  3  0  0  0  0  0  0
  185.6180  171.3390  135.7020 O   0  0  0  0  0  0  0  0  0  0  0  0
  184.9930  173.2170  137.4580 S   0  0  0  0  0  0  0  0  0  0  0  0
  186.2330  172.2010  134.7870 C   0  0  0  0  0  2  0  0  0  0  0  0
  184.4960  172.0380  136.1550 C   0  0  2  0  0  3  0  0  0  0  0  0
  183.3100  170.8900  136.8170 Cl  0  0  0  0  0  0  0  0  0  0  0  0
  186.4620  173.8620  136.6210 C   0  0  0  0  0  0  0  0  0  0  0  0
  1 10  1  0  0  0  0
  2  9  1  0  0  0  0
  3  2  2  0  0  0  0
  4 11  2  0  0  0  0
  5 12  1  0  0  0  0
  7  3  1  0  0  0  0
  9  5  1  0  0  0  0
 10  7  2  0  0  0  0
 10  4  1  0  0  0  0
 11  2  1  0  0  0  0
 11 13  1  0  0  0  0
 12  6  2  1  0  0  0
 12  8  1  0  0  0  0
 13 12  1  0  0  0  0
 14  1  1  0  0  0  0
 14 15  1  0  0  0  0
 17 26  1  0  0  0  0
 17 24  1  0  0  0  0
 18 16  2  0  0  0  0
 19 21  1  0  0  0  0
 19 25  1  0  0  0  0
 20 15  1  0  0  0  0
 20 26  2  0  0  0  0
 22 19  2  0  0  0  0
 23 22  1  0  0  0  0
 23 17  2  0  0  0  0
 24 25  2  0  0  0  0
 24 16  1  0  0  0  0
 26 18  1  0  0  0  0
 27  1  1  0  0  0  0
 29 27  1  1  0  0  0
 30 35  1  1  0  0  0
 30 34  1  0  0  0  0
 32 28  1  6  0  0  0
 32 34  1  0  0  0  0
 32 29  1  0  0  0  0
 33 28  1  0  0  0  0
 33 30  1  0  0  0  0
 34 31  1  1  0  0  0
 34 29  1  0  0  0  0
 36 42  2  0  0  0  0
 37 40  1  0  0  0  0
 39 36  1  0  0  0  0
 39 37  1  0  0  0  0
 40 41  1  1  0  0  0
 40 38  1  0  0  0  0
 42 35  1  0  0  0  0
 42 38  1  0  0  0  0
M  END
>  <MODEL>
7

>  <REMARK>
 VINA RESULT:      -8.7      4.574      8.280
  Name = 
  8 active torsions:
  status: ('A' for Active; 'I' for Inactive)
    1  A    between atoms: C_10  and  C_29
    2  A    between atoms: N_13  and  C_14
    3  A    between atoms: N_13  and  C_38
    4  A    between atoms: N_18  and  O_30
    5  A    between atoms: C_23  and  O_30
    6  A    between atoms: C_23  and  N_35
    7  A    between atoms: C_27  and  N_35
    8  A    between atoms: C_29  and  N_35
                            x       y       z     vdW  Elec       q    Type
                         _______ _______ _______ _____ _____    ______ ____

>  <TORSDO>
F 8

$$$$
=
 OpenBabel10222419263D

 42 48  0  0  1  0  0  0  0  0999 V2000
  187.5530  178.2460  139.1920 N   0  0  0  0  0  0  0  0  0  0  0  0
  183.4600  178.8160  140.2540 C   0  0  0  0  0  0  0  0  0  0  0  0
  184.4710  179.0030  141.2000 C   0  0  0  0  0  3  0  0  0  0  0  0
  185.1560  178.2880  138.5890 C   0  0  0  0  0  3  0  0  0  0  0  0
  180.9990  178.4350  140.0020 C   0  0  0  0  0  2  0  0  0  0  0  0
  180.8790  180.1580  137.8930 O   0  0  0  0  0  1  0  0  0  0  0  0
  185.8100  178.8240  140.8510 C   0  0  0  0  0  3  0  0  0  0  0  0
  180.1240  177.6940  137.3550 O   0  0  0  0  0  0  0  0  0  0  0  0
  182.1270  179.0010  140.6660 O   0  0  0  0  0  0  0  0  0  0  0  0
  186.1680  178.4540  139.5460 C   0  0  0  0  0  0  0  0  0  0  0  0
  183.8100  178.4700  138.9230 C   0  0  0  0  0  0  0  0  0  0  0  0
  181.1570  178.7090  138.2260 P   0  0  2  0  0  0  0  0  0  0  0  0
  182.8270  178.3290  137.8930 N   0  0  0  0  0  2  0  0  0  0  0  0
  188.6170  178.4350  140.1710 C   0  0  0  0  0  2  0  0  0  0  0  0
  188.6830  177.3160  141.0400 O   0  0  0  0  0  0  0  0  0  0  0  0
  190.6580  177.3740  144.6960 N   0  0  0  0  0  0  0  0  0  0  0  0
  188.3390  177.4270  144.7180 C   0  0  0  0  0  0  0  0  0  0  0  0
  190.2840  177.3300  143.4490 C   0  0  0  0  0  3  0  0  0  0  0  0
  188.1200  177.5770  147.4680 C   0  0  0  0  0  0  0  0  0  0  0  0
  188.0990  177.3660  142.2860 N   0  0  0  0  0  0  0  0  0  0  0  0
  188.0010  177.6610  148.8480 O   0  0  0  0  0  1  0  0  0  0  0  0
  186.9580  177.5700  146.6640 C   0  0  0  0  0  3  0  0  0  0  0  0
  187.0590  177.4950  145.2630 C   0  0  0  0  0  3  0  0  0  0  0  0
  189.4730  177.4370  145.4900 C   0  0  0  0  0  0  0  0  0  0  0  0
  189.3970  177.5100  146.8790 C   0  0  0  0  0  3  0  0  0  0  0  0
  188.8180  177.3600  143.3600 C   0  0  0  0  0  0  0  0  0  0  0  0
  187.9520  177.8440  137.8490 C   0  0  0  0  0  2  0  0  0  0  0  0
  186.9230  174.3880  136.6210 C   0  0  0  0  0  2  0  0  0  0  0  0
  188.0380  176.3260  137.7570 C   0  0  1  0  0  3  0  0  0  0  0  0
  189.3620  174.4300  136.5470 C   0  0  1  0  0  3  0  0  0  0  0  0
  189.4650  176.8530  135.5730 C   0  0  0  0  0  1  0  0  0  0  0  0
  187.3490  175.8430  136.4840 C   0  0  1  0  0  3  0  0  0  0  0  0
  188.1650  173.5350  136.8140 C   0  0  0  0  0  2  0  0  0  0  0  0
  188.8560  175.8590  136.5530 C   0  0  2  0  0  0  0  0  0  0  0  0
  190.3670  174.2580  137.5920 N   0  0  0  0  0  2  0  0  0  0  0  0
  191.8670  175.9860  138.3300 C   0  0  0  0  0  3  0  0  0  0  0  0
  194.2400  175.8110  138.2000 O   0  0  0  0  0  0  0  0  0  0  0  0
  192.9680  174.1000  136.6320 S   0  0  0  0  0  0  0  0  0  0  0  0
  193.1770  176.7130  138.3150 C   0  0  0  0  0  2  0  0  0  0  0  0
  194.2240  175.4070  136.8620 C   0  0  2  0  0  3  0  0  0  0  0  0
  195.8250  174.7740  136.4150 Cl  0  0  0  0  0  0  0  0  0  0  0  0
  191.6510  174.8920  137.5880 C   0  0  0  0  0  0  0  0  0  0  0  0
  1 10  1  0  0  0  0
  1 14  1  0  0  0  0
  2  9  1  0  0  0  0
  2  3  1  0  0  0  0
  4 11  1  0  0  0  0
  4 10  2  0  0  0  0
  5  9  1  0  0  0  0
  6 12  1  0  0  0  0
  7  3  2  0  0  0  0
 10  7  1  0  0  0  0
 11  2  2  0  0  0  0
 12  8  2  6  0  0  0
 12  5  1  0  0  0  0
 13 12  1  0  0  0  0
 13 11  1  0  0  0  0
 14 15  1  0  0  0  0
 15 20  1  0  0  0  0
 16 24  1  0  0  0  0
 17 23  2  0  0  0  0
 17 24  1  0  0  0  0
 18 16  2  0  0  0  0
 19 21  1  0  0  0  0
 20 26  2  0  0  0  0
 22 19  2  0  0  0  0
 23 22  1  0  0  0  0
 24 25  2  0  0  0  0
 25 19  1  0  0  0  0
 26 18  1  0  0  0  0
 26 17  1  0  0  0  0
 27  1  1  0  0  0  0
 28 33  1  0  0  0  0
 29 27  1  6  0  0  0
 30 34  1  0  0  0  0
 30 33  1  0  0  0  0
 30 35  1  1  0  0  0
 32 34  1  0  0  0  0
 32 28  1  1  0  0  0
 32 29  1  0  0  0  0
 34 31  1  6  0  0  0
 34 29  1  0  0  0  0
 37 39  1  0  0  0  0
 38 40  1  0  0  0  0
 38 42  1  0  0  0  0
 39 36  1  0  0  0  0
 40 41  1  1  0  0  0
 40 37  1  0  0  0  0
 42 35  1  0  0  0  0
 42 36  2  0  0  0  0
M  END
>  <MODEL>
8

>  <REMARK>
 VINA RESULT:      -8.7      4.137      9.601
  Name = 
  8 active torsions:
  status: ('A' for Active; 'I' for Inactive)
    1  A    between atoms: C_10  and  C_29
    2  A    between atoms: N_13  and  C_14
    3  A    between atoms: N_13  and  C_38
    4  A    between atoms: N_18  and  O_30
    5  A    between atoms: C_23  and  O_30
    6  A    between atoms: C_23  and  N_35
    7  A    between atoms: C_27  and  N_35
    8  A    between atoms: C_29  and  N_35
                            x       y       z     vdW  Elec       q    Type
                         _______ _______ _______ _____ _____    ______ ____

>  <TORSDO>
F 8

$$$$
=
 OpenBabel10222419263D

 42 48  0  0  1  0  0  0  0  0999 V2000
  183.6120  178.4390  139.3510 N   0  0  0  0  0  0  0  0  0  0  0  0
  180.5100  180.5540  137.3230 C   0  0  0  0  0  0  0  0  0  0  0  0
  180.4900  179.1580  137.3920 C   0  0  0  0  0  3  0  0  0  0  0  0
  182.5640  180.5590  138.6310 C   0  0  0  0  0  3  0  0  0  0  0  0
  179.5650  182.5120  136.0840 C   0  0  0  0  0  2  0  0  0  0  0  0
  179.2540  183.9150  138.3990 O   0  0  0  0  0  1  0  0  0  0  0  0
  181.5010  178.4670  138.0620 C   0  0  0  0  0  3  0  0  0  0  0  0
  180.8310  185.0470  136.6190 O   0  0  0  0  0  0  0  0  0  0  0  0
  179.4710  181.1960  136.6260 O   0  0  0  0  0  0  0  0  0  0  0  0
  182.5540  179.1570  138.6790 C   0  0  0  0  0  0  0  0  0  0  0  0
  181.5550  181.2650  137.9680 C   0  0  0  0  0  0  0  0  0  0  0  0
  180.2730  183.6150  137.3220 P   0  0  2  0  0  0  0  0  0  0  0  0
  181.5970  182.6950  137.9910 N   0  0  0  0  0  2  0  0  0  0  0  0
  183.3650  177.7290  140.6010 C   0  0  0  0  0  2  0  0  0  0  0  0
  183.7180  178.5490  141.7040 O   0  0  0  0  0  0  0  0  0  0  0  0
  184.0910  179.0030  145.8180 N   0  0  0  0  0  0  0  0  0  0  0  0
  185.9170  178.1790  144.6500 C   0  0  0  0  0  0  0  0  0  0  0  0
  183.7340  178.9720  144.5650 C   0  0  0  0  0  3  0  0  0  0  0  0
  187.5120  177.8510  146.8820 C   0  0  0  0  0  0  0  0  0  0  0  0
  184.8290  178.2560  142.4630 N   0  0  0  0  0  0  0  0  0  0  0  0
  188.3160  177.6750  148.0000 O   0  0  0  0  0  1  0  0  0  0  0  0
  188.0020  177.5030  145.6040 C   0  0  0  0  0  3  0  0  0  0  0  0
  187.1990  177.6650  144.4620 C   0  0  0  0  0  3  0  0  0  0  0  0
  185.4310  178.5160  145.8880 C   0  0  0  0  0  0  0  0  0  0  0  0
  186.2090  178.3650  147.0330 C   0  0  0  0  0  3  0  0  0  0  0  0
  184.8360  178.4570  143.7400 C   0  0  0  0  0  0  0  0  0  0  0  0
  184.9690  178.3930  138.8200 C   0  0  0  0  0  2  0  0  0  0  0  0
  184.4370  176.2460  135.7200 C   0  0  0  0  0  2  0  0  0  0  0  0
  185.1500  177.1610  137.9420 C   0  0  1  0  0  3  0  0  0  0  0  0
  186.8170  176.1020  136.2370 C   0  0  1  0  0  3  0  0  0  0  0  0
  187.0300  178.6480  136.7860 C   0  0  0  0  0  1  0  0  0  0  0  0
  184.8100  177.5020  136.4950 C   0  0  1  0  0  3  0  0  0  0  0  0
  185.6370  175.3150  135.6950 C   0  0  0  0  0  2  0  0  0  0  0  0
  186.2540  177.3430  136.9010 C   0  0  2  0  0  0  0  0  0  0  0  0
  187.5510  175.3070  137.2170 N   0  0  0  0  0  2  0  0  0  0  0  0
  189.6690  176.1400  137.9940 C   0  0  0  0  0  3  0  0  0  0  0  0
  191.6530  174.8230  138.0670 O   0  0  0  0  0  0  0  0  0  0  0  0
  189.7830  173.8260  136.4820 S   0  0  0  0  0  0  0  0  0  0  0  0
  191.1660  176.1340  138.0520 C   0  0  0  0  0  2  0  0  0  0  0  0
  191.5050  174.3700  136.7530 C   0  0  2  0  0  3  0  0  0  0  0  0
  192.6080  173.0040  136.4690 Cl  0  0  0  0  0  0  0  0  0  0  0  0
  188.9790  175.2330  137.2880 C   0  0  0  0  0  0  0  0  0  0  0  0
  1 14  1  0  0  0  0
  2  3  2  0  0  0  0
  2 11  1  0  0  0  0
  3  7  1  0  0  0  0
  4 10  1  0  0  0  0
  5  9  1  0  0  0  0
  5 12  1  0  0  0  0
  7 10  2  0  0  0  0
  9  2  1  0  0  0  0
 10  1  1  0  0  0  0
 11 13  1  0  0  0  0
 11  4  2  0  0  0  0
 12  8  2  6  0  0  0
 12 13  1  0  0  0  0
 12  6  1  0  0  0  0
 14 15  1  0  0  0  0
 15 20  1  0  0  0  0
 16 24  1  0  0  0  0
 17 24  1  0  0  0  0
 18 16  2  0  0  0  0
 19 25  1  0  0  0  0
 19 21  1  0  0  0  0
 20 26  2  0  0  0  0
 22 19  2  0  0  0  0
 23 17  2  0  0  0  0
 23 22  1  0  0  0  0
 24 25  2  0  0  0  0
 26 18  1  0  0  0  0
 26 17  1  0  0  0  0
 27  1  1  0  0  0  0
 29 27  1  1  0  0  0
 30 34  1  0  0  0  0
 30 35  1  1  0  0  0
 32 28  1  6  0  0  0
 32 34  1  0  0  0  0
 32 29  1  0  0  0  0
 33 28  1  0  0  0  0
 33 30  1  0  0  0  0
 34 31  1  1  0  0  0
 34 29  1  0  0  0  0
 35 42  1  0  0  0  0
 36 39  1  0  0  0  0
 38 40  1  0  0  0  0
 38 42  1  0  0  0  0
 39 37  1  0  0  0  0
 40 41  1  1  0  0  0
 40 37  1  0  0  0  0
 42 36  2  0  0  0  0
M  END
>  <MODEL>
9

>  <REMARK>
 VINA RESULT:      -8.6      4.613     10.392
  Name = 
  8 active torsions:
  status: ('A' for Active; 'I' for Inactive)
    1  A    between atoms: C_10  and  C_29
    2  A    between atoms: N_13  and  C_14
    3  A    between atoms: N_13  and  C_38
    4  A    between atoms: N_18  and  O_30
    5  A    between atoms: C_23  and  O_30
    6  A    between atoms: C_23  and  N_35
    7  A    between atoms: C_27  and  N_35
    8  A    between atoms: C_29  and  N_35
                            x       y       z     vdW  Elec       q    Type
                         _______ _______ _______ _____ _____    ______ ____

>  <TORSDO>
F 8

$$$$
