=
 OpenBabel10222416293D

 32 35  0  0  1  0  0  0  0  0999 V2000
  181.7910  179.3920  139.2530 N   0  0  0  0  0  0  0  0  0  0  0  0
  181.7880  178.8030  142.0590 C   0  0  2  0  0  3  0  0  0  0  0  0
  187.8970  177.1050  143.5950 C   0  0  0  0  0  2  0  0  0  0  0  0
  184.1650  178.4870  141.7290 C   0  0  0  0  0  0  0  0  0  0  0  0
  189.9080  177.6290  141.9910 C   0  0  1  0  0  3  0  0  0  0  0  0
  182.8200  178.7320  139.7070 C   0  0  0  0  0  0  0  0  0  0  0  0
  187.4770  177.9680  141.2120 N   0  0  0  0  0  0  0  0  0  0  0  0
  186.5120  179.0030  141.5630 C   0  0  0  0  0  2  0  0  0  0  0  0
  185.3430  178.4010  142.2770 C   0  0  0  0  0  0  0  0  0  0  0  0
  185.4650  177.7510  143.6250 C   0  0  0  0  0  2  0  0  0  0  0  0
  180.8050  179.9860  140.1130 C   0  0  0  0  0  3  0  0  0  0  0  0
  182.9840  178.5900  141.1770 C   0  0  0  0  0  0  0  0  0  0  0  0
  186.8270  177.9390  144.2880 C   0  0  1  0  0  3  0  0  0  0  0  0
  186.7300  177.5030  145.7340 C   0  0  0  0  0  1  0  0  0  0  0  0
  188.4270  177.8020  142.3380 C   0  0  1  0  0  0  0  0  0  0  0  0
  181.1640  177.5880  142.2730 F   0  0  0  0  0  0  0  0  0  0  0  0
  189.3960  178.9490  142.5670 C   0  0  0  0  0  2  0  0  0  0  0  0
  190.6250  176.9010  143.0260 N   0  0  0  0  0  1  0  0  0  0  0  0
  180.8050  179.7530  141.4290 C   0  0  0  0  0  3  0  0  0  0  0  0
  184.8750  178.8500  138.3460 N   0  0  0  0  0  0  0  0  0  0  0  0
  185.5870  177.0200  136.9910 C   0  0  0  0  0  0  0  0  0  0  0  0
  183.5860  176.8840  138.2770 N   0  0  0  0  0  0  0  0  0  0  0  0
  185.7770  178.3120  137.4850 C   0  0  0  0  0  3  0  0  0  0  0  0
  184.4620  176.3140  137.4110 C   0  0  0  0  0  3  0  0  0  0  0  0
  183.7780  178.1480  138.7430 C   0  0  0  0  0  0  0  0  0  0  0  0
  187.1230  175.1180  136.3280 C   0  0  0  0  0  1  0  0  0  0  0  0
  186.5120  176.4150  136.0850 N   0  0  0  0  0  2  0  0  0  0  0  0
  188.6090  176.2460  139.3130 O   0  0  0  0  0  0  0  0  0  0  0  0
  189.3810  179.3730  137.5940 C   0  0  0  0  0  1  0  0  0  0  0  0
  188.6740  177.4850  139.0980 C   0  0  0  0  0  0  0  0  0  0  0  0
  189.2920  177.9570  137.9040 N   0  0  0  0  0  2  0  0  0  0  0  0
  188.1300  178.4070  140.0460 N   0  0  0  0  0  2  0  0  0  0  0  0
  1  6  2  0  0  0  0
  1 11  1  0  0  0  0
  2 16  1  6  0  0  0
  3 13  1  0  0  0  0
  4  9  2  0  0  0  0
  5 15  1  0  0  0  0
  5 17  1  0  0  0  0
  5 18  1  1  0  0  0
  6 12  1  0  0  0  0
  7  8  1  0  0  0  0
  7 15  1  0  0  0  0
  8  9  1  0  0  0  0
  9 10  1  0  0  0  0
 10 13  1  0  0  0  0
 11 19  2  0  0  0  0
 12  4  2  0  0  0  0
 12  2  1  0  0  0  0
 13 14  1  1  0  0  0
 15 17  1  1  0  0  0
 15  3  1  0  0  0  0
 19  2  1  0  0  0  0
 20 25  2  0  0  0  0
 21 24  1  0  0  0  0
 21 23  2  0  0  0  0
 22 25  1  0  0  0  0
 23 20  1  0  0  0  0
 24 22  2  0  0  0  0
 25  6  1  0  0  0  0
 27 26  1  0  0  0  0
 27 21  1  0  0  0  0
 29 31  1  0  0  0  0
 30 28  2  0  0  0  0
 30 32  1  0  0  0  0
 31 30  1  0  0  0  0
 32  7  1  0  0  0  0
M  END
>  <MODEL>
1

>  <REMARK>
 VINA RESULT:      -6.6      0.000      0.000
  Name = 
  3 active torsions:
  status: ('A' for Active; 'I' for Inactive)
    1  A    between atoms: C_10  and  N_13
    2  A    between atoms: C_14  and  C_32
    3  A    between atoms: N_15  and  N_29
                            x       y       z     vdW  Elec       q    Type
                         _______ _______ _______ _____ _____    ______ ____

>  <TORSDO>
F 3

$$$$
=
 OpenBabel10222416293D

 32 35  0  0  1  0  0  0  0  0999 V2000
  187.3940  177.2640  144.5100 N   0  0  0  0  0  0  0  0  0  0  0  0
  184.9580  178.6540  145.1040 C   0  0  2  0  0  3  0  0  0  0  0  0
  181.8440  179.4260  139.4230 C   0  0  0  0  0  2  0  0  0  0  0  0
  184.5200  178.3550  142.7420 C   0  0  0  0  0  0  0  0  0  0  0  0
  182.5110  178.0390  137.2960 C   0  0  1  0  0  3  0  0  0  0  0  0
  186.7730  177.8010  143.4980 C   0  0  0  0  0  0  0  0  0  0  0  0
  183.9770  177.9960  139.4130 N   0  0  0  0  0  0  0  0  0  0  0  0
  183.7590  177.3380  140.6960 C   0  0  0  0  0  2  0  0  0  0  0  0
  183.6360  178.3550  141.7860 C   0  0  0  0  0  0  0  0  0  0  0  0
  182.5040  179.3390  141.8500 C   0  0  0  0  0  2  0  0  0  0  0  0
  186.8140  177.1740  145.8220 C   0  0  0  0  0  3  0  0  0  0  0  0
  185.4040  178.3400  143.7050 C   0  0  0  0  0  0  0  0  0  0  0  0
  181.3920  179.0800  140.8360 C   0  0  1  0  0  3  0  0  0  0  0  0
  180.1980  179.9390  141.1910 C   0  0  0  0  0  1  0  0  0  0  0  0
  182.6600  178.2900  138.8000 C   0  0  1  0  0  0  0  0  0  0  0  0
  185.2400  179.9790  145.3790 F   0  0  0  0  0  0  0  0  0  0  0  0
  181.8710  177.0890  138.3080 C   0  0  0  0  0  2  0  0  0  0  0  0
  181.4790  178.8790  136.7080 N   0  0  0  0  0  1  0  0  0  0  0  0
  185.6610  177.7860  146.1110 C   0  0  0  0  0  3  0  0  0  0  0  0
  187.1010  178.7890  141.2610 N   0  0  0  0  0  0  0  0  0  0  0  0
  188.7820  177.9860  139.7700 C   0  0  0  0  0  0  0  0  0  0  0  0
  188.4750  176.9960  141.9160 N   0  0  0  0  0  0  0  0  0  0  0  0
  187.7410  178.8690  140.0660 C   0  0  0  0  0  3  0  0  0  0  0  0
  189.1360  177.0420  140.7300 C   0  0  0  0  0  3  0  0  0  0  0  0
  187.4560  177.8570  142.1870 C   0  0  0  0  0  0  0  0  0  0  0  0
  189.1730  179.0010  137.4830 C   0  0  0  0  0  1  0  0  0  0  0  0
  189.4820  178.0360  138.5260 N   0  0  0  0  0  2  0  0  0  0  0  0
  185.8990  178.7980  137.5380 O   0  0  0  0  0  0  0  0  0  0  0  0
  186.3210  175.1980  137.0950 C   0  0  0  0  0  1  0  0  0  0  0  0
  185.7090  177.5630  137.6960 C   0  0  0  0  0  0  0  0  0  0  0  0
  186.4830  176.6330  136.9430 N   0  0  0  0  0  2  0  0  0  0  0  0
  184.7260  177.1020  138.6260 N   0  0  0  0  0  2  0  0  0  0  0  0
  1 11  1  0  0  0  0
  2 16  1  1  0  0  0
  2 19  1  0  0  0  0
  3 13  1  0  0  0  0
  4 12  2  0  0  0  0
  5 18  1  6  0  0  0
  5 17  1  0  0  0  0
  5 15  1  0  0  0  0
  6 12  1  0  0  0  0
  6  1  2  0  0  0  0
  7  8  1  0  0  0  0
  8  9  1  0  0  0  0
  9 10  1  0  0  0  0
  9  4  2  0  0  0  0
 11 19  2  0  0  0  0
 12  2  1  0  0  0  0
 13 14  1  1  0  0  0
 13 10  1  0  0  0  0
 15 17  1  1  0  0  0
 15  7  1  0  0  0  0
 15  3  1  0  0  0  0
 20 25  2  0  0  0  0
 21 23  2  0  0  0  0
 21 24  1  0  0  0  0
 22 25  1  0  0  0  0
 23 20  1  0  0  0  0
 24 22  2  0  0  0  0
 25  6  1  0  0  0  0
 26 27  1  0  0  0  0
 27 21  1  0  0  0  0
 28 30  2  0  0  0  0
 30 32  1  0  0  0  0
 31 29  1  0  0  0  0
 31 30  1  0  0  0  0
 32  7  1  0  0  0  0
M  END
>  <MODEL>
2

>  <REMARK>
 VINA RESULT:      -6.5      1.844      5.829
  Name = 
  3 active torsions:
  status: ('A' for Active; 'I' for Inactive)
    1  A    between atoms: C_10  and  N_13
    2  A    between atoms: C_14  and  C_32
    3  A    between atoms: N_15  and  N_29
                            x       y       z     vdW  Elec       q    Type
                         _______ _______ _______ _____ _____    ______ ____

>  <TORSDO>
F 3

$$$$
=
 OpenBabel10222416293D

 32 35  0  0  1  0  0  0  0  0999 V2000
  186.7620  177.8730  144.0800 N   0  0  0  0  0  0  0  0  0  0  0  0
  184.2500  179.2520  144.0160 C   0  0  2  0  0  3  0  0  0  0  0  0
  182.1110  178.9040  137.8630 C   0  0  0  0  0  2  0  0  0  0  0  0
  184.2100  178.5300  141.7060 C   0  0  0  0  0  0  0  0  0  0  0  0
  183.1310  177.1940  136.1530 C   0  0  1  0  0  3  0  0  0  0  0  0
  186.3130  178.2010  142.9020 C   0  0  0  0  0  0  0  0  0  0  0  0
  184.2280  177.5750  138.4510 N   0  0  0  0  0  0  0  0  0  0  0  0
  183.8060  177.1430  139.7790 C   0  0  0  0  0  2  0  0  0  0  0  0
  183.4960  178.3290  140.6350 C   0  0  0  0  0  0  0  0  0  0  0  0
  182.3610  179.2670  140.3400 C   0  0  0  0  0  2  0  0  0  0  0  0
  185.9740  177.9910  145.2760 C   0  0  0  0  0  3  0  0  0  0  0  0
  184.9240  178.7150  142.7860 C   0  0  0  0  0  0  0  0  0  0  0  0
  181.4350  178.7920  139.2230 C   0  0  1  0  0  3  0  0  0  0  0  0
  180.1910  179.6550  139.2220 C   0  0  0  0  0  1  0  0  0  0  0  0
  183.0280  177.7080  137.5910 C   0  0  1  0  0  0  0  0  0  0  0  0
  184.4720  180.6150  144.0930 F   0  0  0  0  0  0  0  0  0  0  0  0
  182.3410  176.4110  137.2010 C   0  0  0  0  0  2  0  0  0  0  0  0
  182.2040  177.8780  135.2660 N   0  0  0  0  0  1  0  0  0  0  0  0
  184.7840  178.6000  145.2620 C   0  0  0  0  0  3  0  0  0  0  0  0
  186.9480  178.7320  140.5770 N   0  0  0  0  0  0  0  0  0  0  0  0
  188.9060  177.8130  139.5710 C   0  0  0  0  0  0  0  0  0  0  0  0
  188.3070  177.2620  141.8110 N   0  0  0  0  0  0  0  0  0  0  0  0
  187.7740  178.6280  139.5040 C   0  0  0  0  0  3  0  0  0  0  0  0
  189.1540  177.1270  140.7590 C   0  0  0  0  0  3  0  0  0  0  0  0
  187.2020  178.0530  141.7290 C   0  0  0  0  0  0  0  0  0  0  0  0
  190.4460  176.4160  138.1250 C   0  0  0  0  0  1  0  0  0  0  0  0
  189.8020  177.6750  138.4670 N   0  0  0  0  0  2  0  0  0  0  0  0
  186.3880  178.1010  136.7450 O   0  0  0  0  0  0  0  0  0  0  0  0
  186.9490  174.5080  137.0770 C   0  0  0  0  0  1  0  0  0  0  0  0
  186.2030  176.9100  137.1130 C   0  0  0  0  0  0  0  0  0  0  0  0
  187.1000  175.8940  136.6720 N   0  0  0  0  0  2  0  0  0  0  0  0
  185.1040  176.5860  137.9670 N   0  0  0  0  0  2  0  0  0  0  0  0
  1 11  1  0  0  0  0
  2 16  1  1  0  0  0
  2 19  1  0  0  0  0
  3 13  1  0  0  0  0
  4 12  2  0  0  0  0
  5 18  1  6  0  0  0
  5 17  1  0  0  0  0
  5 15  1  0  0  0  0
  6  1  2  0  0  0  0
  7  8  1  0  0  0  0
  8  9  1  0  0  0  0
  9  4  2  0  0  0  0
 10  9  1  0  0  0  0
 12  6  1  0  0  0  0
 12  2  1  0  0  0  0
 13 14  1  6  0  0  0
 13 10  1  0  0  0  0
 15 17  1  1  0  0  0
 15  3  1  0  0  0  0
 15  7  1  0  0  0  0
 19 11  2  0  0  0  0
 20 25  2  0  0  0  0
 21 24  1  0  0  0  0
 23 21  2  0  0  0  0
 23 20  1  0  0  0  0
 24 22  2  0  0  0  0
 25 22  1  0  0  0  0
 25  6  1  0  0  0  0
 26 27  1  0  0  0  0
 27 21  1  0  0  0  0
 28 30  2  0  0  0  0
 30 32  1  0  0  0  0
 31 29  1  0  0  0  0
 31 30  1  0  0  0  0
 32  7  1  0  0  0  0
M  END
>  <MODEL>
3

>  <REMARK>
 VINA RESULT:      -6.3      1.874      5.779
  Name = 
  3 active torsions:
  status: ('A' for Active; 'I' for Inactive)
    1  A    between atoms: C_10  and  N_13
    2  A    between atoms: C_14  and  C_32
    3  A    between atoms: N_15  and  N_29
                            x       y       z     vdW  Elec       q    Type
                         _______ _______ _______ _____ _____    ______ ____

>  <TORSDO>
F 3

$$$$
=
 OpenBabel10222416293D

 32 35  0  0  1  0  0  0  0  0999 V2000
  179.9000  179.6660  140.3330 N   0  0  0  0  0  0  0  0  0  0  0  0
  180.2870  179.7460  143.1720 C   0  0  2  0  0  3  0  0  0  0  0  0
  186.3290  177.5430  144.2720 C   0  0  0  0  0  2  0  0  0  0  0  0
  182.5260  179.0070  142.6240 C   0  0  0  0  0  0  0  0  0  0  0  0
  188.0970  177.3730  142.3400 C   0  0  1  0  0  3  0  0  0  0  0  0
  180.9060  178.9800  140.7990 C   0  0  0  0  0  0  0  0  0  0  0  0
  185.6270  177.8870  141.8260 N   0  0  0  0  0  0  0  0  0  0  0  0
  184.8580  179.1090  142.0290 C   0  0  0  0  0  2  0  0  0  0  0  0
  183.7600  178.8720  143.0170 C   0  0  0  0  0  0  0  0  0  0  0  0
  184.0250  178.5390  144.4570 C   0  0  0  0  0  2  0  0  0  0  0  0
  179.1430  180.5840  141.1380 C   0  0  0  0  0  3  0  0  0  0  0  0
  181.2900  179.1570  142.2230 C   0  0  0  0  0  0  0  0  0  0  0  0
  185.4900  178.6660  144.8680 C   0  0  1  0  0  3  0  0  0  0  0  0
  185.5810  178.5950  146.3770 C   0  0  0  0  0  1  0  0  0  0  0  0
  186.7230  177.8430  142.8230 C   0  0  1  0  0  0  0  0  0  0  0  0
  179.5710  178.7220  143.7630 F   0  0  0  0  0  0  0  0  0  0  0  0
  187.8420  178.8520  142.6290 C   0  0  0  0  0  2  0  0  0  0  0  0
  188.8850  176.8030  143.4220 N   0  0  0  0  0  1  0  0  0  0  0  0
  179.3310  180.6630  142.4580 C   0  0  0  0  0  3  0  0  0  0  0  0
  182.0220  176.8290  140.3370 N   0  0  0  0  0  0  0  0  0  0  0  0
  182.8960  176.3080  138.1790 C   0  0  0  0  0  0  0  0  0  0  0  0
  181.8420  178.4040  138.5990 N   0  0  0  0  0  0  0  0  0  0  0  0
  182.6510  175.9560  139.5080 C   0  0  0  0  0  3  0  0  0  0  0  0
  182.4730  177.5610  137.7410 C   0  0  0  0  0  3  0  0  0  0  0  0
  181.6190  178.0520  139.8950 C   0  0  0  0  0  0  0  0  0  0  0  0
  184.0420  174.1090  137.6660 C   0  0  0  0  0  1  0  0  0  0  0  0
  183.5530  175.4200  137.2730 N   0  0  0  0  0  2  0  0  0  0  0  0
  184.5810  179.5470  139.8250 O   0  0  0  0  0  0  0  0  0  0  0  0
  187.2680  178.0870  137.8300 C   0  0  0  0  0  1  0  0  0  0  0  0
  185.5670  178.8210  139.5330 C   0  0  0  0  0  0  0  0  0  0  0  0
  186.1210  178.8870  138.2210 N   0  0  0  0  0  2  0  0  0  0  0  0
  186.1260  177.9420  140.5110 N   0  0  0  0  0  2  0  0  0  0  0  0
  1  6  2  0  0  0  0
  1 11  1  0  0  0  0
  2 16  1  6  0  0  0
  3 13  1  0  0  0  0
  4  9  2  0  0  0  0
  5 17  1  0  0  0  0
  5 15  1  0  0  0  0
  5 18  1  1  0  0  0
  6 12  1  0  0  0  0
  7  8  1  0  0  0  0
  7 15  1  0  0  0  0
  8  9  1  0  0  0  0
  9 10  1  0  0  0  0
 10 13  1  0  0  0  0
 11 19  2  0  0  0  0
 12  4  2  0  0  0  0
 12  2  1  0  0  0  0
 13 14  1  1  0  0  0
 15 17  1  1  0  0  0
 15  3  1  0  0  0  0
 19  2  1  0  0  0  0
 21 23  2  0  0  0  0
 22 25  1  0  0  0  0
 23 20  1  0  0  0  0
 24 21  1  0  0  0  0
 24 22  2  0  0  0  0
 25 20  2  0  0  0  0
 25  6  1  0  0  0  0
 27 26  1  0  0  0  0
 27 21  1  0  0  0  0
 29 31  1  0  0  0  0
 30 28  2  0  0  0  0
 30 32  1  0  0  0  0
 31 30  1  0  0  0  0
 32  7  1  0  0  0  0
M  END
>  <MODEL>
4

>  <REMARK>
 VINA RESULT:      -6.2      2.012      2.602
  Name = 
  3 active torsions:
  status: ('A' for Active; 'I' for Inactive)
    1  A    between atoms: C_10  and  N_13
    2  A    between atoms: C_14  and  C_32
    3  A    between atoms: N_15  and  N_29
                            x       y       z     vdW  Elec       q    Type
                         _______ _______ _______ _____ _____    ______ ____

>  <TORSDO>
F 3

$$$$
=
 OpenBabel10222416293D

 32 35  0  0  1  0  0  0  0  0999 V2000
  180.6700  179.5040  140.6900 N   0  0  0  0  0  0  0  0  0  0  0  0
  181.6540  178.9610  143.3270 C   0  0  2  0  0  3  0  0  0  0  0  0
  187.8970  177.1980  142.6390 C   0  0  0  0  0  2  0  0  0  0  0  0
  183.7580  178.6040  142.1840 C   0  0  0  0  0  0  0  0  0  0  0  0
  189.2160  177.6660  140.4180 C   0  0  1  0  0  3  0  0  0  0  0  0
  181.7870  178.8360  140.7640 C   0  0  0  0  0  0  0  0  0  0  0  0
  186.6700  178.0280  140.5420 N   0  0  0  0  0  0  0  0  0  0  0  0
  185.8990  179.0830  141.1900 C   0  0  0  0  0  2  0  0  0  0  0  0
  185.0530  178.5100  142.2830 C   0  0  0  0  0  0  0  0  0  0  0  0
  185.6380  177.8800  143.5140 C   0  0  0  0  0  2  0  0  0  0  0  0
  180.0560  180.1260  141.8300 C   0  0  0  0  0  3  0  0  0  0  0  0
  182.4590  178.7160  142.0840 C   0  0  0  0  0  0  0  0  0  0  0  0
  187.1490  178.0580  143.6480 C   0  0  1  0  0  3  0  0  0  0  0  0
  187.5650  177.6480  145.0440 C   0  0  0  0  0  1  0  0  0  0  0  0
  187.9550  177.8660  141.2620 C   0  0  1  0  0  0  0  0  0  0  0  0
  181.1360  177.7590  143.7720 F   0  0  0  0  0  0  0  0  0  0  0  0
  188.9510  179.0030  141.1100 C   0  0  0  0  0  2  0  0  0  0  0  0
  190.2460  176.9440  141.1480 N   0  0  0  0  0  1  0  0  0  0  0  0
  180.5200  179.9140  143.0660 C   0  0  0  0  0  3  0  0  0  0  0  0
  182.5580  176.8810  139.4720 N   0  0  0  0  0  0  0  0  0  0  0  0
  183.3070  177.0860  137.2160 C   0  0  0  0  0  0  0  0  0  0  0  0
  182.5900  178.9970  138.4450 N   0  0  0  0  0  0  0  0  0  0  0  0
  183.0340  176.3020  138.3390 C   0  0  0  0  0  3  0  0  0  0  0  0
  183.0720  178.4560  137.2970 C   0  0  0  0  0  3  0  0  0  0  0  0
  182.3370  178.2230  139.5360 C   0  0  0  0  0  0  0  0  0  0  0  0
  184.0470  175.0930  135.8390 C   0  0  0  0  0  1  0  0  0  0  0  0
  183.8080  176.5180  136.0040 N   0  0  0  0  0  2  0  0  0  0  0  0
  186.5950  176.2920  138.3430 O   0  0  0  0  0  0  0  0  0  0  0  0
  187.1950  179.3640  136.4630 C   0  0  0  0  0  1  0  0  0  0  0  0
  186.8040  177.5140  138.1230 C   0  0  0  0  0  0  0  0  0  0  0  0
  186.9690  177.9650  136.7810 N   0  0  0  0  0  2  0  0  0  0  0  0
  186.8710  178.4380  139.2110 N   0  0  0  0  0  2  0  0  0  0  0  0
  1  6  2  0  0  0  0
  1 11  1  0  0  0  0
  2 16  1  6  0  0  0
  3 13  1  0  0  0  0
  4  9  2  0  0  0  0
  5 17  1  0  0  0  0
  5 18  1  1  0  0  0
  5 15  1  0  0  0  0
  6 12  1  0  0  0  0
  7  8  1  0  0  0  0
  7 15  1  0  0  0  0
  8  9  1  0  0  0  0
  9 10  1  0  0  0  0
 10 13  1  0  0  0  0
 11 19  2  0  0  0  0
 12  4  2  0  0  0  0
 12  2  1  0  0  0  0
 13 14  1  1  0  0  0
 15 17  1  1  0  0  0
 15  3  1  0  0  0  0
 19  2  1  0  0  0  0
 20 25  2  0  0  0  0
 21 24  1  0  0  0  0
 21 23  2  0  0  0  0
 22 25  1  0  0  0  0
 23 20  1  0  0  0  0
 24 22  2  0  0  0  0
 25  6  1  0  0  0  0
 26 27  1  0  0  0  0
 27 21  1  0  0  0  0
 29 31  1  0  0  0  0
 30 28  2  0  0  0  0
 30 32  1  0  0  0  0
 31 30  1  0  0  0  0
 32  7  1  0  0  0  0
M  END
>  <MODEL>
5

>  <REMARK>
 VINA RESULT:      -5.9      1.533      1.907
  Name = 
  3 active torsions:
  status: ('A' for Active; 'I' for Inactive)
    1  A    between atoms: C_10  and  N_13
    2  A    between atoms: C_14  and  C_32
    3  A    between atoms: N_15  and  N_29
                            x       y       z     vdW  Elec       q    Type
                         _______ _______ _______ _____ _____    ______ ____

>  <TORSDO>
F 3

$$$$
=
 OpenBabel10222416293D

 32 35  0  0  1  0  0  0  0  0999 V2000
  183.6040  179.4950  143.0150 N   0  0  0  0  0  0  0  0  0  0  0  0
  185.5730  178.4010  144.7880 C   0  0  2  0  0  3  0  0  0  0  0  0
  190.3350  176.0240  141.0160 C   0  0  0  0  0  2  0  0  0  0  0  0
  186.8020  177.9850  142.7450 C   0  0  0  0  0  0  0  0  0  0  0  0
  190.5400  176.6900  138.4860 C   0  0  1  0  0  3  0  0  0  0  0  0
  184.4810  178.6920  142.4810 C   0  0  0  0  0  0  0  0  0  0  0  0
  188.4580  177.3370  139.8560 N   0  0  0  0  0  0  0  0  0  0  0  0
  188.2880  178.3550  140.8860 C   0  0  0  0  0  2  0  0  0  0  0  0
  187.9530  177.7170  142.1960 C   0  0  0  0  0  0  0  0  0  0  0  0
  188.9100  176.8220  142.9300 C   0  0  0  0  0  2  0  0  0  0  0  0
  183.7160  179.9880  144.3600 C   0  0  0  0  0  3  0  0  0  0  0  0
  185.6510  178.2710  143.2950 C   0  0  0  0  0  0  0  0  0  0  0  0
  190.3150  176.7890  142.3330 C   0  0  1  0  0  3  0  0  0  0  0  0
  191.2430  176.1020  143.3110 C   0  0  0  0  0  1  0  0  0  0  0  0
  189.8750  176.9000  139.8480 C   0  0  1  0  0  0  0  0  0  0  0  0
  185.1040  177.2150  145.3210 F   0  0  0  0  0  0  0  0  0  0  0  0
  190.8820  177.9150  139.3340 C   0  0  0  0  0  2  0  0  0  0  0  0
  191.6340  175.7350  138.5590 N   0  0  0  0  0  1  0  0  0  0  0  0
  184.6490  179.5180  145.1930 C   0  0  0  0  0  3  0  0  0  0  0  0
  183.4570  177.1730  140.8270 N   0  0  0  0  0  0  0  0  0  0  0  0
  183.8550  177.4170  138.4870 C   0  0  0  0  0  0  0  0  0  0  0  0
  184.8760  178.8860  140.0610 N   0  0  0  0  0  0  0  0  0  0  0  0
  183.2370  176.7590  139.5530 C   0  0  0  0  0  3  0  0  0  0  0  0
  184.6850  178.4980  138.7740 C   0  0  0  0  0  3  0  0  0  0  0  0
  184.2750  178.2290  141.0910 C   0  0  0  0  0  0  0  0  0  0  0  0
  183.9920  175.6900  136.6410 C   0  0  0  0  0  1  0  0  0  0  0  0
  183.6500  177.0150  137.1320 N   0  0  0  0  0  2  0  0  0  0  0  0
  187.3610  175.9340  137.6930 O   0  0  0  0  0  0  0  0  0  0  0  0
  187.2670  179.2500  136.1660 C   0  0  0  0  0  1  0  0  0  0  0  0
  187.5210  177.1770  137.5690 C   0  0  0  0  0  0  0  0  0  0  0  0
  187.1220  177.8180  136.3600 N   0  0  0  0  0  2  0  0  0  0  0  0
  188.0950  177.9360  138.6360 N   0  0  0  0  0  2  0  0  0  0  0  0
  1 11  1  0  0  0  0
  2 19  1  0  0  0  0
  2 16  1  1  0  0  0
  3 13  1  0  0  0  0
  4 12  2  0  0  0  0
  5 18  1  1  0  0  0
  5 17  1  0  0  0  0
  5 15  1  0  0  0  0
  6  1  2  0  0  0  0
  6 12  1  0  0  0  0
  7  8  1  0  0  0  0
  8  9  1  0  0  0  0
  9  4  2  0  0  0  0
  9 10  1  0  0  0  0
 11 19  2  0  0  0  0
 12  2  1  0  0  0  0
 13 10  1  0  0  0  0
 13 14  1  1  0  0  0
 15 17  1  1  0  0  0
 15  7  1  0  0  0  0
 15  3  1  0  0  0  0
 20 25  2  0  0  0  0
 21 24  1  0  0  0  0
 21 23  2  0  0  0  0
 22 25  1  0  0  0  0
 23 20  1  0  0  0  0
 24 22  2  0  0  0  0
 25  6  1  0  0  0  0
 26 27  1  0  0  0  0
 27 21  1  0  0  0  0
 29 31  1  0  0  0  0
 30 28  2  0  0  0  0
 30 32  1  0  0  0  0
 31 30  1  0  0  0  0
 32  7  1  0  0  0  0
M  END
>  <MODEL>
6

>  <REMARK>
 VINA RESULT:      -5.9      2.172      3.494
  Name = 
  3 active torsions:
  status: ('A' for Active; 'I' for Inactive)
    1  A    between atoms: C_10  and  N_13
    2  A    between atoms: C_14  and  C_32
    3  A    between atoms: N_15  and  N_29
                            x       y       z     vdW  Elec       q    Type
                         _______ _______ _______ _____ _____    ______ ____

>  <TORSDO>
F 3

$$$$
=
 OpenBabel10222416293D

 32 35  0  0  1  0  0  0  0  0999 V2000
  189.5360  178.7930  143.4830 N   0  0  0  0  0  0  0  0  0  0  0  0
  191.0950  177.0090  141.8690 C   0  0  2  0  0  3  0  0  0  0  0  0
  187.5490  175.7750  136.5340 C   0  0  0  0  0  2  0  0  0  0  0  0
  189.2670  177.2510  140.3010 C   0  0  0  0  0  0  0  0  0  0  0  0
  185.4950  177.2720  135.8770 C   0  0  1  0  0  3  0  0  0  0  0  0
  188.9000  178.1690  142.5320 C   0  0  0  0  0  0  0  0  0  0  0  0
  186.6480  177.5430  138.1640 N   0  0  0  0  0  0  0  0  0  0  0  0
  187.9320  178.1430  138.5050 C   0  0  0  0  0  2  0  0  0  0  0  0
  188.8530  177.1110  139.0730 C   0  0  0  0  0  0  0  0  0  0  0  0
  189.3630  175.9500  138.2690 C   0  0  0  0  0  2  0  0  0  0  0  0
  190.9670  178.7740  143.6070 C   0  0  0  0  0  3  0  0  0  0  0  0
  189.6870  177.4060  141.5290 C   0  0  0  0  0  0  0  0  0  0  0  0
  189.0300  176.0280  136.7810 C   0  0  1  0  0  3  0  0  0  0  0  0
  189.8340  174.9770  136.0460 C   0  0  0  0  0  1  0  0  0  0  0  0
  186.7150  177.0370  136.7720 C   0  0  1  0  0  0  0  0  0  0  0  0
  191.0830  175.7480  142.4350 F   0  0  0  0  0  0  0  0  0  0  0  0
  186.7690  178.0920  135.6810 C   0  0  0  0  0  2  0  0  0  0  0  0
  185.3980  176.2770  134.8220 N   0  0  0  0  0  1  0  0  0  0  0  0
  191.7170  177.9750  142.8410 C   0  0  0  0  0  3  0  0  0  0  0  0
  186.6710  177.4850  143.3380 N   0  0  0  0  0  0  0  0  0  0  0  0
  184.6700  178.4310  142.4450 C   0  0  0  0  0  0  0  0  0  0  0  0
  186.8080  179.0960  141.6300 N   0  0  0  0  0  0  0  0  0  0  0  0
  185.3150  177.5640  143.3310 C   0  0  0  0  0  3  0  0  0  0  0  0
  185.4550  179.2000  141.5890 C   0  0  0  0  0  3  0  0  0  0  0  0
  187.4230  178.2400  142.4920 C   0  0  0  0  0  0  0  0  0  0  0  0
  182.4620  179.0380  143.5260 C   0  0  0  0  0  1  0  0  0  0  0  0
  183.2470  178.5460  142.4050 N   0  0  0  0  0  2  0  0  0  0  0  0
  183.9690  177.0680  138.8340 O   0  0  0  0  0  0  0  0  0  0  0  0
  183.7470  180.7090  138.6670 C   0  0  0  0  0  1  0  0  0  0  0  0
  184.3310  178.2630  138.6620 C   0  0  0  0  0  0  0  0  0  0  0  0
  183.3840  179.3140  138.8350 N   0  0  0  0  0  2  0  0  0  0  0  0
  185.6820  178.5570  138.3000 N   0  0  0  0  0  2  0  0  0  0  0  0
  1 11  1  0  0  0  0
  2 16  1  1  0  0  0
  2 19  1  0  0  0  0
  3 15  1  0  0  0  0
  3 13  1  0  0  0  0
  4 12  2  0  0  0  0
  5 18  1  6  0  0  0
  5 15  1  0  0  0  0
  6  1  2  0  0  0  0
  7 32  1  0  0  0  0
  7  8  1  0  0  0  0
  8  9  1  0  0  0  0
  9  4  2  0  0  0  0
 10  9  1  0  0  0  0
 12  2  1  0  0  0  0
 12  6  1  0  0  0  0
 13 14  1  6  0  0  0
 13 10  1  0  0  0  0
 15 17  1  6  0  0  0
 15  7  1  0  0  0  0
 17  5  1  0  0  0  0
 19 11  2  0  0  0  0
 21 23  2  0  0  0  0
 22 25  1  0  0  0  0
 23 20  1  0  0  0  0
 24 22  2  0  0  0  0
 24 21  1  0  0  0  0
 25  6  1  0  0  0  0
 25 20  2  0  0  0  0
 27 21  1  0  0  0  0
 27 26  1  0  0  0  0
 29 31  1  0  0  0  0
 30 28  2  0  0  0  0
 30 31  1  0  0  0  0
 32 30  1  0  0  0  0
M  END
>  <MODEL>
7

>  <REMARK>
 VINA RESULT:      -5.9      2.607      7.158
  Name = 
  3 active torsions:
  status: ('A' for Active; 'I' for Inactive)
    1  A    between atoms: C_10  and  N_13
    2  A    between atoms: C_14  and  C_32
    3  A    between atoms: N_15  and  N_29
                            x       y       z     vdW  Elec       q    Type
                         _______ _______ _______ _____ _____    ______ ____

>  <TORSDO>
F 3

$$$$
=
 OpenBabel10222416293D

 32 35  0  0  1  0  0  0  0  0999 V2000
  186.3920  178.1620  143.8520 N   0  0  0  0  0  0  0  0  0  0  0  0
  183.6990  179.1230  144.0530 C   0  0  2  0  0  3  0  0  0  0  0  0
  180.9390  178.1100  138.2300 C   0  0  0  0  0  2  0  0  0  0  0  0
  183.5070  178.2800  141.7930 C   0  0  0  0  0  0  0  0  0  0  0  0
  182.0170  176.4920  136.4660 C   0  0  1  0  0  3  0  0  0  0  0  0
  185.7600  178.3510  142.7280 C   0  0  0  0  0  0  0  0  0  0  0  0
  183.2980  177.1650  138.5950 N   0  0  0  0  0  0  0  0  0  0  0  0
  183.1110  176.7450  139.9790 C   0  0  0  0  0  2  0  0  0  0  0  0
  182.7150  177.9110  140.8270 C   0  0  0  0  0  0  0  0  0  0  0  0
  181.4150  178.6410  140.6430 C   0  0  0  0  0  2  0  0  0  0  0  0
  185.7410  178.2190  145.1320 C   0  0  0  0  0  3  0  0  0  0  0  0
  184.3020  178.6330  142.7690 C   0  0  0  0  0  0  0  0  0  0  0  0
  180.4540  177.9670  139.6660 C   0  0  1  0  0  3  0  0  0  0  0  0
  179.0950  178.6220  139.7900 C   0  0  0  0  0  1  0  0  0  0  0  0
  182.0000  177.0610  137.8870 C   0  0  1  0  0  0  0  0  0  0  0  0
  183.7030  180.5050  144.0550 F   0  0  0  0  0  0  0  0  0  0  0  0
  181.4920  175.6520  137.6310 C   0  0  0  0  0  2  0  0  0  0  0  0
  180.8930  176.9730  135.6780 N   0  0  0  0  0  1  0  0  0  0  0  0
  184.4750  178.6310  145.2450 C   0  0  0  0  0  3  0  0  0  0  0  0
  185.9770  178.7530  140.3030 N   0  0  0  0  0  0  0  0  0  0  0  0
  187.9700  178.2000  139.1140 C   0  0  0  0  0  0  0  0  0  0  0  0
  187.7830  177.7780  141.4520 N   0  0  0  0  0  0  0  0  0  0  0  0
  186.6750  178.7230  139.1390 C   0  0  0  0  0  3  0  0  0  0  0  0
  188.5110  177.7250  140.3070 C   0  0  0  0  0  3  0  0  0  0  0  0
  186.5180  178.2810  141.4600 C   0  0  0  0  0  0  0  0  0  0  0  0
  189.6560  177.0630  137.6060 C   0  0  0  0  0  1  0  0  0  0  0  0
  188.7400  178.1500  137.9120 N   0  0  0  0  0  2  0  0  0  0  0  0
  185.0140  177.8790  136.4980 O   0  0  0  0  0  0  0  0  0  0  0  0
  186.3070  174.5010  136.9990 C   0  0  0  0  0  1  0  0  0  0  0  0
  185.1250  176.7220  136.9830 C   0  0  0  0  0  0  0  0  0  0  0  0
  186.1200  175.8400  136.4690 N   0  0  0  0  0  2  0  0  0  0  0  0
  184.2610  176.3010  138.0410 N   0  0  0  0  0  2  0  0  0  0  0  0
  1 11  1  0  0  0  0
  2 16  1  6  0  0  0
  2 19  1  0  0  0  0
  3 13  1  0  0  0  0
  4 12  2  0  0  0  0
  5 18  1  6  0  0  0
  5 17  1  0  0  0  0
  5 15  1  0  0  0  0
  6 12  1  0  0  0  0
  6  1  2  0  0  0  0
  7  8  1  0  0  0  0
  8  9  1  0  0  0  0
  9  4  2  0  0  0  0
 10  9  1  0  0  0  0
 11 19  2  0  0  0  0
 12  2  1  0  0  0  0
 13 14  1  6  0  0  0
 13 10  1  0  0  0  0
 15 17  1  1  0  0  0
 15  3  1  0  0  0  0
 15  7  1  0  0  0  0
 20 25  2  0  0  0  0
 21 23  2  0  0  0  0
 21 24  1  0  0  0  0
 22 25  1  0  0  0  0
 23 20  1  0  0  0  0
 24 22  2  0  0  0  0
 25  6  1  0  0  0  0
 26 27  1  0  0  0  0
 27 21  1  0  0  0  0
 28 30  2  0  0  0  0
 30 32  1  0  0  0  0
 31 30  1  0  0  0  0
 31 29  1  0  0  0  0
 32  7  1  0  0  0  0
M  END
>  <MODEL>
8

>  <REMARK>
 VINA RESULT:      -5.6      2.081      5.914
  Name = 
  3 active torsions:
  status: ('A' for Active; 'I' for Inactive)
    1  A    between atoms: C_10  and  N_13
    2  A    between atoms: C_14  and  C_32
    3  A    between atoms: N_15  and  N_29
                            x       y       z     vdW  Elec       q    Type
                         _______ _______ _______ _____ _____    ______ ____

>  <TORSDO>
F 3

$$$$
=
 OpenBabel10222416293D

 32 35  0  0  1  0  0  0  0  0999 V2000
  186.8210  179.0030  137.5640 N   0  0  0  0  0  0  0  0  0  0  0  0
  187.8150  176.3990  136.8930 C   0  0  2  0  0  3  0  0  0  0  0  0
  182.7210  172.3380  137.2180 C   0  0  0  0  0  2  0  0  0  0  0  0
  185.4950  175.7450  137.1070 C   0  0  0  0  0  0  0  0  0  0  0  0
  180.2540  173.2350  137.2550 C   0  0  1  0  0  3  0  0  0  0  0  0
  186.0550  177.9940  137.8720 C   0  0  0  0  0  0  0  0  0  0  0  0
  182.2480  174.8460  137.5000 N   0  0  0  0  0  0  0  0  0  0  0  0
  183.2020  175.3220  136.5050 C   0  0  0  0  0  2  0  0  0  0  0  0
  184.5810  174.8550  136.8440 C   0  0  0  0  0  0  0  0  0  0  0  0
  184.9690  173.4040  136.8410 C   0  0  0  0  0  2  0  0  0  0  0  0
  187.9970  178.8690  136.7500 C   0  0  0  0  0  3  0  0  0  0  0  0
  186.4090  176.6470  137.3560 C   0  0  0  0  0  0  0  0  0  0  0  0
  183.9020  172.4740  136.2670 C   0  0  1  0  0  3  0  0  0  0  0  0
  184.5140  171.1080  136.0490 C   0  0  0  0  0  1  0  0  0  0  0  0
  181.7500  173.5140  137.0830 C   0  0  1  0  0  0  0  0  0  0  0  0
  188.5570  175.9040  137.9490 F   0  0  0  0  0  0  0  0  0  0  0  0
  180.8390  173.4940  135.8670 C   0  0  0  0  0  2  0  0  0  0  0  0
  179.9830  171.8140  137.4030 N   0  0  0  0  0  1  0  0  0  0  0  0
  188.4590  177.6660  136.3960 C   0  0  0  0  0  3  0  0  0  0  0  0
  184.9500  178.0890  140.0760 N   0  0  0  0  0  0  0  0  0  0  0  0
  182.6640  178.7310  140.3060 C   0  0  0  0  0  0  0  0  0  0  0  0
  183.6960  178.6280  138.1600 N   0  0  0  0  0  0  0  0  0  0  0  0
  183.8760  178.3310  140.8720 C   0  0  0  0  0  3  0  0  0  0  0  0
  182.5990  178.8740  138.9220 C   0  0  0  0  0  3  0  0  0  0  0  0
  184.8690  178.2290  138.7240 C   0  0  0  0  0  0  0  0  0  0  0  0
  181.5400  179.0030  142.5590 C   0  0  0  0  0  1  0  0  0  0  0  0
  181.5100  178.9970  141.1050 N   0  0  0  0  0  2  0  0  0  0  0  0
  180.8860  175.5570  139.8440 O   0  0  0  0  0  0  0  0  0  0  0  0
  179.1340  177.8440  137.6000 C   0  0  0  0  0  1  0  0  0  0  0  0
  180.5590  176.1350  138.7730 C   0  0  0  0  0  0  0  0  0  0  0  0
  179.5400  177.1320  138.7980 N   0  0  0  0  0  2  0  0  0  0  0  0
  181.2100  175.7950  137.5470 N   0  0  0  0  0  2  0  0  0  0  0  0
  1  6  2  0  0  0  0
  2 12  1  0  0  0  0
  2 16  1  1  0  0  0
  4 12  2  0  0  0  0
  5 18  1  6  0  0  0
  6 25  1  0  0  0  0
  7 32  1  0  0  0  0
  8  9  1  0  0  0  0
  8  7  1  0  0  0  0
  9  4  2  0  0  0  0
 10  9  1  0  0  0  0
 11  1  1  0  0  0  0
 12  6  1  0  0  0  0
 13 14  1  1  0  0  0
 13 10  1  0  0  0  0
 13  3  1  0  0  0  0
 15 17  1  6  0  0  0
 15  3  1  0  0  0  0
 15  5  1  0  0  0  0
 15  7  1  0  0  0  0
 17  5  1  0  0  0  0
 19 11  2  0  0  0  0
 19  2  1  0  0  0  0
 20 23  1  0  0  0  0
 21 23  2  0  0  0  0
 21 27  1  0  0  0  0
 22 25  1  0  0  0  0
 22 24  2  0  0  0  0
 24 21  1  0  0  0  0
 25 20  2  0  0  0  0
 27 26  1  0  0  0  0
 29 31  1  0  0  0  0
 30 31  1  0  0  0  0
 30 28  2  0  0  0  0
 32 30  1  0  0  0  0
M  END
>  <MODEL>
9

>  <REMARK>
 VINA RESULT:      -5.3      3.685      8.061
  Name = 
  3 active torsions:
  status: ('A' for Active; 'I' for Inactive)
    1  A    between atoms: C_10  and  N_13
    2  A    between atoms: C_14  and  C_32
    3  A    between atoms: N_15  and  N_29
                            x       y       z     vdW  Elec       q    Type
                         _______ _______ _______ _____ _____    ______ ____

>  <TORSDO>
F 3

$$$$
