=
 OpenBabel10222420173D

 27 30  0  0  1  0  0  0  0  0999 V2000
  190.3820  176.7610  140.0350 C   0  0  2  0  0  3  0  0  0  0  0  0
  186.2300  178.3140  145.7210 C   0  0  0  0  0  3  0  0  0  0  0  0
  187.3930  177.8110  142.3210 O   0  0  0  0  0  0  0  0  0  0  0  0
  188.5530  177.4500  141.6260 C   0  0  0  0  0  0  0  0  0  0  0  0
  189.6130  177.0070  142.2690 C   0  0  0  0  0  0  0  0  0  0  0  0
  186.1330  178.1210  144.3970 C   0  0  0  0  0  0  0  0  0  0  0  0
  188.4800  177.3400  145.8960 C   0  0  0  0  0  0  0  0  0  0  0  0
  188.7460  177.5850  139.8620 S   0  0  0  0  0  0  0  0  0  0  0  0
  187.4050  177.8620  146.4920 C   0  0  0  0  0  3  0  0  0  0  0  0
  189.6400  176.9850  143.7420 C   0  0  0  0  0  3  0  0  0  0  0  0
  187.1920  177.3340  143.6590 C   0  0  2  0  0  3  0  0  0  0  0  0
  188.5040  177.2240  144.4220 C   0  0  0  0  0  0  0  0  0  0  0  0
  190.7230  176.6840  141.4500 N   0  0  0  0  0  2  0  0  0  0  0  0
  183.6610  178.7260  144.5330 C   0  0  0  0  0  2  0  0  0  0  0  0
  184.9060  178.5970  143.6690 C   0  0  0  0  0  0  0  0  0  0  0  0
  184.4090  179.9720  144.0790 C   0  0  0  0  0  2  0  0  0  0  0  0
  184.7240  178.2070  142.1910 C   0  0  2  0  0  3  0  0  0  0  0  0
  185.2570  179.2980  141.2770 C   0  0  0  0  0  1  0  0  0  0  0  0
  183.2350  177.4980  140.3930 N   0  0  0  0  0  1  0  0  0  0  0  0
  183.2900  177.8580  141.8010 C   0  0  0  0  0  2  0  0  0  0  0  0
  190.5240  176.6550  147.3480 N   0  0  0  0  0  0  0  0  0  0  0  0
  189.6120  176.9610  146.7010 C   0  0  0  0  0  0  0  0  0  0  0  0
  191.4600  177.4890  139.2410 C   0  0  0  0  0  2  0  0  0  0  0  0
  194.3960  175.4810  138.3390 O   0  0  0  0  0  0  0  0  0  0  0  0
  193.3130  176.1120  138.2000 C   0  0  0  0  0  0  0  0  0  0  0  0
  192.7410  176.7930  139.3220 N   0  0  0  0  0  2  0  0  0  0  0  0
  192.6370  176.1270  136.8680 C   0  0  0  0  0  1  0  0  0  0  0  0
  1 23  1  6  0  0  0
  1 13  1  0  0  0  0
  2  9  1  0  0  0  0
  4  5  2  0  0  0  0
  4  3  1  0  0  0  0
  5 10  1  0  0  0  0
  6  2  2  0  0  0  0
  7  9  2  0  0  0  0
  7 22  1  0  0  0  0
  8  1  1  0  0  0  0
  8  4  1  0  0  0  0
 10 12  2  0  0  0  0
 11  3  1  6  0  0  0
 11  6  1  0  0  0  0
 11 12  1  0  0  0  0
 12  7  1  0  0  0  0
 13  5  1  0  0  0  0
 15 16  1  0  0  0  0
 15  6  1  0  0  0  0
 15 14  1  0  0  0  0
 16 14  1  0  0  0  0
 17 18  1  6  0  0  0
 17 15  1  0  0  0  0
 19 20  1  0  0  0  0
 20 17  1  0  0  0  0
 22 21  3  0  0  0  0
 23 26  1  0  0  0  0
 25 24  2  0  0  0  0
 25 26  1  0  0  0  0
 27 25  1  0  0  0  0
M  END
>  <MODEL>
1

>  <REMARK>
 VINA RESULT:      -8.4      0.000      0.000
  Name = 
  6 active torsions:
  status: ('A' for Active; 'I' for Inactive)
    1  A    between atoms: C_1  and  C_22
    2  A    between atoms: C_5  and  C_9
    3  A    between atoms: C_5  and  C_20
    4  A    between atoms: C_9  and  C_15
    5  A    between atoms: N_10  and  C_22
    6  A    between atoms: C_14  and  C_16
                            x       y       z     vdW  Elec       q    Type
                         _______ _______ _______ _____ _____    ______ ____

>  <TORSDO>
F 6

$$$$
=
 OpenBabel10222420173D

 27 30  0  0  1  0  0  0  0  0999 V2000
  189.9760  176.8080  140.4450 C   0  0  2  0  0  3  0  0  0  0  0  0
  187.8680  178.0210  147.2320 C   0  0  0  0  0  3  0  0  0  0  0  0
  187.8970  177.7580  143.6130 O   0  0  0  0  0  0  0  0  0  0  0  0
  188.7650  177.4210  142.5690 C   0  0  0  0  0  0  0  0  0  0  0  0
  189.9470  176.8970  142.8180 C   0  0  0  0  0  0  0  0  0  0  0  0
  187.3570  177.9370  145.9940 C   0  0  0  0  0  0  0  0  0  0  0  0
  190.0070  176.9710  146.6310 C   0  0  0  0  0  0  0  0  0  0  0  0
  188.4120  177.6910  140.8450 S   0  0  0  0  0  0  0  0  0  0  0  0
  189.1980  177.4750  147.5670 C   0  0  0  0  0  3  0  0  0  0  0  0
  190.4260  176.7560  144.2050 C   0  0  0  0  0  3  0  0  0  0  0  0
  188.0940  177.1810  144.9120 C   0  0  2  0  0  3  0  0  0  0  0  0
  189.5690  176.9730  145.2190 C   0  0  0  0  0  0  0  0  0  0  0  0
  190.7320  176.6080  141.6750 N   0  0  0  0  0  2  0  0  0  0  0  0
  184.8830  177.9600  146.6030 C   0  0  0  0  0  2  0  0  0  0  0  0
  185.9920  178.5060  145.7180 C   0  0  0  0  0  0  0  0  0  0  0  0
  185.4180  179.3660  146.8300 C   0  0  0  0  0  2  0  0  0  0  0  0
  185.6360  178.9090  144.2760 C   0  0  2  0  0  3  0  0  0  0  0  0
  184.8580  180.2140  144.2590 C   0  0  0  0  0  1  0  0  0  0  0  0
  184.6840  178.2830  142.1180 N   0  0  0  0  0  1  0  0  0  0  0  0
  184.8770  177.8430  143.4900 C   0  0  0  0  0  2  0  0  0  0  0  0
  192.3590  176.1130  147.3280 N   0  0  0  0  0  0  0  0  0  0  0  0
  191.3110  176.4960  147.0160 C   0  0  0  0  0  0  0  0  0  0  0  0
  190.7930  177.5650  139.4040 C   0  0  0  0  0  2  0  0  0  0  0  0
  189.6950  176.9590  135.9560 O   0  0  0  0  0  0  0  0  0  0  0  0
  189.8230  177.5440  137.0660 C   0  0  0  0  0  0  0  0  0  0  0  0
  190.6530  176.9680  138.0800 N   0  0  0  0  0  2  0  0  0  0  0  0
  189.0970  178.8270  137.3070 C   0  0  0  0  0  1  0  0  0  0  0  0
  1 23  1  6  0  0  0
  1  8  1  0  0  0  0
  1 13  1  0  0  0  0
  2  9  1  0  0  0  0
  4  5  2  0  0  0  0
  4  3  1  0  0  0  0
  5 10  1  0  0  0  0
  6  2  2  0  0  0  0
  7 22  1  0  0  0  0
  7  9  2  0  0  0  0
  8  4  1  0  0  0  0
 10 12  2  0  0  0  0
 11  3  1  6  0  0  0
 11 12  1  0  0  0  0
 11  6  1  0  0  0  0
 12  7  1  0  0  0  0
 13  5  1  0  0  0  0
 14 16  1  0  0  0  0
 15  6  1  0  0  0  0
 15 14  1  0  0  0  0
 15 16  1  0  0  0  0
 17 18  1  1  0  0  0
 17 15  1  0  0  0  0
 19 20  1  0  0  0  0
 20 17  1  0  0  0  0
 22 21  3  0  0  0  0
 24 25  2  0  0  0  0
 25 27  1  0  0  0  0
 25 26  1  0  0  0  0
 26 23  1  0  0  0  0
M  END
>  <MODEL>
2

>  <REMARK>
 VINA RESULT:      -8.3      1.878      2.378
  Name = 
  6 active torsions:
  status: ('A' for Active; 'I' for Inactive)
    1  A    between atoms: C_1  and  C_22
    2  A    between atoms: C_5  and  C_9
    3  A    between atoms: C_5  and  C_20
    4  A    between atoms: C_9  and  C_15
    5  A    between atoms: N_10  and  C_22
    6  A    between atoms: C_14  and  C_16
                            x       y       z     vdW  Elec       q    Type
                         _______ _______ _______ _____ _____    ______ ____

>  <TORSDO>
F 6

$$$$
=
 OpenBabel10222420173D

 27 30  0  0  1  0  0  0  0  0999 V2000
  183.4750  179.2760  144.0120 C   0  0  2  0  0  3  0  0  0  0  0  0
  189.9860  176.7160  145.7550 C   0  0  0  0  0  3  0  0  0  0  0  0
  187.0900  177.8050  143.8580 O   0  0  0  0  0  0  0  0  0  0  0  0
  185.7970  178.2970  144.0620 C   0  0  0  0  0  0  0  0  0  0  0  0
  185.3900  178.6430  145.2660 C   0  0  0  0  0  0  0  0  0  0  0  0
  189.2940  177.1280  144.6810 C   0  0  0  0  0  0  0  0  0  0  0  0
  188.4170  177.6840  147.3800 C   0  0  0  0  0  0  0  0  0  0  0  0
  184.5740  178.4650  142.7800 S   0  0  0  0  0  0  0  0  0  0  0  0
  189.5660  177.0500  147.1300 C   0  0  0  0  0  3  0  0  0  0  0  0
  186.2520  178.4160  146.4400 C   0  0  0  0  0  3  0  0  0  0  0  0
  188.1050  178.0460  144.8440 C   0  0  2  0  0  3  0  0  0  0  0  0
  187.5310  178.0470  146.2530 C   0  0  0  0  0  0  0  0  0  0  0  0
  184.0580  179.1180  145.3390 N   0  0  0  0  0  2  0  0  0  0  0  0
  190.5290  175.4400  143.2240 C   0  0  0  0  0  2  0  0  0  0  0  0
  189.7790  176.7600  143.3050 C   0  0  0  0  0  0  0  0  0  0  0  0
  189.1070  175.5450  142.6900 C   0  0  0  0  0  2  0  0  0  0  0  0
  190.1900  177.8870  142.3400 C   0  0  2  0  0  3  0  0  0  0  0  0
  189.2220  177.9740  141.1720 C   0  0  0  0  0  1  0  0  0  0  0  0
  191.6110  177.4160  140.4140 N   0  0  0  0  0  1  0  0  0  0  0  0
  191.6210  177.7840  141.8210 C   0  0  0  0  0  2  0  0  0  0  0  0
  187.7440  178.1480  149.8470 N   0  0  0  0  0  0  0  0  0  0  0  0
  188.0430  177.9410  148.7470 C   0  0  0  0  0  0  0  0  0  0  0  0
  182.0600  178.7100  143.9550 C   0  0  0  0  0  2  0  0  0  0  0  0
  179.1480  180.2010  142.2930 O   0  0  0  0  0  0  0  0  0  0  0  0
  179.8230  179.6060  143.1770 C   0  0  0  0  0  0  0  0  0  0  0  0
  181.2340  179.4410  142.9980 N   0  0  0  0  0  2  0  0  0  0  0  0
  179.1370  179.0740  144.3920 C   0  0  0  0  0  1  0  0  0  0  0  0
  1 23  1  1  0  0  0
  1 13  1  0  0  0  0
  2  9  1  0  0  0  0
  3  4  1  0  0  0  0
  4  5  2  0  0  0  0
  5 13  1  0  0  0  0
  5 10  1  0  0  0  0
  6 11  1  0  0  0  0
  6  2  2  0  0  0  0
  7 22  1  0  0  0  0
  8  1  1  0  0  0  0
  8  4  1  0  0  0  0
  9  7  2  0  0  0  0
 11  3  1  6  0  0  0
 11 12  1  0  0  0  0
 12 10  2  0  0  0  0
 12  7  1  0  0  0  0
 14 15  1  0  0  0  0
 15  6  1  0  0  0  0
 16 14  1  0  0  0  0
 16 15  1  0  0  0  0
 17 18  1  6  0  0  0
 17 15  1  0  0  0  0
 19 20  1  0  0  0  0
 20 17  1  0  0  0  0
 22 21  3  0  0  0  0
 24 25  2  0  0  0  0
 25 27  1  0  0  0  0
 26 25  1  0  0  0  0
 26 23  1  0  0  0  0
M  END
>  <MODEL>
3

>  <REMARK>
 VINA RESULT:      -8.2      3.008      7.736
  Name = 
  6 active torsions:
  status: ('A' for Active; 'I' for Inactive)
    1  A    between atoms: C_1  and  C_22
    2  A    between atoms: C_5  and  C_9
    3  A    between atoms: C_5  and  C_20
    4  A    between atoms: C_9  and  C_15
    5  A    between atoms: N_10  and  C_22
    6  A    between atoms: C_14  and  C_16
                            x       y       z     vdW  Elec       q    Type
                         _______ _______ _______ _____ _____    ______ ____

>  <TORSDO>
F 6

$$$$
=
 OpenBabel10222420173D

 27 30  0  0  1  0  0  0  0  0999 V2000
  188.9160  178.2700  138.7650 C   0  0  2  0  0  3  0  0  0  0  0  0
  187.3220  177.4810  145.7530 C   0  0  0  0  0  3  0  0  0  0  0  0
  189.1410  177.6620  142.6180 O   0  0  0  0  0  0  0  0  0  0  0  0
  188.9090  177.8630  141.2530 C   0  0  0  0  0  0  0  0  0  0  0  0
  187.7220  178.2350  140.8190 C   0  0  0  0  0  0  0  0  0  0  0  0
  188.3880  177.6040  144.9460 C   0  0  0  0  0  0  0  0  0  0  0  0
  185.7090  178.2340  144.0580 C   0  0  0  0  0  0  0  0  0  0  0  0
  190.1270  177.6040  139.9800 S   0  0  0  0  0  0  0  0  0  0  0  0
  185.9640  177.8580  145.3140 C   0  0  0  0  0  3  0  0  0  0  0  0
  186.5850  178.3420  141.7500 C   0  0  0  0  0  3  0  0  0  0  0  0
  188.2450  178.2360  143.5810 C   0  0  2  0  0  3  0  0  0  0  0  0
  186.8110  178.2590  143.0730 C   0  0  0  0  0  0  0  0  0  0  0  0
  187.6170  178.3960  139.4150 N   0  0  0  0  0  2  0  0  0  0  0  0
  190.6670  176.5970  144.4110 C   0  0  0  0  0  2  0  0  0  0  0  0
  189.7470  177.2100  145.4550 C   0  0  0  0  0  0  0  0  0  0  0  0
  190.9030  178.0200  144.8950 C   0  0  0  0  0  2  0  0  0  0  0  0
  189.8810  176.7270  146.9110 C   0  0  2  0  0  3  0  0  0  0  0  0
  189.6020  177.8620  147.8820 C   0  0  0  0  0  1  0  0  0  0  0  0
  192.0140  176.9770  148.0680 N   0  0  0  0  0  1  0  0  0  0  0  0
  191.2230  176.0800  147.2410 C   0  0  0  0  0  2  0  0  0  0  0  0
  183.2640  178.7970  143.3810 N   0  0  0  0  0  0  0  0  0  0  0  0
  184.3540  178.5450  143.6830 C   0  0  0  0  0  0  0  0  0  0  0  0
  188.8340  177.3920  137.5220 C   0  0  0  0  0  2  0  0  0  0  0  0
  190.2580  174.0100  137.5220 O   0  0  0  0  0  0  0  0  0  0  0  0
  190.1300  175.2350  137.2470 C   0  0  0  0  0  0  0  0  0  0  0  0
  189.0700  175.9880  137.8460 N   0  0  0  0  0  2  0  0  0  0  0  0
  191.0810  175.8760  136.2910 C   0  0  0  0  0  1  0  0  0  0  0  0
  1 23  1  6  0  0  0
  1 13  1  0  0  0  0
  1  8  1  0  0  0  0
  4  3  1  0  0  0  0
  5  4  2  0  0  0  0
  5 10  1  0  0  0  0
  6 15  1  0  0  0  0
  6  2  2  0  0  0  0
  7  9  2  0  0  0  0
  8  4  1  0  0  0  0
  9  2  1  0  0  0  0
 10 12  2  0  0  0  0
 11  3  1  6  0  0  0
 11  6  1  0  0  0  0
 12 11  1  0  0  0  0
 12  7  1  0  0  0  0
 13  5  1  0  0  0  0
 14 16  1  0  0  0  0
 14 15  1  0  0  0  0
 15 17  1  0  0  0  0
 16 15  1  0  0  0  0
 17 20  1  0  0  0  0
 17 18  1  1  0  0  0
 20 19  1  0  0  0  0
 21 22  3  0  0  0  0
 22  7  1  0  0  0  0
 23 26  1  0  0  0  0
 25 24  2  0  0  0  0
 25 26  1  0  0  0  0
 27 25  1  0  0  0  0
M  END
>  <MODEL>
4

>  <REMARK>
 VINA RESULT:      -8.2      2.113      5.202
  Name = 
  6 active torsions:
  status: ('A' for Active; 'I' for Inactive)
    1  A    between atoms: C_1  and  C_22
    2  A    between atoms: C_5  and  C_9
    3  A    between atoms: C_5  and  C_20
    4  A    between atoms: C_9  and  C_15
    5  A    between atoms: N_10  and  C_22
    6  A    between atoms: C_14  and  C_16
                            x       y       z     vdW  Elec       q    Type
                         _______ _______ _______ _____ _____    ______ ____

>  <TORSDO>
F 6

$$$$
=
 OpenBabel10222420173D

 27 30  0  0  1  0  0  0  0  0999 V2000
  188.5720  178.2030  139.4130 C   0  0  2  0  0  3  0  0  0  0  0  0
  186.5280  177.8410  146.3180 C   0  0  0  0  0  3  0  0  0  0  0  0
  188.5450  177.8300  143.3020 O   0  0  0  0  0  0  0  0  0  0  0  0
  188.4020  177.9470  141.9150 C   0  0  0  0  0  0  0  0  0  0  0  0
  187.2490  178.2940  141.3840 C   0  0  0  0  0  0  0  0  0  0  0  0
  187.6440  177.9140  145.5760 C   0  0  0  0  0  0  0  0  0  0  0  0
  185.0300  178.4920  144.4800 C   0  0  0  0  0  0  0  0  0  0  0  0
  189.6990  177.6110  140.7420 S   0  0  0  0  0  0  0  0  0  0  0  0
  185.2020  178.1930  145.7710 C   0  0  0  0  0  3  0  0  0  0  0  0
  186.0540  178.4590  142.2310 C   0  0  0  0  0  3  0  0  0  0  0  0
  187.5920  178.4610  144.1680 C   0  0  2  0  0  3  0  0  0  0  0  0
  186.1940  178.4550  143.5680 C   0  0  0  0  0  0  0  0  0  0  0  0
  187.2350  178.3700  139.9690 N   0  0  0  0  0  2  0  0  0  0  0  0
  189.1420  178.0000  147.6360 C   0  0  0  0  0  2  0  0  0  0  0  0
  188.9650  177.5500  146.1940 C   0  0  0  0  0  0  0  0  0  0  0  0
  188.8910  176.5330  147.3190 C   0  0  0  0  0  2  0  0  0  0  0  0
  190.2140  177.4980  145.2940 C   0  0  2  0  0  3  0  0  0  0  0  0
  191.2640  176.5710  145.8850 C   0  0  0  0  0  1  0  0  0  0  0  0
  191.7280  178.7540  143.8530 N   0  0  0  0  0  1  0  0  0  0  0  0
  190.8340  178.8600  144.9940 C   0  0  0  0  0  2  0  0  0  0  0  0
  182.6380  179.0140  143.6120 N   0  0  0  0  0  0  0  0  0  0  0  0
  183.7040  178.7810  144.0000 C   0  0  0  0  0  0  0  0  0  0  0  0
  188.5660  177.2510  138.2220 C   0  0  0  0  0  2  0  0  0  0  0  0
  190.9380  174.4760  137.8560 O   0  0  0  0  0  0  0  0  0  0  0  0
  190.3320  175.5500  137.5920 C   0  0  0  0  0  0  0  0  0  0  0  0
  189.3430  176.0470  138.5000 N   0  0  0  0  0  2  0  0  0  0  0  0
  190.6490  176.2810  136.3290 C   0  0  0  0  0  1  0  0  0  0  0  0
  1 23  1  6  0  0  0
  1 13  1  0  0  0  0
  1  8  1  0  0  0  0
  4  3  1  0  0  0  0
  5  4  2  0  0  0  0
  5 10  1  0  0  0  0
  6 15  1  0  0  0  0
  6  2  2  0  0  0  0
  7  9  2  0  0  0  0
  8  4  1  0  0  0  0
  9  2  1  0  0  0  0
 10 12  2  0  0  0  0
 11  3  1  6  0  0  0
 11  6  1  0  0  0  0
 12 11  1  0  0  0  0
 12  7  1  0  0  0  0
 13  5  1  0  0  0  0
 15 16  1  0  0  0  0
 15 14  1  0  0  0  0
 16 14  1  0  0  0  0
 17 18  1  1  0  0  0
 17 15  1  0  0  0  0
 19 20  1  0  0  0  0
 20 17  1  0  0  0  0
 21 22  3  0  0  0  0
 22  7  1  0  0  0  0
 23 26  1  0  0  0  0
 25 24  2  0  0  0  0
 25 26  1  0  0  0  0
 27 25  1  0  0  0  0
M  END
>  <MODEL>
5

>  <REMARK>
 VINA RESULT:      -8.1      2.159      4.826
  Name = 
  6 active torsions:
  status: ('A' for Active; 'I' for Inactive)
    1  A    between atoms: C_1  and  C_22
    2  A    between atoms: C_5  and  C_9
    3  A    between atoms: C_5  and  C_20
    4  A    between atoms: C_9  and  C_15
    5  A    between atoms: N_10  and  C_22
    6  A    between atoms: C_14  and  C_16
                            x       y       z     vdW  Elec       q    Type
                         _______ _______ _______ _____ _____    ______ ____

>  <TORSDO>
F 6

$$$$
=
 OpenBabel10222420173D

 27 30  0  0  1  0  0  0  0  0999 V2000
  186.7250  178.5510  137.8220 C   0  0  2  0  0  3  0  0  0  0  0  0
  187.6890  177.4090  144.8750 C   0  0  0  0  0  3  0  0  0  0  0  0
  188.2790  177.7200  141.3080 O   0  0  0  0  0  0  0  0  0  0  0  0
  187.5850  178.0040  140.1270 C   0  0  0  0  0  0  0  0  0  0  0  0
  186.3400  178.4310  140.1630 C   0  0  0  0  0  0  0  0  0  0  0  0
  188.4020  177.5490  143.7470 C   0  0  0  0  0  0  0  0  0  0  0  0
  185.6130  178.2980  143.9050 C   0  0  0  0  0  0  0  0  0  0  0  0
  188.2580  177.7860  138.4930 S   0  0  0  0  0  0  0  0  0  0  0  0
  186.2810  177.8450  144.9690 C   0  0  0  0  0  3  0  0  0  0  0  0
  185.6140  178.5140  141.4430 C   0  0  0  0  0  3  0  0  0  0  0  0
  187.8110  178.2610  142.5520 C   0  0  2  0  0  3  0  0  0  0  0  0
  186.2930  178.3500  142.5920 C   0  0  0  0  0  0  0  0  0  0  0  0
  185.7490  178.6740  138.8980 N   0  0  0  0  0  2  0  0  0  0  0  0
  190.0430  175.6770  143.2010 C   0  0  0  0  0  2  0  0  0  0  0  0
  189.8340  177.0920  143.7180 C   0  0  0  0  0  0  0  0  0  0  0  0
  190.4110  176.8710  142.3310 C   0  0  0  0  0  2  0  0  0  0  0  0
  190.8010  177.6190  144.7950 C   0  0  2  0  0  3  0  0  0  0  0  0
  191.6650  178.7390  144.2390 C   0  0  0  0  0  1  0  0  0  0  0  0
  191.7620  176.7590  146.8660 N   0  0  0  0  0  1  0  0  0  0  0  0
  191.6850  176.5480  145.4290 C   0  0  0  0  0  2  0  0  0  0  0  0
  183.1140  178.9610  144.1700 N   0  0  0  0  0  0  0  0  0  0  0  0
  184.2280  178.6650  144.0530 C   0  0  0  0  0  0  0  0  0  0  0  0
  186.1660  177.7470  136.6530 C   0  0  0  0  0  2  0  0  0  0  0  0
  185.2720  174.2330  137.2110 O   0  0  0  0  0  0  0  0  0  0  0  0
  185.9430  175.2320  136.8330 C   0  0  0  0  0  0  0  0  0  0  0  0
  185.4670  176.5520  137.1160 N   0  0  0  0  0  2  0  0  0  0  0  0
  187.2190  175.0200  136.0870 C   0  0  0  0  0  1  0  0  0  0  0  0
  1 23  1  6  0  0  0
  1  8  1  0  0  0  0
  1 13  1  0  0  0  0
  2  9  1  0  0  0  0
  4  5  2  0  0  0  0
  4  3  1  0  0  0  0
  5 10  1  0  0  0  0
  6  2  2  0  0  0  0
  7 22  1  0  0  0  0
  7  9  2  0  0  0  0
  8  4  1  0  0  0  0
 10 12  2  0  0  0  0
 11  3  1  6  0  0  0
 11 12  1  0  0  0  0
 11  6  1  0  0  0  0
 12  7  1  0  0  0  0
 13  5  1  0  0  0  0
 14 15  1  0  0  0  0
 15  6  1  0  0  0  0
 15 17  1  0  0  0  0
 16 14  1  0  0  0  0
 16 15  1  0  0  0  0
 17 18  1  6  0  0  0
 17 20  1  0  0  0  0
 20 19  1  0  0  0  0
 22 21  3  0  0  0  0
 23 26  1  0  0  0  0
 25 26  1  0  0  0  0
 25 24  2  0  0  0  0
 27 25  1  0  0  0  0
M  END
>  <MODEL>
6

>  <REMARK>
 VINA RESULT:      -7.8      3.047      5.904
  Name = 
  6 active torsions:
  status: ('A' for Active; 'I' for Inactive)
    1  A    between atoms: C_1  and  C_22
    2  A    between atoms: C_5  and  C_9
    3  A    between atoms: C_5  and  C_20
    4  A    between atoms: C_9  and  C_15
    5  A    between atoms: N_10  and  C_22
    6  A    between atoms: C_14  and  C_16
                            x       y       z     vdW  Elec       q    Type
                         _______ _______ _______ _____ _____    ______ ____

>  <TORSDO>
F 6

$$$$
=
 OpenBabel10222420173D

 27 30  0  0  1  0  0  0  0  0999 V2000
  186.9340  178.6090  137.3950 C   0  0  2  0  0  3  0  0  0  0  0  0
  187.4610  177.8410  144.5450 C   0  0  0  0  0  3  0  0  0  0  0  0
  188.2930  178.0990  141.0220 O   0  0  0  0  0  0  0  0  0  0  0  0
  187.6670  178.2530  139.7810 C   0  0  0  0  0  0  0  0  0  0  0  0
  186.3800  178.5230  139.7030 C   0  0  0  0  0  0  0  0  0  0  0  0
  188.2400  178.0290  143.4690 C   0  0  0  0  0  0  0  0  0  0  0  0
  185.3770  178.4310  143.3820 C   0  0  0  0  0  0  0  0  0  0  0  0
  188.4900  178.0640  138.2130 S   0  0  0  0  0  0  0  0  0  0  0  0
  186.0080  178.1020  144.5130 C   0  0  0  0  0  3  0  0  0  0  0  0
  185.5500  178.5600  140.9200 C   0  0  0  0  0  3  0  0  0  0  0  0
  187.6650  178.6200  142.2020 C   0  0  2  0  0  3  0  0  0  0  0  0
  186.1490  178.5210  142.1240 C   0  0  0  0  0  0  0  0  0  0  0  0
  185.8680  178.6470  138.3880 N   0  0  0  0  0  2  0  0  0  0  0  0
  190.5560  178.9310  144.0340 C   0  0  0  0  0  2  0  0  0  0  0  0
  189.7150  177.7530  143.5680 C   0  0  0  0  0  0  0  0  0  0  0  0
  190.2790  177.7690  144.9770 C   0  0  0  0  0  2  0  0  0  0  0  0
  190.3490  176.7570  142.5790 C   0  0  2  0  0  3  0  0  0  0  0  0
  190.5000  175.3860  143.2190 C   0  0  0  0  0  1  0  0  0  0  0  0
  191.5380  177.4950  140.5810 N   0  0  0  0  0  1  0  0  0  0  0  0
  191.6870  177.2080  141.9980 C   0  0  0  0  0  2  0  0  0  0  0  0
  182.8040  178.7880  143.4310 N   0  0  0  0  0  0  0  0  0  0  0  0
  183.9510  178.6280  143.4090 C   0  0  0  0  0  0  0  0  0  0  0  0
  186.5730  177.7020  136.2240 C   0  0  0  0  0  2  0  0  0  0  0  0
  186.7130  174.1340  137.0710 O   0  0  0  0  0  0  0  0  0  0  0  0
  186.2210  175.2760  136.8570 C   0  0  0  0  0  0  0  0  0  0  0  0
  187.0710  176.3450  136.4290 N   0  0  0  0  0  2  0  0  0  0  0  0
  184.7580  175.4960  137.0650 C   0  0  0  0  0  1  0  0  0  0  0  0
  1 23  1  6  0  0  0
  1  8  1  0  0  0  0
  1 13  1  0  0  0  0
  4  3  1  0  0  0  0
  5  4  2  0  0  0  0
  5 10  1  0  0  0  0
  6 15  1  0  0  0  0
  6  2  2  0  0  0  0
  7 22  1  0  0  0  0
  7  9  2  0  0  0  0
  8  4  1  0  0  0  0
  9  2  1  0  0  0  0
 10 12  2  0  0  0  0
 11  3  1  6  0  0  0
 11  6  1  0  0  0  0
 12 11  1  0  0  0  0
 12  7  1  0  0  0  0
 13  5  1  0  0  0  0
 14 16  1  0  0  0  0
 15 14  1  0  0  0  0
 15 16  1  0  0  0  0
 17 18  1  1  0  0  0
 17 15  1  0  0  0  0
 19 20  1  0  0  0  0
 20 17  1  0  0  0  0
 22 21  3  0  0  0  0
 23 26  1  0  0  0  0
 25 27  1  0  0  0  0
 25 24  2  0  0  0  0
 26 25  1  0  0  0  0
M  END
>  <MODEL>
7

>  <REMARK>
 VINA RESULT:      -7.8      3.027      5.686
  Name = 
  6 active torsions:
  status: ('A' for Active; 'I' for Inactive)
    1  A    between atoms: C_1  and  C_22
    2  A    between atoms: C_5  and  C_9
    3  A    between atoms: C_5  and  C_20
    4  A    between atoms: C_9  and  C_15
    5  A    between atoms: N_10  and  C_22
    6  A    between atoms: C_14  and  C_16
                            x       y       z     vdW  Elec       q    Type
                         _______ _______ _______ _____ _____    ______ ____

>  <TORSDO>
F 6

$$$$
=
 OpenBabel10222420173D

 27 30  0  0  1  0  0  0  0  0999 V2000
  189.5140  177.9180  143.2000 C   0  0  2  0  0  3  0  0  0  0  0  0
  189.8880  176.3410  136.1750 C   0  0  0  0  0  3  0  0  0  0  0  0
  188.6700  177.4160  139.4190 O   0  0  0  0  0  0  0  0  0  0  0  0
  189.0960  177.5090  140.7480 C   0  0  0  0  0  0  0  0  0  0  0  0
  190.3540  177.2860  141.0700 C   0  0  0  0  0  0  0  0  0  0  0  0
  189.0850  176.9660  137.0490 C   0  0  0  0  0  0  0  0  0  0  0  0
  191.8180  176.2750  137.6960 C   0  0  0  0  0  0  0  0  0  0  0  0
  188.0250  177.8790  142.1210 S   0  0  0  0  0  0  0  0  0  0  0  0
  191.2990  176.0410  136.4870 C   0  0  0  0  0  3  0  0  0  0  0  0
  191.3160  176.8260  140.0520 C   0  0  0  0  0  3  0  0  0  0  0  0
  189.6350  177.4810  138.3590 C   0  0  2  0  0  3  0  0  0  0  0  0
  190.9530  176.8350  138.7570 C   0  0  0  0  0  0  0  0  0  0  0  0
  190.6530  177.4040  142.4490 N   0  0  0  0  0  2  0  0  0  0  0  0
  187.3350  178.7210  136.4580 C   0  0  0  0  0  2  0  0  0  0  0  0
  187.6580  177.2510  136.6680 C   0  0  0  0  0  0  0  0  0  0  0  0
  187.4640  177.7900  135.2620 C   0  0  0  0  0  2  0  0  0  0  0  0
  186.5490  176.3370  137.2190 C   0  0  2  0  0  3  0  0  0  0  0  0
  186.8090  174.8880  136.8410 C   0  0  0  0  0  1  0  0  0  0  0  0
  184.3960  177.2130  137.9580 N   0  0  0  0  0  1  0  0  0  0  0  0
  185.1360  176.7350  136.8020 C   0  0  0  0  0  2  0  0  0  0  0  0
  194.2930  175.6280  138.1530 N   0  0  0  0  0  0  0  0  0  0  0  0
  193.1890  175.9170  137.9500 C   0  0  0  0  0  0  0  0  0  0  0  0
  189.2920  177.1280  144.4850 C   0  0  0  0  0  2  0  0  0  0  0  0
  191.7660  176.7530  147.1700 O   0  0  0  0  0  0  0  0  0  0  0  0
  190.6440  176.9120  146.6150 C   0  0  0  0  0  0  0  0  0  0  0  0
  190.5500  176.8900  145.1870 N   0  0  0  0  0  2  0  0  0  0  0  0
  189.4320  177.1310  147.4600 C   0  0  0  0  0  1  0  0  0  0  0  0
  1 23  1  1  0  0  0
  2  9  1  0  0  0  0
  2  6  2  0  0  0  0
  3  4  1  0  0  0  0
  4  5  2  0  0  0  0
  4  8  1  0  0  0  0
  5 13  1  0  0  0  0
  7 22  1  0  0  0  0
  7 12  1  0  0  0  0
  8  1  1  0  0  0  0
  9  7  2  0  0  0  0
 10  5  1  0  0  0  0
 11  6  1  6  0  0  0
 11 12  1  0  0  0  0
 11  3  1  0  0  0  0
 12 10  2  0  0  0  0
 13  1  1  0  0  0  0
 14 15  1  0  0  0  0
 15  6  1  0  0  0  0
 15 17  1  0  0  0  0
 16 14  1  0  0  0  0
 16 15  1  0  0  0  0
 17 18  1  6  0  0  0
 20 17  1  0  0  0  0
 20 19  1  0  0  0  0
 22 21  3  0  0  0  0
 23 26  1  0  0  0  0
 25 24  2  0  0  0  0
 25 27  1  0  0  0  0
 26 25  1  0  0  0  0
M  END
>  <MODEL>
8

>  <REMARK>
 VINA RESULT:      -7.5      3.185      7.153
  Name = 
  6 active torsions:
  status: ('A' for Active; 'I' for Inactive)
    1  A    between atoms: C_1  and  C_22
    2  A    between atoms: C_5  and  C_9
    3  A    between atoms: C_5  and  C_20
    4  A    between atoms: C_9  and  C_15
    5  A    between atoms: N_10  and  C_22
    6  A    between atoms: C_14  and  C_16
                            x       y       z     vdW  Elec       q    Type
                         _______ _______ _______ _____ _____    ______ ____

>  <TORSDO>
F 6

$$$$
=
 OpenBabel10222420173D

 27 30  0  0  1  0  0  0  0  0999 V2000
  184.9780  178.6690  139.9320 C   0  0  2  0  0  3  0  0  0  0  0  0
  191.9100  177.5270  141.5540 C   0  0  0  0  0  3  0  0  0  0  0  0
  188.3740  178.2990  141.8260 O   0  0  0  0  0  0  0  0  0  0  0  0
  187.2400  178.4310  141.0180 C   0  0  0  0  0  0  0  0  0  0  0  0
  187.2720  178.0820  139.7490 C   0  0  0  0  0  0  0  0  0  0  0  0
  190.7250  177.7020  142.1590 C   0  0  0  0  0  0  0  0  0  0  0  0
  190.9330  177.0940  139.3390 C   0  0  0  0  0  0  0  0  0  0  0  0
  185.6880  179.1050  141.5730 S   0  0  0  0  0  0  0  0  0  0  0  0
  192.0100  177.1600  140.1270 C   0  0  0  0  0  3  0  0  0  0  0  0
  188.5340  177.6480  139.1240 C   0  0  0  0  0  3  0  0  0  0  0  0
  189.4380  177.4270  141.4160 C   0  0  2  0  0  3  0  0  0  0  0  0
  189.6040  177.4130  139.9040 C   0  0  0  0  0  0  0  0  0  0  0  0
  186.0610  178.2740  139.0400 N   0  0  0  0  0  2  0  0  0  0  0  0
  191.9130  178.8170  144.1190 C   0  0  0  0  0  2  0  0  0  0  0  0
  190.6890  178.0680  143.6180 C   0  0  0  0  0  0  0  0  0  0  0  0
  190.6000  179.5560  143.9060 C   0  0  0  0  0  2  0  0  0  0  0  0
  189.9650  177.1270  144.5980 C   0  0  2  0  0  3  0  0  0  0  0  0
  188.6720  177.7570  145.0910 C   0  0  0  0  0  1  0  0  0  0  0  0
  190.0980  176.9470  147.0270 N   0  0  0  0  0  1  0  0  0  0  0  0
  190.8100  176.6810  145.7880 C   0  0  0  0  0  2  0  0  0  0  0  0
  191.2400  176.5200  136.8240 N   0  0  0  0  0  0  0  0  0  0  0  0
  191.1050  176.7760  137.9460 C   0  0  0  0  0  0  0  0  0  0  0  0
  184.1690  179.8230  139.3500 C   0  0  0  0  0  2  0  0  0  0  0  0
  180.9280  179.7070  137.6330 O   0  0  0  0  0  0  0  0  0  0  0  0
  181.9230  180.1890  138.2410 C   0  0  0  0  0  0  0  0  0  0  0  0
  183.0180  179.3380  138.5940 N   0  0  0  0  0  2  0  0  0  0  0  0
  181.9360  181.6410  138.5910 C   0  0  0  0  0  1  0  0  0  0  0  0
  1 23  1  6  0  0  0
  1  8  1  0  0  0  0
  2  6  2  0  0  0  0
  4  8  1  0  0  0  0
  4  3  1  0  0  0  0
  5  4  2  0  0  0  0
  6 15  1  0  0  0  0
  7 12  1  0  0  0  0
  7  9  2  0  0  0  0
  9  2  1  0  0  0  0
 10  5  1  0  0  0  0
 10 12  2  0  0  0  0
 11 12  1  6  0  0  0
 11  3  1  0  0  0  0
 11  6  1  0  0  0  0
 13  5  1  0  0  0  0
 13  1  1  0  0  0  0
 15 16  1  0  0  0  0
 15 14  1  0  0  0  0
 15 17  1  0  0  0  0
 16 14  1  0  0  0  0
 17 18  1  1  0  0  0
 17 20  1  0  0  0  0
 20 19  1  0  0  0  0
 21 22  3  0  0  0  0
 22  7  1  0  0  0  0
 24 25  2  0  0  0  0
 25 27  1  0  0  0  0
 25 26  1  0  0  0  0
 26 23  1  0  0  0  0
M  END
>  <MODEL>
9

>  <REMARK>
 VINA RESULT:      -7.5      2.841      7.578
  Name = 
  6 active torsions:
  status: ('A' for Active; 'I' for Inactive)
    1  A    between atoms: C_1  and  C_22
    2  A    between atoms: C_5  and  C_9
    3  A    between atoms: C_5  and  C_20
    4  A    between atoms: C_9  and  C_15
    5  A    between atoms: N_10  and  C_22
    6  A    between atoms: C_14  and  C_16
                            x       y       z     vdW  Elec       q    Type
                         _______ _______ _______ _____ _____    ______ ____

>  <TORSDO>
F 6

$$$$
