=
 OpenBabel10222418543D

 43 49  0  0  1  0  0  0  0  0999 V2000
  186.9780  177.8640  141.5160 N   0  0  0  0  0  0  0  0  0  0  0  0
  185.7460  178.3120  140.8900 C   0  0  0  0  0  2  0  0  0  0  0  0
  188.2580  178.2300  141.3580 C   0  0  0  0  0  0  0  0  0  0  0  0
  188.2930  176.5190  137.9460 C   0  0  0  0  0  2  0  0  0  0  0  0
  186.8040  177.6840  142.8150 C   0  0  0  0  0  0  0  0  0  0  0  0
  182.4180  175.6840  138.8840 C   0  0  0  0  0  2  0  0  0  0  0  0
  188.8460  178.1900  142.6180 C   0  0  0  0  0  0  0  0  0  0  0  0
  182.8170  178.6010  139.5980 C   0  0  0  0  0  0  0  0  0  0  0  0
  189.8160  177.8630  139.3860 C   0  0  2  0  0  3  0  0  0  0  0  0
  183.1890  174.7880  136.7060 C   0  0  0  0  0  0  0  0  0  0  0  0
  185.0990  174.1610  135.2720 C   0  0  0  0  0  2  0  0  0  0  0  0
  187.9100  177.9030  143.5560 N   0  0  0  0  0  0  0  0  0  0  0  0
  182.6500  179.1350  140.7770 C   0  0  0  0  0  0  0  0  0  0  0  0
  188.8310  178.8010  140.0940 C   0  0  0  0  0  2  0  0  0  0  0  0
  189.2390  176.4790  139.1280 C   0  0  0  0  0  2  0  0  0  0  0  0
  186.1920  173.9780  136.3140 C   0  0  0  0  0  2  0  0  0  0  0  0
  183.3790  178.7520  141.9900 C   0  0  0  0  0  0  0  0  0  0  0  0
  184.7880  178.3050  142.0670 C   0  0  0  0  0  0  0  0  0  0  0  0
  180.1920  179.8260  140.5950 N   0  0  0  0  0  1  0  0  0  0  0  0
  182.9460  173.5860  137.0010 O   0  0  0  0  0  0  0  0  0  0  0  0
  182.6130  178.8900  143.0260 N   0  0  0  0  0  0  0  0  0  0  0  0
  185.4320  177.9330  143.1870 C   0  0  0  0  0  0  0  0  0  0  0  0
  181.3460  179.3260  142.6210 N   0  0  0  0  0  0  0  0  0  0  0  0
  182.4510  175.8940  137.3830 C   0  0  2  0  0  3  0  0  0  0  0  0
  186.9200  175.2910  136.5300 C   0  0  0  0  0  2  0  0  0  0  0  0
  187.7890  175.1840  137.6860 N   0  0  0  0  0  2  0  0  0  0  0  0
  183.4250  176.6450  138.2780 C   0  0  1  0  0  3  0  0  0  0  0  0
  184.8960  177.9050  144.5790 C   0  0  0  0  0  1  0  0  0  0  0  0
  181.3500  179.4640  141.3400 C   0  0  0  0  0  0  0  0  0  0  0  0
  191.0530  177.7510  140.1390 N   0  0  0  0  0  1  0  0  0  0  0  0
  184.1410  175.1050  135.7340 O   0  0  0  0  0  0  0  0  0  0  0  0
  182.9640  178.0560  138.4210 C   0  0  0  0  0  3  0  0  0  0  0  0
  190.2240  178.6540  142.9550 C   0  0  0  0  0  2  0  0  0  0  0  0
  190.9530  177.5980  143.7640 C   0  0  1  0  0  3  0  0  0  0  0  0
  191.9900  178.2050  144.4920 O   0  0  0  0  0  0  0  0  0  0  0  0
  190.8180  177.8910  145.2050 C   0  0  2  0  0  3  0  0  0  0  0  0
  191.0520  176.6230  146.0050 C   0  0  0  0  0  2  0  0  0  0  0  0
  188.7980  176.7460  146.5980 C   0  0  0  0  0  2  0  0  0  0  0  0
  188.0130  177.5760  147.5890 C   0  0  1  0  0  3  0  0  0  0  0  0
  189.0470  178.2630  148.4460 C   0  0  0  0  0  2  0  0  0  0  0  0
  187.2560  178.5300  146.9060 O   0  0  0  0  0  1  0  0  0  0  0  0
  190.1380  176.5740  147.1330 N   0  0  0  0  0  0  0  0  0  0  0  0
  190.3860  177.7590  147.9440 C   0  0  0  0  0  2  0  0  0  0  0  0
  1  5  1  0  0  0  0
  2  1  1  0  0  0  0
  2 18  1  0  0  0  0
  3  1  1  0  0  0  0
  3  7  2  0  0  0  0
  4 15  1  0  0  0  0
  5 22  1  0  0  0  0
  5 12  2  0  0  0  0
  7 33  1  0  0  0  0
  7 12  1  0  0  0  0
  8 13  2  0  0  0  0
  9 14  1  0  0  0  0
  9 30  1  1  0  0  0
 10 20  2  0  0  0  0
 10 24  1  0  0  0  0
 11 31  1  0  0  0  0
 11 16  1  0  0  0  0
 13 29  1  0  0  0  0
 13 17  1  0  0  0  0
 14  3  1  0  0  0  0
 15  9  1  0  0  0  0
 16 25  1  0  0  0  0
 17 18  1  0  0  0  0
 17 21  2  0  0  0  0
 18 22  2  0  0  0  0
 19 29  1  0  0  0  0
 22 28  1  0  0  0  0
 23 21  1  0  0  0  0
 24 27  1  0  0  0  0
 24  6  1  1  0  0  0
 25 26  1  0  0  0  0
 26  4  1  0  0  0  0
 27 32  1  1  0  0  0
 27  6  1  0  0  0  0
 29 23  2  0  0  0  0
 31 10  1  0  0  0  0
 32  8  2  0  0  0  0
 34 33  1  6  0  0  0
 34 35  1  0  0  0  0
 34 36  1  0  0  0  0
 35 36  1  0  0  0  0
 36 37  1  1  0  0  0
 37 42  1  0  0  0  0
 38 42  1  0  0  0  0
 38 39  1  0  0  0  0
 39 41  1  6  0  0  0
 39 40  1  0  0  0  0
 42 43  1  0  0  0  0
 43 40  1  0  0  0  0
M  END
>  <MODEL>
1

>  <REMARK>
 VINA RESULT:      -8.2      0.000      0.000
  Name = 
  4 active torsions:
  status: ('A' for Active; 'I' for Inactive)
    1  A    between atoms: C_5  and  C_9
    2  A    between atoms: C_5  and  C_22
    3  A    between atoms: C_12  and  N_24
    4  A    between atoms: C_12  and  C_42
                            x       y       z     vdW  Elec       q    Type
                         _______ _______ _______ _____ _____    ______ ____

>  <TORSDO>
F 4

$$$$
=
 OpenBabel10222418543D

 43 49  0  0  1  0  0  0  0  0999 V2000
  189.0330  176.2600  137.6440 N   0  0  0  0  0  0  0  0  0  0  0  0
  187.7190  176.8460  137.4510 C   0  0  0  0  0  2  0  0  0  0  0  0
  190.1100  176.1680  136.8500 C   0  0  0  0  0  0  0  0  0  0  0  0
  188.2700  173.5960  134.7120 C   0  0  0  0  0  2  0  0  0  0  0  0
  189.4930  176.5310  138.8550 C   0  0  0  0  0  0  0  0  0  0  0  0
  183.5410  174.8470  138.1990 C   0  0  0  0  0  2  0  0  0  0  0  0
  191.2250  176.3310  137.6630 C   0  0  0  0  0  0  0  0  0  0  0  0
  184.5920  177.5910  137.4600 C   0  0  0  0  0  0  0  0  0  0  0  0
  190.4540  174.7930  134.7430 C   0  0  2  0  0  3  0  0  0  0  0  0
  183.0390  173.1620  136.4520 C   0  0  0  0  0  0  0  0  0  0  0  0
  183.9180  171.6050  134.7480 C   0  0  0  0  0  2  0  0  0  0  0  0
  190.8370  176.6230  138.9290 N   0  0  0  0  0  0  0  0  0  0  0  0
  185.0860  178.4740  138.2850 C   0  0  0  0  0  0  0  0  0  0  0  0
  190.0610  176.1440  135.3500 C   0  0  0  0  0  2  0  0  0  0  0  0
  189.6590  173.6290  135.3160 C   0  0  0  0  0  2  0  0  0  0  0  0
  185.3470  171.4250  135.2350 C   0  0  0  0  0  2  0  0  0  0  0  0
  186.2590  178.2690  139.1390 C   0  0  0  0  0  0  0  0  0  0  0  0
  187.4610  177.4700  138.8100 C   0  0  0  0  0  0  0  0  0  0  0  0
  182.9560  179.7730  138.8560 N   0  0  0  0  0  1  0  0  0  0  0  0
  182.8240  172.2280  137.2730 O   0  0  0  0  0  0  0  0  0  0  0  0
  186.1180  178.9260  140.2470 N   0  0  0  0  0  0  0  0  0  0  0  0
  188.5170  177.2730  139.6180 C   0  0  0  0  0  0  0  0  0  0  0  0
  184.8780  179.5760  140.2540 N   0  0  0  0  0  0  0  0  0  0  0  0
  182.8660  174.5850  136.8660 C   0  0  2  0  0  3  0  0  0  0  0  0
  186.2430  172.4670  134.5940 C   0  0  0  0  0  2  0  0  0  0  0  0
  187.5440  172.4550  135.2350 N   0  0  0  0  0  2  0  0  0  0  0  0
  184.2360  175.2440  136.9090 C   0  0  1  0  0  3  0  0  0  0  0  0
  188.7260  177.8160  140.9910 C   0  0  0  0  0  1  0  0  0  0  0  0
  184.2760  179.3220  139.1440 C   0  0  0  0  0  0  0  0  0  0  0  0
  191.8760  174.5480  134.9050 N   0  0  0  0  0  1  0  0  0  0  0  0
  183.4290  172.8820  135.1400 O   0  0  0  0  0  0  0  0  0  0  0  0
  184.0800  176.7050  136.6500 C   0  0  0  0  0  3  0  0  0  0  0  0
  192.6390  176.4450  137.1960 C   0  0  0  0  0  2  0  0  0  0  0  0
  193.5640  175.6830  138.1260 C   0  0  1  0  0  3  0  0  0  0  0  0
  193.4200  174.3050  137.8950 O   0  0  0  0  0  0  0  0  0  0  0  0
  194.5530  174.9230  137.3350 C   0  0  2  0  0  3  0  0  0  0  0  0
  195.7620  174.6120  138.1960 C   0  0  0  0  0  2  0  0  0  0  0  0
  196.8220  174.8610  136.1320 C   0  0  0  0  0  2  0  0  0  0  0  0
  198.1830  174.4800  135.5930 C   0  0  1  0  0  3  0  0  0  0  0  0
  198.9870  174.0570  136.7980 C   0  0  0  0  0  2  0  0  0  0  0  0
  198.0540  173.4060  134.7100 O   0  0  0  0  0  1  0  0  0  0  0  0
  196.9670  175.1100  137.5570 N   0  0  0  0  0  0  0  0  0  0  0  0
  198.0690  174.2610  137.9870 C   0  0  0  0  0  2  0  0  0  0  0  0
  1  5  1  0  0  0  0
  2  1  1  0  0  0  0
  2 18  1  0  0  0  0
  3  1  1  0  0  0  0
  3  7  2  0  0  0  0
  4 26  1  0  0  0  0
  4 15  1  0  0  0  0
  5 12  2  0  0  0  0
  5 22  1  0  0  0  0
  7 12  1  0  0  0  0
  8 13  2  0  0  0  0
  9 30  1  1  0  0  0
  9 15  1  0  0  0  0
  9 14  1  0  0  0  0
 10 24  1  0  0  0  0
 10 20  2  0  0  0  0
 11 31  1  0  0  0  0
 11 16  1  0  0  0  0
 13 17  1  0  0  0  0
 13 29  1  0  0  0  0
 14  3  1  0  0  0  0
 17 21  2  0  0  0  0
 18 17  1  0  0  0  0
 18 22  2  0  0  0  0
 19 29  1  0  0  0  0
 21 23  1  0  0  0  0
 22 28  1  0  0  0  0
 24 27  1  0  0  0  0
 24  6  1  1  0  0  0
 25 26  1  0  0  0  0
 25 16  1  0  0  0  0
 27 32  1  1  0  0  0
 27  6  1  0  0  0  0
 29 23  2  0  0  0  0
 31 10  1  0  0  0  0
 32  8  2  0  0  0  0
 33  7  1  0  0  0  0
 34 33  1  6  0  0  0
 35 34  1  0  0  0  0
 36 35  1  0  0  0  0
 36 34  1  0  0  0  0
 36 37  1  1  0  0  0
 38 42  1  0  0  0  0
 39 41  1  6  0  0  0
 39 38  1  0  0  0  0
 39 40  1  0  0  0  0
 40 43  1  0  0  0  0
 42 43  1  0  0  0  0
 42 37  1  0  0  0  0
M  END
>  <MODEL>
2

>  <REMARK>
 VINA RESULT:      -7.6      4.603      7.062
  Name = 
  4 active torsions:
  status: ('A' for Active; 'I' for Inactive)
    1  A    between atoms: C_5  and  C_9
    2  A    between atoms: C_5  and  C_22
    3  A    between atoms: C_12  and  N_24
    4  A    between atoms: C_12  and  C_42
                            x       y       z     vdW  Elec       q    Type
                         _______ _______ _______ _____ _____    ______ ____

>  <TORSDO>
F 4

$$$$
=
 OpenBabel10222418543D

 43 49  0  0  1  0  0  0  0  0999 V2000
  184.1670  177.3570  138.5240 N   0  0  0  0  0  0  0  0  0  0  0  0
  185.4880  177.8260  138.1440 C   0  0  0  0  0  2  0  0  0  0  0  0
  183.0530  177.9990  138.9060 C   0  0  0  0  0  0  0  0  0  0  0  0
  184.7180  178.8350  142.2380 C   0  0  0  0  0  2  0  0  0  0  0  0
  183.7710  176.3780  137.7280 C   0  0  0  0  0  0  0  0  0  0  0  0
  189.6350  176.3910  139.8010 C   0  0  0  0  0  2  0  0  0  0  0  0
  181.9810  177.3110  138.3510 C   0  0  0  0  0  0  0  0  0  0  0  0
  188.6330  178.2340  137.6160 C   0  0  0  0  0  0  0  0  0  0  0  0
  182.5740  179.2740  141.0500 C   0  0  2  0  0  3  0  0  0  0  0  0
  190.0080  177.2290  142.1040 C   0  0  0  0  0  0  0  0  0  0  0  0
  189.0080  178.0460  144.2080 C   0  0  0  0  0  2  0  0  0  0  0  0
  182.4350  176.3150  137.5520 N   0  0  0  0  0  0  0  0  0  0  0  0
  188.2020  177.8690  136.4390 C   0  0  0  0  0  0  0  0  0  0  0  0
  183.0340  179.3360  139.5890 C   0  0  0  0  0  2  0  0  0  0  0  0
  183.3600  178.2690  141.8790 C   0  0  0  0  0  2  0  0  0  0  0  0
  187.5980  177.4910  144.0910 C   0  0  0  0  0  2  0  0  0  0  0  0
  187.0630  176.9800  136.1930 C   0  0  0  0  0  0  0  0  0  0  0  0
  185.8250  176.8890  136.9990 C   0  0  0  0  0  0  0  0  0  0  0  0
  190.3930  177.9890  135.1210 N   0  0  0  0  0  1  0  0  0  0  0  0
  190.2330  176.0870  142.5910 O   0  0  0  0  0  0  0  0  0  0  0  0
  187.2740  176.2790  135.1240 N   0  0  0  0  0  0  0  0  0  0  0  0
  184.8020  176.0480  136.7730 C   0  0  0  0  0  0  0  0  0  0  0  0
  188.5310  176.5950  134.5940 N   0  0  0  0  0  0  0  0  0  0  0  0
  190.2420  177.4890  140.6530 C   0  0  2  0  0  3  0  0  0  0  0  0
  186.7040  178.5000  143.3960 C   0  0  0  0  0  2  0  0  0  0  0  0
  185.4340  177.8830  143.0660 N   0  0  0  0  0  2  0  0  0  0  0  0
  188.8950  177.7040  139.9800 C   0  0  1  0  0  3  0  0  0  0  0  0
  184.6700  175.0490  135.6720 C   0  0  0  0  0  1  0  0  0  0  0  0
  189.0740  177.4950  135.3380 C   0  0  0  0  0  0  0  0  0  0  0  0
  181.1540  178.9810  141.1330 N   0  0  0  0  0  1  0  0  0  0  0  0
  189.5510  178.2710  142.9140 O   0  0  0  0  0  0  0  0  0  0  0  0
  189.0810  178.5840  138.7910 C   0  0  0  0  0  3  0  0  0  0  0  0
  180.5510  177.7400  138.3890 C   0  0  0  0  0  2  0  0  0  0  0  0
  180.2420  178.6450  137.2110 C   0  0  1  0  0  3  0  0  0  0  0  0
  178.9650  179.2040  137.3790 O   0  0  0  0  0  0  0  0  0  0  0  0
  180.0600  180.0330  137.6810 C   0  0  2  0  0  3  0  0  0  0  0  0
  180.2860  180.9940  136.5290 C   0  0  0  0  0  2  0  0  0  0  0  0
  179.7470  183.1120  135.7130 C   0  0  0  0  0  2  0  0  0  0  0  0
  180.2770  184.5060  135.9670 C   0  0  1  0  0  3  0  0  0  0  0  0
  181.1830  184.3780  137.1670 C   0  0  0  0  0  2  0  0  0  0  0  0
  181.0140  184.9360  134.8630 O   0  0  0  0  0  1  0  0  0  0  0  0
  179.9300  182.3430  136.9320 N   0  0  0  0  0  0  0  0  0  0  0  0
  181.0970  182.9230  137.5830 C   0  0  0  0  0  2  0  0  0  0  0  0
  1  3  1  0  0  0  0
  2  1  1  0  0  0  0
  3 14  1  0  0  0  0
  4 26  1  0  0  0  0
  5  1  1  0  0  0  0
  6 27  1  0  0  0  0
  7 33  1  0  0  0  0
  7  3  2  0  0  0  0
  8 32  2  0  0  0  0
  9 30  1  6  0  0  0
  9 15  1  0  0  0  0
 10 20  2  0  0  0  0
 10 31  1  0  0  0  0
 12  5  2  0  0  0  0
 12  7  1  0  0  0  0
 13  8  2  0  0  0  0
 14  9  1  0  0  0  0
 15  4  1  0  0  0  0
 16 11  1  0  0  0  0
 17 13  1  0  0  0  0
 17 18  1  0  0  0  0
 18  2  1  0  0  0  0
 19 29  1  0  0  0  0
 21 17  2  0  0  0  0
 22 18  2  0  0  0  0
 22  5  1  0  0  0  0
 23 21  1  0  0  0  0
 23 29  2  0  0  0  0
 24  6  1  6  0  0  0
 24 10  1  0  0  0  0
 25 16  1  0  0  0  0
 26 25  1  0  0  0  0
 27 32  1  6  0  0  0
 27 24  1  0  0  0  0
 28 22  1  0  0  0  0
 29 13  1  0  0  0  0
 31 11  1  0  0  0  0
 34 35  1  0  0  0  0
 34 36  1  0  0  0  0
 34 33  1  1  0  0  0
 35 36  1  0  0  0  0
 36 37  1  6  0  0  0
 37 42  1  0  0  0  0
 38 39  1  0  0  0  0
 38 42  1  0  0  0  0
 39 41  1  6  0  0  0
 39 40  1  0  0  0  0
 40 43  1  0  0  0  0
 42 43  1  0  0  0  0
M  END
>  <MODEL>
3

>  <REMARK>
 VINA RESULT:      -7.4      3.570      9.996
  Name = 
  4 active torsions:
  status: ('A' for Active; 'I' for Inactive)
    1  A    between atoms: C_5  and  C_9
    2  A    between atoms: C_5  and  C_22
    3  A    between atoms: C_12  and  N_24
    4  A    between atoms: C_12  and  C_42
                            x       y       z     vdW  Elec       q    Type
                         _______ _______ _______ _____ _____    ______ ____

>  <TORSDO>
F 4

$$$$
=
 OpenBabel10222418543D

 43 49  0  0  1  0  0  0  0  0999 V2000
  185.2310  177.0010  137.4130 N   0  0  0  0  0  0  0  0  0  0  0  0
  184.0710  177.0900  136.5440 C   0  0  0  0  0  2  0  0  0  0  0  0
  186.5430  176.8800  137.1620 C   0  0  0  0  0  0  0  0  0  0  0  0
  185.9630  173.2780  136.0410 C   0  0  0  0  0  2  0  0  0  0  0  0
  185.1270  177.8510  138.4210 C   0  0  0  0  0  0  0  0  0  0  0  0
  180.1330  174.5490  136.7360 C   0  0  0  0  0  2  0  0  0  0  0  0
  187.2070  177.6460  138.1130 C   0  0  0  0  0  0  0  0  0  0  0  0
  181.1690  176.9260  135.1700 C   0  0  0  0  0  0  0  0  0  0  0  0
  187.8350  174.9110  136.2120 C   0  0  2  0  0  3  0  0  0  0  0  0
  180.5330  172.2320  135.9490 C   0  0  0  0  0  0  0  0  0  0  0  0
  182.1580  170.4080  135.5910 C   0  0  0  0  0  2  0  0  0  0  0  0
  186.3090  178.3130  138.8790 N   0  0  0  0  0  0  0  0  0  0  0  0
  181.2070  178.1630  135.5840 C   0  0  0  0  0  0  0  0  0  0  0  0
  187.1180  176.2370  135.9340 C   0  0  0  0  0  2  0  0  0  0  0  0
  186.9710  173.9170  136.9730 C   0  0  0  0  0  2  0  0  0  0  0  0
  183.2690  170.8230  136.5430 C   0  0  0  0  0  2  0  0  0  0  0  0
  181.9350  178.6390  136.7640 C   0  0  0  0  0  0  0  0  0  0  0  0
  183.2260  178.1210  137.2710 C   0  0  0  0  0  0  0  0  0  0  0  0
  178.9330  178.9730  134.7310 N   0  0  0  0  0  1  0  0  0  0  0  0
  180.0750  171.6920  136.9940 O   0  0  0  0  0  0  0  0  0  0  0  0
  181.2970  179.6270  137.3080 N   0  0  0  0  0  0  0  0  0  0  0  0
  183.8670  178.5530  138.3700 C   0  0  0  0  0  0  0  0  0  0  0  0
  180.1170  179.8740  136.5960 N   0  0  0  0  0  0  0  0  0  0  0  0
  180.0900  173.6010  135.5530 C   0  0  2  0  0  3  0  0  0  0  0  0
  184.2630  171.7100  135.8180 C   0  0  0  0  0  2  0  0  0  0  0  0
  185.1800  172.3010  136.7730 N   0  0  0  0  0  2  0  0  0  0  0  0
  181.2630  174.5540  135.7220 C   0  0  1  0  0  3  0  0  0  0  0  0
  183.4470  179.6420  139.2990 C   0  0  0  0  0  1  0  0  0  0  0  0
  180.0490  179.0420  135.6140 C   0  0  0  0  0  0  0  0  0  0  0  0
  189.0780  175.1350  136.9270 N   0  0  0  0  0  1  0  0  0  0  0  0
  181.4510  171.5570  135.1420 O   0  0  0  0  0  0  0  0  0  0  0  0
  181.1100  175.6870  134.7640 C   0  0  0  0  0  3  0  0  0  0  0  0
  188.6730  177.9270  138.1420 C   0  0  0  0  0  2  0  0  0  0  0  0
  189.3260  177.2020  139.3040 C   0  0  1  0  0  3  0  0  0  0  0  0
  190.5890  177.7650  139.5500 O   0  0  0  0  0  0  0  0  0  0  0  0
  189.5500  178.1450  140.4190 C   0  0  2  0  0  3  0  0  0  0  0  0
  189.6840  177.3730  141.7180 C   0  0  0  0  0  2  0  0  0  0  0  0
  189.7600  178.0790  143.9400 C   0  0  0  0  0  2  0  0  0  0  0  0
  188.8800  177.8500  145.1490 C   0  0  1  0  0  3  0  0  0  0  0  0
  187.6280  177.1960  144.6170 C   0  0  0  0  0  2  0  0  0  0  0  0
  189.5220  176.9870  146.0390 O   0  0  0  0  0  1  0  0  0  0  0  0
  188.9110  178.0210  142.7620 N   0  0  0  0  0  0  0  0  0  0  0  0
  187.8200  177.1230  143.1150 C   0  0  0  0  0  2  0  0  0  0  0  0
  1  5  1  0  0  0  0
  2 18  1  0  0  0  0
  2  1  1  0  0  0  0
  3  1  1  0  0  0  0
  3  7  2  0  0  0  0
  4 26  1  0  0  0  0
  4 15  1  0  0  0  0
  5 12  2  0  0  0  0
  7 33  1  0  0  0  0
  7 12  1  0  0  0  0
  8 13  2  0  0  0  0
  9 30  1  1  0  0  0
  9 15  1  0  0  0  0
 10 20  2  0  0  0  0
 11 16  1  0  0  0  0
 13 29  1  0  0  0  0
 13 17  1  0  0  0  0
 14  9  1  0  0  0  0
 14  3  1  0  0  0  0
 17 18  1  0  0  0  0
 17 21  2  0  0  0  0
 18 22  2  0  0  0  0
 19 29  1  0  0  0  0
 22  5  1  0  0  0  0
 22 28  1  0  0  0  0
 23 21  1  0  0  0  0
 24 27  1  0  0  0  0
 24 10  1  0  0  0  0
 24  6  1  1  0  0  0
 25 16  1  0  0  0  0
 25 26  1  0  0  0  0
 27 32  1  6  0  0  0
 27  6  1  0  0  0  0
 29 23  2  0  0  0  0
 31 11  1  0  0  0  0
 31 10  1  0  0  0  0
 32  8  2  0  0  0  0
 34 33  1  6  0  0  0
 34 35  1  0  0  0  0
 34 36  1  0  0  0  0
 35 36  1  0  0  0  0
 36 37  1  1  0  0  0
 37 42  1  0  0  0  0
 38 39  1  0  0  0  0
 39 41  1  1  0  0  0
 40 39  1  0  0  0  0
 42 43  1  0  0  0  0
 42 38  1  0  0  0  0
 43 40  1  0  0  0  0
M  END
>  <MODEL>
4

>  <REMARK>
 VINA RESULT:      -7.4      2.759      4.725
  Name = 
  4 active torsions:
  status: ('A' for Active; 'I' for Inactive)
    1  A    between atoms: C_5  and  C_9
    2  A    between atoms: C_5  and  C_22
    3  A    between atoms: C_12  and  N_24
    4  A    between atoms: C_12  and  C_42
                            x       y       z     vdW  Elec       q    Type
                         _______ _______ _______ _____ _____    ______ ____

>  <TORSDO>
F 4

$$$$
=
 OpenBabel10222418543D

 43 49  0  0  1  0  0  0  0  0999 V2000
  183.7110  177.7550  138.6410 N   0  0  0  0  0  0  0  0  0  0  0  0
  185.0730  178.1490  138.9560 C   0  0  0  0  0  2  0  0  0  0  0  0
  182.6080  178.4610  138.3560 C   0  0  0  0  0  0  0  0  0  0  0  0
  182.4170  179.5730  142.0030 C   0  0  0  0  0  2  0  0  0  0  0  0
  183.7020  176.7140  137.8250 C   0  0  0  0  0  0  0  0  0  0  0  0
  187.6970  176.7700  142.5920 C   0  0  0  0  0  2  0  0  0  0  0  0
  181.9160  177.7510  137.3820 C   0  0  0  0  0  0  0  0  0  0  0  0
  188.0740  178.4170  140.0770 C   0  0  0  0  0  0  0  0  0  0  0  0
  181.2050  179.9520  139.8600 C   0  0  2  0  0  3  0  0  0  0  0  0
  186.9160  177.8190  144.6970 C   0  0  0  0  0  0  0  0  0  0  0  0
  185.0530  178.8650  145.9350 C   0  0  0  0  0  2  0  0  0  0  0  0
  182.6380  176.6700  136.9980 N   0  0  0  0  0  0  0  0  0  0  0  0
  188.2720  177.9520  138.8740 C   0  0  0  0  0  0  0  0  0  0  0  0
  182.3440  179.8580  138.8370 C   0  0  0  0  0  2  0  0  0  0  0  0
  181.3890  179.0110  141.0420 C   0  0  0  0  0  2  0  0  0  0  0  0
  183.8590  178.3390  145.1540 C   0  0  0  0  0  2  0  0  0  0  0  0
  187.3520  177.0730  138.1460 C   0  0  0  0  0  0  0  0  0  0  0  0
  185.8730  177.0950  138.2120 C   0  0  0  0  0  0  0  0  0  0  0  0
  190.8310  177.8830  138.8530 N   0  0  0  0  0  1  0  0  0  0  0  0
  186.7800  176.7240  145.3100 O   0  0  0  0  0  0  0  0  0  0  0  0
  188.0220  176.2660  137.3850 N   0  0  0  0  0  0  0  0  0  0  0  0
  185.0470  176.2640  137.5550 C   0  0  0  0  0  0  0  0  0  0  0  0
  189.3940  176.4940  137.5500 N   0  0  0  0  0  0  0  0  0  0  0  0
  187.8690  177.9300  143.5540 C   0  0  2  0  0  3  0  0  0  0  0  0
  183.5150  179.2990  144.0310 C   0  0  0  0  0  2  0  0  0  0  0  0
  182.5450  178.6870  143.1440 N   0  0  0  0  0  2  0  0  0  0  0  0
  187.0660  178.1140  142.2750 C   0  0  1  0  0  3  0  0  0  0  0  0
  185.4170  175.1670  136.6140 C   0  0  0  0  0  1  0  0  0  0  0  0
  189.5510  177.4480  138.4010 C   0  0  0  0  0  0  0  0  0  0  0  0
  179.9210  179.7070  139.2280 N   0  0  0  0  0  1  0  0  0  0  0  0
  186.1900  178.9470  145.0850 O   0  0  0  0  0  0  0  0  0  0  0  0
  187.8920  178.8680  141.2890 C   0  0  0  0  0  3  0  0  0  0  0  0
  180.6990  178.2210  136.6550 C   0  0  0  0  0  2  0  0  0  0  0  0
  181.0790  179.2360  135.5940 C   0  0  1  0  0  3  0  0  0  0  0  0
  180.0910  179.2550  134.5960 O   0  0  0  0  0  0  0  0  0  0  0  0
  180.0580  180.3020  135.5340 C   0  0  2  0  0  3  0  0  0  0  0  0
  180.6590  181.5460  134.9080 C   0  0  0  0  0  2  0  0  0  0  0  0
  181.1790  183.7100  135.6100 C   0  0  0  0  0  2  0  0  0  0  0  0
  181.0250  184.4600  136.9150 C   0  0  1  0  0  3  0  0  0  0  0  0
  180.1510  183.5860  137.7800 C   0  0  0  0  0  2  0  0  0  0  0  0
  182.2760  184.6190  137.5150 O   0  0  0  0  0  1  0  0  0  0  0  0
  180.1050  182.7330  135.5350 N   0  0  0  0  0  0  0  0  0  0  0  0
  179.7970  182.3910  136.9170 C   0  0  0  0  0  2  0  0  0  0  0  0
  1  2  1  0  0  0  0
  3  1  1  0  0  0  0
  3 14  1  0  0  0  0
  4 26  1  0  0  0  0
  5  1  1  0  0  0  0
  7  3  2  0  0  0  0
  8 32  2  0  0  0  0
  9 30  1  6  0  0  0
  9 15  1  0  0  0  0
 10 31  1  0  0  0  0
 10 20  2  0  0  0  0
 12  7  1  0  0  0  0
 12  5  2  0  0  0  0
 13  8  2  0  0  0  0
 14  9  1  0  0  0  0
 15  4  1  0  0  0  0
 16 11  1  0  0  0  0
 17 18  1  0  0  0  0
 17 13  1  0  0  0  0
 18  2  1  0  0  0  0
 21 23  1  0  0  0  0
 21 17  2  0  0  0  0
 22  5  1  0  0  0  0
 22 18  2  0  0  0  0
 23 29  2  0  0  0  0
 24  6  1  6  0  0  0
 24 10  1  0  0  0  0
 25 16  1  0  0  0  0
 26 25  1  0  0  0  0
 27 32  1  6  0  0  0
 27  6  1  0  0  0  0
 27 24  1  0  0  0  0
 28 22  1  0  0  0  0
 29 19  1  0  0  0  0
 29 13  1  0  0  0  0
 31 11  1  0  0  0  0
 33  7  1  0  0  0  0
 34 33  1  1  0  0  0
 35 36  1  0  0  0  0
 35 34  1  0  0  0  0
 36 37  1  6  0  0  0
 36 34  1  0  0  0  0
 37 42  1  0  0  0  0
 38 39  1  0  0  0  0
 39 41  1  1  0  0  0
 39 40  1  0  0  0  0
 42 38  1  0  0  0  0
 42 43  1  0  0  0  0
 43 40  1  0  0  0  0
M  END
>  <MODEL>
5

>  <REMARK>
 VINA RESULT:      -7.4      3.423     10.142
  Name = 
  4 active torsions:
  status: ('A' for Active; 'I' for Inactive)
    1  A    between atoms: C_5  and  C_9
    2  A    between atoms: C_5  and  C_22
    3  A    between atoms: C_12  and  N_24
    4  A    between atoms: C_12  and  C_42
                            x       y       z     vdW  Elec       q    Type
                         _______ _______ _______ _____ _____    ______ ____

>  <TORSDO>
F 4

$$$$
=
 OpenBabel10222418543D

 43 49  0  0  1  0  0  0  0  0999 V2000
  188.6400  177.2690  139.8010 N   0  0  0  0  0  0  0  0  0  0  0  0
  187.5270  178.0320  140.3370 C   0  0  0  0  0  2  0  0  0  0  0  0
  189.5930  177.5650  138.9060 C   0  0  0  0  0  0  0  0  0  0  0  0
  186.9790  177.4420  136.1280 C   0  0  0  0  0  2  0  0  0  0  0  0
  189.2360  176.5760  140.7570 C   0  0  0  0  0  0  0  0  0  0  0  0
  183.0210  176.7530  140.5940 C   0  0  0  0  0  2  0  0  0  0  0  0
  190.7630  176.9570  139.3480 C   0  0  0  0  0  0  0  0  0  0  0  0
  184.7330  179.0630  141.5480 C   0  0  0  0  0  0  0  0  0  0  0  0
  189.4040  177.9360  136.4010 C   0  0  2  0  0  3  0  0  0  0  0  0
  181.9590  176.7930  138.3550 C   0  0  0  0  0  0  0  0  0  0  0  0
  182.2590  176.6750  135.9070 C   0  0  0  0  0  2  0  0  0  0  0  0
  190.5550  176.3780  140.5560 N   0  0  0  0  0  0  0  0  0  0  0  0
  185.5050  179.0670  142.6000 C   0  0  0  0  0  0  0  0  0  0  0  0
  189.4390  178.5660  137.7980 C   0  0  0  0  0  2  0  0  0  0  0  0
  188.3610  176.8370  136.2700 C   0  0  0  0  0  2  0  0  0  0  0  0
  183.6130  175.9890  135.8160 C   0  0  0  0  0  2  0  0  0  0  0  0
  186.6310  178.1560  142.8250 C   0  0  0  0  0  0  0  0  0  0  0  0
  187.5420  177.6080  141.7950 C   0  0  0  0  0  0  0  0  0  0  0  0
  183.8570  179.9600  144.3420 N   0  0  0  0  0  1  0  0  0  0  0  0
  181.5510  175.6000  138.4170 O   0  0  0  0  0  0  0  0  0  0  0  0
  186.7510  177.9070  144.0910 N   0  0  0  0  0  0  0  0  0  0  0  0
  188.5550  176.7540  142.0180 C   0  0  0  0  0  0  0  0  0  0  0  0
  185.7410  178.5700  144.7980 N   0  0  0  0  0  0  0  0  0  0  0  0
  182.2120  177.5680  139.6040 C   0  0  2  0  0  3  0  0  0  0  0  0
  184.7160  177.0300  135.7970 C   0  0  0  0  0  2  0  0  0  0  0  0
  186.0030  176.3810  135.9580 N   0  0  0  0  0  2  0  0  0  0  0  0
  183.7090  177.7970  139.7340 C   0  0  1  0  0  3  0  0  0  0  0  0
  188.9980  176.1880  143.3250 C   0  0  0  0  0  1  0  0  0  0  0  0
  185.0190  179.2300  143.9600 C   0  0  0  0  0  0  0  0  0  0  0  0
  190.7120  177.4230  136.0320 N   0  0  0  0  0  1  0  0  0  0  0  0
  182.1680  177.4110  137.1200 O   0  0  0  0  0  0  0  0  0  0  0  0
  183.9440  179.0500  140.5070 C   0  0  0  0  0  3  0  0  0  0  0  0
  192.1190  177.1280  138.7470 C   0  0  0  0  0  2  0  0  0  0  0  0
  192.5030  175.8940  137.9540 C   0  0  1  0  0  3  0  0  0  0  0  0
  193.6050  176.1930  137.1350 O   0  0  0  0  0  0  0  0  0  0  0  0
  193.8720  175.4740  138.3140 C   0  0  2  0  0  3  0  0  0  0  0  0
  194.0630  174.0090  137.9680 C   0  0  0  0  0  2  0  0  0  0  0  0
  195.9740  174.6580  139.1380 C   0  0  0  0  0  2  0  0  0  0  0  0
  197.4580  174.4390  138.9390 C   0  0  1  0  0  3  0  0  0  0  0  0
  197.5670  173.3970  137.8530 C   0  0  0  0  0  2  0  0  0  0  0  0
  198.0540  175.6280  138.5150 O   0  0  0  0  0  1  0  0  0  0  0  0
  195.2810  173.5090  138.5800 N   0  0  0  0  0  0  0  0  0  0  0  0
  196.1380  173.0240  137.5080 C   0  0  0  0  0  2  0  0  0  0  0  0
  1  2  1  0  0  0  0
  1  5  1  0  0  0  0
  2 18  1  0  0  0  0
  3  7  2  0  0  0  0
  3  1  1  0  0  0  0
  4 15  1  0  0  0  0
  5 22  1  0  0  0  0
  7 12  1  0  0  0  0
  8 13  2  0  0  0  0
  9 30  1  1  0  0  0
  9 14  1  0  0  0  0
 10 20  2  0  0  0  0
 10 24  1  0  0  0  0
 11 31  1  0  0  0  0
 12  5  2  0  0  0  0
 13 17  1  0  0  0  0
 13 29  1  0  0  0  0
 14  3  1  0  0  0  0
 15  9  1  0  0  0  0
 16 11  1  0  0  0  0
 17 21  2  0  0  0  0
 18 22  2  0  0  0  0
 18 17  1  0  0  0  0
 21 23  1  0  0  0  0
 22 28  1  0  0  0  0
 24 27  1  0  0  0  0
 24  6  1  1  0  0  0
 25 16  1  0  0  0  0
 25 26  1  0  0  0  0
 26  4  1  0  0  0  0
 27 32  1  1  0  0  0
 27  6  1  0  0  0  0
 29 19  1  0  0  0  0
 29 23  2  0  0  0  0
 31 10  1  0  0  0  0
 32  8  2  0  0  0  0
 33  7  1  0  0  0  0
 34 36  1  0  0  0  0
 34 33  1  1  0  0  0
 35 34  1  0  0  0  0
 35 36  1  0  0  0  0
 36 37  1  6  0  0  0
 37 42  1  0  0  0  0
 39 41  1  6  0  0  0
 39 38  1  0  0  0  0
 40 39  1  0  0  0  0
 42 38  1  0  0  0  0
 43 40  1  0  0  0  0
 43 42  1  0  0  0  0
M  END
>  <MODEL>
6

>  <REMARK>
 VINA RESULT:      -7.3      3.845      6.091
  Name = 
  4 active torsions:
  status: ('A' for Active; 'I' for Inactive)
    1  A    between atoms: C_5  and  C_9
    2  A    between atoms: C_5  and  C_22
    3  A    between atoms: C_12  and  N_24
    4  A    between atoms: C_12  and  C_42
                            x       y       z     vdW  Elec       q    Type
                         _______ _______ _______ _____ _____    ______ ____

>  <TORSDO>
F 4

$$$$
=
 OpenBabel10222418543D

 43 49  0  0  1  0  0  0  0  0999 V2000
  185.6380  177.9640  140.6860 N   0  0  0  0  0  0  0  0  0  0  0  0
  184.3130  178.4460  140.3390 C   0  0  0  0  0  2  0  0  0  0  0  0
  186.8570  178.2330  140.1970 C   0  0  0  0  0  0  0  0  0  0  0  0
  185.9790  176.2910  137.0300 C   0  0  0  0  0  2  0  0  0  0  0  0
  185.7790  177.8860  142.0000 C   0  0  0  0  0  0  0  0  0  0  0  0
  180.4790  175.9070  139.4140 C   0  0  0  0  0  2  0  0  0  0  0  0
  187.7310  178.2440  141.2780 C   0  0  0  0  0  0  0  0  0  0  0  0
  181.1740  178.8340  139.7660 C   0  0  0  0  0  0  0  0  0  0  0  0
  187.8690  177.6300  137.9470 C   0  0  2  0  0  3  0  0  0  0  0  0
  180.6530  174.8130  137.1970 C   0  0  0  0  0  0  0  0  0  0  0  0
  182.1250  173.9640  135.4050 C   0  0  0  0  0  2  0  0  0  0  0  0
  187.0410  178.0840  142.4330 N   0  0  0  0  0  0  0  0  0  0  0  0
  181.3240  179.4590  140.9020 C   0  0  0  0  0  0  0  0  0  0  0  0
  187.1300  178.6760  138.7890 C   0  0  0  0  0  2  0  0  0  0  0  0
  187.1830  176.2720  137.9500 C   0  0  0  0  0  2  0  0  0  0  0  0
  183.4290  173.7840  136.1660 C   0  0  0  0  0  2  0  0  0  0  0  0
  182.3080  179.1150  141.9320 C   0  0  0  0  0  0  0  0  0  0  0  0
  183.6710  178.5830  141.7080 C   0  0  0  0  0  0  0  0  0  0  0  0
  178.9310  180.2930  141.2570 N   0  0  0  0  0  1  0  0  0  0  0  0
  180.4340  173.6520  137.6410 O   0  0  0  0  0  0  0  0  0  0  0  0
  181.8260  179.3730  143.1070 N   0  0  0  0  0  0  0  0  0  0  0  0
  184.5510  178.2490  142.6670 C   0  0  0  0  0  0  0  0  0  0  0  0
  180.5200  179.8620  142.9820 N   0  0  0  0  0  0  0  0  0  0  0  0
  180.1540  176.0090  137.9360 C   0  0  2  0  0  3  0  0  0  0  0  0
  184.2480  175.0590  136.0920 C   0  0  0  0  0  2  0  0  0  0  0  0
  185.3660  174.9760  137.0110 N   0  0  0  0  0  2  0  0  0  0  0  0
  181.3510  176.7550  138.5070 C   0  0  1  0  0  3  0  0  0  0  0  0
  184.3700  178.3530  144.1440 C   0  0  0  0  0  1  0  0  0  0  0  0
  180.2180  179.9100  141.7310 C   0  0  0  0  0  0  0  0  0  0  0  0
  189.2450  177.4900  138.3880 N   0  0  0  0  0  1  0  0  0  0  0  0
  181.3530  174.9980  136.0030 O   0  0  0  0  0  0  0  0  0  0  0  0
  181.0040  178.2000  138.6380 C   0  0  0  0  0  3  0  0  0  0  0  0
  189.1700  178.6400  141.2350 C   0  0  0  0  0  2  0  0  0  0  0  0
  190.0350  177.5480  141.8370 C   0  0  1  0  0  3  0  0  0  0  0  0
  191.3890  177.8730  141.6490 O   0  0  0  0  0  0  0  0  0  0  0  0
  190.8560  178.1070  142.9300 C   0  0  2  0  0  3  0  0  0  0  0  0
  191.2940  176.9900  143.8590 C   0  0  0  0  0  2  0  0  0  0  0  0
  192.0560  176.4980  146.0090 C   0  0  0  0  0  2  0  0  0  0  0  0
  191.3860  176.3610  147.3590 C   0  0  1  0  0  3  0  0  0  0  0  0
  189.9840  176.8840  147.1660 C   0  0  0  0  0  2  0  0  0  0  0  0
  191.3420  175.0140  147.7250 O   0  0  0  0  0  1  0  0  0  0  0  0
  191.2880  177.4590  145.2340 N   0  0  0  0  0  0  0  0  0  0  0  0
  189.9210  177.3480  145.7240 C   0  0  0  0  0  2  0  0  0  0  0  0
  1  5  1  0  0  0  0
  2  1  1  0  0  0  0
  2 18  1  0  0  0  0
  3  1  1  0  0  0  0
  3  7  2  0  0  0  0
  4 15  1  0  0  0  0
  5 12  2  0  0  0  0
  5 22  1  0  0  0  0
  7 12  1  0  0  0  0
  8 13  2  0  0  0  0
  9 15  1  0  0  0  0
  9 30  1  1  0  0  0
  9 14  1  0  0  0  0
 10 20  2  0  0  0  0
 10 24  1  0  0  0  0
 11 31  1  0  0  0  0
 11 16  1  0  0  0  0
 13 29  1  0  0  0  0
 13 17  1  0  0  0  0
 14  3  1  0  0  0  0
 17 21  2  0  0  0  0
 18 17  1  0  0  0  0
 18 22  2  0  0  0  0
 19 29  1  0  0  0  0
 22 28  1  0  0  0  0
 23 21  1  0  0  0  0
 24 27  1  0  0  0  0
 24  6  1  1  0  0  0
 25 16  1  0  0  0  0
 25 26  1  0  0  0  0
 26  4  1  0  0  0  0
 27 32  1  1  0  0  0
 27  6  1  0  0  0  0
 29 23  2  0  0  0  0
 31 10  1  0  0  0  0
 32  8  2  0  0  0  0
 33  7  1  0  0  0  0
 34 33  1  6  0  0  0
 34 36  1  0  0  0  0
 35 34  1  0  0  0  0
 35 36  1  0  0  0  0
 36 37  1  1  0  0  0
 37 42  1  0  0  0  0
 38 39  1  0  0  0  0
 39 41  1  6  0  0  0
 40 39  1  0  0  0  0
 42 43  1  0  0  0  0
 42 38  1  0  0  0  0
 43 40  1  0  0  0  0
M  END
>  <MODEL>
7

>  <REMARK>
 VINA RESULT:      -7.2      1.813      2.286
  Name = 
  4 active torsions:
  status: ('A' for Active; 'I' for Inactive)
    1  A    between atoms: C_5  and  C_9
    2  A    between atoms: C_5  and  C_22
    3  A    between atoms: C_12  and  N_24
    4  A    between atoms: C_12  and  C_42
                            x       y       z     vdW  Elec       q    Type
                         _______ _______ _______ _____ _____    ______ ____

>  <TORSDO>
F 4

$$$$
=
 OpenBabel10222418543D

 43 49  0  0  1  0  0  0  0  0999 V2000
  186.4980  176.7610  138.0220 N   0  0  0  0  0  0  0  0  0  0  0  0
  187.8300  177.1640  138.4380 C   0  0  0  0  0  2  0  0  0  0  0  0
  185.4340  177.4570  137.5950 C   0  0  0  0  0  0  0  0  0  0  0  0
  184.9210  178.7860  141.1360 C   0  0  0  0  0  2  0  0  0  0  0  0
  186.5510  175.6730  137.2710 C   0  0  0  0  0  0  0  0  0  0  0  0
  190.0900  175.9880  142.3770 C   0  0  0  0  0  2  0  0  0  0  0  0
  184.8260  176.6940  136.6040 C   0  0  0  0  0  0  0  0  0  0  0  0
  190.7170  177.4790  139.8150 C   0  0  0  0  0  0  0  0  0  0  0  0
  183.9170  179.0440  138.8720 C   0  0  2  0  0  3  0  0  0  0  0  0
  189.1310  177.1660  144.3350 C   0  0  0  0  0  0  0  0  0  0  0  0
  187.1740  178.2960  145.3310 C   0  0  0  0  0  2  0  0  0  0  0  0
  185.5670  175.5870  136.3530 N   0  0  0  0  0  0  0  0  0  0  0  0
  191.0190  176.9410  138.6650 C   0  0  0  0  0  0  0  0  0  0  0  0
  185.1430  178.8810  137.9660 C   0  0  0  0  0  2  0  0  0  0  0  0
  183.9790  178.1740  140.1190 C   0  0  0  0  0  2  0  0  0  0  0  0
  186.0510  177.7320  144.4750 C   0  0  0  0  0  2  0  0  0  0  0  0
  190.1600  176.0270  137.9080 C   0  0  0  0  0  0  0  0  0  0  0  0
  188.6820  176.0620  137.8350 C   0  0  0  0  0  0  0  0  0  0  0  0
  193.5680  176.8540  138.8850 N   0  0  0  0  0  1  0  0  0  0  0  0
  188.9260  176.1100  144.9960 O   0  0  0  0  0  0  0  0  0  0  0  0
  190.8880  175.1710  137.2610 N   0  0  0  0  0  0  0  0  0  0  0  0
  187.9090  175.1990  137.1540 C   0  0  0  0  0  0  0  0  0  0  0  0
  192.2410  175.3990  137.5390 N   0  0  0  0  0  0  0  0  0  0  0  0
  190.1860  177.2010  143.2810 C   0  0  2  0  0  3  0  0  0  0  0  0
  185.8240  178.6260  143.2710 C   0  0  0  0  0  2  0  0  0  0  0  0
  184.9320  177.9690  142.3350 N   0  0  0  0  0  2  0  0  0  0  0  0
  189.5070  177.3140  141.9240 C   0  0  1  0  0  3  0  0  0  0  0  0
  188.3510  174.0450  136.3180 C   0  0  0  0  0  1  0  0  0  0  0  0
  192.3310  176.4020  138.3430 C   0  0  0  0  0  0  0  0  0  0  0  0
  182.6940  178.7700  138.1390 N   0  0  0  0  0  1  0  0  0  0  0  0
  188.3860  178.3200  144.5870 O   0  0  0  0  0  0  0  0  0  0  0  0
  190.4290  178.0030  140.9760 C   0  0  0  0  0  3  0  0  0  0  0  0
  183.6870  177.1270  135.7410 C   0  0  0  0  0  2  0  0  0  0  0  0
  182.4690  176.2620  136.0020 C   0  0  1  0  0  3  0  0  0  0  0  0
  181.5880  176.3610  134.9120 O   0  0  0  0  0  0  0  0  0  0  0  0
  182.3810  175.2010  134.9780 C   0  0  2  0  0  3  0  0  0  0  0  0
  181.5380  174.0550  135.5040 C   0  0  0  0  0  2  0  0  0  0  0  0
  182.7350  172.6010  136.8810 C   0  0  0  0  0  2  0  0  0  0  0  0
  184.1330  172.0240  136.8410 C   0  0  1  0  0  3  0  0  0  0  0  0
  184.6720  172.3710  135.4750 C   0  0  0  0  0  2  0  0  0  0  0  0
  184.9170  172.6270  137.8260 O   0  0  0  0  0  1  0  0  0  0  0  0
  182.3150  172.8290  135.5080 N   0  0  0  0  0  0  0  0  0  0  0  0
  183.5410  173.0900  134.7670 C   0  0  0  0  0  2  0  0  0  0  0  0
  1  2  1  0  0  0  0
  3 14  1  0  0  0  0
  3  1  1  0  0  0  0
  4 26  1  0  0  0  0
  5  1  1  0  0  0  0
  7  3  2  0  0  0  0
  8 32  2  0  0  0  0
  9 30  1  6  0  0  0
  9 15  1  0  0  0  0
 10 31  1  0  0  0  0
 10 20  2  0  0  0  0
 12  7  1  0  0  0  0
 12  5  2  0  0  0  0
 13  8  2  0  0  0  0
 14  9  1  0  0  0  0
 15  4  1  0  0  0  0
 16 11  1  0  0  0  0
 17 13  1  0  0  0  0
 18 17  1  0  0  0  0
 18  2  1  0  0  0  0
 21 23  1  0  0  0  0
 21 17  2  0  0  0  0
 22  5  1  0  0  0  0
 22 18  2  0  0  0  0
 23 29  2  0  0  0  0
 24  6  1  6  0  0  0
 24 10  1  0  0  0  0
 25 16  1  0  0  0  0
 26 25  1  0  0  0  0
 27 32  1  6  0  0  0
 27  6  1  0  0  0  0
 27 24  1  0  0  0  0
 28 22  1  0  0  0  0
 29 13  1  0  0  0  0
 29 19  1  0  0  0  0
 31 11  1  0  0  0  0
 33  7  1  0  0  0  0
 34 33  1  6  0  0  0
 35 36  1  0  0  0  0
 35 34  1  0  0  0  0
 36 37  1  1  0  0  0
 36 34  1  0  0  0  0
 37 42  1  0  0  0  0
 39 38  1  0  0  0  0
 39 41  1  1  0  0  0
 40 39  1  0  0  0  0
 42 38  1  0  0  0  0
 43 40  1  0  0  0  0
 43 42  1  0  0  0  0
M  END
>  <MODEL>
8

>  <REMARK>
 VINA RESULT:      -7.1      2.498      9.898
  Name = 
  4 active torsions:
  status: ('A' for Active; 'I' for Inactive)
    1  A    between atoms: C_5  and  C_9
    2  A    between atoms: C_5  and  C_22
    3  A    between atoms: C_12  and  N_24
    4  A    between atoms: C_12  and  C_42
                            x       y       z     vdW  Elec       q    Type
                         _______ _______ _______ _____ _____    ______ ____

>  <TORSDO>
F 4

$$$$
=
 OpenBabel10222418543D

 43 49  0  0  1  0  0  0  0  0999 V2000
  186.0070  178.0640  140.3940 N   0  0  0  0  0  0  0  0  0  0  0  0
  184.9140  178.4190  139.5070 C   0  0  0  0  0  2  0  0  0  0  0  0
  187.3100  178.3820  140.3980 C   0  0  0  0  0  0  0  0  0  0  0  0
  187.8340  176.1360  137.3560 C   0  0  0  0  0  2  0  0  0  0  0  0
  185.6170  178.1010  141.6570 C   0  0  0  0  0  0  0  0  0  0  0  0
  181.8560  175.5420  137.4150 C   0  0  0  0  0  2  0  0  0  0  0  0
  187.6810  178.5420  141.7280 C   0  0  0  0  0  0  0  0  0  0  0  0
  182.2500  178.5320  137.7110 C   0  0  0  0  0  0  0  0  0  0  0  0
  189.1540  177.6770  138.8000 C   0  0  2  0  0  3  0  0  0  0  0  0
  182.9370  174.2920  135.5670 C   0  0  0  0  0  0  0  0  0  0  0  0
  185.0290  173.4130  134.5940 C   0  0  0  0  0  2  0  0  0  0  0  0
  186.5940  178.4240  142.5290 N   0  0  0  0  0  0  0  0  0  0  0  0
  181.9140  179.2530  138.7450 C   0  0  0  0  0  0  0  0  0  0  0  0
  188.1040  178.7310  139.1730 C   0  0  0  0  0  2  0  0  0  0  0  0
  188.5720  176.2770  138.6720 C   0  0  0  0  0  2  0  0  0  0  0  0
  185.9280  173.3900  135.8190 C   0  0  0  0  0  2  0  0  0  0  0  0
  182.4180  179.0640  140.1090 C   0  0  0  0  0  0  0  0  0  0  0  0
  183.7760  178.6180  140.4920 C   0  0  0  0  0  0  0  0  0  0  0  0
  179.5490  179.9370  138.0450 N   0  0  0  0  0  1  0  0  0  0  0  0
  182.6000  173.1570  136.0050 O   0  0  0  0  0  0  0  0  0  0  0  0
  181.4990  179.3800  140.9670 N   0  0  0  0  0  0  0  0  0  0  0  0
  184.2130  178.4260  141.7490 C   0  0  0  0  0  0  0  0  0  0  0  0
  180.3350  179.7610  140.2900 N   0  0  0  0  0  0  0  0  0  0  0  0
  182.1430  175.5030  135.9260 C   0  0  2  0  0  3  0  0  0  0  0  0
  186.6630  174.7110  135.9440 C   0  0  0  0  0  2  0  0  0  0  0  0
  187.3260  174.7830  137.2310 N   0  0  0  0  0  2  0  0  0  0  0  0
  182.9870  176.3780  136.8410 C   0  0  1  0  0  3  0  0  0  0  0  0
  183.4560  178.6330  143.0170 C   0  0  0  0  0  1  0  0  0  0  0  0
  180.5540  179.6870  139.0220 C   0  0  0  0  0  0  0  0  0  0  0  0
  190.2450  177.6730  139.7570 N   0  0  0  0  0  1  0  0  0  0  0  0
  184.0470  174.4330  134.7320 O   0  0  0  0  0  0  0  0  0  0  0  0
  182.5660  177.7990  136.6780 C   0  0  0  0  0  3  0  0  0  0  0  0
  189.0040  179.0370  142.2140 C   0  0  0  0  0  2  0  0  0  0  0  0
  189.7500  177.9270  142.9300 C   0  0  1  0  0  3  0  0  0  0  0  0
  190.8890  178.4630  143.5540 O   0  0  0  0  0  0  0  0  0  0  0  0
  189.7810  178.2020  144.3810 C   0  0  2  0  0  3  0  0  0  0  0  0
  190.0240  176.9090  145.1380 C   0  0  0  0  0  2  0  0  0  0  0  0
  187.7750  177.0510  145.7470 C   0  0  0  0  0  2  0  0  0  0  0  0
  187.0130  177.8410  146.7880 C   0  0  1  0  0  3  0  0  0  0  0  0
  188.0670  178.4530  147.6780 C   0  0  0  0  0  2  0  0  0  0  0  0
  186.2770  178.8500  146.1640 O   0  0  0  0  0  1  0  0  0  0  0  0
  189.1130  176.8170  146.2650 N   0  0  0  0  0  0  0  0  0  0  0  0
  189.3910  177.9480  147.1410 C   0  0  0  0  0  2  0  0  0  0  0  0
  1  3  1  0  0  0  0
  1  5  1  0  0  0  0
  2  1  1  0  0  0  0
  2 18  1  0  0  0  0
  3  7  2  0  0  0  0
  4 15  1  0  0  0  0
  5 22  1  0  0  0  0
  5 12  2  0  0  0  0
  7 33  1  0  0  0  0
  7 12  1  0  0  0  0
  8 13  2  0  0  0  0
  9 14  1  0  0  0  0
  9 30  1  1  0  0  0
 10 24  1  0  0  0  0
 10 20  2  0  0  0  0
 11 31  1  0  0  0  0
 11 16  1  0  0  0  0
 13 29  1  0  0  0  0
 13 17  1  0  0  0  0
 14  3  1  0  0  0  0
 15  9  1  0  0  0  0
 16 25  1  0  0  0  0
 17 18  1  0  0  0  0
 17 21  2  0  0  0  0
 18 22  2  0  0  0  0
 19 29  1  0  0  0  0
 22 28  1  0  0  0  0
 23 21  1  0  0  0  0
 24 27  1  0  0  0  0
 24  6  1  1  0  0  0
 25 26  1  0  0  0  0
 26  4  1  0  0  0  0
 27 32  1  6  0  0  0
 27  6  1  0  0  0  0
 29 23  2  0  0  0  0
 31 10  1  0  0  0  0
 32  8  2  0  0  0  0
 34 33  1  6  0  0  0
 34 35  1  0  0  0  0
 34 36  1  0  0  0  0
 35 36  1  0  0  0  0
 36 37  1  1  0  0  0
 37 42  1  0  0  0  0
 38 42  1  0  0  0  0
 38 39  1  0  0  0  0
 39 41  1  6  0  0  0
 39 40  1  0  0  0  0
 42 43  1  0  0  0  0
 43 40  1  0  0  0  0
M  END
>  <MODEL>
9

>  <REMARK>
 VINA RESULT:      -7.1      1.247      1.590
  Name = 
  4 active torsions:
  status: ('A' for Active; 'I' for Inactive)
    1  A    between atoms: C_5  and  C_9
    2  A    between atoms: C_5  and  C_22
    3  A    between atoms: C_12  and  N_24
    4  A    between atoms: C_12  and  C_42
                            x       y       z     vdW  Elec       q    Type
                         _______ _______ _______ _____ _____    ______ ____

>  <TORSDO>
F 4

$$$$
