=
 OpenBabel10222418193D

 34 38  0  0  1  0  0  0  0  0999 V2000
  190.8380  176.3780  140.3840 N   0  0  0  0  0  0  0  0  0  0  0  0
  190.1080  176.7850  136.7040 C   0  0  0  0  0  3  0  0  0  0  0  0
  189.9870  176.8160  138.0890 C   0  0  0  0  0  0  0  0  0  0  0  0
  186.0380  177.4530  134.9920 N   0  0  0  0  0  2  0  0  0  0  0  0
  184.9730  177.0330  135.8460 C   0  0  0  0  0  0  0  0  0  0  0  0
  188.8310  177.3570  138.6620 C   0  0  0  0  0  0  0  0  0  0  0  0
  189.7620  176.8820  140.9130 C   0  0  0  0  0  0  0  0  0  0  0  0
  185.2480  178.0320  138.2010 C   0  0  0  0  0  0  0  0  0  0  0  0
  184.1480  178.5520  139.0540 C   0  0  0  0  0  1  0  0  0  0  0  0
  189.1210  177.2900  135.9220 N   0  0  0  0  0  0  0  0  0  0  0  0
  187.0210  178.4370  135.4530 C   0  0  0  0  0  2  0  0  0  0  0  0
  191.0930  176.2630  138.9440 C   0  0  0  0  0  2  0  0  0  0  0  0
  188.7080  177.3760  140.0830 N   0  0  0  0  0  2  0  0  0  0  0  0
  186.6110  178.3540  138.5130 N   0  0  0  0  0  2  0  0  0  0  0  0
  187.7940  177.8470  137.8510 C   0  0  0  0  0  0  0  0  0  0  0  0
  184.9760  177.4730  137.0650 C   0  0  0  0  0  0  0  0  0  0  0  0
  183.9670  176.0400  135.3880 C   0  0  0  0  0  1  0  0  0  0  0  0
  187.9820  177.8300  136.4360 C   0  0  0  0  0  0  0  0  0  0  0  0
  189.6220  176.9160  142.3980 C   0  0  1  0  0  3  0  0  0  0  0  0
  189.9900  178.2300  142.9130 N   0  0  0  0  0  2  0  0  0  0  0  0
  191.0580  178.4190  143.8410 C   0  0  0  0  0  0  0  0  0  0  0  0
  191.6950  177.4340  144.2980 O   0  0  0  0  0  0  0  0  0  0  0  0
  191.4190  179.7960  144.2730 C   0  0  0  0  0  1  0  0  0  0  0  0
  188.1900  176.5840  142.7900 C   0  0  0  0  0  2  0  0  0  0  0  0
  188.0170  176.7140  144.2310 N   0  0  0  0  0  0  0  0  0  0  0  0
  187.0340  177.7290  146.1820 C   0  0  2  0  0  3  0  0  0  0  0  0
  184.8040  178.7930  146.2360 C   0  0  0  0  0  3  0  0  0  0  0  0
  184.5000  178.2480  144.8770 C   0  0  0  0  0  2  0  0  0  0  0  0
  187.0580  177.5870  144.8400 C   0  0  0  0  0  0  0  0  0  0  0  0
  185.9670  178.5270  146.8360 C   0  0  0  0  0  3  0  0  0  0  0  0
  185.9310  178.5480  143.7970 S   0  0  0  0  0  0  0  0  0  0  0  0
  188.0280  177.6600  148.4570 C   0  0  0  0  0  2  0  0  0  0  0  0
  188.1020  177.1040  147.0430 C   0  0  0  0  0  3  0  0  0  0  0  0
  189.1100  178.1410  147.5180 C   0  0  0  0  0  2  0  0  0  0  0  0
  1  7  2  0  0  0  0
  2  3  1  0  0  0  0
  3  6  2  0  0  0  0
  3 12  1  0  0  0  0
  4 11  1  0  0  0  0
  4  5  1  0  0  0  0
  5 16  2  0  0  0  0
  6 13  1  0  0  0  0
  7 19  1  0  0  0  0
  8 14  1  0  0  0  0
  8  9  1  0  0  0  0
 10 18  1  0  0  0  0
 10  2  2  0  0  0  0
 11 18  1  0  0  0  0
 12  1  1  0  0  0  0
 13  7  1  0  0  0  0
 15 14  1  0  0  0  0
 15  6  1  0  0  0  0
 16  8  2  0  0  0  0
 17  5  1  0  0  0  0
 18 15  2  0  0  0  0
 19 24  1  6  0  0  0
 19 20  1  0  0  0  0
 20 21  1  0  0  0  0
 21 23  1  0  0  0  0
 21 22  2  0  0  0  0
 24 25  1  0  0  0  0
 25 29  2  0  0  0  0
 26 30  1  0  0  0  0
 26 33  1  6  0  0  0
 27 30  2  0  0  0  0
 28 27  1  0  0  0  0
 29 26  1  0  0  0  0
 31 29  1  0  0  0  0
 31 28  1  0  0  0  0
 33 34  1  0  0  0  0
 33 32  1  0  0  0  0
 34 32  1  0  0  0  0
M  END
>  <MODEL>
1

>  <REMARK>
 VINA RESULT:      -8.9      0.000      0.000
  Name = 
  6 active torsions:
  status: ('A' for Active; 'I' for Inactive)
    1  A    between atoms: N_1  and  C_3
    2  A    between atoms: C_3  and  C_17
    3  A    between atoms: C_3  and  C_32
    4  A    between atoms: N_4  and  C_24
    5  A    between atoms: N_4  and  C_32
    6  A    between atoms: C_5  and  C_9
                            x       y       z     vdW  Elec       q    Type
                         _______ _______ _______ _____ _____    ______ ____

>  <TORSDO>
F 6

$$$$
=
 OpenBabel10222418193D

 34 38  0  0  1  0  0  0  0  0999 V2000
  190.7590  176.4340  140.4390 N   0  0  0  0  0  0  0  0  0  0  0  0
  190.0880  176.8040  136.7430 C   0  0  0  0  0  3  0  0  0  0  0  0
  189.9420  176.8440  138.1260 C   0  0  0  0  0  0  0  0  0  0  0  0
  186.0400  177.4080  134.9560 N   0  0  0  0  0  2  0  0  0  0  0  0
  184.9650  176.9810  135.7960 C   0  0  0  0  0  0  0  0  0  0  0  0
  188.7700  177.3740  138.6750 C   0  0  0  0  0  0  0  0  0  0  0  0
  189.6680  176.9280  140.9450 C   0  0  0  0  0  0  0  0  0  0  0  0
  185.1870  178.0010  138.1470 C   0  0  0  0  0  0  0  0  0  0  0  0
  184.0670  178.5140  138.9770 C   0  0  0  0  0  1  0  0  0  0  0  0
  189.1080  177.2900  135.9410 N   0  0  0  0  0  0  0  0  0  0  0  0
  187.0030  178.4080  135.4270 C   0  0  0  0  0  2  0  0  0  0  0  0
  191.0400  176.3110  139.0040 C   0  0  0  0  0  2  0  0  0  0  0  0
  188.6220  177.4030  140.0930 N   0  0  0  0  0  2  0  0  0  0  0  0
  186.5400  178.3430  138.4800 N   0  0  0  0  0  2  0  0  0  0  0  0
  187.7410  177.8450  137.8430 C   0  0  0  0  0  0  0  0  0  0  0  0
  184.9420  177.4300  137.0120 C   0  0  0  0  0  0  0  0  0  0  0  0
  183.9800  175.9720  135.3280 C   0  0  0  0  0  1  0  0  0  0  0  0
  187.9540  177.8200  136.4320 C   0  0  0  0  0  0  0  0  0  0  0  0
  189.5020  176.9720  142.4280 C   0  0  1  0  0  3  0  0  0  0  0  0
  189.9270  178.2650  142.9480 N   0  0  0  0  0  2  0  0  0  0  0  0
  191.0820  178.4180  143.7740 C   0  0  0  0  0  0  0  0  0  0  0  0
  191.7520  177.4150  144.1340 O   0  0  0  0  0  0  0  0  0  0  0  0
  191.4930  179.7780  144.2160 C   0  0  0  0  0  1  0  0  0  0  0  0
  188.0480  176.7150  142.7930 C   0  0  0  0  0  2  0  0  0  0  0  0
  187.4490  177.9160  143.3610 N   0  0  0  0  0  2  0  0  0  0  0  0
  185.5340  178.5900  144.6580 C   0  0  0  0  0  0  0  0  0  0  0  0
  185.4380  178.5790  147.1260 C   0  0  0  0  0  3  0  0  0  0  0  0
  186.9100  178.3240  147.1930 C   0  0  0  0  0  2  0  0  0  0  0  0
  186.7090  177.9300  144.5880 C   0  0  0  0  0  0  0  0  0  0  0  0
  184.8200  178.7220  145.9520 C   0  0  0  0  0  3  0  0  0  0  0  0
  187.3250  177.0020  146.0170 S   0  0  0  0  0  0  0  0  0  0  0  0
  183.3990  179.2770  143.5910 C   0  0  0  0  0  2  0  0  0  0  0  0
  184.9080  179.1820  143.4210 C   0  0  0  0  0  3  0  0  0  0  0  0
  183.9890  178.1840  142.7310 C   0  0  0  0  0  2  0  0  0  0  0  0
  1  7  2  0  0  0  0
  2  3  1  0  0  0  0
  3  6  2  0  0  0  0
  3 12  1  0  0  0  0
  4 11  1  0  0  0  0
  4  5  1  0  0  0  0
  5 16  2  0  0  0  0
  6 13  1  0  0  0  0
  7 19  1  0  0  0  0
  8 14  1  0  0  0  0
  8  9  1  0  0  0  0
 10 18  1  0  0  0  0
 10  2  2  0  0  0  0
 11 18  1  0  0  0  0
 12  1  1  0  0  0  0
 13  7  1  0  0  0  0
 15 14  1  0  0  0  0
 15  6  1  0  0  0  0
 16  8  2  0  0  0  0
 17  5  1  0  0  0  0
 18 15  2  0  0  0  0
 19 24  1  6  0  0  0
 19 20  1  0  0  0  0
 20 21  1  0  0  0  0
 21 22  2  0  0  0  0
 21 23  1  0  0  0  0
 24 25  1  0  0  0  0
 25 29  1  0  0  0  0
 26 30  1  0  0  0  0
 27 28  1  0  0  0  0
 29 26  2  0  0  0  0
 29 31  1  0  0  0  0
 30 27  2  0  0  0  0
 31 28  1  0  0  0  0
 33 32  1  0  0  0  0
 33 26  1  0  0  0  0
 34 33  1  0  0  0  0
 34 32  1  0  0  0  0
M  END
>  <MODEL>
2

>  <REMARK>
 VINA RESULT:      -8.7      0.891      2.147
  Name = 
  6 active torsions:
  status: ('A' for Active; 'I' for Inactive)
    1  A    between atoms: N_1  and  C_3
    2  A    between atoms: C_3  and  C_17
    3  A    between atoms: C_3  and  C_32
    4  A    between atoms: N_4  and  C_24
    5  A    between atoms: N_4  and  C_32
    6  A    between atoms: C_5  and  C_9
                            x       y       z     vdW  Elec       q    Type
                         _______ _______ _______ _____ _____    ______ ____

>  <TORSDO>
F 6

$$$$
=
 OpenBabel10222418193D

 34 38  0  0  1  0  0  0  0  0999 V2000
  190.3180  177.5100  141.1860 N   0  0  0  0  0  0  0  0  0  0  0  0
  190.8550  176.6010  137.5620 C   0  0  0  0  0  3  0  0  0  0  0  0
  190.2600  177.0180  138.7490 C   0  0  0  0  0  0  0  0  0  0  0  0
  187.5740  175.7170  134.6640 N   0  0  0  0  0  2  0  0  0  0  0  0
  186.3440  175.3290  135.2800 C   0  0  0  0  0  0  0  0  0  0  0  0
  188.9180  177.4090  138.7400 C   0  0  0  0  0  0  0  0  0  0  0  0
  189.0690  177.8730  141.1730 C   0  0  0  0  0  0  0  0  0  0  0  0
  185.6570  177.0250  137.0870 C   0  0  0  0  0  0  0  0  0  0  0  0
  184.2730  177.4950  137.3510 C   0  0  0  0  0  1  0  0  0  0  0  0
  190.1400  176.5930  136.4080 N   0  0  0  0  0  0  0  0  0  0  0  0
  188.1990  177.0020  134.9910 C   0  0  0  0  0  2  0  0  0  0  0  0
  191.0660  177.0320  140.0170 C   0  0  0  0  0  2  0  0  0  0  0  0
  188.3110  177.8250  139.9620 N   0  0  0  0  0  2  0  0  0  0  0  0
  186.7740  177.7460  137.6270 N   0  0  0  0  0  2  0  0  0  0  0  0
  188.1680  177.3660  137.5520 C   0  0  0  0  0  0  0  0  0  0  0  0
  185.8690  176.1020  136.2050 C   0  0  0  0  0  0  0  0  0  0  0  0
  185.6980  174.0320  134.9530 C   0  0  0  0  0  1  0  0  0  0  0  0
  188.8330  176.9700  136.3530 C   0  0  0  0  0  0  0  0  0  0  0  0
  188.4230  178.3180  142.4420 C   0  0  1  0  0  3  0  0  0  0  0  0
  187.0620  177.8020  142.5270 N   0  0  0  0  0  2  0  0  0  0  0  0
  185.9210  178.5820  142.1680 C   0  0  0  0  0  0  0  0  0  0  0  0
  186.0500  179.7830  141.8110 O   0  0  0  0  0  0  0  0  0  0  0  0
  184.5670  177.9690  142.2180 C   0  0  0  0  0  1  0  0  0  0  0  0
  189.2380  177.8380  143.6330 C   0  0  0  0  0  2  0  0  0  0  0  0
  188.4080  177.0400  144.5250 N   0  0  0  0  0  2  0  0  0  0  0  0
  187.2710  177.6400  146.5630 C   0  0  0  0  0  0  0  0  0  0  0  0
  188.4020  178.1710  148.6950 C   0  0  0  0  0  3  0  0  0  0  0  0
  189.7240  178.2030  147.9980 C   0  0  0  0  0  2  0  0  0  0  0  0
  188.3890  177.2000  145.9490 C   0  0  0  0  0  0  0  0  0  0  0  0
  187.2760  177.9330  148.0180 C   0  0  0  0  0  3  0  0  0  0  0  0
  189.8490  176.7430  146.9220 S   0  0  0  0  0  0  0  0  0  0  0  0
  185.5810  179.2820  145.7790 C   0  0  0  0  0  2  0  0  0  0  0  0
  185.9880  177.8160  145.7930 C   0  0  0  0  0  3  0  0  0  0  0  0
  184.8640  178.3140  146.6900 C   0  0  0  0  0  2  0  0  0  0  0  0
  2  3  1  0  0  0  0
  3 12  1  0  0  0  0
  4 11  1  0  0  0  0
  4  5  1  0  0  0  0
  5 16  2  0  0  0  0
  6  3  2  0  0  0  0
  6 13  1  0  0  0  0
  7  1  2  0  0  0  0
  7 19  1  0  0  0  0
  8  9  1  0  0  0  0
  8 14  1  0  0  0  0
 10  2  2  0  0  0  0
 11 18  1  0  0  0  0
 12  1  1  0  0  0  0
 13  7  1  0  0  0  0
 15 14  1  0  0  0  0
 15  6  1  0  0  0  0
 16  8  2  0  0  0  0
 17  5  1  0  0  0  0
 18 10  1  0  0  0  0
 18 15  2  0  0  0  0
 19 20  1  0  0  0  0
 19 24  1  1  0  0  0
 21 23  1  0  0  0  0
 21 20  1  0  0  0  0
 22 21  2  0  0  0  0
 24 25  1  0  0  0  0
 25 29  1  0  0  0  0
 26 30  1  0  0  0  0
 28 27  1  0  0  0  0
 29 26  2  0  0  0  0
 29 31  1  0  0  0  0
 30 27  2  0  0  0  0
 31 28  1  0  0  0  0
 32 33  1  0  0  0  0
 32 34  1  0  0  0  0
 33 26  1  0  0  0  0
 33 34  1  0  0  0  0
M  END
>  <MODEL>
3

>  <REMARK>
 VINA RESULT:      -8.6      2.042      3.067
  Name = 
  6 active torsions:
  status: ('A' for Active; 'I' for Inactive)
    1  A    between atoms: N_1  and  C_3
    2  A    between atoms: C_3  and  C_17
    3  A    between atoms: C_3  and  C_32
    4  A    between atoms: N_4  and  C_24
    5  A    between atoms: N_4  and  C_32
    6  A    between atoms: C_5  and  C_9
                            x       y       z     vdW  Elec       q    Type
                         _______ _______ _______ _____ _____    ______ ____

>  <TORSDO>
F 6

$$$$
=
 OpenBabel10222418193D

 34 38  0  0  1  0  0  0  0  0999 V2000
  186.6410  178.6950  137.5010 N   0  0  0  0  0  0  0  0  0  0  0  0
  190.1570  177.7050  138.4520 C   0  0  0  0  0  3  0  0  0  0  0  0
  188.7960  177.9880  138.5200 C   0  0  0  0  0  0  0  0  0  0  0  0
  191.7080  177.5960  142.6390 N   0  0  0  0  0  2  0  0  0  0  0  0
  190.9660  178.4040  143.5540 C   0  0  0  0  0  0  0  0  0  0  0  0
  188.1280  177.8410  139.7400 C   0  0  0  0  0  0  0  0  0  0  0  0
  186.0230  178.5570  138.6370 C   0  0  0  0  0  0  0  0  0  0  0  0
  188.4530  177.8780  143.4010 C   0  0  0  0  0  0  0  0  0  0  0  0
  187.5140  177.7960  144.5500 C   0  0  0  0  0  1  0  0  0  0  0  0
  190.8200  177.2760  139.5560 N   0  0  0  0  0  0  0  0  0  0  0  0
  191.0450  176.5390  141.8690 C   0  0  0  0  0  2  0  0  0  0  0  0
  188.0730  178.4520  137.2880 C   0  0  0  0  0  2  0  0  0  0  0  0
  186.7350  178.1420  139.8060 N   0  0  0  0  0  2  0  0  0  0  0  0
  188.0740  177.3400  142.1260 N   0  0  0  0  0  2  0  0  0  0  0  0
  188.8220  177.4300  140.8900 C   0  0  0  0  0  0  0  0  0  0  0  0
  189.6810  178.2360  143.5940 C   0  0  0  0  0  0  0  0  0  0  0  0
  191.6270  179.4750  144.3430 C   0  0  0  0  0  1  0  0  0  0  0  0
  190.2080  177.1140  140.7610 C   0  0  0  0  0  0  0  0  0  0  0  0
  184.5650  178.8610  138.7200 C   0  0  1  0  0  3  0  0  0  0  0  0
  183.7800  177.6700  138.4200 N   0  0  0  0  0  2  0  0  0  0  0  0
  182.5450  177.7230  137.7060 C   0  0  0  0  0  0  0  0  0  0  0  0
  182.0550  178.8280  137.3510 O   0  0  0  0  0  0  0  0  0  0  0  0
  181.8300  176.4600  137.3800 C   0  0  0  0  0  1  0  0  0  0  0  0
  184.2220  179.3760  140.1090 C   0  0  0  0  0  2  0  0  0  0  0  0
  183.5140  178.3530  140.8670 N   0  0  0  0  0  2  0  0  0  0  0  0
  182.5670  178.6360  143.0650 C   0  0  0  0  0  0  0  0  0  0  0  0
  180.1510  178.5340  143.5730 C   0  0  0  0  0  3  0  0  0  0  0  0
  179.8720  178.0210  142.1970 C   0  0  0  0  0  2  0  0  0  0  0  0
  182.4000  178.6290  141.7250 C   0  0  0  0  0  0  0  0  0  0  0  0
  181.4010  178.7920  143.9680 C   0  0  0  0  0  3  0  0  0  0  0  0
  180.7900  179.0360  141.0010 S   0  0  0  0  0  0  0  0  0  0  0  0
  183.9260  179.0020  145.1110 C   0  0  0  0  0  2  0  0  0  0  0  0
  183.9420  178.5130  143.6700 C   0  0  0  0  0  3  0  0  0  0  0  0
  184.5150  179.8760  144.0290 C   0  0  0  0  0  2  0  0  0  0  0  0
  1  7  2  0  0  0  0
  2  3  2  0  0  0  0
  2 10  1  0  0  0  0
  3  6  1  0  0  0  0
  4  5  1  0  0  0  0
  5 16  2  0  0  0  0
  5 17  1  0  0  0  0
  6 13  1  0  0  0  0
  6 15  2  0  0  0  0
  7 19  1  0  0  0  0
  7 13  1  0  0  0  0
  8 16  2  0  0  0  0
  8  9  1  0  0  0  0
 10 18  2  0  0  0  0
 11  4  1  0  0  0  0
 12  1  1  0  0  0  0
 12  3  1  0  0  0  0
 14  8  1  0  0  0  0
 15 14  1  0  0  0  0
 18 15  1  0  0  0  0
 18 11  1  0  0  0  0
 19 24  1  1  0  0  0
 20 19  1  0  0  0  0
 21 20  1  0  0  0  0
 22 21  2  0  0  0  0
 23 21  1  0  0  0  0
 24 25  1  0  0  0  0
 25 29  1  0  0  0  0
 26 33  1  0  0  0  0
 26 30  1  0  0  0  0
 27 30  2  0  0  0  0
 28 27  1  0  0  0  0
 29 26  2  0  0  0  0
 31 29  1  0  0  0  0
 31 28  1  0  0  0  0
 33 34  1  0  0  0  0
 33 32  1  0  0  0  0
 34 32  1  0  0  0  0
M  END
>  <MODEL>
4

>  <REMARK>
 VINA RESULT:      -8.5      3.100      6.745
  Name = 
  6 active torsions:
  status: ('A' for Active; 'I' for Inactive)
    1  A    between atoms: N_1  and  C_3
    2  A    between atoms: C_3  and  C_17
    3  A    between atoms: C_3  and  C_32
    4  A    between atoms: N_4  and  C_24
    5  A    between atoms: N_4  and  C_32
    6  A    between atoms: C_5  and  C_9
                            x       y       z     vdW  Elec       q    Type
                         _______ _______ _______ _____ _____    ______ ____

>  <TORSDO>
F 6

$$$$
=
 OpenBabel10222418193D

 34 38  0  0  1  0  0  0  0  0999 V2000
  189.8640  177.1760  139.8620 N   0  0  0  0  0  0  0  0  0  0  0  0
  189.1490  175.9870  136.3520 C   0  0  0  0  0  3  0  0  0  0  0  0
  189.0100  176.5750  137.6050 C   0  0  0  0  0  0  0  0  0  0  0  0
  185.0610  175.6040  134.5950 N   0  0  0  0  0  2  0  0  0  0  0  0
  184.0200  175.4970  135.5670 C   0  0  0  0  0  0  0  0  0  0  0  0
  187.8110  177.2190  137.9290 C   0  0  0  0  0  0  0  0  0  0  0  0
  188.7470  177.7750  140.1580 C   0  0  0  0  0  0  0  0  0  0  0  0
  184.1940  177.3890  137.3000 C   0  0  0  0  0  0  0  0  0  0  0  0
  183.0490  178.1330  137.8860 C   0  0  0  0  0  1  0  0  0  0  0  0
  188.1370  176.0560  135.4510 N   0  0  0  0  0  0  0  0  0  0  0  0
  185.9650  176.7590  134.5940 C   0  0  0  0  0  2  0  0  0  0  0  0
  190.1430  176.5000  138.5900 C   0  0  0  0  0  2  0  0  0  0  0  0
  187.6700  177.8100  139.2190 N   0  0  0  0  0  2  0  0  0  0  0  0
  185.5260  177.9070  137.4270 N   0  0  0  0  0  2  0  0  0  0  0  0
  186.7500  177.2590  137.0080 C   0  0  0  0  0  0  0  0  0  0  0  0
  183.9770  176.3960  136.4990 C   0  0  0  0  0  0  0  0  0  0  0  0
  183.0940  174.3340  135.5740 C   0  0  0  0  0  1  0  0  0  0  0  0
  186.9560  176.6770  135.7210 C   0  0  0  0  0  0  0  0  0  0  0  0
  188.5880  178.4040  141.5020 C   0  0  1  0  0  3  0  0  0  0  0  0
  187.3670  177.9320  142.1430 N   0  0  0  0  0  2  0  0  0  0  0  0
  186.1300  178.6390  142.0540 C   0  0  0  0  0  0  0  0  0  0  0  0
  186.0630  179.7450  141.4540 O   0  0  0  0  0  0  0  0  0  0  0  0
  184.9080  178.0640  142.6790 C   0  0  0  0  0  1  0  0  0  0  0  0
  189.7930  178.0790  142.3720 C   0  0  0  0  0  2  0  0  0  0  0  0
  189.5130  178.4000  143.7650 N   0  0  0  0  0  2  0  0  0  0  0  0
  189.0740  177.5310  145.9690 C   0  0  0  0  0  0  0  0  0  0  0  0
  190.7350  176.3510  147.3660 C   0  0  0  0  0  3  0  0  0  0  0  0
  191.8240  176.7380  146.4170 C   0  0  0  0  0  2  0  0  0  0  0  0
  189.8450  177.5390  144.8610 C   0  0  0  0  0  0  0  0  0  0  0  0
  189.4760  176.7420  147.1590 C   0  0  0  0  0  3  0  0  0  0  0  0
  191.2590  176.4150  144.7200 S   0  0  0  0  0  0  0  0  0  0  0  0
  186.9670  177.8920  147.2320 C   0  0  0  0  0  2  0  0  0  0  0  0
  187.7780  178.2990  146.0110 C   0  0  0  0  0  3  0  0  0  0  0  0
  186.5780  177.3740  145.8680 C   0  0  0  0  0  2  0  0  0  0  0  0
  1  7  2  0  0  0  0
  2  3  1  0  0  0  0
  3  6  2  0  0  0  0
  3 12  1  0  0  0  0
  4  5  1  0  0  0  0
  5 17  1  0  0  0  0
  5 16  2  0  0  0  0
  6 13  1  0  0  0  0
  7 19  1  0  0  0  0
  8 14  1  0  0  0  0
  8  9  1  0  0  0  0
 10 18  1  0  0  0  0
 10  2  2  0  0  0  0
 11  4  1  0  0  0  0
 11 18  1  0  0  0  0
 12  1  1  0  0  0  0
 13  7  1  0  0  0  0
 15 14  1  0  0  0  0
 15  6  1  0  0  0  0
 16  8  2  0  0  0  0
 18 15  2  0  0  0  0
 19 20  1  0  0  0  0
 19 24  1  1  0  0  0
 21 20  1  0  0  0  0
 21 23  1  0  0  0  0
 22 21  2  0  0  0  0
 24 25  1  0  0  0  0
 25 29  1  0  0  0  0
 26 33  1  0  0  0  0
 26 30  1  0  0  0  0
 28 27  1  0  0  0  0
 29 26  2  0  0  0  0
 30 27  2  0  0  0  0
 31 29  1  0  0  0  0
 31 28  1  0  0  0  0
 33 32  1  0  0  0  0
 34 33  1  0  0  0  0
 34 32  1  0  0  0  0
M  END
>  <MODEL>
5

>  <REMARK>
 VINA RESULT:      -8.2      2.219      3.279
  Name = 
  6 active torsions:
  status: ('A' for Active; 'I' for Inactive)
    1  A    between atoms: N_1  and  C_3
    2  A    between atoms: C_3  and  C_17
    3  A    between atoms: C_3  and  C_32
    4  A    between atoms: N_4  and  C_24
    5  A    between atoms: N_4  and  C_32
    6  A    between atoms: C_5  and  C_9
                            x       y       z     vdW  Elec       q    Type
                         _______ _______ _______ _____ _____    ______ ____

>  <TORSDO>
F 6

$$$$
=
 OpenBabel10222418193D

 34 38  0  0  1  0  0  0  0  0999 V2000
  185.0170  178.5990  145.3970 N   0  0  0  0  0  0  0  0  0  0  0  0
  181.5970  179.3070  143.9660 C   0  0  0  0  0  3  0  0  0  0  0  0
  182.9400  178.9630  144.0780 C   0  0  0  0  0  0  0  0  0  0  0  0
  180.7760  180.0890  139.6460 N   0  0  0  0  0  2  0  0  0  0  0  0
  181.9180  180.5280  138.9080 C   0  0  0  0  0  0  0  0  0  0  0  0
  183.6490  178.5930  142.9310 C   0  0  0  0  0  0  0  0  0  0  0  0
  185.6720  178.2550  144.3270 C   0  0  0  0  0  0  0  0  0  0  0  0
  183.9070  178.9410  139.2810 C   0  0  0  0  0  0  0  0  0  0  0  0
  184.8740  178.5070  138.2400 C   0  0  0  0  0  1  0  0  0  0  0  0
  180.9820  179.2660  142.7570 N   0  0  0  0  0  0  0  0  0  0  0  0
  180.7990  178.8130  140.3680 C   0  0  0  0  0  2  0  0  0  0  0  0
  183.6060  179.0030  145.4250 C   0  0  0  0  0  2  0  0  0  0  0  0
  185.0290  178.2520  143.0500 N   0  0  0  0  0  2  0  0  0  0  0  0
  183.8280  178.2310  140.5250 N   0  0  0  0  0  2  0  0  0  0  0  0
  183.0210  178.5850  141.6740 C   0  0  0  0  0  0  0  0  0  0  0  0
  182.9950  179.8130  138.9920 C   0  0  0  0  0  0  0  0  0  0  0  0
  181.9040  181.8170  138.1690 C   0  0  0  0  0  1  0  0  0  0  0  0
  181.6320  178.9070  141.6160 C   0  0  0  0  0  0  0  0  0  0  0  0
  187.1150  177.8880  144.4380 C   0  0  1  0  0  3  0  0  0  0  0  0
  187.3670  177.1970  145.6960 N   0  0  0  0  0  2  0  0  0  0  0  0
  188.5250  177.4490  146.4920 C   0  0  0  0  0  0  0  0  0  0  0  0
  189.4120  178.2530  146.1000 O   0  0  0  0  0  0  0  0  0  0  0  0
  188.6850  176.7530  147.7970 C   0  0  0  0  0  1  0  0  0  0  0  0
  187.5150  177.0030  143.2670 C   0  0  0  0  0  2  0  0  0  0  0  0
  188.0500  177.8130  142.1810 N   0  0  0  0  0  2  0  0  0  0  0  0
  189.8270  177.5870  140.5690 C   0  0  0  0  0  0  0  0  0  0  0  0
  192.2100  177.2860  141.1440 C   0  0  0  0  0  3  0  0  0  0  0  0
  191.8480  177.0660  142.5780 C   0  0  0  0  0  2  0  0  0  0  0  0
  189.4390  177.8570  141.8330 C   0  0  0  0  0  0  0  0  0  0  0  0
  191.2670  177.5030  140.2240 C   0  0  0  0  0  3  0  0  0  0  0  0
  190.6600  178.3460  143.0800 S   0  0  0  0  0  0  0  0  0  0  0  0
  189.4900  177.3850  138.1170 C   0  0  0  0  0  2  0  0  0  0  0  0
  188.8070  177.3910  139.4760 C   0  0  0  0  0  3  0  0  0  0  0  0
  188.7270  178.6080  138.5670 C   0  0  0  0  0  2  0  0  0  0  0  0
  1 12  1  0  0  0  0
  2  3  1  0  0  0  0
  3 12  1  0  0  0  0
  4 11  1  0  0  0  0
  5 16  2  0  0  0  0
  5  4  1  0  0  0  0
  6 13  1  0  0  0  0
  6  3  2  0  0  0  0
  7 19  1  0  0  0  0
  7  1  2  0  0  0  0
  8 14  1  0  0  0  0
  9  8  1  0  0  0  0
 10  2  2  0  0  0  0
 11 18  1  0  0  0  0
 13  7  1  0  0  0  0
 14 15  1  0  0  0  0
 15  6  1  0  0  0  0
 16  8  2  0  0  0  0
 17  5  1  0  0  0  0
 18 15  2  0  0  0  0
 18 10  1  0  0  0  0
 19 24  1  6  0  0  0
 19 20  1  0  0  0  0
 20 21  1  0  0  0  0
 21 23  1  0  0  0  0
 22 21  2  0  0  0  0
 25 24  1  0  0  0  0
 26 29  2  0  0  0  0
 27 28  1  0  0  0  0
 28 31  1  0  0  0  0
 29 25  1  0  0  0  0
 29 31  1  0  0  0  0
 30 26  1  0  0  0  0
 30 27  2  0  0  0  0
 32 34  1  0  0  0  0
 32 33  1  0  0  0  0
 33 26  1  0  0  0  0
 34 33  1  0  0  0  0
M  END
>  <MODEL>
6

>  <REMARK>
 VINA RESULT:      -8.1      2.831      6.789
  Name = 
  6 active torsions:
  status: ('A' for Active; 'I' for Inactive)
    1  A    between atoms: N_1  and  C_3
    2  A    between atoms: C_3  and  C_17
    3  A    between atoms: C_3  and  C_32
    4  A    between atoms: N_4  and  C_24
    5  A    between atoms: N_4  and  C_32
    6  A    between atoms: C_5  and  C_9
                            x       y       z     vdW  Elec       q    Type
                         _______ _______ _______ _____ _____    ______ ____

>  <TORSDO>
F 6

$$$$
=
 OpenBabel10222418193D

 34 38  0  0  1  0  0  0  0  0999 V2000
  188.2180  178.5760  140.8850 N   0  0  0  0  0  0  0  0  0  0  0  0
  188.5630  178.0370  137.1650 C   0  0  0  0  0  3  0  0  0  0  0  0
  188.0210  178.1670  138.4400 C   0  0  0  0  0  0  0  0  0  0  0  0
  185.4820  176.0720  134.5980 N   0  0  0  0  0  2  0  0  0  0  0  0
  184.5750  175.2350  135.3180 C   0  0  0  0  0  0  0  0  0  0  0  0
  186.6400  178.0270  138.6130 C   0  0  0  0  0  0  0  0  0  0  0  0
  186.9330  178.4460  141.0410 C   0  0  0  0  0  0  0  0  0  0  0  0
  183.5600  176.4990  137.3150 C   0  0  0  0  0  0  0  0  0  0  0  0
  182.1480  176.4090  137.7690 C   0  0  0  0  0  1  0  0  0  0  0  0
  187.7550  177.7950  136.1030 N   0  0  0  0  0  0  0  0  0  0  0  0
  185.6290  177.4880  134.9490 C   0  0  0  0  0  2  0  0  0  0  0  0
  188.9270  178.4460  139.6060 C   0  0  0  0  0  2  0  0  0  0  0  0
  186.0920  178.1510  139.9240 N   0  0  0  0  0  2  0  0  0  0  0  0
  184.3950  177.5690  137.7790 N   0  0  0  0  0  2  0  0  0  0  0  0
  185.8080  177.7410  137.5180 C   0  0  0  0  0  0  0  0  0  0  0  0
  183.9770  175.7470  136.3470 C   0  0  0  0  0  0  0  0  0  0  0  0
  184.4140  173.8000  134.9690 C   0  0  0  0  0  1  0  0  0  0  0  0
  186.4060  177.6570  136.2240 C   0  0  0  0  0  0  0  0  0  0  0  0
  186.3440  178.5800  142.4060 C   0  0  1  0  0  3  0  0  0  0  0  0
  184.8890  178.5260  142.3380 N   0  0  0  0  0  2  0  0  0  0  0  0
  184.0520  179.0690  143.3600 C   0  0  0  0  0  0  0  0  0  0  0  0
  184.5520  179.5720  144.4000 O   0  0  0  0  0  0  0  0  0  0  0  0
  182.5740  179.0350  143.1920 C   0  0  0  0  0  1  0  0  0  0  0  0
  186.8660  177.4700  143.3060 C   0  0  0  0  0  2  0  0  0  0  0  0
  187.7150  178.0240  144.3510 N   0  0  0  0  0  2  0  0  0  0  0  0
  189.2850  177.4730  146.0950 C   0  0  0  0  0  0  0  0  0  0  0  0
  191.6280  176.7910  145.7070 C   0  0  0  0  0  3  0  0  0  0  0  0
  191.5110  177.1710  144.2660 C   0  0  0  0  0  2  0  0  0  0  0  0
  188.9330  177.4110  144.7930 C   0  0  0  0  0  0  0  0  0  0  0  0
  190.6010  176.9570  146.5440 C   0  0  0  0  0  3  0  0  0  0  0  0
  189.9560  176.4950  143.6100 S   0  0  0  0  0  0  0  0  0  0  0  0
  189.0350  178.1520  148.4700 C   0  0  0  0  0  2  0  0  0  0  0  0
  188.3400  178.0420  147.1220 C   0  0  0  0  0  3  0  0  0  0  0  0
  188.0470  177.0370  148.2260 C   0  0  0  0  0  2  0  0  0  0  0  0
  1  7  2  0  0  0  0
  2  3  1  0  0  0  0
  3  6  2  0  0  0  0
  3 12  1  0  0  0  0
  4 11  1  0  0  0  0
  4  5  1  0  0  0  0
  5 16  2  0  0  0  0
  6 13  1  0  0  0  0
  7 19  1  0  0  0  0
  8  9  1  0  0  0  0
  8 14  1  0  0  0  0
 10 18  1  0  0  0  0
 10  2  2  0  0  0  0
 11 18  1  0  0  0  0
 12  1  1  0  0  0  0
 13  7  1  0  0  0  0
 15 14  1  0  0  0  0
 15  6  1  0  0  0  0
 16  8  2  0  0  0  0
 17  5  1  0  0  0  0
 18 15  2  0  0  0  0
 19 24  1  1  0  0  0
 20 19  1  0  0  0  0
 20 21  1  0  0  0  0
 21 22  2  0  0  0  0
 23 21  1  0  0  0  0
 24 25  1  0  0  0  0
 25 29  1  0  0  0  0
 26 30  1  0  0  0  0
 26 33  1  0  0  0  0
 27 30  2  0  0  0  0
 28 27  1  0  0  0  0
 29 26  2  0  0  0  0
 31 28  1  0  0  0  0
 31 29  1  0  0  0  0
 33 34  1  0  0  0  0
 33 32  1  0  0  0  0
 34 32  1  0  0  0  0
M  END
>  <MODEL>
7

>  <REMARK>
 VINA RESULT:      -7.9      2.351      3.815
  Name = 
  6 active torsions:
  status: ('A' for Active; 'I' for Inactive)
    1  A    between atoms: N_1  and  C_3
    2  A    between atoms: C_3  and  C_17
    3  A    between atoms: C_3  and  C_32
    4  A    between atoms: N_4  and  C_24
    5  A    between atoms: N_4  and  C_32
    6  A    between atoms: C_5  and  C_9
                            x       y       z     vdW  Elec       q    Type
                         _______ _______ _______ _____ _____    ______ ____

>  <TORSDO>
F 6

$$$$
=
 OpenBabel10222418193D

 34 38  0  0  1  0  0  0  0  0999 V2000
  186.1190  177.4740  137.9180 N   0  0  0  0  0  0  0  0  0  0  0  0
  188.2350  175.0960  135.8900 C   0  0  0  0  0  3  0  0  0  0  0  0
  187.8150  175.9850  136.8750 C   0  0  0  0  0  0  0  0  0  0  0  0
  192.6860  174.8260  136.1460 N   0  0  0  0  0  2  0  0  0  0  0  0
  193.3090  175.9990  136.6740 C   0  0  0  0  0  0  0  0  0  0  0  0
  188.6950  176.3260  137.9070 C   0  0  0  0  0  0  0  0  0  0  0  0
  186.9400  177.7880  138.8760 C   0  0  0  0  0  0  0  0  0  0  0  0
  192.2160  176.6860  138.8980 C   0  0  0  0  0  0  0  0  0  0  0  0
  192.9340  177.2020  140.0920 C   0  0  0  0  0  1  0  0  0  0  0  0
  189.4790  174.5560  135.9460 N   0  0  0  0  0  0  0  0  0  0  0  0
  191.6690  174.1080  136.9200 C   0  0  0  0  0  2  0  0  0  0  0  0
  186.4320  176.5670  136.8070 C   0  0  0  0  0  2  0  0  0  0  0  0
  188.2620  177.2470  138.9070 N   0  0  0  0  0  2  0  0  0  0  0  0
  190.8630  176.2250  139.0190 N   0  0  0  0  0  2  0  0  0  0  0  0
  189.9950  175.7950  137.9440 C   0  0  0  0  0  0  0  0  0  0  0  0
  192.8660  176.4540  137.8030 C   0  0  0  0  0  0  0  0  0  0  0  0
  194.3450  176.7310  135.9000 C   0  0  0  0  0  1  0  0  0  0  0  0
  190.3650  174.8560  136.9350 C   0  0  0  0  0  0  0  0  0  0  0  0
  186.4980  178.7440  139.9350 C   0  0  1  0  0  3  0  0  0  0  0  0
  185.0820  178.5600  140.2260 N   0  0  0  0  0  2  0  0  0  0  0  0
  184.0690  179.4030  139.6760 C   0  0  0  0  0  0  0  0  0  0  0  0
  184.3750  180.3860  138.9510 O   0  0  0  0  0  0  0  0  0  0  0  0
  182.6390  179.1170  139.9660 C   0  0  0  0  0  1  0  0  0  0  0  0
  187.3220  178.5350  141.1960 C   0  0  0  0  0  2  0  0  0  0  0  0
  186.5680  177.7590  142.1700 N   0  0  0  0  0  2  0  0  0  0  0  0
  186.7960  177.8790  144.5660 C   0  0  0  0  0  0  0  0  0  0  0  0
  185.0440  178.7020  146.1010 C   0  0  0  0  0  3  0  0  0  0  0  0
  184.0510  178.7070  144.9820 C   0  0  0  0  0  2  0  0  0  0  0  0
  186.1540  178.2680  143.4440 C   0  0  0  0  0  0  0  0  0  0  0  0
  186.3000  178.2970  145.9000 C   0  0  0  0  0  3  0  0  0  0  0  0
  184.8160  179.4880  143.5300 S   0  0  0  0  0  0  0  0  0  0  0  0
  188.8350  177.1510  145.7800 C   0  0  0  0  0  2  0  0  0  0  0  0
  188.0430  177.0370  144.4870 C   0  0  0  0  0  3  0  0  0  0  0  0
  189.2980  177.8950  144.5510 C   0  0  0  0  0  2  0  0  0  0  0  0
  1  7  2  0  0  0  0
  2 10  2  0  0  0  0
  2  3  1  0  0  0  0
  3  6  2  0  0  0  0
  4  5  1  0  0  0  0
  4 11  1  0  0  0  0
  5 16  2  0  0  0  0
  6 15  1  0  0  0  0
  6 13  1  0  0  0  0
  7 13  1  0  0  0  0
  7 19  1  0  0  0  0
  8 14  1  0  0  0  0
  8  9  1  0  0  0  0
 10 18  1  0  0  0  0
 11 18  1  0  0  0  0
 12  3  1  0  0  0  0
 12  1  1  0  0  0  0
 15 14  1  0  0  0  0
 16  8  2  0  0  0  0
 17  5  1  0  0  0  0
 18 15  2  0  0  0  0
 19 20  1  0  0  0  0
 19 24  1  1  0  0  0
 21 23  1  0  0  0  0
 21 20  1  0  0  0  0
 22 21  2  0  0  0  0
 24 25  1  0  0  0  0
 25 29  1  0  0  0  0
 26 30  1  0  0  0  0
 28 27  1  0  0  0  0
 29 31  1  0  0  0  0
 29 26  2  0  0  0  0
 30 27  2  0  0  0  0
 31 28  1  0  0  0  0
 33 34  1  0  0  0  0
 33 26  1  0  0  0  0
 33 32  1  0  0  0  0
 34 32  1  0  0  0  0
M  END
>  <MODEL>
8

>  <REMARK>
 VINA RESULT:      -7.9      2.643      5.320
  Name = 
  6 active torsions:
  status: ('A' for Active; 'I' for Inactive)
    1  A    between atoms: N_1  and  C_3
    2  A    between atoms: C_3  and  C_17
    3  A    between atoms: C_3  and  C_32
    4  A    between atoms: N_4  and  C_24
    5  A    between atoms: N_4  and  C_32
    6  A    between atoms: C_5  and  C_9
                            x       y       z     vdW  Elec       q    Type
                         _______ _______ _______ _____ _____    ______ ____

>  <TORSDO>
F 6

$$$$
=
 OpenBabel10222418193D

 34 38  0  0  1  0  0  0  0  0999 V2000
  184.7560  178.7710  144.0320 N   0  0  0  0  0  0  0  0  0  0  0  0
  181.1220  179.3600  143.1980 C   0  0  0  0  0  3  0  0  0  0  0  0
  182.4630  179.0030  143.0980 C   0  0  0  0  0  0  0  0  0  0  0  0
  179.4820  179.5720  139.0500 N   0  0  0  0  0  2  0  0  0  0  0  0
  180.4600  179.8810  138.0540 C   0  0  0  0  0  0  0  0  0  0  0  0
  182.9390  178.4650  141.8980 C   0  0  0  0  0  0  0  0  0  0  0  0
  185.1940  178.2710  142.9150 C   0  0  0  0  0  0  0  0  0  0  0  0
  182.4880  178.3120  138.2530 C   0  0  0  0  0  0  0  0  0  0  0  0
  183.2380  177.7200  137.1160 C   0  0  0  0  0  1  0  0  0  0  0  0
  180.2860  179.1710  142.1460 N   0  0  0  0  0  0  0  0  0  0  0  0
  179.6480  178.4050  139.9210 C   0  0  0  0  0  2  0  0  0  0  0  0
  183.3760  179.2080  144.2740 C   0  0  0  0  0  2  0  0  0  0  0  0
  184.3170  178.1110  141.7970 N   0  0  0  0  0  2  0  0  0  0  0  0
  182.6520  177.7790  139.5750 N   0  0  0  0  0  2  0  0  0  0  0  0
  182.0810  178.3030  140.7970 C   0  0  0  0  0  0  0  0  0  0  0  0
  181.5350  179.1580  138.0280 C   0  0  0  0  0  0  0  0  0  0  0  0
  180.3000  181.0580  137.1620 C   0  0  0  0  0  1  0  0  0  0  0  0
  180.7050  178.6460  140.9620 C   0  0  0  0  0  0  0  0  0  0  0  0
  186.6320  177.8890  142.7970 C   0  0  1  0  0  3  0  0  0  0  0  0
  187.2360  178.5370  141.6390 N   0  0  0  0  0  2  0  0  0  0  0  0
  188.2930  177.9370  140.8880 C   0  0  0  0  0  0  0  0  0  0  0  0
  188.7850  176.8330  141.2410 O   0  0  0  0  0  0  0  0  0  0  0  0
  188.8170  178.6270  139.6790 C   0  0  0  0  0  1  0  0  0  0  0  0
  187.3770  178.2840  144.0630 C   0  0  0  0  0  2  0  0  0  0  0  0
  187.7170  177.0990  144.8390 N   0  0  0  0  0  2  0  0  0  0  0  0
  189.2190  176.8670  146.7090 C   0  0  0  0  0  0  0  0  0  0  0  0
  191.6810  176.9950  146.5540 C   0  0  0  0  0  3  0  0  0  0  0  0
  191.5780  177.4820  145.1440 C   0  0  0  0  0  2  0  0  0  0  0  0
  189.0230  176.8480  145.3740 C   0  0  0  0  0  0  0  0  0  0  0  0
  190.5850  176.7360  147.2720 C   0  0  0  0  0  3  0  0  0  0  0  0
  190.3870  176.4370  144.2530 S   0  0  0  0  0  0  0  0  0  0  0  0
  187.5720  178.4350  147.7070 C   0  0  0  0  0  2  0  0  0  0  0  0
  188.0540  176.9930  147.6570 C   0  0  0  0  0  3  0  0  0  0  0  0
  188.3970  177.8810  148.8440 C   0  0  0  0  0  2  0  0  0  0  0  0
  1 12  1  0  0  0  0
  3  2  1  0  0  0  0
  3 12  1  0  0  0  0
  4 11  1  0  0  0  0
  5  4  1  0  0  0  0
  6  3  2  0  0  0  0
  7  1  2  0  0  0  0
  8 14  1  0  0  0  0
  9  8  1  0  0  0  0
 10  2  2  0  0  0  0
 11 18  1  0  0  0  0
 13  6  1  0  0  0  0
 13  7  1  0  0  0  0
 14 15  1  0  0  0  0
 15 18  2  0  0  0  0
 15  6  1  0  0  0  0
 16  5  2  0  0  0  0
 16  8  2  0  0  0  0
 17  5  1  0  0  0  0
 18 10  1  0  0  0  0
 19  7  1  0  0  0  0
 19 24  1  1  0  0  0
 20 19  1  0  0  0  0
 21 22  2  0  0  0  0
 21 20  1  0  0  0  0
 23 21  1  0  0  0  0
 24 25  1  0  0  0  0
 25 29  1  0  0  0  0
 26 30  1  0  0  0  0
 26 33  1  0  0  0  0
 27 30  2  0  0  0  0
 28 27  1  0  0  0  0
 29 26  2  0  0  0  0
 31 28  1  0  0  0  0
 31 29  1  0  0  0  0
 32 34  1  0  0  0  0
 33 32  1  0  0  0  0
 33 34  1  0  0  0  0
M  END
>  <MODEL>
9

>  <REMARK>
 VINA RESULT:      -7.7      3.333      5.976
  Name = 
  6 active torsions:
  status: ('A' for Active; 'I' for Inactive)
    1  A    between atoms: N_1  and  C_3
    2  A    between atoms: C_3  and  C_17
    3  A    between atoms: C_3  and  C_32
    4  A    between atoms: N_4  and  C_24
    5  A    between atoms: N_4  and  C_32
    6  A    between atoms: C_5  and  C_9
                            x       y       z     vdW  Elec       q    Type
                         _______ _______ _______ _____ _____    ______ ____

>  <TORSDO>
F 6

$$$$
