=
 OpenBabel10222416483D

 45 48  0  0  1  0  0  0  0  0999 V2000
  185.1950  178.3760  142.6830 C   0  0  0  0  0  3  0  0  0  0  0  0
  186.4730  178.2220  142.4670 C   0  0  0  0  0  0  0  0  0  0  0  0
  187.7520  178.0700  142.2440 C   0  0  0  0  0  0  0  0  0  0  0  0
  189.5450  177.5430  140.5640 C   0  0  0  0  0  2  0  0  0  0  0  0
  187.3360  178.2910  139.7780 C   0  0  0  0  0  2  0  0  0  0  0  0
  188.3450  178.4210  140.9080 C   0  0  1  0  0  3  0  0  0  0  0  0
  187.5920  177.5190  137.4940 N   0  0  0  0  0  0  0  0  0  0  0  0
  189.4930  177.3000  139.0660 C   0  0  0  0  0  2  0  0  0  0  0  0
  188.1110  177.6820  138.6760 C   0  0  0  0  0  0  0  0  0  0  0  0
  189.2200  177.5080  135.7500 N   0  0  0  0  0  2  0  0  0  0  0  0
  188.2180  176.9400  136.3370 C   0  0  0  0  0  0  0  0  0  0  0  0
  187.7900  175.5870  135.8890 C   0  0  0  0  0  2  0  0  0  0  0  0
  188.2680  174.5380  136.8830 C   0  0  0  0  0  2  0  0  0  0  0  0
  189.3280  173.6190  136.2820 C   0  0  1  0  0  3  0  0  0  0  0  0
  189.0600  173.3800  134.9320 O   0  0  0  0  0  1  0  0  0  0  0  0
  190.9860  174.3070  136.4770 S   0  0  1  0  0  0  0  0  0  0  0  0
  191.1540  174.4080  137.9870 O   0  0  0  0  0  0  0  0  0  0  0  0
  192.0660  172.9360  136.0380 C   0  0  0  0  0  1  0  0  0  0  0  0
  185.3290  177.9270  145.1280 O   0  0  0  0  0  1  0  0  0  0  0  0
  184.2060  179.9310  144.3960 C   0  0  0  0  0  2  0  0  0  0  0  0
  183.1710  178.8140  144.3230 C   0  0  2  0  0  3  0  0  0  0  0  0
  184.6450  178.5260  144.0700 C   0  0  1  0  0  0  0  0  0  0  0  0
  182.3710  178.9540  143.0340 C   0  0  0  0  0  2  0  0  0  0  0  0
  180.8890  178.7780  143.3130 C   0  0  0  0  0  2  0  0  0  0  0  0
  180.1450  178.4530  142.0290 C   0  0  0  0  0  2  0  0  0  0  0  0
  182.1030  176.9480  139.0810 N   0  0  0  0  0  0  0  0  0  0  0  0
  182.1350  175.6850  138.3360 C   0  0  0  0  0  2  0  0  0  0  0  0
  180.3020  176.1650  140.3530 O   0  0  0  0  0  0  0  0  0  0  0  0
  181.0920  178.2770  140.9380 N   0  0  0  0  0  2  0  0  0  0  0  0
  182.6690  179.2320  138.9600 O   0  0  0  0  0  0  0  0  0  0  0  0
  183.5390  175.3690  137.8300 C   0  0  0  0  0  2  0  0  0  0  0  0
  184.0410  176.5350  136.9940 C   0  0  0  0  0  2  0  0  0  0  0  0
  184.1950  177.7720  137.8680 C   0  0  0  0  0  2  0  0  0  0  0  0
  181.1260  177.0950  140.1300 C   0  0  0  0  0  0  0  0  0  0  0  0
  182.9430  178.0420  138.6510 C   0  0  0  0  0  0  0  0  0  0  0  0
  188.5720  177.5110  143.2720 N   0  0  0  0  0  2  0  0  0  0  0  0
  188.4160  177.8640  144.6220 N   0  0  0  0  0  2  0  0  0  0  0  0
  191.6510  176.4940  147.0290 C   0  0  0  0  0  0  0  0  0  0  0  0
  188.0700  177.2850  147.4680 N   0  0  0  0  0  1  0  0  0  0  0  0
  189.3590  177.5480  146.8520 C   0  0  2  0  0  3  0  0  0  0  0  0
  190.7600  177.2350  144.8210 C   0  0  0  0  0  2  0  0  0  0  0  0
  189.3580  177.0700  145.4000 C   0  0  2  0  0  3  0  0  0  0  0  0
  192.5800  176.0010  147.7780 N   0  0  0  0  0  2  0  0  0  0  0  0
  191.7460  176.3230  145.5440 C   0  0  0  0  0  2  0  0  0  0  0  0
  190.4070  176.8820  147.6210 N   0  0  0  0  0  2  0  0  0  0  0  0
  1 22  1  0  0  0  0
  2  1  2  0  0  0  0
  3  2  2  0  0  0  0
  3 36  1  0  0  0  0
  4  6  1  0  0  0  0
  5  6  1  0  0  0  0
  6  3  1  1  0  0  0
  7  9  2  0  0  0  0
  8  4  1  0  0  0  0
  9  8  1  0  0  0  0
  9  5  1  0  0  0  0
 10 11  2  0  0  0  0
 11  7  1  0  0  0  0
 12 11  1  0  0  0  0
 12 13  1  0  0  0  0
 14 15  1  6  0  0  0
 14 16  1  0  0  0  0
 14 13  1  0  0  0  0
 16 18  1  1  0  0  0
 16 17  2  0  0  0  0
 21 23  1  6  0  0  0
 21 20  1  0  0  0  0
 22 21  1  0  0  0  0
 22 20  1  0  0  0  0
 22 19  1  1  0  0  0
 23 24  1  0  0  0  0
 25 24  1  0  0  0  0
 26 34  1  0  0  0  0
 27 26  1  0  0  0  0
 29 25  1  0  0  0  0
 31 27  1  0  0  0  0
 32 31  1  0  0  0  0
 32 33  1  0  0  0  0
 33 35  1  0  0  0  0
 34 28  2  0  0  0  0
 34 29  1  0  0  0  0
 35 30  2  0  0  0  0
 35 26  1  0  0  0  0
 36 37  1  0  0  0  0
 38 45  1  0  0  0  0
 38 43  2  0  0  0  0
 40 39  1  1  0  0  0
 40 45  1  0  0  0  0
 41 42  1  0  0  0  0
 41 44  1  0  0  0  0
 42 37  1  6  0  0  0
 42 40  1  0  0  0  0
 44 38  1  0  0  0  0
M  END
>  <MODEL>
1

>  <REMARK>
 VINA RESULT:      -8.2      0.000      0.000
  Name = 
  14 active torsions:
  status: ('A' for Active; 'I' for Inactive)
    1  A    between atoms: S_3  and  C_14
    2  A    between atoms: C_6  and  C_23
    3  A    between atoms: C_6  and  C_33
    4  A    between atoms: N_8  and  N_15
    5  A    between atoms: N_8  and  C_25
    6  A    between atoms: C_10  and  C_42
    7  A    between atoms: C_14  and  C_45
    8  A    between atoms: N_15  and  C_43
    9  A    between atoms: C_17  and  C_37
   10  A    between atoms: C_17  and  C_45
   11  A    between atoms: C_18  and  N_21
   12  A    between atoms: C_18  and  C_23
   13  A    between atoms: C_24  and  C_43
   14  A    between atoms: N_27  and  C_37
                            x       y       z     vdW  Elec       q    Type
                         _______ _______ _______ _____ _____    ______ ____

>  <TORSDO>
F 14

$$$$
=
 OpenBabel10222416483D

 45 48  0  0  1  0  0  0  0  0999 V2000
  185.3820  178.3050  142.7570 C   0  0  0  0  0  3  0  0  0  0  0  0
  186.6520  178.1750  142.4890 C   0  0  0  0  0  0  0  0  0  0  0  0
  187.9240  178.0480  142.2140 C   0  0  0  0  0  0  0  0  0  0  0  0
  189.5790  177.4060  140.4340 C   0  0  0  0  0  2  0  0  0  0  0  0
  187.3600  178.2440  139.7750 C   0  0  0  0  0  2  0  0  0  0  0  0
  188.4450  178.3460  140.8360 C   0  0  1  0  0  3  0  0  0  0  0  0
  187.4320  177.4200  137.4960 N   0  0  0  0  0  0  0  0  0  0  0  0
  189.4190  177.1390  138.9490 C   0  0  0  0  0  2  0  0  0  0  0  0
  188.0340  177.5790  138.6390 C   0  0  0  0  0  0  0  0  0  0  0  0
  188.8120  177.3850  135.5510 N   0  0  0  0  0  2  0  0  0  0  0  0
  187.9550  176.7910  136.3150 C   0  0  0  0  0  0  0  0  0  0  0  0
  187.6050  175.3710  136.0400 C   0  0  0  0  0  2  0  0  0  0  0  0
  186.7700  174.8140  137.1860 C   0  0  0  0  0  2  0  0  0  0  0  0
  186.6610  173.2930  137.1280 C   0  0  1  0  0  3  0  0  0  0  0  0
  185.6620  172.8400  137.9910 O   0  0  0  0  0  1  0  0  0  0  0  0
  186.3410  172.7170  135.4460 S   0  0  1  0  0  0  0  0  0  0  0  0
  186.5280  171.2090  135.5450 O   0  0  0  0  0  0  0  0  0  0  0  0
  184.5600  172.8970  135.2700 C   0  0  0  0  0  1  0  0  0  0  0  0
  185.6210  177.9550  145.2100 O   0  0  0  0  0  1  0  0  0  0  0  0
  184.4630  179.9260  144.4460 C   0  0  0  0  0  2  0  0  0  0  0  0
  183.4280  178.8070  144.4620 C   0  0  2  0  0  3  0  0  0  0  0  0
  184.8910  178.5100  144.1590 C   0  0  1  0  0  0  0  0  0  0  0  0
  182.5740  178.8940  143.2040 C   0  0  0  0  0  2  0  0  0  0  0  0
  181.1000  178.8120  143.5620 C   0  0  0  0  0  2  0  0  0  0  0  0
  180.2640  178.6120  142.3090 C   0  0  0  0  0  2  0  0  0  0  0  0
  181.9040  177.1260  139.1640 N   0  0  0  0  0  0  0  0  0  0  0  0
  181.7640  175.9220  138.3380 C   0  0  0  0  0  2  0  0  0  0  0  0
  180.0940  176.4460  140.4820 O   0  0  0  0  0  0  0  0  0  0  0  0
  181.1320  178.4180  141.1580 N   0  0  0  0  0  2  0  0  0  0  0  0
  182.7040  179.3420  139.1620 O   0  0  0  0  0  0  0  0  0  0  0  0
  183.1000  175.5000  137.7350 C   0  0  0  0  0  2  0  0  0  0  0  0
  183.6820  176.6640  136.9500 C   0  0  0  0  0  2  0  0  0  0  0  0
  184.0100  177.8140  137.8940 C   0  0  0  0  0  2  0  0  0  0  0  0
  181.0000  177.2980  140.2740 C   0  0  0  0  0  0  0  0  0  0  0  0
  182.8340  178.1550  138.7610 C   0  0  0  0  0  0  0  0  0  0  0  0
  188.8070  177.5660  143.2290 N   0  0  0  0  0  2  0  0  0  0  0  0
  188.6800  177.9570  144.5720 N   0  0  0  0  0  2  0  0  0  0  0  0
  191.7540  176.3740  147.0590 C   0  0  0  0  0  0  0  0  0  0  0  0
  188.2110  177.3630  147.3970 N   0  0  0  0  0  1  0  0  0  0  0  0
  189.5330  177.5590  146.8250 C   0  0  2  0  0  3  0  0  0  0  0  0
  190.9770  177.1930  144.8340 C   0  0  0  0  0  2  0  0  0  0  0  0
  189.5500  177.1010  145.3670 C   0  0  2  0  0  3  0  0  0  0  0  0
  192.6290  175.8190  147.8290 N   0  0  0  0  0  2  0  0  0  0  0  0
  191.8860  176.2170  145.5750 C   0  0  0  0  0  2  0  0  0  0  0  0
  190.5160  176.8250  147.6170 N   0  0  0  0  0  2  0  0  0  0  0  0
  1 22  1  0  0  0  0
  2  1  2  0  0  0  0
  3  2  2  0  0  0  0
  3 36  1  0  0  0  0
  4  6  1  0  0  0  0
  5  6  1  0  0  0  0
  6  3  1  1  0  0  0
  7  9  2  0  0  0  0
  8  4  1  0  0  0  0
  9  8  1  0  0  0  0
  9  5  1  0  0  0  0
 10 11  2  0  0  0  0
 11  7  1  0  0  0  0
 12 11  1  0  0  0  0
 12 13  1  0  0  0  0
 14 13  1  0  0  0  0
 14 15  1  1  0  0  0
 16 18  1  1  0  0  0
 16 17  2  0  0  0  0
 16 14  1  0  0  0  0
 20 21  1  0  0  0  0
 21 23  1  6  0  0  0
 22 20  1  0  0  0  0
 22 21  1  0  0  0  0
 22 19  1  1  0  0  0
 23 24  1  0  0  0  0
 25 24  1  0  0  0  0
 26 34  1  0  0  0  0
 27 26  1  0  0  0  0
 29 25  1  0  0  0  0
 31 27  1  0  0  0  0
 32 31  1  0  0  0  0
 32 33  1  0  0  0  0
 33 35  1  0  0  0  0
 34 28  2  0  0  0  0
 34 29  1  0  0  0  0
 35 30  2  0  0  0  0
 35 26  1  0  0  0  0
 36 37  1  0  0  0  0
 38 45  1  0  0  0  0
 38 43  2  0  0  0  0
 40 39  1  1  0  0  0
 40 45  1  0  0  0  0
 41 42  1  0  0  0  0
 41 44  1  0  0  0  0
 42 37  1  6  0  0  0
 42 40  1  0  0  0  0
 44 38  1  0  0  0  0
M  END
>  <MODEL>
2

>  <REMARK>
 VINA RESULT:      -8.1      1.533      1.850
  Name = 
  14 active torsions:
  status: ('A' for Active; 'I' for Inactive)
    1  A    between atoms: S_3  and  C_14
    2  A    between atoms: C_6  and  C_23
    3  A    between atoms: C_6  and  C_33
    4  A    between atoms: N_8  and  N_15
    5  A    between atoms: N_8  and  C_25
    6  A    between atoms: C_10  and  C_42
    7  A    between atoms: C_14  and  C_45
    8  A    between atoms: N_15  and  C_43
    9  A    between atoms: C_17  and  C_37
   10  A    between atoms: C_17  and  C_45
   11  A    between atoms: C_18  and  N_21
   12  A    between atoms: C_18  and  C_23
   13  A    between atoms: C_24  and  C_43
   14  A    between atoms: N_27  and  C_37
                            x       y       z     vdW  Elec       q    Type
                         _______ _______ _______ _____ _____    ______ ____

>  <TORSDO>
F 14

$$$$
=
 OpenBabel10222416483D

 45 48  0  0  1  0  0  0  0  0999 V2000
  189.3180  177.5520  141.8980 C   0  0  0  0  0  3  0  0  0  0  0  0
  189.4020  177.5860  140.5960 C   0  0  0  0  0  0  0  0  0  0  0  0
  189.4790  177.6220  139.2910 C   0  0  0  0  0  0  0  0  0  0  0  0
  188.0550  177.3250  137.2420 C   0  0  0  0  0  2  0  0  0  0  0  0
  187.0620  178.3020  139.2710 C   0  0  0  0  0  2  0  0  0  0  0  0
  188.3500  178.1800  138.4710 C   0  0  1  0  0  3  0  0  0  0  0  0
  184.7500  177.9430  138.6340 N   0  0  0  0  0  0  0  0  0  0  0  0
  186.5510  177.3580  137.0380 C   0  0  0  0  0  2  0  0  0  0  0  0
  186.0120  177.8670  138.3260 C   0  0  0  0  0  0  0  0  0  0  0  0
  183.4000  176.3170  137.5280 N   0  0  0  0  0  2  0  0  0  0  0  0
  183.6280  177.5540  137.8260 C   0  0  0  0  0  0  0  0  0  0  0  0
  182.6290  178.5860  137.4360 C   0  0  0  0  0  2  0  0  0  0  0  0
  181.6050  178.7610  138.5510 C   0  0  0  0  0  2  0  0  0  0  0  0
  181.5840  180.1870  139.0910 C   0  0  1  0  0  3  0  0  0  0  0  0
  182.7480  180.8670  138.7270 O   0  0  0  0  0  1  0  0  0  0  0  0
  180.1290  181.0900  138.5150 S   0  0  1  0  0  0  0  0  0  0  0  0
  179.6340  181.8020  139.7660 O   0  0  0  0  0  0  0  0  0  0  0  0
  180.8230  182.4270  137.5320 C   0  0  0  0  0  1  0  0  0  0  0  0
  191.7510  177.1080  142.1810 O   0  0  0  0  0  1  0  0  0  0  0  0
  190.6960  178.6760  143.6770 C   0  0  0  0  0  2  0  0  0  0  0  0
  190.4500  177.2930  144.2700 C   0  0  2  0  0  3  0  0  0  0  0  0
  190.5420  177.4880  142.7630 C   0  0  1  0  0  0  0  0  0  0  0  0
  189.0120  177.2070  144.7650 C   0  0  0  0  0  2  0  0  0  0  0  0
  188.9750  177.2470  146.2820 C   0  0  0  0  0  2  0  0  0  0  0  0
  187.6120  177.7130  146.7640 C   0  0  0  0  0  2  0  0  0  0  0  0
  184.5640  178.6390  144.6090 N   0  0  0  0  0  0  0  0  0  0  0  0
  183.2250  179.2020  144.8130 C   0  0  0  0  0  2  0  0  0  0  0  0
  185.0400  178.9110  146.8830 O   0  0  0  0  0  0  0  0  0  0  0  0
  186.7200  177.8980  145.6290 N   0  0  0  0  0  2  0  0  0  0  0  0
  186.2480  178.2960  142.9960 O   0  0  0  0  0  0  0  0  0  0  0  0
  182.2250  178.6490  143.8020 C   0  0  0  0  0  2  0  0  0  0  0  0
  182.7430  178.9090  142.3980 C   0  0  0  0  0  2  0  0  0  0  0  0
  184.0280  178.1260  142.1650 C   0  0  0  0  0  2  0  0  0  0  0  0
  185.4300  178.5060  145.7540 C   0  0  0  0  0  0  0  0  0  0  0  0
  185.0190  178.3710  143.2640 C   0  0  0  0  0  0  0  0  0  0  0  0
  190.6310  177.0710  138.6500 N   0  0  0  0  0  2  0  0  0  0  0  0
  190.9320  175.7010  138.7110 N   0  0  0  0  0  2  0  0  0  0  0  0
  193.7960  175.8400  135.5620 C   0  0  0  0  0  0  0  0  0  0  0  0
  193.6310  176.7420  139.1400 N   0  0  0  0  0  1  0  0  0  0  0  0
  193.0100  176.6330  137.8310 C   0  0  2  0  0  3  0  0  0  0  0  0
  191.5080  175.2790  136.3830 C   0  0  0  0  0  2  0  0  0  0  0  0
  192.0420  175.4500  137.8030 C   0  0  2  0  0  3  0  0  0  0  0  0
  194.7200  175.8270  134.6610 N   0  0  0  0  0  2  0  0  0  0  0  0
  192.6380  174.8990  135.4320 C   0  0  0  0  0  2  0  0  0  0  0  0
  194.0480  176.4850  136.8140 N   0  0  0  0  0  2  0  0  0  0  0  0
  1 22  1  0  0  0  0
  2  1  2  0  0  0  0
  3  2  2  0  0  0  0
  4  6  1  0  0  0  0
  6  5  1  0  0  0  0
  6  3  1  1  0  0  0
  8  4  1  0  0  0  0
  8  9  1  0  0  0  0
  9  7  2  0  0  0  0
  9  5  1  0  0  0  0
 10 11  2  0  0  0  0
 11  7  1  0  0  0  0
 12 11  1  0  0  0  0
 12 13  1  0  0  0  0
 13 14  1  0  0  0  0
 14 15  1  6  0  0  0
 16 18  1  6  0  0  0
 16 14  1  0  0  0  0
 16 17  2  0  0  0  0
 20 21  1  0  0  0  0
 21 23  1  6  0  0  0
 22 19  1  6  0  0  0
 22 20  1  0  0  0  0
 22 21  1  0  0  0  0
 23 24  1  0  0  0  0
 24 25  1  0  0  0  0
 26 27  1  0  0  0  0
 26 34  1  0  0  0  0
 29 34  1  0  0  0  0
 29 25  1  0  0  0  0
 30 35  2  0  0  0  0
 31 27  1  0  0  0  0
 32 31  1  0  0  0  0
 33 32  1  0  0  0  0
 33 35  1  0  0  0  0
 34 28  2  0  0  0  0
 35 26  1  0  0  0  0
 36 37  1  0  0  0  0
 36  3  1  0  0  0  0
 38 45  1  0  0  0  0
 40 39  1  1  0  0  0
 41 42  1  0  0  0  0
 42 40  1  0  0  0  0
 42 37  1  1  0  0  0
 43 38  2  0  0  0  0
 44 38  1  0  0  0  0
 44 41  1  0  0  0  0
 45 40  1  0  0  0  0
M  END
>  <MODEL>
3

>  <REMARK>
 VINA RESULT:      -8.1      3.363      7.941
  Name = 
  14 active torsions:
  status: ('A' for Active; 'I' for Inactive)
    1  A    between atoms: S_3  and  C_14
    2  A    between atoms: C_6  and  C_23
    3  A    between atoms: C_6  and  C_33
    4  A    between atoms: N_8  and  N_15
    5  A    between atoms: N_8  and  C_25
    6  A    between atoms: C_10  and  C_42
    7  A    between atoms: C_14  and  C_45
    8  A    between atoms: N_15  and  C_43
    9  A    between atoms: C_17  and  C_37
   10  A    between atoms: C_17  and  C_45
   11  A    between atoms: C_18  and  N_21
   12  A    between atoms: C_18  and  C_23
   13  A    between atoms: C_24  and  C_43
   14  A    between atoms: N_27  and  C_37
                            x       y       z     vdW  Elec       q    Type
                         _______ _______ _______ _____ _____    ______ ____

>  <TORSDO>
F 14

$$$$
=
 OpenBabel10222416483D

 45 48  0  0  1  0  0  0  0  0999 V2000
  189.6620  177.7970  142.3630 C   0  0  0  0  0  3  0  0  0  0  0  0
  189.7420  177.8340  141.0610 C   0  0  0  0  0  0  0  0  0  0  0  0
  189.8150  177.8740  139.7560 C   0  0  0  0  0  0  0  0  0  0  0  0
  189.0330  178.5170  137.4560 C   0  0  0  0  0  2  0  0  0  0  0  0
  187.4060  177.6490  139.0850 C   0  0  0  0  0  2  0  0  0  0  0  0
  188.6910  178.4500  138.9420 C   0  0  1  0  0  3  0  0  0  0  0  0
  185.6840  177.0950  137.4700 N   0  0  0  0  0  0  0  0  0  0  0  0
  187.7530  178.2180  136.6980 C   0  0  0  0  0  2  0  0  0  0  0  0
  186.8530  177.6140  137.7150 C   0  0  0  0  0  0  0  0  0  0  0  0
  185.5740  176.3770  135.1980 N   0  0  0  0  0  2  0  0  0  0  0  0
  185.0260  176.9860  136.1980 C   0  0  0  0  0  0  0  0  0  0  0  0
  183.6230  177.4660  136.0700 C   0  0  0  0  0  2  0  0  0  0  0  0
  183.0030  177.6240  137.4520 C   0  0  0  0  0  2  0  0  0  0  0  0
  181.6050  177.0170  137.5250 C   0  0  1  0  0  3  0  0  0  0  0  0
  181.3580  176.2200  136.4060 O   0  0  0  0  0  1  0  0  0  0  0  0
  181.3800  176.0570  139.0380 S   0  0  1  0  0  0  0  0  0  0  0  0
  182.7880  175.9570  139.6080 O   0  0  0  0  0  0  0  0  0  0  0  0
  180.5690  177.2120  140.1550 C   0  0  0  0  0  1  0  0  0  0  0  0
  192.0000  177.0270  142.7360 O   0  0  0  0  0  1  0  0  0  0  0  0
  191.2610  179.0230  143.8680 C   0  0  0  0  0  2  0  0  0  0  0  0
  190.8160  177.8530  144.7380 C   0  0  2  0  0  3  0  0  0  0  0  0
  190.8870  177.7130  143.2230 C   0  0  1  0  0  0  0  0  0  0  0  0
  189.4000  178.1090  145.2380 C   0  0  0  0  0  2  0  0  0  0  0  0
  189.1150  177.2640  146.4670 C   0  0  0  0  0  2  0  0  0  0  0  0
  187.6640  177.4180  146.8880 C   0  0  0  0  0  2  0  0  0  0  0  0
  184.7900  178.5780  144.6110 N   0  0  0  0  0  0  0  0  0  0  0  0
  183.5060  179.2730  144.7570 C   0  0  0  0  0  2  0  0  0  0  0  0
  185.2170  178.8600  146.8940 O   0  0  0  0  0  0  0  0  0  0  0  0
  186.8310  177.6600  145.7190 N   0  0  0  0  0  2  0  0  0  0  0  0
  186.4830  178.0360  143.0640 O   0  0  0  0  0  0  0  0  0  0  0  0
  182.4900  178.7940  143.7260 C   0  0  0  0  0  2  0  0  0  0  0  0
  183.0740  178.9680  142.3340 C   0  0  0  0  0  2  0  0  0  0  0  0
  184.2840  178.0590  142.1610 C   0  0  0  0  0  2  0  0  0  0  0  0
  185.6010  178.3910  145.7870 C   0  0  0  0  0  0  0  0  0  0  0  0
  185.2590  178.2350  143.2880 C   0  0  0  0  0  0  0  0  0  0  0  0
  190.9580  177.3100  139.1100 N   0  0  0  0  0  2  0  0  0  0  0  0
  191.1140  175.9240  138.9520 N   0  0  0  0  0  2  0  0  0  0  0  0
  193.5500  174.7090  135.6760 C   0  0  0  0  0  0  0  0  0  0  0  0
  190.3680  173.6720  137.2400 N   0  0  0  0  0  1  0  0  0  0  0  0
  191.7220  174.1890  137.3450 C   0  0  2  0  0  3  0  0  0  0  0  0
  193.1210  176.2280  137.6080 C   0  0  0  0  0  2  0  0  0  0  0  0
  191.6940  175.6890  137.6370 C   0  0  2  0  0  3  0  0  0  0  0  0
  194.2130  174.3560  134.6270 N   0  0  0  0  0  2  0  0  0  0  0  0
  193.7110  176.1010  136.2070 C   0  0  0  0  0  2  0  0  0  0  0  0
  192.4430  173.9100  136.1060 N   0  0  0  0  0  2  0  0  0  0  0  0
  1 22  1  0  0  0  0
  2  1  2  0  0  0  0
  3  2  2  0  0  0  0
  4  6  1  0  0  0  0
  6  5  1  0  0  0  0
  6  3  1  1  0  0  0
  7  9  2  0  0  0  0
  8  4  1  0  0  0  0
  8  9  1  0  0  0  0
  9  5  1  0  0  0  0
 10 11  2  0  0  0  0
 11  7  1  0  0  0  0
 12 11  1  0  0  0  0
 12 13  1  0  0  0  0
 13 14  1  0  0  0  0
 14 15  1  6  0  0  0
 14 16  1  0  0  0  0
 16 17  2  0  0  0  0
 16 18  1  1  0  0  0
 20 21  1  0  0  0  0
 21 23  1  6  0  0  0
 22 19  1  6  0  0  0
 22 20  1  0  0  0  0
 22 21  1  0  0  0  0
 23 24  1  0  0  0  0
 24 25  1  0  0  0  0
 26 27  1  0  0  0  0
 26 34  1  0  0  0  0
 29 34  1  0  0  0  0
 29 25  1  0  0  0  0
 30 35  2  0  0  0  0
 31 27  1  0  0  0  0
 32 31  1  0  0  0  0
 33 32  1  0  0  0  0
 33 35  1  0  0  0  0
 34 28  2  0  0  0  0
 35 26  1  0  0  0  0
 36  3  1  0  0  0  0
 37 36  1  0  0  0  0
 38 45  1  0  0  0  0
 38 44  1  0  0  0  0
 40 39  1  6  0  0  0
 40 42  1  0  0  0  0
 41 42  1  0  0  0  0
 42 37  1  1  0  0  0
 43 38  2  0  0  0  0
 44 41  1  0  0  0  0
 45 40  1  0  0  0  0
M  END
>  <MODEL>
4

>  <REMARK>
 VINA RESULT:      -8.1      3.122      7.421
  Name = 
  14 active torsions:
  status: ('A' for Active; 'I' for Inactive)
    1  A    between atoms: S_3  and  C_14
    2  A    between atoms: C_6  and  C_23
    3  A    between atoms: C_6  and  C_33
    4  A    between atoms: N_8  and  N_15
    5  A    between atoms: N_8  and  C_25
    6  A    between atoms: C_10  and  C_42
    7  A    between atoms: C_14  and  C_45
    8  A    between atoms: N_15  and  C_43
    9  A    between atoms: C_17  and  C_37
   10  A    between atoms: C_17  and  C_45
   11  A    between atoms: C_18  and  N_21
   12  A    between atoms: C_18  and  C_23
   13  A    between atoms: C_24  and  C_43
   14  A    between atoms: N_27  and  C_37
                            x       y       z     vdW  Elec       q    Type
                         _______ _______ _______ _____ _____    ______ ____

>  <TORSDO>
F 14

$$$$
=
 OpenBabel10222416483D

 45 48  0  0  1  0  0  0  0  0999 V2000
  186.3380  177.9160  137.5430 C   0  0  0  0  0  3  0  0  0  0  0  0
  187.5990  177.8470  137.8720 C   0  0  0  0  0  0  0  0  0  0  0  0
  188.8610  177.7810  138.2070 C   0  0  0  0  0  0  0  0  0  0  0  0
  188.3110  177.9600  140.6530 C   0  0  0  0  0  2  0  0  0  0  0  0
  190.6520  177.6510  139.9620 C   0  0  0  0  0  2  0  0  0  0  0  0
  189.3230  178.2660  139.5530 C   0  0  1  0  0  3  0  0  0  0  0  0
  191.4720  176.9200  142.1230 N   0  0  0  0  0  0  0  0  0  0  0  0
  189.1090  177.6260  141.9000 C   0  0  0  0  0  2  0  0  0  0  0  0
  190.4830  177.3610  141.4010 C   0  0  0  0  0  0  0  0  0  0  0  0
  191.7660  175.4100  143.9470 N   0  0  0  0  0  2  0  0  0  0  0  0
  191.4540  176.5900  143.5210 C   0  0  0  0  0  0  0  0  0  0  0  0
  191.2040  177.6720  144.5120 C   0  0  0  0  0  2  0  0  0  0  0  0
  190.4980  177.0990  145.7350 C   0  0  0  0  0  2  0  0  0  0  0  0
  189.1250  177.7270  145.9500 C   0  0  1  0  0  3  0  0  0  0  0  0
  188.2200  177.2670  144.9920 O   0  0  0  0  0  1  0  0  0  0  0  0
  188.4990  177.3930  147.6110 S   0  0  1  0  0  0  0  0  0  0  0  0
  189.3180  178.3240  148.4940 O   0  0  0  0  0  0  0  0  0  0  0  0
  186.8700  178.1590  147.6110 C   0  0  0  0  0  1  0  0  0  0  0  0
  186.1200  177.2500  135.1540 O   0  0  0  0  0  1  0  0  0  0  0  0
  185.7610  175.5690  136.8440 C   0  0  0  0  0  2  0  0  0  0  0  0
  184.4330  176.3000  136.6850 C   0  0  2  0  0  3  0  0  0  0  0  0
  185.7530  177.0320  136.4820 C   0  0  1  0  0  0  0  0  0  0  0  0
  183.8280  176.5490  138.0600 C   0  0  0  0  0  2  0  0  0  0  0  0
  182.5780  177.4020  137.9390 C   0  0  0  0  0  2  0  0  0  0  0  0
  182.8460  178.8060  138.4530 C   0  0  0  0  0  2  0  0  0  0  0  0
  183.8250  179.1100  142.1590 N   0  0  0  0  0  0  0  0  0  0  0  0
  185.0390  179.3690  142.9400 C   0  0  0  0  0  2  0  0  0  0  0  0
  185.0200  179.4230  140.1720 O   0  0  0  0  0  0  0  0  0  0  0  0
  182.7850  178.8240  139.9060 N   0  0  0  0  0  2  0  0  0  0  0  0
  181.4710  179.1740  142.2430 O   0  0  0  0  0  0  0  0  0  0  0  0
  185.0100  178.6400  144.2790 C   0  0  0  0  0  2  0  0  0  0  0  0
  183.7530  179.0380  145.0350 C   0  0  0  0  0  2  0  0  0  0  0  0
  182.5210  178.5540  144.2830 C   0  0  0  0  0  2  0  0  0  0  0  0
  183.9210  179.1380  140.7210 C   0  0  0  0  0  0  0  0  0  0  0  0
  182.5600  178.9790  142.8450 C   0  0  0  0  0  0  0  0  0  0  0  0
  189.8060  177.2920  137.2540 N   0  0  0  0  0  2  0  0  0  0  0  0
  189.5610  176.1430  136.4860 N   0  0  0  0  0  2  0  0  0  0  0  0
  193.2690  174.1250  137.0460 C   0  0  0  0  0  0  0  0  0  0  0  0
  189.7830  173.2400  136.2070 N   0  0  0  0  0  1  0  0  0  0  0  0
  190.7440  174.0540  136.9310 C   0  0  2  0  0  3  0  0  0  0  0  0
  191.9390  176.2340  137.0030 C   0  0  0  0  0  2  0  0  0  0  0  0
  190.8290  175.4480  136.3100 C   0  0  2  0  0  3  0  0  0  0  0  0
  194.3850  173.4800  137.1260 N   0  0  0  0  0  2  0  0  0  0  0  0
  193.2950  175.5900  136.7350 C   0  0  0  0  0  2  0  0  0  0  0  0
  192.0470  173.3930  136.9140 N   0  0  0  0  0  2  0  0  0  0  0  0
  1  2  2  0  0  0  0
  2  3  2  0  0  0  0
  4  8  1  0  0  0  0
  5  9  1  0  0  0  0
  6  3  1  6  0  0  0
  6  5  1  0  0  0  0
  6  4  1  0  0  0  0
  7 11  1  0  0  0  0
  9  8  1  0  0  0  0
  9  7  2  0  0  0  0
 11 10  2  0  0  0  0
 11 12  1  0  0  0  0
 12 13  1  0  0  0  0
 13 14  1  0  0  0  0
 14 15  1  6  0  0  0
 14 16  1  0  0  0  0
 16 18  1  6  0  0  0
 16 17  2  0  0  0  0
 21 20  1  0  0  0  0
 21 23  1  1  0  0  0
 22 19  1  6  0  0  0
 22 21  1  0  0  0  0
 22 20  1  0  0  0  0
 22  1  1  0  0  0  0
 24 23  1  0  0  0  0
 24 25  1  0  0  0  0
 25 29  1  0  0  0  0
 26 35  1  0  0  0  0
 26 27  1  0  0  0  0
 27 31  1  0  0  0  0
 28 34  2  0  0  0  0
 29 34  1  0  0  0  0
 30 35  2  0  0  0  0
 31 32  1  0  0  0  0
 33 32  1  0  0  0  0
 34 26  1  0  0  0  0
 35 33  1  0  0  0  0
 36  3  1  0  0  0  0
 37 36  1  0  0  0  0
 38 43  2  0  0  0  0
 40 39  1  6  0  0  0
 42 37  1  1  0  0  0
 42 40  1  0  0  0  0
 42 41  1  0  0  0  0
 44 41  1  0  0  0  0
 44 38  1  0  0  0  0
 45 40  1  0  0  0  0
 45 38  1  0  0  0  0
M  END
>  <MODEL>
5

>  <REMARK>
 VINA RESULT:      -8.1      3.089      7.902
  Name = 
  14 active torsions:
  status: ('A' for Active; 'I' for Inactive)
    1  A    between atoms: S_3  and  C_14
    2  A    between atoms: C_6  and  C_23
    3  A    between atoms: C_6  and  C_33
    4  A    between atoms: N_8  and  N_15
    5  A    between atoms: N_8  and  C_25
    6  A    between atoms: C_10  and  C_42
    7  A    between atoms: C_14  and  C_45
    8  A    between atoms: N_15  and  C_43
    9  A    between atoms: C_17  and  C_37
   10  A    between atoms: C_17  and  C_45
   11  A    between atoms: C_18  and  N_21
   12  A    between atoms: C_18  and  C_23
   13  A    between atoms: C_24  and  C_43
   14  A    between atoms: N_27  and  C_37
                            x       y       z     vdW  Elec       q    Type
                         _______ _______ _______ _____ _____    ______ ____

>  <TORSDO>
F 14

$$$$
=
 OpenBabel10222416483D

 45 48  0  0  1  0  0  0  0  0999 V2000
  189.7330  177.6040  142.1400 C   0  0  0  0  0  3  0  0  0  0  0  0
  189.8600  177.2680  140.8850 C   0  0  0  0  0  0  0  0  0  0  0  0
  189.9820  176.9360  139.6270 C   0  0  0  0  0  0  0  0  0  0  0  0
  188.4530  176.3150  137.7320 C   0  0  0  0  0  2  0  0  0  0  0  0
  187.8250  178.1600  139.2350 C   0  0  0  0  0  2  0  0  0  0  0  0
  189.0060  177.4400  138.6020 C   0  0  1  0  0  3  0  0  0  0  0  0
  185.4770  178.2040  138.6330 N   0  0  0  0  0  0  0  0  0  0  0  0
  187.0020  176.6580  137.4440 C   0  0  0  0  0  2  0  0  0  0  0  0
  186.6630  177.7050  138.4420 C   0  0  0  0  0  0  0  0  0  0  0  0
  184.2410  177.6240  136.6770 N   0  0  0  0  0  2  0  0  0  0  0  0
  184.2620  177.8580  137.9480 C   0  0  0  0  0  0  0  0  0  0  0  0
  183.0260  177.6290  138.7450 C   0  0  0  0  0  2  0  0  0  0  0  0
  182.8710  176.1430  139.0420 C   0  0  0  0  0  2  0  0  0  0  0  0
  181.6940  175.5290  138.2910 C   0  0  1  0  0  3  0  0  0  0  0  0
  181.0900  176.4800  137.4650 O   0  0  0  0  0  1  0  0  0  0  0  0
  182.2050  174.0940  137.3200 S   0  0  1  0  0  0  0  0  0  0  0  0
  182.0730  174.5730  135.8810 O   0  0  0  0  0  0  0  0  0  0  0  0
  183.9860  174.0300  137.5670 C   0  0  0  0  0  1  0  0  0  0  0  0
  192.0860  176.9780  142.6570 O   0  0  0  0  0  1  0  0  0  0  0  0
  191.1260  178.8620  143.8150 C   0  0  0  0  0  2  0  0  0  0  0  0
  190.7030  177.6230  144.5970 C   0  0  2  0  0  3  0  0  0  0  0  0
  190.8940  177.5630  143.0870 C   0  0  1  0  0  0  0  0  0  0  0  0
  189.2390  177.7580  144.9980 C   0  0  0  0  0  2  0  0  0  0  0  0
  189.0820  177.5450  146.4930 C   0  0  0  0  0  2  0  0  0  0  0  0
  187.6130  177.5770  146.8780 C   0  0  0  0  0  2  0  0  0  0  0  0
  184.7380  178.6540  144.5630 N   0  0  0  0  0  0  0  0  0  0  0  0
  183.4210  179.2870  144.6950 C   0  0  0  0  0  2  0  0  0  0  0  0
  185.1040  178.9070  146.8600 O   0  0  0  0  0  0  0  0  0  0  0  0
  186.7940  177.8050  145.6970 N   0  0  0  0  0  2  0  0  0  0  0  0
  186.4850  178.2200  143.0430 O   0  0  0  0  0  0  0  0  0  0  0  0
  182.4490  178.7840  143.6330 C   0  0  0  0  0  2  0  0  0  0  0  0
  183.0530  179.0130  142.2570 C   0  0  0  0  0  2  0  0  0  0  0  0
  184.3060  178.1630  142.0930 C   0  0  0  0  0  2  0  0  0  0  0  0
  185.5320  178.4790  145.7530 C   0  0  0  0  0  0  0  0  0  0  0  0
  185.2490  178.3590  143.2440 C   0  0  0  0  0  0  0  0  0  0  0  0
  191.0270  176.0370  139.2470 N   0  0  0  0  0  2  0  0  0  0  0  0
  191.8550  176.2860  138.1410 N   0  0  0  0  0  2  0  0  0  0  0  0
  193.5340  173.0880  135.8850 C   0  0  0  0  0  0  0  0  0  0  0  0
  194.6430  175.4700  138.4810 N   0  0  0  0  0  1  0  0  0  0  0  0
  193.8510  175.1570  137.3040 C   0  0  2  0  0  3  0  0  0  0  0  0
  191.5940  174.5480  136.4560 C   0  0  0  0  0  2  0  0  0  0  0  0
  192.3780  175.0070  137.6820 C   0  0  2  0  0  3  0  0  0  0  0  0
  194.0630  172.0750  135.2840 N   0  0  0  0  0  2  0  0  0  0  0  0
  192.0440  173.1560  136.0260 C   0  0  0  0  0  2  0  0  0  0  0  0
  194.3620  173.9340  136.6890 N   0  0  0  0  0  2  0  0  0  0  0  0
  1 22  1  0  0  0  0
  2  1  2  0  0  0  0
  3  2  2  0  0  0  0
  4  6  1  0  0  0  0
  6  5  1  0  0  0  0
  6  3  1  1  0  0  0
  8  4  1  0  0  0  0
  8  9  1  0  0  0  0
  9  7  2  0  0  0  0
  9  5  1  0  0  0  0
 10 11  2  0  0  0  0
 11  7  1  0  0  0  0
 11 12  1  0  0  0  0
 12 13  1  0  0  0  0
 14 15  1  6  0  0  0
 14 13  1  0  0  0  0
 16 18  1  1  0  0  0
 16 14  1  0  0  0  0
 17 16  2  0  0  0  0
 20 21  1  0  0  0  0
 21 23  1  6  0  0  0
 22 19  1  6  0  0  0
 22 20  1  0  0  0  0
 22 21  1  0  0  0  0
 23 24  1  0  0  0  0
 24 25  1  0  0  0  0
 26 27  1  0  0  0  0
 26 34  1  0  0  0  0
 29 34  1  0  0  0  0
 29 25  1  0  0  0  0
 30 35  2  0  0  0  0
 31 27  1  0  0  0  0
 32 31  1  0  0  0  0
 33 32  1  0  0  0  0
 33 35  1  0  0  0  0
 34 28  2  0  0  0  0
 35 26  1  0  0  0  0
 36  3  1  0  0  0  0
 37 36  1  0  0  0  0
 38 44  1  0  0  0  0
 38 45  1  0  0  0  0
 40 42  1  0  0  0  0
 40 39  1  1  0  0  0
 41 42  1  0  0  0  0
 42 37  1  6  0  0  0
 43 38  2  0  0  0  0
 44 41  1  0  0  0  0
 45 40  1  0  0  0  0
M  END
>  <MODEL>
6

>  <REMARK>
 VINA RESULT:      -7.9      3.011      7.395
  Name = 
  14 active torsions:
  status: ('A' for Active; 'I' for Inactive)
    1  A    between atoms: S_3  and  C_14
    2  A    between atoms: C_6  and  C_23
    3  A    between atoms: C_6  and  C_33
    4  A    between atoms: N_8  and  N_15
    5  A    between atoms: N_8  and  C_25
    6  A    between atoms: C_10  and  C_42
    7  A    between atoms: C_14  and  C_45
    8  A    between atoms: N_15  and  C_43
    9  A    between atoms: C_17  and  C_37
   10  A    between atoms: C_17  and  C_45
   11  A    between atoms: C_18  and  N_21
   12  A    between atoms: C_18  and  C_23
   13  A    between atoms: C_24  and  C_43
   14  A    between atoms: N_27  and  C_37
                            x       y       z     vdW  Elec       q    Type
                         _______ _______ _______ _____ _____    ______ ____

>  <TORSDO>
F 14

$$$$
=
 OpenBabel10222416483D

 45 48  0  0  1  0  0  0  0  0999 V2000
  186.1870  178.5760  140.4800 C   0  0  0  0  0  3  0  0  0  0  0  0
  186.5810  178.1810  139.3010 C   0  0  0  0  0  0  0  0  0  0  0  0
  186.9800  177.7810  138.1220 C   0  0  0  0  0  0  0  0  0  0  0  0
  189.0230  177.2390  136.7620 C   0  0  0  0  0  2  0  0  0  0  0  0
  189.0800  176.9290  139.2030 C   0  0  0  0  0  2  0  0  0  0  0  0
  188.1760  176.8820  137.9810 C   0  0  1  0  0  3  0  0  0  0  0  0
  191.4950  176.8500  139.4040 N   0  0  0  0  0  0  0  0  0  0  0  0
  190.4720  177.0090  137.1540 C   0  0  0  0  0  2  0  0  0  0  0  0
  190.4460  176.9250  138.6380 C   0  0  0  0  0  0  0  0  0  0  0  0
  193.8260  177.1270  139.8250 N   0  0  0  0  0  2  0  0  0  0  0  0
  192.8730  176.8420  139.0000 C   0  0  0  0  0  0  0  0  0  0  0  0
  193.2200  176.3620  137.6350 C   0  0  0  0  0  2  0  0  0  0  0  0
  193.5070  174.8660  137.6700 C   0  0  0  0  0  2  0  0  0  0  0  0
  194.9330  174.5460  137.2360 C   0  0  1  0  0  3  0  0  0  0  0  0
  195.5290  175.6620  136.6460 O   0  0  0  0  0  1  0  0  0  0  0  0
  195.9320  173.9670  138.6250 S   0  0  1  0  0  0  0  0  0  0  0  0
  195.4290  172.5490  138.8580 O   0  0  0  0  0  0  0  0  0  0  0  0
  197.5580  173.7090  137.8980 C   0  0  0  0  0  1  0  0  0  0  0  0
  184.2020  179.9320  139.8360 O   0  0  0  0  0  1  0  0  0  0  0  0
  183.8410  177.9070  141.0940 C   0  0  0  0  0  2  0  0  0  0  0  0
  184.1570  178.9920  142.1180 C   0  0  2  0  0  3  0  0  0  0  0  0
  184.7790  179.0290  140.7290 C   0  0  1  0  0  0  0  0  0  0  0  0
  185.1030  178.4290  143.1710 C   0  0  0  0  0  2  0  0  0  0  0  0
  184.8410  179.0810  144.5170 C   0  0  0  0  0  2  0  0  0  0  0  0
  185.6450  178.3880  145.6040 C   0  0  0  0  0  2  0  0  0  0  0  0
  189.2090  176.9920  145.2370 N   0  0  0  0  0  0  0  0  0  0  0  0
  190.3730  176.7550  146.0990 C   0  0  0  0  0  2  0  0  0  0  0  0
  187.9690  177.7080  147.0870 O   0  0  0  0  0  0  0  0  0  0  0  0
  186.8650  177.8300  145.0400 N   0  0  0  0  0  2  0  0  0  0  0  0
  188.2000  176.3600  143.2040 O   0  0  0  0  0  0  0  0  0  0  0  0
  191.6800  176.9190  145.3310 C   0  0  0  0  0  2  0  0  0  0  0  0
  191.6690  175.9950  144.1250 C   0  0  0  0  0  2  0  0  0  0  0  0
  190.5750  176.4210  143.1550 C   0  0  0  0  0  2  0  0  0  0  0  0
  188.0080  177.5120  145.8410 C   0  0  0  0  0  0  0  0  0  0  0  0
  189.2570  176.5700  143.8560 C   0  0  0  0  0  0  0  0  0  0  0  0
  186.2960  178.2570  136.9610 N   0  0  0  0  0  2  0  0  0  0  0  0
  185.4450  177.4320  136.2090 N   0  0  0  0  0  2  0  0  0  0  0  0
  182.0410  175.5770  137.9730 C   0  0  0  0  0  0  0  0  0  0  0  0
  185.4860  174.6270  137.0370 N   0  0  0  0  0  1  0  0  0  0  0  0
  184.2650  175.3740  136.7860 C   0  0  2  0  0  3  0  0  0  0  0  0
  183.1390  177.5830  136.9780 C   0  0  0  0  0  2  0  0  0  0  0  0
  184.4700  176.8510  137.1220 C   0  0  2  0  0  3  0  0  0  0  0  0
  181.0630  174.9960  138.5840 N   0  0  0  0  0  2  0  0  0  0  0  0
  182.1350  177.0720  138.0050 C   0  0  0  0  0  2  0  0  0  0  0  0
  183.1780  174.8030  137.5780 N   0  0  0  0  0  2  0  0  0  0  0  0
  1 22  1  0  0  0  0
  2  1  2  0  0  0  0
  3  2  2  0  0  0  0
  4  8  1  0  0  0  0
  4  6  1  0  0  0  0
  6  3  1  1  0  0  0
  6  5  1  0  0  0  0
  8  9  1  0  0  0  0
  9  5  1  0  0  0  0
  9  7  2  0  0  0  0
 11  7  1  0  0  0  0
 11 10  2  0  0  0  0
 12 13  1  0  0  0  0
 12 11  1  0  0  0  0
 14 15  1  1  0  0  0
 14 13  1  0  0  0  0
 14 16  1  0  0  0  0
 16 18  1  6  0  0  0
 16 17  2  0  0  0  0
 20 21  1  0  0  0  0
 21 23  1  1  0  0  0
 22 19  1  6  0  0  0
 22 20  1  0  0  0  0
 22 21  1  0  0  0  0
 23 24  1  0  0  0  0
 24 25  1  0  0  0  0
 26 34  1  0  0  0  0
 26 27  1  0  0  0  0
 29 25  1  0  0  0  0
 29 34  1  0  0  0  0
 30 35  2  0  0  0  0
 31 27  1  0  0  0  0
 32 31  1  0  0  0  0
 33 35  1  0  0  0  0
 33 32  1  0  0  0  0
 34 28  2  0  0  0  0
 35 26  1  0  0  0  0
 36  3  1  0  0  0  0
 37 36  1  0  0  0  0
 38 44  1  0  0  0  0
 38 43  2  0  0  0  0
 40 39  1  1  0  0  0
 40 42  1  0  0  0  0
 40 45  1  0  0  0  0
 41 42  1  0  0  0  0
 41 44  1  0  0  0  0
 42 37  1  6  0  0  0
 45 38  1  0  0  0  0
M  END
>  <MODEL>
7

>  <REMARK>
 VINA RESULT:      -7.8      2.697      7.751
  Name = 
  14 active torsions:
  status: ('A' for Active; 'I' for Inactive)
    1  A    between atoms: S_3  and  C_14
    2  A    between atoms: C_6  and  C_23
    3  A    between atoms: C_6  and  C_33
    4  A    between atoms: N_8  and  N_15
    5  A    between atoms: N_8  and  C_25
    6  A    between atoms: C_10  and  C_42
    7  A    between atoms: C_14  and  C_45
    8  A    between atoms: N_15  and  C_43
    9  A    between atoms: C_17  and  C_37
   10  A    between atoms: C_17  and  C_45
   11  A    between atoms: C_18  and  N_21
   12  A    between atoms: C_18  and  C_23
   13  A    between atoms: C_24  and  C_43
   14  A    between atoms: N_27  and  C_37
                            x       y       z     vdW  Elec       q    Type
                         _______ _______ _______ _____ _____    ______ ____

>  <TORSDO>
F 14

$$$$
=
 OpenBabel10222416483D

 45 48  0  0  1  0  0  0  0  0999 V2000
  189.6940  177.8690  142.2470 C   0  0  0  0  0  3  0  0  0  0  0  0
  189.8370  177.7640  140.9540 C   0  0  0  0  0  0  0  0  0  0  0  0
  189.9750  177.6610  139.6580 C   0  0  0  0  0  0  0  0  0  0  0  0
  189.4180  178.2390  137.2760 C   0  0  0  0  0  2  0  0  0  0  0  0
  187.6220  177.5110  138.7930 C   0  0  0  0  0  2  0  0  0  0  0  0
  188.9500  178.2490  138.7290 C   0  0  1  0  0  3  0  0  0  0  0  0
  186.0170  176.9620  137.0610 N   0  0  0  0  0  0  0  0  0  0  0  0
  188.1920  177.9620  136.4240 C   0  0  0  0  0  2  0  0  0  0  0  0
  187.1840  177.4400  137.3840 C   0  0  0  0  0  0  0  0  0  0  0  0
  185.8680  177.5550  134.7550 N   0  0  0  0  0  2  0  0  0  0  0  0
  185.4630  176.8270  135.7430 C   0  0  0  0  0  0  0  0  0  0  0  0
  184.4950  175.7270  135.4780 C   0  0  0  0  0  2  0  0  0  0  0  0
  184.2520  174.9340  136.7560 C   0  0  0  0  0  2  0  0  0  0  0  0
  184.8400  173.5290  136.6790 C   0  0  1  0  0  3  0  0  0  0  0  0
  185.1280  173.0470  137.9570 O   0  0  0  0  0  1  0  0  0  0  0  0
  183.7270  172.3940  135.8200 S   0  0  1  0  0  0  0  0  0  0  0  0
  184.2950  171.0210  136.1520 O   0  0  0  0  0  0  0  0  0  0  0  0
  182.2190  172.4590  136.8000 C   0  0  0  0  0  1  0  0  0  0  0  0
  192.0470  177.1970  142.7040 O   0  0  0  0  0  1  0  0  0  0  0  0
  191.1130  179.0180  143.9770 C   0  0  0  0  0  2  0  0  0  0  0  0
  190.6870  177.7400  144.6910 C   0  0  2  0  0  3  0  0  0  0  0  0
  190.8640  177.7650  143.1780 C   0  0  1  0  0  0  0  0  0  0  0  0
  189.2290  177.8620  145.1130 C   0  0  0  0  0  2  0  0  0  0  0  0
  189.0730  177.4920  146.5770 C   0  0  0  0  0  2  0  0  0  0  0  0
  187.6150  177.5880  146.9930 C   0  0  0  0  0  2  0  0  0  0  0  0
  184.7240  178.6690  144.6980 N   0  0  0  0  0  0  0  0  0  0  0  0
  183.4330  179.3520  144.8330 C   0  0  0  0  0  2  0  0  0  0  0  0
  185.1520  179.0020  146.9740 O   0  0  0  0  0  0  0  0  0  0  0  0
  186.7770  177.7970  145.8210 N   0  0  0  0  0  2  0  0  0  0  0  0
  186.4200  178.1140  143.1590 O   0  0  0  0  0  0  0  0  0  0  0  0
  182.4200  178.8400  143.8130 C   0  0  0  0  0  2  0  0  0  0  0  0
  183.0000  178.9930  142.4170 C   0  0  0  0  0  2  0  0  0  0  0  0
  184.2200  178.0940  142.2610 C   0  0  0  0  0  2  0  0  0  0  0  0
  185.5400  178.5150  145.8770 C   0  0  0  0  0  0  0  0  0  0  0  0
  185.1950  178.3050  143.3820 C   0  0  0  0  0  0  0  0  0  0  0  0
  191.0870  176.9320  139.1350 N   0  0  0  0  0  2  0  0  0  0  0  0
  190.9520  175.6270  138.6370 N   0  0  0  0  0  2  0  0  0  0  0  0
  194.0310  174.8670  135.7940 C   0  0  0  0  0  0  0  0  0  0  0  0
  190.7930  173.3810  136.7700 N   0  0  0  0  0  1  0  0  0  0  0  0
  192.0340  174.0540  137.1150 C   0  0  2  0  0  3  0  0  0  0  0  0
  193.0980  176.2340  137.6610 C   0  0  0  0  0  2  0  0  0  0  0  0
  191.7670  175.5250  137.4340 C   0  0  2  0  0  3  0  0  0  0  0  0
  194.8980  174.6460  134.8630 N   0  0  0  0  0  2  0  0  0  0  0  0
  193.9230  176.2430  136.3780 C   0  0  0  0  0  2  0  0  0  0  0  0
  192.9790  173.9210  136.0100 N   0  0  0  0  0  2  0  0  0  0  0  0
  1 22  1  0  0  0  0
  2  1  2  0  0  0  0
  3  2  2  0  0  0  0
  4  6  1  0  0  0  0
  6  5  1  0  0  0  0
  6  3  1  1  0  0  0
  7  9  2  0  0  0  0
  8  4  1  0  0  0  0
  8  9  1  0  0  0  0
  9  5  1  0  0  0  0
 10 11  2  0  0  0  0
 11  7  1  0  0  0  0
 12 11  1  0  0  0  0
 12 13  1  0  0  0  0
 14 13  1  0  0  0  0
 14 15  1  1  0  0  0
 16 17  2  0  0  0  0
 16 14  1  0  0  0  0
 16 18  1  1  0  0  0
 20 21  1  0  0  0  0
 21 23  1  6  0  0  0
 22 19  1  6  0  0  0
 22 20  1  0  0  0  0
 22 21  1  0  0  0  0
 23 24  1  0  0  0  0
 24 25  1  0  0  0  0
 26 27  1  0  0  0  0
 26 34  1  0  0  0  0
 29 34  1  0  0  0  0
 29 25  1  0  0  0  0
 30 35  2  0  0  0  0
 31 27  1  0  0  0  0
 32 31  1  0  0  0  0
 33 32  1  0  0  0  0
 33 35  1  0  0  0  0
 34 28  2  0  0  0  0
 35 26  1  0  0  0  0
 36  3  1  0  0  0  0
 37 36  1  0  0  0  0
 38 45  1  0  0  0  0
 38 44  1  0  0  0  0
 40 39  1  6  0  0  0
 40 42  1  0  0  0  0
 42 41  1  0  0  0  0
 42 37  1  1  0  0  0
 43 38  2  0  0  0  0
 44 41  1  0  0  0  0
 45 40  1  0  0  0  0
M  END
>  <MODEL>
8

>  <REMARK>
 VINA RESULT:      -7.7      3.129      7.069
  Name = 
  14 active torsions:
  status: ('A' for Active; 'I' for Inactive)
    1  A    between atoms: S_3  and  C_14
    2  A    between atoms: C_6  and  C_23
    3  A    between atoms: C_6  and  C_33
    4  A    between atoms: N_8  and  N_15
    5  A    between atoms: N_8  and  C_25
    6  A    between atoms: C_10  and  C_42
    7  A    between atoms: C_14  and  C_45
    8  A    between atoms: N_15  and  C_43
    9  A    between atoms: C_17  and  C_37
   10  A    between atoms: C_17  and  C_45
   11  A    between atoms: C_18  and  N_21
   12  A    between atoms: C_18  and  C_23
   13  A    between atoms: C_24  and  C_43
   14  A    between atoms: N_27  and  C_37
                            x       y       z     vdW  Elec       q    Type
                         _______ _______ _______ _____ _____    ______ ____

>  <TORSDO>
F 14

$$$$
=
 OpenBabel10222416483D

 45 48  0  0  1  0  0  0  0  0999 V2000
  185.5930  178.4390  142.9280 C   0  0  0  0  0  3  0  0  0  0  0  0
  186.8660  178.2000  142.7660 C   0  0  0  0  0  0  0  0  0  0  0  0
  188.1400  177.9620  142.5980 C   0  0  0  0  0  0  0  0  0  0  0  0
  189.8160  177.1120  140.9280 C   0  0  0  0  0  2  0  0  0  0  0  0
  187.7860  178.2510  140.1290 C   0  0  0  0  0  2  0  0  0  0  0  0
  188.7950  178.1960  141.2650 C   0  0  1  0  0  3  0  0  0  0  0  0
  187.9080  177.4410  137.8470 N   0  0  0  0  0  0  0  0  0  0  0  0
  189.7280  176.8800  139.4310 C   0  0  0  0  0  2  0  0  0  0  0  0
  188.4420  177.5080  139.0320 C   0  0  0  0  0  0  0  0  0  0  0  0
  187.7880  175.7730  136.1450 N   0  0  0  0  0  2  0  0  0  0  0  0
  188.4240  176.7550  136.6950 C   0  0  0  0  0  0  0  0  0  0  0  0
  189.6530  177.2770  136.0370 C   0  0  0  0  0  2  0  0  0  0  0  0
  190.2860  176.1840  135.1840 C   0  0  0  0  0  2  0  0  0  0  0  0
  191.5560  175.6260  135.8190 C   0  0  1  0  0  3  0  0  0  0  0  0
  191.9310  176.3950  136.9220 O   0  0  0  0  0  1  0  0  0  0  0  0
  191.3470  173.8980  136.3040 S   0  0  1  0  0  0  0  0  0  0  0  0
  190.5000  173.9840  137.5660 O   0  0  0  0  0  0  0  0  0  0  0  0
  190.1940  173.2530  135.0820 C   0  0  0  0  0  1  0  0  0  0  0  0
  185.6380  178.1570  145.4000 O   0  0  0  0  0  1  0  0  0  0  0  0
  184.6140  180.1440  144.4970 C   0  0  0  0  0  2  0  0  0  0  0  0
  183.5400  179.0630  144.4680 C   0  0  2  0  0  3  0  0  0  0  0  0
  185.0090  178.7050  144.2830 C   0  0  1  0  0  0  0  0  0  0  0  0
  182.7840  179.1410  143.1480 C   0  0  0  0  0  2  0  0  0  0  0  0
  181.2870  179.0760  143.3940 C   0  0  0  0  0  2  0  0  0  0  0  0
  180.5300  179.2220  142.0850 C   0  0  0  0  0  2  0  0  0  0  0  0
  180.6100  176.0700  139.8840 N   0  0  0  0  0  0  0  0  0  0  0  0
  181.3350  175.5950  138.7000 C   0  0  0  0  0  2  0  0  0  0  0  0
  181.8930  178.0270  139.8990 O   0  0  0  0  0  0  0  0  0  0  0  0
  180.2360  177.9090  141.5320 N   0  0  0  0  0  2  0  0  0  0  0  0
  179.3660  175.3590  141.7530 O   0  0  0  0  0  0  0  0  0  0  0  0
  180.4700  174.6740  137.8460 C   0  0  0  0  0  2  0  0  0  0  0  0
  179.9690  173.5250  138.7040 C   0  0  0  0  0  2  0  0  0  0  0  0
  179.0440  174.0550  139.7920 C   0  0  0  0  0  2  0  0  0  0  0  0
  180.9570  177.3620  140.4220 C   0  0  0  0  0  0  0  0  0  0  0  0
  179.6850  175.1820  140.5470 C   0  0  0  0  0  0  0  0  0  0  0  0
  188.8930  177.4230  143.6860 N   0  0  0  0  0  2  0  0  0  0  0  0
  188.5700  177.6990  145.0240 N   0  0  0  0  0  2  0  0  0  0  0  0
  191.8620  176.4200  147.4030 C   0  0  0  0  0  0  0  0  0  0  0  0
  188.4370  177.6920  147.9450 N   0  0  0  0  0  1  0  0  0  0  0  0
  189.6830  177.6850  147.1970 C   0  0  2  0  0  3  0  0  0  0  0  0
  190.8460  176.8470  145.1650 C   0  0  0  0  0  2  0  0  0  0  0  0
  189.4950  176.9550  145.8670 C   0  0  2  0  0  3  0  0  0  0  0  0
  192.8020  175.9650  148.1620 N   0  0  0  0  0  2  0  0  0  0  0  0
  191.7980  175.9720  145.9740 C   0  0  0  0  0  2  0  0  0  0  0  0
  190.7250  177.0520  148.0000 N   0  0  0  0  0  2  0  0  0  0  0  0
  1 22  1  0  0  0  0
  2  1  2  0  0  0  0
  3  2  2  0  0  0  0
  3 36  1  0  0  0  0
  4  6  1  0  0  0  0
  5  6  1  0  0  0  0
  6  3  1  1  0  0  0
  7  9  2  0  0  0  0
  8  4  1  0  0  0  0
  9  8  1  0  0  0  0
  9  5  1  0  0  0  0
 10 11  2  0  0  0  0
 11  7  1  0  0  0  0
 12 11  1  0  0  0  0
 13 14  1  0  0  0  0
 13 12  1  0  0  0  0
 14 16  1  0  0  0  0
 14 15  1  1  0  0  0
 16 18  1  6  0  0  0
 16 17  2  0  0  0  0
 21 23  1  6  0  0  0
 21 20  1  0  0  0  0
 22 21  1  0  0  0  0
 22 20  1  0  0  0  0
 22 19  1  1  0  0  0
 23 24  1  0  0  0  0
 25 24  1  0  0  0  0
 26 34  1  0  0  0  0
 26 35  1  0  0  0  0
 27 26  1  0  0  0  0
 28 34  2  0  0  0  0
 29 25  1  0  0  0  0
 31 27  1  0  0  0  0
 31 32  1  0  0  0  0
 32 33  1  0  0  0  0
 33 35  1  0  0  0  0
 34 29  1  0  0  0  0
 35 30  2  0  0  0  0
 36 37  1  0  0  0  0
 38 45  1  0  0  0  0
 38 43  2  0  0  0  0
 40 39  1  1  0  0  0
 40 45  1  0  0  0  0
 41 42  1  0  0  0  0
 41 44  1  0  0  0  0
 42 37  1  6  0  0  0
 42 40  1  0  0  0  0
 44 38  1  0  0  0  0
M  END
>  <MODEL>
9

>  <REMARK>
 VINA RESULT:      -7.6      1.398      2.190
  Name = 
  14 active torsions:
  status: ('A' for Active; 'I' for Inactive)
    1  A    between atoms: S_3  and  C_14
    2  A    between atoms: C_6  and  C_23
    3  A    between atoms: C_6  and  C_33
    4  A    between atoms: N_8  and  N_15
    5  A    between atoms: N_8  and  C_25
    6  A    between atoms: C_10  and  C_42
    7  A    between atoms: C_14  and  C_45
    8  A    between atoms: N_15  and  C_43
    9  A    between atoms: C_17  and  C_37
   10  A    between atoms: C_17  and  C_45
   11  A    between atoms: C_18  and  N_21
   12  A    between atoms: C_18  and  C_23
   13  A    between atoms: C_24  and  C_43
   14  A    between atoms: N_27  and  C_37
                            x       y       z     vdW  Elec       q    Type
                         _______ _______ _______ _____ _____    ______ ____

>  <TORSDO>
F 14

$$$$
