=
 OpenBabel10222416013D

 25 27  0  0  1  0  0  0  0  0999 V2000
  189.3890  175.2680  143.0680 O   0  0  0  0  0  1  0  0  0  0  0  0
  189.0380  176.6120  143.2180 C   0  0  1  0  0  0  0  0  0  0  0  0
  187.8570  176.6750  144.1330 C   0  0  0  0  0  0  0  0  0  0  0  0
  188.1980  177.2940  145.3910 C   0  0  0  0  0  0  0  0  0  0  0  0
  190.1370  177.3300  144.0570 C   0  0  2  0  0  3  0  0  0  0  0  0
  186.7210  176.1940  143.8690 O   0  0  0  0  0  0  0  0  0  0  0  0
  189.4840  177.6420  145.3740 C   0  0  0  0  0  0  0  0  0  0  0  0
  190.6890  178.6120  143.4400 C   0  0  0  0  0  1  0  0  0  0  0  0
  190.0180  177.7570  138.2560 C   0  0  0  0  0  0  0  0  0  0  0  0
  190.9220  176.2320  140.8710 C   0  0  0  0  0  1  0  0  0  0  0  0
  189.6760  177.0490  140.7560 C   0  0  0  0  0  0  0  0  0  0  0  0
  189.3770  177.6880  139.5510 C   0  0  0  0  0  0  0  0  0  0  0  0
  189.2420  178.6050  137.4130 N   0  0  0  0  0  0  0  0  0  0  0  0
  188.2350  179.0310  138.0720 N   0  0  0  0  0  0  0  0  0  0  0  0
  187.3960  178.7260  140.4340 C   0  0  0  0  0  3  0  0  0  0  0  0
  187.6550  178.0950  141.6620 C   0  0  0  0  0  3  0  0  0  0  0  0
  188.7760  177.2390  141.8460 C   0  0  0  0  0  0  0  0  0  0  0  0
  188.2830  178.4910  139.3920 C   0  0  0  0  0  0  0  0  0  0  0  0
  191.0810  177.1790  137.9050 O   0  0  0  0  0  0  0  0  0  0  0  0
  187.2680  177.4540  146.4300 O   0  0  0  0  0  0  0  0  0  0  0  0
  186.2890  178.4130  146.4520 C   0  0  0  0  0  0  0  0  0  0  0  0
  185.4620  179.2220  146.4740 N   0  0  0  0  0  0  0  0  0  0  0  0
  190.2490  178.2280  146.5180 C   0  0  0  0  0  2  0  0  0  0  0  0
  190.4920  177.1740  147.5800 C   0  0  0  0  0  2  0  0  0  0  0  0
  191.6940  176.3380  147.1970 C   0  0  0  0  0  1  0  0  0  0  0  0
  2  1  1  6  0  0  0
  2  5  1  0  0  0  0
  2  3  1  0  0  0  0
  3  4  1  0  0  0  0
  4 20  1  0  0  0  0
  5  8  1  6  0  0  0
  5  7  1  0  0  0  0
  6  3  2  0  0  0  0
  7  4  2  0  0  0  0
  7 23  1  0  0  0  0
  9 12  1  0  0  0  0
 11 10  1  0  0  0  0
 11 17  1  0  0  0  0
 12 11  2  0  0  0  0
 13 14  2  0  0  0  0
 13  9  1  0  0  0  0
 14 18  1  0  0  0  0
 15 16  1  0  0  0  0
 16 17  2  0  0  0  0
 17  2  1  0  0  0  0
 18 12  1  0  0  0  0
 18 15  2  0  0  0  0
 19  9  2  0  0  0  0
 20 21  1  0  0  0  0
 21 22  3  0  0  0  0
 23 24  1  0  0  0  0
 25 24  1  0  0  0  0
M  END
>  <MODEL>
1

>  <REMARK>
 VINA RESULT:      -6.3      0.000      0.000
  Name = 
  5 active torsions:
  status: ('A' for Active; 'I' for Inactive)
    1  A    between atoms: O_1  and  C_4
    2  A    between atoms: O_1  and  C_12
    3  A    between atoms: C_6  and  C_9
    4  A    between atoms: C_9  and  C_20
    5  A    between atoms: C_10  and  C_22
                            x       y       z     vdW  Elec       q    Type
                         _______ _______ _______ _____ _____    ______ ____

>  <TORSDO>
F 5

$$$$
=
 OpenBabel10222416013D

 25 27  0  0  1  0  0  0  0  0999 V2000
  187.8730  175.4270  142.9090 O   0  0  0  0  0  1  0  0  0  0  0  0
  188.7190  176.5370  142.9680 C   0  0  1  0  0  0  0  0  0  0  0  0
  189.9980  176.1720  142.2840 C   0  0  0  0  0  0  0  0  0  0  0  0
  190.1710  176.9150  141.0600 C   0  0  0  0  0  0  0  0  0  0  0  0
  188.1570  177.6490  142.0330 C   0  0  2  0  0  3  0  0  0  0  0  0
  190.7960  175.2830  142.6870 O   0  0  0  0  0  0  0  0  0  0  0  0
  189.1300  177.7310  140.8900 C   0  0  0  0  0  0  0  0  0  0  0  0
  188.0070  179.0240  142.6800 C   0  0  0  0  0  1  0  0  0  0  0  0
  187.2630  178.1740  147.6680 C   0  0  0  0  0  0  0  0  0  0  0  0
  186.3920  177.2860  144.7640 C   0  0  0  0  0  1  0  0  0  0  0  0
  187.8050  177.3190  145.2510 C   0  0  0  0  0  0  0  0  0  0  0  0
  188.0770  177.7370  146.5550 C   0  0  0  0  0  0  0  0  0  0  0  0
  188.1260  178.5050  148.7550 N   0  0  0  0  0  0  0  0  0  0  0  0
  189.3350  178.3100  148.3950 N   0  0  0  0  0  0  0  0  0  0  0  0
  190.4560  177.5360  146.2690 C   0  0  0  0  0  3  0  0  0  0  0  0
  190.2270  177.1030  144.9530 C   0  0  0  0  0  3  0  0  0  0  0  0
  188.9130  176.9700  144.4240 C   0  0  0  0  0  0  0  0  0  0  0  0
  189.3480  177.8400  147.0480 C   0  0  0  0  0  0  0  0  0  0  0  0
  186.0070  178.2610  147.7010 O   0  0  0  0  0  0  0  0  0  0  0  0
  191.2820  176.7410  140.2210 O   0  0  0  0  0  0  0  0  0  0  0  0
  191.2740  175.9970  139.0700 C   0  0  0  0  0  0  0  0  0  0  0  0
  191.2650  175.3720  138.0960 N   0  0  0  0  0  0  0  0  0  0  0  0
  188.8830  178.6030  139.7010 C   0  0  0  0  0  2  0  0  0  0  0  0
  188.1220  177.8360  138.6380 C   0  0  0  0  0  2  0  0  0  0  0  0
  188.6980  178.1540  137.2750 C   0  0  0  0  0  1  0  0  0  0  0  0
  2  1  1  6  0  0  0
  2 17  1  0  0  0  0
  3  6  2  0  0  0  0
  3  2  1  0  0  0  0
  4  3  1  0  0  0  0
  5  8  1  1  0  0  0
  5  2  1  0  0  0  0
  7  4  2  0  0  0  0
  7  5  1  0  0  0  0
  9 19  2  0  0  0  0
  9 13  1  0  0  0  0
 10 11  1  0  0  0  0
 11 12  1  0  0  0  0
 12 18  2  0  0  0  0
 12  9  1  0  0  0  0
 14 13  2  0  0  0  0
 15 18  1  0  0  0  0
 16 15  2  0  0  0  0
 17 16  1  0  0  0  0
 17 11  2  0  0  0  0
 18 14  1  0  0  0  0
 20  4  1  0  0  0  0
 21 20  1  0  0  0  0
 22 21  3  0  0  0  0
 23  7  1  0  0  0  0
 24 23  1  0  0  0  0
 25 24  1  0  0  0  0
M  END
>  <MODEL>
2

>  <REMARK>
 VINA RESULT:      -6.3      1.915      7.188
  Name = 
  5 active torsions:
  status: ('A' for Active; 'I' for Inactive)
    1  A    between atoms: O_1  and  C_4
    2  A    between atoms: O_1  and  C_12
    3  A    between atoms: C_6  and  C_9
    4  A    between atoms: C_9  and  C_20
    5  A    between atoms: C_10  and  C_22
                            x       y       z     vdW  Elec       q    Type
                         _______ _______ _______ _____ _____    ______ ____

>  <TORSDO>
F 5

$$$$
=
 OpenBabel10222416013D

 25 27  0  0  1  0  0  0  0  0999 V2000
  189.4140  179.7520  143.2110 O   0  0  0  0  0  1  0  0  0  0  0  0
  189.6800  178.3810  143.2660 C   0  0  1  0  0  0  0  0  0  0  0  0
  190.9510  178.1940  144.0320 C   0  0  0  0  0  0  0  0  0  0  0  0
  190.7110  177.5410  145.2960 C   0  0  0  0  0  0  0  0  0  0  0  0
  188.6350  177.7020  144.2000 C   0  0  2  0  0  3  0  0  0  0  0  0
  192.0810  178.6070  143.6560 O   0  0  0  0  0  0  0  0  0  0  0  0
  189.4090  177.2830  145.4180 C   0  0  0  0  0  0  0  0  0  0  0  0
  187.9220  176.4910  143.6020 C   0  0  0  0  0  1  0  0  0  0  0  0
  188.0280  177.4970  138.4310 C   0  0  0  0  0  0  0  0  0  0  0  0
  187.5360  178.9450  141.1950 C   0  0  0  0  0  1  0  0  0  0  0  0
  188.7170  178.0800  140.8910 C   0  0  0  0  0  0  0  0  0  0  0  0
  188.8290  177.4810  139.6350 C   0  0  0  0  0  0  0  0  0  0  0  0
  188.6490  176.6520  137.4640 N   0  0  0  0  0  0  0  0  0  0  0  0
  189.7090  176.1550  137.9730 N   0  0  0  0  0  0  0  0  0  0  0  0
  190.8530  176.3210  140.2180 C   0  0  0  0  0  3  0  0  0  0  0  0
  190.7820  176.9080  141.4920 C   0  0  0  0  0  3  0  0  0  0  0  0
  189.7360  177.8030  141.8490 C   0  0  0  0  0  0  0  0  0  0  0  0
  189.8550  176.6390  139.3070 C   0  0  0  0  0  0  0  0  0  0  0  0
  186.9580  178.1350  138.2400 O   0  0  0  0  0  0  0  0  0  0  0  0
  191.7390  177.2680  146.2120 O   0  0  0  0  0  0  0  0  0  0  0  0
  192.1240  176.0080  146.5890 C   0  0  0  0  0  0  0  0  0  0  0  0
  192.4510  174.9460  146.9120 N   0  0  0  0  0  0  0  0  0  0  0  0
  188.7390  176.6980  146.6200 C   0  0  0  0  0  2  0  0  0  0  0  0
  187.9690  177.7710  147.3650 C   0  0  0  0  0  2  0  0  0  0  0  0
  188.7710  178.2260  148.5650 C   0  0  0  0  0  1  0  0  0  0  0  0
  2  1  1  6  0  0  0
  2  3  1  0  0  0  0
  2  5  1  0  0  0  0
  3  4  1  0  0  0  0
  4  7  2  0  0  0  0
  4 20  1  0  0  0  0
  5  8  1  6  0  0  0
  5  7  1  0  0  0  0
  6  3  2  0  0  0  0
  7 23  1  0  0  0  0
  9 12  1  0  0  0  0
 11 10  1  0  0  0  0
 11 17  1  0  0  0  0
 12 11  2  0  0  0  0
 13 14  2  0  0  0  0
 13  9  1  0  0  0  0
 14 18  1  0  0  0  0
 15 16  1  0  0  0  0
 16 17  2  0  0  0  0
 17  2  1  0  0  0  0
 18 12  1  0  0  0  0
 18 15  2  0  0  0  0
 19  9  2  0  0  0  0
 20 21  1  0  0  0  0
 21 22  3  0  0  0  0
 23 24  1  0  0  0  0
 24 25  1  0  0  0  0
M  END
>  <MODEL>
3

>  <REMARK>
 VINA RESULT:      -6.3      2.687      3.677
  Name = 
  5 active torsions:
  status: ('A' for Active; 'I' for Inactive)
    1  A    between atoms: O_1  and  C_4
    2  A    between atoms: O_1  and  C_12
    3  A    between atoms: C_6  and  C_9
    4  A    between atoms: C_9  and  C_20
    5  A    between atoms: C_10  and  C_22
                            x       y       z     vdW  Elec       q    Type
                         _______ _______ _______ _____ _____    ______ ____

>  <TORSDO>
F 5

$$$$
=
 OpenBabel10222416013D

 25 27  0  0  1  0  0  0  0  0999 V2000
  190.4450  179.3720  142.6250 O   0  0  0  0  0  1  0  0  0  0  0  0
  189.6040  178.2660  142.4760 C   0  0  1  0  0  0  0  0  0  0  0  0
  188.6580  178.5610  141.3560 C   0  0  0  0  0  0  0  0  0  0  0  0
  188.9080  177.7100  140.2180 C   0  0  0  0  0  0  0  0  0  0  0  0
  190.4300  177.0780  141.8980 C   0  0  2  0  0  3  0  0  0  0  0  0
  187.7910  179.4770  141.3740 O   0  0  0  0  0  0  0  0  0  0  0  0
  189.9200  176.8890  140.4970 C   0  0  0  0  0  0  0  0  0  0  0  0
  190.3080  175.7670  142.6710 C   0  0  0  0  0  1  0  0  0  0  0  0
  189.2480  177.4350  147.5820 C   0  0  0  0  0  0  0  0  0  0  0  0
  191.0900  178.1520  145.1180 C   0  0  0  0  0  1  0  0  0  0  0  0
  189.6170  177.9130  145.0320 C   0  0  0  0  0  0  0  0  0  0  0  0
  188.9000  177.5940  146.1870 C   0  0  0  0  0  0  0  0  0  0  0  0
  188.0710  177.0710  148.3010 N   0  0  0  0  0  0  0  0  0  0  0  0
  187.0940  177.0010  147.4830 N   0  0  0  0  0  0  0  0  0  0  0  0
  186.8300  177.3250  144.9930 C   0  0  0  0  0  3  0  0  0  0  0  0
  187.5120  177.6490  143.8080 C   0  0  0  0  0  3  0  0  0  0  0  0
  188.8990  177.9640  143.8020 C   0  0  0  0  0  0  0  0  0  0  0  0
  187.5620  177.3140  146.1720 C   0  0  0  0  0  0  0  0  0  0  0  0
  190.3850  177.5840  148.1020 O   0  0  0  0  0  0  0  0  0  0  0  0
  188.1680  177.8020  139.0290 O   0  0  0  0  0  0  0  0  0  0  0  0
  188.4780  178.6370  137.9880 C   0  0  0  0  0  0  0  0  0  0  0  0
  188.7430  179.3410  137.1080 N   0  0  0  0  0  0  0  0  0  0  0  0
  190.5480  175.9160  139.5510 C   0  0  0  0  0  2  0  0  0  0  0  0
  191.5860  176.6140  138.6940 C   0  0  0  0  0  2  0  0  0  0  0  0
  191.3100  176.3290  137.2340 C   0  0  0  0  0  1  0  0  0  0  0  0
  2  1  1  1  0  0  0
  2 17  1  0  0  0  0
  3  6  2  0  0  0  0
  3  2  1  0  0  0  0
  4  7  2  0  0  0  0
  4  3  1  0  0  0  0
  5  2  1  0  0  0  0
  5  8  1  1  0  0  0
  7  5  1  0  0  0  0
  9 19  2  0  0  0  0
  9 13  1  0  0  0  0
 11 10  1  0  0  0  0
 11 12  1  0  0  0  0
 12  9  1  0  0  0  0
 14 13  2  0  0  0  0
 15 18  1  0  0  0  0
 16 15  2  0  0  0  0
 17 16  1  0  0  0  0
 17 11  2  0  0  0  0
 18 12  2  0  0  0  0
 18 14  1  0  0  0  0
 20  4  1  0  0  0  0
 21 20  1  0  0  0  0
 22 21  3  0  0  0  0
 23  7  1  0  0  0  0
 24 23  1  0  0  0  0
 25 24  1  0  0  0  0
M  END
>  <MODEL>
4

>  <REMARK>
 VINA RESULT:      -6.1      2.158      6.799
  Name = 
  5 active torsions:
  status: ('A' for Active; 'I' for Inactive)
    1  A    between atoms: O_1  and  C_4
    2  A    between atoms: O_1  and  C_12
    3  A    between atoms: C_6  and  C_9
    4  A    between atoms: C_9  and  C_20
    5  A    between atoms: C_10  and  C_22
                            x       y       z     vdW  Elec       q    Type
                         _______ _______ _______ _____ _____    ______ ____

>  <TORSDO>
F 5

$$$$
=
 OpenBabel10222416013D

 25 27  0  0  1  0  0  0  0  0999 V2000
  190.6610  175.4100  143.3110 O   0  0  0  0  0  1  0  0  0  0  0  0
  189.8850  176.5670  143.2080 C   0  0  1  0  0  0  0  0  0  0  0  0
  188.5340  176.2610  143.7730 C   0  0  0  0  0  0  0  0  0  0  0  0
  188.2980  176.9900  144.9950 C   0  0  0  0  0  0  0  0  0  0  0  0
  190.4240  177.6280  144.2120 C   0  0  2  0  0  3  0  0  0  0  0  0
  187.7260  175.4260  143.2830 O   0  0  0  0  0  0  0  0  0  0  0  0
  189.3630  177.7430  145.2700 C   0  0  0  0  0  0  0  0  0  0  0  0
  190.7030  179.0050  143.6130 C   0  0  0  0  0  1  0  0  0  0  0  0
  187.7270  178.5090  138.9110 C   0  0  0  0  0  0  0  0  0  0  0  0
  187.3820  177.7330  141.9540 C   0  0  0  0  0  1  0  0  0  0  0  0
  188.6520  177.5810  141.1800 C   0  0  0  0  0  0  0  0  0  0  0  0
  188.6900  177.9500  139.8340 C   0  0  0  0  0  0  0  0  0  0  0  0
  188.3510  178.6440  137.6360 N   0  0  0  0  0  0  0  0  0  0  0  0
  189.5540  178.2270  137.7200 N   0  0  0  0  0  0  0  0  0  0  0  0
  190.9710  177.2390  139.5630 C   0  0  0  0  0  3  0  0  0  0  0  0
  190.9780  176.8610  140.9160 C   0  0  0  0  0  3  0  0  0  0  0  0
  189.8400  177.0370  141.7500 C   0  0  0  0  0  0  0  0  0  0  0  0
  189.8010  177.7890  139.0560 C   0  0  0  0  0  0  0  0  0  0  0  0
  186.5350  178.8300  139.1600 O   0  0  0  0  0  0  0  0  0  0  0  0
  187.1110  176.8630  145.7330 O   0  0  0  0  0  0  0  0  0  0  0  0
  186.1230  177.8110  145.7800 C   0  0  0  0  0  0  0  0  0  0  0  0
  185.2870  178.6100  145.8220 N   0  0  0  0  0  0  0  0  0  0  0  0
  189.5540  178.5780  146.4960 C   0  0  0  0  0  2  0  0  0  0  0  0
  189.5930  177.6960  147.7290 C   0  0  0  0  0  2  0  0  0  0  0  0
  188.4860  178.1040  148.6770 C   0  0  0  0  0  1  0  0  0  0  0  0
  2  1  1  1  0  0  0
  2  3  1  0  0  0  0
  2  5  1  0  0  0  0
  3  4  1  0  0  0  0
  4  7  2  0  0  0  0
  4 20  1  0  0  0  0
  5  8  1  6  0  0  0
  5  7  1  0  0  0  0
  6  3  2  0  0  0  0
  7 23  1  0  0  0  0
  9 19  2  0  0  0  0
  9 12  1  0  0  0  0
 11 17  1  0  0  0  0
 11 10  1  0  0  0  0
 12 11  2  0  0  0  0
 13 14  2  0  0  0  0
 13  9  1  0  0  0  0
 14 18  1  0  0  0  0
 15 16  1  0  0  0  0
 16 17  2  0  0  0  0
 17  2  1  0  0  0  0
 18 15  2  0  0  0  0
 18 12  1  0  0  0  0
 20 21  1  0  0  0  0
 21 22  3  0  0  0  0
 23 24  1  0  0  0  0
 24 25  1  0  0  0  0
M  END
>  <MODEL>
5

>  <REMARK>
 VINA RESULT:      -6.0      1.395      2.110
  Name = 
  5 active torsions:
  status: ('A' for Active; 'I' for Inactive)
    1  A    between atoms: O_1  and  C_4
    2  A    between atoms: O_1  and  C_12
    3  A    between atoms: C_6  and  C_9
    4  A    between atoms: C_9  and  C_20
    5  A    between atoms: C_10  and  C_22
                            x       y       z     vdW  Elec       q    Type
                         _______ _______ _______ _____ _____    ______ ____

>  <TORSDO>
F 5

$$$$
=
 OpenBabel10222416013D

 25 27  0  0  1  0  0  0  0  0999 V2000
  190.7870  179.5150  143.8520 O   0  0  0  0  0  1  0  0  0  0  0  0
  190.1770  178.2590  143.8080 C   0  0  1  0  0  0  0  0  0  0  0  0
  191.2140  177.2370  144.1490 C   0  0  0  0  0  0  0  0  0  0  0  0
  190.9370  176.6100  145.4190 C   0  0  0  0  0  0  0  0  0  0  0  0
  189.1920  178.1350  145.0080 C   0  0  2  0  0  3  0  0  0  0  0  0
  192.2350  176.9930  143.4510 O   0  0  0  0  0  0  0  0  0  0  0  0
  189.8180  177.1240  145.9280 C   0  0  0  0  0  0  0  0  0  0  0  0
  187.7780  177.6900  144.6420 C   0  0  0  0  0  1  0  0  0  0  0  0
  190.0750  177.2100  138.7310 C   0  0  0  0  0  0  0  0  0  0  0  0
  191.8010  177.5050  141.3610 C   0  0  0  0  0  1  0  0  0  0  0  0
  190.3180  177.6840  141.2970 C   0  0  0  0  0  0  0  0  0  0  0  0
  189.6570  177.5380  140.0760 C   0  0  0  0  0  0  0  0  0  0  0  0
  188.9290  177.2380  137.8830 N   0  0  0  0  0  0  0  0  0  0  0  0
  187.9060  177.5440  138.5820 N   0  0  0  0  0  0  0  0  0  0  0  0
  187.5170  178.1090  141.0120 C   0  0  0  0  0  3  0  0  0  0  0  0
  188.1420  178.2600  142.2610 C   0  0  0  0  0  3  0  0  0  0  0  0
  189.5360  178.0370  142.4350 C   0  0  0  0  0  0  0  0  0  0  0  0
  188.3120  177.7380  139.9370 C   0  0  0  0  0  0  0  0  0  0  0  0
  191.2440  176.9440  138.3440 O   0  0  0  0  0  0  0  0  0  0  0  0
  191.7730  175.6290  145.9760 O   0  0  0  0  0  0  0  0  0  0  0  0
  192.3820  175.7350  147.1980 C   0  0  0  0  0  0  0  0  0  0  0  0
  192.8940  175.8260  148.2320 N   0  0  0  0  0  0  0  0  0  0  0  0
  189.2390  176.8100  147.2710 C   0  0  0  0  0  2  0  0  0  0  0  0
  189.2320  178.0500  148.1420 C   0  0  0  0  0  2  0  0  0  0  0  0
  187.8920  178.1750  148.8330 C   0  0  0  0  0  1  0  0  0  0  0  0
  2  1  1  1  0  0  0
  2  3  1  0  0  0  0
  2  5  1  0  0  0  0
  3  4  1  0  0  0  0
  4  7  2  0  0  0  0
  4 20  1  0  0  0  0
  5  8  1  6  0  0  0
  5  7  1  0  0  0  0
  6  3  2  0  0  0  0
  7 23  1  0  0  0  0
  9 12  1  0  0  0  0
 11 10  1  0  0  0  0
 11 17  1  0  0  0  0
 12 11  2  0  0  0  0
 13 14  2  0  0  0  0
 13  9  1  0  0  0  0
 14 18  1  0  0  0  0
 15 16  1  0  0  0  0
 16 17  2  0  0  0  0
 17  2  1  0  0  0  0
 18 12  1  0  0  0  0
 18 15  2  0  0  0  0
 19  9  2  0  0  0  0
 20 21  1  0  0  0  0
 21 22  3  0  0  0  0
 23 24  1  0  0  0  0
 24 25  1  0  0  0  0
M  END
>  <MODEL>
6

>  <REMARK>
 VINA RESULT:      -5.6      2.547      3.277
  Name = 
  5 active torsions:
  status: ('A' for Active; 'I' for Inactive)
    1  A    between atoms: O_1  and  C_4
    2  A    between atoms: O_1  and  C_12
    3  A    between atoms: C_6  and  C_9
    4  A    between atoms: C_9  and  C_20
    5  A    between atoms: C_10  and  C_22
                            x       y       z     vdW  Elec       q    Type
                         _______ _______ _______ _____ _____    ______ ____

>  <TORSDO>
F 5

$$$$
=
 OpenBabel10222416013D

 25 27  0  0  1  0  0  0  0  0999 V2000
  185.2610  178.7790  139.3770 O   0  0  0  0  0  1  0  0  0  0  0  0
  183.9040  178.6100  139.6640 C   0  0  1  0  0  0  0  0  0  0  0  0
  183.1390  179.6030  138.8490 C   0  0  0  0  0  0  0  0  0  0  0  0
  182.3420  178.9520  137.8380 C   0  0  0  0  0  0  0  0  0  0  0  0
  183.4250  177.2570  139.0600 C   0  0  2  0  0  3  0  0  0  0  0  0
  183.2230  180.8550  138.9810 O   0  0  0  0  0  0  0  0  0  0  0  0
  182.5130  177.6330  137.9260 C   0  0  0  0  0  0  0  0  0  0  0  0
  182.6850  176.3400  140.0320 C   0  0  0  0  0  1  0  0  0  0  0  0
  185.1950  178.6820  144.6860 C   0  0  0  0  0  0  0  0  0  0  0  0
  186.1510  178.3840  141.6890 C   0  0  0  0  0  1  0  0  0  0  0  0
  184.7380  178.6420  142.1060 C   0  0  0  0  0  0  0  0  0  0  0  0
  184.4260  178.7480  143.4630 C   0  0  0  0  0  0  0  0  0  0  0  0
  184.3030  178.8380  145.7880 N   0  0  0  0  0  0  0  0  0  0  0  0
  183.1170  178.9820  145.3400 N   0  0  0  0  0  0  0  0  0  0  0  0
  182.0740  179.0180  143.0410 C   0  0  0  0  0  3  0  0  0  0  0  0
  182.3450  178.9230  141.6660 C   0  0  0  0  0  3  0  0  0  0  0  0
  183.6680  178.7520  141.1710 C   0  0  0  0  0  0  0  0  0  0  0  0
  183.1490  178.9310  143.9150 C   0  0  0  0  0  0  0  0  0  0  0  0
  186.4390  178.5160  144.7910 O   0  0  0  0  0  0  0  0  0  0  0  0
  181.5460  179.6640  136.9280 O   0  0  0  0  0  0  0  0  0  0  0  0
  180.2950  180.1480  137.2070 C   0  0  0  0  0  0  0  0  0  0  0  0
  179.2380  180.5540  137.4450 N   0  0  0  0  0  0  0  0  0  0  0  0
  181.9360  176.6090  137.0010 C   0  0  0  0  0  2  0  0  0  0  0  0
  183.0460  175.8180  136.3370 C   0  0  0  0  0  2  0  0  0  0  0  0
  182.8970  174.3520  136.6800 C   0  0  0  0  0  1  0  0  0  0  0  0
  2  1  1  6  0  0  0
  2 17  1  0  0  0  0
  3  6  2  0  0  0  0
  3  2  1  0  0  0  0
  4  7  2  0  0  0  0
  4  3  1  0  0  0  0
  5  2  1  0  0  0  0
  5  8  1  1  0  0  0
  7  5  1  0  0  0  0
  9 19  2  0  0  0  0
  9 13  1  0  0  0  0
 10 11  1  0  0  0  0
 11 12  1  0  0  0  0
 12 18  2  0  0  0  0
 12  9  1  0  0  0  0
 14 13  2  0  0  0  0
 15 18  1  0  0  0  0
 16 15  2  0  0  0  0
 17 16  1  0  0  0  0
 17 11  2  0  0  0  0
 18 14  1  0  0  0  0
 20 21  1  0  0  0  0
 20  4  1  0  0  0  0
 21 22  3  0  0  0  0
 23  7  1  0  0  0  0
 24 25  1  0  0  0  0
 24 23  1  0  0  0  0
M  END
>  <MODEL>
7

>  <REMARK>
 VINA RESULT:      -5.5      5.437      8.970
  Name = 
  5 active torsions:
  status: ('A' for Active; 'I' for Inactive)
    1  A    between atoms: O_1  and  C_4
    2  A    between atoms: O_1  and  C_12
    3  A    between atoms: C_6  and  C_9
    4  A    between atoms: C_9  and  C_20
    5  A    between atoms: C_10  and  C_22
                            x       y       z     vdW  Elec       q    Type
                         _______ _______ _______ _____ _____    ______ ____

>  <TORSDO>
F 5

$$$$
=
 OpenBabel10222416013D

 25 27  0  0  1  0  0  0  0  0999 V2000
  187.7410  175.6970  143.2220 O   0  0  0  0  0  1  0  0  0  0  0  0
  187.6410  177.0780  143.4040 C   0  0  1  0  0  0  0  0  0  0  0  0
  188.5360  177.7360  142.4020 C   0  0  0  0  0  0  0  0  0  0  0  0
  187.7750  178.4630  141.4160 C   0  0  0  0  0  0  0  0  0  0  0  0
  186.2310  177.5480  142.9380 C   0  0  2  0  0  3  0  0  0  0  0  0
  189.7910  177.6220  142.3800 O   0  0  0  0  0  0  0  0  0  0  0  0
  186.4760  178.3440  141.6870 C   0  0  0  0  0  0  0  0  0  0  0  0
  185.4660  178.4000  143.9480 C   0  0  0  0  0  1  0  0  0  0  0  0
  190.6120  177.3860  147.6430 C   0  0  0  0  0  0  0  0  0  0  0  0
  190.3700  176.5340  144.6110 C   0  0  0  0  0  1  0  0  0  0  0  0
  189.2740  177.1740  145.4000 C   0  0  0  0  0  0  0  0  0  0  0  0
  189.4880  177.5030  146.7400 C   0  0  0  0  0  0  0  0  0  0  0  0
  190.2150  177.8760  148.9220 N   0  0  0  0  0  0  0  0  0  0  0  0
  188.9980  178.2560  148.8580 N   0  0  0  0  0  0  0  0  0  0  0  0
  187.2380  178.2920  147.0490 C   0  0  0  0  0  3  0  0  0  0  0  0
  186.9810  177.9830  145.7030 C   0  0  0  0  0  3  0  0  0  0  0  0
  187.9850  177.4400  144.8530 C   0  0  0  0  0  0  0  0  0  0  0  0
  188.5140  178.0420  147.5330 C   0  0  0  0  0  0  0  0  0  0  0  0
  191.7560  176.9320  147.3750 O   0  0  0  0  0  0  0  0  0  0  0  0
  188.3800  179.1530  140.3530 O   0  0  0  0  0  0  0  0  0  0  0  0
  188.6550  178.6000  139.1290 C   0  0  0  0  0  0  0  0  0  0  0  0
  188.8870  178.1310  138.0970 N   0  0  0  0  0  0  0  0  0  0  0  0
  185.3520  178.8730  140.8530 C   0  0  0  0  0  2  0  0  0  0  0  0
  184.1910  177.8990  140.8610 C   0  0  0  0  0  2  0  0  0  0  0  0
  182.9200  178.6320  141.2350 C   0  0  0  0  0  1  0  0  0  0  0  0
  2  1  1  6  0  0  0
  2 17  1  0  0  0  0
  3  2  1  0  0  0  0
  4  7  2  0  0  0  0
  4  3  1  0  0  0  0
  5  2  1  0  0  0  0
  5  8  1  1  0  0  0
  6  3  2  0  0  0  0
  7  5  1  0  0  0  0
  9 13  1  0  0  0  0
 10 11  1  0  0  0  0
 11 12  1  0  0  0  0
 12 18  2  0  0  0  0
 12  9  1  0  0  0  0
 14 13  2  0  0  0  0
 15 18  1  0  0  0  0
 16 15  2  0  0  0  0
 17 11  2  0  0  0  0
 17 16  1  0  0  0  0
 18 14  1  0  0  0  0
 19  9  2  0  0  0  0
 20  4  1  0  0  0  0
 21 20  1  0  0  0  0
 22 21  3  0  0  0  0
 23 24  1  0  0  0  0
 23  7  1  0  0  0  0
 24 25  1  0  0  0  0
M  END
>  <MODEL>
8

>  <REMARK>
 VINA RESULT:      -5.5      2.502      6.946
  Name = 
  5 active torsions:
  status: ('A' for Active; 'I' for Inactive)
    1  A    between atoms: O_1  and  C_4
    2  A    between atoms: O_1  and  C_12
    3  A    between atoms: C_6  and  C_9
    4  A    between atoms: C_9  and  C_20
    5  A    between atoms: C_10  and  C_22
                            x       y       z     vdW  Elec       q    Type
                         _______ _______ _______ _____ _____    ______ ____

>  <TORSDO>
F 5

$$$$
=
 OpenBabel10222416013D

 25 27  0  0  1  0  0  0  0  0999 V2000
  184.5210  180.2550  139.1190 O   0  0  0  0  0  1  0  0  0  0  0  0
  184.6300  178.9260  139.5360 C   0  0  1  0  0  0  0  0  0  0  0  0
  186.0820  178.6280  139.7340 C   0  0  0  0  0  0  0  0  0  0  0  0
  186.3890  178.4120  141.1270 C   0  0  0  0  0  0  0  0  0  0  0  0
  184.0730  178.8050  140.9850 C   0  0  2  0  0  3  0  0  0  0  0  0
  186.9450  178.6260  138.8140 O   0  0  0  0  0  0  0  0  0  0  0  0
  185.2740  178.5360  141.8470 C   0  0  0  0  0  0  0  0  0  0  0  0
  183.0360  177.7020  141.1900 C   0  0  0  0  0  1  0  0  0  0  0  0
  180.9260  177.3780  136.2530 C   0  0  0  0  0  0  0  0  0  0  0  0
  181.9690  179.5970  138.2450 C   0  0  0  0  0  1  0  0  0  0  0  0
  182.7040  178.3360  137.9230 C   0  0  0  0  0  0  0  0  0  0  0  0
  182.1450  177.4190  137.0310 C   0  0  0  0  0  0  0  0  0  0  0  0
  180.8900  176.1450  135.5370 N   0  0  0  0  0  0  0  0  0  0  0  0
  181.9410  175.4760  135.8150 N   0  0  0  0  0  0  0  0  0  0  0  0
  183.9430  175.8470  137.3080 C   0  0  0  0  0  3  0  0  0  0  0  0
  184.5450  176.7450  138.2050 C   0  0  0  0  0  3  0  0  0  0  0  0
  183.9560  178.0020  138.5160 C   0  0  0  0  0  0  0  0  0  0  0  0
  182.7380  176.2240  136.7320 C   0  0  0  0  0  0  0  0  0  0  0  0
  180.0310  178.2620  136.1990 O   0  0  0  0  0  0  0  0  0  0  0  0
  187.6880  178.1360  141.5810 O   0  0  0  0  0  0  0  0  0  0  0  0
  188.0030  177.1390  142.4660 C   0  0  0  0  0  0  0  0  0  0  0  0
  188.2710  176.2990  143.2160 N   0  0  0  0  0  0  0  0  0  0  0  0
  185.1810  178.4770  143.3390 C   0  0  0  0  0  2  0  0  0  0  0  0
  184.2890  179.5910  143.8520 C   0  0  0  0  0  2  0  0  0  0  0  0
  183.1930  179.0030  144.7140 C   0  0  0  0  0  1  0  0  0  0  0  0
  2  1  1  6  0  0  0
  2  3  1  0  0  0  0
  2  5  1  0  0  0  0
  3  4  1  0  0  0  0
  4 20  1  0  0  0  0
  4  7  2  0  0  0  0
  5  8  1  6  0  0  0
  5  7  1  0  0  0  0
  6  3  2  0  0  0  0
  7 23  1  0  0  0  0
  9 12  1  0  0  0  0
 11 10  1  0  0  0  0
 11 17  1  0  0  0  0
 12 11  2  0  0  0  0
 13 14  2  0  0  0  0
 13  9  1  0  0  0  0
 14 18  1  0  0  0  0
 15 16  1  0  0  0  0
 16 17  2  0  0  0  0
 17  2  1  0  0  0  0
 18 12  1  0  0  0  0
 18 15  2  0  0  0  0
 19  9  2  0  0  0  0
 20 21  1  0  0  0  0
 21 22  3  0  0  0  0
 23 24  1  0  0  0  0
 24 25  1  0  0  0  0
M  END
>  <MODEL>
9

>  <REMARK>
 VINA RESULT:      -5.4      5.255      7.140
  Name = 
  5 active torsions:
  status: ('A' for Active; 'I' for Inactive)
    1  A    between atoms: O_1  and  C_4
    2  A    between atoms: O_1  and  C_12
    3  A    between atoms: C_6  and  C_9
    4  A    between atoms: C_9  and  C_20
    5  A    between atoms: C_10  and  C_22
                            x       y       z     vdW  Elec       q    Type
                         _______ _______ _______ _____ _____    ______ ____

>  <TORSDO>
F 5

$$$$
