=
 OpenBabel10222415583D

 36 39  0  0  1  0  0  0  0  0999 V2000
  189.4970  177.3360  136.7670 C   0  0  0  0  0  3  0  0  0  0  0  0
  188.3410  177.0740  137.6960 C   0  0  1  0  0  3  0  0  0  0  0  0
  190.8650  175.9250  138.2320 C   0  0  0  0  0  2  0  0  0  0  0  0
  188.7980  177.1810  139.1630 C   0  0  0  0  0  2  0  0  0  0  0  0
  190.6900  176.7890  137.0180 C   0  0  0  0  0  3  0  0  0  0  0  0
  190.1720  176.5420  139.4590 C   0  0  2  0  0  3  0  0  0  0  0  0
  187.1980  178.0540  137.4200 C   0  0  2  0  0  3  0  0  0  0  0  0
  187.7210  179.2610  136.8000 N   0  0  0  0  0  1  0  0  0  0  0  0
  186.5460  178.3980  138.6120 O   0  0  0  0  0  0  0  0  0  0  0  0
  185.1830  178.4660  138.2890 C   0  0  1  0  0  3  0  0  0  0  0  0
  184.7600  177.1880  137.5880 C   0  0  0  0  0  1  0  0  0  0  0  0
  184.3210  178.6710  139.5360 C   0  0  1  0  0  3  0  0  0  0  0  0
  185.0010  179.4920  140.5300 N   0  0  0  0  0  2  0  0  0  0  0  0
  185.1150  178.6870  141.7340 C   0  0  0  0  0  2  0  0  0  0  0  0
  183.5630  178.9430  143.6550 C   0  0  0  0  0  2  0  0  0  0  0  0
  185.1820  179.5090  145.3710 F   0  0  0  0  0  0  0  0  0  0  0  0
  185.4220  177.4600  144.1710 F   0  0  0  0  0  0  0  0  0  0  0  0
  184.9440  178.7590  144.2350 C   0  0  0  0  0  0  0  0  0  0  0  0
  184.7740  179.5380  142.9450 C   0  0  1  0  0  3  0  0  0  0  0  0
  182.9480  179.2430  139.2030 C   0  0  0  0  0  2  0  0  0  0  0  0
  182.1390  179.2960  140.3390 O   0  0  0  0  0  0  0  0  0  0  0  0
  180.9150  179.7780  139.8730 C   0  0  0  0  0  1  0  0  0  0  0  0
  191.0800  177.5350  140.1860 C   0  0  0  0  0  2  0  0  0  0  0  0
  191.3730  177.0970  141.4830 O   0  0  0  0  0  0  0  0  0  0  0  0
  190.2100  176.4640  141.9300 C   0  0  0  0  0  2  0  0  0  0  0  0
  187.6910  177.8780  147.5230 C   0  0  0  0  0  3  0  0  0  0  0  0
  187.8080  177.6540  146.1390 C   0  0  0  0  0  3  0  0  0  0  0  0
  188.9580  177.7660  148.2100 C   0  0  0  0  0  0  0  0  0  0  0  0
  191.4410  177.0990  144.0050 C   0  0  0  0  0  2  0  0  0  0  0  0
  191.4830  176.9060  145.5190 C   0  0  0  0  0  2  0  0  0  0  0  0
  190.1830  176.4500  143.4490 C   0  0  1  0  0  3  0  0  0  0  0  0
  188.9860  177.3390  145.4660 C   0  0  0  0  0  0  0  0  0  0  0  0
  190.1630  177.4820  147.5160 N   0  0  0  0  0  0  0  0  0  0  0  0
  190.1860  177.2870  146.1800 C   0  0  0  0  0  0  0  0  0  0  0  0
  188.2670  177.9360  148.9220 C   0  0  0  0  0  1  0  0  0  0  0  0
  188.9520  177.1860  143.9730 C   0  0  0  0  0  2  0  0  0  0  0  0
  1  5  2  0  0  0  0
  1  2  1  0  0  0  0
  2  7  1  6  0  0  0
  2  4  1  0  0  0  0
  3  6  1  0  0  0  0
  4  6  1  0  0  0  0
  5  3  1  0  0  0  0
  6 23  1  6  0  0  0
  7  8  1  1  0  0  0
  7  9  1  0  0  0  0
 10 11  1  1  0  0  0
 10  9  1  0  0  0  0
 10 12  1  0  0  0  0
 12 20  1  6  0  0  0
 12 13  1  0  0  0  0
 13 14  1  0  0  0  0
 15 18  1  0  0  0  0
 17 18  1  0  0  0  0
 18 16  1  0  0  0  0
 19 14  1  6  0  0  0
 19 15  1  0  0  0  0
 19 18  1  0  0  0  0
 20 21  1  0  0  0  0
 22 21  1  0  0  0  0
 23 24  1  0  0  0  0
 24 25  1  0  0  0  0
 26 28  1  0  0  0  0
 27 26  2  0  0  0  0
 28 35  1  0  0  0  0
 29 30  1  0  0  0  0
 30 34  1  0  0  0  0
 31 25  1  6  0  0  0
 31 36  1  0  0  0  0
 31 29  1  0  0  0  0
 32 27  1  0  0  0  0
 32 34  2  0  0  0  0
 33 28  2  0  0  0  0
 34 33  1  0  0  0  0
 36 32  1  0  0  0  0
M  END
>  <MODEL>
1

>  <REMARK>
 VINA RESULT:      -8.7      0.000      0.000
  Name = 
  13 active torsions:
  status: ('A' for Active; 'I' for Inactive)
    1  A    between atoms: O_1  and  C_21
    2  A    between atoms: O_2  and  C_12
    3  A    between atoms: O_2  and  C_25
    4  A    between atoms: C_6  and  C_12
    5  A    between atoms: C_7  and  C_17
    6  A    between atoms: C_7  and  O_22
    7  A    between atoms: C_9  and  O_22
    8  A    between atoms: C_9  and  C_35
    9  A    between atoms: N_13  and  C_20
   10  A    between atoms: N_13  and  C_33
   11  A    between atoms: C_20  and  C_36
   12  A    between atoms: C_21  and  C_33
   13  A    between atoms: C_25  and  C_33
                            x       y       z     vdW  Elec       q    Type
                         _______ _______ _______ _____ _____    ______ ____

>  <TORSDO>
F 13

$$$$
=
 OpenBabel10222415583D

 36 39  0  0  1  0  0  0  0  0999 V2000
  190.0590  176.3370  139.2740 C   0  0  0  0  0  3  0  0  0  0  0  0
  189.8990  177.6760  139.9440 C   0  0  1  0  0  3  0  0  0  0  0  0
  190.0490  177.5200  137.1270 C   0  0  0  0  0  2  0  0  0  0  0  0
  188.8570  178.5270  139.1960 C   0  0  0  0  0  2  0  0  0  0  0  0
  190.1350  176.2630  137.9430 C   0  0  0  0  0  3  0  0  0  0  0  0
  188.9460  178.4530  137.6570 C   0  0  2  0  0  3  0  0  0  0  0  0
  189.4920  177.4980  141.4090 C   0  0  2  0  0  3  0  0  0  0  0  0
  188.5220  178.5170  141.7790 N   0  0  0  0  0  1  0  0  0  0  0  0
  190.6100  177.6060  142.2470 O   0  0  0  0  0  0  0  0  0  0  0  0
  190.3040  176.8420  143.3820 C   0  0  1  0  0  3  0  0  0  0  0  0
  190.8290  175.4290  143.2050 C   0  0  0  0  0  1  0  0  0  0  0  0
  190.9070  177.4530  144.6490 C   0  0  1  0  0  3  0  0  0  0  0  0
  189.9080  178.1780  145.4240 N   0  0  0  0  0  2  0  0  0  0  0  0
  188.7750  177.2830  145.5920 C   0  0  0  0  0  2  0  0  0  0  0  0
  186.3040  177.1780  145.8050 C   0  0  0  0  0  2  0  0  0  0  0  0
  185.9260  179.3390  146.8420 F   0  0  0  0  0  0  0  0  0  0  0  0
  187.3800  177.7730  147.9050 F   0  0  0  0  0  0  0  0  0  0  0  0
  186.7750  178.2520  146.7550 C   0  0  0  0  0  0  0  0  0  0  0  0
  187.4850  178.0650  145.4270 C   0  0  1  0  0  3  0  0  0  0  0  0
  191.6190  176.4170  145.5090 C   0  0  0  0  0  2  0  0  0  0  0  0
  191.9970  176.9600  146.7380 O   0  0  0  0  0  0  0  0  0  0  0  0
  192.0700  175.8630  147.5960 C   0  0  0  0  0  1  0  0  0  0  0  0
  187.5810  178.1160  137.0560 C   0  0  0  0  0  2  0  0  0  0  0  0
  186.6680  177.7420  138.0490 O   0  0  0  0  0  0  0  0  0  0  0  0
  185.4320  178.2320  137.6170 C   0  0  0  0  0  2  0  0  0  0  0  0
  184.5040  179.4140  143.7300 C   0  0  0  0  0  3  0  0  0  0  0  0
  185.1540  179.2640  142.4910 C   0  0  0  0  0  3  0  0  0  0  0  0
  183.1130  179.0250  143.6750 C   0  0  0  0  0  0  0  0  0  0  0  0
  183.4840  177.5110  138.9990 C   0  0  0  0  0  2  0  0  0  0  0  0
  182.5130  177.9630  140.0880 C   0  0  0  0  0  2  0  0  0  0  0  0
  184.5640  178.5670  138.8190 C   0  0  1  0  0  3  0  0  0  0  0  0
  184.5610  178.8140  141.3140 C   0  0  0  0  0  0  0  0  0  0  0  0
  182.5210  178.5320  142.4830 N   0  0  0  0  0  0  0  0  0  0  0  0
  183.2220  178.4130  141.3350 C   0  0  0  0  0  0  0  0  0  0  0  0
  183.2710  179.3670  144.6090 C   0  0  0  0  0  1  0  0  0  0  0  0
  185.4100  178.6560  140.0860 C   0  0  0  0  0  2  0  0  0  0  0  0
  1  2  1  0  0  0  0
  2  7  1  1  0  0  0
  3  6  1  0  0  0  0
  3  5  1  0  0  0  0
  4  2  1  0  0  0  0
  5  1  2  0  0  0  0
  6 23  1  6  0  0  0
  6  4  1  0  0  0  0
  7  8  1  1  0  0  0
  7  9  1  0  0  0  0
  9 10  1  0  0  0  0
 10 11  1  6  0  0  0
 10 12  1  0  0  0  0
 12 13  1  0  0  0  0
 12 20  1  1  0  0  0
 13 14  1  0  0  0  0
 15 18  1  0  0  0  0
 18 16  1  0  0  0  0
 18 17  1  0  0  0  0
 19 14  1  1  0  0  0
 19 15  1  0  0  0  0
 19 18  1  0  0  0  0
 20 21  1  0  0  0  0
 21 22  1  0  0  0  0
 23 24  1  0  0  0  0
 25 24  1  0  0  0  0
 27 26  2  0  0  0  0
 28 26  1  0  0  0  0
 28 35  1  0  0  0  0
 29 30  1  0  0  0  0
 30 34  1  0  0  0  0
 31 25  1  6  0  0  0
 31 29  1  0  0  0  0
 31 36  1  0  0  0  0
 32 34  2  0  0  0  0
 32 27  1  0  0  0  0
 33 28  2  0  0  0  0
 34 33  1  0  0  0  0
 36 32  1  0  0  0  0
M  END
>  <MODEL>
2

>  <REMARK>
 VINA RESULT:      -8.5      1.909      6.772
  Name = 
  13 active torsions:
  status: ('A' for Active; 'I' for Inactive)
    1  A    between atoms: O_1  and  C_21
    2  A    between atoms: O_2  and  C_12
    3  A    between atoms: O_2  and  C_25
    4  A    between atoms: C_6  and  C_12
    5  A    between atoms: C_7  and  C_17
    6  A    between atoms: C_7  and  O_22
    7  A    between atoms: C_9  and  O_22
    8  A    between atoms: C_9  and  C_35
    9  A    between atoms: N_13  and  C_20
   10  A    between atoms: N_13  and  C_33
   11  A    between atoms: C_20  and  C_36
   12  A    between atoms: C_21  and  C_33
   13  A    between atoms: C_25  and  C_33
                            x       y       z     vdW  Elec       q    Type
                         _______ _______ _______ _____ _____    ______ ____

>  <TORSDO>
F 13

$$$$
=
 OpenBabel10222415583D

 36 39  0  0  1  0  0  0  0  0999 V2000
  183.9330  177.0370  137.8750 C   0  0  0  0  0  3  0  0  0  0  0  0
  184.8230  178.2510  137.9100 C   0  0  1  0  0  3  0  0  0  0  0  0
  182.3300  178.2940  139.2380 C   0  0  0  0  0  2  0  0  0  0  0  0
  184.8610  178.8470  139.3300 C   0  0  0  0  0  2  0  0  0  0  0  0
  182.7520  177.0580  138.4990 C   0  0  0  0  0  3  0  0  0  0  0  0
  183.4960  178.8820  140.0510 C   0  0  2  0  0  3  0  0  0  0  0  0
  186.2360  177.8950  137.4430 C   0  0  2  0  0  3  0  0  0  0  0  0
  186.3300  176.4640  137.1980 N   0  0  0  0  0  1  0  0  0  0  0  0
  187.1810  178.2560  138.4130 O   0  0  0  0  0  0  0  0  0  0  0  0
  188.4320  178.0130  137.8280 C   0  0  1  0  0  3  0  0  0  0  0  0
  189.0470  179.3240  137.3740 C   0  0  0  0  0  1  0  0  0  0  0  0
  189.3820  177.3180  138.8060 C   0  0  1  0  0  3  0  0  0  0  0  0
  188.7610  177.1180  140.1080 N   0  0  0  0  0  2  0  0  0  0  0  0
  189.5800  177.8240  141.0790 C   0  0  0  0  0  2  0  0  0  0  0  0
  192.0120  177.4800  141.4370 C   0  0  0  0  0  2  0  0  0  0  0  0
  191.9380  176.6290  143.7080 F   0  0  0  0  0  0  0  0  0  0  0  0
  190.9940  178.7680  143.2330 F   0  0  0  0  0  0  0  0  0  0  0  0
  191.3720  177.5070  142.8040 C   0  0  0  0  0  0  0  0  0  0  0  0
  190.6260  176.8790  141.6410 C   0  0  1  0  0  3  0  0  0  0  0  0
  189.9250  176.0060  138.2520 C   0  0  0  0  0  2  0  0  0  0  0  0
  190.8200  176.2350  137.2060 O   0  0  0  0  0  0  0  0  0  0  0  0
  192.0230  176.5490  137.8390 C   0  0  0  0  0  1  0  0  0  0  0  0
  183.6040  178.2400  141.4350 C   0  0  0  0  0  2  0  0  0  0  0  0
  184.4940  178.9470  142.2530 O   0  0  0  0  0  0  0  0  0  0  0  0
  183.9320  178.9010  143.5330 C   0  0  0  0  0  2  0  0  0  0  0  0
  189.4510  177.0170  145.9030 C   0  0  0  0  0  3  0  0  0  0  0  0
  188.4160  177.2600  144.9810 C   0  0  0  0  0  3  0  0  0  0  0  0
  189.0840  177.3810  147.2540 C   0  0  0  0  0  0  0  0  0  0  0  0
  184.4740  178.5260  145.9390 C   0  0  0  0  0  2  0  0  0  0  0  0
  185.5510  178.7250  147.0040 C   0  0  0  0  0  2  0  0  0  0  0  0
  185.0350  178.9110  144.5790 C   0  0  1  0  0  3  0  0  0  0  0  0
  187.1700  177.8030  145.2860 C   0  0  0  0  0  0  0  0  0  0  0  0
  187.8010  177.8990  147.5670 N   0  0  0  0  0  0  0  0  0  0  0  0
  186.8600  178.0940  146.6170 C   0  0  0  0  0  0  0  0  0  0  0  0
  190.0430  177.0770  147.2960 C   0  0  0  0  0  1  0  0  0  0  0  0
  186.1520  177.9440  144.1920 C   0  0  0  0  0  2  0  0  0  0  0  0
  1  2  1  0  0  0  0
  1  5  2  0  0  0  0
  2  7  1  1  0  0  0
  2  4  1  0  0  0  0
  3  6  1  0  0  0  0
  4  6  1  0  0  0  0
  5  3  1  0  0  0  0
  6 23  1  1  0  0  0
  7  8  1  1  0  0  0
  7  9  1  0  0  0  0
 10 11  1  1  0  0  0
 10  9  1  0  0  0  0
 10 12  1  0  0  0  0
 12 20  1  6  0  0  0
 12 13  1  0  0  0  0
 13 14  1  0  0  0  0
 15 19  1  0  0  0  0
 15 18  1  0  0  0  0
 18 17  1  0  0  0  0
 18 16  1  0  0  0  0
 19 14  1  6  0  0  0
 19 18  1  0  0  0  0
 21 22  1  0  0  0  0
 21 20  1  0  0  0  0
 23 24  1  0  0  0  0
 24 25  1  0  0  0  0
 26 28  1  0  0  0  0
 27 32  1  0  0  0  0
 27 26  2  0  0  0  0
 28 35  1  0  0  0  0
 28 33  2  0  0  0  0
 29 30  1  0  0  0  0
 31 25  1  6  0  0  0
 31 29  1  0  0  0  0
 32 34  2  0  0  0  0
 34 30  1  0  0  0  0
 34 33  1  0  0  0  0
 36 31  1  0  0  0  0
 36 32  1  0  0  0  0
M  END
>  <MODEL>
3

>  <REMARK>
 VINA RESULT:      -8.5      2.260      5.904
  Name = 
  13 active torsions:
  status: ('A' for Active; 'I' for Inactive)
    1  A    between atoms: O_1  and  C_21
    2  A    between atoms: O_2  and  C_12
    3  A    between atoms: O_2  and  C_25
    4  A    between atoms: C_6  and  C_12
    5  A    between atoms: C_7  and  C_17
    6  A    between atoms: C_7  and  O_22
    7  A    between atoms: C_9  and  O_22
    8  A    between atoms: C_9  and  C_35
    9  A    between atoms: N_13  and  C_20
   10  A    between atoms: N_13  and  C_33
   11  A    between atoms: C_20  and  C_36
   12  A    between atoms: C_21  and  C_33
   13  A    between atoms: C_25  and  C_33
                            x       y       z     vdW  Elec       q    Type
                         _______ _______ _______ _____ _____    ______ ____

>  <TORSDO>
F 13

$$$$
=
 OpenBabel10222415583D

 36 39  0  0  1  0  0  0  0  0999 V2000
  190.0060  178.9580  143.1140 C   0  0  0  0  0  3  0  0  0  0  0  0
  190.2580  177.6160  142.4790 C   0  0  1  0  0  3  0  0  0  0  0  0
  192.0450  178.6090  144.4290 C   0  0  0  0  0  2  0  0  0  0  0  0
  190.6800  176.5900  143.5470 C   0  0  0  0  0  2  0  0  0  0  0  0
  190.8530  179.4310  144.0320 C   0  0  0  0  0  3  0  0  0  0  0  0
  191.6670  177.1290  144.6060 C   0  0  2  0  0  3  0  0  0  0  0  0
  189.0120  177.1300  141.7360 C   0  0  2  0  0  3  0  0  0  0  0  0
  188.2760  176.1900  142.5670 N   0  0  0  0  0  1  0  0  0  0  0  0
  189.3680  176.4990  140.5370 O   0  0  0  0  0  0  0  0  0  0  0  0
  189.3750  177.5110  139.5660 C   0  0  1  0  0  3  0  0  0  0  0  0
  190.6370  177.4080  138.7300 C   0  0  0  0  0  1  0  0  0  0  0  0
  188.1510  177.4190  138.6530 C   0  0  1  0  0  3  0  0  0  0  0  0
  187.3550  178.6390  138.6970 N   0  0  0  0  0  2  0  0  0  0  0  0
  185.9880  178.2610  138.3830 C   0  0  0  0  0  2  0  0  0  0  0  0
  184.0010  179.4280  139.3080 C   0  0  0  0  0  2  0  0  0  0  0  0
  182.9900  177.5660  140.4890 F   0  0  0  0  0  0  0  0  0  0  0  0
  183.4000  177.3760  138.1460 F   0  0  0  0  0  0  0  0  0  0  0  0
  183.7030  177.9500  139.3700 C   0  0  0  0  0  0  0  0  0  0  0  0
  185.1190  178.4380  139.6150 C   0  0  1  0  0  3  0  0  0  0  0  0
  188.5240  177.0630  137.2190 C   0  0  0  0  0  2  0  0  0  0  0  0
  187.7350  176.0160  136.7400 O   0  0  0  0  0  0  0  0  0  0  0  0
  188.4580  174.8640  137.0500 C   0  0  0  0  0  1  0  0  0  0  0  0
  191.1520  176.8390  146.0160 C   0  0  0  0  0  2  0  0  0  0  0  0
  189.7840  176.5390  146.0040 O   0  0  0  0  0  0  0  0  0  0  0  0
  189.2170  177.3730  146.9730 C   0  0  0  0  0  2  0  0  0  0  0  0
  184.2700  178.6310  143.2880 C   0  0  0  0  0  3  0  0  0  0  0  0
  185.5750  178.2880  143.6860 C   0  0  0  0  0  3  0  0  0  0  0  0
  183.4270  178.9860  144.4080 C   0  0  0  0  0  0  0  0  0  0  0  0
  187.1390  178.5920  147.6260 C   0  0  0  0  0  2  0  0  0  0  0  0
  185.6200  178.6030  147.4730 C   0  0  0  0  0  2  0  0  0  0  0  0
  187.7290  177.5340  146.7060 C   0  0  1  0  0  3  0  0  0  0  0  0
  186.0420  178.2600  144.9980 C   0  0  0  0  0  0  0  0  0  0  0  0
  183.9160  178.9940  145.7400 N   0  0  0  0  0  0  0  0  0  0  0  0
  185.1900  178.6550  146.0330 C   0  0  0  0  0  0  0  0  0  0  0  0
  182.8400  179.0260  143.5910 C   0  0  0  0  0  1  0  0  0  0  0  0
  187.4840  177.9260  145.2500 C   0  0  0  0  0  2  0  0  0  0  0  0
  1  5  2  0  0  0  0
  2  7  1  1  0  0  0
  2  1  1  0  0  0  0
  2  4  1  0  0  0  0
  3  6  1  0  0  0  0
  4  6  1  0  0  0  0
  5  3  1  0  0  0  0
  6 23  1  1  0  0  0
  7  8  1  1  0  0  0
  9  7  1  0  0  0  0
 10 11  1  6  0  0  0
 10  9  1  0  0  0  0
 12 20  1  6  0  0  0
 12 13  1  0  0  0  0
 12 10  1  0  0  0  0
 14 13  1  0  0  0  0
 15 18  1  0  0  0  0
 15 19  1  0  0  0  0
 17 18  1  0  0  0  0
 18 19  1  0  0  0  0
 18 16  1  0  0  0  0
 19 14  1  6  0  0  0
 21 22  1  0  0  0  0
 21 20  1  0  0  0  0
 24 23  1  0  0  0  0
 24 25  1  0  0  0  0
 26 27  2  0  0  0  0
 26 28  1  0  0  0  0
 27 32  1  0  0  0  0
 28 33  2  0  0  0  0
 30 29  1  0  0  0  0
 31 25  1  6  0  0  0
 31 29  1  0  0  0  0
 32 36  1  0  0  0  0
 32 34  2  0  0  0  0
 33 34  1  0  0  0  0
 34 30  1  0  0  0  0
 35 28  1  0  0  0  0
 36 31  1  0  0  0  0
M  END
>  <MODEL>
4

>  <REMARK>
 VINA RESULT:      -8.4      2.461      5.592
  Name = 
  13 active torsions:
  status: ('A' for Active; 'I' for Inactive)
    1  A    between atoms: O_1  and  C_21
    2  A    between atoms: O_2  and  C_12
    3  A    between atoms: O_2  and  C_25
    4  A    between atoms: C_6  and  C_12
    5  A    between atoms: C_7  and  C_17
    6  A    between atoms: C_7  and  O_22
    7  A    between atoms: C_9  and  O_22
    8  A    between atoms: C_9  and  C_35
    9  A    between atoms: N_13  and  C_20
   10  A    between atoms: N_13  and  C_33
   11  A    between atoms: C_20  and  C_36
   12  A    between atoms: C_21  and  C_33
   13  A    between atoms: C_25  and  C_33
                            x       y       z     vdW  Elec       q    Type
                         _______ _______ _______ _____ _____    ______ ____

>  <TORSDO>
F 13

$$$$
=
 OpenBabel10222415583D

 36 39  0  0  1  0  0  0  0  0999 V2000
  190.2420  178.8460  143.1190 C   0  0  0  0  0  3  0  0  0  0  0  0
  190.5480  177.4750  142.5790 C   0  0  1  0  0  3  0  0  0  0  0  0
  192.1260  178.5510  144.6600 C   0  0  0  0  0  2  0  0  0  0  0  0
  190.8440  176.4980  143.7320 C   0  0  0  0  0  2  0  0  0  0  0  0
  190.9900  179.3580  144.1000 C   0  0  0  0  0  3  0  0  0  0  0  0
  191.7170  177.0820  144.8640 C   0  0  2  0  0  3  0  0  0  0  0  0
  189.3830  176.9600  141.7300 C   0  0  2  0  0  3  0  0  0  0  0  0
  188.6170  175.9810  142.4840 N   0  0  0  0  0  1  0  0  0  0  0  0
  189.8570  176.3610  140.5540 O   0  0  0  0  0  0  0  0  0  0  0  0
  189.0630  176.8800  139.5220 C   0  0  1  0  0  3  0  0  0  0  0  0
  189.0030  178.3920  139.6330 C   0  0  0  0  0  1  0  0  0  0  0  0
  189.6110  176.4930  138.1460 C   0  0  1  0  0  3  0  0  0  0  0  0
  189.6750  177.6420  137.2520 N   0  0  0  0  0  2  0  0  0  0  0  0
  188.7770  177.3650  136.1440 C   0  0  0  0  0  2  0  0  0  0  0  0
  186.4450  177.7090  135.3660 C   0  0  0  0  0  2  0  0  0  0  0  0
  185.4350  178.3410  137.4790 F   0  0  0  0  0  0  0  0  0  0  0  0
  186.5560  176.2420  137.3040 F   0  0  0  0  0  0  0  0  0  0  0  0
  186.3810  177.5440  136.8650 C   0  0  0  0  0  0  0  0  0  0  0  0
  187.5610  178.2680  136.2420 C   0  0  1  0  0  3  0  0  0  0  0  0
  190.9620  175.7950  138.2360 C   0  0  0  0  0  2  0  0  0  0  0  0
  191.9680  176.5720  137.6600 O   0  0  0  0  0  0  0  0  0  0  0  0
  192.8860  176.7730  138.6910 C   0  0  0  0  0  1  0  0  0  0  0  0
  191.0520  176.8610  146.2230 C   0  0  0  0  0  2  0  0  0  0  0  0
  189.6910  176.5620  146.0790 O   0  0  0  0  0  0  0  0  0  0  0  0
  189.0440  177.3070  147.0700 C   0  0  0  0  0  2  0  0  0  0  0  0
  184.3600  178.4950  143.0350 C   0  0  0  0  0  3  0  0  0  0  0  0
  185.6300  178.1440  143.5270 C   0  0  0  0  0  3  0  0  0  0  0  0
  183.4590  178.9180  144.0840 C   0  0  0  0  0  0  0  0  0  0  0  0
  186.9590  178.5950  147.5390 C   0  0  0  0  0  2  0  0  0  0  0  0
  185.4520  178.6300  147.2930 C   0  0  0  0  0  2  0  0  0  0  0  0
  187.5790  177.4850  146.7040 C   0  0  1  0  0  3  0  0  0  0  0  0
  186.0160  178.1670  144.8660 C   0  0  0  0  0  0  0  0  0  0  0  0
  183.8660  178.9760  145.4420 N   0  0  0  0  0  0  0  0  0  0  0  0
  185.1120  178.6260  145.8280 C   0  0  0  0  0  0  0  0  0  0  0  0
  182.9230  178.9320  143.2310 C   0  0  0  0  0  1  0  0  0  0  0  0
  187.4320  177.8160  145.2200 C   0  0  0  0  0  2  0  0  0  0  0  0
  1  5  2  0  0  0  0
  2  7  1  1  0  0  0
  2  1  1  0  0  0  0
  2  4  1  0  0  0  0
  3  6  1  0  0  0  0
  4  6  1  0  0  0  0
  5  3  1  0  0  0  0
  6 23  1  1  0  0  0
  7  8  1  1  0  0  0
  9  7  1  0  0  0  0
 10 11  1  6  0  0  0
 10  9  1  0  0  0  0
 12 20  1  1  0  0  0
 12 10  1  0  0  0  0
 13 12  1  0  0  0  0
 14 13  1  0  0  0  0
 15 19  1  0  0  0  0
 15 18  1  0  0  0  0
 18 17  1  0  0  0  0
 18 16  1  0  0  0  0
 19 14  1  6  0  0  0
 19 18  1  0  0  0  0
 21 20  1  0  0  0  0
 21 22  1  0  0  0  0
 24 23  1  0  0  0  0
 24 25  1  0  0  0  0
 26 27  2  0  0  0  0
 26 28  1  0  0  0  0
 27 32  1  0  0  0  0
 28 33  2  0  0  0  0
 30 29  1  0  0  0  0
 31 25  1  1  0  0  0
 31 29  1  0  0  0  0
 32 36  1  0  0  0  0
 32 34  2  0  0  0  0
 33 34  1  0  0  0  0
 34 30  1  0  0  0  0
 35 28  1  0  0  0  0
 36 31  1  0  0  0  0
M  END
>  <MODEL>
5

>  <REMARK>
 VINA RESULT:      -8.4      3.120      6.576
  Name = 
  13 active torsions:
  status: ('A' for Active; 'I' for Inactive)
    1  A    between atoms: O_1  and  C_21
    2  A    between atoms: O_2  and  C_12
    3  A    between atoms: O_2  and  C_25
    4  A    between atoms: C_6  and  C_12
    5  A    between atoms: C_7  and  C_17
    6  A    between atoms: C_7  and  O_22
    7  A    between atoms: C_9  and  O_22
    8  A    between atoms: C_9  and  C_35
    9  A    between atoms: N_13  and  C_20
   10  A    between atoms: N_13  and  C_33
   11  A    between atoms: C_20  and  C_36
   12  A    between atoms: C_21  and  C_33
   13  A    between atoms: C_25  and  C_33
                            x       y       z     vdW  Elec       q    Type
                         _______ _______ _______ _____ _____    ______ ____

>  <TORSDO>
F 13

$$$$
=
 OpenBabel10222415583D

 36 39  0  0  1  0  0  0  0  0999 V2000
  190.1870  178.8070  143.0960 C   0  0  0  0  0  3  0  0  0  0  0  0
  190.6290  177.4680  142.5660 C   0  0  1  0  0  3  0  0  0  0  0  0
  192.0270  178.6650  144.7100 C   0  0  0  0  0  2  0  0  0  0  0  0
  190.9610  176.5150  143.7300 C   0  0  0  0  0  2  0  0  0  0  0  0
  190.8500  179.3750  144.1060 C   0  0  0  0  0  3  0  0  0  0  0  0
  191.7360  177.1660  144.8960 C   0  0  2  0  0  3  0  0  0  0  0  0
  189.5460  176.8600  141.6710 C   0  0  2  0  0  3  0  0  0  0  0  0
  188.7080  175.9630  142.4500 N   0  0  0  0  0  1  0  0  0  0  0  0
  190.1260  176.1440  140.6150 O   0  0  0  0  0  0  0  0  0  0  0  0
  190.6700  177.1110  139.7580 C   0  0  1  0  0  3  0  0  0  0  0  0
  192.1360  177.3200  140.0890 C   0  0  0  0  0  1  0  0  0  0  0  0
  190.5340  176.6990  138.2910 C   0  0  1  0  0  3  0  0  0  0  0  0
  190.5160  175.2500  138.1390 N   0  0  0  0  0  2  0  0  0  0  0  0
  191.3320  174.9380  136.9780 C   0  0  0  0  0  2  0  0  0  0  0  0
  193.6230  174.2750  136.2910 C   0  0  0  0  0  2  0  0  0  0  0  0
  194.8100  174.8760  138.3200 F   0  0  0  0  0  0  0  0  0  0  0  0
  193.5500  176.5440  137.1690 F   0  0  0  0  0  0  0  0  0  0  0  0
  193.7760  175.2100  137.4660 C   0  0  0  0  0  0  0  0  0  0  0  0
  192.6060  174.2460  137.4260 C   0  0  1  0  0  3  0  0  0  0  0  0
  189.3200  177.3330  137.6220 C   0  0  0  0  0  2  0  0  0  0  0  0
  188.1760  177.1760  138.4060 O   0  0  0  0  0  0  0  0  0  0  0  0
  187.2460  178.0510  137.8450 C   0  0  0  0  0  1  0  0  0  0  0  0
  191.0380  176.8830  146.2270 C   0  0  0  0  0  2  0  0  0  0  0  0
  189.6750  176.6270  146.0400 O   0  0  0  0  0  0  0  0  0  0  0  0
  189.0230  177.3510  147.0440 C   0  0  0  0  0  2  0  0  0  0  0  0
  184.3180  178.5780  143.0450 C   0  0  0  0  0  3  0  0  0  0  0  0
  185.5940  178.2300  143.5270 C   0  0  0  0  0  3  0  0  0  0  0  0
  183.4150  178.9670  144.1050 C   0  0  0  0  0  0  0  0  0  0  0  0
  186.9250  178.6060  147.5450 C   0  0  0  0  0  2  0  0  0  0  0  0
  185.4180  178.6290  147.3030 C   0  0  0  0  0  2  0  0  0  0  0  0
  187.5560  177.5220  146.6850 C   0  0  1  0  0  3  0  0  0  0  0  0
  185.9820  178.2270  144.8650 C   0  0  0  0  0  0  0  0  0  0  0  0
  183.8240  178.9990  145.4630 N   0  0  0  0  0  0  0  0  0  0  0  0
  185.0740  178.6540  145.8390 C   0  0  0  0  0  0  0  0  0  0  0  0
  182.8770  178.9950  143.2540 C   0  0  0  0  0  1  0  0  0  0  0  0
  187.4020  177.8840  145.2090 C   0  0  0  0  0  2  0  0  0  0  0  0
  1  5  2  0  0  0  0
  2  7  1  1  0  0  0
  2  1  1  0  0  0  0
  2  4  1  0  0  0  0
  3  6  1  0  0  0  0
  4  6  1  0  0  0  0
  5  3  1  0  0  0  0
  6 23  1  1  0  0  0
  7  8  1  1  0  0  0
  9  7  1  0  0  0  0
 10 11  1  1  0  0  0
 10  9  1  0  0  0  0
 12 20  1  1  0  0  0
 12 10  1  0  0  0  0
 13 12  1  0  0  0  0
 14 13  1  0  0  0  0
 15 19  1  0  0  0  0
 15 18  1  0  0  0  0
 17 18  1  0  0  0  0
 18 16  1  0  0  0  0
 19 14  1  6  0  0  0
 19 18  1  0  0  0  0
 20 21  1  0  0  0  0
 22 21  1  0  0  0  0
 24 23  1  0  0  0  0
 24 25  1  0  0  0  0
 26 27  2  0  0  0  0
 26 28  1  0  0  0  0
 27 32  1  0  0  0  0
 28 33  2  0  0  0  0
 30 29  1  0  0  0  0
 31 25  1  1  0  0  0
 31 29  1  0  0  0  0
 32 36  1  0  0  0  0
 32 34  2  0  0  0  0
 33 34  1  0  0  0  0
 34 30  1  0  0  0  0
 35 28  1  0  0  0  0
 36 31  1  0  0  0  0
M  END
>  <MODEL>
6

>  <REMARK>
 VINA RESULT:      -8.2      3.659      7.225
  Name = 
  13 active torsions:
  status: ('A' for Active; 'I' for Inactive)
    1  A    between atoms: O_1  and  C_21
    2  A    between atoms: O_2  and  C_12
    3  A    between atoms: O_2  and  C_25
    4  A    between atoms: C_6  and  C_12
    5  A    between atoms: C_7  and  C_17
    6  A    between atoms: C_7  and  O_22
    7  A    between atoms: C_9  and  O_22
    8  A    between atoms: C_9  and  C_35
    9  A    between atoms: N_13  and  C_20
   10  A    between atoms: N_13  and  C_33
   11  A    between atoms: C_20  and  C_36
   12  A    between atoms: C_21  and  C_33
   13  A    between atoms: C_25  and  C_33
                            x       y       z     vdW  Elec       q    Type
                         _______ _______ _______ _____ _____    ______ ____

>  <TORSDO>
F 13

$$$$
=
 OpenBabel10222415583D

 36 39  0  0  1  0  0  0  0  0999 V2000
  190.6740  177.8860  144.4650 C   0  0  0  0  0  3  0  0  0  0  0  0
  189.7010  177.0940  143.6320 C   0  0  1  0  0  3  0  0  0  0  0  0
  189.6270  176.8980  146.4490 C   0  0  0  0  0  2  0  0  0  0  0  0
  188.2900  177.1650  144.2450 C   0  0  0  0  0  2  0  0  0  0  0  0
  190.6430  177.7900  145.7970 C   0  0  0  0  0  3  0  0  0  0  0  0
  188.2480  177.0460  145.7840 C   0  0  2  0  0  3  0  0  0  0  0  0
  189.6830  177.6100  142.1910 C   0  0  2  0  0  3  0  0  0  0  0  0
  188.3120  177.8550  141.7710 N   0  0  0  0  0  1  0  0  0  0  0  0
  190.2660  176.6740  141.3260 O   0  0  0  0  0  0  0  0  0  0  0  0
  190.7420  177.4150  140.2350 C   0  0  1  0  0  3  0  0  0  0  0  0
  192.2600  177.3970  140.2290 C   0  0  0  0  0  1  0  0  0  0  0  0
  190.2220  176.8570  138.9090 C   0  0  1  0  0  3  0  0  0  0  0  0
  189.4980  177.8670  138.1480 N   0  0  0  0  0  2  0  0  0  0  0  0
  188.0860  177.5450  138.2560 C   0  0  0  0  0  2  0  0  0  0  0  0
  186.1060  177.3710  136.7700 C   0  0  0  0  0  2  0  0  0  0  0  0
  187.1770  177.8970  134.6570 F   0  0  0  0  0  0  0  0  0  0  0  0
  187.3080  179.4630  136.4530 F   0  0  0  0  0  0  0  0  0  0  0  0
  187.1470  178.1590  136.0140 C   0  0  0  0  0  0  0  0  0  0  0  0
  187.5820  177.0250  136.9220 C   0  0  1  0  0  3  0  0  0  0  0  0
  191.3300  176.2330  138.0690 C   0  0  0  0  0  2  0  0  0  0  0  0
  191.2910  174.8390  138.1440 O   0  0  0  0  0  0  0  0  0  0  0  0
  190.3810  174.4630  137.1560 C   0  0  0  0  0  1  0  0  0  0  0  0
  187.4450  178.1980  146.3900 C   0  0  0  0  0  2  0  0  0  0  0  0
  186.0820  177.8840  146.4580 O   0  0  0  0  0  0  0  0  0  0  0  0
  185.4200  179.0060  145.9490 C   0  0  0  0  0  2  0  0  0  0  0  0
  184.4590  178.8830  139.7290 C   0  0  0  0  0  3  0  0  0  0  0  0
  185.1130  179.0080  140.9690 C   0  0  0  0  0  3  0  0  0  0  0  0
  183.0360  178.6740  139.8740 C   0  0  0  0  0  0  0  0  0  0  0  0
  183.2270  179.1810  144.7730 C   0  0  0  0  0  2  0  0  0  0  0  0
  182.4060  178.6280  143.6100 C   0  0  0  0  0  2  0  0  0  0  0  0
  184.6390  178.6210  144.7040 C   0  0  1  0  0  3  0  0  0  0  0  0
  184.5030  178.9290  142.2190 C   0  0  0  0  0  0  0  0  0  0  0  0
  182.4120  178.6310  141.1480 N   0  0  0  0  0  0  0  0  0  0  0  0
  183.1170  178.7680  142.2920 C   0  0  0  0  0  0  0  0  0  0  0  0
  183.2260  178.6290  138.8870 C   0  0  0  0  0  1  0  0  0  0  0  0
  185.3360  179.1420  143.4490 C   0  0  0  0  0  2  0  0  0  0  0  0
  1  5  2  0  0  0  0
  2  7  1  6  0  0  0
  2  4  1  0  0  0  0
  2  1  1  0  0  0  0
  4  6  1  0  0  0  0
  5  3  1  0  0  0  0
  6 23  1  1  0  0  0
  6  3  1  0  0  0  0
  7  8  1  6  0  0  0
  9  7  1  0  0  0  0
 10 11  1  6  0  0  0
 10  9  1  0  0  0  0
 12 20  1  6  0  0  0
 12 10  1  0  0  0  0
 13 14  1  0  0  0  0
 13 12  1  0  0  0  0
 15 19  1  0  0  0  0
 16 18  1  0  0  0  0
 18 17  1  0  0  0  0
 18 15  1  0  0  0  0
 18 19  1  0  0  0  0
 19 14  1  1  0  0  0
 20 21  1  0  0  0  0
 22 21  1  0  0  0  0
 23 24  1  0  0  0  0
 25 24  1  0  0  0  0
 26 28  2  0  0  0  0
 26 27  1  0  0  0  0
 27 32  2  0  0  0  0
 28 33  1  0  0  0  0
 30 29  1  0  0  0  0
 31 29  1  0  0  0  0
 31 25  1  1  0  0  0
 32 34  1  0  0  0  0
 32 36  1  0  0  0  0
 33 34  2  0  0  0  0
 34 30  1  0  0  0  0
 35 28  1  0  0  0  0
 36 31  1  0  0  0  0
M  END
>  <MODEL>
7

>  <REMARK>
 VINA RESULT:      -8.1      3.020      7.775
  Name = 
  13 active torsions:
  status: ('A' for Active; 'I' for Inactive)
    1  A    between atoms: O_1  and  C_21
    2  A    between atoms: O_2  and  C_12
    3  A    between atoms: O_2  and  C_25
    4  A    between atoms: C_6  and  C_12
    5  A    between atoms: C_7  and  C_17
    6  A    between atoms: C_7  and  O_22
    7  A    between atoms: C_9  and  O_22
    8  A    between atoms: C_9  and  C_35
    9  A    between atoms: N_13  and  C_20
   10  A    between atoms: N_13  and  C_33
   11  A    between atoms: C_20  and  C_36
   12  A    between atoms: C_21  and  C_33
   13  A    between atoms: C_25  and  C_33
                            x       y       z     vdW  Elec       q    Type
                         _______ _______ _______ _____ _____    ______ ____

>  <TORSDO>
F 13

$$$$
=
 OpenBabel10222415583D

 36 39  0  0  1  0  0  0  0  0999 V2000
  191.3630  177.3740  141.2960 C   0  0  0  0  0  3  0  0  0  0  0  0
  189.8950  177.0520  141.3900 C   0  0  1  0  0  3  0  0  0  0  0  0
  191.6870  176.0300  143.3200 C   0  0  0  0  0  2  0  0  0  0  0  0
  189.4110  177.1780  142.8470 C   0  0  0  0  0  2  0  0  0  0  0  0
  192.2110  176.8880  142.2050 C   0  0  0  0  0  3  0  0  0  0  0  0
  190.3850  176.6080  143.9020 C   0  0  2  0  0  3  0  0  0  0  0  0
  189.0820  177.9740  140.4770 C   0  0  2  0  0  3  0  0  0  0  0  0
  187.9360  178.5000  141.2010 N   0  0  0  0  0  1  0  0  0  0  0  0
  188.6300  177.2750  139.3490 O   0  0  0  0  0  0  0  0  0  0  0  0
  188.0840  178.2480  138.4990 C   0  0  1  0  0  3  0  0  0  0  0  0
  189.0240  178.4930  137.3340 C   0  0  0  0  0  1  0  0  0  0  0  0
  186.7140  177.8210  137.9670 C   0  0  1  0  0  3  0  0  0  0  0  0
  185.7130  178.8600  138.1660 N   0  0  0  0  0  2  0  0  0  0  0  0
  184.6050  178.2470  138.8780 C   0  0  0  0  0  2  0  0  0  0  0  0
  182.2860  178.6940  138.1140 C   0  0  0  0  0  2  0  0  0  0  0  0
  181.3480  179.4820  140.2080 F   0  0  0  0  0  0  0  0  0  0  0  0
  182.3400  177.3140  140.1170 F   0  0  0  0  0  0  0  0  0  0  0  0
  182.2360  178.6020  139.6190 C   0  0  0  0  0  0  0  0  0  0  0  0
  183.4460  179.2250  138.9490 C   0  0  1  0  0  3  0  0  0  0  0  0
  186.7700  177.3900  136.5070 C   0  0  0  0  0  2  0  0  0  0  0  0
  186.7480  175.9990  136.3930 O   0  0  0  0  0  0  0  0  0  0  0  0
  185.6360  175.7320  135.5940 C   0  0  0  0  0  1  0  0  0  0  0  0
  190.6600  177.6430  144.9920 C   0  0  0  0  0  2  0  0  0  0  0  0
  189.4780  178.2670  145.4090 O   0  0  0  0  0  0  0  0  0  0  0  0
  188.8210  177.3210  146.2010 C   0  0  0  0  0  2  0  0  0  0  0  0
  183.5660  178.6080  142.9830 C   0  0  0  0  0  3  0  0  0  0  0  0
  184.8990  178.2520  143.2600 C   0  0  0  0  0  3  0  0  0  0  0  0
  182.8350  178.9800  144.1730 C   0  0  0  0  0  0  0  0  0  0  0  0
  186.8270  178.5670  147.0340 C   0  0  0  0  0  2  0  0  0  0  0  0
  185.3000  178.5940  147.0240 C   0  0  0  0  0  2  0  0  0  0  0  0
  187.3170  177.4960  146.0720 C   0  0  1  0  0  3  0  0  0  0  0  0
  185.4860  178.2290  144.5230 C   0  0  0  0  0  0  0  0  0  0  0  0
  183.4460  178.9910  145.4540 N   0  0  0  0  0  0  0  0  0  0  0  0
  184.7380  178.6410  145.6300 C   0  0  0  0  0  0  0  0  0  0  0  0
  182.1740  179.0210  143.4140 C   0  0  0  0  0  1  0  0  0  0  0  0
  186.9410  177.8810  144.6430 C   0  0  0  0  0  2  0  0  0  0  0  0
  1  2  1  0  0  0  0
  1  5  2  0  0  0  0
  2  7  1  6  0  0  0
  2  4  1  0  0  0  0
  3  6  1  0  0  0  0
  4  6  1  0  0  0  0
  5  3  1  0  0  0  0
  6 23  1  1  0  0  0
  7  8  1  1  0  0  0
  9  7  1  0  0  0  0
 10 11  1  6  0  0  0
 10  9  1  0  0  0  0
 12 20  1  6  0  0  0
 12 13  1  0  0  0  0
 12 10  1  0  0  0  0
 13 14  1  0  0  0  0
 15 19  1  0  0  0  0
 15 18  1  0  0  0  0
 18 17  1  0  0  0  0
 18 16  1  0  0  0  0
 19 14  1  6  0  0  0
 19 18  1  0  0  0  0
 21 20  1  0  0  0  0
 22 21  1  0  0  0  0
 23 24  1  0  0  0  0
 24 25  1  0  0  0  0
 26 27  2  0  0  0  0
 26 28  1  0  0  0  0
 27 32  1  0  0  0  0
 28 33  2  0  0  0  0
 30 29  1  0  0  0  0
 31 25  1  6  0  0  0
 31 29  1  0  0  0  0
 32 36  1  0  0  0  0
 32 34  2  0  0  0  0
 33 34  1  0  0  0  0
 34 30  1  0  0  0  0
 35 28  1  0  0  0  0
 36 31  1  0  0  0  0
M  END
>  <MODEL>
8

>  <REMARK>
 VINA RESULT:      -8.1      2.646      5.098
  Name = 
  13 active torsions:
  status: ('A' for Active; 'I' for Inactive)
    1  A    between atoms: O_1  and  C_21
    2  A    between atoms: O_2  and  C_12
    3  A    between atoms: O_2  and  C_25
    4  A    between atoms: C_6  and  C_12
    5  A    between atoms: C_7  and  C_17
    6  A    between atoms: C_7  and  O_22
    7  A    between atoms: C_9  and  O_22
    8  A    between atoms: C_9  and  C_35
    9  A    between atoms: N_13  and  C_20
   10  A    between atoms: N_13  and  C_33
   11  A    between atoms: C_20  and  C_36
   12  A    between atoms: C_21  and  C_33
   13  A    between atoms: C_25  and  C_33
                            x       y       z     vdW  Elec       q    Type
                         _______ _______ _______ _____ _____    ______ ____

>  <TORSDO>
F 13

$$$$
=
 OpenBabel10222415583D

 36 39  0  0  1  0  0  0  0  0999 V2000
  191.1030  177.9830  143.8080 C   0  0  0  0  0  3  0  0  0  0  0  0
  190.1960  176.9560  143.1850 C   0  0  1  0  0  3  0  0  0  0  0  0
  190.5450  177.0090  145.9870 C   0  0  0  0  0  2  0  0  0  0  0  0
  188.8940  176.8270  143.9980 C   0  0  0  0  0  2  0  0  0  0  0  0
  191.2730  178.0050  145.1330 C   0  0  0  0  0  3  0  0  0  0  0  0
  189.0860  176.8430  145.5300 C   0  0  2  0  0  3  0  0  0  0  0  0
  189.8830  177.3260  141.7320 C   0  0  2  0  0  3  0  0  0  0  0  0
  188.4440  177.3210  141.5200 N   0  0  0  0  0  1  0  0  0  0  0  0
  190.4780  176.4110  140.8530 O   0  0  0  0  0  0  0  0  0  0  0  0
  190.9730  177.1800  139.7890 C   0  0  1  0  0  3  0  0  0  0  0  0
  192.4840  177.2730  139.8870 C   0  0  0  0  0  1  0  0  0  0  0  0
  190.5870  176.5790  138.4360 C   0  0  1  0  0  3  0  0  0  0  0  0
  190.8470  175.1460  138.3910 N   0  0  0  0  0  2  0  0  0  0  0  0
  191.5830  174.8900  137.1640 C   0  0  0  0  0  2  0  0  0  0  0  0
  193.7500  174.1200  136.2300 C   0  0  0  0  0  2  0  0  0  0  0  0
  195.2220  174.9420  137.9750 F   0  0  0  0  0  0  0  0  0  0  0  0
  193.7970  176.4780  136.8320 F   0  0  0  0  0  0  0  0  0  0  0  0
  194.0720  175.1860  137.2490 C   0  0  0  0  0  0  0  0  0  0  0  0
  192.9120  174.2390  137.4980 C   0  0  1  0  0  3  0  0  0  0  0  0
  189.1420  176.8830  138.0590 C   0  0  0  0  0  2  0  0  0  0  0  0
  188.8560  178.2400  138.2210 O   0  0  0  0  0  0  0  0  0  0  0  0
  189.0680  178.7940  136.9580 C   0  0  0  0  0  1  0  0  0  0  0  0
  188.1670  177.8820  146.1740 C   0  0  0  0  0  2  0  0  0  0  0  0
  186.8240  177.4990  146.0780 O   0  0  0  0  0  0  0  0  0  0  0  0
  186.0930  178.6840  146.2120 C   0  0  0  0  0  2  0  0  0  0  0  0
  180.7600  179.0540  142.8880 C   0  0  0  0  0  3  0  0  0  0  0  0
  181.6390  179.0070  143.9850 C   0  0  0  0  0  3  0  0  0  0  0  0
  181.4410  178.8620  141.6270 C   0  0  0  0  0  0  0  0  0  0  0  0
  185.7710  178.0250  143.8270 C   0  0  0  0  0  2  0  0  0  0  0  0
  185.0980  178.4320  142.5180 C   0  0  0  0  0  2  0  0  0  0  0  0
  185.3010  178.9470  144.9420 C   0  0  1  0  0  3  0  0  0  0  0  0
  183.0170  178.8180  143.9130 C   0  0  0  0  0  0  0  0  0  0  0  0
  182.8390  178.6320  141.5580 N   0  0  0  0  0  0  0  0  0  0  0  0
  183.6100  178.5960  142.6670 C   0  0  0  0  0  0  0  0  0  0  0  0
  180.4750  179.0370  141.4000 C   0  0  0  0  0  1  0  0  0  0  0  0
  183.8080  178.7350  145.1860 C   0  0  0  0  0  2  0  0  0  0  0  0
  1  5  2  0  0  0  0
  2  7  1  6  0  0  0
  2  1  1  0  0  0  0
  2  4  1  0  0  0  0
  4  6  1  0  0  0  0
  5  3  1  0  0  0  0
  6  3  1  0  0  0  0
  6 23  1  1  0  0  0
  7  8  1  1  0  0  0
  9  7  1  0  0  0  0
 10 11  1  1  0  0  0
 10  9  1  0  0  0  0
 12 20  1  1  0  0  0
 12 10  1  0  0  0  0
 13 12  1  0  0  0  0
 14 13  1  0  0  0  0
 15 18  1  0  0  0  0
 15 19  1  0  0  0  0
 17 18  1  0  0  0  0
 18 19  1  0  0  0  0
 18 16  1  0  0  0  0
 19 14  1  6  0  0  0
 20 21  1  0  0  0  0
 22 21  1  0  0  0  0
 24 23  1  0  0  0  0
 24 25  1  0  0  0  0
 26 27  1  0  0  0  0
 28 26  2  0  0  0  0
 29 31  1  0  0  0  0
 30 34  1  0  0  0  0
 30 29  1  0  0  0  0
 31 36  1  0  0  0  0
 31 25  1  1  0  0  0
 32 27  2  0  0  0  0
 32 36  1  0  0  0  0
 33 28  1  0  0  0  0
 33 34  2  0  0  0  0
 34 32  1  0  0  0  0
 35 28  1  0  0  0  0
M  END
>  <MODEL>
9

>  <REMARK>
 VINA RESULT:      -8.0      3.737      8.093
  Name = 
  13 active torsions:
  status: ('A' for Active; 'I' for Inactive)
    1  A    between atoms: O_1  and  C_21
    2  A    between atoms: O_2  and  C_12
    3  A    between atoms: O_2  and  C_25
    4  A    between atoms: C_6  and  C_12
    5  A    between atoms: C_7  and  C_17
    6  A    between atoms: C_7  and  O_22
    7  A    between atoms: C_9  and  O_22
    8  A    between atoms: C_9  and  C_35
    9  A    between atoms: N_13  and  C_20
   10  A    between atoms: N_13  and  C_33
   11  A    between atoms: C_20  and  C_36
   12  A    between atoms: C_21  and  C_33
   13  A    between atoms: C_25  and  C_33
                            x       y       z     vdW  Elec       q    Type
                         _______ _______ _______ _____ _____    ______ ____

>  <TORSDO>
F 13

$$$$
