=
 OpenBabel10222417153D

 56 62  0  0  1  0  0  0  0  0999 V2000
  188.7310  177.8400  136.9640 C   0  0  1  0  0  0  0  0  0  0  0  0
  190.1520  177.2220  137.1800 C   0  0  0  0  0  2  0  0  0  0  0  0
  185.1360  179.4950  140.6780 N   0  0  0  0  0  2  0  0  0  0  0  0
  190.4270  177.0840  138.6010 C   0  0  0  0  0  0  0  0  0  0  0  0
  188.1510  177.7810  138.4200 C   0  0  0  0  0  0  0  0  0  0  0  0
  189.1660  177.3440  140.5970 C   0  0  0  0  0  3  0  0  0  0  0  0
  184.6650  179.1780  139.3200 N   0  0  0  0  0  0  0  0  0  0  0  0
  185.9380  178.4230  142.6010 O   0  0  0  0  0  0  0  0  0  0  0  0
  191.6150  176.9080  139.1610 C   0  0  0  0  0  3  0  0  0  0  0  0
  186.9570  178.0160  140.4440 C   0  0  0  0  0  0  0  0  0  0  0  0
  189.0040  179.2960  136.6050 C   0  0  0  0  0  1  0  0  0  0  0  0
  186.8900  178.0310  139.0230 C   0  0  0  0  0  0  0  0  0  0  0  0
  189.2190  177.3390  139.2370 C   0  0  0  0  0  0  0  0  0  0  0  0
  185.6220  178.4890  138.3720 C   0  0  0  0  0  2  0  0  0  0  0  0
  185.9730  178.6370  141.3730 C   0  0  0  0  0  0  0  0  0  0  0  0
  188.0360  177.7440  141.1620 C   0  0  0  0  0  3  0  0  0  0  0  0
  186.6970  174.7400  136.5110 C   0  0  1  0  0  3  0  0  0  0  0  0
  189.3160  176.0990  134.8470 C   0  0  0  0  0  2  0  0  0  0  0  0
  189.4560  173.1480  135.7430 C   0  0  0  0  0  2  0  0  0  0  0  0
  191.4190  174.6410  134.9760 C   0  0  0  0  0  3  0  0  0  0  0  0
  190.8230  176.0010  135.3180 C   0  0  0  0  0  2  0  0  0  0  0  0
  187.0090  176.0960  135.7220 C   0  0  0  0  0  0  0  0  0  0  0  0
  190.8380  173.4220  135.1930 C   0  0  0  0  0  3  0  0  0  0  0  0
  187.7070  174.0150  137.4760 C   0  0  0  0  0  2  0  0  0  0  0  0
  189.2100  174.0090  137.0540 C   0  0  0  0  0  2  0  0  0  0  0  0
  188.3220  177.0110  135.6770 C   0  0  1  0  0  3  0  0  0  0  0  0
  186.1020  176.5370  134.9900 O   0  0  0  0  0  0  0  0  0  0  0  0
  185.3150  174.7240  137.2480 C   0  0  0  0  0  2  0  0  0  0  0  0
  184.4290  173.6890  136.5750 C   0  0  0  0  0  2  0  0  0  0  0  0
  184.3230  172.3520  137.2580 C   0  0  0  0  0  1  0  0  0  0  0  0
  182.3320  178.3650  138.9580 C   0  0  0  0  0  3  0  0  0  0  0  0
  181.7190  181.0630  138.3060 C   0  0  0  0  0  3  0  0  0  0  0  0
  180.7630  180.0890  138.1290 C   0  0  0  0  0  0  0  0  0  0  0  0
  181.0650  178.7520  138.4980 C   0  0  0  0  0  3  0  0  0  0  0  0
  182.9740  180.6890  138.7710 C   0  0  0  0  0  3  0  0  0  0  0  0
  183.3210  179.3810  139.0500 C   0  0  0  0  0  0  0  0  0  0  0  0
  179.4970  180.3720  137.3840 C   0  0  0  0  0  2  0  0  0  0  0  0
  180.7510  179.8220  135.3910 O   0  0  0  0  0  1  0  0  0  0  0  0
  180.1750  182.3900  135.4500 C   0  0  0  0  0  1  0  0  0  0  0  0
  179.8490  180.7580  135.8440 C   0  0  2  0  0  3  0  0  0  0  0  0
  193.4110  175.4800  138.3720 C   0  0  1  0  0  3  0  0  0  0  0  0
  193.9480  176.5370  139.1300 O   0  0  0  0  0  0  0  0  0  0  0  0
  192.7460  176.7610  138.2650 C   0  0  2  0  0  3  0  0  0  0  0  0
  194.2920  175.1660  137.2490 C   0  0  0  0  0  2  0  0  0  0  0  0
  195.0860  173.8380  137.2500 C   0  0  2  0  0  3  0  0  0  0  0  0
  197.0600  174.9380  138.0690 O   0  0  0  0  0  1  0  0  0  0  0  0
  196.1600  173.9560  138.3950 C   0  0  0  0  0  2  0  0  0  0  0  0
  195.6110  173.6770  135.8340 C   0  0  0  0  0  2  0  0  0  0  0  0
  196.4910  171.2980  135.8360 C   0  0  2  0  0  3  0  0  0  0  0  0
  193.8860  170.6840  136.2410 C   0  0  0  0  0  2  0  0  0  0  0  0
  196.1690  169.8000  135.6650 C   0  0  0  0  0  2  0  0  0  0  0  0
  194.0400  171.9740  135.7150 O   0  0  0  0  0  0  0  0  0  0  0  0
  194.6890  169.6280  135.4780 C   0  0  0  0  0  2  0  0  0  0  0  0
  195.3940  172.2800  135.3980 C   0  0  1  0  0  3  0  0  0  0  0  0
  197.8240  171.7220  135.7150 O   0  0  0  0  0  0  0  0  0  0  0  0
  198.4090  171.4090  136.9530 C   0  0  0  0  0  1  0  0  0  0  0  0
  1 11  1  6  0  0  0
  1  2  1  0  0  0  0
  1  5  1  0  0  0  0
  2  4  1  0  0  0  0
  3 15  1  0  0  0  0
  4  9  2  0  0  0  0
  4 13  1  0  0  0  0
  5 12  2  0  0  0  0
  5 13  1  0  0  0  0
  6 16  1  0  0  0  0
  7  3  1  0  0  0  0
 10 16  2  0  0  0  0
 10 15  1  0  0  0  0
 12 10  1  0  0  0  0
 13  6  2  0  0  0  0
 14 12  1  0  0  0  0
 14  7  1  0  0  0  0
 15  8  2  0  0  0  0
 17 28  1  1  0  0  0
 17 24  1  0  0  0  0
 18 21  1  0  0  0  0
 19 25  1  0  0  0  0
 20 23  2  0  0  0  0
 20 21  1  0  0  0  0
 22 17  1  0  0  0  0
 23 19  1  0  0  0  0
 25 24  1  0  0  0  0
 26 18  1  1  0  0  0
 26 22  1  0  0  0  0
 26  1  1  0  0  0  0
 27 22  2  0  0  0  0
 29 28  1  0  0  0  0
 29 30  1  0  0  0  0
 31 36  1  0  0  0  0
 32 35  1  0  0  0  0
 33 32  2  0  0  0  0
 33 34  1  0  0  0  0
 34 31  2  0  0  0  0
 35 36  2  0  0  0  0
 36  7  1  0  0  0  0
 37 33  1  0  0  0  0
 38 40  1  0  0  0  0
 40 39  1  1  0  0  0
 40 37  1  0  0  0  0
 41 44  1  6  0  0  0
 41 42  1  0  0  0  0
 43 41  1  0  0  0  0
 43 42  1  0  0  0  0
 43  9  1  1  0  0  0
 44 45  1  0  0  0  0
 45 48  1  6  0  0  0
 45 47  1  0  0  0  0
 46 47  1  0  0  0  0
 49 55  1  6  0  0  0
 51 49  1  0  0  0  0
 52 50  1  0  0  0  0
 53 51  1  0  0  0  0
 53 50  1  0  0  0  0
 54 52  1  0  0  0  0
 54 48  1  1  0  0  0
 54 49  1  0  0  0  0
 55 56  1  0  0  0  0
M  END
>  <MODEL>
1

>  <REMARK>
 VINA RESULT:      -6.3      0.000      0.000
  Name = 
  13 active torsions:
  status: ('A' for Active; 'I' for Inactive)
    1  A    between atoms: C_1  and  O_45
    2  A    between atoms: C_2  and  C_47
    3  A    between atoms: C_3  and  C_31
    4  A    between atoms: C_5  and  C_31
    5  A    between atoms: C_7  and  C_30
    6  A    between atoms: C_18  and  C_37
    7  A    between atoms: C_19  and  C_36
    8  A    between atoms: C_19  and  C_39
    9  A    between atoms: C_23  and  C_32
   10  A    between atoms: C_23  and  C_56
   11  A    between atoms: N_28  and  C_44
   12  A    between atoms: C_30  and  C_32
   13  A    between atoms: C_32  and  C_46
                            x       y       z     vdW  Elec       q    Type
                         _______ _______ _______ _____ _____    ______ ____

>  <TORSDO>
F 13

$$$$
=
 OpenBabel10222417153D

 56 62  0  0  1  0  0  0  0  0999 V2000
  188.5900  177.9690  137.0760 C   0  0  1  0  0  0  0  0  0  0  0  0
  189.9960  177.2840  137.1030 C   0  0  0  0  0  2  0  0  0  0  0  0
  185.4060  179.3720  141.2410 N   0  0  0  0  0  2  0  0  0  0  0  0
  190.3880  176.9970  138.4740 C   0  0  0  0  0  0  0  0  0  0  0  0
  188.1370  177.7870  138.5670 C   0  0  0  0  0  0  0  0  0  0  0  0
  189.3170  177.1020  140.5910 C   0  0  0  0  0  3  0  0  0  0  0  0
  184.8050  179.2080  139.9080 N   0  0  0  0  0  0  0  0  0  0  0  0
  186.3250  178.0890  142.9730 O   0  0  0  0  0  0  0  0  0  0  0  0
  191.6110  176.7260  138.9050 C   0  0  0  0  0  3  0  0  0  0  0  0
  187.1340  177.8620  140.7040 C   0  0  0  0  0  0  0  0  0  0  0  0
  188.8930  179.4430  136.8350 C   0  0  0  0  0  1  0  0  0  0  0  0
  186.9440  178.0200  139.3030 C   0  0  0  0  0  0  0  0  0  0  0  0
  189.2510  177.2300  139.2380 C   0  0  0  0  0  0  0  0  0  0  0  0
  185.6460  178.5820  138.8160 C   0  0  0  0  0  2  0  0  0  0  0  0
  186.2630  178.4220  141.7740 C   0  0  0  0  0  0  0  0  0  0  0  0
  188.2590  177.4840  141.2920 C   0  0  0  0  0  3  0  0  0  0  0  0
  185.6220  175.7970  136.4280 C   0  0  1  0  0  3  0  0  0  0  0  0
  188.7050  176.0390  135.0480 C   0  0  0  0  0  2  0  0  0  0  0  0
  187.6710  173.2810  135.9740 C   0  0  0  0  0  2  0  0  0  0  0  0
  190.1090  173.9270  135.4140 C   0  0  0  0  0  3  0  0  0  0  0  0
  190.0190  175.4250  135.6800 C   0  0  0  0  0  2  0  0  0  0  0  0
  186.4820  176.9100  135.6680 C   0  0  0  0  0  0  0  0  0  0  0  0
  189.1060  173.0120  135.5750 C   0  0  0  0  0  3  0  0  0  0  0  0
  186.1980  174.8010  137.5020 C   0  0  0  0  0  2  0  0  0  0  0  0
  187.6290  174.2330  137.2450 C   0  0  0  0  0  2  0  0  0  0  0  0
  188.0360  177.2860  135.7590 C   0  0  1  0  0  3  0  0  0  0  0  0
  185.8740  177.6150  134.8400 O   0  0  0  0  0  0  0  0  0  0  0  0
  184.2630  176.3160  137.0120 C   0  0  0  0  0  2  0  0  0  0  0  0
  183.7490  175.2880  138.0060 C   0  0  0  0  0  2  0  0  0  0  0  0
  182.6930  175.7570  138.9690 C   0  0  0  0  0  1  0  0  0  0  0  0
  182.4180  178.9380  140.5890 C   0  0  0  0  0  3  0  0  0  0  0  0
  181.8110  180.5340  138.3160 C   0  0  0  0  0  3  0  0  0  0  0  0
  180.7870  179.9550  139.0320 C   0  0  0  0  0  0  0  0  0  0  0  0
  181.0990  179.1960  140.1900 C   0  0  0  0  0  3  0  0  0  0  0  0
  183.1200  180.2920  138.7130 C   0  0  0  0  0  3  0  0  0  0  0  0
  183.4530  179.4820  139.7820 C   0  0  0  0  0  0  0  0  0  0  0  0
  179.3850  179.9470  138.5100 C   0  0  0  0  0  2  0  0  0  0  0  0
  179.9970  177.8730  137.4300 O   0  0  0  0  0  1  0  0  0  0  0  0
  179.6050  179.7690  135.6480 C   0  0  0  0  0  1  0  0  0  0  0  0
  179.3130  179.0370  137.1650 C   0  0  2  0  0  3  0  0  0  0  0  0
  193.2370  175.3100  137.7920 C   0  0  1  0  0  3  0  0  0  0  0  0
  193.9040  176.2320  138.6210 O   0  0  0  0  0  0  0  0  0  0  0  0
  192.6530  176.6290  137.9000 C   0  0  2  0  0  3  0  0  0  0  0  0
  194.0000  175.0910  136.5650 C   0  0  0  0  0  2  0  0  0  0  0  0
  194.7560  173.7560  136.3650 C   0  0  2  0  0  3  0  0  0  0  0  0
  193.4870  171.7280  136.1240 O   0  0  0  0  0  1  0  0  0  0  0  0
  193.8500  172.8590  135.4400 C   0  0  0  0  0  2  0  0  0  0  0  0
  195.0330  173.2320  137.7640 C   0  0  0  0  0  2  0  0  0  0  0  0
  197.2810  172.1900  137.2210 C   0  0  2  0  0  3  0  0  0  0  0  0
  198.1030  174.7680  137.2070 C   0  0  0  0  0  2  0  0  0  0  0  0
  198.8130  172.3560  137.2060 C   0  0  0  0  0  2  0  0  0  0  0  0
  196.8920  174.6130  137.8950 O   0  0  0  0  0  0  0  0  0  0  0  0
  199.1660  173.7520  137.6310 C   0  0  0  0  0  2  0  0  0  0  0  0
  196.4920  173.2510  138.0030 C   0  0  1  0  0  3  0  0  0  0  0  0
  196.7390  170.8960  137.1620 O   0  0  0  0  0  0  0  0  0  0  0  0
  197.8550  170.0480  137.0590 C   0  0  0  0  0  1  0  0  0  0  0  0
  1 11  1  6  0  0  0
  1  2  1  0  0  0  0
  1  5  1  0  0  0  0
  2  4  1  0  0  0  0
  3 15  1  0  0  0  0
  4  9  2  0  0  0  0
  4 13  1  0  0  0  0
  5 13  2  0  0  0  0
  5 12  1  0  0  0  0
  6 16  2  0  0  0  0
  7  3  1  0  0  0  0
 10 16  1  0  0  0  0
 10 15  1  0  0  0  0
 12 10  2  0  0  0  0
 13  6  1  0  0  0  0
 14 12  1  0  0  0  0
 14  7  1  0  0  0  0
 15  8  2  0  0  0  0
 17 28  1  1  0  0  0
 17 24  1  0  0  0  0
 18 21  1  0  0  0  0
 19 25  1  0  0  0  0
 20 23  2  0  0  0  0
 20 21  1  0  0  0  0
 22 26  1  0  0  0  0
 22 17  1  0  0  0  0
 23 19  1  0  0  0  0
 25 24  1  0  0  0  0
 26 18  1  1  0  0  0
 26  1  1  0  0  0  0
 27 22  2  0  0  0  0
 28 29  1  0  0  0  0
 29 30  1  0  0  0  0
 32 35  2  0  0  0  0
 32 33  1  0  0  0  0
 33 34  2  0  0  0  0
 34 31  1  0  0  0  0
 35 36  1  0  0  0  0
 36  7  1  0  0  0  0
 36 31  2  0  0  0  0
 37 33  1  0  0  0  0
 40 39  1  6  0  0  0
 40 38  1  0  0  0  0
 40 37  1  0  0  0  0
 41 44  1  6  0  0  0
 41 43  1  0  0  0  0
 41 42  1  0  0  0  0
 43 42  1  0  0  0  0
 43  9  1  1  0  0  0
 45 47  1  6  0  0  0
 45 44  1  0  0  0  0
 45 48  1  0  0  0  0
 47 46  1  0  0  0  0
 49 55  1  1  0  0  0
 49 54  1  0  0  0  0
 50 53  1  0  0  0  0
 50 52  1  0  0  0  0
 51 49  1  0  0  0  0
 51 53  1  0  0  0  0
 52 54  1  0  0  0  0
 54 48  1  6  0  0  0
 56 55  1  0  0  0  0
M  END
>  <MODEL>
2

>  <REMARK>
 VINA RESULT:      -6.3      1.276      2.151
  Name = 
  13 active torsions:
  status: ('A' for Active; 'I' for Inactive)
    1  A    between atoms: C_1  and  O_45
    2  A    between atoms: C_2  and  C_47
    3  A    between atoms: C_3  and  C_31
    4  A    between atoms: C_5  and  C_31
    5  A    between atoms: C_7  and  C_30
    6  A    between atoms: C_18  and  C_37
    7  A    between atoms: C_19  and  C_36
    8  A    between atoms: C_19  and  C_39
    9  A    between atoms: C_23  and  C_32
   10  A    between atoms: C_23  and  C_56
   11  A    between atoms: N_28  and  C_44
   12  A    between atoms: C_30  and  C_32
   13  A    between atoms: C_32  and  C_46
                            x       y       z     vdW  Elec       q    Type
                         _______ _______ _______ _____ _____    ______ ____

>  <TORSDO>
F 13

$$$$
=
 OpenBabel10222417153D

 56 62  0  0  1  0  0  0  0  0999 V2000
  188.5590  177.6640  136.7950 C   0  0  1  0  0  0  0  0  0  0  0  0
  189.9970  177.0590  136.9070 C   0  0  0  0  0  2  0  0  0  0  0  0
  185.2600  179.3600  140.7560 N   0  0  0  0  0  2  0  0  0  0  0  0
  190.3870  176.9470  138.3030 C   0  0  0  0  0  0  0  0  0  0  0  0
  188.0980  177.6270  138.2940 C   0  0  0  0  0  0  0  0  0  0  0  0
  189.2870  177.2340  140.3890 C   0  0  0  0  0  3  0  0  0  0  0  0
  184.6840  179.0170  139.4460 N   0  0  0  0  0  0  0  0  0  0  0  0
  186.2220  178.3270  142.6270 O   0  0  0  0  0  0  0  0  0  0  0  0
  191.6160  176.7890  138.7690 C   0  0  0  0  0  3  0  0  0  0  0  0
  187.0680  177.8890  140.4020 C   0  0  0  0  0  0  0  0  0  0  0  0
  188.7910  179.1150  136.3910 C   0  0  0  0  0  1  0  0  0  0  0  0
  186.8870  177.8800  138.9920 C   0  0  0  0  0  0  0  0  0  0  0  0
  189.2310  177.2050  139.0300 C   0  0  0  0  0  0  0  0  0  0  0  0
  185.5680  178.3170  138.4370 C   0  0  0  0  0  2  0  0  0  0  0  0
  186.1570  178.5200  141.3970 C   0  0  0  0  0  0  0  0  0  0  0  0
  188.2030  177.6370  141.0360 C   0  0  0  0  0  3  0  0  0  0  0  0
  186.5750  174.5080  136.5600 C   0  0  1  0  0  3  0  0  0  0  0  0
  188.9920  175.9140  134.6490 C   0  0  0  0  0  2  0  0  0  0  0  0
  189.2920  172.9780  135.5540 C   0  0  0  0  0  2  0  0  0  0  0  0
  191.1360  174.5130  134.5950 C   0  0  0  0  0  3  0  0  0  0  0  0
  190.5380  175.8610  134.9790 C   0  0  0  0  0  2  0  0  0  0  0  0
  186.7760  175.8620  135.7340 C   0  0  0  0  0  0  0  0  0  0  0  0
  190.6100  173.2820  134.8750 C   0  0  0  0  0  3  0  0  0  0  0  0
  187.6890  173.8210  137.4340 C   0  0  0  0  0  2  0  0  0  0  0  0
  189.1460  173.8480  136.8740 C   0  0  0  0  0  2  0  0  0  0  0  0
  188.0550  176.8110  135.5590 C   0  0  1  0  0  3  0  0  0  0  0  0
  185.7940  176.2720  135.0850 O   0  0  0  0  0  0  0  0  0  0  0  0
  185.2680  174.4650  137.4220 C   0  0  0  0  0  2  0  0  0  0  0  0
  185.0430  173.0330  137.8750 C   0  0  0  0  0  2  0  0  0  0  0  0
  184.1790  172.1770  136.9900 C   0  0  0  0  0  1  0  0  0  0  0  0
  182.7070  180.3610  138.7270 C   0  0  0  0  0  3  0  0  0  0  0  0
  181.1440  178.2860  139.8840 C   0  0  0  0  0  3  0  0  0  0  0  0
  180.5250  179.4270  139.4270 C   0  0  0  0  0  0  0  0  0  0  0  0
  181.3090  180.4380  138.8120 C   0  0  0  0  0  3  0  0  0  0  0  0
  182.5280  178.1980  139.7920 C   0  0  0  0  0  3  0  0  0  0  0  0
  183.3210  179.2060  139.2820 C   0  0  0  0  0  0  0  0  0  0  0  0
  179.0880  179.7070  139.7370 C   0  0  0  0  0  2  0  0  0  0  0  0
  179.5360  181.7550  140.9410 O   0  0  0  0  0  1  0  0  0  0  0  0
  179.4170  179.7110  142.5950 C   0  0  0  0  0  1  0  0  0  0  0  0
  178.9840  180.5110  141.1470 C   0  0  2  0  0  3  0  0  0  0  0  0
  193.3460  175.3530  137.8530 C   0  0  1  0  0  3  0  0  0  0  0  0
  193.9400  176.4170  138.5570 O   0  0  0  0  0  0  0  0  0  0  0  0
  192.6740  176.6330  137.7880 C   0  0  2  0  0  3  0  0  0  0  0  0
  194.1350  175.0290  136.6670 C   0  0  0  0  0  2  0  0  0  0  0  0
  195.0550  173.7860  136.6800 C   0  0  2  0  0  3  0  0  0  0  0  0
  193.5960  171.9470  136.1620 O   0  0  0  0  0  1  0  0  0  0  0  0
  194.4990  172.8020  135.5840 C   0  0  0  0  0  2  0  0  0  0  0  0
  195.0450  173.2870  138.1150 C   0  0  0  0  0  2  0  0  0  0  0  0
  197.4580  173.9650  137.7280 C   0  0  2  0  0  3  0  0  0  0  0  0
  197.0670  175.4180  139.9770 C   0  0  0  0  0  2  0  0  0  0  0  0
  198.7550  174.5340  138.3360 C   0  0  0  0  0  2  0  0  0  0  0  0
  196.1180  174.3950  139.8480 O   0  0  0  0  0  0  0  0  0  0  0  0
  198.5020  174.9320  139.7610 C   0  0  0  0  0  2  0  0  0  0  0  0
  196.3650  173.5540  138.7260 C   0  0  1  0  0  3  0  0  0  0  0  0
  197.5330  173.2490  136.5210 O   0  0  0  0  0  0  0  0  0  0  0  0
  198.2080  174.1110  135.6400 C   0  0  0  0  0  1  0  0  0  0  0  0
  1 11  1  6  0  0  0
  1  2  1  0  0  0  0
  1  5  1  0  0  0  0
  2  4  1  0  0  0  0
  3 15  1  0  0  0  0
  4  9  2  0  0  0  0
  4 13  1  0  0  0  0
  5 12  2  0  0  0  0
  5 13  1  0  0  0  0
  6 16  1  0  0  0  0
  7  3  1  0  0  0  0
 10 16  2  0  0  0  0
 10 15  1  0  0  0  0
 12 10  1  0  0  0  0
 13  6  2  0  0  0  0
 14 12  1  0  0  0  0
 14  7  1  0  0  0  0
 15  8  2  0  0  0  0
 17 28  1  1  0  0  0
 17 24  1  0  0  0  0
 18 21  1  0  0  0  0
 19 25  1  0  0  0  0
 20 23  2  0  0  0  0
 20 21  1  0  0  0  0
 22 17  1  0  0  0  0
 23 19  1  0  0  0  0
 25 24  1  0  0  0  0
 26 18  1  1  0  0  0
 26 22  1  0  0  0  0
 26  1  1  0  0  0  0
 27 22  2  0  0  0  0
 28 29  1  0  0  0  0
 30 29  1  0  0  0  0
 31 34  2  0  0  0  0
 31 36  1  0  0  0  0
 33 37  1  0  0  0  0
 33 32  2  0  0  0  0
 34 33  1  0  0  0  0
 35 32  1  0  0  0  0
 36  7  1  0  0  0  0
 36 35  2  0  0  0  0
 37 40  1  0  0  0  0
 38 40  1  0  0  0  0
 40 39  1  1  0  0  0
 41 44  1  6  0  0  0
 41 42  1  0  0  0  0
 43 41  1  0  0  0  0
 43 42  1  0  0  0  0
 43  9  1  1  0  0  0
 44 45  1  0  0  0  0
 45 47  1  6  0  0  0
 45 48  1  0  0  0  0
 47 46  1  0  0  0  0
 49 55  1  1  0  0  0
 49 51  1  0  0  0  0
 49 54  1  0  0  0  0
 51 53  1  0  0  0  0
 52 50  1  0  0  0  0
 53 50  1  0  0  0  0
 54 48  1  6  0  0  0
 54 52  1  0  0  0  0
 56 55  1  0  0  0  0
M  END
>  <MODEL>
3

>  <REMARK>
 VINA RESULT:      -6.0      1.532      2.722
  Name = 
  13 active torsions:
  status: ('A' for Active; 'I' for Inactive)
    1  A    between atoms: C_1  and  O_45
    2  A    between atoms: C_2  and  C_47
    3  A    between atoms: C_3  and  C_31
    4  A    between atoms: C_5  and  C_31
    5  A    between atoms: C_7  and  C_30
    6  A    between atoms: C_18  and  C_37
    7  A    between atoms: C_19  and  C_36
    8  A    between atoms: C_19  and  C_39
    9  A    between atoms: C_23  and  C_32
   10  A    between atoms: C_23  and  C_56
   11  A    between atoms: N_28  and  C_44
   12  A    between atoms: C_30  and  C_32
   13  A    between atoms: C_32  and  C_46
                            x       y       z     vdW  Elec       q    Type
                         _______ _______ _______ _____ _____    ______ ____

>  <TORSDO>
F 13

$$$$
=
 OpenBabel10222417153D

 56 62  0  0  1  0  0  0  0  0999 V2000
  186.3320  177.1140  136.1370 C   0  0  1  0  0  0  0  0  0  0  0  0
  184.8680  177.3030  136.6560 C   0  0  0  0  0  2  0  0  0  0  0  0
  189.2080  172.5380  135.6470 N   0  0  0  0  0  2  0  0  0  0  0  0
  184.3140  176.0240  137.0700 C   0  0  0  0  0  0  0  0  0  0  0  0
  186.6130  175.6290  136.5580 C   0  0  0  0  0  0  0  0  0  0  0  0
  185.1730  173.8280  137.3580 C   0  0  0  0  0  3  0  0  0  0  0  0
  189.9190  173.8250  135.7060 N   0  0  0  0  0  0  0  0  0  0  0  0
  187.9960  171.0850  137.0290 O   0  0  0  0  0  0  0  0  0  0  0  0
  183.0330  175.7400  137.2540 C   0  0  0  0  0  3  0  0  0  0  0  0
  187.3990  173.4250  136.8710 C   0  0  0  0  0  0  0  0  0  0  0  0
  186.2040  177.1750  134.6190 C   0  0  0  0  0  1  0  0  0  0  0  0
  187.7430  174.7690  136.5580 C   0  0  0  0  0  0  0  0  0  0  0  0
  185.3860  175.1400  137.0670 C   0  0  0  0  0  0  0  0  0  0  0  0
  189.1330  175.0610  136.0880 C   0  0  0  0  0  2  0  0  0  0  0  0
  188.2110  172.2180  136.5540 C   0  0  0  0  0  0  0  0  0  0  0  0
  186.1890  172.9930  137.1910 C   0  0  0  0  0  3  0  0  0  0  0  0
  189.4780  177.8540  138.0070 C   0  0  1  0  0  3  0  0  0  0  0  0
  186.3860  179.2340  137.9680 C   0  0  0  0  0  2  0  0  0  0  0  0
  187.6560  178.4390  140.6670 C   0  0  0  0  0  2  0  0  0  0  0  0
  185.1710  178.9770  140.2100 C   0  0  0  0  0  3  0  0  0  0  0  0
  185.1300  178.6390  138.7250 C   0  0  0  0  0  2  0  0  0  0  0  0
  188.5240  178.5630  136.9380 C   0  0  0  0  0  0  0  0  0  0  0  0
  186.2510  178.8570  141.0410 C   0  0  0  0  0  3  0  0  0  0  0  0
  188.9910  176.8330  139.1010 C   0  0  0  0  0  2  0  0  0  0  0  0
  187.6160  177.1230  139.7790 C   0  0  0  0  0  2  0  0  0  0  0  0
  186.9430  178.4610  136.7040 C   0  0  1  0  0  3  0  0  0  0  0  0
  189.0670  179.3540  136.1420 O   0  0  0  0  0  0  0  0  0  0  0  0
  190.7860  177.2410  137.4010 C   0  0  0  0  0  2  0  0  0  0  0  0
  191.5190  176.4970  138.5050 C   0  0  0  0  0  2  0  0  0  0  0  0
  193.0110  176.3780  138.3560 C   0  0  0  0  0  1  0  0  0  0  0  0
  192.1600  172.7940  136.0950 C   0  0  0  0  0  3  0  0  0  0  0  0
  193.2130  175.1370  134.8750 C   0  0  0  0  0  3  0  0  0  0  0  0
  194.0720  174.2230  135.4420 C   0  0  0  0  0  0  0  0  0  0  0  0
  193.5380  173.0370  136.0110 C   0  0  0  0  0  3  0  0  0  0  0  0
  191.8460  174.8980  134.9450 C   0  0  0  0  0  3  0  0  0  0  0  0
  191.2980  173.7960  135.5730 C   0  0  0  0  0  0  0  0  0  0  0  0
  195.5190  174.5420  135.6440 C   0  0  0  0  0  2  0  0  0  0  0  0
  196.1180  174.8760  137.9630 O   0  0  0  0  0  1  0  0  0  0  0  0
  197.3360  172.7580  136.9830 C   0  0  0  0  0  1  0  0  0  0  0  0
  196.0350  173.8660  137.0310 C   0  0  2  0  0  3  0  0  0  0  0  0
  181.5750  177.3360  138.3580 C   0  0  1  0  0  3  0  0  0  0  0  0
  180.7980  176.3680  137.6940 O   0  0  0  0  0  0  0  0  0  0  0  0
  182.0930  176.8350  137.1030 C   0  0  2  0  0  3  0  0  0  0  0  0
  180.9380  178.6470  138.2630 C   0  0  0  0  0  2  0  0  0  0  0  0
  180.9710  179.6010  139.4800 C   0  0  2  0  0  3  0  0  0  0  0  0
  182.7300  181.1440  138.9330 O   0  0  0  0  0  1  0  0  0  0  0  0
  181.3650  181.0220  138.9290 C   0  0  0  0  0  2  0  0  0  0  0  0
  181.9300  178.9630  140.4710 C   0  0  0  0  0  2  0  0  0  0  0  0
  181.9270  178.9390  143.0070 C   0  0  2  0  0  3  0  0  0  0  0  0
  179.3530  179.7090  142.6850 C   0  0  0  0  0  2  0  0  0  0  0  0
  181.0880  178.8690  144.2990 C   0  0  0  0  0  2  0  0  0  0  0  0
  179.8680  179.1190  141.5220 O   0  0  0  0  0  0  0  0  0  0  0  0
  179.6290  178.8870  143.9450 C   0  0  0  0  0  2  0  0  0  0  0  0
  181.1870  178.6130  141.7010 C   0  0  1  0  0  3  0  0  0  0  0  0
  183.2940  178.6260  143.0700 O   0  0  0  0  0  0  0  0  0  0  0  0
  183.7400  179.2190  144.2630 C   0  0  0  0  0  1  0  0  0  0  0  0
  1 11  1  6  0  0  0
  1  5  1  0  0  0  0
  1  2  1  0  0  0  0
  1 26  1  0  0  0  0
  2  4  1  0  0  0  0
  3  7  1  0  0  0  0
  3 15  1  0  0  0  0
  4  9  2  0  0  0  0
  5 12  2  0  0  0  0
  5 13  1  0  0  0  0
  7 14  1  0  0  0  0
 10 16  2  0  0  0  0
 12 10  1  0  0  0  0
 13  4  1  0  0  0  0
 13  6  2  0  0  0  0
 14 12  1  0  0  0  0
 15 10  1  0  0  0  0
 15  8  2  0  0  0  0
 16  6  1  0  0  0  0
 17 28  1  6  0  0  0
 17 24  1  0  0  0  0
 18 21  1  0  0  0  0
 19 23  1  0  0  0  0
 20 23  2  0  0  0  0
 21 20  1  0  0  0  0
 22 17  1  0  0  0  0
 24 25  1  0  0  0  0
 25 19  1  0  0  0  0
 26 22  1  0  0  0  0
 26 18  1  1  0  0  0
 27 22  2  0  0  0  0
 28 29  1  0  0  0  0
 30 29  1  0  0  0  0
 32 35  2  0  0  0  0
 32 33  1  0  0  0  0
 33 37  1  0  0  0  0
 33 34  2  0  0  0  0
 34 31  1  0  0  0  0
 35 36  1  0  0  0  0
 36  7  1  0  0  0  0
 36 31  2  0  0  0  0
 37 40  1  0  0  0  0
 40 39  1  6  0  0  0
 40 38  1  0  0  0  0
 41 44  1  6  0  0  0
 42 41  1  0  0  0  0
 43  9  1  1  0  0  0
 43 42  1  0  0  0  0
 43 41  1  0  0  0  0
 45 44  1  6  0  0  0
 45 48  1  0  0  0  0
 47 46  1  0  0  0  0
 47 45  1  0  0  0  0
 49 55  1  1  0  0  0
 49 51  1  0  0  0  0
 50 53  1  0  0  0  0
 52 54  1  0  0  0  0
 52 50  1  0  0  0  0
 53 51  1  0  0  0  0
 54 48  1  6  0  0  0
 54 49  1  0  0  0  0
 55 56  1  0  0  0  0
M  END
>  <MODEL>
4

>  <REMARK>
 VINA RESULT:      -5.4      2.942     11.753
  Name = 
  13 active torsions:
  status: ('A' for Active; 'I' for Inactive)
    1  A    between atoms: C_1  and  O_45
    2  A    between atoms: C_2  and  C_47
    3  A    between atoms: C_3  and  C_31
    4  A    between atoms: C_5  and  C_31
    5  A    between atoms: C_7  and  C_30
    6  A    between atoms: C_18  and  C_37
    7  A    between atoms: C_19  and  C_36
    8  A    between atoms: C_19  and  C_39
    9  A    between atoms: C_23  and  C_32
   10  A    between atoms: C_23  and  C_56
   11  A    between atoms: N_28  and  C_44
   12  A    between atoms: C_30  and  C_32
   13  A    between atoms: C_32  and  C_46
                            x       y       z     vdW  Elec       q    Type
                         _______ _______ _______ _____ _____    ______ ____

>  <TORSDO>
F 13

$$$$
=
 OpenBabel10222417153D

 56 62  0  0  1  0  0  0  0  0999 V2000
  185.0200  177.1560  137.7830 C   0  0  1  0  0  0  0  0  0  0  0  0
  183.6300  177.8440  137.9870 C   0  0  0  0  0  2  0  0  0  0  0  0
  189.3270  177.1380  141.0840 N   0  0  0  0  0  2  0  0  0  0  0  0
  183.6130  178.5780  139.2420 C   0  0  0  0  0  0  0  0  0  0  0  0
  185.8530  177.8110  138.9390 C   0  0  0  0  0  0  0  0  0  0  0  0
  185.2330  179.1560  140.8800 C   0  0  0  0  0  3  0  0  0  0  0  0
  189.5210  176.8370  139.6570 N   0  0  0  0  0  0  0  0  0  0  0  0
  188.8330  178.9450  142.4930 O   0  0  0  0  0  0  0  0  0  0  0  0
  182.5410  179.0060  139.8920 C   0  0  0  0  0  3  0  0  0  0  0  0
  187.4110  178.4250  140.6040 C   0  0  0  0  0  0  0  0  0  0  0  0
  184.7710  175.6930  138.1300 C   0  0  0  0  0  1  0  0  0  0  0  0
  187.2170  177.8070  139.3370 C   0  0  0  0  0  0  0  0  0  0  0  0
  184.9310  178.5860  139.6820 C   0  0  0  0  0  0  0  0  0  0  0  0
  188.3670  177.0850  138.7100 C   0  0  0  0  0  2  0  0  0  0  0  0
  188.5840  178.2310  141.5010 C   0  0  0  0  0  0  0  0  0  0  0  0
  186.4690  179.0030  141.3330 C   0  0  0  0  0  3  0  0  0  0  0  0
  185.5170  174.7380  134.9810 C   0  0  1  0  0  3  0  0  0  0  0  0
  186.3940  177.9710  135.4810 C   0  0  0  0  0  2  0  0  0  0  0  0
  188.5420  175.9370  134.6000 C   0  0  0  0  0  2  0  0  0  0  0  0
  188.9340  178.2890  135.5920 C   0  0  0  0  0  3  0  0  0  0  0  0
  187.6250  178.4390  136.3580 C   0  0  0  0  0  2  0  0  0  0  0  0
  184.7710  176.1270  135.2480 C   0  0  0  0  0  0  0  0  0  0  0  0
  189.3320  177.1990  134.8680 C   0  0  0  0  0  3  0  0  0  0  0  0
  186.8440  174.2850  135.6950 C   0  0  0  0  0  2  0  0  0  0  0  0
  187.9210  175.3840  135.9520 C   0  0  0  0  0  2  0  0  0  0  0  0
  185.1350  177.3500  136.2160 C   0  0  1  0  0  3  0  0  0  0  0  0
  183.7320  176.3380  134.5940 O   0  0  0  0  0  0  0  0  0  0  0  0
  184.5750  173.4860  134.9920 C   0  0  0  0  0  2  0  0  0  0  0  0
  184.6910  172.8160  136.3510 C   0  0  0  0  0  2  0  0  0  0  0  0
  183.4070  172.3450  136.9780 C   0  0  0  0  0  1  0  0  0  0  0  0
  191.9970  177.1600  139.6460 C   0  0  0  0  0  3  0  0  0  0  0  0
  192.0370  175.1490  137.6370 C   0  0  0  0  0  3  0  0  0  0  0  0
  193.1970  175.8210  137.9470 C   0  0  0  0  0  0  0  0  0  0  0  0
  193.1750  176.7930  138.9810 C   0  0  0  0  0  3  0  0  0  0  0  0
  190.8670  175.4990  138.3000 C   0  0  0  0  0  3  0  0  0  0  0  0
  190.8020  176.5040  139.2450 C   0  0  0  0  0  0  0  0  0  0  0  0
  194.4200  175.6900  137.0940 C   0  0  0  0  0  2  0  0  0  0  0  0
  196.4810  174.8590  138.0450 O   0  0  0  0  0  1  0  0  0  0  0  0
  195.3330  173.0160  136.5590 C   0  0  0  0  0  1  0  0  0  0  0  0
  195.2760  174.3930  137.5710 C   0  0  2  0  0  3  0  0  0  0  0  0
  180.7100  179.9730  138.6260 C   0  0  1  0  0  3  0  0  0  0  0  0
  180.2810  179.6950  139.9370 O   0  0  0  0  0  0  0  0  0  0  0  0
  181.2570  178.7890  139.2530 C   0  0  2  0  0  3  0  0  0  0  0  0
  179.6340  179.7060  137.6760 C   0  0  0  0  0  2  0  0  0  0  0  0
  179.7770  180.1770  136.2090 C   0  0  2  0  0  3  0  0  0  0  0  0
  181.3050  179.2280  134.6150 O   0  0  0  0  0  1  0  0  0  0  0  0
  180.2030  178.9150  135.3690 C   0  0  0  0  0  2  0  0  0  0  0  0
  180.7590  181.3350  136.2480 C   0  0  0  0  0  2  0  0  0  0  0  0
  180.1970  183.5190  137.4100 C   0  0  2  0  0  3  0  0  0  0  0  0
  180.4460  184.5320  134.9130 C   0  0  0  0  0  2  0  0  0  0  0  0
  179.6760  184.9620  137.2670 C   0  0  0  0  0  2  0  0  0  0  0  0
  180.2400  183.1450  134.8920 O   0  0  0  0  0  0  0  0  0  0  0  0
  179.4540  185.2700  135.8150 C   0  0  0  0  0  2  0  0  0  0  0  0
  180.0050  182.6060  136.1890 C   0  0  1  0  0  3  0  0  0  0  0  0
  180.1790  182.9140  138.6770 O   0  0  0  0  0  0  0  0  0  0  0  0
  178.9310  183.2640  139.2190 C   0  0  0  0  0  1  0  0  0  0  0  0
  1  2  1  0  0  0  0
  1 11  1  1  0  0  0
  1  5  1  0  0  0  0
  2  4  1  0  0  0  0
  3 15  1  0  0  0  0
  4 13  1  0  0  0  0
  4  9  2  0  0  0  0
  5 12  2  0  0  0  0
  5 13  1  0  0  0  0
  6 16  1  0  0  0  0
  7  3  1  0  0  0  0
 10 16  2  0  0  0  0
 10 15  1  0  0  0  0
 12 10  1  0  0  0  0
 13  6  2  0  0  0  0
 14 12  1  0  0  0  0
 14  7  1  0  0  0  0
 15  8  2  0  0  0  0
 17 28  1  1  0  0  0
 17 22  1  0  0  0  0
 17 24  1  0  0  0  0
 18 21  1  0  0  0  0
 19 23  1  0  0  0  0
 19 25  1  0  0  0  0
 20 21  1  0  0  0  0
 22 26  1  0  0  0  0
 23 20  2  0  0  0  0
 24 25  1  0  0  0  0
 26 18  1  1  0  0  0
 26  1  1  0  0  0  0
 27 22  2  0  0  0  0
 28 29  1  0  0  0  0
 29 30  1  0  0  0  0
 32 33  2  0  0  0  0
 32 35  1  0  0  0  0
 33 34  1  0  0  0  0
 34 31  2  0  0  0  0
 35 36  2  0  0  0  0
 36 31  1  0  0  0  0
 36  7  1  0  0  0  0
 37 40  1  0  0  0  0
 37 33  1  0  0  0  0
 40 39  1  6  0  0  0
 40 38  1  0  0  0  0
 41 44  1  6  0  0  0
 41 43  1  0  0  0  0
 41 42  1  0  0  0  0
 43  9  1  1  0  0  0
 43 42  1  0  0  0  0
 45 47  1  6  0  0  0
 45 48  1  0  0  0  0
 45 44  1  0  0  0  0
 46 47  1  0  0  0  0
 49 55  1  1  0  0  0
 50 53  1  0  0  0  0
 51 49  1  0  0  0  0
 52 50  1  0  0  0  0
 52 54  1  0  0  0  0
 53 51  1  0  0  0  0
 54 48  1  1  0  0  0
 54 49  1  0  0  0  0
 55 56  1  0  0  0  0
M  END
>  <MODEL>
5

>  <REMARK>
 VINA RESULT:      -5.3      2.094     11.642
  Name = 
  13 active torsions:
  status: ('A' for Active; 'I' for Inactive)
    1  A    between atoms: C_1  and  O_45
    2  A    between atoms: C_2  and  C_47
    3  A    between atoms: C_3  and  C_31
    4  A    between atoms: C_5  and  C_31
    5  A    between atoms: C_7  and  C_30
    6  A    between atoms: C_18  and  C_37
    7  A    between atoms: C_19  and  C_36
    8  A    between atoms: C_19  and  C_39
    9  A    between atoms: C_23  and  C_32
   10  A    between atoms: C_23  and  C_56
   11  A    between atoms: N_28  and  C_44
   12  A    between atoms: C_30  and  C_32
   13  A    between atoms: C_32  and  C_46
                            x       y       z     vdW  Elec       q    Type
                         _______ _______ _______ _____ _____    ______ ____

>  <TORSDO>
F 13

$$$$
=
 OpenBabel10222417153D

 56 62  0  0  1  0  0  0  0  0999 V2000
  186.5770  178.1200  139.6040 C   0  0  1  0  0  0  0  0  0  0  0  0
  185.3970  178.6440  138.7200 C   0  0  0  0  0  2  0  0  0  0  0  0
  186.6750  177.1980  144.9520 N   0  0  0  0  0  2  0  0  0  0  0  0
  184.2350  178.9230  139.5480 C   0  0  0  0  0  0  0  0  0  0  0  0
  186.0180  178.3930  141.0450 C   0  0  0  0  0  0  0  0  0  0  0  0
  183.8070  178.9970  141.8830 C   0  0  0  0  0  3  0  0  0  0  0  0
  187.9470  177.3920  144.2370 N   0  0  0  0  0  0  0  0  0  0  0  0
  184.8040  178.4180  145.6610 O   0  0  0  0  0  0  0  0  0  0  0  0
  182.9860  179.0680  139.1330 C   0  0  0  0  0  3  0  0  0  0  0  0
  185.5220  178.4900  143.3510 C   0  0  0  0  0  0  0  0  0  0  0  0
  186.5890  176.6150  139.3630 C   0  0  0  0  0  1  0  0  0  0  0  0
  186.5330  178.3150  142.3660 C   0  0  0  0  0  0  0  0  0  0  0  0
  184.6880  178.8410  140.8590 C   0  0  0  0  0  0  0  0  0  0  0  0
  187.8970  177.8880  142.8090 C   0  0  0  0  0  2  0  0  0  0  0  0
  185.6050  178.0610  144.7750 C   0  0  0  0  0  0  0  0  0  0  0  0
  184.2480  178.7560  143.1100 C   0  0  0  0  0  3  0  0  0  0  0  0
  187.8470  177.7800  136.1090 C   0  0  1  0  0  3  0  0  0  0  0  0
  189.2990  178.5210  139.0770 C   0  0  0  0  0  2  0  0  0  0  0  0
  190.5060  176.2930  137.3130 C   0  0  0  0  0  2  0  0  0  0  0  0
  190.9870  176.7380  139.8120 C   0  0  0  0  0  3  0  0  0  0  0  0
  189.6890  177.4500  140.1750 C   0  0  0  0  0  2  0  0  0  0  0  0
  187.7110  178.9110  137.2300 C   0  0  0  0  0  0  0  0  0  0  0  0
  191.3140  176.2170  138.5900 C   0  0  0  0  0  3  0  0  0  0  0  0
  188.0590  176.2490  136.4050 C   0  0  0  0  0  2  0  0  0  0  0  0
  188.9990  175.8820  137.5960 C   0  0  0  0  0  2  0  0  0  0  0  0
  187.7650  178.8240  138.8290 C   0  0  1  0  0  3  0  0  0  0  0  0
  187.5530  180.0800  136.8280 O   0  0  0  0  0  0  0  0  0  0  0  0
  186.7590  177.8510  134.9840 C   0  0  0  0  0  2  0  0  0  0  0  0
  186.1250  176.4770  134.8470 C   0  0  0  0  0  2  0  0  0  0  0  0
  184.6350  176.4420  134.6440 C   0  0  0  0  0  1  0  0  0  0  0  0
  190.4320  177.4320  144.4700 C   0  0  0  0  0  3  0  0  0  0  0  0
  189.9860  176.5130  147.1230 C   0  0  0  0  0  3  0  0  0  0  0  0
  191.2720  176.5860  146.6380 C   0  0  0  0  0  0  0  0  0  0  0  0
  191.4870  177.0860  145.3270 C   0  0  0  0  0  3  0  0  0  0  0  0
  188.9370  176.8640  146.2830 C   0  0  0  0  0  3  0  0  0  0  0  0
  189.1140  177.2670  144.9730 C   0  0  0  0  0  0  0  0  0  0  0  0
  192.4160  175.9730  147.3820 C   0  0  0  0  0  2  0  0  0  0  0  0
  191.9850  177.8870  148.7950 O   0  0  0  0  0  1  0  0  0  0  0  0
  193.9310  176.4180  149.7870 C   0  0  0  0  0  1  0  0  0  0  0  0
  192.4970  176.6120  148.8750 C   0  0  2  0  0  3  0  0  0  0  0  0
  181.3900  178.7460  137.3320 C   0  0  1  0  0  3  0  0  0  0  0  0
  182.2610  177.6420  137.3930 O   0  0  0  0  0  0  0  0  0  0  0  0
  182.7630  179.0190  137.7000 C   0  0  2  0  0  3  0  0  0  0  0  0
  181.0680  179.0580  135.9420 C   0  0  0  0  0  2  0  0  0  0  0  0
  179.8770  179.9960  135.6280 C   0  0  2  0  0  3  0  0  0  0  0  0
  179.0920  177.8820  134.7960 O   0  0  0  0  0  1  0  0  0  0  0  0
  178.9620  179.2330  134.5990 C   0  0  0  0  0  2  0  0  0  0  0  0
  180.4990  181.2980  135.1540 C   0  0  0  0  0  2  0  0  0  0  0  0
  180.2960  183.0380  136.9890 C   0  0  2  0  0  3  0  0  0  0  0  0
  179.5890  184.6480  134.9320 C   0  0  0  0  0  2  0  0  0  0  0  0
  179.6970  184.3870  137.4300 C   0  0  0  0  0  2  0  0  0  0  0  0
  179.4500  183.2930  134.6020 O   0  0  0  0  0  0  0  0  0  0  0  0
  178.9550  185.0030  136.2790 C   0  0  0  0  0  2  0  0  0  0  0  0
  179.7190  182.4290  135.7020 C   0  0  1  0  0  3  0  0  0  0  0  0
  180.7610  182.1490  137.9720 O   0  0  0  0  0  0  0  0  0  0  0  0
  182.0550  182.6030  138.2770 C   0  0  0  0  0  1  0  0  0  0  0  0
  1 11  1  6  0  0  0
  1  5  1  0  0  0  0
  2  4  1  0  0  0  0
  2  1  1  0  0  0  0
  4 13  1  0  0  0  0
  5 12  1  0  0  0  0
  6 16  2  0  0  0  0
  7  3  1  0  0  0  0
  7 36  1  0  0  0  0
  9  4  2  0  0  0  0
 10 15  1  0  0  0  0
 12 14  1  0  0  0  0
 12 10  2  0  0  0  0
 13  5  2  0  0  0  0
 13  6  1  0  0  0  0
 14  7  1  0  0  0  0
 15  3  1  0  0  0  0
 15  8  2  0  0  0  0
 16 10  1  0  0  0  0
 17 28  1  1  0  0  0
 17 24  1  0  0  0  0
 17 22  1  0  0  0  0
 18 21  1  0  0  0  0
 19 25  1  0  0  0  0
 19 23  1  0  0  0  0
 20 21  1  0  0  0  0
 22 26  1  0  0  0  0
 23 20  2  0  0  0  0
 24 25  1  0  0  0  0
 26 18  1  6  0  0  0
 26  1  1  0  0  0  0
 27 22  2  0  0  0  0
 29 28  1  0  0  0  0
 30 29  1  0  0  0  0
 31 36  2  0  0  0  0
 31 34  1  0  0  0  0
 33 32  1  0  0  0  0
 33 37  1  0  0  0  0
 34 33  2  0  0  0  0
 35 32  2  0  0  0  0
 36 35  1  0  0  0  0
 37 40  1  0  0  0  0
 38 40  1  0  0  0  0
 40 39  1  6  0  0  0
 41 44  1  6  0  0  0
 41 42  1  0  0  0  0
 41 43  1  0  0  0  0
 42 43  1  0  0  0  0
 43  9  1  1  0  0  0
 45 47  1  6  0  0  0
 45 44  1  0  0  0  0
 47 46  1  0  0  0  0
 48 45  1  0  0  0  0
 49 51  1  0  0  0  0
 49 55  1  1  0  0  0
 50 53  1  0  0  0  0
 52 50  1  0  0  0  0
 52 54  1  0  0  0  0
 53 51  1  0  0  0  0
 54 48  1  6  0  0  0
 54 49  1  0  0  0  0
 55 56  1  0  0  0  0
M  END
>  <MODEL>
6

>  <REMARK>
 VINA RESULT:      -5.3      4.536     11.878
  Name = 
  13 active torsions:
  status: ('A' for Active; 'I' for Inactive)
    1  A    between atoms: C_1  and  O_45
    2  A    between atoms: C_2  and  C_47
    3  A    between atoms: C_3  and  C_31
    4  A    between atoms: C_5  and  C_31
    5  A    between atoms: C_7  and  C_30
    6  A    between atoms: C_18  and  C_37
    7  A    between atoms: C_19  and  C_36
    8  A    between atoms: C_19  and  C_39
    9  A    between atoms: C_23  and  C_32
   10  A    between atoms: C_23  and  C_56
   11  A    between atoms: N_28  and  C_44
   12  A    between atoms: C_30  and  C_32
   13  A    between atoms: C_32  and  C_46
                            x       y       z     vdW  Elec       q    Type
                         _______ _______ _______ _____ _____    ______ ____

>  <TORSDO>
F 13

$$$$
=
 OpenBabel10222417153D

 56 62  0  0  1  0  0  0  0  0999 V2000
  188.9490  177.2580  141.4140 C   0  0  1  0  0  0  0  0  0  0  0  0
  187.4810  177.7940  141.4650 C   0  0  0  0  0  2  0  0  0  0  0  0
  192.2370  176.7340  137.1280 N   0  0  0  0  0  2  0  0  0  0  0  0
  187.0240  178.1330  140.1270 C   0  0  0  0  0  0  0  0  0  0  0  0
  189.1570  177.0920  139.8680 C   0  0  0  0  0  0  0  0  0  0  0  0
  187.8770  177.8420  137.9290 C   0  0  0  0  0  3  0  0  0  0  0  0
  192.5140  175.9470  138.3400 N   0  0  0  0  0  0  0  0  0  0  0  0
  190.7030  176.8370  135.3590 O   0  0  0  0  0  0  0  0  0  0  0  0
  185.9870  178.8960  139.8160 C   0  0  0  0  0  3  0  0  0  0  0  0
  189.9410  176.8320  137.6560 C   0  0  0  0  0  0  0  0  0  0  0  0
  189.7960  178.4300  141.8970 C   0  0  0  0  0  1  0  0  0  0  0  0
  190.1640  176.5430  139.0310 C   0  0  0  0  0  0  0  0  0  0  0  0
  187.9930  177.6280  139.2680 C   0  0  0  0  0  0  0  0  0  0  0  0
  191.4630  175.9140  139.4280 C   0  0  0  0  0  2  0  0  0  0  0  0
  190.9670  176.7950  136.5770 C   0  0  0  0  0  0  0  0  0  0  0  0
  188.8980  177.4820  137.1640 C   0  0  0  0  0  3  0  0  0  0  0  0
  187.3220  177.2770  144.7760 C   0  0  1  0  0  3  0  0  0  0  0  0
  190.0140  175.6860  143.4750 C   0  0  0  0  0  2  0  0  0  0  0  0
  190.3080  177.2430  146.1240 C   0  0  0  0  0  2  0  0  0  0  0  0
  192.2080  176.4050  144.5860 C   0  0  0  0  0  3  0  0  0  0  0  0
  191.4360  176.3500  143.2730 C   0  0  0  0  0  2  0  0  0  0  0  0
  187.6140  176.2440  143.5900 C   0  0  0  0  0  0  0  0  0  0  0  0
  191.7240  176.8200  145.7960 C   0  0  0  0  0  3  0  0  0  0  0  0
  188.2430  178.5000  145.1410 C   0  0  0  0  0  2  0  0  0  0  0  0
  189.7850  178.2810  145.0430 C   0  0  0  0  0  2  0  0  0  0  0  0
  188.8220  176.1550  142.5430 C   0  0  1  0  0  3  0  0  0  0  0  0
  186.7880  175.3240  143.4360 O   0  0  0  0  0  0  0  0  0  0  0  0
  185.8530  177.8210  144.8130 C   0  0  0  0  0  2  0  0  0  0  0  0
  185.7290  178.7760  145.9880 C   0  0  0  0  0  2  0  0  0  0  0  0
  184.9660  178.2730  147.1830 C   0  0  0  0  0  1  0  0  0  0  0  0
  194.7450  175.2680  139.2310 C   0  0  0  0  0  3  0  0  0  0  0  0
  194.8440  173.4780  137.0250 C   0  0  0  0  0  3  0  0  0  0  0  0
  195.9520  173.6270  137.8270 C   0  0  0  0  0  0  0  0  0  0  0  0
  195.8780  174.4910  138.9510 C   0  0  0  0  0  3  0  0  0  0  0  0
  193.7140  174.2370  137.3020 C   0  0  0  0  0  3  0  0  0  0  0  0
  193.6490  175.1520  138.3360 C   0  0  0  0  0  0  0  0  0  0  0  0
  197.2770  173.0550  137.4330 C   0  0  0  0  0  2  0  0  0  0  0  0
  198.2520  175.2670  137.3790 O   0  0  0  0  0  1  0  0  0  0  0  0
  197.6790  174.4430  134.9460 C   0  0  0  0  0  1  0  0  0  0  0  0
  198.1100  174.1580  136.5760 C   0  0  2  0  0  3  0  0  0  0  0  0
  183.9480  178.6410  141.1080 C   0  0  1  0  0  3  0  0  0  0  0  0
  183.8690  179.8100  140.3290 O   0  0  0  0  0  0  0  0  0  0  0  0
  185.1770  179.3810  140.9180 C   0  0  2  0  0  3  0  0  0  0  0  0
  183.3140  178.8560  142.4070 C   0  0  0  0  0  2  0  0  0  0  0  0
  181.7760  178.9990  142.4890 C   0  0  2  0  0  3  0  0  0  0  0  0
  180.0560  178.9720  144.1690 O   0  0  0  0  0  1  0  0  0  0  0  0
  181.3660  178.6200  143.9620 C   0  0  0  0  0  2  0  0  0  0  0  0
  181.2250  178.1210  141.3790 C   0  0  0  0  0  2  0  0  0  0  0  0
  179.7380  178.2830  139.3310 C   0  0  2  0  0  3  0  0  0  0  0  0
  179.0680  180.6720  140.4100 C   0  0  0  0  0  2  0  0  0  0  0  0
  178.9460  179.1990  138.3770 C   0  0  0  0  0  2  0  0  0  0  0  0
  180.2800  180.1910  140.9260 O   0  0  0  0  0  0  0  0  0  0  0  0
  179.0030  180.6110  138.8830 C   0  0  0  0  0  2  0  0  0  0  0  0
  180.7030  178.9850  140.2980 C   0  0  1  0  0  3  0  0  0  0  0  0
  180.0810  176.9910  138.9000 O   0  0  0  0  0  0  0  0  0  0  0  0
  180.3630  177.1370  137.5310 C   0  0  0  0  0  1  0  0  0  0  0  0
  1  2  1  0  0  0  0
  1 11  1  1  0  0  0
  1 26  1  0  0  0  0
  3  7  1  0  0  0  0
  4  2  1  0  0  0  0
  5  1  1  0  0  0  0
  6 13  2  0  0  0  0
  7 14  1  0  0  0  0
  8 15  2  0  0  0  0
  9  4  2  0  0  0  0
 10 12  1  0  0  0  0
 12 14  1  0  0  0  0
 12  5  2  0  0  0  0
 13  5  1  0  0  0  0
 13  4  1  0  0  0  0
 15  3  1  0  0  0  0
 15 10  1  0  0  0  0
 16 10  2  0  0  0  0
 16  6  1  0  0  0  0
 17 28  1  6  0  0  0
 17 24  1  0  0  0  0
 20 23  2  0  0  0  0
 21 18  1  0  0  0  0
 21 20  1  0  0  0  0
 22 17  1  0  0  0  0
 23 19  1  0  0  0  0
 25 24  1  0  0  0  0
 25 19  1  0  0  0  0
 26 18  1  1  0  0  0
 26 22  1  0  0  0  0
 27 22  2  0  0  0  0
 28 29  1  0  0  0  0
 29 30  1  0  0  0  0
 32 35  2  0  0  0  0
 32 33  1  0  0  0  0
 33 34  2  0  0  0  0
 34 31  1  0  0  0  0
 35 36  1  0  0  0  0
 36  7  1  0  0  0  0
 36 31  2  0  0  0  0
 37 33  1  0  0  0  0
 40 39  1  6  0  0  0
 40 38  1  0  0  0  0
 40 37  1  0  0  0  0
 41 44  1  1  0  0  0
 42 43  1  0  0  0  0
 42 41  1  0  0  0  0
 43  9  1  6  0  0  0
 43 41  1  0  0  0  0
 44 45  1  0  0  0  0
 45 48  1  6  0  0  0
 45 47  1  0  0  0  0
 47 46  1  0  0  0  0
 49 55  1  6  0  0  0
 49 54  1  0  0  0  0
 50 52  1  0  0  0  0
 51 53  1  0  0  0  0
 51 49  1  0  0  0  0
 53 50  1  0  0  0  0
 54 52  1  0  0  0  0
 54 48  1  1  0  0  0
 56 55  1  0  0  0  0
M  END
>  <MODEL>
7

>  <REMARK>
 VINA RESULT:      -4.8      3.375     12.427
  Name = 
  13 active torsions:
  status: ('A' for Active; 'I' for Inactive)
    1  A    between atoms: C_1  and  O_45
    2  A    between atoms: C_2  and  C_47
    3  A    between atoms: C_3  and  C_31
    4  A    between atoms: C_5  and  C_31
    5  A    between atoms: C_7  and  C_30
    6  A    between atoms: C_18  and  C_37
    7  A    between atoms: C_19  and  C_36
    8  A    between atoms: C_19  and  C_39
    9  A    between atoms: C_23  and  C_32
   10  A    between atoms: C_23  and  C_56
   11  A    between atoms: N_28  and  C_44
   12  A    between atoms: C_30  and  C_32
   13  A    between atoms: C_32  and  C_46
                            x       y       z     vdW  Elec       q    Type
                         _______ _______ _______ _____ _____    ______ ____

>  <TORSDO>
F 13

$$$$
=
 OpenBabel10222417153D

 56 62  0  0  1  0  0  0  0  0999 V2000
  186.1500  175.6760  137.0300 C   0  0  1  0  0  0  0  0  0  0  0  0
  185.1600  176.8070  137.4630 C   0  0  0  0  0  2  0  0  0  0  0  0
  191.3880  175.0620  138.3100 N   0  0  0  0  0  2  0  0  0  0  0  0
  185.8490  177.7900  138.2840 C   0  0  0  0  0  0  0  0  0  0  0  0
  187.5220  176.2850  137.4860 C   0  0  0  0  0  0  0  0  0  0  0  0
  188.1090  178.1900  138.8950 C   0  0  0  0  0  3  0  0  0  0  0  0
  190.8590  174.3750  137.1210 N   0  0  0  0  0  0  0  0  0  0  0  0
  191.9340  177.2180  139.0510 O   0  0  0  0  0  0  0  0  0  0  0  0
  185.2870  178.6890  139.0780 C   0  0  0  0  0  3  0  0  0  0  0  0
  189.7460  176.7450  138.1300 C   0  0  0  0  0  0  0  0  0  0  0  0
  185.8080  174.5050  137.9450 C   0  0  0  0  0  1  0  0  0  0  0  0
  188.8900  175.9350  137.3350 C   0  0  0  0  0  0  0  0  0  0  0  0
  187.1980  177.4750  138.1810 C   0  0  0  0  0  0  0  0  0  0  0  0
  189.4740  174.7460  136.6370 C   0  0  0  0  0  2  0  0  0  0  0  0
  191.1360  176.4050  138.5450 C   0  0  0  0  0  0  0  0  0  0  0  0
  189.3620  177.7580  138.8910 C   0  0  0  0  0  3  0  0  0  0  0  0
  182.7860  174.6430  135.7780 C   0  0  1  0  0  3  0  0  0  0  0  0
  185.9530  174.1860  134.6650 C   0  0  0  0  0  2  0  0  0  0  0  0
  184.0800  171.7480  134.9510 C   0  0  0  0  0  2  0  0  0  0  0  0
  186.6490  171.7200  134.6830 C   0  0  0  0  0  3  0  0  0  0  0  0
  186.9560  173.1060  135.2390 C   0  0  0  0  0  2  0  0  0  0  0  0
  184.0090  175.5620  135.3120 C   0  0  0  0  0  0  0  0  0  0  0  0
  185.4160  171.1350  134.5940 C   0  0  0  0  0  3  0  0  0  0  0  0
  182.9280  173.3490  136.6620 C   0  0  0  0  0  2  0  0  0  0  0  0
  184.1590  172.4310  136.3830 C   0  0  0  0  0  2  0  0  0  0  0  0
  185.5840  175.4320  135.5710 C   0  0  1  0  0  3  0  0  0  0  0  0
  183.7280  176.5500  134.6070 O   0  0  0  0  0  0  0  0  0  0  0  0
  181.5710  175.4350  136.3700 C   0  0  0  0  0  2  0  0  0  0  0  0
  181.3690  174.9900  137.8080 C   0  0  0  0  0  2  0  0  0  0  0  0
  182.3950  175.4550  138.8060 C   0  0  0  0  0  1  0  0  0  0  0  0
  191.3500  172.5050  135.5420 C   0  0  0  0  0  3  0  0  0  0  0  0
  194.0760  172.9140  136.2400 C   0  0  0  0  0  3  0  0  0  0  0  0
  193.7320  171.8410  135.4490 C   0  0  0  0  0  0  0  0  0  0  0  0
  192.3740  171.6700  135.0720 C   0  0  0  0  0  3  0  0  0  0  0  0
  193.0670  173.7520  136.7010 C   0  0  0  0  0  3  0  0  0  0  0  0
  191.7290  173.5540  136.4220 C   0  0  0  0  0  0  0  0  0  0  0  0
  194.7160  170.7560  135.1460 C   0  0  0  0  0  2  0  0  0  0  0  0
  193.6140  169.6350  136.9830 O   0  0  0  0  0  1  0  0  0  0  0  0
  196.1490  170.0650  137.5420 C   0  0  0  0  0  1  0  0  0  0  0  0
  194.8700  169.7860  136.4420 C   0  0  2  0  0  3  0  0  0  0  0  0
  183.3000  179.7050  138.1250 C   0  0  1  0  0  3  0  0  0  0  0  0
  183.4710  180.1550  139.4470 O   0  0  0  0  0  0  0  0  0  0  0  0
  183.8370  178.7520  139.0720 C   0  0  2  0  0  3  0  0  0  0  0  0
  181.8790  179.5240  137.8340 C   0  0  0  0  0  2  0  0  0  0  0  0
  180.8390  179.7250  138.9610 C   0  0  2  0  0  3  0  0  0  0  0  0
  180.2870  178.0950  140.6390 O   0  0  0  0  0  1  0  0  0  0  0  0
  180.2440  178.3030  139.2840 C   0  0  0  0  0  2  0  0  0  0  0  0
  179.8670  180.7680  138.4360 C   0  0  0  0  0  2  0  0  0  0  0  0
  179.6260  181.5520  136.0360 C   0  0  2  0  0  3  0  0  0  0  0  0
  180.8070  183.7910  136.9940 C   0  0  0  0  0  2  0  0  0  0  0  0
  180.1030  182.5240  134.9390 C   0  0  0  0  0  2  0  0  0  0  0  0
  181.0190  182.6910  137.8370 O   0  0  0  0  0  0  0  0  0  0  0  0
  181.0990  183.4840  135.5240 C   0  0  0  0  0  2  0  0  0  0  0  0
  180.4940  181.4800  137.3010 C   0  0  1  0  0  3  0  0  0  0  0  0
  178.9390  180.3880  135.6570 O   0  0  0  0  0  0  0  0  0  0  0  0
  179.7020  179.8530  134.6050 C   0  0  0  0  0  1  0  0  0  0  0  0
  1  2  1  0  0  0  0
  1  5  1  0  0  0  0
  1 11  1  1  0  0  0
  2  4  1  0  0  0  0
  3 15  1  0  0  0  0
  4  9  2  0  0  0  0
  5 13  1  0  0  0  0
  7  3  1  0  0  0  0
 10 15  1  0  0  0  0
 10 16  2  0  0  0  0
 12  5  2  0  0  0  0
 12 10  1  0  0  0  0
 13  4  1  0  0  0  0
 13  6  2  0  0  0  0
 14  7  1  0  0  0  0
 14 12  1  0  0  0  0
 15  8  2  0  0  0  0
 16  6  1  0  0  0  0
 17 28  1  1  0  0  0
 17 24  1  0  0  0  0
 18 21  1  0  0  0  0
 19 25  1  0  0  0  0
 20 21  1  0  0  0  0
 22 26  1  0  0  0  0
 22 17  1  0  0  0  0
 23 20  2  0  0  0  0
 23 19  1  0  0  0  0
 25 24  1  0  0  0  0
 26 18  1  1  0  0  0
 26  1  1  0  0  0  0
 27 22  2  0  0  0  0
 28 29  1  0  0  0  0
 29 30  1  0  0  0  0
 31 36  1  0  0  0  0
 32 35  1  0  0  0  0
 33 32  2  0  0  0  0
 34 33  1  0  0  0  0
 34 31  2  0  0  0  0
 36 35  2  0  0  0  0
 36  7  1  0  0  0  0
 37 33  1  0  0  0  0
 37 40  1  0  0  0  0
 40 38  1  0  0  0  0
 40 39  1  1  0  0  0
 41 44  1  1  0  0  0
 41 43  1  0  0  0  0
 41 42  1  0  0  0  0
 43  9  1  6  0  0  0
 43 42  1  0  0  0  0
 45 44  1  6  0  0  0
 45 47  1  0  0  0  0
 47 46  1  0  0  0  0
 48 45  1  0  0  0  0
 49 55  1  6  0  0  0
 49 54  1  0  0  0  0
 50 52  1  0  0  0  0
 51 53  1  0  0  0  0
 51 49  1  0  0  0  0
 53 50  1  0  0  0  0
 54 52  1  0  0  0  0
 54 48  1  1  0  0  0
 56 55  1  0  0  0  0
M  END
>  <MODEL>
8

>  <REMARK>
 VINA RESULT:      -4.8      2.528     11.742
  Name = 
  13 active torsions:
  status: ('A' for Active; 'I' for Inactive)
    1  A    between atoms: C_1  and  O_45
    2  A    between atoms: C_2  and  C_47
    3  A    between atoms: C_3  and  C_31
    4  A    between atoms: C_5  and  C_31
    5  A    between atoms: C_7  and  C_30
    6  A    between atoms: C_18  and  C_37
    7  A    between atoms: C_19  and  C_36
    8  A    between atoms: C_19  and  C_39
    9  A    between atoms: C_23  and  C_32
   10  A    between atoms: C_23  and  C_56
   11  A    between atoms: N_28  and  C_44
   12  A    between atoms: C_30  and  C_32
   13  A    between atoms: C_32  and  C_46
                            x       y       z     vdW  Elec       q    Type
                         _______ _______ _______ _____ _____    ______ ____

>  <TORSDO>
F 13

$$$$
=
 OpenBabel10222417153D

 56 62  0  0  1  0  0  0  0  0999 V2000
  189.2170  177.1860  139.7680 C   0  0  1  0  0  0  0  0  0  0  0  0
  190.6930  177.0710  139.2610 C   0  0  0  0  0  2  0  0  0  0  0  0
  184.6130  177.0700  136.8960 N   0  0  0  0  0  2  0  0  0  0  0  0
  190.7180  176.9580  137.8120 C   0  0  0  0  0  0  0  0  0  0  0  0
  188.4490  177.3900  138.4150 C   0  0  0  0  0  0  0  0  0  0  0  0
  189.1080  177.1490  136.0770 C   0  0  0  0  0  3  0  0  0  0  0  0
  184.6010  177.6700  138.2400 N   0  0  0  0  0  0  0  0  0  0  0  0
  185.4100  177.5080  134.7350 O   0  0  0  0  0  0  0  0  0  0  0  0
  191.7300  176.5310  137.0710 C   0  0  0  0  0  3  0  0  0  0  0  0
  186.9030  177.5700  136.6390 C   0  0  0  0  0  0  0  0  0  0  0  0
  188.8940  175.7980  140.3080 C   0  0  0  0  0  1  0  0  0  0  0  0
  187.1140  177.6960  138.0400 C   0  0  0  0  0  0  0  0  0  0  0  0
  189.4210  177.2340  137.3980 C   0  0  0  0  0  0  0  0  0  0  0  0
  185.9270  177.9180  138.9250 C   0  0  0  0  0  2  0  0  0  0  0  0
  185.5870  177.3960  135.9650 C   0  0  0  0  0  0  0  0  0  0  0  0
  187.8300  177.2640  135.7440 C   0  0  0  0  0  3  0  0  0  0  0  0
  190.3440  176.7100  143.2960 C   0  0  1  0  0  3  0  0  0  0  0  0
  188.3200  178.9460  141.7550 C   0  0  0  0  0  2  0  0  0  0  0  0
  187.3130  177.4760  144.2760 C   0  0  0  0  0  2  0  0  0  0  0  0
  185.8930  178.7860  142.5610 C   0  0  0  0  0  3  0  0  0  0  0  0
  186.8160  178.6640  141.3540 C   0  0  0  0  0  2  0  0  0  0  0  0
  190.4720  177.8000  142.1330 C   0  0  0  0  0  0  0  0  0  0  0  0
  186.1000  178.2450  143.8000 C   0  0  0  0  0  3  0  0  0  0  0  0
  189.1110  175.7530  143.4920 C   0  0  0  0  0  2  0  0  0  0  0  0
  187.6970  176.3550  143.2180 C   0  0  0  0  0  2  0  0  0  0  0  0
  189.4680  178.2060  140.9530 C   0  0  1  0  0  3  0  0  0  0  0  0
  191.5130  178.4850  142.1220 O   0  0  0  0  0  0  0  0  0  0  0  0
  191.6160  175.8150  143.4850 C   0  0  0  0  0  2  0  0  0  0  0  0
  191.9060  175.7080  144.9730 C   0  0  0  0  0  2  0  0  0  0  0  0
  191.5630  176.9100  145.8100 C   0  0  0  0  0  1  0  0  0  0  0  0
  182.9610  179.4790  138.7620 C   0  0  0  0  0  3  0  0  0  0  0  0
  181.4070  177.4280  139.9710 C   0  0  0  0  0  3  0  0  0  0  0  0
  181.0130  178.7400  140.0960 C   0  0  0  0  0  0  0  0  0  0  0  0
  181.7720  179.7520  139.4530 C   0  0  0  0  0  3  0  0  0  0  0  0
  182.5790  177.1480  139.2790 C   0  0  0  0  0  3  0  0  0  0  0  0
  183.3840  178.1230  138.7220 C   0  0  0  0  0  0  0  0  0  0  0  0
  179.9260  179.1360  141.0460 C   0  0  0  0  0  2  0  0  0  0  0  0
  179.1040  178.6510  143.2670 O   0  0  0  0  0  1  0  0  0  0  0  0
  181.7110  179.0090  143.2990 C   0  0  0  0  0  1  0  0  0  0  0  0
  180.2580  178.5460  142.5250 C   0  0  2  0  0  3  0  0  0  0  0  0
  193.8300  175.3160  137.0370 C   0  0  1  0  0  3  0  0  0  0  0  0
  192.9640  174.7330  137.9800 O   0  0  0  0  0  0  0  0  0  0  0  0
  192.9630  176.2150  137.7670 C   0  0  2  0  0  3  0  0  0  0  0  0
  195.2070  175.2810  137.5260 C   0  0  0  0  0  2  0  0  0  0  0  0
  196.1950  174.2410  136.9470 C   0  0  2  0  0  3  0  0  0  0  0  0
  197.7880  175.9760  136.4660 O   0  0  0  0  0  1  0  0  0  0  0  0
  197.6430  174.8150  137.1820 C   0  0  0  0  0  2  0  0  0  0  0  0
  195.7690  174.0330  135.5040 C   0  0  0  0  0  2  0  0  0  0  0  0
  196.5890  171.6500  135.7900 C   0  0  2  0  0  3  0  0  0  0  0  0
  194.0060  171.1870  136.4490 C   0  0  0  0  0  2  0  0  0  0  0  0
  196.2210  170.1550  135.8580 C   0  0  0  0  0  2  0  0  0  0  0  0
  194.1530  172.3840  135.7340 O   0  0  0  0  0  0  0  0  0  0  0  0
  194.7280  170.0080  135.7950 C   0  0  0  0  0  2  0  0  0  0  0  0
  195.4890  172.5970  135.2890 C   0  0  1  0  0  3  0  0  0  0  0  0
  197.9210  172.0090  135.5220 O   0  0  0  0  0  0  0  0  0  0  0  0
  198.6820  171.2350  136.4140 C   0  0  0  0  0  1  0  0  0  0  0  0
  1 11  1  1  0  0  0
  1 26  1  0  0  0  0
  2  1  1  0  0  0  0
  3  7  1  0  0  0  0
  4  2  1  0  0  0  0
  5  1  1  0  0  0  0
  6 13  1  0  0  0  0
  7 36  1  0  0  0  0
  7 14  1  0  0  0  0
  8 15  2  0  0  0  0
  9  4  2  0  0  0  0
 10 12  2  0  0  0  0
 12  5  1  0  0  0  0
 12 14  1  0  0  0  0
 13  4  1  0  0  0  0
 13  5  2  0  0  0  0
 15 10  1  0  0  0  0
 15  3  1  0  0  0  0
 16  6  2  0  0  0  0
 16 10  1  0  0  0  0
 17 28  1  6  0  0  0
 17 24  1  0  0  0  0
 20 23  2  0  0  0  0
 21 18  1  0  0  0  0
 21 20  1  0  0  0  0
 22 17  1  0  0  0  0
 23 19  1  0  0  0  0
 25 24  1  0  0  0  0
 25 19  1  0  0  0  0
 26 18  1  1  0  0  0
 26 22  1  0  0  0  0
 27 22  2  0  0  0  0
 28 29  1  0  0  0  0
 29 30  1  0  0  0  0
 31 34  1  0  0  0  0
 32 33  1  0  0  0  0
 33 37  1  0  0  0  0
 34 33  2  0  0  0  0
 35 32  2  0  0  0  0
 36 31  2  0  0  0  0
 36 35  1  0  0  0  0
 37 40  1  0  0  0  0
 40 38  1  0  0  0  0
 40 39  1  1  0  0  0
 41 44  1  1  0  0  0
 41 43  1  0  0  0  0
 41 42  1  0  0  0  0
 43  9  1  6  0  0  0
 43 42  1  0  0  0  0
 45 48  1  6  0  0  0
 45 47  1  0  0  0  0
 45 44  1  0  0  0  0
 46 47  1  0  0  0  0
 49 55  1  6  0  0  0
 49 51  1  0  0  0  0
 52 50  1  0  0  0  0
 53 51  1  0  0  0  0
 53 50  1  0  0  0  0
 54 48  1  1  0  0  0
 54 52  1  0  0  0  0
 54 49  1  0  0  0  0
 55 56  1  0  0  0  0
M  END
>  <MODEL>
9

>  <REMARK>
 VINA RESULT:      -4.7      2.328      5.371
  Name = 
  13 active torsions:
  status: ('A' for Active; 'I' for Inactive)
    1  A    between atoms: C_1  and  O_45
    2  A    between atoms: C_2  and  C_47
    3  A    between atoms: C_3  and  C_31
    4  A    between atoms: C_5  and  C_31
    5  A    between atoms: C_7  and  C_30
    6  A    between atoms: C_18  and  C_37
    7  A    between atoms: C_19  and  C_36
    8  A    between atoms: C_19  and  C_39
    9  A    between atoms: C_23  and  C_32
   10  A    between atoms: C_23  and  C_56
   11  A    between atoms: N_28  and  C_44
   12  A    between atoms: C_30  and  C_32
   13  A    between atoms: C_32  and  C_46
                            x       y       z     vdW  Elec       q    Type
                         _______ _______ _______ _____ _____    ______ ____

>  <TORSDO>
F 13

$$$$
