=
 OpenBabel10222415393D

 40 45  0  0  1  0  0  0  0  0999 V2000
  182.5580  179.0800  137.7340 C   0  0  0  0  0  2  0  0  0  0  0  0
  186.4080  177.3050  137.6600 C   0  0  1  0  0  0  0  0  0  0  0  0
  183.1750  177.2420  134.8340 C   0  0  0  0  0  2  0  0  0  0  0  0
  189.4370  178.3840  141.4560 C   0  0  0  0  0  2  0  0  0  0  0  0
  188.9020  177.3690  137.3360 C   0  0  0  0  0  0  0  0  0  0  0  0
  184.9530  176.3790  135.8190 C   0  0  0  0  0  2  0  0  0  0  0  0
  185.5070  176.1450  137.2180 C   0  0  1  0  0  3  0  0  0  0  0  0
  184.4490  178.0570  139.0920 C   0  0  0  0  0  2  0  0  0  0  0  0
  187.9810  177.8780  139.5250 C   0  0  1  0  0  3  0  0  0  0  0  0
  187.5840  177.6810  136.7130 C   0  0  2  0  0  3  0  0  0  0  0  0
  181.7080  177.8460  137.8540 C   0  0  0  0  0  0  0  0  0  0  0  0
  185.8720  178.3130  138.6000 C   0  0  1  0  0  3  0  0  0  0  0  0
  190.9890  176.7600  137.7120 C   0  0  0  0  0  0  0  0  0  0  0  0
  189.0800  177.4350  138.6620 N   0  0  0  0  0  0  0  0  0  0  0  0
  191.0390  176.9600  140.2170 C   0  0  0  0  0  3  0  0  0  0  0  0
  181.1760  177.5710  138.9670 O   0  0  0  0  0  0  0  0  0  0  0  0
  186.7270  177.2290  139.1190 N   0  0  1  0  0  0  0  0  0  0  0  0
  181.4780  176.9910  136.7200 N   0  0  0  0  0  0  0  0  0  0  0  0
  190.6390  177.5010  141.3710 C   0  0  0  0  0  0  0  0  0  0  0  0
  190.3680  177.0780  138.9070 C   0  0  0  0  0  0  0  0  0  0  0  0
  187.5300  179.1290  136.2580 C   0  0  0  0  0  1  0  0  0  0  0  0
  190.0560  176.9580  136.7020 C   0  0  0  0  0  0  0  0  0  0  0  0
  188.2190  177.6140  141.0010 C   0  0  0  0  0  2  0  0  0  0  0  0
  181.7960  177.4100  135.3880 C   0  0  0  0  0  0  0  0  0  0  0  0
  184.1310  177.5050  135.8130 O   0  0  0  0  0  0  0  0  0  0  0  0
  184.1830  180.4630  138.8400 O   0  0  0  0  0  1  0  0  0  0  0  0
  183.4980  179.2470  138.9270 C   0  0  1  0  0  3  0  0  0  0  0  0
  180.8780  177.8100  134.6250 O   0  0  0  0  0  0  0  0  0  0  0  0
  186.2250  174.9480  137.2350 O   0  0  0  0  0  1  0  0  0  0  0  0
  190.2050  176.6590  135.2460 C   0  0  0  0  0  2  0  0  0  0  0  0
  189.8730  175.3260  135.0120 O   0  0  0  0  0  1  0  0  0  0  0  0
  180.7410  175.7460  136.8880 C   0  0  0  0  0  2  0  0  0  0  0  0
  181.6260  174.7060  137.1680 O   0  0  0  0  0  1  0  0  0  0  0  0
  191.3920  177.2090  142.5500 N   0  0  0  0  0  2  0  0  0  0  0  0
  190.1960  177.1690  144.6560 C   0  0  0  0  0  2  0  0  0  0  0  0
  191.6740  177.0610  144.9520 C   0  0  0  0  0  2  0  0  0  0  0  0
  191.1930  177.9230  143.8010 C   0  0  0  0  0  3  0  0  0  0  0  0
  192.3130  176.3200  137.5930 O   0  0  0  0  0  0  0  0  0  0  0  0
  194.1570  174.8080  137.9160 C   0  0  0  0  0  1  0  0  0  0  0  0
  192.6840  174.9480  137.5930 C   0  0  0  0  0  2  0  0  0  0  0  0
  1 11  1  0  0  0  0
  1 27  1  0  0  0  0
  2 12  1  0  0  0  0
  2 17  1  0  0  0  0
  3 24  1  0  0  0  0
  3 25  1  0  0  0  0
  5 14  1  0  0  0  0
  6  7  1  0  0  0  0
  7 29  1  0  0  0  0
  7  2  1  0  0  0  0
  9 23  1  0  0  0  0
 10  5  1  0  0  0  0
 10  2  1  0  0  0  0
 11 16  2  0  0  0  0
 12  8  1  0  0  0  0
 12 17  1  0  0  0  0
 13 20  2  0  0  0  0
 14 20  1  0  0  0  0
 14  9  1  0  0  0  0
 15 19  2  0  0  0  0
 17  9  1  0  0  0  0
 18 32  1  0  0  0  0
 18 11  1  0  0  0  0
 19  4  1  0  0  0  0
 19 34  1  0  0  0  0
 20 15  1  0  0  0  0
 21 10  1  0  0  0  0
 22  5  2  0  0  0  0
 22 13  1  0  0  0  0
 23  4  1  0  0  0  0
 24 18  1  0  0  0  0
 25  6  1  0  0  0  0
 26 27  1  0  0  0  0
 27  8  1  0  0  0  0
 28 24  2  0  0  0  0
 30 22  1  0  0  0  0
 31 30  1  0  0  0  0
 32 33  1  0  0  0  0
 34 37  1  0  0  0  0
 35 36  1  0  0  0  0
 37 35  1  0  0  0  0
 37 36  1  0  0  0  0
 38 40  1  0  0  0  0
 38 13  1  0  0  0  0
 40 39  1  0  0  0  0
M  END
>  <MODEL>
1

>  <REMARK>
 VINA RESULT:      -6.0      0.000      0.000
  Name = 
  6 active torsions:
  status: ('A' for Active; 'I' for Inactive)
    1  A    between atoms: N_5  and  C_24
    2  A    between atoms: N_5  and  C_36
    3  A    between atoms: C_15  and  O_29
    4  A    between atoms: C_18  and  C_31
    5  A    between atoms: N_23  and  C_27
    6  A    between atoms: C_25  and  O_29
                            x       y       z     vdW  Elec       q    Type
                         _______ _______ _______ _____ _____    ______ ____

>  <TORSDO>
F 6

$$$$
=
 OpenBabel10222415393D

 40 45  0  0  1  0  0  0  0  0999 V2000
  181.5270  180.2510  137.6620 C   0  0  0  0  0  2  0  0  0  0  0  0
  184.9720  177.8240  138.1360 C   0  0  1  0  0  0  0  0  0  0  0  0
  181.8560  177.8220  135.1800 C   0  0  0  0  0  2  0  0  0  0  0  0
  188.0550  179.0250  141.8500 C   0  0  0  0  0  2  0  0  0  0  0  0
  187.4400  177.3720  137.9540 C   0  0  0  0  0  0  0  0  0  0  0  0
  183.4130  176.8500  136.4070 C   0  0  0  0  0  2  0  0  0  0  0  0
  183.8790  176.7850  137.8560 C   0  0  1  0  0  3  0  0  0  0  0  0
  183.1560  179.1740  139.2910 C   0  0  0  0  0  2  0  0  0  0  0  0
  186.5790  178.4400  139.9580 C   0  0  1  0  0  3  0  0  0  0  0  0
  186.2200  177.7960  137.2080 C   0  0  2  0  0  3  0  0  0  0  0  0
  180.4560  179.2360  137.9500 C   0  0  0  0  0  0  0  0  0  0  0  0
  184.6130  179.0710  138.8470 C   0  0  1  0  0  3  0  0  0  0  0  0
  189.3640  176.4760  138.5560 C   0  0  0  0  0  0  0  0  0  0  0  0
  187.5940  177.6520  139.2550 N   0  0  0  0  0  0  0  0  0  0  0  0
  189.3880  177.1280  140.9840 C   0  0  0  0  0  3  0  0  0  0  0  0
  179.8540  179.2760  139.0610 O   0  0  0  0  0  0  0  0  0  0  0  0
  185.2340  177.9650  139.6010 N   0  0  1  0  0  0  0  0  0  0  0  0
  180.0970  178.2410  136.9770 N   0  0  0  0  0  0  0  0  0  0  0  0
  189.0700  177.9390  141.9960 C   0  0  0  0  0  0  0  0  0  0  0  0
  188.7850  177.1180  139.6360 C   0  0  0  0  0  0  0  0  0  0  0  0
  186.4530  179.1190  136.4990 C   0  0  0  0  0  1  0  0  0  0  0  0
  188.5110  176.6480  137.4740 C   0  0  0  0  0  0  0  0  0  0  0  0
  186.7250  178.4190  141.4680 C   0  0  0  0  0  2  0  0  0  0  0  0
  180.5210  178.3380  135.6120 C   0  0  0  0  0  0  0  0  0  0  0  0
  182.8200  178.0850  136.1510 O   0  0  0  0  0  0  0  0  0  0  0  0
  183.3570  181.4980  138.5960 O   0  0  0  0  0  1  0  0  0  0  0  0
  182.4520  180.4650  138.8590 C   0  0  1  0  0  3  0  0  0  0  0  0
  179.7150  178.7490  134.7370 O   0  0  0  0  0  0  0  0  0  0  0  0
  184.3560  175.5030  138.1300 O   0  0  0  0  0  1  0  0  0  0  0  0
  188.6360  176.0590  136.1070 C   0  0  0  0  0  2  0  0  0  0  0  0
  188.5110  174.6740  136.1860 O   0  0  0  0  0  1  0  0  0  0  0  0
  179.1330  177.2040  137.3200 C   0  0  0  0  0  2  0  0  0  0  0  0
  179.8020  176.0630  137.7620 O   0  0  0  0  0  1  0  0  0  0  0  0
  189.7250  177.7400  143.2510 N   0  0  0  0  0  2  0  0  0  0  0  0
  191.6880  178.8260  144.1670 C   0  0  0  0  0  2  0  0  0  0  0  0
  191.5420  177.4770  144.8320 C   0  0  0  0  0  2  0  0  0  0  0  0
  191.1710  177.6450  143.3710 C   0  0  0  0  0  3  0  0  0  0  0  0
  190.5820  175.7880  138.5970 O   0  0  0  0  0  0  0  0  0  0  0  0
  192.3040  176.2040  136.9670 C   0  0  0  0  0  1  0  0  0  0  0  0
  191.8420  176.4150  138.3940 C   0  0  0  0  0  2  0  0  0  0  0  0
  1 11  1  0  0  0  0
  1 27  1  0  0  0  0
  2 12  1  0  0  0  0
  2 17  1  0  0  0  0
  3 24  1  0  0  0  0
  3 25  1  0  0  0  0
  4 19  1  0  0  0  0
  5 14  1  0  0  0  0
  6  7  1  0  0  0  0
  7 29  1  0  0  0  0
  7  2  1  0  0  0  0
  9 23  1  0  0  0  0
 10  5  1  0  0  0  0
 10  2  1  0  0  0  0
 11 16  2  0  0  0  0
 12  8  1  0  0  0  0
 12 17  1  0  0  0  0
 13 38  1  0  0  0  0
 13 20  2  0  0  0  0
 14 20  1  0  0  0  0
 14  9  1  0  0  0  0
 15 19  2  0  0  0  0
 17  9  1  0  0  0  0
 18 32  1  0  0  0  0
 18 11  1  0  0  0  0
 19 34  1  0  0  0  0
 20 15  1  0  0  0  0
 21 10  1  0  0  0  0
 22  5  2  0  0  0  0
 22 13  1  0  0  0  0
 23  4  1  0  0  0  0
 24 18  1  0  0  0  0
 25  6  1  0  0  0  0
 26 27  1  0  0  0  0
 27  8  1  0  0  0  0
 28 24  2  0  0  0  0
 30 31  1  0  0  0  0
 30 22  1  0  0  0  0
 32 33  1  0  0  0  0
 34 37  1  0  0  0  0
 35 36  1  0  0  0  0
 37 35  1  0  0  0  0
 37 36  1  0  0  0  0
 39 40  1  0  0  0  0
 40 38  1  0  0  0  0
M  END
>  <MODEL>
2

>  <REMARK>
 VINA RESULT:      -5.4      1.538      1.752
  Name = 
  6 active torsions:
  status: ('A' for Active; 'I' for Inactive)
    1  A    between atoms: N_5  and  C_24
    2  A    between atoms: N_5  and  C_36
    3  A    between atoms: C_15  and  O_29
    4  A    between atoms: C_18  and  C_31
    5  A    between atoms: N_23  and  C_27
    6  A    between atoms: C_25  and  O_29
                            x       y       z     vdW  Elec       q    Type
                         _______ _______ _______ _____ _____    ______ ____

>  <TORSDO>
F 6

$$$$
=
 OpenBabel10222415393D

 40 45  0  0  1  0  0  0  0  0999 V2000
  190.4710  178.1240  137.8770 C   0  0  0  0  0  2  0  0  0  0  0  0
  189.0730  177.4790  141.8280 C   0  0  1  0  0  0  0  0  0  0  0  0
  192.8760  176.7250  139.9820 C   0  0  0  0  0  2  0  0  0  0  0  0
  184.4800  179.0870  142.8600 C   0  0  0  0  0  2  0  0  0  0  0  0
  188.4700  178.2450  144.1470 C   0  0  0  0  0  0  0  0  0  0  0  0
  191.2800  176.3170  141.4530 C   0  0  0  0  0  2  0  0  0  0  0  0
  189.7670  176.1490  141.5090 C   0  0  1  0  0  3  0  0  0  0  0  0
  188.4810  177.5670  139.3600 C   0  0  0  0  0  2  0  0  0  0  0  0
  186.7870  178.3330  142.3990 C   0  0  1  0  0  3  0  0  0  0  0  0
  189.5410  178.2260  143.1100 C   0  0  2  0  0  3  0  0  0  0  0  0
  190.6220  176.6980  137.4220 C   0  0  0  0  0  0  0  0  0  0  0  0
  188.4310  178.2360  140.7310 C   0  0  1  0  0  3  0  0  0  0  0  0
  187.3380  178.2070  146.0410 C   0  0  0  0  0  0  0  0  0  0  0  0
  187.1740  178.2680  143.8110 N   0  0  0  0  0  0  0  0  0  0  0  0
  184.9960  178.2430  145.1290 C   0  0  0  0  0  3  0  0  0  0  0  0
  189.7690  176.2140  136.6250 O   0  0  0  0  0  0  0  0  0  0  0  0
  187.5960  177.3950  141.6090 N   0  0  1  0  0  0  0  0  0  0  0  0
  191.7280  175.8920  137.8640 N   0  0  0  0  0  0  0  0  0  0  0  0
  184.0880  178.5750  144.2080 C   0  0  0  0  0  0  0  0  0  0  0  0
  186.4630  178.2610  144.9700 C   0  0  0  0  0  0  0  0  0  0  0  0
  190.0390  179.6310  142.8210 C   0  0  0  0  0  1  0  0  0  0  0  0
  188.6250  178.2100  145.5180 C   0  0  0  0  0  0  0  0  0  0  0  0
  185.3170  178.0460  142.1540 C   0  0  0  0  0  2  0  0  0  0  0  0
  192.8680  176.4710  138.5080 C   0  0  0  0  0  0  0  0  0  0  0  0
  191.6270  177.1720  140.4080 O   0  0  0  0  0  0  0  0  0  0  0  0
  188.9040  179.8200  138.5410 O   0  0  0  0  0  1  0  0  0  0  0  0
  189.0260  178.4600  138.2390 C   0  0  1  0  0  3  0  0  0  0  0  0
  193.9270  176.6550  137.8530 O   0  0  0  0  0  0  0  0  0  0  0  0
  189.4450  175.1970  142.4770 O   0  0  0  0  0  1  0  0  0  0  0  0
  189.9140  178.0620  146.2570 C   0  0  0  0  0  2  0  0  0  0  0  0
  190.3190  176.7290  146.2180 O   0  0  0  0  0  1  0  0  0  0  0  0
  191.7920  174.4840  137.4960 C   0  0  0  0  0  2  0  0  0  0  0  0
  192.4010  174.3490  136.2490 O   0  0  0  0  0  1  0  0  0  0  0  0
  182.7050  178.4200  144.5370 N   0  0  0  0  0  2  0  0  0  0  0  0
  181.0960  178.5320  142.7290 C   0  0  0  0  0  2  0  0  0  0  0  0
  180.3370  178.5160  144.0360 C   0  0  0  0  0  2  0  0  0  0  0  0
  181.6650  179.2420  143.9400 C   0  0  0  0  0  3  0  0  0  0  0  0
  186.9510  178.1550  147.3850 O   0  0  0  0  0  0  0  0  0  0  0  0
  188.4930  178.2300  149.2320 C   0  0  0  0  0  1  0  0  0  0  0  0
  187.6120  177.3600  148.3590 C   0  0  0  0  0  2  0  0  0  0  0  0
  1 27  1  0  0  0  0
  2 10  1  0  0  0  0
  3 25  1  0  0  0  0
  4 19  1  0  0  0  0
  5 22  2  0  0  0  0
  6  7  1  0  0  0  0
  7  2  1  0  0  0  0
  7 29  1  0  0  0  0
  8 12  1  0  0  0  0
  9 14  1  0  0  0  0
 10  5  1  0  0  0  0
 11 18  1  0  0  0  0
 11  1  1  0  0  0  0
 12 17  1  0  0  0  0
 12  2  1  0  0  0  0
 13 38  1  0  0  0  0
 14  5  1  0  0  0  0
 14 20  1  0  0  0  0
 16 11  2  0  0  0  0
 17  2  1  0  0  0  0
 17  9  1  0  0  0  0
 18 24  1  0  0  0  0
 19 34  1  0  0  0  0
 19 15  2  0  0  0  0
 20 15  1  0  0  0  0
 20 13  2  0  0  0  0
 21 10  1  0  0  0  0
 22 13  1  0  0  0  0
 22 30  1  0  0  0  0
 23  9  1  0  0  0  0
 23  4  1  0  0  0  0
 24  3  1  0  0  0  0
 25  6  1  0  0  0  0
 27 26  1  0  0  0  0
 27  8  1  0  0  0  0
 28 24  2  0  0  0  0
 31 30  1  0  0  0  0
 32 18  1  0  0  0  0
 33 32  1  0  0  0  0
 35 37  1  0  0  0  0
 35 36  1  0  0  0  0
 37 36  1  0  0  0  0
 37 34  1  0  0  0  0
 38 40  1  0  0  0  0
 40 39  1  0  0  0  0
M  END
>  <MODEL>
3

>  <REMARK>
 VINA RESULT:      -4.7      4.226      8.650
  Name = 
  6 active torsions:
  status: ('A' for Active; 'I' for Inactive)
    1  A    between atoms: N_5  and  C_24
    2  A    between atoms: N_5  and  C_36
    3  A    between atoms: C_15  and  O_29
    4  A    between atoms: C_18  and  C_31
    5  A    between atoms: N_23  and  C_27
    6  A    between atoms: C_25  and  O_29
                            x       y       z     vdW  Elec       q    Type
                         _______ _______ _______ _____ _____    ______ ____

>  <TORSDO>
F 6

$$$$
=
 OpenBabel10222415393D

 40 45  0  0  1  0  0  0  0  0999 V2000
  191.3000  178.2300  145.6870 C   0  0  0  0  0  2  0  0  0  0  0  0
  188.7660  177.4450  142.3780 C   0  0  1  0  0  0  0  0  0  0  0  0
  187.9100  178.2240  146.5130 C   0  0  0  0  0  2  0  0  0  0  0  0
  190.9650  177.0090  137.9370 C   0  0  0  0  0  2  0  0  0  0  0  0
  187.5560  178.1050  140.2740 C   0  0  0  0  0  0  0  0  0  0  0  0
  187.4830  177.3180  144.5460 C   0  0  0  0  0  2  0  0  0  0  0  0
  188.1870  176.5210  143.4560 C   0  0  1  0  0  3  0  0  0  0  0  0
  191.0220  177.0210  143.4660 C   0  0  0  0  0  2  0  0  0  0  0  0
  189.8340  177.2830  140.1170 C   0  0  1  0  0  3  0  0  0  0  0  0
  187.7800  178.4460  141.7080 C   0  0  2  0  0  3  0  0  0  0  0  0
  191.0830  176.9710  146.4800 C   0  0  0  0  0  0  0  0  0  0  0  0
  190.2160  177.7370  142.3840 C   0  0  1  0  0  3  0  0  0  0  0  0
  186.6800  177.7740  138.2760 C   0  0  0  0  0  0  0  0  0  0  0  0
  188.5130  177.5330  139.5340 N   0  0  0  0  0  0  0  0  0  0  0  0
  188.6450  176.7040  137.1300 C   0  0  0  0  0  3  0  0  0  0  0  0
  191.9880  176.0880  146.4930 O   0  0  0  0  0  0  0  0  0  0  0  0
  189.6930  176.7110  141.4630 N   0  0  1  0  0  0  0  0  0  0  0  0
  189.8750  176.7690  147.2350 N   0  0  0  0  0  0  0  0  0  0  0  0
  189.9550  176.5170  136.9530 C   0  0  0  0  0  0  0  0  0  0  0  0
  187.9930  177.3370  138.2940 C   0  0  0  0  0  0  0  0  0  0  0  0
  188.2210  179.8920  141.8580 C   0  0  0  0  0  1  0  0  0  0  0  0
  186.4000  178.2790  139.5390 C   0  0  0  0  0  0  0  0  0  0  0  0
  190.7080  176.3660  139.2800 C   0  0  0  0  0  2  0  0  0  0  0  0
  188.9680  177.8450  147.5010 C   0  0  0  0  0  0  0  0  0  0  0  0
  188.3990  178.1300  145.2120 O   0  0  0  0  0  0  0  0  0  0  0  0
  192.2020  179.1410  143.6550 O   0  0  0  0  0  1  0  0  0  0  0  0
  191.9050  177.9440  144.3130 C   0  0  1  0  0  3  0  0  0  0  0  0
  188.9740  178.4020  148.6300 O   0  0  0  0  0  0  0  0  0  0  0  0
  187.2840  175.6250  142.8830 O   0  0  0  0  0  1  0  0  0  0  0  0
  185.0910  178.7760  140.0580 C   0  0  0  0  0  2  0  0  0  0  0  0
  184.7200  179.9200  139.3550 O   0  0  0  0  0  1  0  0  0  0  0  0
  189.6430  175.4980  147.9070 C   0  0  0  0  0  2  0  0  0  0  0  0
  188.3170  175.4210  148.3290 O   0  0  0  0  0  1  0  0  0  0  0  0
  190.3840  175.8150  135.7830 N   0  0  0  0  0  2  0  0  0  0  0  0
  190.6890  173.5610  136.6160 C   0  0  0  0  0  2  0  0  0  0  0  0
  190.7220  173.5140  135.1050 C   0  0  0  0  0  2  0  0  0  0  0  0
  191.3160  174.7000  135.8390 C   0  0  0  0  0  3  0  0  0  0  0  0
  185.8280  177.6950  137.1680 O   0  0  0  0  0  0  0  0  0  0  0  0
  183.4660  177.2520  137.0350 C   0  0  0  0  0  1  0  0  0  0  0  0
  184.8620  176.6670  136.9950 C   0  0  0  0  0  2  0  0  0  0  0  0
  1 11  1  0  0  0  0
  2 12  1  0  0  0  0
  2  7  1  0  0  0  0
  3 24  1  0  0  0  0
  4 23  1  0  0  0  0
  5 10  1  0  0  0  0
  6 25  1  0  0  0  0
  7  6  1  0  0  0  0
  8 27  1  0  0  0  0
  9 17  1  0  0  0  0
 10 21  1  0  0  0  0
 10  2  1  0  0  0  0
 11 16  2  0  0  0  0
 11 18  1  0  0  0  0
 12  8  1  0  0  0  0
 13 20  2  0  0  0  0
 13 22  1  0  0  0  0
 14  9  1  0  0  0  0
 14  5  1  0  0  0  0
 15 20  1  0  0  0  0
 17  2  1  0  0  0  0
 17 12  1  0  0  0  0
 18 24  1  0  0  0  0
 18 32  1  0  0  0  0
 19 15  2  0  0  0  0
 19  4  1  0  0  0  0
 20 14  1  0  0  0  0
 22 30  1  0  0  0  0
 22  5  2  0  0  0  0
 23  9  1  0  0  0  0
 24 28  2  0  0  0  0
 25  3  1  0  0  0  0
 26 27  1  0  0  0  0
 27  1  1  0  0  0  0
 29  7  1  0  0  0  0
 31 30  1  0  0  0  0
 32 33  1  0  0  0  0
 34 37  1  0  0  0  0
 34 19  1  0  0  0  0
 36 37  1  0  0  0  0
 36 35  1  0  0  0  0
 37 35  1  0  0  0  0
 38 13  1  0  0  0  0
 40 39  1  0  0  0  0
 40 38  1  0  0  0  0
M  END
>  <MODEL>
4

>  <REMARK>
 VINA RESULT:      -4.2      3.932      8.802
  Name = 
  6 active torsions:
  status: ('A' for Active; 'I' for Inactive)
    1  A    between atoms: N_5  and  C_24
    2  A    between atoms: N_5  and  C_36
    3  A    between atoms: C_15  and  O_29
    4  A    between atoms: C_18  and  C_31
    5  A    between atoms: N_23  and  C_27
    6  A    between atoms: C_25  and  O_29
                            x       y       z     vdW  Elec       q    Type
                         _______ _______ _______ _____ _____    ______ ____

>  <TORSDO>
F 6

$$$$
=
 OpenBabel10222415393D

 40 45  0  0  1  0  0  0  0  0999 V2000
  192.2920  175.5630  138.5810 C   0  0  0  0  0  2  0  0  0  0  0  0
  188.4800  176.1530  136.8190 C   0  0  1  0  0  0  0  0  0  0  0  0
  191.9500  174.0070  135.4780 C   0  0  0  0  0  2  0  0  0  0  0  0
  185.1190  178.6100  139.5400 C   0  0  0  0  0  2  0  0  0  0  0  0
  186.0240  175.6680  136.5710 C   0  0  0  0  0  0  0  0  0  0  0  0
  190.1010  175.1690  135.1540 C   0  0  0  0  0  2  0  0  0  0  0  0
  189.4280  176.4430  135.6480 C   0  0  1  0  0  3  0  0  0  0  0  0
  190.2980  177.1180  138.3070 C   0  0  0  0  0  2  0  0  0  0  0  0
  186.7430  177.3320  138.1870 C   0  0  1  0  0  3  0  0  0  0  0  0
  187.3890  175.0680  136.5860 C   0  0  2  0  0  3  0  0  0  0  0  0
  193.1400  176.3670  137.6350 C   0  0  0  0  0  0  0  0  0  0  0  0
  188.9220  176.4660  138.1950 C   0  0  1  0  0  3  0  0  0  0  0  0
  183.9180  176.1580  136.1330 C   0  0  0  0  0  0  0  0  0  0  0  0
  185.7300  176.7500  137.3040 N   0  0  0  0  0  0  0  0  0  0  0  0
  183.6460  178.1840  137.5970 C   0  0  0  0  0  3  0  0  0  0  0  0
  193.5740  177.4950  138.0040 O   0  0  0  0  0  0  0  0  0  0  0  0
  188.0350  177.4120  137.4910 N   0  0  1  0  0  0  0  0  0  0  0  0
  193.4760  175.8620  136.3310 N   0  0  0  0  0  0  0  0  0  0  0  0
  183.9370  178.9120  138.6770 C   0  0  0  0  0  0  0  0  0  0  0  0
  184.4280  177.0540  137.0550 C   0  0  0  0  0  0  0  0  0  0  0  0
  187.4690  173.9320  137.5910 C   0  0  0  0  0  1  0  0  0  0  0  0
  184.9340  175.2610  135.8300 C   0  0  0  0  0  0  0  0  0  0  0  0
  186.3790  178.7090  138.7130 C   0  0  0  0  0  2  0  0  0  0  0  0
  193.2730  174.4880  135.9820 C   0  0  0  0  0  0  0  0  0  0  0  0
  190.9090  174.6360  136.1570 O   0  0  0  0  0  0  0  0  0  0  0  0
  190.5620  175.6710  140.2460 O   0  0  0  0  0  1  0  0  0  0  0  0
  191.2480  176.4260  139.2900 C   0  0  1  0  0  3  0  0  0  0  0  0
  194.2510  173.6950  135.9800 O   0  0  0  0  0  0  0  0  0  0  0  0
  188.7220  177.0290  134.5960 O   0  0  0  0  0  1  0  0  0  0  0  0
  184.9170  174.1670  134.8130 C   0  0  0  0  0  2  0  0  0  0  0  0
  184.5000  172.9820  135.4160 O   0  0  0  0  0  1  0  0  0  0  0  0
  194.2070  176.7040  135.3930 C   0  0  0  0  0  2  0  0  0  0  0  0
  195.5710  176.6580  135.6800 O   0  0  0  0  0  1  0  0  0  0  0  0
  183.0860  180.0160  138.9960 N   0  0  0  0  0  2  0  0  0  0  0  0
  180.8130  180.7730  139.3600 C   0  0  0  0  0  2  0  0  0  0  0  0
  181.4660  181.7010  138.3610 C   0  0  0  0  0  2  0  0  0  0  0  0
  181.7990  180.2220  138.3500 C   0  0  0  0  0  3  0  0  0  0  0  0
  182.6140  176.1920  135.6240 O   0  0  0  0  0  0  0  0  0  0  0  0
  181.1800  174.3160  135.1610 C   0  0  0  0  0  1  0  0  0  0  0  0
  181.5500  175.4070  136.1440 C   0  0  0  0  0  2  0  0  0  0  0  0
  1 27  1  0  0  0  0
  2 17  1  0  0  0  0
  2 12  1  0  0  0  0
  3 24  1  0  0  0  0
  3 25  1  0  0  0  0
  5 10  1  0  0  0  0
  5 14  1  0  0  0  0
  6  7  1  0  0  0  0
  6 25  1  0  0  0  0
  7  2  1  0  0  0  0
  8 27  1  0  0  0  0
  9 23  1  0  0  0  0
 10  2  1  0  0  0  0
 10 21  1  0  0  0  0
 11 16  2  0  0  0  0
 11  1  1  0  0  0  0
 12  8  1  0  0  0  0
 13 20  2  0  0  0  0
 14  9  1  0  0  0  0
 15 19  2  0  0  0  0
 17  9  1  0  0  0  0
 17 12  1  0  0  0  0
 18 11  1  0  0  0  0
 19 34  1  0  0  0  0
 19  4  1  0  0  0  0
 20 14  1  0  0  0  0
 20 15  1  0  0  0  0
 22 13  1  0  0  0  0
 22  5  2  0  0  0  0
 23  4  1  0  0  0  0
 24 18  1  0  0  0  0
 27 26  1  0  0  0  0
 28 24  2  0  0  0  0
 29  7  1  0  0  0  0
 30 31  1  0  0  0  0
 30 22  1  0  0  0  0
 32 33  1  0  0  0  0
 32 18  1  0  0  0  0
 36 35  1  0  0  0  0
 37 36  1  0  0  0  0
 37 34  1  0  0  0  0
 37 35  1  0  0  0  0
 38 13  1  0  0  0  0
 38 40  1  0  0  0  0
 39 40  1  0  0  0  0
M  END
>  <MODEL>
5

>  <REMARK>
 VINA RESULT:      -4.1      2.728      8.630
  Name = 
  6 active torsions:
  status: ('A' for Active; 'I' for Inactive)
    1  A    between atoms: N_5  and  C_24
    2  A    between atoms: N_5  and  C_36
    3  A    between atoms: C_15  and  O_29
    4  A    between atoms: C_18  and  C_31
    5  A    between atoms: N_23  and  C_27
    6  A    between atoms: C_25  and  O_29
                            x       y       z     vdW  Elec       q    Type
                         _______ _______ _______ _____ _____    ______ ____

>  <TORSDO>
F 6

$$$$
=
 OpenBabel10222415393D

 40 45  0  0  1  0  0  0  0  0999 V2000
  190.8090  178.7580  145.4980 C   0  0  0  0  0  2  0  0  0  0  0  0
  187.7100  177.8690  142.7430 C   0  0  1  0  0  0  0  0  0  0  0  0
  187.8210  177.8190  147.0360 C   0  0  0  0  0  2  0  0  0  0  0  0
  188.7210  178.6150  137.9300 C   0  0  0  0  0  2  0  0  0  0  0  0
  185.8880  178.5120  141.1320 C   0  0  0  0  0  0  0  0  0  0  0  0
  187.0860  177.1270  145.0720 C   0  0  0  0  0  2  0  0  0  0  0  0
  187.6260  176.6880  143.7180 C   0  0  1  0  0  3  0  0  0  0  0  0
  190.2090  177.8490  143.1990 C   0  0  0  0  0  2  0  0  0  0  0  0
  188.1640  178.2930  140.3150 C   0  0  1  0  0  3  0  0  0  0  0  0
  186.4060  178.6880  142.5190 C   0  0  2  0  0  3  0  0  0  0  0  0
  191.0600  177.3840  146.0550 C   0  0  0  0  0  0  0  0  0  0  0  0
  189.0240  178.4970  142.4860 C   0  0  1  0  0  3  0  0  0  0  0  0
  184.6070  178.2680  139.3520 C   0  0  0  0  0  0  0  0  0  0  0  0
  186.7150  178.2990  140.1010 N   0  0  0  0  0  0  0  0  0  0  0  0
  186.3790  177.8780  137.6120 C   0  0  0  0  0  3  0  0  0  0  0  0
  192.0930  176.7530  145.6930 O   0  0  0  0  0  0  0  0  0  0  0  0
  188.4940  177.5180  141.5190 N   0  0  1  0  0  0  0  0  0  0  0  0
  190.1550  176.7920  147.0030 N   0  0  0  0  0  0  0  0  0  0  0  0
  187.6080  178.0400  137.1160 C   0  0  0  0  0  0  0  0  0  0  0  0
  185.9390  178.1630  138.9920 C   0  0  0  0  0  0  0  0  0  0  0  0
  186.5740  180.1600  142.8510 C   0  0  0  0  0  1  0  0  0  0  0  0
  184.5710  178.5050  140.7200 C   0  0  0  0  0  0  0  0  0  0  0  0
  188.9540  177.7440  139.1420 C   0  0  0  0  0  2  0  0  0  0  0  0
  189.1530  177.5680  147.6700 C   0  0  0  0  0  0  0  0  0  0  0  0
  187.9640  178.0320  145.6660 O   0  0  0  0  0  0  0  0  0  0  0  0
  190.9530  180.1420  143.5380 O   0  0  0  0  0  1  0  0  0  0  0  0
  191.0800  178.8270  143.9960 C   0  0  1  0  0  3  0  0  0  0  0  0
  189.3420  177.9420  148.8570 O   0  0  0  0  0  0  0  0  0  0  0  0
  186.8010  175.6920  143.1930 O   0  0  0  0  0  1  0  0  0  0  0  0
  183.3700  178.5930  141.6030 C   0  0  0  0  0  2  0  0  0  0  0  0
  182.2900  179.0760  140.8680 O   0  0  0  0  0  1  0  0  0  0  0  0
  190.3620  175.4200  147.4450 C   0  0  0  0  0  2  0  0  0  0  0  0
  191.6380  175.2860  147.9900 O   0  0  0  0  0  1  0  0  0  0  0  0
  187.8490  177.6370  135.7650 N   0  0  0  0  0  2  0  0  0  0  0  0
  188.6120  175.3570  136.0570 C   0  0  0  0  0  2  0  0  0  0  0  0
  188.2960  175.5640  134.5940 C   0  0  0  0  0  2  0  0  0  0  0  0
  188.8960  176.6950  135.4060 C   0  0  0  0  0  3  0  0  0  0  0  0
  183.5300  178.1460  138.4670 O   0  0  0  0  0  0  0  0  0  0  0  0
  182.6430  175.9840  139.0430 C   0  0  0  0  0  1  0  0  0  0  0  0
  183.0960  176.9040  137.9290 C   0  0  0  0  0  2  0  0  0  0  0  0
  1 11  1  0  0  0  0
  2  7  1  0  0  0  0
  3 24  1  0  0  0  0
  4 23  1  0  0  0  0
  5 10  1  0  0  0  0
  6 25  1  0  0  0  0
  7  6  1  0  0  0  0
  8 27  1  0  0  0  0
  9 17  1  0  0  0  0
 10  2  1  0  0  0  0
 10 21  1  0  0  0  0
 11 18  1  0  0  0  0
 12  2  1  0  0  0  0
 12  8  1  0  0  0  0
 13 22  1  0  0  0  0
 14  9  1  0  0  0  0
 14  5  1  0  0  0  0
 15 20  1  0  0  0  0
 16 11  2  0  0  0  0
 17 12  1  0  0  0  0
 17  2  1  0  0  0  0
 18 32  1  0  0  0  0
 18 24  1  0  0  0  0
 19 15  2  0  0  0  0
 19  4  1  0  0  0  0
 20 13  2  0  0  0  0
 20 14  1  0  0  0  0
 22  5  2  0  0  0  0
 22 30  1  0  0  0  0
 23  9  1  0  0  0  0
 24 28  2  0  0  0  0
 25  3  1  0  0  0  0
 26 27  1  0  0  0  0
 27  1  1  0  0  0  0
 29  7  1  0  0  0  0
 31 30  1  0  0  0  0
 32 33  1  0  0  0  0
 34 19  1  0  0  0  0
 36 37  1  0  0  0  0
 36 35  1  0  0  0  0
 37 34  1  0  0  0  0
 37 35  1  0  0  0  0
 38 13  1  0  0  0  0
 40 38  1  0  0  0  0
 40 39  1  0  0  0  0
M  END
>  <MODEL>
6

>  <REMARK>
 VINA RESULT:      -3.6      4.008      9.221
  Name = 
  6 active torsions:
  status: ('A' for Active; 'I' for Inactive)
    1  A    between atoms: N_5  and  C_24
    2  A    between atoms: N_5  and  C_36
    3  A    between atoms: C_15  and  O_29
    4  A    between atoms: C_18  and  C_31
    5  A    between atoms: N_23  and  C_27
    6  A    between atoms: C_25  and  O_29
                            x       y       z     vdW  Elec       q    Type
                         _______ _______ _______ _____ _____    ______ ____

>  <TORSDO>
F 6

$$$$
=
 OpenBabel10222415393D

 40 45  0  0  1  0  0  0  0  0999 V2000
  189.9280  179.0580  145.9880 C   0  0  0  0  0  2  0  0  0  0  0  0
  189.5690  177.1720  142.2070 C   0  0  1  0  0  0  0  0  0  0  0  0
  186.7310  177.8070  145.3670 C   0  0  0  0  0  2  0  0  0  0  0  0
  193.5560  177.3480  139.2380 C   0  0  0  0  0  2  0  0  0  0  0  0
  189.3080  177.1940  139.7060 C   0  0  0  0  0  0  0  0  0  0  0  0
  187.5550  176.6920  143.6490 C   0  0  0  0  0  2  0  0  0  0  0  0
  188.8890  176.1620  143.1400 C   0  0  1  0  0  3  0  0  0  0  0  0
  191.0880  177.7070  144.1720 C   0  0  0  0  0  2  0  0  0  0  0  0
  191.5380  177.2970  140.6620 C   0  0  1  0  0  3  0  0  0  0  0  0
  188.7360  177.6780  140.9950 C   0  0  2  0  0  3  0  0  0  0  0  0
  189.7840  177.8610  146.8870 C   0  0  0  0  0  0  0  0  0  0  0  0
  190.6820  177.9960  142.7290 C   0  0  1  0  0  3  0  0  0  0  0  0
  189.5910  176.4360  137.6530 C   0  0  0  0  0  0  0  0  0  0  0  0
  190.6230  176.9890  139.5590 N   0  0  0  0  0  0  0  0  0  0  0  0
  192.0870  176.1320  137.6600 C   0  0  0  0  0  3  0  0  0  0  0  0
  190.8110  177.3940  147.4580 O   0  0  0  0  0  0  0  0  0  0  0  0
  190.9890  176.7950  141.9290 N   0  0  1  0  0  0  0  0  0  0  0  0
  188.4990  177.2590  147.1200 N   0  0  0  0  0  0  0  0  0  0  0  0
  193.3180  176.4500  138.0680 C   0  0  0  0  0  0  0  0  0  0  0  0
  190.8150  176.5350  138.2920 C   0  0  0  0  0  0  0  0  0  0  0  0
  188.5780  179.1890  140.9820 C   0  0  0  0  0  1  0  0  0  0  0  0
  188.6250  176.8690  138.5520 C   0  0  0  0  0  0  0  0  0  0  0  0
  192.9360  176.7360  140.4720 C   0  0  0  0  0  2  0  0  0  0  0  0
  187.2830  177.9200  146.7530 C   0  0  0  0  0  0  0  0  0  0  0  0
  187.7590  177.8300  144.4270 O   0  0  0  0  0  0  0  0  0  0  0  0
  191.3150  180.1240  144.3410 O   0  0  0  0  0  1  0  0  0  0  0  0
  191.1460  178.9460  145.0730 C   0  0  1  0  0  3  0  0  0  0  0  0
  186.5990  178.5020  147.6350 O   0  0  0  0  0  0  0  0  0  0  0  0
  188.6800  174.9560  142.4680 O   0  0  0  0  0  1  0  0  0  0  0  0
  187.1420  176.8580  138.3770 C   0  0  0  0  0  2  0  0  0  0  0  0
  186.6970  178.1520  138.1140 O   0  0  0  0  0  1  0  0  0  0  0  0
  188.4020  176.0370  147.9070 C   0  0  0  0  0  2  0  0  0  0  0  0
  187.9130  176.3310  149.1790 O   0  0  0  0  0  1  0  0  0  0  0  0
  194.4290  175.8980  137.3570 N   0  0  0  0  0  2  0  0  0  0  0  0
  196.2640  174.3450  137.0610 C   0  0  0  0  0  2  0  0  0  0  0  0
  195.9000  174.3710  138.5280 C   0  0  0  0  0  2  0  0  0  0  0  0
  194.8160  174.5020  137.4760 C   0  0  0  0  0  3  0  0  0  0  0  0
  189.4100  175.9720  136.3450 O   0  0  0  0  0  0  0  0  0  0  0  0
  189.7030  173.5840  136.4010 C   0  0  0  0  0  1  0  0  0  0  0  0
  188.7880  174.7340  136.0320 C   0  0  0  0  0  2  0  0  0  0  0  0
  1 11  1  0  0  0  0
  2 12  1  0  0  0  0
  2  7  1  0  0  0  0
  3 24  1  0  0  0  0
  4 23  1  0  0  0  0
  5 10  1  0  0  0  0
  6 25  1  0  0  0  0
  7  6  1  0  0  0  0
  8 27  1  0  0  0  0
  9 17  1  0  0  0  0
 10  2  1  0  0  0  0
 11 18  1  0  0  0  0
 11 16  2  0  0  0  0
 12  8  1  0  0  0  0
 13 20  2  0  0  0  0
 13 22  1  0  0  0  0
 14  5  1  0  0  0  0
 14  9  1  0  0  0  0
 15 19  2  0  0  0  0
 15 20  1  0  0  0  0
 17  2  1  0  0  0  0
 17 12  1  0  0  0  0
 18 32  1  0  0  0  0
 19  4  1  0  0  0  0
 20 14  1  0  0  0  0
 21 10  1  0  0  0  0
 22  5  2  0  0  0  0
 23  9  1  0  0  0  0
 24 18  1  0  0  0  0
 24 28  2  0  0  0  0
 25  3  1  0  0  0  0
 26 27  1  0  0  0  0
 27  1  1  0  0  0  0
 29  7  1  0  0  0  0
 30 22  1  0  0  0  0
 31 30  1  0  0  0  0
 32 33  1  0  0  0  0
 34 37  1  0  0  0  0
 34 19  1  0  0  0  0
 35 37  1  0  0  0  0
 35 36  1  0  0  0  0
 37 36  1  0  0  0  0
 38 13  1  0  0  0  0
 40 38  1  0  0  0  0
 40 39  1  0  0  0  0
M  END
>  <MODEL>
7

>  <REMARK>
 VINA RESULT:      -3.2      4.106      7.974
  Name = 
  6 active torsions:
  status: ('A' for Active; 'I' for Inactive)
    1  A    between atoms: N_5  and  C_24
    2  A    between atoms: N_5  and  C_36
    3  A    between atoms: C_15  and  O_29
    4  A    between atoms: C_18  and  C_31
    5  A    between atoms: N_23  and  C_27
    6  A    between atoms: C_25  and  O_29
                            x       y       z     vdW  Elec       q    Type
                         _______ _______ _______ _____ _____    ______ ____

>  <TORSDO>
F 6

$$$$
