=
 OpenBabel10222418093D

 25 26  0  0  1  0  0  0  0  0999 V2000
  191.1910  177.4470  141.6850 C   0  0  0  0  0  1  0  0  0  0  0  0
  188.7370  178.1850  142.3400 C   0  0  1  0  0  3  0  0  0  0  0  0
  189.7860  177.7930  141.3260 C   0  0  0  0  0  0  0  0  0  0  0  0
  187.5630  178.4690  141.4570 C   0  0  0  0  0  0  0  0  0  0  0  0
  186.4340  178.8650  141.8510 O   0  0  0  0  0  0  0  0  0  0  0  0
  187.1850  178.3860  139.0770 O   0  0  0  0  0  0  0  0  0  0  0  0
  187.9330  178.2420  140.0790 C   0  0  0  0  0  0  0  0  0  0  0  0
  189.3260  177.8290  140.0750 C   0  0  0  0  0  0  0  0  0  0  0  0
  188.4430  177.0510  143.2860 C   0  0  0  0  0  0  0  0  0  0  0  0
  188.3400  175.8750  142.8380 O   0  0  0  0  0  0  0  0  0  0  0  0
  187.9810  177.7860  147.4810 C   0  0  0  0  0  0  0  0  0  0  0  0
  189.3590  177.1140  145.6050 C   0  0  0  0  0  3  0  0  0  0  0  0
  189.2100  177.3530  146.9740 C   0  0  0  0  0  3  0  0  0  0  0  0
  187.0500  177.7390  145.2460 C   0  0  0  0  0  3  0  0  0  0  0  0
  186.8970  177.9790  146.6140 C   0  0  0  0  0  0  0  0  0  0  0  0
  188.2800  177.3050  144.7300 C   0  0  0  0  0  0  0  0  0  0  0  0
  185.3430  178.5210  147.2200 Cl  0  0  0  0  0  0  0  0  0  0  0  0
  187.8480  178.0200  148.8440 O   0  0  0  0  0  1  0  0  0  0  0  0
  190.1140  177.5160  138.9220 N   0  0  0  0  0  2  0  0  0  0  0  0
  190.0360  176.2360  138.2380 C   0  0  0  0  0  2  0  0  0  0  0  0
  191.1990  175.4310  138.5710 N   0  0  0  0  0  2  0  0  0  0  0  0
  192.0740  175.4430  137.4100 C   0  0  0  0  0  2  0  0  0  0  0  0
  194.0180  176.6420  136.7390 O   0  0  0  0  0  0  0  0  0  0  0  0
  193.2470  176.3160  137.6780 C   0  0  0  0  0  0  0  0  0  0  0  0
  193.5150  176.7410  138.9720 O   0  0  0  0  0  1  0  0  0  0  0  0
  2  9  1  1  0  0  0
  3  1  1  0  0  0  0
  3  2  1  0  0  0  0
  4  5  2  0  0  0  0
  4  2  1  0  0  0  0
  6  7  2  0  0  0  0
  7  4  1  0  0  0  0
  8  7  1  0  0  0  0
  8  3  2  0  0  0  0
  9 16  1  0  0  0  0
 10  9  2  0  0  0  0
 11 18  1  0  0  0  0
 12 13  2  0  0  0  0
 13 11  1  0  0  0  0
 14 15  1  0  0  0  0
 15 17  1  0  0  0  0
 15 11  2  0  0  0  0
 16 14  2  0  0  0  0
 16 12  1  0  0  0  0
 19  8  1  0  0  0  0
 20 21  1  0  0  0  0
 20 19  1  0  0  0  0
 22 24  1  0  0  0  0
 22 21  1  0  0  0  0
 23 24  2  0  0  0  0
 24 25  1  0  0  0  0
M  END
>  <MODEL>
1

>  <REMARK>
 VINA RESULT:      -8.1      0.000      0.000
  Name = 
  7 active torsions:
  status: ('A' for Active; 'I' for Inactive)
    1  A    between atoms: N_1  and  C_19
    2  A    between atoms: N_1  and  C_25
    3  A    between atoms: N_4  and  C_19
    4  A    between atoms: N_4  and  C_20
    5  A    between atoms: C_5  and  C_10
    6  A    between atoms: C_10  and  C_17
    7  A    between atoms: C_20  and  C_22
                            x       y       z     vdW  Elec       q    Type
                         _______ _______ _______ _____ _____    ______ ____

>  <TORSDO>
F 7

$$$$
=
 OpenBabel10222418093D

 25 26  0  0  1  0  0  0  0  0999 V2000
  187.0440  178.9040  141.7520 C   0  0  0  0  0  1  0  0  0  0  0  0
  188.7600  177.1120  142.6710 C   0  0  1  0  0  3  0  0  0  0  0  0
  188.1880  177.9660  141.5630 C   0  0  0  0  0  0  0  0  0  0  0  0
  189.8190  176.3490  141.9400 C   0  0  0  0  0  0  0  0  0  0  0  0
  190.5660  175.4720  142.4470 O   0  0  0  0  0  0  0  0  0  0  0  0
  190.6030  176.3170  139.6600 O   0  0  0  0  0  0  0  0  0  0  0  0
  189.8340  176.7570  140.5540 C   0  0  0  0  0  0  0  0  0  0  0  0
  188.7950  177.7590  140.3940 C   0  0  0  0  0  0  0  0  0  0  0  0
  189.3570  177.9610  143.7610 C   0  0  0  0  0  0  0  0  0  0  0  0
  190.2640  178.7920  143.4800 O   0  0  0  0  0  0  0  0  0  0  0  0
  187.9950  177.5840  147.8060 C   0  0  0  0  0  0  0  0  0  0  0  0
  189.7720  177.4430  146.1660 C   0  0  0  0  0  3  0  0  0  0  0  0
  189.3300  177.3200  147.4860 C   0  0  0  0  0  3  0  0  0  0  0  0
  187.5460  178.0950  145.4810 C   0  0  0  0  0  3  0  0  0  0  0  0
  187.0990  177.9720  146.8000 C   0  0  0  0  0  0  0  0  0  0  0  0
  188.8840  177.8320  145.1530 C   0  0  0  0  0  0  0  0  0  0  0  0
  185.4190  178.3100  147.1700 Cl  0  0  0  0  0  0  0  0  0  0  0  0
  187.5690  177.4570  149.1220 O   0  0  0  0  0  1  0  0  0  0  0  0
  188.4410  178.4280  139.1790 N   0  0  0  0  0  2  0  0  0  0  0  0
  187.5960  177.8230  138.1630 C   0  0  0  0  0  2  0  0  0  0  0  0
  186.4830  178.7070  137.8610 N   0  0  0  0  0  2  0  0  0  0  0  0
  185.2630  177.9880  138.1860 C   0  0  0  0  0  2  0  0  0  0  0  0
  183.6740  178.2100  139.9440 O   0  0  0  0  0  1  0  0  0  0  0  0
  184.4500  178.7870  139.1400 C   0  0  0  0  0  0  0  0  0  0  0  0
  184.5180  180.1740  139.1180 O   0  0  0  0  0  0  0  0  0  0  0  0
  2  9  1  1  0  0  0
  3  1  1  0  0  0  0
  3  2  1  0  0  0  0
  4  5  2  0  0  0  0
  4  2  1  0  0  0  0
  6  7  2  0  0  0  0
  7  4  1  0  0  0  0
  8  7  1  0  0  0  0
  8  3  2  0  0  0  0
  9 16  1  0  0  0  0
 10  9  2  0  0  0  0
 11 18  1  0  0  0  0
 12 13  2  0  0  0  0
 13 11  1  0  0  0  0
 14 15  1  0  0  0  0
 15 17  1  0  0  0  0
 15 11  2  0  0  0  0
 16 14  2  0  0  0  0
 16 12  1  0  0  0  0
 19  8  1  0  0  0  0
 20 19  1  0  0  0  0
 21 20  1  0  0  0  0
 21 22  1  0  0  0  0
 22 24  1  0  0  0  0
 24 23  1  0  0  0  0
 25 24  2  0  0  0  0
M  END
>  <MODEL>
2

>  <REMARK>
 VINA RESULT:      -7.9      2.288      4.469
  Name = 
  7 active torsions:
  status: ('A' for Active; 'I' for Inactive)
    1  A    between atoms: N_1  and  C_19
    2  A    between atoms: N_1  and  C_25
    3  A    between atoms: N_4  and  C_19
    4  A    between atoms: N_4  and  C_20
    5  A    between atoms: C_5  and  C_10
    6  A    between atoms: C_10  and  C_17
    7  A    between atoms: C_20  and  C_22
                            x       y       z     vdW  Elec       q    Type
                         _______ _______ _______ _____ _____    ______ ____

>  <TORSDO>
F 7

$$$$
=
 OpenBabel10222418093D

 25 26  0  0  1  0  0  0  0  0999 V2000
  186.7480  177.7780  143.1130 C   0  0  0  0  0  1  0  0  0  0  0  0
  189.3860  177.9520  143.2180 C   0  0  1  0  0  3  0  0  0  0  0  0
  188.0360  177.7380  143.8630 C   0  0  0  0  0  0  0  0  0  0  0  0
  190.2970  177.8620  144.4010 C   0  0  0  0  0  0  0  0  0  0  0  0
  191.5480  178.0050  144.3700 O   0  0  0  0  0  0  0  0  0  0  0  0
  189.9650  177.4740  146.7580 O   0  0  0  0  0  0  0  0  0  0  0  0
  189.5160  177.6090  145.5900 C   0  0  0  0  0  0  0  0  0  0  0  0
  188.1240  177.5480  145.1800 C   0  0  0  0  0  0  0  0  0  0  0  0
  189.6880  176.8710  142.2150 C   0  0  0  0  0  0  0  0  0  0  0  0
  189.9580  175.7050  142.6160 O   0  0  0  0  0  0  0  0  0  0  0  0
  189.6150  177.7300  138.0190 C   0  0  0  0  0  0  0  0  0  0  0  0
  188.6640  177.9830  140.2320 C   0  0  0  0  0  3  0  0  0  0  0  0
  188.6380  178.2650  138.8630 C   0  0  0  0  0  3  0  0  0  0  0  0
  190.6440  176.6310  139.9160 C   0  0  0  0  0  3  0  0  0  0  0  0
  190.6210  176.9090  138.5470 C   0  0  0  0  0  0  0  0  0  0  0  0
  189.6660  177.1640  140.7700 C   0  0  0  0  0  0  0  0  0  0  0  0
  191.8610  176.2230  137.5130 Cl  0  0  0  0  0  0  0  0  0  0  0  0
  189.5780  178.0180  136.6600 O   0  0  0  0  0  1  0  0  0  0  0  0
  186.9970  177.3340  146.0350 N   0  0  0  0  0  2  0  0  0  0  0  0
  186.5510  178.3140  147.0120 C   0  0  0  0  0  2  0  0  0  0  0  0
  185.6120  179.2330  146.3930 N   0  0  0  0  0  2  0  0  0  0  0  0
  184.4410  178.4590  146.0150 C   0  0  0  0  0  2  0  0  0  0  0  0
  182.6220  178.7370  144.5050 O   0  0  0  0  0  1  0  0  0  0  0  0
  183.7800  179.0930  144.8440 C   0  0  0  0  0  0  0  0  0  0  0  0
  184.4550  180.0520  144.1010 O   0  0  0  0  0  0  0  0  0  0  0  0
  1  3  1  0  0  0  0
  2  9  1  6  0  0  0
  2  3  1  0  0  0  0
  2  4  1  0  0  0  0
  3  8  2  0  0  0  0
  4  7  1  0  0  0  0
  5  4  2  0  0  0  0
  7  6  2  0  0  0  0
  8  7  1  0  0  0  0
  8 19  1  0  0  0  0
  9 10  2  0  0  0  0
 11 15  2  0  0  0  0
 11 13  1  0  0  0  0
 12 16  1  0  0  0  0
 13 12  2  0  0  0  0
 14 16  2  0  0  0  0
 15 14  1  0  0  0  0
 16  9  1  0  0  0  0
 17 15  1  0  0  0  0
 18 11  1  0  0  0  0
 19 20  1  0  0  0  0
 21 20  1  0  0  0  0
 22 21  1  0  0  0  0
 23 24  1  0  0  0  0
 24 22  1  0  0  0  0
 25 24  2  0  0  0  0
M  END
>  <MODEL>
3

>  <REMARK>
 VINA RESULT:      -7.4      3.971      8.256
  Name = 
  7 active torsions:
  status: ('A' for Active; 'I' for Inactive)
    1  A    between atoms: N_1  and  C_19
    2  A    between atoms: N_1  and  C_25
    3  A    between atoms: N_4  and  C_19
    4  A    between atoms: N_4  and  C_20
    5  A    between atoms: C_5  and  C_10
    6  A    between atoms: C_10  and  C_17
    7  A    between atoms: C_20  and  C_22
                            x       y       z     vdW  Elec       q    Type
                         _______ _______ _______ _____ _____    ______ ____

>  <TORSDO>
F 7

$$$$
=
 OpenBabel10222418093D

 25 26  0  0  1  0  0  0  0  0999 V2000
  187.1490  177.0020  143.1990 C   0  0  0  0  0  1  0  0  0  0  0  0
  185.4180  177.8350  145.0180 C   0  0  1  0  0  3  0  0  0  0  0  0
  186.8180  177.4790  144.5720 C   0  0  0  0  0  0  0  0  0  0  0  0
  185.6460  178.1890  146.4540 C   0  0  0  0  0  0  0  0  0  0  0  0
  184.7510  178.5340  147.2700 O   0  0  0  0  0  0  0  0  0  0  0  0
  187.5880  178.2710  147.8820 O   0  0  0  0  0  0  0  0  0  0  0  0
  187.0500  178.0510  146.7650 C   0  0  0  0  0  0  0  0  0  0  0  0
  187.7130  177.6040  145.5520 C   0  0  0  0  0  0  0  0  0  0  0  0
  184.8830  179.0120  144.2470 C   0  0  0  0  0  0  0  0  0  0  0  0
  185.4790  180.1230  144.3090 O   0  0  0  0  0  0  0  0  0  0  0  0
  181.3720  178.6060  141.8260 C   0  0  0  0  0  0  0  0  0  0  0  0
  183.7850  178.6390  142.0390 C   0  0  0  0  0  3  0  0  0  0  0  0
  182.6400  178.5060  141.2470 C   0  0  0  0  0  3  0  0  0  0  0  0
  182.3960  178.9720  143.9900 C   0  0  0  0  0  3  0  0  0  0  0  0
  181.2480  178.8410  143.2020 C   0  0  0  0  0  0  0  0  0  0  0  0
  183.6720  178.8730  143.4160 C   0  0  0  0  0  0  0  0  0  0  0  0
  179.6710  178.9720  143.9570 Cl  0  0  0  0  0  0  0  0  0  0  0  0
  180.2430  178.4720  141.0270 O   0  0  0  0  0  1  0  0  0  0  0  0
  189.1080  177.3190  145.4040 N   0  0  0  0  0  2  0  0  0  0  0  0
  190.0930  178.3440  145.0990 C   0  0  0  0  0  2  0  0  0  0  0  0
  190.2810  178.4320  143.6610 N   0  0  0  0  0  2  0  0  0  0  0  0
  191.2670  177.4300  143.2950 C   0  0  0  0  0  2  0  0  0  0  0  0
  190.3300  175.2960  142.8100 O   0  0  0  0  0  1  0  0  0  0  0  0
  190.6500  176.4330  142.3790 C   0  0  0  0  0  0  0  0  0  0  0  0
  190.4640  176.7440  141.0390 O   0  0  0  0  0  0  0  0  0  0  0  0
  1  3  1  0  0  0  0
  2  9  1  6  0  0  0
  2  4  1  0  0  0  0
  3  2  1  0  0  0  0
  3  8  2  0  0  0  0
  4  7  1  0  0  0  0
  4  5  2  0  0  0  0
  7  6  2  0  0  0  0
  8  7  1  0  0  0  0
  9 10  2  0  0  0  0
 11 15  1  0  0  0  0
 12 16  2  0  0  0  0
 13 11  2  0  0  0  0
 13 12  1  0  0  0  0
 15 17  1  0  0  0  0
 15 14  2  0  0  0  0
 16 14  1  0  0  0  0
 16  9  1  0  0  0  0
 18 11  1  0  0  0  0
 19  8  1  0  0  0  0
 20 19  1  0  0  0  0
 21 20  1  0  0  0  0
 22 21  1  0  0  0  0
 24 23  1  0  0  0  0
 24 22  1  0  0  0  0
 25 24  2  0  0  0  0
M  END
>  <MODEL>
4

>  <REMARK>
 VINA RESULT:      -7.4      3.804      6.450
  Name = 
  7 active torsions:
  status: ('A' for Active; 'I' for Inactive)
    1  A    between atoms: N_1  and  C_19
    2  A    between atoms: N_1  and  C_25
    3  A    between atoms: N_4  and  C_19
    4  A    between atoms: N_4  and  C_20
    5  A    between atoms: C_5  and  C_10
    6  A    between atoms: C_10  and  C_17
    7  A    between atoms: C_20  and  C_22
                            x       y       z     vdW  Elec       q    Type
                         _______ _______ _______ _____ _____    ______ ____

>  <TORSDO>
F 7

$$$$
=
 OpenBabel10222418093D

 25 26  0  0  1  0  0  0  0  0999 V2000
  187.3480  177.0500  143.3080 C   0  0  0  0  0  1  0  0  0  0  0  0
  185.5810  177.8710  145.0980 C   0  0  1  0  0  3  0  0  0  0  0  0
  186.9890  177.5130  144.6790 C   0  0  0  0  0  0  0  0  0  0  0  0
  185.7790  178.2080  146.5420 C   0  0  0  0  0  0  0  0  0  0  0  0
  184.8670  178.5470  147.3420 O   0  0  0  0  0  0  0  0  0  0  0  0
  187.6880  178.2630  148.0140 O   0  0  0  0  0  0  0  0  0  0  0  0
  187.1740  178.0590  146.8830 C   0  0  0  0  0  0  0  0  0  0  0  0
  187.8630  177.6230  145.6810 C   0  0  0  0  0  0  0  0  0  0  0  0
  185.0690  179.0590  144.3290 C   0  0  0  0  0  0  0  0  0  0  0  0
  185.6160  180.1870  144.4830 O   0  0  0  0  0  0  0  0  0  0  0  0
  181.7900  178.6310  141.6040 C   0  0  0  0  0  0  0  0  0  0  0  0
  184.1690  178.5590  142.0570 C   0  0  0  0  0  3  0  0  0  0  0  0
  183.1010  178.4180  141.1660 C   0  0  0  0  0  3  0  0  0  0  0  0
  182.6200  179.1250  143.8250 C   0  0  0  0  0  3  0  0  0  0  0  0
  181.5490  178.9870  142.9380 C   0  0  0  0  0  0  0  0  0  0  0  0
  183.9380  178.9130  143.3930 C   0  0  0  0  0  0  0  0  0  0  0  0
  179.9160  179.2600  143.5170 Cl  0  0  0  0  0  0  0  0  0  0  0  0
  180.7380  178.4880  140.7080 O   0  0  0  0  0  1  0  0  0  0  0  0
  189.2590  177.3330  145.5600 N   0  0  0  0  0  2  0  0  0  0  0  0
  190.1930  178.2220  144.8880 C   0  0  0  0  0  2  0  0  0  0  0  0
  191.5550  177.8580  145.2400 N   0  0  0  0  0  2  0  0  0  0  0  0
  191.5510  176.4410  145.5610 C   0  0  0  0  0  2  0  0  0  0  0  0
  192.7580  175.2450  147.2280 O   0  0  0  0  0  0  0  0  0  0  0  0
  192.0430  176.2420  146.9500 C   0  0  0  0  0  0  0  0  0  0  0  0
  191.6800  177.1350  147.9490 O   0  0  0  0  0  1  0  0  0  0  0  0
  1  3  1  0  0  0  0
  2  9  1  6  0  0  0
  2  4  1  0  0  0  0
  3  2  1  0  0  0  0
  3  8  2  0  0  0  0
  4  7  1  0  0  0  0
  4  5  2  0  0  0  0
  7  6  2  0  0  0  0
  8  7  1  0  0  0  0
  9 10  2  0  0  0  0
 11 15  1  0  0  0  0
 12 16  2  0  0  0  0
 13 11  2  0  0  0  0
 13 12  1  0  0  0  0
 15 17  1  0  0  0  0
 15 14  2  0  0  0  0
 16 14  1  0  0  0  0
 16  9  1  0  0  0  0
 18 11  1  0  0  0  0
 19  8  1  0  0  0  0
 20 21  1  0  0  0  0
 20 19  1  0  0  0  0
 21 22  1  0  0  0  0
 22 24  1  0  0  0  0
 24 23  2  0  0  0  0
 24 25  1  0  0  0  0
M  END
>  <MODEL>
5

>  <REMARK>
 VINA RESULT:      -7.3      4.988      7.089
  Name = 
  7 active torsions:
  status: ('A' for Active; 'I' for Inactive)
    1  A    between atoms: N_1  and  C_19
    2  A    between atoms: N_1  and  C_25
    3  A    between atoms: N_4  and  C_19
    4  A    between atoms: N_4  and  C_20
    5  A    between atoms: C_5  and  C_10
    6  A    between atoms: C_10  and  C_17
    7  A    between atoms: C_20  and  C_22
                            x       y       z     vdW  Elec       q    Type
                         _______ _______ _______ _____ _____    ______ ____

>  <TORSDO>
F 7

$$$$
=
 OpenBabel10222418093D

 25 26  0  0  1  0  0  0  0  0999 V2000
  191.6380  177.2820  143.0750 C   0  0  0  0  0  1  0  0  0  0  0  0
  189.2310  177.9190  142.1820 C   0  0  1  0  0  3  0  0  0  0  0  0
  190.6490  177.4430  141.9710 C   0  0  0  0  0  0  0  0  0  0  0  0
  188.7150  177.9460  140.7780 C   0  0  0  0  0  0  0  0  0  0  0  0
  187.5600  178.3110  140.4330 O   0  0  0  0  0  0  0  0  0  0  0  0
  189.6610  177.4130  138.6250 O   0  0  0  0  0  0  0  0  0  0  0  0
  189.7560  177.5110  139.8760 C   0  0  0  0  0  0  0  0  0  0  0  0
  190.9270  177.2190  140.6850 C   0  0  0  0  0  0  0  0  0  0  0  0
  188.4500  176.9500  143.0290 C   0  0  0  0  0  0  0  0  0  0  0  0
  188.5890  175.7080  142.8460 O   0  0  0  0  0  0  0  0  0  0  0  0
  185.7870  178.3750  146.0670 C   0  0  0  0  0  0  0  0  0  0  0  0
  187.9400  177.4780  145.4130 C   0  0  0  0  0  3  0  0  0  0  0  0
  187.0730  177.9430  146.4050 C   0  0  0  0  0  3  0  0  0  0  0  0
  186.2390  177.8760  143.7410 C   0  0  0  0  0  3  0  0  0  0  0  0
  185.3680  178.3400  144.7300 C   0  0  0  0  0  0  0  0  0  0  0  0
  187.5310  177.4410  144.0730 C   0  0  0  0  0  0  0  0  0  0  0  0
  183.7610  178.8750  144.2750 Cl  0  0  0  0  0  0  0  0  0  0  0  0
  184.9350  178.8340  147.0640 O   0  0  0  0  0  1  0  0  0  0  0  0
  192.2000  176.7740  140.2070 N   0  0  0  0  0  2  0  0  0  0  0  0
  192.8960  177.4170  139.1050 C   0  0  0  0  0  2  0  0  0  0  0  0
  193.5560  176.4130  138.2890 N   0  0  0  0  0  2  0  0  0  0  0  0
  192.6660  176.1080  137.1820 C   0  0  0  0  0  2  0  0  0  0  0  0
  192.7820  173.7550  136.8390 O   0  0  0  0  0  0  0  0  0  0  0  0
  192.1440  174.7230  137.3270 C   0  0  0  0  0  0  0  0  0  0  0  0
  190.9330  174.5010  137.9690 O   0  0  0  0  0  1  0  0  0  0  0  0
  2  9  1  1  0  0  0
  3  2  1  0  0  0  0
  3  1  1  0  0  0  0
  4  2  1  0  0  0  0
  5  4  2  0  0  0  0
  6  7  2  0  0  0  0
  7  8  1  0  0  0  0
  7  4  1  0  0  0  0
  8  3  2  0  0  0  0
  9 16  1  0  0  0  0
 10  9  2  0  0  0  0
 11 13  1  0  0  0  0
 11 18  1  0  0  0  0
 12 13  2  0  0  0  0
 14 16  2  0  0  0  0
 14 15  1  0  0  0  0
 15 11  2  0  0  0  0
 16 12  1  0  0  0  0
 17 15  1  0  0  0  0
 19  8  1  0  0  0  0
 20 19  1  0  0  0  0
 21 20  1  0  0  0  0
 22 24  1  0  0  0  0
 22 21  1  0  0  0  0
 23 24  2  0  0  0  0
 24 25  1  0  0  0  0
M  END
>  <MODEL>
6

>  <REMARK>
 VINA RESULT:      -7.2      1.868      2.218
  Name = 
  7 active torsions:
  status: ('A' for Active; 'I' for Inactive)
    1  A    between atoms: N_1  and  C_19
    2  A    between atoms: N_1  and  C_25
    3  A    between atoms: N_4  and  C_19
    4  A    between atoms: N_4  and  C_20
    5  A    between atoms: C_5  and  C_10
    6  A    between atoms: C_10  and  C_17
    7  A    between atoms: C_20  and  C_22
                            x       y       z     vdW  Elec       q    Type
                         _______ _______ _______ _____ _____    ______ ____

>  <TORSDO>
F 7

$$$$
=
 OpenBabel10222418093D

 25 26  0  0  1  0  0  0  0  0999 V2000
  191.2120  177.3080  141.4400 C   0  0  0  0  0  1  0  0  0  0  0  0
  188.8500  178.1410  142.2910 C   0  0  1  0  0  3  0  0  0  0  0  0
  189.8000  177.7170  141.1950 C   0  0  0  0  0  0  0  0  0  0  0  0
  187.6240  178.4850  141.5050 C   0  0  0  0  0  0  0  0  0  0  0  0
  186.5480  178.9240  141.9880 O   0  0  0  0  0  0  0  0  0  0  0  0
  187.0600  178.4440  139.1610 O   0  0  0  0  0  0  0  0  0  0  0  0
  187.8760  178.2580  140.1000 C   0  0  0  0  0  0  0  0  0  0  0  0
  189.2450  177.7870  139.9840 C   0  0  0  0  0  0  0  0  0  0  0  0
  188.5820  177.0100  143.2480 C   0  0  0  0  0  0  0  0  0  0  0  0
  188.3510  175.8530  142.7980 O   0  0  0  0  0  0  0  0  0  0  0  0
  188.6010  177.6930  147.4770 C   0  0  0  0  0  0  0  0  0  0  0  0
  187.4190  177.6360  145.3640 C   0  0  0  0  0  3  0  0  0  0  0  0
  187.4230  177.8580  146.7440 C   0  0  0  0  0  3  0  0  0  0  0  0
  189.7710  177.0800  145.4470 C   0  0  0  0  0  3  0  0  0  0  0  0
  189.7800  177.3030  146.8270 C   0  0  0  0  0  0  0  0  0  0  0  0
  188.5920  177.2440  144.7040 C   0  0  0  0  0  0  0  0  0  0  0  0
  191.2740  177.0860  147.7200 Cl  0  0  0  0  0  0  0  0  0  0  0  0
  188.5910  177.9180  148.8480 O   0  0  0  0  0  1  0  0  0  0  0  0
  189.9270  177.4540  138.7710 N   0  0  0  0  0  2  0  0  0  0  0  0
  189.8820  176.1260  138.1800 C   0  0  0  0  0  2  0  0  0  0  0  0
  188.5690  175.8890  137.6070 N   0  0  0  0  0  2  0  0  0  0  0  0
  188.7290  175.8660  136.1630 C   0  0  0  0  0  2  0  0  0  0  0  0
  189.4340  177.8330  135.0230 O   0  0  0  0  0  0  0  0  0  0  0  0
  188.5020  177.2290  135.6130 C   0  0  0  0  0  0  0  0  0  0  0  0
  187.2720  177.8500  135.7850 O   0  0  0  0  0  1  0  0  0  0  0  0
  2  9  1  1  0  0  0
  3  1  1  0  0  0  0
  3  2  1  0  0  0  0
  4  5  2  0  0  0  0
  4  2  1  0  0  0  0
  6  7  2  0  0  0  0
  7  4  1  0  0  0  0
  8  7  1  0  0  0  0
  8  3  2  0  0  0  0
  9 16  1  0  0  0  0
 10  9  2  0  0  0  0
 11 18  1  0  0  0  0
 12 13  1  0  0  0  0
 13 11  2  0  0  0  0
 14 15  2  0  0  0  0
 15 11  1  0  0  0  0
 15 17  1  0  0  0  0
 16 12  2  0  0  0  0
 16 14  1  0  0  0  0
 19  8  1  0  0  0  0
 20 19  1  0  0  0  0
 21 20  1  0  0  0  0
 22 21  1  0  0  0  0
 23 24  2  0  0  0  0
 24 25  1  0  0  0  0
 24 22  1  0  0  0  0
M  END
>  <MODEL>
7

>  <REMARK>
 VINA RESULT:      -7.1      2.208      2.739
  Name = 
  7 active torsions:
  status: ('A' for Active; 'I' for Inactive)
    1  A    between atoms: N_1  and  C_19
    2  A    between atoms: N_1  and  C_25
    3  A    between atoms: N_4  and  C_19
    4  A    between atoms: N_4  and  C_20
    5  A    between atoms: C_5  and  C_10
    6  A    between atoms: C_10  and  C_17
    7  A    between atoms: C_20  and  C_22
                            x       y       z     vdW  Elec       q    Type
                         _______ _______ _______ _____ _____    ______ ____

>  <TORSDO>
F 7

$$$$
=
 OpenBabel10222418093D

 25 26  0  0  1  0  0  0  0  0999 V2000
  189.0250  178.0690  146.4960 C   0  0  0  0  0  1  0  0  0  0  0  0
  188.7640  178.1600  143.8640 C   0  0  1  0  0  3  0  0  0  0  0  0
  189.5600  177.8750  145.1170 C   0  0  0  0  0  0  0  0  0  0  0  0
  189.7690  177.8530  142.7990 C   0  0  0  0  0  0  0  0  0  0  0  0
  189.5760  177.9690  141.5600 O   0  0  0  0  0  0  0  0  0  0  0  0
  192.0560  177.0900  142.8100 O   0  0  0  0  0  0  0  0  0  0  0  0
  191.0050  177.4260  143.4140 C   0  0  0  0  0  0  0  0  0  0  0  0
  190.8020  177.4680  144.8520 C   0  0  0  0  0  0  0  0  0  0  0  0
  187.5680  177.2520  143.7600 C   0  0  0  0  0  0  0  0  0  0  0  0
  187.7370  176.0110  143.6020 O   0  0  0  0  0  0  0  0  0  0  0  0
  183.6030  178.8520  144.0240 C   0  0  0  0  0  0  0  0  0  0  0  0
  185.6890  178.2230  145.0820 C   0  0  0  0  0  3  0  0  0  0  0  0
  184.3960  178.7450  145.1700 C   0  0  0  0  0  3  0  0  0  0  0  0
  185.4010  177.9120  142.7010 C   0  0  0  0  0  3  0  0  0  0  0  0
  184.1060  178.4330  142.7850 C   0  0  0  0  0  0  0  0  0  0  0  0
  186.2020  177.8020  143.8470 C   0  0  0  0  0  0  0  0  0  0  0  0
  183.1360  178.5550  141.3290 Cl  0  0  0  0  0  0  0  0  0  0  0  0
  182.3190  179.3730  144.1260 O   0  0  0  0  0  1  0  0  0  0  0  0
  191.7690  177.1430  145.8550 N   0  0  0  0  0  2  0  0  0  0  0  0
  192.0100  175.7820  146.3060 C   0  0  0  0  0  2  0  0  0  0  0  0
  191.7070  175.6750  147.7230 N   0  0  0  0  0  2  0  0  0  0  0  0
  192.9750  175.6360  148.4310 C   0  0  0  0  0  2  0  0  0  0  0  0
  192.2530  177.7710  149.1970 O   0  0  0  0  0  0  0  0  0  0  0  0
  193.1460  176.8850  149.2190 C   0  0  0  0  0  0  0  0  0  0  0  0
  194.3080  177.0920  149.9490 O   0  0  0  0  0  1  0  0  0  0  0  0
  2  9  1  6  0  0  0
  2  3  1  0  0  0  0
  3  1  1  0  0  0  0
  4  7  1  0  0  0  0
  4  2  1  0  0  0  0
  5  4  2  0  0  0  0
  6  7  2  0  0  0  0
  7  8  1  0  0  0  0
  8  3  2  0  0  0  0
  8 19  1  0  0  0  0
  9 16  1  0  0  0  0
 10  9  2  0  0  0  0
 11 18  1  0  0  0  0
 11 13  1  0  0  0  0
 12 13  2  0  0  0  0
 14 15  1  0  0  0  0
 14 16  2  0  0  0  0
 15 11  2  0  0  0  0
 16 12  1  0  0  0  0
 17 15  1  0  0  0  0
 19 20  1  0  0  0  0
 20 21  1  0  0  0  0
 21 22  1  0  0  0  0
 22 24  1  0  0  0  0
 23 24  2  0  0  0  0
 24 25  1  0  0  0  0
M  END
>  <MODEL>
8

>  <REMARK>
 VINA RESULT:      -7.1      3.974      6.629
  Name = 
  7 active torsions:
  status: ('A' for Active; 'I' for Inactive)
    1  A    between atoms: N_1  and  C_19
    2  A    between atoms: N_1  and  C_25
    3  A    between atoms: N_4  and  C_19
    4  A    between atoms: N_4  and  C_20
    5  A    between atoms: C_5  and  C_10
    6  A    between atoms: C_10  and  C_17
    7  A    between atoms: C_20  and  C_22
                            x       y       z     vdW  Elec       q    Type
                         _______ _______ _______ _____ _____    ______ ____

>  <TORSDO>
F 7

$$$$
=
 OpenBabel10222418093D

 25 26  0  0  1  0  0  0  0  0999 V2000
  187.2990  176.9140  143.5730 C   0  0  0  0  0  1  0  0  0  0  0  0
  184.9740  177.9780  144.2540 C   0  0  1  0  0  3  0  0  0  0  0  0
  186.4430  177.7160  144.4940 C   0  0  0  0  0  0  0  0  0  0  0  0
  184.6100  178.7620  145.4750 C   0  0  0  0  0  0  0  0  0  0  0  0
  183.4590  179.1940  145.7470 O   0  0  0  0  0  0  0  0  0  0  0  0
  185.8290  179.5360  147.4060 O   0  0  0  0  0  0  0  0  0  0  0  0
  185.7800  178.9260  146.3070 C   0  0  0  0  0  0  0  0  0  0  0  0
  186.8770  178.2490  145.6370 C   0  0  0  0  0  0  0  0  0  0  0  0
  184.7620  178.7890  143.0040 C   0  0  0  0  0  0  0  0  0  0  0  0
  185.5830  179.7000  142.7030 O   0  0  0  0  0  0  0  0  0  0  0  0
  181.4100  178.0130  140.4520 C   0  0  0  0  0  0  0  0  0  0  0  0
  183.7910  177.9030  140.8840 C   0  0  0  0  0  3  0  0  0  0  0  0
  182.6980  177.6490  140.0500 C   0  0  0  0  0  3  0  0  0  0  0  0
  182.3100  178.8860  142.5240 C   0  0  0  0  0  3  0  0  0  0  0  0
  181.2140  178.6350  141.6920 C   0  0  0  0  0  0  0  0  0  0  0  0
  183.6050  178.5240  142.1280 C   0  0  0  0  0  0  0  0  0  0  0  0
  179.6100  179.1040  142.2230 Cl  0  0  0  0  0  0  0  0  0  0  0  0
  180.3330  177.7550  139.6120 O   0  0  0  0  0  1  0  0  0  0  0  0
  188.2220  178.1390  146.1110 N   0  0  0  0  0  2  0  0  0  0  0  0
  188.6190  177.2010  147.1480 C   0  0  0  0  0  2  0  0  0  0  0  0
  189.8140  176.4870  146.7330 N   0  0  0  0  0  2  0  0  0  0  0  0
  190.9270  177.0390  147.4850 C   0  0  0  0  0  2  0  0  0  0  0  0
  192.8600  176.0170  148.4260 O   0  0  0  0  0  1  0  0  0  0  0  0
  192.0740  176.0940  147.4470 C   0  0  0  0  0  0  0  0  0  0  0  0
  192.3010  175.3240  146.3140 O   0  0  0  0  0  0  0  0  0  0  0  0
  1  3  1  0  0  0  0
  2  9  1  6  0  0  0
  2  3  1  0  0  0  0
  2  4  1  0  0  0  0
  3  8  2  0  0  0  0
  4  5  2  0  0  0  0
  4  7  1  0  0  0  0
  7  6  2  0  0  0  0
  8 19  1  0  0  0  0
  8  7  1  0  0  0  0
 10  9  2  0  0  0  0
 11 15  1  0  0  0  0
 12 16  2  0  0  0  0
 13 11  2  0  0  0  0
 13 12  1  0  0  0  0
 15 17  1  0  0  0  0
 15 14  2  0  0  0  0
 16 14  1  0  0  0  0
 16  9  1  0  0  0  0
 18 11  1  0  0  0  0
 19 20  1  0  0  0  0
 21 20  1  0  0  0  0
 21 22  1  0  0  0  0
 24 22  1  0  0  0  0
 24 23  1  0  0  0  0
 25 24  2  0  0  0  0
M  END
>  <MODEL>
9

>  <REMARK>
 VINA RESULT:      -7.1      5.066      7.643
  Name = 
  7 active torsions:
  status: ('A' for Active; 'I' for Inactive)
    1  A    between atoms: N_1  and  C_19
    2  A    between atoms: N_1  and  C_25
    3  A    between atoms: N_4  and  C_19
    4  A    between atoms: N_4  and  C_20
    5  A    between atoms: C_5  and  C_10
    6  A    between atoms: C_10  and  C_17
    7  A    between atoms: C_20  and  C_22
                            x       y       z     vdW  Elec       q    Type
                         _______ _______ _______ _____ _____    ______ ____

>  <TORSDO>
F 7

$$$$
