=
 OpenBabel10222417413D

 30 32  0  0  0  0  0  0  0  0999 V2000
  191.2100  176.7610  137.8150 C   0  0  0  0  0  3  0  0  0  0  0  0
  184.6010  176.1470  136.7690 C   0  0  0  0  0  3  0  0  0  0  0  0
  187.4160  177.0580  144.4820 N   0  0  0  0  0  2  0  0  0  0  0  0
  187.9790  177.1980  135.9650 C   0  0  0  0  0  2  0  0  0  0  0  0
  187.0920  176.1150  136.5690 C   0  0  0  0  0  2  0  0  0  0  0  0
  188.5200  177.1770  142.2430 C   0  0  0  0  0  0  0  0  0  0  0  0
  189.8670  177.0510  137.5680 C   0  0  0  0  0  0  0  0  0  0  0  0
  189.0570  177.4290  138.6410 C   0  0  0  0  0  3  0  0  0  0  0  0
  189.5650  177.4850  139.9330 C   0  0  0  0  0  0  0  0  0  0  0  0
  183.4620  176.6490  137.3170 N   0  0  0  0  0  0  0  0  0  0  0  0
  186.2620  178.0190  142.6610 N   0  0  0  0  0  0  0  0  0  0  0  0
  189.3500  176.9420  136.2710 O   0  0  0  0  0  0  0  0  0  0  0  0
  187.3530  177.4620  143.1090 C   0  0  0  0  0  0  0  0  0  0  0  0
  190.9250  177.2000  140.1380 C   0  0  0  0  0  0  0  0  0  0  0  0
  183.5020  177.6750  138.2060 C   0  0  0  0  0  3  0  0  0  0  0  0
  188.6670  177.8450  140.9850 N   0  0  0  0  0  2  0  0  0  0  0  0
  191.7080  176.8490  139.0800 N   0  0  0  0  0  0  0  0  0  0  0  0
  186.0880  178.4150  141.3270 N   0  0  0  0  0  0  0  0  0  0  0  0
  191.4870  177.3240  141.3660 F   0  0  0  0  0  0  0  0  0  0  0  0
  184.7350  178.2240  138.5680 C   0  0  0  0  0  0  0  0  0  0  0  0
  184.9660  178.9180  140.9320 C   0  0  0  0  0  3  0  0  0  0  0  0
  185.8750  177.7160  138.0240 N   0  0  0  0  0  0  0  0  0  0  0  0
  189.3590  176.3110  142.6070 O   0  0  0  0  0  0  0  0  0  0  0  0
  185.8340  176.6980  137.1220 C   0  0  0  0  0  0  0  0  0  0  0  0
  184.7970  179.3730  139.5200 C   0  0  0  0  0  2  0  0  0  0  0  0
  186.3360  177.2350  145.3610 N   0  0  0  0  0  2  0  0  0  0  0  0
  186.7920  178.0970  146.4390 C   0  0  0  0  0  2  0  0  0  0  0  0
  185.9090  179.9510  147.6420 O   0  0  0  0  0  1  0  0  0  0  0  0
  184.3760  178.7030  146.4800 O   0  0  0  0  0  0  0  0  0  0  0  0
  185.6770  178.9770  146.8790 C   0  0  0  0  0  0  0  0  0  0  0  0
  1 17  1  0  0  0  0
  2 24  2  0  0  0  0
  2 10  1  0  0  0  0
  3 26  1  0  0  0  0
  4 12  1  0  0  0  0
  4  5  1  0  0  0  0
  5 24  1  0  0  0  0
  6 23  2  0  0  0  0
  6 13  1  0  0  0  0
  7  1  2  0  0  0  0
  7  8  1  0  0  0  0
  8  9  2  0  0  0  0
  9 14  1  0  0  0  0
  9 16  1  0  0  0  0
 10 15  2  0  0  0  0
 11 13  2  0  0  0  0
 12  7  1  0  0  0  0
 13  3  1  0  0  0  0
 14 19  1  0  0  0  0
 15 20  1  0  0  0  0
 16  6  1  0  0  0  0
 17 14  2  0  0  0  0
 18 11  1  0  0  0  0
 20 25  1  0  0  0  0
 21 18  2  0  0  0  0
 22 20  2  0  0  0  0
 24 22  1  0  0  0  0
 25 21  1  0  0  0  0
 26 27  1  0  0  0  0
 27 30  1  0  0  0  0
 29 30  2  0  0  0  0
 30 28  1  0  0  0  0
M  END
>  <MODEL>
1

>  <REMARK>
 VINA RESULT:      -8.3      0.000      0.000
  Name = 
  3 active torsions:
  status: ('A' for Active; 'I' for Inactive)
    1  A    between atoms: N_3  and  N_27
    2  A    between atoms: C_26  and  N_27
    3  A    between atoms: C_26  and  C_30
                            x       y       z     vdW  Elec       q    Type
                         _______ _______ _______ _____ _____    ______ ____

>  <TORSDO>
F 3

$$$$
=
 OpenBabel10222417413D

 30 32  0  0  0  0  0  0  0  0999 V2000
  184.2330  178.8900  141.9270 C   0  0  0  0  0  3  0  0  0  0  0  0
  188.4700  176.6380  146.6310 C   0  0  0  0  0  3  0  0  0  0  0  0
  190.7650  176.4760  138.6970 N   0  0  0  0  0  2  0  0  0  0  0  0
  185.8700  178.7900  145.2970 C   0  0  0  0  0  2  0  0  0  0  0  0
  186.4580  177.3840  145.3480 C   0  0  0  0  0  2  0  0  0  0  0  0
  188.7830  177.4390  139.8750 C   0  0  0  0  0  0  0  0  0  0  0  0
  185.2310  178.8250  142.9010 C   0  0  0  0  0  0  0  0  0  0  0  0
  186.5580  178.6840  142.4880 C   0  0  0  0  0  3  0  0  0  0  0  0
  186.8780  178.5780  141.1410 C   0  0  0  0  0  0  0  0  0  0  0  0
  189.8150  176.6410  146.8330 N   0  0  0  0  0  0  0  0  0  0  0  0
  191.0370  177.4620  140.8250 N   0  0  0  0  0  0  0  0  0  0  0  0
  184.8950  178.8810  144.2590 O   0  0  0  0  0  0  0  0  0  0  0  0
  190.2370  177.1570  139.8400 C   0  0  0  0  0  0  0  0  0  0  0  0
  185.8470  178.6630  140.1900 C   0  0  0  0  0  0  0  0  0  0  0  0
  190.6410  177.3930  146.0600 C   0  0  0  0  0  3  0  0  0  0  0  0
  188.2540  178.3990  140.7960 N   0  0  0  0  0  2  0  0  0  0  0  0
  184.5590  178.8170  140.6060 N   0  0  0  0  0  0  0  0  0  0  0  0
  190.6100  178.0930  142.0010 N   0  0  0  0  0  0  0  0  0  0  0  0
  186.1180  178.6500  138.8620 F   0  0  0  0  0  0  0  0  0  0  0  0
  190.1020  178.1760  145.0370 C   0  0  0  0  0  0  0  0  0  0  0  0
  191.4420  178.3260  142.9610 C   0  0  0  0  0  3  0  0  0  0  0  0
  188.7570  178.1670  144.8310 N   0  0  0  0  0  0  0  0  0  0  0  0
  188.0130  176.7960  139.1140 O   0  0  0  0  0  0  0  0  0  0  0  0
  187.9270  177.4250  145.6140 C   0  0  0  0  0  0  0  0  0  0  0  0
  190.9920  179.0320  144.1970 C   0  0  0  0  0  2  0  0  0  0  0  0
  192.1190  176.1160  138.6040 N   0  0  0  0  0  2  0  0  0  0  0  0
  192.4490  176.0340  137.1910 C   0  0  0  0  0  2  0  0  0  0  0  0
  194.4250  176.8640  136.1560 O   0  0  0  0  0  0  0  0  0  0  0  0
  194.7490  175.2820  137.7830 O   0  0  0  0  0  1  0  0  0  0  0  0
  193.9250  176.0970  137.0190 C   0  0  0  0  0  0  0  0  0  0  0  0
  1  7  1  0  0  0  0
  2 10  1  0  0  0  0
  3 13  1  0  0  0  0
  4  5  1  0  0  0  0
  5 24  1  0  0  0  0
  6 16  1  0  0  0  0
  7 12  1  0  0  0  0
  8  7  2  0  0  0  0
  9  8  1  0  0  0  0
 11 18  1  0  0  0  0
 12  4  1  0  0  0  0
 13  6  1  0  0  0  0
 13 11  2  0  0  0  0
 14 17  1  0  0  0  0
 14  9  2  0  0  0  0
 15 10  2  0  0  0  0
 16  9  1  0  0  0  0
 17  1  2  0  0  0  0
 18 21  2  0  0  0  0
 19 14  1  0  0  0  0
 20 15  1  0  0  0  0
 21 25  1  0  0  0  0
 22 20  2  0  0  0  0
 22 24  1  0  0  0  0
 23  6  2  0  0  0  0
 24  2  2  0  0  0  0
 25 20  1  0  0  0  0
 26  3  1  0  0  0  0
 27 26  1  0  0  0  0
 28 30  2  0  0  0  0
 30 27  1  0  0  0  0
 30 29  1  0  0  0  0
M  END
>  <MODEL>
2

>  <REMARK>
 VINA RESULT:      -8.0      2.792      8.407
  Name = 
  3 active torsions:
  status: ('A' for Active; 'I' for Inactive)
    1  A    between atoms: N_3  and  N_27
    2  A    between atoms: C_26  and  N_27
    3  A    between atoms: C_26  and  C_30
                            x       y       z     vdW  Elec       q    Type
                         _______ _______ _______ _____ _____    ______ ____

>  <TORSDO>
F 3

$$$$
=
 OpenBabel10222417413D

 30 32  0  0  0  0  0  0  0  0999 V2000
  183.4960  178.7880  144.7040 C   0  0  0  0  0  3  0  0  0  0  0  0
  189.3500  175.9150  143.0810 C   0  0  0  0  0  3  0  0  0  0  0  0
  183.7100  177.2310  137.1900 N   0  0  0  0  0  2  0  0  0  0  0  0
  187.1850  178.1640  144.9310 C   0  0  0  0  0  2  0  0  0  0  0  0
  187.3390  176.7950  144.2780 C   0  0  0  0  0  2  0  0  0  0  0  0
  183.8440  177.8960  139.5950 C   0  0  0  0  0  0  0  0  0  0  0  0
  184.8220  178.5920  144.3120 C   0  0  0  0  0  0  0  0  0  0  0  0
  185.1190  178.5780  142.9470 C   0  0  0  0  0  3  0  0  0  0  0  0
  184.1160  178.7210  141.9970 C   0  0  0  0  0  0  0  0  0  0  0  0
  190.2000  175.9350  142.0200 N   0  0  0  0  0  0  0  0  0  0  0  0
  185.7940  177.8390  138.1180 N   0  0  0  0  0  0  0  0  0  0  0  0
  185.8190  178.3970  145.2750 O   0  0  0  0  0  0  0  0  0  0  0  0
  184.5100  177.6810  138.2890 C   0  0  0  0  0  0  0  0  0  0  0  0
  182.7960  178.9300  142.4320 C   0  0  0  0  0  0  0  0  0  0  0  0
  190.0550  176.8420  141.0190 C   0  0  0  0  0  3  0  0  0  0  0  0
  184.4910  178.6590  140.6190 N   0  0  0  0  0  2  0  0  0  0  0  0
  182.5230  178.9600  143.7660 N   0  0  0  0  0  0  0  0  0  0  0  0
  186.6660  178.2390  139.1400 N   0  0  0  0  0  0  0  0  0  0  0  0
  181.7970  179.1600  141.5450 F   0  0  0  0  0  0  0  0  0  0  0  0
  189.0130  177.7700  141.0770 C   0  0  0  0  0  0  0  0  0  0  0  0
  187.9350  178.3320  138.9210 C   0  0  0  0  0  3  0  0  0  0  0  0
  188.1580  177.7450  142.1360 N   0  0  0  0  0  0  0  0  0  0  0  0
  182.7220  177.3660  139.8080 O   0  0  0  0  0  0  0  0  0  0  0  0
  188.3120  176.8460  143.1460 C   0  0  0  0  0  0  0  0  0  0  0  0
  188.8570  178.7940  140.0010 C   0  0  0  0  0  2  0  0  0  0  0  0
  184.2650  176.9450  135.9330 N   0  0  0  0  0  2  0  0  0  0  0  0
  184.0450  175.5320  135.6720 C   0  0  0  0  0  2  0  0  0  0  0  0
  186.2480  174.7650  136.1420 O   0  0  0  0  0  0  0  0  0  0  0  0
  184.5920  173.8950  137.4670 O   0  0  0  0  0  1  0  0  0  0  0  0
  185.0270  174.7240  136.4430 C   0  0  0  0  0  0  0  0  0  0  0  0
  2 24  1  0  0  0  0
  3 13  1  0  0  0  0
  4 12  1  0  0  0  0
  5  4  1  0  0  0  0
  6 23  2  0  0  0  0
  6 16  1  0  0  0  0
  7  1  1  0  0  0  0
  7 12  1  0  0  0  0
  8  7  2  0  0  0  0
  9 14  2  0  0  0  0
  9  8  1  0  0  0  0
 10  2  2  0  0  0  0
 11 13  2  0  0  0  0
 11 18  1  0  0  0  0
 13  6  1  0  0  0  0
 14 17  1  0  0  0  0
 15 20  2  0  0  0  0
 15 10  1  0  0  0  0
 16  9  1  0  0  0  0
 17  1  2  0  0  0  0
 19 14  1  0  0  0  0
 20 22  1  0  0  0  0
 21 18  2  0  0  0  0
 21 25  1  0  0  0  0
 22 24  2  0  0  0  0
 24  5  1  0  0  0  0
 25 20  1  0  0  0  0
 26  3  1  0  0  0  0
 27 26  1  0  0  0  0
 27 30  1  0  0  0  0
 28 30  2  0  0  0  0
 30 29  1  0  0  0  0
M  END
>  <MODEL>
3

>  <REMARK>
 VINA RESULT:      -7.8      3.073      7.992
  Name = 
  3 active torsions:
  status: ('A' for Active; 'I' for Inactive)
    1  A    between atoms: N_3  and  N_27
    2  A    between atoms: C_26  and  N_27
    3  A    between atoms: C_26  and  C_30
                            x       y       z     vdW  Elec       q    Type
                         _______ _______ _______ _____ _____    ______ ____

>  <TORSDO>
F 3

$$$$
=
 OpenBabel10222417413D

 30 32  0  0  0  0  0  0  0  0999 V2000
  184.5700  178.7430  146.0520 C   0  0  0  0  0  3  0  0  0  0  0  0
  189.8720  175.8750  143.0820 C   0  0  0  0  0  3  0  0  0  0  0  0
  183.2180  177.7530  138.5600 N   0  0  0  0  0  2  0  0  0  0  0  0
  188.2040  178.0240  145.4840 C   0  0  0  0  0  2  0  0  0  0  0  0
  188.1750  176.7050  144.7200 C   0  0  0  0  0  2  0  0  0  0  0  0
  183.8550  178.2320  140.9290 C   0  0  0  0  0  0  0  0  0  0  0  0
  185.7820  178.5490  145.3870 C   0  0  0  0  0  0  0  0  0  0  0  0
  185.7990  178.6310  143.9930 C   0  0  0  0  0  3  0  0  0  0  0  0
  184.6320  178.8670  143.2780 C   0  0  0  0  0  0  0  0  0  0  0  0
  190.4920  175.9560  141.8750 N   0  0  0  0  0  0  0  0  0  0  0  0
  185.4660  178.2450  139.0880 N   0  0  0  0  0  0  0  0  0  0  0  0
  186.9450  178.2600  146.1120 O   0  0  0  0  0  0  0  0  0  0  0  0
  184.2370  178.1020  139.5040 C   0  0  0  0  0  0  0  0  0  0  0  0
  183.4350  179.0710  143.9840 C   0  0  0  0  0  0  0  0  0  0  0  0
  190.1830  176.9400  140.9890 C   0  0  0  0  0  3  0  0  0  0  0  0
  184.7210  178.9010  141.8520 N   0  0  0  0  0  2  0  0  0  0  0  0
  183.4360  179.0060  145.3450 N   0  0  0  0  0  0  0  0  0  0  0  0
  186.5390  178.5470  139.9370 N   0  0  0  0  0  0  0  0  0  0  0  0
  182.2870  179.3890  143.3370 F   0  0  0  0  0  0  0  0  0  0  0  0
  189.2080  177.8830  141.3220 C   0  0  0  0  0  0  0  0  0  0  0  0
  187.7410  178.6290  139.4730 C   0  0  0  0  0  3  0  0  0  0  0  0
  188.5820  177.7960  142.5270 N   0  0  0  0  0  0  0  0  0  0  0  0
  182.7800  177.7110  141.3270 O   0  0  0  0  0  0  0  0  0  0  0  0
  188.9020  176.8210  143.4210 C   0  0  0  0  0  0  0  0  0  0  0  0
  188.8770  178.9880  140.3740 C   0  0  0  0  0  2  0  0  0  0  0  0
  183.4990  177.5520  137.2000 N   0  0  0  0  0  2  0  0  0  0  0  0
  183.1720  176.1700  136.8900 C   0  0  0  0  0  2  0  0  0  0  0  0
  184.1610  174.2370  137.8650 O   0  0  0  0  0  1  0  0  0  0  0  0
  185.6110  175.6730  136.8210 O   0  0  0  0  0  0  0  0  0  0  0  0
  184.3330  175.2980  137.2100 C   0  0  0  0  0  0  0  0  0  0  0  0
  2 24  1  0  0  0  0
  3 13  1  0  0  0  0
  4 12  1  0  0  0  0
  5  4  1  0  0  0  0
  6 23  2  0  0  0  0
  6 16  1  0  0  0  0
  7  1  1  0  0  0  0
  7 12  1  0  0  0  0
  8  7  2  0  0  0  0
  9 14  2  0  0  0  0
  9  8  1  0  0  0  0
 10  2  2  0  0  0  0
 11 13  2  0  0  0  0
 11 18  1  0  0  0  0
 13  6  1  0  0  0  0
 14 17  1  0  0  0  0
 15 20  2  0  0  0  0
 15 10  1  0  0  0  0
 16  9  1  0  0  0  0
 17  1  2  0  0  0  0
 19 14  1  0  0  0  0
 20 22  1  0  0  0  0
 21 18  2  0  0  0  0
 21 25  1  0  0  0  0
 22 24  2  0  0  0  0
 24  5  1  0  0  0  0
 25 20  1  0  0  0  0
 26  3  1  0  0  0  0
 27 26  1  0  0  0  0
 27 30  1  0  0  0  0
 29 30  2  0  0  0  0
 30 28  1  0  0  0  0
M  END
>  <MODEL>
4

>  <REMARK>
 VINA RESULT:      -7.7      2.988      7.849
  Name = 
  3 active torsions:
  status: ('A' for Active; 'I' for Inactive)
    1  A    between atoms: N_3  and  N_27
    2  A    between atoms: C_26  and  N_27
    3  A    between atoms: C_26  and  C_30
                            x       y       z     vdW  Elec       q    Type
                         _______ _______ _______ _____ _____    ______ ____

>  <TORSDO>
F 3

$$$$
=
 OpenBabel10222417413D

 30 32  0  0  0  0  0  0  0  0999 V2000
  189.3150  177.0470  136.2700 C   0  0  0  0  0  3  0  0  0  0  0  0
  182.9990  176.0670  138.3450 C   0  0  0  0  0  3  0  0  0  0  0  0
  189.0050  176.9970  143.9410 N   0  0  0  0  0  2  0  0  0  0  0  0
  185.5800  177.3290  136.1290 C   0  0  0  0  0  2  0  0  0  0  0  0
  185.1180  176.1850  137.0240 C   0  0  0  0  0  2  0  0  0  0  0  0
  188.9490  177.2220  141.4530 C   0  0  0  0  0  0  0  0  0  0  0  0
  187.9970  177.2620  136.6800 C   0  0  0  0  0  0  0  0  0  0  0  0
  187.7570  177.5730  138.0200 C   0  0  0  0  0  3  0  0  0  0  0  0
  188.7990  177.6340  138.9360 C   0  0  0  0  0  0  0  0  0  0  0  0
  182.2200  176.4910  139.3760 N   0  0  0  0  0  0  0  0  0  0  0  0
  187.1020  177.9230  142.8950 N   0  0  0  0  0  0  0  0  0  0  0  0
  186.9470  177.1480  135.7600 O   0  0  0  0  0  0  0  0  0  0  0  0
  188.3000  177.4220  142.7690 C   0  0  0  0  0  0  0  0  0  0  0  0
  190.1120  177.4250  138.4830 C   0  0  0  0  0  0  0  0  0  0  0  0
  182.6200  177.5020  140.1910 C   0  0  0  0  0  3  0  0  0  0  0  0
  188.4720  177.9210  140.2980 N   0  0  0  0  0  2  0  0  0  0  0  0
  190.3350  177.1410  137.1690 N   0  0  0  0  0  0  0  0  0  0  0  0
  186.3170  178.3320  141.8080 N   0  0  0  0  0  0  0  0  0  0  0  0
  191.1700  177.5580  139.3200 F   0  0  0  0  0  0  0  0  0  0  0  0
  183.8560  178.1150  139.9710 C   0  0  0  0  0  0  0  0  0  0  0  0
  185.1190  178.7770  141.9940 C   0  0  0  0  0  3  0  0  0  0  0  0
  184.6380  177.6840  138.9430 N   0  0  0  0  0  0  0  0  0  0  0  0
  189.8970  176.4000  141.3530 O   0  0  0  0  0  0  0  0  0  0  0  0
  184.2310  176.6820  138.1170 C   0  0  0  0  0  0  0  0  0  0  0  0
  184.2990  179.2470  140.8380 C   0  0  0  0  0  2  0  0  0  0  0  0
  188.4440  177.0940  145.2240 N   0  0  0  0  0  2  0  0  0  0  0  0
  189.3440  177.9030  146.0300 C   0  0  0  0  0  2  0  0  0  0  0  0
  190.2880  176.1950  147.3920 O   0  0  0  0  0  1  0  0  0  0  0  0
  191.7530  177.2710  145.9960 O   0  0  0  0  0  0  0  0  0  0  0  0
  190.4770  177.0660  146.5040 C   0  0  0  0  0  0  0  0  0  0  0  0
  1  7  2  0  0  0  0
  1 17  1  0  0  0  0
  2 10  1  0  0  0  0
  3 26  1  0  0  0  0
  4  5  1  0  0  0  0
  5 24  1  0  0  0  0
  6 13  1  0  0  0  0
  7  8  1  0  0  0  0
  8  9  2  0  0  0  0
  9 16  1  0  0  0  0
 10 15  2  0  0  0  0
 12  4  1  0  0  0  0
 12  7  1  0  0  0  0
 13 11  2  0  0  0  0
 13  3  1  0  0  0  0
 14  9  1  0  0  0  0
 14 19  1  0  0  0  0
 16  6  1  0  0  0  0
 17 14  2  0  0  0  0
 18 21  2  0  0  0  0
 18 11  1  0  0  0  0
 20 15  1  0  0  0  0
 20 25  1  0  0  0  0
 22 20  2  0  0  0  0
 23  6  2  0  0  0  0
 24  2  2  0  0  0  0
 24 22  1  0  0  0  0
 25 21  1  0  0  0  0
 26 27  1  0  0  0  0
 27 30  1  0  0  0  0
 29 30  2  0  0  0  0
 30 28  1  0  0  0  0
M  END
>  <MODEL>
5

>  <REMARK>
 VINA RESULT:      -7.3      2.243      2.628
  Name = 
  3 active torsions:
  status: ('A' for Active; 'I' for Inactive)
    1  A    between atoms: N_3  and  N_27
    2  A    between atoms: C_26  and  N_27
    3  A    between atoms: C_26  and  C_30
                            x       y       z     vdW  Elec       q    Type
                         _______ _______ _______ _____ _____    ______ ____

>  <TORSDO>
F 3

$$$$
=
 OpenBabel10222417413D

 30 32  0  0  0  0  0  0  0  0999 V2000
  185.9750  178.0950  137.6090 C   0  0  0  0  0  3  0  0  0  0  0  0
  180.0490  176.2590  140.1900 C   0  0  0  0  0  3  0  0  0  0  0  0
  186.3510  177.8980  145.2740 N   0  0  0  0  0  2  0  0  0  0  0  0
  182.2380  177.8810  137.7940 C   0  0  0  0  0  2  0  0  0  0  0  0
  182.0100  176.6740  138.6960 C   0  0  0  0  0  2  0  0  0  0  0  0
  186.0470  178.1480  142.8060 C   0  0  0  0  0  0  0  0  0  0  0  0
  184.6820  178.1280  138.1340 C   0  0  0  0  0  0  0  0  0  0  0  0
  184.5220  178.3850  139.4970 C   0  0  0  0  0  3  0  0  0  0  0  0
  185.6240  178.5710  140.3230 C   0  0  0  0  0  0  0  0  0  0  0  0
  179.3150  176.5620  141.2940 N   0  0  0  0  0  0  0  0  0  0  0  0
  184.2580  178.5780  144.4180 N   0  0  0  0  0  0  0  0  0  0  0  0
  183.5790  177.8880  137.3060 O   0  0  0  0  0  0  0  0  0  0  0  0
  185.4960  178.2420  144.1780 C   0  0  0  0  0  0  0  0  0  0  0  0
  186.9080  178.5450  139.7540 C   0  0  0  0  0  0  0  0  0  0  0  0
  179.6500  177.6050  142.0970 C   0  0  0  0  0  3  0  0  0  0  0  0
  185.3830  178.7930  141.7140 N   0  0  0  0  0  2  0  0  0  0  0  0
  187.0490  178.3100  138.4190 N   0  0  0  0  0  0  0  0  0  0  0  0
  183.3340  178.8950  143.4130 N   0  0  0  0  0  0  0  0  0  0  0  0
  188.0090  178.8050  140.5010 F   0  0  0  0  0  0  0  0  0  0  0  0
  180.7710  178.3790  141.7880 C   0  0  0  0  0  0  0  0  0  0  0  0
  182.1090  179.1740  143.7120 C   0  0  0  0  0  3  0  0  0  0  0  0
  181.5090  178.0700  140.6860 N   0  0  0  0  0  0  0  0  0  0  0  0
  187.0820  177.4600  142.6050 O   0  0  0  0  0  0  0  0  0  0  0  0
  181.1650  177.0350  139.8730 C   0  0  0  0  0  0  0  0  0  0  0  0
  181.1360  179.5480  142.6420 C   0  0  0  0  0  2  0  0  0  0  0  0
  185.8970  177.9020  146.6020 N   0  0  0  0  0  2  0  0  0  0  0  0
  186.8790  178.6250  147.3930 C   0  0  0  0  0  2  0  0  0  0  0  0
  189.2000  178.2740  147.0020 O   0  0  0  0  0  0  0  0  0  0  0  0
  188.1080  176.5700  148.0790 O   0  0  0  0  0  1  0  0  0  0  0  0
  188.1290  177.8260  147.4890 C   0  0  0  0  0  0  0  0  0  0  0  0
  1  7  2  0  0  0  0
  1 17  1  0  0  0  0
  2 10  1  0  0  0  0
  3 26  1  0  0  0  0
  4  5  1  0  0  0  0
  5 24  1  0  0  0  0
  6 13  1  0  0  0  0
  7  8  1  0  0  0  0
  8  9  2  0  0  0  0
  9 16  1  0  0  0  0
 10 15  2  0  0  0  0
 12  4  1  0  0  0  0
 12  7  1  0  0  0  0
 13 11  2  0  0  0  0
 13  3  1  0  0  0  0
 14  9  1  0  0  0  0
 14 19  1  0  0  0  0
 16  6  1  0  0  0  0
 17 14  2  0  0  0  0
 18 21  2  0  0  0  0
 18 11  1  0  0  0  0
 20 15  1  0  0  0  0
 20 25  1  0  0  0  0
 22 20  2  0  0  0  0
 23  6  2  0  0  0  0
 24  2  2  0  0  0  0
 24 22  1  0  0  0  0
 25 21  1  0  0  0  0
 26 27  1  0  0  0  0
 27 30  1  0  0  0  0
 28 30  2  0  0  0  0
 30 29  1  0  0  0  0
M  END
>  <MODEL>
6

>  <REMARK>
 VINA RESULT:      -7.3      3.137      4.369
  Name = 
  3 active torsions:
  status: ('A' for Active; 'I' for Inactive)
    1  A    between atoms: N_3  and  N_27
    2  A    between atoms: C_26  and  N_27
    3  A    between atoms: C_26  and  C_30
                            x       y       z     vdW  Elec       q    Type
                         _______ _______ _______ _____ _____    ______ ____

>  <TORSDO>
F 3

$$$$
=
 OpenBabel10222417413D

 30 32  0  0  0  0  0  0  0  0999 V2000
  191.8630  177.2220  141.5040 C   0  0  0  0  0  3  0  0  0  0  0  0
  188.1570  174.9820  136.3650 C   0  0  0  0  0  3  0  0  0  0  0  0
  184.4080  178.4570  142.8550 N   0  0  0  0  0  2  0  0  0  0  0  0
  191.0810  176.4700  137.9160 C   0  0  0  0  0  2  0  0  0  0  0  0
  189.9780  175.4230  138.0200 C   0  0  0  0  0  2  0  0  0  0  0  0
  186.8090  178.2130  142.2080 C   0  0  0  0  0  0  0  0  0  0  0  0
  191.1580  177.1480  140.3000 C   0  0  0  0  0  0  0  0  0  0  0  0
  189.8430  177.6170  140.2670 C   0  0  0  0  0  3  0  0  0  0  0  0
  189.2340  178.1150  141.4120 C   0  0  0  0  0  0  0  0  0  0  0  0
  187.0150  175.3610  135.7310 N   0  0  0  0  0  0  0  0  0  0  0  0
  185.0300  178.6420  140.5850 N   0  0  0  0  0  0  0  0  0  0  0  0
  191.7620  176.5970  139.1630 O   0  0  0  0  0  0  0  0  0  0  0  0
  185.4010  178.4640  141.8230 C   0  0  0  0  0  0  0  0  0  0  0  0
  189.9810  178.1860  142.6000 C   0  0  0  0  0  0  0  0  0  0  0  0
  186.4430  176.5700  135.9720 C   0  0  0  0  0  3  0  0  0  0  0  0
  187.8740  178.5420  141.3100 N   0  0  0  0  0  2  0  0  0  0  0  0
  191.2690  177.7410  142.6140 N   0  0  0  0  0  0  0  0  0  0  0  0
  185.9190  178.6280  139.5020 N   0  0  0  0  0  0  0  0  0  0  0  0
  189.4600  178.7420  143.7200 F   0  0  0  0  0  0  0  0  0  0  0  0
  187.0360  177.4400  136.8900 C   0  0  0  0  0  0  0  0  0  0  0  0
  185.4850  178.7630  138.2930 C   0  0  0  0  0  3  0  0  0  0  0  0
  188.1750  177.0570  137.5290 N   0  0  0  0  0  0  0  0  0  0  0  0
  187.0560  177.6680  143.3160 O   0  0  0  0  0  0  0  0  0  0  0  0
  188.7560  175.8530  137.2770 C   0  0  0  0  0  0  0  0  0  0  0  0
  186.4390  178.7850  137.1450 C   0  0  0  0  0  2  0  0  0  0  0  0
  183.0430  178.6280  142.5760 N   0  0  0  0  0  2  0  0  0  0  0  0
  182.3850  178.9760  143.8240 C   0  0  0  0  0  2  0  0  0  0  0  0
  180.5060  179.9920  142.7760 O   0  0  0  0  0  0  0  0  0  0  0  0
  180.0220  178.3570  144.3070 O   0  0  0  0  0  1  0  0  0  0  0  0
  180.9250  179.1320  143.5930 C   0  0  0  0  0  0  0  0  0  0  0  0
  1 17  1  0  0  0  0
  2 24  1  0  0  0  0
  4  5  1  0  0  0  0
  4 12  1  0  0  0  0
  6 23  2  0  0  0  0
  7  1  2  0  0  0  0
  8  7  1  0  0  0  0
  8  9  2  0  0  0  0
  9 14  1  0  0  0  0
 10 15  1  0  0  0  0
 10  2  2  0  0  0  0
 11 13  2  0  0  0  0
 12  7  1  0  0  0  0
 13  6  1  0  0  0  0
 13  3  1  0  0  0  0
 14 17  2  0  0  0  0
 14 19  1  0  0  0  0
 15 20  2  0  0  0  0
 16  9  1  0  0  0  0
 16  6  1  0  0  0  0
 18 11  1  0  0  0  0
 20 25  1  0  0  0  0
 20 22  1  0  0  0  0
 21 18  2  0  0  0  0
 24 22  2  0  0  0  0
 24  5  1  0  0  0  0
 25 21  1  0  0  0  0
 26  3  1  0  0  0  0
 26 27  1  0  0  0  0
 28 30  2  0  0  0  0
 30 27  1  0  0  0  0
 30 29  1  0  0  0  0
M  END
>  <MODEL>
7

>  <REMARK>
 VINA RESULT:      -7.1      2.612      3.595
  Name = 
  3 active torsions:
  status: ('A' for Active; 'I' for Inactive)
    1  A    between atoms: N_3  and  N_27
    2  A    between atoms: C_26  and  N_27
    3  A    between atoms: C_26  and  C_30
                            x       y       z     vdW  Elec       q    Type
                         _______ _______ _______ _____ _____    ______ ____

>  <TORSDO>
F 3

$$$$
=
 OpenBabel10222417413D

 30 32  0  0  0  0  0  0  0  0999 V2000
  189.5980  176.3100  136.4040 C   0  0  0  0  0  3  0  0  0  0  0  0
  183.3810  173.8060  136.8940 C   0  0  0  0  0  3  0  0  0  0  0  0
  186.0020  179.2740  142.5050 N   0  0  0  0  0  2  0  0  0  0  0  0
  186.3320  174.9760  135.1360 C   0  0  0  0  0  2  0  0  0  0  0  0
  185.7830  174.2180  136.3400 C   0  0  0  0  0  2  0  0  0  0  0  0
  186.9870  178.4200  140.3720 C   0  0  0  0  0  0  0  0  0  0  0  0
  188.2210  176.1210  136.2630 C   0  0  0  0  0  0  0  0  0  0  0  0
  187.3620  176.8260  137.1090 C   0  0  0  0  0  3  0  0  0  0  0  0
  187.8620  177.6700  138.0930 C   0  0  0  0  0  0  0  0  0  0  0  0
  182.1600  174.2600  137.2860 N   0  0  0  0  0  0  0  0  0  0  0  0
  184.5940  178.8380  140.6600 N   0  0  0  0  0  0  0  0  0  0  0  0
  187.7260  175.2290  135.3040 O   0  0  0  0  0  0  0  0  0  0  0  0
  185.8040  178.8600  141.1480 C   0  0  0  0  0  0  0  0  0  0  0  0
  189.2520  177.8440  138.1930 C   0  0  0  0  0  0  0  0  0  0  0  0
  181.9400  175.5820  137.5100 C   0  0  0  0  0  3  0  0  0  0  0  0
  186.9220  178.3280  138.9450 N   0  0  0  0  0  2  0  0  0  0  0  0
  190.0790  177.1640  137.3490 N   0  0  0  0  0  0  0  0  0  0  0  0
  184.2930  178.4130  139.3600 N   0  0  0  0  0  0  0  0  0  0  0  0
  189.7850  178.7210  139.0780 F   0  0  0  0  0  0  0  0  0  0  0  0
  182.9850  176.4920  137.3390 C   0  0  0  0  0  0  0  0  0  0  0  0
  183.0680  178.3700  138.9500 C   0  0  0  0  0  3  0  0  0  0  0  0
  184.2080  176.0360  136.9530 N   0  0  0  0  0  0  0  0  0  0  0  0
  188.0360  178.0890  140.9850 O   0  0  0  0  0  0  0  0  0  0  0  0
  184.4260  174.7140  136.7140 C   0  0  0  0  0  0  0  0  0  0  0  0
  182.7530  177.9520  137.5510 C   0  0  0  0  0  2  0  0  0  0  0  0
  184.9330  179.6510  143.3320 N   0  0  0  0  0  2  0  0  0  0  0  0
  184.5850  178.4950  144.1430 C   0  0  0  0  0  2  0  0  0  0  0  0
  186.5040  178.5300  145.5490 O   0  0  0  0  0  0  0  0  0  0  0  0
  184.4880  178.7260  146.6210 O   0  0  0  0  0  1  0  0  0  0  0  0
  185.2500  178.5970  145.4680 C   0  0  0  0  0  0  0  0  0  0  0  0
  1 17  1  0  0  0  0
  2 10  1  0  0  0  0
  3 26  1  0  0  0  0
  4 12  1  0  0  0  0
  4  5  1  0  0  0  0
  5 24  1  0  0  0  0
  6 23  2  0  0  0  0
  6 13  1  0  0  0  0
  7  1  2  0  0  0  0
  7  8  1  0  0  0  0
  8  9  2  0  0  0  0
  9 14  1  0  0  0  0
  9 16  1  0  0  0  0
 10 15  2  0  0  0  0
 11 13  2  0  0  0  0
 12  7  1  0  0  0  0
 13  3  1  0  0  0  0
 14 19  1  0  0  0  0
 16  6  1  0  0  0  0
 17 14  2  0  0  0  0
 18 11  1  0  0  0  0
 20 15  1  0  0  0  0
 20 25  1  0  0  0  0
 21 18  2  0  0  0  0
 22 20  2  0  0  0  0
 24  2  2  0  0  0  0
 24 22  1  0  0  0  0
 25 21  1  0  0  0  0
 26 27  1  0  0  0  0
 27 30  1  0  0  0  0
 30 28  2  0  0  0  0
 30 29  1  0  0  0  0
M  END
>  <MODEL>
8

>  <REMARK>
 VINA RESULT:      -6.7      2.045      2.660
  Name = 
  3 active torsions:
  status: ('A' for Active; 'I' for Inactive)
    1  A    between atoms: N_3  and  N_27
    2  A    between atoms: C_26  and  N_27
    3  A    between atoms: C_26  and  C_30
                            x       y       z     vdW  Elec       q    Type
                         _______ _______ _______ _____ _____    ______ ____

>  <TORSDO>
F 3

$$$$
=
 OpenBabel10222417413D

 30 32  0  0  0  0  0  0  0  0999 V2000
  184.3030  178.6120  146.5840 C   0  0  0  0  0  3  0  0  0  0  0  0
  190.5230  176.0710  146.7240 C   0  0  0  0  0  3  0  0  0  0  0  0
  187.1190  178.0570  139.4630 N   0  0  0  0  0  2  0  0  0  0  0  0
  187.7330  178.0230  147.9780 C   0  0  0  0  0  2  0  0  0  0  0  0
  188.1790  176.7540  147.2600 C   0  0  0  0  0  2  0  0  0  0  0  0
  186.3990  178.4030  141.8310 C   0  0  0  0  0  0  0  0  0  0  0  0
  185.6930  178.4910  146.6460 C   0  0  0  0  0  0  0  0  0  0  0  0
  186.4310  178.6600  145.4730 C   0  0  0  0  0  3  0  0  0  0  0  0
  185.7990  178.9100  144.2620 C   0  0  0  0  0  0  0  0  0  0  0  0
  191.6770  176.2430  146.0260 N   0  0  0  0  0  0  0  0  0  0  0  0
  188.7300  178.5720  141.1110 N   0  0  0  0  0  0  0  0  0  0  0  0
  186.3200  178.1870  147.8610 O   0  0  0  0  0  0  0  0  0  0  0  0
  187.4750  178.3720  140.8140 C   0  0  0  0  0  0  0  0  0  0  0  0
  184.4000  179.0400  144.2420 C   0  0  0  0  0  0  0  0  0  0  0  0
  191.8230  177.2710  145.1500 C   0  0  0  0  0  3  0  0  0  0  0  0
  186.6170  179.0360  143.0970 N   0  0  0  0  0  2  0  0  0  0  0  0
  183.6930  178.8890  145.3980 N   0  0  0  0  0  0  0  0  0  0  0  0
  189.1830  178.8480  142.4080 N   0  0  0  0  0  0  0  0  0  0  0  0
  183.7440  179.3680  143.1030 F   0  0  0  0  0  0  0  0  0  0  0  0
  190.7680  178.1670  144.9590 C   0  0  0  0  0  0  0  0  0  0  0  0
  190.4450  178.9890  142.6470 C   0  0  0  0  0  3  0  0  0  0  0  0
  189.6110  177.9900  145.6530 N   0  0  0  0  0  0  0  0  0  0  0  0
  185.3040  177.8320  141.5850 O   0  0  0  0  0  0  0  0  0  0  0  0
  189.4700  176.9690  146.5410 C   0  0  0  0  0  0  0  0  0  0  0  0
  190.9220  179.3200  144.0230 C   0  0  0  0  0  2  0  0  0  0  0  0
  188.0800  177.9480  138.4460 N   0  0  0  0  0  2  0  0  0  0  0  0
  188.3880  176.5360  138.2910 C   0  0  0  0  0  2  0  0  0  0  0  0
  190.5600  177.3360  137.7370 O   0  0  0  0  0  0  0  0  0  0  0  0
  190.4350  175.1170  138.2960 O   0  0  0  0  0  1  0  0  0  0  0  0
  189.8520  176.3620  138.1040 C   0  0  0  0  0  0  0  0  0  0  0  0
  1  7  1  0  0  0  0
  3 13  1  0  0  0  0
  5  4  1  0  0  0  0
  6 16  1  0  0  0  0
  7 12  1  0  0  0  0
  8  7  2  0  0  0  0
  9  8  1  0  0  0  0
 10  2  2  0  0  0  0
 11 18  1  0  0  0  0
 12  4  1  0  0  0  0
 13 11  2  0  0  0  0
 13  6  1  0  0  0  0
 14  9  2  0  0  0  0
 14 17  1  0  0  0  0
 15 10  1  0  0  0  0
 16  9  1  0  0  0  0
 17  1  2  0  0  0  0
 18 21  2  0  0  0  0
 19 14  1  0  0  0  0
 20 15  2  0  0  0  0
 20 22  1  0  0  0  0
 21 25  1  0  0  0  0
 22 24  2  0  0  0  0
 23  6  2  0  0  0  0
 24  2  1  0  0  0  0
 24  5  1  0  0  0  0
 25 20  1  0  0  0  0
 26  3  1  0  0  0  0
 27 26  1  0  0  0  0
 28 30  2  0  0  0  0
 30 27  1  0  0  0  0
 30 29  1  0  0  0  0
M  END
>  <MODEL>
9

>  <REMARK>
 VINA RESULT:      -6.5      3.002      8.674
  Name = 
  3 active torsions:
  status: ('A' for Active; 'I' for Inactive)
    1  A    between atoms: N_3  and  N_27
    2  A    between atoms: C_26  and  N_27
    3  A    between atoms: C_26  and  C_30
                            x       y       z     vdW  Elec       q    Type
                         _______ _______ _______ _____ _____    ______ ____

>  <TORSDO>
F 3

$$$$
