=
 OpenBabel10222420043D

 27 29  0  0  1  0  0  0  0  0999 V2000
  185.2620  178.7660  145.4140 C   0  0  0  0  0  3  0  0  0  0  0  0
  187.0420  178.1000  146.9010 C   0  0  0  0  0  0  0  0  0  0  0  0
  187.2410  177.6640  144.5090 C   0  0  0  0  0  0  0  0  0  0  0  0
  185.9680  178.2610  144.3080 C   0  0  0  0  0  0  0  0  0  0  0  0
  185.7950  178.6910  146.6990 C   0  0  0  0  0  3  0  0  0  0  0  0
  187.7570  177.5980  145.8130 C   0  0  0  0  0  3  0  0  0  0  0  0
  188.0690  177.1030  143.4090 C   0  0  0  0  0  0  0  0  0  0  0  0
  188.9440  177.9730  142.6740 N   0  0  0  0  0  2  0  0  0  0  0  0
  188.0000  175.8810  143.1110 O   0  0  0  0  0  0  0  0  0  0  0  0
  189.3790  177.3960  140.3500 C   0  0  0  0  0  3  0  0  0  0  0  0
  192.7870  177.0520  139.5490 O   0  0  0  0  0  0  0  0  0  0  0  0
  189.8100  177.6060  141.5900 C   0  0  0  0  0  0  0  0  0  0  0  0
  191.5680  177.4210  141.8620 S   0  0  0  0  0  0  0  0  0  0  0  0
  190.4260  177.0420  139.3560 C   0  0  0  0  0  2  0  0  0  0  0  0
  191.7060  177.1420  140.1040 C   0  0  0  0  0  0  0  0  0  0  0  0
  185.3270  178.3350  142.9470 C   0  0  2  0  0  3  0  0  0  0  0  0
  186.0080  179.3450  142.0350 C   0  0  0  0  0  1  0  0  0  0  0  0
  183.1880  178.6770  144.2560 C   0  0  0  0  0  3  0  0  0  0  0  0
  181.0560  178.8850  143.1090 C   0  0  0  0  0  0  0  0  0  0  0  0
  181.7140  178.7430  141.8830 C   0  0  0  0  0  3  0  0  0  0  0  0
  183.1010  178.5720  141.8400 C   0  0  0  0  0  3  0  0  0  0  0  0
  183.8440  178.5420  143.0230 C   0  0  0  0  0  0  0  0  0  0  0  0
  181.8020  178.8490  144.2990 C   0  0  0  0  0  3  0  0  0  0  0  0
  179.6690  179.0550  143.1170 O   0  0  0  0  0  0  0  0  0  0  0  0
  178.9310  179.2730  144.3110 C   0  0  0  0  0  1  0  0  0  0  0  0
  188.9750  178.3860  148.2200 O   0  0  0  0  0  1  0  0  0  0  0  0
  187.6250  178.0390  148.2680 C   0  0  0  0  0  2  0  0  0  0  0  0
  1  5  1  0  0  0  0
  2 27  1  0  0  0  0
  3  6  2  0  0  0  0
  4  3  1  0  0  0  0
  4  1  2  0  0  0  0
  5  2  2  0  0  0  0
  6  2  1  0  0  0  0
  7  3  1  0  0  0  0
  8  7  1  0  0  0  0
  9  7  2  0  0  0  0
 10 12  2  0  0  0  0
 11 15  2  0  0  0  0
 12 13  1  0  0  0  0
 12  8  1  0  0  0  0
 14 15  1  0  0  0  0
 14 10  1  0  0  0  0
 15 13  1  0  0  0  0
 16 17  1  6  0  0  0
 16 22  1  0  0  0  0
 16  4  1  0  0  0  0
 18 23  1  0  0  0  0
 19 24  1  0  0  0  0
 19 23  2  0  0  0  0
 20 19  1  0  0  0  0
 21 20  2  0  0  0  0
 21 22  1  0  0  0  0
 22 18  2  0  0  0  0
 24 25  1  0  0  0  0
 26 27  1  0  0  0  0
M  END
>  <MODEL>
1

>  <REMARK>
 VINA RESULT:      -9.2      0.000      0.000
  Name = 
  6 active torsions:
  status: ('A' for Active; 'I' for Inactive)
    1  A    between atoms: C_3  and  C_11
    2  A    between atoms: C_5  and  C_13
    3  A    between atoms: C_5  and  C_23
    4  A    between atoms: C_6  and  O_17
    5  A    between atoms: C_8  and  C_27
    6  A    between atoms: N_9  and  C_10
                            x       y       z     vdW  Elec       q    Type
                         _______ _______ _______ _____ _____    ______ ____

>  <TORSDO>
F 6

$$$$
=
 OpenBabel10222420043D

 27 29  0  0  1  0  0  0  0  0999 V2000
  191.3410  178.0250  141.8200 C   0  0  0  0  0  3  0  0  0  0  0  0
  190.2560  176.7830  140.0590 C   0  0  0  0  0  0  0  0  0  0  0  0
  188.9840  177.4350  142.0370 C   0  0  0  0  0  0  0  0  0  0  0  0
  190.1480  178.0560  142.5630 C   0  0  0  0  0  0  0  0  0  0  0  0
  191.3940  177.3990  140.5770 C   0  0  0  0  0  3  0  0  0  0  0  0
  189.0620  176.8070  140.7830 C   0  0  0  0  0  3  0  0  0  0  0  0
  187.6740  177.4110  142.7400 C   0  0  0  0  0  0  0  0  0  0  0  0
  186.7200  178.4530  142.4820 N   0  0  0  0  0  2  0  0  0  0  0  0
  187.4020  176.4970  143.5630 O   0  0  0  0  0  0  0  0  0  0  0  0
  185.2150  178.8260  144.3580 C   0  0  0  0  0  3  0  0  0  0  0  0
  181.8190  179.0750  143.4730 O   0  0  0  0  0  0  0  0  0  0  0  0
  185.4160  178.5880  143.0650 C   0  0  0  0  0  0  0  0  0  0  0  0
  183.9530  178.4530  142.0460 S   0  0  0  0  0  0  0  0  0  0  0  0
  183.7940  178.9530  144.7760 C   0  0  0  0  0  2  0  0  0  0  0  0
  183.0200  178.8650  143.5110 C   0  0  0  0  0  0  0  0  0  0  0  0
  190.1570  178.7140  143.9180 C   0  0  2  0  0  3  0  0  0  0  0  0
  191.0060  179.9760  143.9490 C   0  0  0  0  0  1  0  0  0  0  0  0
  189.7200  177.6340  146.1650 C   0  0  0  0  0  3  0  0  0  0  0  0
  191.2590  175.9810  147.0630 C   0  0  0  0  0  0  0  0  0  0  0  0
  192.0520  176.1130  145.9180 C   0  0  0  0  0  3  0  0  0  0  0  0
  191.6830  176.9980  144.9000 C   0  0  0  0  0  3  0  0  0  0  0  0
  190.5150  177.7570  145.0160 C   0  0  0  0  0  0  0  0  0  0  0  0
  190.0880  176.7490  147.1820 C   0  0  0  0  0  3  0  0  0  0  0  0
  191.6550  175.0880  148.0610 O   0  0  0  0  0  0  0  0  0  0  0  0
  192.8570  175.2500  148.8020 C   0  0  0  0  0  1  0  0  0  0  0  0
  191.3960  175.2700  138.6560 O   0  0  0  0  0  1  0  0  0  0  0  0
  190.3030  176.1330  138.7220 C   0  0  0  0  0  2  0  0  0  0  0  0
  1  4  1  0  0  0  0
  2  5  1  0  0  0  0
  2  6  2  0  0  0  0
  3  4  2  0  0  0  0
  3  7  1  0  0  0  0
  4 16  1  0  0  0  0
  5  1  2  0  0  0  0
  6  3  1  0  0  0  0
  7  9  2  0  0  0  0
  8  7  1  0  0  0  0
  8 12  1  0  0  0  0
 10 14  1  0  0  0  0
 11 15  2  0  0  0  0
 12 10  2  0  0  0  0
 13 12  1  0  0  0  0
 13 15  1  0  0  0  0
 15 14  1  0  0  0  0
 16 17  1  6  0  0  0
 16 22  1  0  0  0  0
 18 23  1  0  0  0  0
 19 23  2  0  0  0  0
 19 24  1  0  0  0  0
 20 19  1  0  0  0  0
 21 22  1  0  0  0  0
 21 20  2  0  0  0  0
 22 18  2  0  0  0  0
 24 25  1  0  0  0  0
 26 27  1  0  0  0  0
 27  2  1  0  0  0  0
M  END
>  <MODEL>
2

>  <REMARK>
 VINA RESULT:      -8.5      2.929      8.313
  Name = 
  6 active torsions:
  status: ('A' for Active; 'I' for Inactive)
    1  A    between atoms: C_3  and  C_11
    2  A    between atoms: C_5  and  C_13
    3  A    between atoms: C_5  and  C_23
    4  A    between atoms: C_6  and  O_17
    5  A    between atoms: C_8  and  C_27
    6  A    between atoms: N_9  and  C_10
                            x       y       z     vdW  Elec       q    Type
                         _______ _______ _______ _____ _____    ______ ____

>  <TORSDO>
F 6

$$$$
=
 OpenBabel10222420043D

 27 29  0  0  1  0  0  0  0  0999 V2000
  186.5910  178.1140  145.2070 C   0  0  0  0  0  3  0  0  0  0  0  0
  188.4740  177.3790  146.5240 C   0  0  0  0  0  0  0  0  0  0  0  0
  188.5260  177.1260  144.0980 C   0  0  0  0  0  0  0  0  0  0  0  0
  187.2330  177.7090  144.0240 C   0  0  0  0  0  0  0  0  0  0  0  0
  187.2080  177.9560  146.4460 C   0  0  0  0  0  3  0  0  0  0  0  0
  189.1260  176.9730  145.3580 C   0  0  0  0  0  3  0  0  0  0  0  0
  189.2900  176.6640  142.9090 C   0  0  0  0  0  0  0  0  0  0  0  0
  189.9930  177.6280  142.1090 N   0  0  0  0  0  2  0  0  0  0  0  0
  189.3160  175.4450  142.5940 O   0  0  0  0  0  0  0  0  0  0  0  0
  192.1030  177.4560  140.9100 C   0  0  0  0  0  3  0  0  0  0  0  0
  191.8200  176.2000  137.6360 O   0  0  0  0  0  0  0  0  0  0  0  0
  190.7770  177.3650  140.9360 C   0  0  0  0  0  0  0  0  0  0  0  0
  189.9850  176.8730  139.4110 S   0  0  0  0  0  0  0  0  0  0  0  0
  192.7450  177.1280  139.6100 C   0  0  0  0  0  2  0  0  0  0  0  0
  191.6270  176.6810  138.7390 C   0  0  0  0  0  0  0  0  0  0  0  0
  186.5050  177.8690  142.7150 C   0  0  2  0  0  3  0  0  0  0  0  0
  187.2120  178.8260  141.7670 C   0  0  0  0  0  1  0  0  0  0  0  0
  184.1530  178.1820  141.8320 C   0  0  0  0  0  3  0  0  0  0  0  0
  182.3680  178.9200  143.3060 C   0  0  0  0  0  0  0  0  0  0  0  0
  183.2750  178.9590  144.3690 C   0  0  0  0  0  3  0  0  0  0  0  0
  184.6140  178.6100  144.1690 C   0  0  0  0  0  3  0  0  0  0  0  0
  185.0580  178.2160  142.9040 C   0  0  0  0  0  0  0  0  0  0  0  0
  182.8150  178.5300  142.0320 C   0  0  0  0  0  3  0  0  0  0  0  0
  181.0360  179.2740  143.5390 O   0  0  0  0  0  0  0  0  0  0  0  0
  180.0200  178.3130  143.7900 C   0  0  0  0  0  1  0  0  0  0  0  0
  189.0070  178.4060  148.5790 O   0  0  0  0  0  1  0  0  0  0  0  0
  189.1450  177.2290  147.8430 C   0  0  0  0  0  2  0  0  0  0  0  0
  1  5  1  0  0  0  0
  2 27  1  0  0  0  0
  3  6  2  0  0  0  0
  4  3  1  0  0  0  0
  4  1  2  0  0  0  0
  5  2  2  0  0  0  0
  6  2  1  0  0  0  0
  7  3  1  0  0  0  0
  8  7  1  0  0  0  0
  9  7  2  0  0  0  0
 10 12  2  0  0  0  0
 11 15  2  0  0  0  0
 12  8  1  0  0  0  0
 13 12  1  0  0  0  0
 14 10  1  0  0  0  0
 15 13  1  0  0  0  0
 15 14  1  0  0  0  0
 16 17  1  6  0  0  0
 16 22  1  0  0  0  0
 16  4  1  0  0  0  0
 18 23  2  0  0  0  0
 18 22  1  0  0  0  0
 19 24  1  0  0  0  0
 19 20  2  0  0  0  0
 21 20  1  0  0  0  0
 22 21  2  0  0  0  0
 23 19  1  0  0  0  0
 24 25  1  0  0  0  0
 27 26  1  0  0  0  0
M  END
>  <MODEL>
3

>  <REMARK>
 VINA RESULT:      -8.3      1.334      1.874
  Name = 
  6 active torsions:
  status: ('A' for Active; 'I' for Inactive)
    1  A    between atoms: C_3  and  C_11
    2  A    between atoms: C_5  and  C_13
    3  A    between atoms: C_5  and  C_23
    4  A    between atoms: C_6  and  O_17
    5  A    between atoms: C_8  and  C_27
    6  A    between atoms: N_9  and  C_10
                            x       y       z     vdW  Elec       q    Type
                         _______ _______ _______ _____ _____    ______ ____

>  <TORSDO>
F 6

$$$$
=
 OpenBabel10222420043D

 27 29  0  0  1  0  0  0  0  0999 V2000
  187.0320  177.4790  144.6740 C   0  0  0  0  0  3  0  0  0  0  0  0
  185.0210  178.5420  143.8690 C   0  0  0  0  0  0  0  0  0  0  0  0
  186.9330  178.2900  142.3760 C   0  0  0  0  0  0  0  0  0  0  0  0
  187.6510  177.6560  143.4240 C   0  0  0  0  0  0  0  0  0  0  0  0
  185.7260  177.9140  144.8940 C   0  0  0  0  0  3  0  0  0  0  0  0
  185.6200  178.7220  142.6210 C   0  0  0  0  0  3  0  0  0  0  0  0
  187.4940  178.5250  141.0180 C   0  0  0  0  0  0  0  0  0  0  0  0
  186.9700  177.7850  139.9050 N   0  0  0  0  0  2  0  0  0  0  0  0
  188.4270  179.3520  140.8420 O   0  0  0  0  0  0  0  0  0  0  0  0
  186.6590  178.4710  137.5910 C   0  0  0  0  0  3  0  0  0  0  0  0
  189.4370  177.8870  135.5130 O   0  0  0  0  0  0  0  0  0  0  0  0
  187.3870  177.8820  138.5350 C   0  0  0  0  0  0  0  0  0  0  0  0
  188.9590  177.2070  138.0190 S   0  0  0  0  0  0  0  0  0  0  0  0
  187.2620  178.4910  136.2320 C   0  0  0  0  0  2  0  0  0  0  0  0
  188.6110  177.8950  136.4100 C   0  0  0  0  0  0  0  0  0  0  0  0
  189.0770  177.2010  143.2530 C   0  0  2  0  0  3  0  0  0  0  0  0
  189.1870  175.9240  142.4320 C   0  0  0  0  0  1  0  0  0  0  0  0
  189.2600  177.6270  145.7420 C   0  0  0  0  0  3  0  0  0  0  0  0
  191.2400  176.9390  146.9710 C   0  0  0  0  0  0  0  0  0  0  0  0
  191.7840  176.4270  145.7880 C   0  0  0  0  0  3  0  0  0  0  0  0
  191.0720  176.5100  144.5880 C   0  0  0  0  0  3  0  0  0  0  0  0
  189.8070  177.1050  144.5590 C   0  0  0  0  0  0  0  0  0  0  0  0
  189.9710  177.5420  146.9410 C   0  0  0  0  0  3  0  0  0  0  0  0
  191.9770  176.8380  148.1530 O   0  0  0  0  0  0  0  0  0  0  0  0
  192.8550  175.7530  148.4200 C   0  0  0  0  0  1  0  0  0  0  0  0
  183.3790  179.1190  145.4610 O   0  0  0  0  0  1  0  0  0  0  0  0
  183.6190  178.9870  144.0930 C   0  0  0  0  0  2  0  0  0  0  0  0
  1  5  1  0  0  0  0
  2 27  1  0  0  0  0
  2  5  2  0  0  0  0
  3  6  2  0  0  0  0
  3  4  1  0  0  0  0
  4  1  2  0  0  0  0
  6  2  1  0  0  0  0
  7  3  1  0  0  0  0
  8  7  1  0  0  0  0
  9  7  2  0  0  0  0
 10 12  2  0  0  0  0
 11 15  2  0  0  0  0
 12  8  1  0  0  0  0
 13 12  1  0  0  0  0
 14 15  1  0  0  0  0
 14 10  1  0  0  0  0
 15 13  1  0  0  0  0
 16 17  1  1  0  0  0
 16  4  1  0  0  0  0
 16 22  1  0  0  0  0
 18 23  1  0  0  0  0
 19 24  1  0  0  0  0
 20 19  1  0  0  0  0
 21 20  2  0  0  0  0
 22 21  1  0  0  0  0
 22 18  2  0  0  0  0
 23 19  2  0  0  0  0
 24 25  1  0  0  0  0
 27 26  1  0  0  0  0
M  END
>  <MODEL>
4

>  <REMARK>
 VINA RESULT:      -8.3      3.155      6.676
  Name = 
  6 active torsions:
  status: ('A' for Active; 'I' for Inactive)
    1  A    between atoms: C_3  and  C_11
    2  A    between atoms: C_5  and  C_13
    3  A    between atoms: C_5  and  C_23
    4  A    between atoms: C_6  and  O_17
    5  A    between atoms: C_8  and  C_27
    6  A    between atoms: N_9  and  C_10
                            x       y       z     vdW  Elec       q    Type
                         _______ _______ _______ _____ _____    ______ ____

>  <TORSDO>
F 6

$$$$
=
 OpenBabel10222420043D

 27 29  0  0  1  0  0  0  0  0999 V2000
  185.8100  178.9870  141.1110 C   0  0  0  0  0  3  0  0  0  0  0  0
  184.4350  178.7360  143.0770 C   0  0  0  0  0  0  0  0  0  0  0  0
  186.7190  177.8790  143.0840 C   0  0  0  0  0  0  0  0  0  0  0  0
  186.8800  178.3380  141.7500 C   0  0  0  0  0  0  0  0  0  0  0  0
  184.5990  179.1890  141.7690 C   0  0  0  0  0  3  0  0  0  0  0  0
  185.4890  178.0920  143.7270 C   0  0  0  0  0  3  0  0  0  0  0  0
  187.7870  177.1830  143.8510 C   0  0  0  0  0  0  0  0  0  0  0  0
  188.4880  177.8940  144.8830 N   0  0  0  0  0  2  0  0  0  0  0  0
  188.0860  175.9870  143.5950 O   0  0  0  0  0  0  0  0  0  0  0  0
  189.3910  177.1630  147.0200 C   0  0  0  0  0  3  0  0  0  0  0  0
  192.6330  175.8090  146.8450 O   0  0  0  0  0  0  0  0  0  0  0  0
  189.5380  177.3840  145.7180 C   0  0  0  0  0  0  0  0  0  0  0  0
  191.1380  176.9980  145.0220 S   0  0  0  0  0  0  0  0  0  0  0  0
  190.5850  176.6150  147.7180 C   0  0  0  0  0  2  0  0  0  0  0  0
  191.5810  176.3880  146.6390 C   0  0  0  0  0  0  0  0  0  0  0  0
  188.1540  178.1120  140.9780 C   0  0  2  0  0  3  0  0  0  0  0  0
  189.2970  178.9900  141.4680 C   0  0  0  0  0  1  0  0  0  0  0  0
  186.7260  177.8710  138.9020 C   0  0  0  0  0  3  0  0  0  0  0  0
  187.6380  178.3810  136.7080 C   0  0  0  0  0  0  0  0  0  0  0  0
  188.8590  178.7140  137.3040 C   0  0  0  0  0  3  0  0  0  0  0  0
  189.0150  178.6300  138.6910 C   0  0  0  0  0  3  0  0  0  0  0  0
  187.9510  178.2140  139.4960 C   0  0  0  0  0  0  0  0  0  0  0  0
  186.5700  177.9570  137.5160 C   0  0  0  0  0  3  0  0  0  0  0  0
  187.5150  178.4760  135.3200 O   0  0  0  0  0  0  0  0  0  0  0  0
  186.4590  177.8560  134.5990 C   0  0  0  0  0  1  0  0  0  0  0  0
  183.4080  179.3740  145.1010 O   0  0  0  0  0  1  0  0  0  0  0  0
  183.1510  178.9700  143.7910 C   0  0  0  0  0  2  0  0  0  0  0  0
  1  4  2  0  0  0  0
  1  5  1  0  0  0  0
  2  6  1  0  0  0  0
  2 27  1  0  0  0  0
  3  6  2  0  0  0  0
  3  7  1  0  0  0  0
  4  3  1  0  0  0  0
  5  2  2  0  0  0  0
  7  8  1  0  0  0  0
  8 12  1  0  0  0  0
  9  7  2  0  0  0  0
 10 14  1  0  0  0  0
 12 10  2  0  0  0  0
 13 12  1  0  0  0  0
 13 15  1  0  0  0  0
 15 11  2  0  0  0  0
 15 14  1  0  0  0  0
 16 17  1  1  0  0  0
 16  4  1  0  0  0  0
 18 22  1  0  0  0  0
 19 20  2  0  0  0  0
 19 23  1  0  0  0  0
 20 21  1  0  0  0  0
 21 22  2  0  0  0  0
 22 16  1  0  0  0  0
 23 18  2  0  0  0  0
 24 19  1  0  0  0  0
 25 24  1  0  0  0  0
 27 26  1  0  0  0  0
M  END
>  <MODEL>
5

>  <REMARK>
 VINA RESULT:      -8.0      3.046      6.253
  Name = 
  6 active torsions:
  status: ('A' for Active; 'I' for Inactive)
    1  A    between atoms: C_3  and  C_11
    2  A    between atoms: C_5  and  C_13
    3  A    between atoms: C_5  and  C_23
    4  A    between atoms: C_6  and  O_17
    5  A    between atoms: C_8  and  C_27
    6  A    between atoms: N_9  and  C_10
                            x       y       z     vdW  Elec       q    Type
                         _______ _______ _______ _____ _____    ______ ____

>  <TORSDO>
F 6

$$$$
=
 OpenBabel10222420043D

 27 29  0  0  1  0  0  0  0  0999 V2000
  189.1350  177.0230  142.2900 C   0  0  0  0  0  3  0  0  0  0  0  0
  188.7610  177.8540  140.0560 C   0  0  0  0  0  0  0  0  0  0  0  0
  187.0830  178.2390  141.7840 C   0  0  0  0  0  0  0  0  0  0  0  0
  187.9020  177.5450  142.7150 C   0  0  0  0  0  0  0  0  0  0  0  0
  189.5650  177.1790  140.9740 C   0  0  0  0  0  3  0  0  0  0  0  0
  187.5350  178.3820  140.4630 C   0  0  0  0  0  3  0  0  0  0  0  0
  185.7630  178.8310  142.1310 C   0  0  0  0  0  0  0  0  0  0  0  0
  184.5900  178.0020  142.0940 N   0  0  0  0  0  2  0  0  0  0  0  0
  185.6650  180.0470  142.4420 O   0  0  0  0  0  0  0  0  0  0  0  0
  182.8110  178.6230  143.6330 C   0  0  0  0  0  3  0  0  0  0  0  0
  179.8330  179.6600  142.0750 O   0  0  0  0  0  0  0  0  0  0  0  0
  183.2460  178.4000  142.3970 C   0  0  0  0  0  0  0  0  0  0  0  0
  182.0570  178.6380  141.0830 S   0  0  0  0  0  0  0  0  0  0  0  0
  181.3910  179.0460  143.7500 C   0  0  0  0  0  2  0  0  0  0  0  0
  180.9230  179.1870  142.3470 C   0  0  0  0  0  0  0  0  0  0  0  0
  187.4700  177.3140  144.1390 C   0  0  2  0  0  3  0  0  0  0  0  0
  186.4540  178.3420  144.6150 C   0  0  0  0  0  1  0  0  0  0  0  0
  189.9440  177.0290  144.5960 C   0  0  0  0  0  3  0  0  0  0  0  0
  190.7730  176.9030  146.8760 C   0  0  0  0  0  0  0  0  0  0  0  0
  189.4660  177.0530  147.3490 C   0  0  0  0  0  3  0  0  0  0  0  0
  188.4010  177.1920  146.4540 C   0  0  0  0  0  3  0  0  0  0  0  0
  188.6340  177.1850  145.0760 C   0  0  0  0  0  0  0  0  0  0  0  0
  191.0080  176.8910  145.4910 C   0  0  0  0  0  3  0  0  0  0  0  0
  191.8150  176.7680  147.7970 O   0  0  0  0  0  0  0  0  0  0  0  0
  192.6640  175.6290  147.8330 C   0  0  0  0  0  1  0  0  0  0  0  0
  189.0550  179.3760  138.2790 O   0  0  0  0  0  1  0  0  0  0  0  0
  189.2260  178.0440  138.6560 C   0  0  0  0  0  2  0  0  0  0  0  0
  1  4  1  0  0  0  0
  2  6  2  0  0  0  0
  2  5  1  0  0  0  0
  3  7  1  0  0  0  0
  3  4  2  0  0  0  0
  4 16  1  0  0  0  0
  5  1  2  0  0  0  0
  6  3  1  0  0  0  0
  7  9  2  0  0  0  0
  8  7  1  0  0  0  0
  8 12  1  0  0  0  0
 10 14  1  0  0  0  0
 11 15  2  0  0  0  0
 12 10  2  0  0  0  0
 13 15  1  0  0  0  0
 13 12  1  0  0  0  0
 15 14  1  0  0  0  0
 16 17  1  1  0  0  0
 16 22  1  0  0  0  0
 18 22  2  0  0  0  0
 18 23  1  0  0  0  0
 19 20  1  0  0  0  0
 19 24  1  0  0  0  0
 21 20  2  0  0  0  0
 22 21  1  0  0  0  0
 23 19  2  0  0  0  0
 24 25  1  0  0  0  0
 26 27  1  0  0  0  0
 27  2  1  0  0  0  0
M  END
>  <MODEL>
6

>  <REMARK>
 VINA RESULT:      -7.9      3.044      8.277
  Name = 
  6 active torsions:
  status: ('A' for Active; 'I' for Inactive)
    1  A    between atoms: C_3  and  C_11
    2  A    between atoms: C_5  and  C_13
    3  A    between atoms: C_5  and  C_23
    4  A    between atoms: C_6  and  O_17
    5  A    between atoms: C_8  and  C_27
    6  A    between atoms: N_9  and  C_10
                            x       y       z     vdW  Elec       q    Type
                         _______ _______ _______ _____ _____    ______ ____

>  <TORSDO>
F 6

$$$$
=
 OpenBabel10222420043D

 27 29  0  0  1  0  0  0  0  0999 V2000
  181.9430  178.9820  143.0400 C   0  0  0  0  0  3  0  0  0  0  0  0
  184.2200  178.9590  143.8370 C   0  0  0  0  0  0  0  0  0  0  0  0
  183.7820  179.0080  141.4380 C   0  0  0  0  0  0  0  0  0  0  0  0
  182.3870  179.0070  141.7070 C   0  0  0  0  0  0  0  0  0  0  0  0
  182.8510  178.9640  144.0970 C   0  0  0  0  0  3  0  0  0  0  0  0
  184.6780  178.9870  142.5190 C   0  0  0  0  0  3  0  0  0  0  0  0
  184.3560  179.0340  140.0660 C   0  0  0  0  0  0  0  0  0  0  0  0
  184.6980  177.7950  139.4250 N   0  0  0  0  0  2  0  0  0  0  0  0
  184.5530  180.1270  139.4720 O   0  0  0  0  0  0  0  0  0  0  0  0
  184.5380  177.2700  137.0540 C   0  0  0  0  0  3  0  0  0  0  0  0
  187.5020  177.8120  135.2390 O   0  0  0  0  0  0  0  0  0  0  0  0
  185.2560  177.6320  138.1130 C   0  0  0  0  0  0  0  0  0  0  0  0
  186.9950  177.9300  137.8280 S   0  0  0  0  0  0  0  0  0  0  0  0
  185.2850  177.1690  135.7730 C   0  0  0  0  0  2  0  0  0  0  0  0
  186.6580  177.6330  136.1010 C   0  0  0  0  0  0  0  0  0  0  0  0
  181.3620  178.9880  140.6030 C   0  0  2  0  0  3  0  0  0  0  0  0
  180.2340  179.9820  140.8360 C   0  0  0  0  0  1  0  0  0  0  0  0
  179.7220  177.0940  140.9650 C   0  0  0  0  0  3  0  0  0  0  0  0
  179.9780  174.9930  139.7720 C   0  0  0  0  0  0  0  0  0  0  0  0
  181.1110  175.5050  139.1320 C   0  0  0  0  0  3  0  0  0  0  0  0
  181.5490  176.8050  139.4030 C   0  0  0  0  0  3  0  0  0  0  0  0
  180.8560  177.6060  140.3160 C   0  0  0  0  0  0  0  0  0  0  0  0
  179.2840  175.7950  140.6930 C   0  0  0  0  0  3  0  0  0  0  0  0
  179.5660  173.6900  139.4780 O   0  0  0  0  0  0  0  0  0  0  0  0
  179.6870  173.1220  138.1810 C   0  0  0  0  0  1  0  0  0  0  0  0
  184.5070  178.9990  146.1770 O   0  0  0  0  0  1  0  0  0  0  0  0
  185.1920  178.9630  144.9630 C   0  0  0  0  0  2  0  0  0  0  0  0
  1  5  1  0  0  0  0
  2  5  2  0  0  0  0
  2 27  1  0  0  0  0
  3  4  1  0  0  0  0
  3  6  2  0  0  0  0
  4  1  2  0  0  0  0
  6  2  1  0  0  0  0
  7  3  1  0  0  0  0
  8  7  1  0  0  0  0
  9  7  2  0  0  0  0
 10 12  2  0  0  0  0
 11 15  2  0  0  0  0
 12  8  1  0  0  0  0
 13 12  1  0  0  0  0
 14 15  1  0  0  0  0
 14 10  1  0  0  0  0
 15 13  1  0  0  0  0
 16 17  1  1  0  0  0
 16  4  1  0  0  0  0
 19 23  2  0  0  0  0
 20 21  2  0  0  0  0
 20 19  1  0  0  0  0
 21 22  1  0  0  0  0
 22 16  1  0  0  0  0
 22 18  2  0  0  0  0
 23 18  1  0  0  0  0
 24 19  1  0  0  0  0
 25 24  1  0  0  0  0
 27 26  1  0  0  0  0
M  END
>  <MODEL>
7

>  <REMARK>
 VINA RESULT:      -7.9      4.172      5.425
  Name = 
  6 active torsions:
  status: ('A' for Active; 'I' for Inactive)
    1  A    between atoms: C_3  and  C_11
    2  A    between atoms: C_5  and  C_13
    3  A    between atoms: C_5  and  C_23
    4  A    between atoms: C_6  and  O_17
    5  A    between atoms: C_8  and  C_27
    6  A    between atoms: N_9  and  C_10
                            x       y       z     vdW  Elec       q    Type
                         _______ _______ _______ _____ _____    ______ ____

>  <TORSDO>
F 6

$$$$
=
 OpenBabel10222420043D

 27 29  0  0  1  0  0  0  0  0999 V2000
  182.6850  176.7010  140.0410 C   0  0  0  0  0  3  0  0  0  0  0  0
  180.5030  176.3110  139.0890 C   0  0  0  0  0  0  0  0  0  0  0  0
  181.2640  178.5980  139.4670 C   0  0  0  0  0  0  0  0  0  0  0  0
  182.4850  178.0900  139.9850 C   0  0  0  0  0  0  0  0  0  0  0  0
  181.7050  175.8170  139.5920 C   0  0  0  0  0  3  0  0  0  0  0  0
  180.2900  177.6890  139.0230 C   0  0  0  0  0  3  0  0  0  0  0  0
  180.9530  180.0480  139.3640 C   0  0  0  0  0  0  0  0  0  0  0  0
  181.2630  180.7480  138.1480 N   0  0  0  0  0  2  0  0  0  0  0  0
  180.4340  180.6660  140.3310 O   0  0  0  0  0  0  0  0  0  0  0  0
  182.0070  183.0400  137.8110 C   0  0  0  0  0  3  0  0  0  0  0  0
  179.4700  185.2620  136.8120 O   0  0  0  0  0  0  0  0  0  0  0  0
  181.0330  182.1370  137.8730 C   0  0  0  0  0  0  0  0  0  0  0  0
  179.3750  182.7360  137.5760 S   0  0  0  0  0  0  0  0  0  0  0  0
  181.5780  184.4280  137.4960 C   0  0  0  0  0  2  0  0  0  0  0  0
  180.1190  184.3230  137.2390 C   0  0  0  0  0  0  0  0  0  0  0  0
  183.5630  178.9980  140.5190 C   0  0  2  0  0  3  0  0  0  0  0  0
  184.8940  178.8040  139.8080 C   0  0  0  0  0  1  0  0  0  0  0  0
  182.5700  178.9970  142.8470 C   0  0  0  0  0  3  0  0  0  0  0  0
  184.0010  178.8000  144.8010 C   0  0  0  0  0  0  0  0  0  0  0  0
  185.1180  178.7260  143.9630 C   0  0  0  0  0  3  0  0  0  0  0  0
  184.9650  178.7840  142.5740 C   0  0  0  0  0  3  0  0  0  0  0  0
  183.6930  178.9160  142.0100 C   0  0  0  0  0  0  0  0  0  0  0  0
  182.7220  178.9370  144.2350 C   0  0  0  0  0  3  0  0  0  0  0  0
  184.1870  178.7370  146.1840 O   0  0  0  0  0  0  0  0  0  0  0  0
  185.4530  178.4770  146.7760 C   0  0  0  0  0  1  0  0  0  0  0  0
  178.9580  174.6190  139.6470 O   0  0  0  0  0  1  0  0  0  0  0  0
  179.4640  175.3720  138.5870 C   0  0  0  0  0  2  0  0  0  0  0  0
  2  5  1  0  0  0  0
  3  4  2  0  0  0  0
  4  1  1  0  0  0  0
  4 16  1  0  0  0  0
  5  1  2  0  0  0  0
  6  2  2  0  0  0  0
  6  3  1  0  0  0  0
  7  3  1  0  0  0  0
  7  9  2  0  0  0  0
  8  7  1  0  0  0  0
 10 12  2  0  0  0  0
 11 15  2  0  0  0  0
 12  8  1  0  0  0  0
 13 12  1  0  0  0  0
 14 10  1  0  0  0  0
 15 14  1  0  0  0  0
 15 13  1  0  0  0  0
 16 17  1  6  0  0  0
 16 22  1  0  0  0  0
 18 23  1  0  0  0  0
 19 24  1  0  0  0  0
 20 19  1  0  0  0  0
 21 20  2  0  0  0  0
 22 21  1  0  0  0  0
 22 18  2  0  0  0  0
 23 19  2  0  0  0  0
 24 25  1  0  0  0  0
 27  2  1  0  0  0  0
 27 26  1  0  0  0  0
M  END
>  <MODEL>
8

>  <REMARK>
 VINA RESULT:      -7.8      5.121      8.895
  Name = 
  6 active torsions:
  status: ('A' for Active; 'I' for Inactive)
    1  A    between atoms: C_3  and  C_11
    2  A    between atoms: C_5  and  C_13
    3  A    between atoms: C_5  and  C_23
    4  A    between atoms: C_6  and  O_17
    5  A    between atoms: C_8  and  C_27
    6  A    between atoms: N_9  and  C_10
                            x       y       z     vdW  Elec       q    Type
                         _______ _______ _______ _____ _____    ______ ____

>  <TORSDO>
F 6

$$$$
=
 OpenBabel10222420043D

 27 29  0  0  1  0  0  0  0  0999 V2000
  187.7080  178.1840  142.5310 C   0  0  0  0  0  3  0  0  0  0  0  0
  188.3000  178.2710  140.1930 C   0  0  0  0  0  0  0  0  0  0  0  0
  185.9630  178.4930  140.8560 C   0  0  0  0  0  0  0  0  0  0  0  0
  186.3500  178.3590  142.2150 C   0  0  0  0  0  0  0  0  0  0  0  0
  188.6770  178.1460  141.5290 C   0  0  0  0  0  3  0  0  0  0  0  0
  186.9550  178.4480  139.8630 C   0  0  0  0  0  3  0  0  0  0  0  0
  184.5550  178.6830  140.4150 C   0  0  0  0  0  0  0  0  0  0  0  0
  183.6060  177.6230  140.6200 N   0  0  0  0  0  2  0  0  0  0  0  0
  184.1930  179.7530  139.8580 O   0  0  0  0  0  0  0  0  0  0  0  0
  181.2950  178.3170  140.9330 C   0  0  0  0  0  3  0  0  0  0  0  0
  179.1010  177.2630  138.3930 O   0  0  0  0  0  0  0  0  0  0  0  0
  182.2170  177.6320  140.2630 C   0  0  0  0  0  0  0  0  0  0  0  0
  181.6420  176.7050  138.8470 S   0  0  0  0  0  0  0  0  0  0  0  0
  179.9100  178.2200  140.4040 C   0  0  0  0  0  2  0  0  0  0  0  0
  180.0360  177.4170  139.1610 C   0  0  0  0  0  0  0  0  0  0  0  0
  185.3420  178.3560  143.3350 C   0  0  2  0  0  3  0  0  0  0  0  0
  184.4030  179.5520  143.2780 C   0  0  0  0  0  1  0  0  0  0  0  0
  185.5690  178.9600  145.7820 C   0  0  0  0  0  3  0  0  0  0  0  0
  187.2490  177.8850  147.1700 C   0  0  0  0  0  0  0  0  0  0  0  0
  187.6620  177.1300  146.0680 C   0  0  0  0  0  3  0  0  0  0  0  0
  187.0330  177.2850  144.8290 C   0  0  0  0  0  3  0  0  0  0  0  0
  185.9830  178.1950  144.6810 C   0  0  0  0  0  0  0  0  0  0  0  0
  186.1970  178.8040  147.0210 C   0  0  0  0  0  3  0  0  0  0  0  0
  187.8980  177.7050  148.3950 O   0  0  0  0  0  0  0  0  0  0  0  0
  189.1790  178.2530  148.6710 C   0  0  0  0  0  1  0  0  0  0  0  0
  189.0550  179.2460  138.1840 O   0  0  0  0  0  1  0  0  0  0  0  0
  189.3330  178.2530  139.1220 C   0  0  0  0  0  2  0  0  0  0  0  0
  2  5  1  0  0  0  0
  3  4  2  0  0  0  0
  4  1  1  0  0  0  0
  4 16  1  0  0  0  0
  5  1  2  0  0  0  0
  6  2  2  0  0  0  0
  6  3  1  0  0  0  0
  7  8  1  0  0  0  0
  7  3  1  0  0  0  0
  9  7  2  0  0  0  0
 11 15  2  0  0  0  0
 12  8  1  0  0  0  0
 12 10  2  0  0  0  0
 13 15  1  0  0  0  0
 13 12  1  0  0  0  0
 14 10  1  0  0  0  0
 15 14  1  0  0  0  0
 16 17  1  1  0  0  0
 16 22  1  0  0  0  0
 18 23  1  0  0  0  0
 19 24  1  0  0  0  0
 20 19  1  0  0  0  0
 21 20  2  0  0  0  0
 22 21  1  0  0  0  0
 22 18  2  0  0  0  0
 23 19  2  0  0  0  0
 24 25  1  0  0  0  0
 26 27  1  0  0  0  0
 27  2  1  0  0  0  0
M  END
>  <MODEL>
9

>  <REMARK>
 VINA RESULT:      -7.8      3.228      7.498
  Name = 
  6 active torsions:
  status: ('A' for Active; 'I' for Inactive)
    1  A    between atoms: C_3  and  C_11
    2  A    between atoms: C_5  and  C_13
    3  A    between atoms: C_5  and  C_23
    4  A    between atoms: C_6  and  O_17
    5  A    between atoms: C_8  and  C_27
    6  A    between atoms: N_9  and  C_10
                            x       y       z     vdW  Elec       q    Type
                         _______ _______ _______ _____ _____    ______ ____

>  <TORSDO>
F 6

$$$$
