=
 OpenBabel10222417423D

 60 65  0  0  1  0  0  0  0  0999 V2000
  181.9020  178.7000  139.9170 C   0  0  0  0  0  0  0  0  0  0  0  0
  182.1570  178.1500  141.0700 N   0  0  0  0  0  0  0  0  0  0  0  0
  181.0050  179.8170  139.8190 N   0  0  0  0  0  2  0  0  0  0  0  0
  180.8330  180.6820  138.6900 C   0  0  0  0  0  0  0  0  0  0  0  0
  179.8860  181.1880  136.5100 C   0  0  0  0  0  3  0  0  0  0  0  0
  181.5410  181.8880  138.6520 C   0  0  0  0  0  3  0  0  0  0  0  0
  181.4090  182.7510  137.5590 C   0  0  0  0  0  3  0  0  0  0  0  0
  180.5650  182.4150  136.4920 C   0  0  0  0  0  0  0  0  0  0  0  0
  180.0160  180.3310  137.6040 C   0  0  0  0  0  3  0  0  0  0  0  0
  180.8930  184.7350  135.7080 C   0  0  0  0  0  2  0  0  0  0  0  0
  179.4240  184.4200  135.5480 C   0  0  0  0  0  2  0  0  0  0  0  0
  180.4610  183.3330  135.3100 C   0  0  0  0  0  3  0  0  0  0  0  0
  181.6910  178.5780  142.3600 C   0  0  0  0  0  0  0  0  0  0  0  0
  180.5430  178.2720  142.7730 O   0  0  0  0  0  0  0  0  0  0  0  0
  182.5350  179.3860  143.1740 N   0  0  0  0  0  2  0  0  0  0  0  0
  183.8390  179.6900  142.7650 N   0  0  0  0  0  2  0  0  0  0  0  0
  185.0010  178.4170  144.4870 C   0  0  0  0  0  3  0  0  0  0  0  0
  186.0100  178.6270  142.2960 C   0  0  0  0  0  3  0  0  0  0  0  0
  184.9610  178.9140  143.1820 C   0  0  0  0  0  0  0  0  0  0  0  0
  187.0960  177.8470  142.7110 C   0  0  0  0  0  0  0  0  0  0  0  0
  186.0780  177.6340  144.9080 C   0  0  0  0  0  3  0  0  0  0  0  0
  187.1180  177.3450  144.0210 C   0  0  0  0  0  3  0  0  0  0  0  0
  189.8890  176.2830  140.9240 O   0  0  0  0  0  0  0  0  0  0  0  0
  189.2300  176.6390  141.9360 C   0  0  0  0  0  0  0  0  0  0  0  0
  188.1350  177.5490  141.7660 N   0  0  0  0  0  2  0  0  0  0  0  0
  189.6200  176.1050  143.2840 C   0  0  0  0  0  2  0  0  0  0  0  0
  190.9560  176.6320  143.8430 C   0  0  0  0  0  0  0  0  0  0  0  0
  191.6920  177.4160  142.7610 C   0  0  0  0  0  1  0  0  0  0  0  0
  191.7960  175.4000  144.1530 C   0  0  0  0  0  1  0  0  0  0  0  0
  192.0270  177.7250  145.7230 O   0  0  0  0  0  1  0  0  0  0  0  0
  190.7760  177.4930  145.1320 C   0  0  0  0  0  0  0  0  0  0  0  0
  190.2170  178.7280  144.7870 O   0  0  0  0  0  1  0  0  0  0  0  0
  190.2220  176.9520  147.5780 C   0  0  0  0  0  2  0  0  0  0  0  0
  189.0920  177.7920  147.0240 C   0  0  0  0  0  2  0  0  0  0  0  0
  189.8030  176.7990  146.1270 C   0  0  0  0  0  3  0  0  0  0  0  0
  182.4820  178.0770  138.6770 C   0  0  0  0  0  2  0  0  0  0  0  0
  186.4830  179.4700  136.9950 O   0  0  0  0  0  0  0  0  0  0  0  0
  184.4410  176.2740  137.3680 C   0  0  0  0  0  3  0  0  0  0  0  0
  185.3170  175.3630  136.9260 C   0  0  0  0  0  0  0  0  0  0  0  0
  187.1710  178.2650  139.0370 O   0  0  0  0  0  0  0  0  0  0  0  0
  186.4740  178.1440  137.7100 S   0  0  0  0  0  0  0  0  0  0  0  0
  187.2850  176.9300  136.7000 C   0  0  0  0  0  2  0  0  0  0  0  0
  183.9370  178.4010  138.4950 C   0  0  0  0  0  3  0  0  0  0  0  0
  186.8130  175.5390  137.1070 C   0  0  2  0  0  3  0  0  0  0  0  0
  184.6600  173.8860  136.2430 Cl  0  0  0  0  0  0  0  0  0  0  0  0
  184.8280  177.5840  137.9310 C   0  0  0  0  0  0  0  0  0  0  0  0
  187.5600  174.5420  136.3580 N   0  0  0  0  0  2  0  0  0  0  0  0
  189.5780  172.8310  135.4930 O   0  0  0  0  0  0  0  0  0  0  0  0
  189.9000  173.7600  136.2840 C   0  0  0  0  0  0  0  0  0  0  0  0
  188.9030  174.6820  136.7330 N   0  0  0  0  0  2  0  0  0  0  0  0
  193.6000  173.0870  136.6270 C   0  0  0  0  0  0  0  0  0  0  0  0
  195.4770  174.3270  137.7240 C   0  0  0  0  0  1  0  0  0  0  0  0
  194.4770  172.1410  136.2140 F   0  0  0  0  0  0  0  0  0  0  0  0
  193.1100  175.1510  137.7960 C   0  0  0  0  0  0  0  0  0  0  0  0
  192.2500  172.9600  136.2940 C   0  0  0  0  0  3  0  0  0  0  0  0
  191.7590  175.0310  137.4540 C   0  0  0  0  0  0  0  0  0  0  0  0
  190.8910  175.9880  137.8760 F   0  0  0  0  0  0  0  0  0  0  0  0
  194.0340  174.1820  137.3790 C   0  0  0  0  0  0  0  0  0  0  0  0
  193.5190  176.2140  138.5330 F   0  0  0  0  0  0  0  0  0  0  0  0
  191.3150  173.9250  136.6940 C   0  0  0  0  0  0  0  0  0  0  0  0
  1  2  2  0  0  0  0
  2 13  1  0  0  0  0
  3  1  1  0  0  0  0
  4  3  1  0  0  0  0
  5  9  1  0  0  0  0
  6  4  1  0  0  0  0
  7  6  2  0  0  0  0
  8  5  2  0  0  0  0
  8  7  1  0  0  0  0
  9  4  2  0  0  0  0
 11 10  1  0  0  0  0
 12 11  1  0  0  0  0
 12 10  1  0  0  0  0
 12  8  1  0  0  0  0
 13 14  2  0  0  0  0
 13 15  1  0  0  0  0
 16 15  1  0  0  0  0
 16 19  1  0  0  0  0
 17 21  1  0  0  0  0
 18 20  2  0  0  0  0
 18 19  1  0  0  0  0
 19 17  2  0  0  0  0
 20 22  1  0  0  0  0
 22 21  2  0  0  0  0
 23 24  2  0  0  0  0
 24 26  1  0  0  0  0
 25 24  1  0  0  0  0
 25 20  1  0  0  0  0
 26 27  1  0  0  0  0
 27 29  1  0  0  0  0
 27 31  1  0  0  0  0
 28 27  1  0  0  0  0
 31 30  1  0  0  0  0
 31 35  1  0  0  0  0
 32 31  1  0  0  0  0
 34 33  1  0  0  0  0
 35 34  1  0  0  0  0
 35 33  1  0  0  0  0
 36  1  1  0  0  0  0
 37 41  2  0  0  0  0
 38 46  1  0  0  0  0
 39 44  1  0  0  0  0
 39 38  2  0  0  0  0
 41 46  1  0  0  0  0
 41 40  2  0  0  0  0
 42 44  1  0  0  0  0
 42 41  1  0  0  0  0
 43 36  1  0  0  0  0
 44 47  1  6  0  0  0
 45 39  1  0  0  0  0
 46 43  2  0  0  0  0
 47 50  1  0  0  0  0
 48 49  2  0  0  0  0
 49 60  1  0  0  0  0
 49 50  1  0  0  0  0
 51 58  1  0  0  0  0
 53 51  1  0  0  0  0
 54 59  1  0  0  0  0
 55 51  2  0  0  0  0
 55 60  1  0  0  0  0
 56 54  1  0  0  0  0
 56 57  1  0  0  0  0
 58 52  1  0  0  0  0
 58 54  2  0  0  0  0
 60 56  2  0  0  0  0
M  END
>  <MODEL>
1

>  <REMARK>
 VINA RESULT:      -9.1      0.000      0.000
  Name = 
  15 active torsions:
  status: ('A' for Active; 'I' for Inactive)
    1  A    between atoms: C_2  and  C_14
    2  A    between atoms: C_2  and  C_54
    3  A    between atoms: C_7  and  C_13
    4  A    between atoms: C_8  and  N_32
    5  A    between atoms: C_13  and  C_36
    6  A    between atoms: C_14  and  C_15
    7  A    between atoms: C_18  and  N_45
    8  A    between atoms: C_21  and  N_51
    9  A    between atoms: C_29  and  C_57
   10  A    between atoms: C_31  and  C_50
   11  A    between atoms: N_34  and  C_35
   12  A    between atoms: N_38  and  N_44
   13  A    between atoms: N_38  and  C_47
   14  A    between atoms: N_45  and  N_53
   15  A    between atoms: C_54  and  C_59
                            x       y       z     vdW  Elec       q    Type
                         _______ _______ _______ _____ _____    ______ ____

>  <TORSDO>
F 15

$$$$
=
 OpenBabel10222417423D

 60 65  0  0  1  0  0  0  0  0999 V2000
  183.3620  178.2220  140.3860 C   0  0  0  0  0  0  0  0  0  0  0  0
  183.7730  178.1770  141.6220 N   0  0  0  0  0  0  0  0  0  0  0  0
  182.1930  178.9750  140.0280 N   0  0  0  0  0  2  0  0  0  0  0  0
  181.7780  179.3340  138.7040 C   0  0  0  0  0  0  0  0  0  0  0  0
  181.2230  178.7600  136.4090 C   0  0  0  0  0  3  0  0  0  0  0  0
  181.5830  180.6860  138.4040 C   0  0  0  0  0  3  0  0  0  0  0  0
  181.1900  181.0750  137.1190 C   0  0  0  0  0  3  0  0  0  0  0  0
  180.9890  180.1130  136.1200 C   0  0  0  0  0  0  0  0  0  0  0  0
  181.6100  178.3750  137.6940 C   0  0  0  0  0  3  0  0  0  0  0  0
  180.2900  182.0350  134.7330 C   0  0  0  0  0  2  0  0  0  0  0  0
  179.1620  181.0300  134.6950 C   0  0  0  0  0  2  0  0  0  0  0  0
  180.6040  180.5470  134.7370 C   0  0  0  0  0  3  0  0  0  0  0  0
  183.2230  178.8830  142.7470 C   0  0  0  0  0  0  0  0  0  0  0  0
  182.1130  179.4670  142.6710 O   0  0  0  0  0  0  0  0  0  0  0  0
  183.9650  178.9460  143.9610 N   0  0  0  0  0  0  0  0  0  0  0  0
  185.1750  178.2540  144.0920 N   0  0  0  0  0  0  0  0  0  0  0  0
  185.4880  179.0650  146.3680 C   0  0  0  0  0  3  0  0  0  0  0  0
  187.1050  177.5220  145.4360 C   0  0  0  0  0  3  0  0  0  0  0  0
  185.9340  178.2830  145.2990 C   0  0  0  0  0  0  0  0  0  0  0  0
  187.8300  177.5430  146.6330 C   0  0  0  0  0  0  0  0  0  0  0  0
  186.2020  179.0880  147.5670 C   0  0  0  0  0  3  0  0  0  0  0  0
  187.3650  178.3250  147.7010 C   0  0  0  0  0  3  0  0  0  0  0  0
  191.2680  176.2800  146.4770 O   0  0  0  0  0  0  0  0  0  0  0  0
  190.2570  176.9080  146.0670 C   0  0  0  0  0  0  0  0  0  0  0  0
  189.0060  176.7270  146.7440 N   0  0  0  0  0  2  0  0  0  0  0  0
  190.3960  177.8190  144.8800 C   0  0  0  0  0  2  0  0  0  0  0  0
  190.8640  177.1400  143.5780 C   0  0  0  0  0  0  0  0  0  0  0  0
  191.6230  175.8580  143.9100 C   0  0  0  0  0  1  0  0  0  0  0  0
  191.8610  178.0990  142.9410 C   0  0  0  0  0  1  0  0  0  0  0  0
  190.2010  176.3270  141.3930 O   0  0  0  0  0  1  0  0  0  0  0  0
  189.6910  176.8540  142.5890 C   0  0  0  0  0  0  0  0  0  0  0  0
  188.8310  175.9080  143.1550 O   0  0  0  0  0  1  0  0  0  0  0  0
  188.5630  178.3760  140.8580 C   0  0  0  0  0  2  0  0  0  0  0  0
  187.4840  177.8430  141.7770 C   0  0  0  0  0  2  0  0  0  0  0  0
  188.8630  178.1450  142.3270 C   0  0  0  0  0  3  0  0  0  0  0  0
  184.0750  177.3850  139.3600 C   0  0  0  0  0  2  0  0  0  0  0  0
  186.7470  179.8950  136.6520 O   0  0  0  0  0  0  0  0  0  0  0  0
  185.7740  176.2530  137.2070 C   0  0  0  0  0  3  0  0  0  0  0  0
  186.6090  175.6380  136.3610 C   0  0  0  0  0  0  0  0  0  0  0  0
  188.3930  178.8010  138.1320 O   0  0  0  0  0  0  0  0  0  0  0  0
  187.3040  178.5760  137.1180 S   0  0  0  0  0  0  0  0  0  0  0  0
  187.9430  177.6850  135.7210 C   0  0  0  0  0  2  0  0  0  0  0  0
  185.2460  178.0970  138.7460 C   0  0  0  0  0  3  0  0  0  0  0  0
  187.9850  176.1970  136.0490 C   0  0  2  0  0  3  0  0  0  0  0  0
  186.1040  174.0820  135.7260 Cl  0  0  0  0  0  0  0  0  0  0  0  0
  186.0300  177.5830  137.7960 C   0  0  0  0  0  0  0  0  0  0  0  0
  188.6110  175.4830  134.9480 N   0  0  0  0  0  2  0  0  0  0  0  0
  189.3680  173.3990  136.6320 O   0  0  0  0  0  0  0  0  0  0  0  0
  190.2750  174.1750  136.2200 C   0  0  0  0  0  0  0  0  0  0  0  0
  189.9380  175.2430  135.3300 N   0  0  0  0  0  2  0  0  0  0  0  0
  193.7070  172.6080  136.3640 C   0  0  0  0  0  0  0  0  0  0  0  0
  195.8130  173.1950  137.5830 C   0  0  0  0  0  1  0  0  0  0  0  0
  194.3400  171.5560  135.7940 F   0  0  0  0  0  0  0  0  0  0  0  0
  193.7070  174.5310  137.8370 C   0  0  0  0  0  0  0  0  0  0  0  0
  192.3690  172.8530  136.0520 C   0  0  0  0  0  3  0  0  0  0  0  0
  192.3690  174.7850  137.5170 C   0  0  0  0  0  0  0  0  0  0  0  0
  191.7470  175.8440  138.0980 F   0  0  0  0  0  0  0  0  0  0  0  0
  194.3800  173.4460  137.2580 C   0  0  0  0  0  0  0  0  0  0  0  0
  194.3480  175.3460  138.7130 F   0  0  0  0  0  0  0  0  0  0  0  0
  191.6840  173.9400  136.6140 C   0  0  0  0  0  0  0  0  0  0  0  0
  1  2  2  0  0  0  0
  2 13  1  0  0  0  0
  3  1  1  0  0  0  0
  4  3  1  0  0  0  0
  5  9  1  0  0  0  0
  6  4  1  0  0  0  0
  7  6  2  0  0  0  0
  8  5  2  0  0  0  0
  8  7  1  0  0  0  0
  9  4  2  0  0  0  0
 10 12  1  0  0  0  0
 11 10  1  0  0  0  0
 11 12  1  0  0  0  0
 12  8  1  0  0  0  0
 13 15  1  0  0  0  0
 14 13  2  0  0  0  0
 15 16  2  0  0  0  0
 16 19  1  0  0  0  0
 17 21  1  0  0  0  0
 18 20  2  0  0  0  0
 19 18  1  0  0  0  0
 19 17  2  0  0  0  0
 20 25  1  0  0  0  0
 20 22  1  0  0  0  0
 21 22  2  0  0  0  0
 24 23  2  0  0  0  0
 24 25  1  0  0  0  0
 26 24  1  0  0  0  0
 27 28  1  0  0  0  0
 27 26  1  0  0  0  0
 29 27  1  0  0  0  0
 30 31  1  0  0  0  0
 31 32  1  0  0  0  0
 31 27  1  0  0  0  0
 33 34  1  0  0  0  0
 33 35  1  0  0  0  0
 34 35  1  0  0  0  0
 35 31  1  0  0  0  0
 36  1  1  0  0  0  0
 37 41  2  0  0  0  0
 38 46  1  0  0  0  0
 39 38  2  0  0  0  0
 41 46  1  0  0  0  0
 41 40  2  0  0  0  0
 42 44  1  0  0  0  0
 42 41  1  0  0  0  0
 43 36  1  0  0  0  0
 44 47  1  6  0  0  0
 44 39  1  0  0  0  0
 45 39  1  0  0  0  0
 46 43  2  0  0  0  0
 47 50  1  0  0  0  0
 49 60  1  0  0  0  0
 49 48  2  0  0  0  0
 50 49  1  0  0  0  0
 51 58  1  0  0  0  0
 53 51  1  0  0  0  0
 54 59  1  0  0  0  0
 55 51  2  0  0  0  0
 55 60  1  0  0  0  0
 56 54  1  0  0  0  0
 56 57  1  0  0  0  0
 58 52  1  0  0  0  0
 58 54  2  0  0  0  0
 60 56  2  0  0  0  0
M  END
>  <MODEL>
2

>  <REMARK>
 VINA RESULT:      -8.6      1.553      2.635
  Name = 
  15 active torsions:
  status: ('A' for Active; 'I' for Inactive)
    1  A    between atoms: C_2  and  C_14
    2  A    between atoms: C_2  and  C_54
    3  A    between atoms: C_7  and  C_13
    4  A    between atoms: C_8  and  N_32
    5  A    between atoms: C_13  and  C_36
    6  A    between atoms: C_14  and  C_15
    7  A    between atoms: C_18  and  N_45
    8  A    between atoms: C_21  and  N_51
    9  A    between atoms: C_29  and  C_57
   10  A    between atoms: C_31  and  C_50
   11  A    between atoms: N_34  and  C_35
   12  A    between atoms: N_38  and  N_44
   13  A    between atoms: N_38  and  C_47
   14  A    between atoms: N_45  and  N_53
   15  A    between atoms: C_54  and  C_59
                            x       y       z     vdW  Elec       q    Type
                         _______ _______ _______ _____ _____    ______ ____

>  <TORSDO>
F 15

$$$$
=
 OpenBabel10222417423D

 60 65  0  0  1  0  0  0  0  0999 V2000
  189.2500  177.9570  140.7700 C   0  0  0  0  0  0  0  0  0  0  0  0
  189.5000  177.7160  139.5150 N   0  0  0  0  0  0  0  0  0  0  0  0
  189.4670  176.9490  141.7690 N   0  0  0  0  0  2  0  0  0  0  0  0
  189.4950  177.1410  143.1890 C   0  0  0  0  0  0  0  0  0  0  0  0
  190.5830  177.9130  145.2190 C   0  0  0  0  0  3  0  0  0  0  0  0
  188.4320  176.6540  143.9550 C   0  0  0  0  0  3  0  0  0  0  0  0
  188.4310  176.8120  145.3450 C   0  0  0  0  0  3  0  0  0  0  0  0
  189.4980  177.4600  145.9820 C   0  0  0  0  0  0  0  0  0  0  0  0
  190.5780  177.7590  143.8320 C   0  0  0  0  0  3  0  0  0  0  0  0
  188.2090  177.0260  148.0450 C   0  0  0  0  0  2  0  0  0  0  0  0
  188.3970  178.5220  147.9500 C   0  0  0  0  0  2  0  0  0  0  0  0
  189.5010  177.5900  147.4770 C   0  0  0  0  0  3  0  0  0  0  0  0
  190.0720  176.5210  138.9550 C   0  0  0  0  0  0  0  0  0  0  0  0
  190.9000  175.8310  139.6020 O   0  0  0  0  0  0  0  0  0  0  0  0
  189.7130  176.1280  137.6350 N   0  0  0  0  0  2  0  0  0  0  0  0
  188.7470  176.8440  136.9160 N   0  0  0  0  0  2  0  0  0  0  0  0
  187.9940  174.9340  135.6060 C   0  0  0  0  0  3  0  0  0  0  0  0
  186.4710  176.7780  135.9810 C   0  0  0  0  0  3  0  0  0  0  0  0
  187.7320  176.1900  136.1590 C   0  0  0  0  0  0  0  0  0  0  0  0
  185.4750  176.1170  135.2520 C   0  0  0  0  0  0  0  0  0  0  0  0
  187.0050  174.2650  134.8820 C   0  0  0  0  0  3  0  0  0  0  0  0
  185.7480  174.8520  134.7110 C   0  0  0  0  0  3  0  0  0  0  0  0
  181.8990  176.8950  135.4760 O   0  0  0  0  0  0  0  0  0  0  0  0
  182.9060  176.1460  135.3690 C   0  0  0  0  0  0  0  0  0  0  0  0
  184.1880  176.7390  135.1180 N   0  0  0  0  0  2  0  0  0  0  0  0
  182.7280  174.6610  135.5020 C   0  0  0  0  0  2  0  0  0  0  0  0
  182.5350  174.1440  136.9410 C   0  0  0  0  0  0  0  0  0  0  0  0
  183.0100  175.2010  137.9340 C   0  0  0  0  0  1  0  0  0  0  0  0
  183.4660  172.9470  137.0840 C   0  0  0  0  0  1  0  0  0  0  0  0
  180.2760  173.9110  136.0960 O   0  0  0  0  0  1  0  0  0  0  0  0
  181.0650  173.7170  137.2400 C   0  0  0  0  0  0  0  0  0  0  0  0
  181.0370  172.3580  137.5690 O   0  0  0  0  0  1  0  0  0  0  0  0
  179.3480  175.4250  138.0880 C   0  0  0  0  0  2  0  0  0  0  0  0
  179.0740  174.1100  138.7850 C   0  0  0  0  0  2  0  0  0  0  0  0
  180.4980  174.5060  138.4550 C   0  0  0  0  0  3  0  0  0  0  0  0
  188.6290  179.2760  141.1410 C   0  0  0  0  0  2  0  0  0  0  0  0
  185.3480  177.5780  143.8090 O   0  0  0  0  0  0  0  0  0  0  0  0
  185.8510  178.7790  140.2280 C   0  0  0  0  0  3  0  0  0  0  0  0
  184.5960  178.7250  139.7660 C   0  0  0  0  0  0  0  0  0  0  0  0
  184.6820  179.9470  143.6150 O   0  0  0  0  0  0  0  0  0  0  0  0
  184.9470  178.6750  142.8580 S   0  0  0  0  0  0  0  0  0  0  0  0
  183.4920  178.1760  141.9710 C   0  0  0  0  0  2  0  0  0  0  0  0
  187.4540  179.1220  142.0610 C   0  0  0  0  0  3  0  0  0  0  0  0
  183.4010  178.9650  140.6690 C   0  0  2  0  0  3  0  0  0  0  0  0
  184.3870  178.4960  138.0380 Cl  0  0  0  0  0  0  0  0  0  0  0  0
  186.1980  178.9250  141.6570 C   0  0  0  0  0  0  0  0  0  0  0  0
  182.1530  178.6370  139.9980 N   0  0  0  0  0  2  0  0  0  0  0  0
  180.4020  180.7950  140.1590 O   0  0  0  0  0  0  0  0  0  0  0  0
  181.0580  180.6550  139.0890 C   0  0  0  0  0  0  0  0  0  0  0  0
  181.9920  179.5770  138.9710 N   0  0  0  0  0  2  0  0  0  0  0  0
  181.3300  183.8770  137.1400 C   0  0  0  0  0  0  0  0  0  0  0  0
  180.6100  184.5610  134.8430 C   0  0  0  0  0  1  0  0  0  0  0  0
  181.8570  185.1100  137.3330 F   0  0  0  0  0  0  0  0  0  0  0  0
  180.1610  182.2700  135.7560 C   0  0  0  0  0  0  0  0  0  0  0  0
  181.4240  182.9260  138.1580 C   0  0  0  0  0  3  0  0  0  0  0  0
  180.2630  181.3120  136.7710 C   0  0  0  0  0  0  0  0  0  0  0  0
  179.7290  180.0800  136.5630 F   0  0  0  0  0  0  0  0  0  0  0  0
  180.6990  183.5520  135.9360 C   0  0  0  0  0  0  0  0  0  0  0  0
  179.5370  181.9460  134.5950 F   0  0  0  0  0  0  0  0  0  0  0  0
  180.9010  181.6370  137.9900 C   0  0  0  0  0  0  0  0  0  0  0  0
  1 36  1  0  0  0  0
  1  3  1  0  0  0  0
  2  1  2  0  0  0  0
  3  4  1  0  0  0  0
  4  9  2  0  0  0  0
  4  6  1  0  0  0  0
  5  8  2  0  0  0  0
  6  7  2  0  0  0  0
  7  8  1  0  0  0  0
  8 12  1  0  0  0  0
  9  5  1  0  0  0  0
 11 10  1  0  0  0  0
 12 11  1  0  0  0  0
 12 10  1  0  0  0  0
 13  2  1  0  0  0  0
 13 14  2  0  0  0  0
 15 13  1  0  0  0  0
 16 15  1  0  0  0  0
 17 19  1  0  0  0  0
 18 19  2  0  0  0  0
 19 16  1  0  0  0  0
 20 18  1  0  0  0  0
 21 17  2  0  0  0  0
 22 21  1  0  0  0  0
 22 20  2  0  0  0  0
 24 23  2  0  0  0  0
 24 26  1  0  0  0  0
 25 20  1  0  0  0  0
 25 24  1  0  0  0  0
 26 27  1  0  0  0  0
 27 29  1  0  0  0  0
 27 31  1  0  0  0  0
 27 28  1  0  0  0  0
 30 31  1  0  0  0  0
 31 32  1  0  0  0  0
 31 35  1  0  0  0  0
 33 35  1  0  0  0  0
 33 34  1  0  0  0  0
 35 34  1  0  0  0  0
 36 43  1  0  0  0  0
 38 46  1  0  0  0  0
 39 38  2  0  0  0  0
 39 44  1  0  0  0  0
 41 40  2  0  0  0  0
 41 37  2  0  0  0  0
 42 41  1  0  0  0  0
 44 47  1  6  0  0  0
 44 42  1  0  0  0  0
 45 39  1  0  0  0  0
 46 43  2  0  0  0  0
 46 41  1  0  0  0  0
 49 48  2  0  0  0  0
 50 49  1  0  0  0  0
 50 47  1  0  0  0  0
 51 53  1  0  0  0  0
 51 55  1  0  0  0  0
 52 58  1  0  0  0  0
 54 58  1  0  0  0  0
 54 56  2  0  0  0  0
 56 60  1  0  0  0  0
 57 56  1  0  0  0  0
 58 51  2  0  0  0  0
 59 54  1  0  0  0  0
 60 55  2  0  0  0  0
 60 49  1  0  0  0  0
M  END
>  <MODEL>
3

>  <REMARK>
 VINA RESULT:      -7.8      4.308     11.351
  Name = 
  15 active torsions:
  status: ('A' for Active; 'I' for Inactive)
    1  A    between atoms: C_2  and  C_14
    2  A    between atoms: C_2  and  C_54
    3  A    between atoms: C_7  and  C_13
    4  A    between atoms: C_8  and  N_32
    5  A    between atoms: C_13  and  C_36
    6  A    between atoms: C_14  and  C_15
    7  A    between atoms: C_18  and  N_45
    8  A    between atoms: C_21  and  N_51
    9  A    between atoms: C_29  and  C_57
   10  A    between atoms: C_31  and  C_50
   11  A    between atoms: N_34  and  C_35
   12  A    between atoms: N_38  and  N_44
   13  A    between atoms: N_38  and  C_47
   14  A    between atoms: N_45  and  N_53
   15  A    between atoms: C_54  and  C_59
                            x       y       z     vdW  Elec       q    Type
                         _______ _______ _______ _____ _____    ______ ____

>  <TORSDO>
F 15

$$$$
=
 OpenBabel10222417423D

 60 65  0  0  1  0  0  0  0  0999 V2000
  182.5750  177.3110  138.7990 C   0  0  0  0  0  0  0  0  0  0  0  0
  182.8960  178.4260  139.3900 N   0  0  0  0  0  0  0  0  0  0  0  0
  181.2360  176.7960  138.8800 N   0  0  0  0  0  2  0  0  0  0  0  0
  180.6710  175.7490  138.0820 C   0  0  0  0  0  0  0  0  0  0  0  0
  180.2400  173.4000  137.6330 C   0  0  0  0  0  3  0  0  0  0  0  0
  180.0310  176.0850  136.8850 C   0  0  0  0  0  3  0  0  0  0  0  0
  179.4790  175.0880  136.0740 C   0  0  0  0  0  3  0  0  0  0  0  0
  179.5630  173.7420  136.4530 C   0  0  0  0  0  0  0  0  0  0  0  0
  180.7850  174.3980  138.4430 C   0  0  0  0  0  3  0  0  0  0  0  0
  179.2570  171.3080  136.1570 C   0  0  0  0  0  2  0  0  0  0  0  0
  180.0990  171.7900  134.9990 C   0  0  0  0  0  2  0  0  0  0  0  0
  178.9990  172.6810  135.5560 C   0  0  0  0  0  3  0  0  0  0  0  0
  182.0220  179.3160  140.1030 C   0  0  0  0  0  0  0  0  0  0  0  0
  181.4130  180.2430  139.5110 O   0  0  0  0  0  0  0  0  0  0  0  0
  181.8640  179.1620  141.5100 N   0  0  0  0  0  2  0  0  0  0  0  0
  182.4830  178.1010  142.1830 N   0  0  0  0  0  2  0  0  0  0  0  0
  183.7040  178.6110  144.2280 C   0  0  0  0  0  3  0  0  0  0  0  0
  184.9440  178.0620  142.2220 C   0  0  0  0  0  3  0  0  0  0  0  0
  183.7190  178.2650  142.8750 C   0  0  0  0  0  0  0  0  0  0  0  0
  186.1510  178.2060  142.9170 C   0  0  0  0  0  0  0  0  0  0  0  0
  184.9030  178.7520  144.9300 C   0  0  0  0  0  3  0  0  0  0  0  0
  186.1210  178.5440  144.2790 C   0  0  0  0  0  3  0  0  0  0  0  0
  189.3840  176.8410  141.8570 O   0  0  0  0  0  0  0  0  0  0  0  0
  188.5040  177.1930  142.6850 C   0  0  0  0  0  0  0  0  0  0  0  0
  187.3830  177.9590  142.2230 N   0  0  0  0  0  2  0  0  0  0  0  0
  188.6620  176.8040  144.1270 C   0  0  0  0  0  2  0  0  0  0  0  0
  189.5960  177.7070  144.9560 C   0  0  0  0  0  0  0  0  0  0  0  0
  188.8450  178.2480  146.1690 C   0  0  0  0  0  1  0  0  0  0  0  0
  189.9260  178.8980  144.0670 C   0  0  0  0  0  1  0  0  0  0  0  0
  191.2030  175.9560  144.4820 O   0  0  0  0  0  1  0  0  0  0  0  0
  190.9090  176.9840  145.3900 C   0  0  0  0  0  0  0  0  0  0  0  0
  191.9660  177.9000  145.3750 O   0  0  0  0  0  1  0  0  0  0  0  0
  191.4580  175.0900  147.0310 C   0  0  0  0  0  2  0  0  0  0  0  0
  192.1230  176.3500  147.5420 C   0  0  0  0  0  2  0  0  0  0  0  0
  190.7830  176.4350  146.8400 C   0  0  0  0  0  3  0  0  0  0  0  0
  183.6570  176.5170  138.1190 C   0  0  0  0  0  2  0  0  0  0  0  0
  186.9810  179.3350  136.7830 O   0  0  0  0  0  0  0  0  0  0  0  0
  185.9420  175.6870  136.4190 C   0  0  0  0  0  3  0  0  0  0  0  0
  187.0030  175.1870  135.7740 C   0  0  0  0  0  0  0  0  0  0  0  0
  188.1220  177.9610  138.4890 O   0  0  0  0  0  0  0  0  0  0  0  0
  187.3930  177.9390  137.1730 S   0  0  0  0  0  0  0  0  0  0  0  0
  188.4360  177.2620  135.9060 C   0  0  0  0  0  2  0  0  0  0  0  0
  184.9470  177.2780  138.0090 C   0  0  0  0  0  3  0  0  0  0  0  0
  188.4000  175.7400  135.9830 C   0  0  2  0  0  3  0  0  0  0  0  0
  186.7360  173.7710  134.7720 Cl  0  0  0  0  0  0  0  0  0  0  0  0
  185.9880  176.8960  137.2670 C   0  0  0  0  0  0  0  0  0  0  0  0
  189.3390  175.1900  135.0200 N   0  0  0  0  0  2  0  0  0  0  0  0
  190.8140  172.8310  134.9180 O   0  0  0  0  0  0  0  0  0  0  0  0
  191.2590  173.7670  135.6390 C   0  0  0  0  0  0  0  0  0  0  0  0
  190.5510  175.0080  135.7010 N   0  0  0  0  0  2  0  0  0  0  0  0
  194.5530  172.2760  136.7280 C   0  0  0  0  0  0  0  0  0  0  0  0
  196.3250  173.0140  138.3340 C   0  0  0  0  0  1  0  0  0  0  0  0
  195.2930  171.1820  136.4270 F   0  0  0  0  0  0  0  0  0  0  0  0
  194.2280  174.3360  137.9600 C   0  0  0  0  0  0  0  0  0  0  0  0
  193.3260  172.4680  136.0920 C   0  0  0  0  0  3  0  0  0  0  0  0
  193.0020  174.5350  137.3160 C   0  0  0  0  0  0  0  0  0  0  0  0
  192.2710  175.6370  137.6280 F   0  0  0  0  0  0  0  0  0  0  0  0
  195.0080  173.2090  137.6640 C   0  0  0  0  0  0  0  0  0  0  0  0
  194.6560  175.2440  138.8730 F   0  0  0  0  0  0  0  0  0  0  0  0
  192.5380  173.5940  136.3690 C   0  0  0  0  0  0  0  0  0  0  0  0
  1  3  1  0  0  0  0
  1  2  2  0  0  0  0
  2 13  1  0  0  0  0
  4  9  1  0  0  0  0
  4  3  1  0  0  0  0
  5  9  2  0  0  0  0
  6  4  2  0  0  0  0
  7  8  2  0  0  0  0
  7  6  1  0  0  0  0
  8  5  1  0  0  0  0
 11 12  1  0  0  0  0
 11 10  1  0  0  0  0
 12 10  1  0  0  0  0
 12  8  1  0  0  0  0
 13 15  1  0  0  0  0
 14 13  2  0  0  0  0
 15 16  1  0  0  0  0
 16 19  1  0  0  0  0
 17 21  1  0  0  0  0
 18 19  1  0  0  0  0
 18 20  2  0  0  0  0
 19 17  2  0  0  0  0
 20 22  1  0  0  0  0
 22 21  2  0  0  0  0
 23 24  2  0  0  0  0
 24 26  1  0  0  0  0
 25 24  1  0  0  0  0
 25 20  1  0  0  0  0
 26 27  1  0  0  0  0
 27 31  1  0  0  0  0
 27 28  1  0  0  0  0
 29 27  1  0  0  0  0
 30 31  1  0  0  0  0
 31 35  1  0  0  0  0
 32 31  1  0  0  0  0
 33 34  1  0  0  0  0
 35 33  1  0  0  0  0
 35 34  1  0  0  0  0
 36  1  1  0  0  0  0
 37 41  2  0  0  0  0
 38 46  1  0  0  0  0
 39 44  1  0  0  0  0
 39 38  2  0  0  0  0
 41 46  1  0  0  0  0
 41 40  2  0  0  0  0
 42 44  1  0  0  0  0
 42 41  1  0  0  0  0
 43 36  1  0  0  0  0
 44 47  1  6  0  0  0
 45 39  1  0  0  0  0
 46 43  2  0  0  0  0
 47 50  1  0  0  0  0
 48 49  2  0  0  0  0
 49 50  1  0  0  0  0
 49 60  1  0  0  0  0
 51 58  1  0  0  0  0
 53 51  1  0  0  0  0
 54 59  1  0  0  0  0
 55 60  1  0  0  0  0
 55 51  2  0  0  0  0
 56 57  1  0  0  0  0
 56 54  1  0  0  0  0
 58 54  2  0  0  0  0
 58 52  1  0  0  0  0
 60 56  2  0  0  0  0
M  END
>  <MODEL>
4

>  <REMARK>
 VINA RESULT:      -7.3      2.496      3.998
  Name = 
  15 active torsions:
  status: ('A' for Active; 'I' for Inactive)
    1  A    between atoms: C_2  and  C_14
    2  A    between atoms: C_2  and  C_54
    3  A    between atoms: C_7  and  C_13
    4  A    between atoms: C_8  and  N_32
    5  A    between atoms: C_13  and  C_36
    6  A    between atoms: C_14  and  C_15
    7  A    between atoms: C_18  and  N_45
    8  A    between atoms: C_21  and  N_51
    9  A    between atoms: C_29  and  C_57
   10  A    between atoms: C_31  and  C_50
   11  A    between atoms: N_34  and  C_35
   12  A    between atoms: N_38  and  N_44
   13  A    between atoms: N_38  and  C_47
   14  A    between atoms: N_45  and  N_53
   15  A    between atoms: C_54  and  C_59
                            x       y       z     vdW  Elec       q    Type
                         _______ _______ _______ _____ _____    ______ ____

>  <TORSDO>
F 15

$$$$
=
 OpenBabel10222417423D

 60 65  0  0  1  0  0  0  0  0999 V2000
  190.3990  177.1490  139.2540 C   0  0  0  0  0  0  0  0  0  0  0  0
  189.5250  178.1030  139.4020 N   0  0  0  0  0  0  0  0  0  0  0  0
  190.8570  176.7680  137.9470 N   0  0  0  0  0  2  0  0  0  0  0  0
  191.9870  175.9420  137.6420 C   0  0  0  0  0  0  0  0  0  0  0  0
  194.3460  175.6480  137.1400 C   0  0  0  0  0  3  0  0  0  0  0  0
  191.7900  174.5670  137.4780 C   0  0  0  0  0  3  0  0  0  0  0  0
  192.8680  173.7300  137.1670 C   0  0  0  0  0  3  0  0  0  0  0  0
  194.1550  174.2640  137.0160 C   0  0  0  0  0  0  0  0  0  0  0  0
  193.2690  176.4780  137.4560 C   0  0  0  0  0  3  0  0  0  0  0  0
  195.7490  172.5800  137.8690 C   0  0  0  0  0  2  0  0  0  0  0  0
  196.5660  173.7530  137.3810 C   0  0  0  0  0  2  0  0  0  0  0  0
  195.2940  173.3610  136.6460 C   0  0  0  0  0  3  0  0  0  0  0  0
  188.9670  178.9390  138.3740 C   0  0  0  0  0  0  0  0  0  0  0  0
  189.4200  180.0910  138.1540 O   0  0  0  0  0  0  0  0  0  0  0  0
  187.8640  178.4630  137.6090 N   0  0  0  0  0  2  0  0  0  0  0  0
  187.3800  177.1610  137.7920 N   0  0  0  0  0  2  0  0  0  0  0  0
  185.8810  177.2500  135.8740 C   0  0  0  0  0  3  0  0  0  0  0  0
  186.6070  175.0930  136.7030 C   0  0  0  0  0  3  0  0  0  0  0  0
  186.6150  176.4930  136.7920 C   0  0  0  0  0  0  0  0  0  0  0  0
  185.8680  174.4490  135.7030 C   0  0  0  0  0  0  0  0  0  0  0  0
  185.1450  176.6160  134.8710 C   0  0  0  0  0  3  0  0  0  0  0  0
  185.1440  175.2220  134.7820 C   0  0  0  0  0  3  0  0  0  0  0  0
  184.9960  170.8900  135.8010 O   0  0  0  0  0  0  0  0  0  0  0  0
  184.9740  172.0870  136.1890 C   0  0  0  0  0  0  0  0  0  0  0  0
  185.9100  173.0170  135.6260 N   0  0  0  0  0  2  0  0  0  0  0  0
  183.9730  172.4980  137.2310 C   0  0  0  0  0  2  0  0  0  0  0  0
  182.5630  172.8240  136.7000 C   0  0  0  0  0  0  0  0  0  0  0  0
  181.5660  171.7950  137.2250 C   0  0  0  0  0  1  0  0  0  0  0  0
  182.6330  172.6490  135.1890 C   0  0  0  0  0  1  0  0  0  0  0  0
  181.8740  174.9930  135.8660 O   0  0  0  0  0  1  0  0  0  0  0  0
  182.1050  174.2740  137.0490 C   0  0  0  0  0  0  0  0  0  0  0  0
  180.9070  174.2180  137.7700 O   0  0  0  0  0  1  0  0  0  0  0  0
  182.9640  176.4880  138.0180 C   0  0  0  0  0  2  0  0  0  0  0  0
  182.5400  175.6110  139.1770 C   0  0  0  0  0  2  0  0  0  0  0  0
  183.1590  174.9850  137.9440 C   0  0  0  0  0  3  0  0  0  0  0  0
  190.8410  176.3810  140.4700 C   0  0  0  0  0  2  0  0  0  0  0  0
  192.0430  177.9960  144.5590 O   0  0  0  0  0  0  0  0  0  0  0  0
  188.9490  176.7350  142.7270 C   0  0  0  0  0  3  0  0  0  0  0  0
  187.9980  176.9930  143.6340 C   0  0  0  0  0  0  0  0  0  0  0  0
  190.8020  179.9000  143.5960 O   0  0  0  0  0  0  0  0  0  0  0  0
  190.7180  178.4570  144.0130 S   0  0  0  0  0  0  0  0  0  0  0  0
  189.4680  178.2510  145.2570 C   0  0  0  0  0  2  0  0  0  0  0  0
  191.0950  177.2710  141.6520 C   0  0  0  0  0  3  0  0  0  0  0  0
  188.1000  178.1670  144.5880 C   0  0  2  0  0  3  0  0  0  0  0  0
  186.5560  175.9940  143.5870 Cl  0  0  0  0  0  0  0  0  0  0  0  0
  190.2370  177.4550  142.6580 C   0  0  0  0  0  0  0  0  0  0  0  0
  187.0710  178.1110  145.6130 N   0  0  0  0  0  2  0  0  0  0  0  0
  185.5350  180.2440  144.6960 O   0  0  0  0  0  0  0  0  0  0  0  0
  185.0820  179.0790  144.5170 C   0  0  0  0  0  0  0  0  0  0  0  0
  185.8490  177.9500  144.9450 N   0  0  0  0  0  2  0  0  0  0  0  0
  181.3700  178.6770  143.9540 C   0  0  0  0  0  0  0  0  0  0  0  0
  179.9600  178.4400  141.9000 C   0  0  0  0  0  1  0  0  0  0  0  0
  180.2520  178.6290  144.7170 F   0  0  0  0  0  0  0  0  0  0  0  0
  182.4570  178.6340  141.7900 C   0  0  0  0  0  0  0  0  0  0  0  0
  182.6130  178.8240  144.5710 C   0  0  0  0  0  3  0  0  0  0  0  0
  183.7040  178.7920  142.4060 C   0  0  0  0  0  0  0  0  0  0  0  0
  184.8160  178.8370  141.6270 F   0  0  0  0  0  0  0  0  0  0  0  0
  181.2880  178.5820  142.5620 C   0  0  0  0  0  0  0  0  0  0  0  0
  182.3900  178.5340  140.4380 F   0  0  0  0  0  0  0  0  0  0  0  0
  183.7910  178.8880  143.8140 C   0  0  0  0  0  0  0  0  0  0  0  0
  1  2  2  0  0  0  0
  1 36  1  0  0  0  0
  3  1  1  0  0  0  0
  4  3  1  0  0  0  0
  5  9  1  0  0  0  0
  6  4  1  0  0  0  0
  7  6  2  0  0  0  0
  8  5  2  0  0  0  0
  8  7  1  0  0  0  0
  9  4  2  0  0  0  0
 11 10  1  0  0  0  0
 12  8  1  0  0  0  0
 12 11  1  0  0  0  0
 12 10  1  0  0  0  0
 13  2  1  0  0  0  0
 14 13  2  0  0  0  0
 15 16  1  0  0  0  0
 15 13  1  0  0  0  0
 17 19  1  0  0  0  0
 18 19  2  0  0  0  0
 19 16  1  0  0  0  0
 20 18  1  0  0  0  0
 21 17  2  0  0  0  0
 22 21  1  0  0  0  0
 22 20  2  0  0  0  0
 23 24  2  0  0  0  0
 24 26  1  0  0  0  0
 25 20  1  0  0  0  0
 25 24  1  0  0  0  0
 27 31  1  0  0  0  0
 27 28  1  0  0  0  0
 27 26  1  0  0  0  0
 29 27  1  0  0  0  0
 30 31  1  0  0  0  0
 31 32  1  0  0  0  0
 31 35  1  0  0  0  0
 33 34  1  0  0  0  0
 35 33  1  0  0  0  0
 35 34  1  0  0  0  0
 36 43  1  0  0  0  0
 38 39  2  0  0  0  0
 39 44  1  0  0  0  0
 40 41  2  0  0  0  0
 41 37  2  0  0  0  0
 41 42  1  0  0  0  0
 43 46  2  0  0  0  0
 44 42  1  0  0  0  0
 44 47  1  1  0  0  0
 45 39  1  0  0  0  0
 46 38  1  0  0  0  0
 46 41  1  0  0  0  0
 49 48  2  0  0  0  0
 49 50  1  0  0  0  0
 50 47  1  0  0  0  0
 51 55  1  0  0  0  0
 51 53  1  0  0  0  0
 52 58  1  0  0  0  0
 54 56  2  0  0  0  0
 54 58  1  0  0  0  0
 56 60  1  0  0  0  0
 57 56  1  0  0  0  0
 58 51  2  0  0  0  0
 59 54  1  0  0  0  0
 60 49  1  0  0  0  0
 60 55  2  0  0  0  0
M  END
>  <MODEL>
5

>  <REMARK>
 VINA RESULT:      -7.3      4.358     11.440
  Name = 
  15 active torsions:
  status: ('A' for Active; 'I' for Inactive)
    1  A    between atoms: C_2  and  C_14
    2  A    between atoms: C_2  and  C_54
    3  A    between atoms: C_7  and  C_13
    4  A    between atoms: C_8  and  N_32
    5  A    between atoms: C_13  and  C_36
    6  A    between atoms: C_14  and  C_15
    7  A    between atoms: C_18  and  N_45
    8  A    between atoms: C_21  and  N_51
    9  A    between atoms: C_29  and  C_57
   10  A    between atoms: C_31  and  C_50
   11  A    between atoms: N_34  and  C_35
   12  A    between atoms: N_38  and  N_44
   13  A    between atoms: N_38  and  C_47
   14  A    between atoms: N_45  and  N_53
   15  A    between atoms: C_54  and  C_59
                            x       y       z     vdW  Elec       q    Type
                         _______ _______ _______ _____ _____    ______ ____

>  <TORSDO>
F 15

$$$$
=
 OpenBabel10222417423D

 60 65  0  0  1  0  0  0  0  0999 V2000
  183.4020  178.7520  141.7710 C   0  0  0  0  0  0  0  0  0  0  0  0
  183.9700  178.7010  142.9420 N   0  0  0  0  0  0  0  0  0  0  0  0
  181.9720  178.7120  141.6470 N   0  0  0  0  0  2  0  0  0  0  0  0
  181.2040  179.0220  140.4770 C   0  0  0  0  0  0  0  0  0  0  0  0
  179.9060  178.3550  138.5340 C   0  0  0  0  0  3  0  0  0  0  0  0
  181.0670  180.3610  140.0970 C   0  0  0  0  0  3  0  0  0  0  0  0
  180.3360  180.7000  138.9540 C   0  0  0  0  0  3  0  0  0  0  0  0
  179.7350  179.7010  138.1770 C   0  0  0  0  0  0  0  0  0  0  0  0
  180.6310  178.0200  139.6790 C   0  0  0  0  0  3  0  0  0  0  0  0
  179.0840  178.9530  135.9140 C   0  0  0  0  0  2  0  0  0  0  0  0
  179.9230  180.1980  135.7430 C   0  0  0  0  0  2  0  0  0  0  0  0
  178.9850  180.0760  136.9340 C   0  0  0  0  0  3  0  0  0  0  0  0
  183.3200  178.6810  144.2240 C   0  0  0  0  0  0  0  0  0  0  0  0
  182.0740  178.5540  144.3210 O   0  0  0  0  0  0  0  0  0  0  0  0
  184.1020  178.8360  145.4050 N   0  0  0  0  0  2  0  0  0  0  0  0
  185.4980  178.9190  145.3290 N   0  0  0  0  0  2  0  0  0  0  0  0
  186.0330  179.2230  147.6850 C   0  0  0  0  0  3  0  0  0  0  0  0
  187.4310  177.7770  146.3380 C   0  0  0  0  0  3  0  0  0  0  0  0
  186.3320  178.6410  146.4510 C   0  0  0  0  0  0  0  0  0  0  0  0
  188.2320  177.4970  147.4520 C   0  0  0  0  0  0  0  0  0  0  0  0
  186.8220  178.9450  148.8030 C   0  0  0  0  0  3  0  0  0  0  0  0
  187.9130  178.0800  148.6880 C   0  0  0  0  0  3  0  0  0  0  0  0
  191.4810  175.9940  146.6600 O   0  0  0  0  0  0  0  0  0  0  0  0
  190.4860  176.7430  146.4710 C   0  0  0  0  0  0  0  0  0  0  0  0
  189.3290  176.5830  147.3030 N   0  0  0  0  0  2  0  0  0  0  0  0
  190.5450  177.7700  145.3770 C   0  0  0  0  0  2  0  0  0  0  0  0
  190.9040  177.2290  143.9800 C   0  0  0  0  0  0  0  0  0  0  0  0
  191.8290  176.0230  144.1180 C   0  0  0  0  0  1  0  0  0  0  0  0
  191.7040  178.3300  143.2960 C   0  0  0  0  0  1  0  0  0  0  0  0
  190.0240  176.0510  142.0530 O   0  0  0  0  0  1  0  0  0  0  0  0
  189.6480  176.8730  143.1260 C   0  0  0  0  0  0  0  0  0  0  0  0
  188.7350  176.1700  143.9190 O   0  0  0  0  0  1  0  0  0  0  0  0
  188.5550  178.1030  141.1580 C   0  0  0  0  0  2  0  0  0  0  0  0
  187.4990  177.9110  142.2250 C   0  0  0  0  0  2  0  0  0  0  0  0
  188.9380  178.1630  142.6240 C   0  0  0  0  0  3  0  0  0  0  0  0
  184.2740  178.7470  140.5460 C   0  0  0  0  0  2  0  0  0  0  0  0
  184.0450  174.7820  138.3090 O   0  0  0  0  0  0  0  0  0  0  0  0
  185.7460  178.1810  138.0330 C   0  0  0  0  0  3  0  0  0  0  0  0
  186.3320  178.0720  136.8340 C   0  0  0  0  0  0  0  0  0  0  0  0
  182.7160  176.2720  136.8580 O   0  0  0  0  0  0  0  0  0  0  0  0
  184.0690  176.0320  137.4690 S   0  0  0  0  0  0  0  0  0  0  0  0
  185.2940  175.8590  136.1970 C   0  0  0  0  0  2  0  0  0  0  0  0
  183.9140  177.6500  139.5850 C   0  0  0  0  0  3  0  0  0  0  0  0
  185.7240  177.2420  135.7190 C   0  0  2  0  0  3  0  0  0  0  0  0
  187.7700  179.0380  136.5550 Cl  0  0  0  0  0  0  0  0  0  0  0  0
  184.5550  177.4070  138.4410 C   0  0  0  0  0  0  0  0  0  0  0  0
  186.6430  177.0970  134.6020 N   0  0  0  0  0  2  0  0  0  0  0  0
  189.3780  177.5750  134.8010 O   0  0  0  0  0  0  0  0  0  0  0  0
  188.9720  176.4030  135.0340 C   0  0  0  0  0  0  0  0  0  0  0  0
  187.5720  176.1160  134.9720 N   0  0  0  0  0  2  0  0  0  0  0  0
  190.6660  173.0340  135.2350 C   0  0  0  0  0  0  0  0  0  0  0  0
  192.7280  172.2140  136.3930 C   0  0  0  0  0  1  0  0  0  0  0  0
  190.4710  171.7950  134.7230 F   0  0  0  0  0  0  0  0  0  0  0  0
  191.9400  174.5870  136.5880 C   0  0  0  0  0  0  0  0  0  0  0  0
  189.7640  174.0530  134.9230 C   0  0  0  0  0  3  0  0  0  0  0  0
  191.0430  175.6120  136.2680 C   0  0  0  0  0  0  0  0  0  0  0  0
  191.2510  176.8490  136.7900 F   0  0  0  0  0  0  0  0  0  0  0  0
  191.7560  173.2970  136.0690 C   0  0  0  0  0  0  0  0  0  0  0  0
  192.9910  174.8520  137.4060 F   0  0  0  0  0  0  0  0  0  0  0  0
  189.9390  175.3500  135.4250 C   0  0  0  0  0  0  0  0  0  0  0  0
  1  2  2  0  0  0  0
  2 13  1  0  0  0  0
  3  1  1  0  0  0  0
  4  3  1  0  0  0  0
  5  9  1  0  0  0  0
  6  4  1  0  0  0  0
  7  6  2  0  0  0  0
  8  5  2  0  0  0  0
  8  7  1  0  0  0  0
  9  4  2  0  0  0  0
 10 12  1  0  0  0  0
 11 10  1  0  0  0  0
 11 12  1  0  0  0  0
 12  8  1  0  0  0  0
 13 14  2  0  0  0  0
 13 15  1  0  0  0  0
 16 15  1  0  0  0  0
 16 19  1  0  0  0  0
 17 21  1  0  0  0  0
 18 19  1  0  0  0  0
 18 20  2  0  0  0  0
 19 17  2  0  0  0  0
 20 22  1  0  0  0  0
 22 21  2  0  0  0  0
 24 23  2  0  0  0  0
 24 25  1  0  0  0  0
 25 20  1  0  0  0  0
 26 24  1  0  0  0  0
 27 28  1  0  0  0  0
 27 26  1  0  0  0  0
 29 27  1  0  0  0  0
 30 31  1  0  0  0  0
 31 32  1  0  0  0  0
 31 27  1  0  0  0  0
 33 34  1  0  0  0  0
 33 35  1  0  0  0  0
 34 35  1  0  0  0  0
 35 31  1  0  0  0  0
 36  1  1  0  0  0  0
 38 46  1  0  0  0  0
 39 38  2  0  0  0  0
 40 41  2  0  0  0  0
 41 37  2  0  0  0  0
 41 46  1  0  0  0  0
 42 41  1  0  0  0  0
 43 36  1  0  0  0  0
 44 47  1  6  0  0  0
 44 42  1  0  0  0  0
 44 39  1  0  0  0  0
 45 39  1  0  0  0  0
 46 43  2  0  0  0  0
 47 50  1  0  0  0  0
 48 49  2  0  0  0  0
 49 60  1  0  0  0  0
 50 49  1  0  0  0  0
 51 58  1  0  0  0  0
 53 51  1  0  0  0  0
 54 59  1  0  0  0  0
 55 51  2  0  0  0  0
 55 60  1  0  0  0  0
 56 54  1  0  0  0  0
 56 57  1  0  0  0  0
 58 52  1  0  0  0  0
 58 54  2  0  0  0  0
 60 56  2  0  0  0  0
M  END
>  <MODEL>
6

>  <REMARK>
 VINA RESULT:      -7.0      2.326      3.594
  Name = 
  15 active torsions:
  status: ('A' for Active; 'I' for Inactive)
    1  A    between atoms: C_2  and  C_14
    2  A    between atoms: C_2  and  C_54
    3  A    between atoms: C_7  and  C_13
    4  A    between atoms: C_8  and  N_32
    5  A    between atoms: C_13  and  C_36
    6  A    between atoms: C_14  and  C_15
    7  A    between atoms: C_18  and  N_45
    8  A    between atoms: C_21  and  N_51
    9  A    between atoms: C_29  and  C_57
   10  A    between atoms: C_31  and  C_50
   11  A    between atoms: N_34  and  C_35
   12  A    between atoms: N_38  and  N_44
   13  A    between atoms: N_38  and  C_47
   14  A    between atoms: N_45  and  N_53
   15  A    between atoms: C_54  and  C_59
                            x       y       z     vdW  Elec       q    Type
                         _______ _______ _______ _____ _____    ______ ____

>  <TORSDO>
F 15

$$$$
=
 OpenBabel10222417423D

 60 65  0  0  1  0  0  0  0  0999 V2000
  182.4000  178.0630  140.8160 C   0  0  0  0  0  0  0  0  0  0  0  0
  182.9730  177.9970  141.9830 N   0  0  0  0  0  0  0  0  0  0  0  0
  181.4740  179.1180  140.5110 N   0  0  0  0  0  2  0  0  0  0  0  0
  180.9780  179.4750  139.2150 C   0  0  0  0  0  0  0  0  0  0  0  0
  179.4880  179.1260  137.3270 C   0  0  0  0  0  3  0  0  0  0  0  0
  181.5850  180.5310  138.5280 C   0  0  0  0  0  3  0  0  0  0  0  0
  181.1350  180.8990  137.2560 C   0  0  0  0  0  3  0  0  0  0  0  0
  180.0710  180.2110  136.6570 C   0  0  0  0  0  0  0  0  0  0  0  0
  179.9360  178.7650  138.5990 C   0  0  0  0  0  3  0  0  0  0  0  0
  180.3720  181.8330  134.8180 C   0  0  0  0  0  2  0  0  0  0  0  0
  178.9370  181.9490  135.2770 C   0  0  0  0  0  2  0  0  0  0  0  0
  179.6230  180.5920  135.2770 C   0  0  0  0  0  3  0  0  0  0  0  0
  182.8590  178.9390  143.0630 C   0  0  0  0  0  0  0  0  0  0  0  0
  181.8130  179.6160  143.2290 O   0  0  0  0  0  0  0  0  0  0  0  0
  183.9620  179.1280  143.9440 N   0  0  0  0  0  2  0  0  0  0  0  0
  185.1160  178.3440  143.8190 N   0  0  0  0  0  2  0  0  0  0  0  0
  185.7080  178.6680  146.1590 C   0  0  0  0  0  3  0  0  0  0  0  0
  187.2760  177.5490  144.6920 C   0  0  0  0  0  3  0  0  0  0  0  0
  186.0440  178.1900  144.8900 C   0  0  0  0  0  0  0  0  0  0  0  0
  188.1710  177.3870  145.7570 C   0  0  0  0  0  0  0  0  0  0  0  0
  186.5920  178.5060  147.2280 C   0  0  0  0  0  3  0  0  0  0  0  0
  187.8160  177.8630  147.0280 C   0  0  0  0  0  3  0  0  0  0  0  0
  191.2560  176.1050  144.2470 O   0  0  0  0  0  0  0  0  0  0  0  0
  190.0530  176.4760  144.2590 C   0  0  0  0  0  0  0  0  0  0  0  0
  189.4080  176.6990  145.5210 N   0  0  0  0  0  2  0  0  0  0  0  0
  189.3350  176.6650  142.9540 C   0  0  0  0  0  2  0  0  0  0  0  0
  189.8200  177.8520  142.0990 C   0  0  0  0  0  0  0  0  0  0  0  0
  190.7870  178.7090  142.9100 C   0  0  0  0  0  1  0  0  0  0  0  0
  188.5870  178.7040  141.8270 C   0  0  0  0  0  1  0  0  0  0  0  0
  191.7850  177.8780  140.6810 O   0  0  0  0  0  1  0  0  0  0  0  0
  190.4670  177.4030  140.7520 C   0  0  0  0  0  0  0  0  0  0  0  0
  190.4990  176.0060  140.6980 O   0  0  0  0  0  1  0  0  0  0  0  0
  190.1290  177.3840  138.2080 C   0  0  0  0  0  2  0  0  0  0  0  0
  188.8990  176.7700  138.8420 C   0  0  0  0  0  2  0  0  0  0  0  0
  189.6240  177.9010  139.5420 C   0  0  0  0  0  3  0  0  0  0  0  0
  182.6440  176.9540  139.8290 C   0  0  0  0  0  2  0  0  0  0  0  0
  184.0050  178.2000  135.6620 O   0  0  0  0  0  0  0  0  0  0  0  0
  183.9110  175.1070  137.8850 C   0  0  0  0  0  3  0  0  0  0  0  0
  184.6010  174.2380  137.1350 C   0  0  0  0  0  0  0  0  0  0  0  0
  186.1520  177.9570  136.8560 O   0  0  0  0  0  0  0  0  0  0  0  0
  184.9020  177.2490  136.4100 S   0  0  0  0  0  0  0  0  0  0  0  0
  185.3150  175.8820  135.3560 C   0  0  0  0  0  2  0  0  0  0  0  0
  183.4610  177.4000  138.6510 C   0  0  0  0  0  3  0  0  0  0  0  0
  185.7180  174.6880  136.2140 C   0  0  2  0  0  3  0  0  0  0  0  0
  184.2510  172.5330  137.3600 Cl  0  0  0  0  0  0  0  0  0  0  0  0
  184.0550  176.5740  137.7880 C   0  0  0  0  0  0  0  0  0  0  0  0
  186.1630  173.6070  135.3500 N   0  0  0  0  0  2  0  0  0  0  0  0
  187.7840  171.3590  135.0950 O   0  0  0  0  0  0  0  0  0  0  0  0
  188.3540  172.4790  135.2170 C   0  0  0  0  0  0  0  0  0  0  0  0
  187.5630  173.6650  135.3220 N   0  0  0  0  0  2  0  0  0  0  0  0
  191.9670  171.4160  134.9370 C   0  0  0  0  0  0  0  0  0  0  0  0
  194.1340  172.6670  134.9920 C   0  0  0  0  0  1  0  0  0  0  0  0
  192.6470  170.2620  134.7400 F   0  0  0  0  0  0  0  0  0  0  0  0
  191.9230  173.8140  135.2760 C   0  0  0  0  0  0  0  0  0  0  0  0
  190.5730  171.3860  135.0010 C   0  0  0  0  0  3  0  0  0  0  0  0
  190.5250  173.7870  135.3300 C   0  0  0  0  0  0  0  0  0  0  0  0
  189.8570  174.9530  135.5290 F   0  0  0  0  0  0  0  0  0  0  0  0
  192.6460  172.6300  135.0740 C   0  0  0  0  0  0  0  0  0  0  0  0
  192.5730  174.9970  135.4200 F   0  0  0  0  0  0  0  0  0  0  0  0
  189.8340  172.5620  135.1920 C   0  0  0  0  0  0  0  0  0  0  0  0
  1  2  2  0  0  0  0
  2 13  1  0  0  0  0
  3  1  1  0  0  0  0
  4  3  1  0  0  0  0
  5  9  2  0  0  0  0
  6  4  2  0  0  0  0
  7  6  1  0  0  0  0
  8  7  2  0  0  0  0
  8  5  1  0  0  0  0
  9  4  1  0  0  0  0
 10 11  1  0  0  0  0
 10 12  1  0  0  0  0
 11 12  1  0  0  0  0
 12  8  1  0  0  0  0
 13 14  2  0  0  0  0
 13 15  1  0  0  0  0
 16 15  1  0  0  0  0
 16 19  1  0  0  0  0
 17 21  1  0  0  0  0
 18 19  1  0  0  0  0
 18 20  2  0  0  0  0
 19 17  2  0  0  0  0
 20 22  1  0  0  0  0
 22 21  2  0  0  0  0
 23 24  2  0  0  0  0
 24 25  1  0  0  0  0
 25 20  1  0  0  0  0
 26 24  1  0  0  0  0
 27 28  1  0  0  0  0
 27 26  1  0  0  0  0
 29 27  1  0  0  0  0
 30 31  1  0  0  0  0
 31 27  1  0  0  0  0
 32 31  1  0  0  0  0
 33 34  1  0  0  0  0
 33 35  1  0  0  0  0
 34 35  1  0  0  0  0
 35 31  1  0  0  0  0
 36  1  1  0  0  0  0
 37 41  2  0  0  0  0
 39 45  1  0  0  0  0
 39 38  2  0  0  0  0
 41 40  2  0  0  0  0
 41 46  1  0  0  0  0
 42 44  1  0  0  0  0
 42 41  1  0  0  0  0
 43 36  1  0  0  0  0
 44 47  1  6  0  0  0
 44 39  1  0  0  0  0
 46 38  1  0  0  0  0
 46 43  2  0  0  0  0
 48 49  2  0  0  0  0
 49 50  1  0  0  0  0
 50 47  1  0  0  0  0
 51 55  2  0  0  0  0
 51 58  1  0  0  0  0
 52 58  1  0  0  0  0
 53 51  1  0  0  0  0
 54 56  1  0  0  0  0
 54 59  1  0  0  0  0
 55 60  1  0  0  0  0
 56 57  1  0  0  0  0
 58 54  2  0  0  0  0
 60 49  1  0  0  0  0
 60 56  2  0  0  0  0
M  END
>  <MODEL>
7

>  <REMARK>
 VINA RESULT:      -6.8      1.956      3.154
  Name = 
  15 active torsions:
  status: ('A' for Active; 'I' for Inactive)
    1  A    between atoms: C_2  and  C_14
    2  A    between atoms: C_2  and  C_54
    3  A    between atoms: C_7  and  C_13
    4  A    between atoms: C_8  and  N_32
    5  A    between atoms: C_13  and  C_36
    6  A    between atoms: C_14  and  C_15
    7  A    between atoms: C_18  and  N_45
    8  A    between atoms: C_21  and  N_51
    9  A    between atoms: C_29  and  C_57
   10  A    between atoms: C_31  and  C_50
   11  A    between atoms: N_34  and  C_35
   12  A    between atoms: N_38  and  N_44
   13  A    between atoms: N_38  and  C_47
   14  A    between atoms: N_45  and  N_53
   15  A    between atoms: C_54  and  C_59
                            x       y       z     vdW  Elec       q    Type
                         _______ _______ _______ _____ _____    ______ ____

>  <TORSDO>
F 15

$$$$
=
 OpenBabel10222417423D

 60 65  0  0  1  0  0  0  0  0999 V2000
  184.4610  176.0190  136.9850 C   0  0  0  0  0  0  0  0  0  0  0  0
  185.5870  176.6740  137.0120 N   0  0  0  0  0  0  0  0  0  0  0  0
  183.6800  175.9520  135.7810 N   0  0  0  0  0  2  0  0  0  0  0  0
  182.5810  175.0700  135.5210 C   0  0  0  0  0  0  0  0  0  0  0  0
  181.6830  172.9270  134.8090 C   0  0  0  0  0  3  0  0  0  0  0  0
  181.2780  175.5540  135.6750 C   0  0  0  0  0  3  0  0  0  0  0  0
  180.1810  174.7260  135.4170 C   0  0  0  0  0  3  0  0  0  0  0  0
  180.3770  173.4020  135.0020 C   0  0  0  0  0  0  0  0  0  0  0  0
  182.7760  173.7550  135.0720 C   0  0  0  0  0  3  0  0  0  0  0  0
  178.9340  171.5870  135.8530 C   0  0  0  0  0  2  0  0  0  0  0  0
  179.5920  171.0730  134.5940 C   0  0  0  0  0  2  0  0  0  0  0  0
  179.1920  172.5370  134.6940 C   0  0  0  0  0  3  0  0  0  0  0  0
  186.2430  177.3240  135.9110 C   0  0  0  0  0  0  0  0  0  0  0  0
  186.6240  178.5190  135.9930 O   0  0  0  0  0  0  0  0  0  0  0  0
  186.4380  176.6090  134.6950 N   0  0  0  0  0  2  0  0  0  0  0  0
  186.0770  175.2600  134.5960 N   0  0  0  0  0  2  0  0  0  0  0  0
  186.4280  172.9330  135.2240 C   0  0  0  0  0  3  0  0  0  0  0  0
  188.3180  174.4460  135.2120 C   0  0  0  0  0  3  0  0  0  0  0  0
  186.9480  174.2130  135.0200 C   0  0  0  0  0  0  0  0  0  0  0  0
  189.1660  173.4050  135.6090 C   0  0  0  0  0  0  0  0  0  0  0  0
  187.2680  171.8880  135.6150 C   0  0  0  0  0  3  0  0  0  0  0  0
  188.6320  172.1220  135.8010 C   0  0  0  0  0  3  0  0  0  0  0  0
  192.4630  174.2250  136.9880 O   0  0  0  0  0  0  0  0  0  0  0  0
  191.2120  174.3110  136.8780 C   0  0  0  0  0  0  0  0  0  0  0  0
  190.5680  173.6770  135.7650 N   0  0  0  0  0  2  0  0  0  0  0  0
  190.4400  175.0800  137.9120 C   0  0  0  0  0  2  0  0  0  0  0  0
  190.6540  176.6060  137.8960 C   0  0  0  0  0  0  0  0  0  0  0  0
  190.4240  177.1430  136.4860 C   0  0  0  0  0  1  0  0  0  0  0  0
  192.1250  176.8270  138.2240 C   0  0  0  0  0  1  0  0  0  0  0  0
  189.3450  178.5840  138.3950 O   0  0  0  0  0  1  0  0  0  0  0  0
  189.7580  177.3550  138.9310 C   0  0  0  0  0  0  0  0  0  0  0  0
  188.6210  176.5860  139.1970 O   0  0  0  0  0  1  0  0  0  0  0  0
  189.5970  177.8790  141.4370 C   0  0  0  0  0  2  0  0  0  0  0  0
  190.1720  176.4860  141.2930 C   0  0  0  0  0  2  0  0  0  0  0  0
  190.5160  177.5530  140.2750 C   0  0  0  0  0  3  0  0  0  0  0  0
  183.9410  175.4250  138.2650 C   0  0  0  0  0  2  0  0  0  0  0  0
  180.9030  178.6950  139.1850 O   0  0  0  0  0  0  0  0  0  0  0  0
  184.2930  177.4520  140.4020 C   0  0  0  0  0  3  0  0  0  0  0  0
  184.4750  178.2290  141.4770 C   0  0  0  0  0  0  0  0  0  0  0  0
  180.6000  177.1560  141.0920 O   0  0  0  0  0  0  0  0  0  0  0  0
  181.5740  178.0430  140.3660 S   0  0  0  0  0  0  0  0  0  0  0  0
  182.1880  179.3010  141.4580 C   0  0  0  0  0  2  0  0  0  0  0  0
  182.8200  176.2270  138.8600 C   0  0  0  0  0  3  0  0  0  0  0  0
  183.3100  178.7220  142.3130 C   0  0  2  0  0  3  0  0  0  0  0  0
  186.1310  178.5490  141.9630 Cl  0  0  0  0  0  0  0  0  0  0  0  0
  182.9680  177.1210  139.8390 C   0  0  0  0  0  0  0  0  0  0  0  0
  183.7340  179.7190  143.2820 N   0  0  0  0  0  2  0  0  0  0  0  0
  183.9160  178.8130  145.9080 O   0  0  0  0  0  0  0  0  0  0  0  0
  184.9720  178.8130  145.2160 C   0  0  0  0  0  0  0  0  0  0  0  0
  184.9220  179.2430  143.8530 N   0  0  0  0  0  2  0  0  0  0  0  0
  188.4280  177.3100  145.4460 C   0  0  0  0  0  0  0  0  0  0  0  0
  190.0100  176.9210  147.3470 C   0  0  0  0  0  1  0  0  0  0  0  0
  189.3430  176.7930  144.5910 F   0  0  0  0  0  0  0  0  0  0  0  0
  187.7400  177.9310  147.6840 C   0  0  0  0  0  0  0  0  0  0  0  0
  187.2060  177.7630  144.9480 C   0  0  0  0  0  3  0  0  0  0  0  0
  186.5170  178.3960  147.1850 C   0  0  0  0  0  0  0  0  0  0  0  0
  185.6100  178.9100  148.0560 F   0  0  0  0  0  0  0  0  0  0  0  0
  188.6990  177.3920  146.8150 C   0  0  0  0  0  0  0  0  0  0  0  0
  187.9880  178.0080  149.0160 F   0  0  0  0  0  0  0  0  0  0  0  0
  186.2390  178.3140  145.8010 C   0  0  0  0  0  0  0  0  0  0  0  0
  1  2  2  0  0  0  0
  1 36  1  0  0  0  0
  3  1  1  0  0  0  0
  4  6  1  0  0  0  0
  4  3  1  0  0  0  0
  5  8  2  0  0  0  0
  5  9  1  0  0  0  0
  7  6  2  0  0  0  0
  8  7  1  0  0  0  0
  9  4  2  0  0  0  0
 11 12  1  0  0  0  0
 11 10  1  0  0  0  0
 12  8  1  0  0  0  0
 12 10  1  0  0  0  0
 13 14  2  0  0  0  0
 13  2  1  0  0  0  0
 15 13  1  0  0  0  0
 16 15  1  0  0  0  0
 16 19  1  0  0  0  0
 17 21  1  0  0  0  0
 18 20  2  0  0  0  0
 19 18  1  0  0  0  0
 19 17  2  0  0  0  0
 20 25  1  0  0  0  0
 20 22  1  0  0  0  0
 21 22  2  0  0  0  0
 24 23  2  0  0  0  0
 24 26  1  0  0  0  0
 25 24  1  0  0  0  0
 27 26  1  0  0  0  0
 27 29  1  0  0  0  0
 27 31  1  0  0  0  0
 28 27  1  0  0  0  0
 30 31  1  0  0  0  0
 31 32  1  0  0  0  0
 31 35  1  0  0  0  0
 34 33  1  0  0  0  0
 35 34  1  0  0  0  0
 35 33  1  0  0  0  0
 36 43  1  0  0  0  0
 37 41  2  0  0  0  0
 38 39  2  0  0  0  0
 39 45  1  0  0  0  0
 39 44  1  0  0  0  0
 41 40  2  0  0  0  0
 41 42  1  0  0  0  0
 42 44  1  0  0  0  0
 43 46  2  0  0  0  0
 44 47  1  1  0  0  0
 46 41  1  0  0  0  0
 46 38  1  0  0  0  0
 47 50  1  0  0  0  0
 49 60  1  0  0  0  0
 49 48  2  0  0  0  0
 50 49  1  0  0  0  0
 51 58  1  0  0  0  0
 53 51  1  0  0  0  0
 54 59  1  0  0  0  0
 55 51  2  0  0  0  0
 55 60  1  0  0  0  0
 56 54  1  0  0  0  0
 56 57  1  0  0  0  0
 58 52  1  0  0  0  0
 58 54  2  0  0  0  0
 60 56  2  0  0  0  0
M  END
>  <MODEL>
8

>  <REMARK>
 VINA RESULT:      -6.4      3.965      8.649
  Name = 
  15 active torsions:
  status: ('A' for Active; 'I' for Inactive)
    1  A    between atoms: C_2  and  C_14
    2  A    between atoms: C_2  and  C_54
    3  A    between atoms: C_7  and  C_13
    4  A    between atoms: C_8  and  N_32
    5  A    between atoms: C_13  and  C_36
    6  A    between atoms: C_14  and  C_15
    7  A    between atoms: C_18  and  N_45
    8  A    between atoms: C_21  and  N_51
    9  A    between atoms: C_29  and  C_57
   10  A    between atoms: C_31  and  C_50
   11  A    between atoms: N_34  and  C_35
   12  A    between atoms: N_38  and  N_44
   13  A    between atoms: N_38  and  C_47
   14  A    between atoms: N_45  and  N_53
   15  A    between atoms: C_54  and  C_59
                            x       y       z     vdW  Elec       q    Type
                         _______ _______ _______ _____ _____    ______ ____

>  <TORSDO>
F 15

$$$$
