=
 OpenBabel10222420143D

 52 59  0  0  1  0  0  0  0  0999 V2000
  183.2250  177.7120  139.4440 N   0  0  2  0  0  0  0  0  0  0  0  0
  182.3070  179.4570  137.8580 C   0  0  0  0  0  2  0  0  0  0  0  0
  183.1250  179.1520  139.1170 C   0  0  2  0  0  3  0  0  0  0  0  0
  182.4670  176.8420  138.5280 C   0  0  0  0  0  2  0  0  0  0  0  0
  181.0110  177.3180  138.3270 C   0  0  2  0  0  3  0  0  0  0  0  0
  180.6550  177.7180  136.8860 C   0  0  1  0  0  3  0  0  0  0  0  0
  180.9270  178.7990  137.9440 C   0  0  2  0  0  3  0  0  0  0  0  0
  187.7780  178.5760  146.8110 C   0  0  1  0  0  3  0  0  0  0  0  0
  182.7590  177.4700  140.8170 C   0  0  1  0  0  3  0  0  0  0  0  0
  184.2660  178.5700  144.6580 C   0  0  0  0  0  0  0  0  0  0  0  0
  183.5210  178.7750  142.3630 C   0  0  2  0  0  3  0  0  0  0  0  0
  179.8660  178.0400  141.4530 O   0  0  0  0  0  1  0  0  0  0  0  0
  187.2490  177.0100  144.9810 C   0  0  0  0  0  2  0  0  0  0  0  0
  183.9550  177.4490  141.7640 C   0  0  0  0  0  2  0  0  0  0  0  0
  185.2870  178.4750  145.4630 C   0  0  0  0  0  0  0  0  0  0  0  0
  180.9610  178.4740  142.1920 C   0  0  0  0  0  0  0  0  0  0  0  0
  181.9400  179.1230  144.3730 C   0  0  0  0  0  2  0  0  0  0  0  0
  185.5730  179.5800  146.3840 C   0  0  0  0  0  3  0  0  0  0  0  0
  186.7140  179.6020  147.0610 C   0  0  0  0  0  3  0  0  0  0  0  0
  183.2550  178.6640  143.8390 C   0  0  0  0  0  0  0  0  0  0  0  0
  188.6210  178.5080  147.9050 F   0  0  0  0  0  0  0  0  0  0  0  0
  182.2650  178.7570  141.4770 C   0  0  2  0  0  3  0  0  0  0  0  0
  187.2280  177.1800  146.4890 C   0  0  2  0  0  3  0  0  0  0  0  0
  185.9160  177.1270  145.6860 C   0  0  2  0  0  3  0  0  0  0  0  0
  180.8260  178.6240  143.5090 C   0  0  0  0  0  3  0  0  0  0  0  0
  184.5230  179.7270  138.9660 C   0  0  0  0  0  2  0  0  0  0  0  0
  185.2790  178.9630  137.9860 N   0  0  0  0  0  2  0  0  0  0  0  0
  186.2710  178.1830  138.7110 C   0  0  0  0  0  2  0  0  0  0  0  0
  189.0270  175.9250  135.8200 C   0  0  0  0  0  1  0  0  0  0  0  0
  190.2680  175.3120  138.2700 O   0  0  0  0  0  0  0  0  0  0  0  0
  187.6460  178.3790  135.9160 O   0  0  0  0  0  0  0  0  0  0  0  0
  188.8710  176.7240  137.0270 N   0  0  0  0  0  0  0  0  0  0  0  0
  189.4670  177.2310  139.4160 C   0  0  0  0  0  0  0  0  0  0  0  0
  188.6320  178.2730  139.4250 C   0  0  0  0  0  3  0  0  0  0  0  0
  187.6830  178.5870  138.2990 C   0  0  1  0  0  3  0  0  0  0  0  0
  189.5590  176.3580  138.2310 C   0  0  0  0  0  0  0  0  0  0  0  0
  188.0710  177.9130  137.0100 C   0  0  0  0  0  0  0  0  0  0  0  0
  190.3010  176.9670  140.6210 C   0  0  0  0  0  2  0  0  0  0  0  0
  189.5200  177.1070  141.7690 O   0  0  0  0  0  1  0  0  0  0  0  0
  181.7800  177.4950  135.8500 C   0  0  1  0  0  3  0  0  0  0  0  0
  180.4020  175.4190  135.2160 C   0  0  0  0  0  1  0  0  0  0  0  0
  181.7600  176.1170  135.1670 C   0  0  2  0  0  3  0  0  0  0  0  0
  182.8570  175.2350  135.7620 C   0  0  2  0  0  3  0  0  0  0  0  0
  185.3210  175.5260  135.8800 C   0  0  0  0  0  2  0  0  0  0  0  0
  184.1380  175.3410  134.9480 C   0  0  0  0  0  3  0  0  0  0  0  0
  184.7370  176.7200  135.1510 C   0  0  0  0  0  2  0  0  0  0  0  0
  182.4380  173.9000  135.8380 O   0  0  0  0  0  0  0  0  0  0  0  0
  182.9160  173.4420  137.0690 C   0  0  0  0  0  2  0  0  0  0  0  0
  183.1320  171.9330  137.0130 C   0  0  0  0  0  2  0  0  0  0  0  0
  184.1920  171.5920  135.9700 C   0  0  0  0  0  1  0  0  0  0  0  0
  179.9870  179.0680  134.5940 C   0  0  0  0  0  1  0  0  0  0  0  0
  181.7900  178.8250  134.5940 S   0  0  0  0  0  0  0  0  0  0  0  0
  1  4  1  6  0  0  0
  1  9  1  0  0  0  0
  2  3  1  0  0  0  0
  3 26  1  6  0  0  0
  3  1  1  0  0  0  0
  5  4  1  6  0  0  0
  6 40  1  6  0  0  0
  6  7  1  0  0  0  0
  6  5  1  0  0  0  0
  7  2  1  6  0  0  0
  7  5  1  0  0  0  0
  8 19  1  0  0  0  0
  8 21  1  1  0  0  0
  9 22  1  0  0  0  0
  9 14  1  1  0  0  0
 10 15  2  0  0  0  0
 11 14  1  6  0  0  0
 11 20  1  0  0  0  0
 12 16  1  0  0  0  0
 15 24  1  0  0  0  0
 15 18  1  0  0  0  0
 16 25  2  0  0  0  0
 18 19  2  0  0  0  0
 20 17  1  0  0  0  0
 20 10  2  0  0  0  0
 22 16  1  1  0  0  0
 22 11  1  0  0  0  0
 23 13  1  6  0  0  0
 23  8  1  0  0  0  0
 24 13  1  6  0  0  0
 24 23  1  0  0  0  0
 25 17  1  0  0  0  0
 27 28  1  0  0  0  0
 27 26  1  0  0  0  0
 29 32  1  0  0  0  0
 31 37  2  0  0  0  0
 32 36  1  0  0  0  0
 33 34  2  0  0  0  0
 33 38  1  0  0  0  0
 35 28  1  1  0  0  0
 35 34  1  0  0  0  0
 36 30  2  0  0  0  0
 36 33  1  0  0  0  0
 37 32  1  0  0  0  0
 37 35  1  0  0  0  0
 38 39  1  0  0  0  0
 40 52  1  6  0  0  0
 42 41  1  1  0  0  0
 42 43  1  0  0  0  0
 42 40  1  0  0  0  0
 43 47  1  6  0  0  0
 45 46  1  0  0  0  0
 45 43  1  0  0  0  0
 45 44  1  0  0  0  0
 46 44  1  0  0  0  0
 47 48  1  0  0  0  0
 49 48  1  0  0  0  0
 50 49  1  0  0  0  0
 52 51  1  0  0  0  0
M  END
>  <MODEL>
1

>  <REMARK>
 VINA RESULT:      -5.8      0.000      0.000
  Name = 
  14 active torsions:
  status: ('A' for Active; 'I' for Inactive)
    1  A    between atoms: C_2  and  C_19
    2  A    between atoms: N_3  and  C_6
    3  A    between atoms: O_4  and  C_7
    4  A    between atoms: O_4  and  C_19
    5  A    between atoms: C_7  and  C_15
    6  A    between atoms: C_7  and  C_22
    7  A    between atoms: C_8  and  C_34
    8  A    between atoms: C_8  and  N_43
    9  A    between atoms: C_15  and  C_51
   10  A    between atoms: C_24  and  C_28
   11  A    between atoms: C_31  and  C_35
   12  A    between atoms: C_31  and  N_43
   13  A    between atoms: S_41  and  C_51
   14  A    between atoms: C_48  and  C_51
                            x       y       z     vdW  Elec       q    Type
                         _______ _______ _______ _____ _____    ______ ____

>  <TORSDO>
F 14

$$$$
=
 OpenBabel10222420143D

 52 59  0  0  1  0  0  0  0  0999 V2000
  184.5350  177.9370  139.3070 N   0  0  2  0  0  0  0  0  0  0  0  0
  182.7240  178.2360  137.5660 C   0  0  0  0  0  2  0  0  0  0  0  0
  184.0990  177.6610  137.9200 C   0  0  2  0  0  3  0  0  0  0  0  0
  183.5880  178.7670  140.0720 C   0  0  0  0  0  2  0  0  0  0  0  0
  183.1620  180.0390  139.3060 C   0  0  2  0  0  3  0  0  0  0  0  0
  181.6620  180.1250  138.9800 C   0  0  1  0  0  3  0  0  0  0  0  0
  182.6700  179.7320  137.8880 C   0  0  2  0  0  3  0  0  0  0  0  0
  191.0790  176.7580  144.9230 C   0  0  1  0  0  3  0  0  0  0  0  0
  185.8460  178.6010  139.3040 C   0  0  1  0  0  3  0  0  0  0  0  0
  189.5650  177.7470  141.2220 C   0  0  0  0  0  0  0  0  0  0  0  0
  187.5520  177.4210  139.9160 C   0  0  2  0  0  3  0  0  0  0  0  0
  187.0460  179.3570  136.6420 O   0  0  0  0  0  1  0  0  0  0  0  0
  188.9980  178.0260  144.5430 C   0  0  0  0  0  2  0  0  0  0  0  0
  186.5590  178.3260  140.6250 C   0  0  0  0  0  2  0  0  0  0  0  0
  190.1500  177.5810  142.3750 C   0  0  0  0  0  0  0  0  0  0  0  0
  187.6980  178.6740  137.6630 C   0  0  0  0  0  0  0  0  0  0  0  0
  189.7980  178.1190  138.8540 C   0  0  0  0  0  2  0  0  0  0  0  0
  191.2790  176.6500  142.4730 C   0  0  0  0  0  3  0  0  0  0  0  0
  191.7550  176.3060  143.6640 C   0  0  0  0  0  3  0  0  0  0  0  0
  188.9660  177.9070  140.0740 C   0  0  0  0  0  0  0  0  0  0  0  0
  191.9720  176.6940  145.9770 F   0  0  0  0  0  0  0  0  0  0  0  0
  186.8960  177.7670  138.5700 C   0  0  2  0  0  3  0  0  0  0  0  0
  190.4810  178.1690  144.8330 C   0  0  2  0  0  3  0  0  0  0  0  0
  189.9030  178.5840  143.4680 C   0  0  2  0  0  3  0  0  0  0  0  0
  189.0120  178.8440  137.8090 C   0  0  0  0  0  3  0  0  0  0  0  0
  184.0970  176.1590  137.6890 C   0  0  0  0  0  2  0  0  0  0  0  0
  184.3130  175.8650  136.2810 N   0  0  0  0  0  2  0  0  0  0  0  0
  183.3710  174.8210  135.9040 C   0  0  0  0  0  2  0  0  0  0  0  0
  183.7880  170.2530  135.9390 C   0  0  0  0  0  1  0  0  0  0  0  0
  180.9850  170.4940  135.8870 O   0  0  0  0  0  0  0  0  0  0  0  0
  185.0230  172.4810  137.1420 O   0  0  0  0  0  0  0  0  0  0  0  0
  183.0720  171.4430  136.3740 N   0  0  0  0  0  0  0  0  0  0  0  0
  180.9260  172.6540  136.8730 C   0  0  0  0  0  0  0  0  0  0  0  0
  181.6030  173.7430  137.2460 C   0  0  0  0  0  3  0  0  0  0  0  0
  183.0920  173.8930  137.0810 C   0  0  1  0  0  3  0  0  0  0  0  0
  181.6390  171.4780  136.3400 C   0  0  0  0  0  0  0  0  0  0  0  0
  183.7890  172.5720  136.8890 C   0  0  0  0  0  0  0  0  0  0  0  0
  179.4430  172.6470  137.0060 C   0  0  0  0  0  2  0  0  0  0  0  0
  178.9310  173.8730  136.5770 O   0  0  0  0  0  1  0  0  0  0  0  0
  180.8040  178.9720  139.5480 C   0  0  1  0  0  3  0  0  0  0  0  0
  179.7570  180.8660  140.9360 C   0  0  0  0  0  1  0  0  0  0  0  0
  179.9200  179.3590  140.7450 C   0  0  2  0  0  3  0  0  0  0  0  0
  180.4580  178.6970  142.0140 C   0  0  2  0  0  3  0  0  0  0  0  0
  178.9900  179.3660  143.9030 C   0  0  0  0  0  2  0  0  0  0  0  0
  179.3180  178.2570  142.9200 C   0  0  0  0  0  3  0  0  0  0  0  0
  179.8250  178.1810  144.3470 C   0  0  0  0  0  2  0  0  0  0  0  0
  181.3210  179.5610  142.7010 O   0  0  0  0  0  0  0  0  0  0  0  0
  182.4940  178.8240  142.8890 C   0  0  0  0  0  2  0  0  0  0  0  0
  183.2510  179.3550  144.1020 C   0  0  0  0  0  2  0  0  0  0  0  0
  184.7540  179.3130  143.8440 C   0  0  0  0  0  1  0  0  0  0  0  0
  179.8070  176.5350  138.9700 C   0  0  0  0  0  1  0  0  0  0  0  0
  179.7900  178.1990  138.2350 S   0  0  0  0  0  0  0  0  0  0  0  0
  1  4  1  6  0  0  0
  2  3  1  0  0  0  0
  3 26  1  1  0  0  0
  3  1  1  0  0  0  0
  5  4  1  1  0  0  0
  6  5  1  0  0  0  0
  6 40  1  1  0  0  0
  7  2  1  1  0  0  0
  7  6  1  0  0  0  0
  7  5  1  0  0  0  0
  8 21  1  1  0  0  0
  9  1  1  0  0  0  0
  9 14  1  1  0  0  0
 10 15  2  0  0  0  0
 11 20  1  0  0  0  0
 11 14  1  1  0  0  0
 12 16  1  0  0  0  0
 15 18  1  0  0  0  0
 15 24  1  0  0  0  0
 16 25  2  0  0  0  0
 17 20  1  0  0  0  0
 18 19  2  0  0  0  0
 19  8  1  0  0  0  0
 20 10  2  0  0  0  0
 22 16  1  6  0  0  0
 22  9  1  0  0  0  0
 22 11  1  0  0  0  0
 23 13  1  1  0  0  0
 23  8  1  0  0  0  0
 24 13  1  1  0  0  0
 24 23  1  0  0  0  0
 25 17  1  0  0  0  0
 27 26  1  0  0  0  0
 28 27  1  0  0  0  0
 29 32  1  0  0  0  0
 30 36  2  0  0  0  0
 32 37  1  0  0  0  0
 33 38  1  0  0  0  0
 33 34  2  0  0  0  0
 35 28  1  6  0  0  0
 35 34  1  0  0  0  0
 36 32  1  0  0  0  0
 36 33  1  0  0  0  0
 37 35  1  0  0  0  0
 37 31  2  0  0  0  0
 39 38  1  0  0  0  0
 40 52  1  6  0  0  0
 40 42  1  0  0  0  0
 42 41  1  1  0  0  0
 42 43  1  0  0  0  0
 43 47  1  1  0  0  0
 43 45  1  0  0  0  0
 44 46  1  0  0  0  0
 45 44  1  0  0  0  0
 45 46  1  0  0  0  0
 47 48  1  0  0  0  0
 48 49  1  0  0  0  0
 50 49  1  0  0  0  0
 52 51  1  0  0  0  0
M  END
>  <MODEL>
2

>  <REMARK>
 VINA RESULT:      -5.7      2.427      7.167
  Name = 
  14 active torsions:
  status: ('A' for Active; 'I' for Inactive)
    1  A    between atoms: C_2  and  C_19
    2  A    between atoms: N_3  and  C_6
    3  A    between atoms: O_4  and  C_7
    4  A    between atoms: O_4  and  C_19
    5  A    between atoms: C_7  and  C_15
    6  A    between atoms: C_7  and  C_22
    7  A    between atoms: C_8  and  C_34
    8  A    between atoms: C_8  and  N_43
    9  A    between atoms: C_15  and  C_51
   10  A    between atoms: C_24  and  C_28
   11  A    between atoms: C_31  and  C_35
   12  A    between atoms: C_31  and  N_43
   13  A    between atoms: S_41  and  C_51
   14  A    between atoms: C_48  and  C_51
                            x       y       z     vdW  Elec       q    Type
                         _______ _______ _______ _____ _____    ______ ____

>  <TORSDO>
F 14

$$$$
=
 OpenBabel10222420143D

 52 59  0  0  1  0  0  0  0  0999 V2000
  184.3970  177.9810  139.0810 N   0  0  2  0  0  0  0  0  0  0  0  0
  182.6460  178.2790  137.2780 C   0  0  0  0  0  2  0  0  0  0  0  0
  184.0140  177.7130  137.6770 C   0  0  2  0  0  3  0  0  0  0  0  0
  183.4150  178.7960  139.8180 C   0  0  0  0  0  2  0  0  0  0  0  0
  183.0050  180.0710  139.0480 C   0  0  2  0  0  3  0  0  0  0  0  0
  181.5180  180.1460  138.6690 C   0  0  1  0  0  3  0  0  0  0  0  0
  182.5680  179.7710  137.6110 C   0  0  2  0  0  3  0  0  0  0  0  0
  190.7880  176.7340  144.8550 C   0  0  1  0  0  3  0  0  0  0  0  0
  185.7010  178.6560  139.1300 C   0  0  1  0  0  3  0  0  0  0  0  0
  189.3720  177.7920  141.1350 C   0  0  0  0  0  0  0  0  0  0  0  0
  187.4000  177.4780  139.7650 C   0  0  2  0  0  3  0  0  0  0  0  0
  186.9690  179.4840  136.5220 O   0  0  0  0  0  1  0  0  0  0  0  0
  188.7070  177.9910  144.4440 C   0  0  0  0  0  2  0  0  0  0  0  0
  186.3790  178.3580  140.4650 C   0  0  0  0  0  2  0  0  0  0  0  0
  189.9250  177.6050  142.3000 C   0  0  0  0  0  0  0  0  0  0  0  0
  187.5990  178.7830  137.5450 C   0  0  0  0  0  0  0  0  0  0  0  0
  189.6680  178.2200  138.7840 C   0  0  0  0  0  2  0  0  0  0  0  0
  191.0600  176.6830  142.4100 C   0  0  0  0  0  3  0  0  0  0  0  0
  191.5050  176.3160  143.6060 C   0  0  0  0  0  3  0  0  0  0  0  0
  188.8040  177.9730  139.9740 C   0  0  0  0  0  0  0  0  0  0  0  0
  191.6510  176.6530  145.9320 F   0  0  0  0  0  0  0  0  0  0  0  0
  186.7800  177.8480  138.4080 C   0  0  2  0  0  3  0  0  0  0  0  0
  190.1800  178.1410  144.7800 C   0  0  2  0  0  3  0  0  0  0  0  0
  189.6370  178.5810  143.4080 C   0  0  2  0  0  3  0  0  0  0  0  0
  188.9060  178.9620  137.7330 C   0  0  0  0  0  3  0  0  0  0  0  0
  184.0330  176.2130  137.4330 C   0  0  0  0  0  2  0  0  0  0  0  0
  184.7900  175.9070  136.2300 N   0  0  0  0  0  2  0  0  0  0  0  0
  184.2710  174.6570  135.6940 C   0  0  0  0  0  2  0  0  0  0  0  0
  187.3030  171.2140  135.6670 C   0  0  0  0  0  1  0  0  0  0  0  0
  184.9740  169.8310  134.9020 O   0  0  0  0  0  0  0  0  0  0  0  0
  186.7220  173.4850  137.2290 O   0  0  0  0  0  0  0  0  0  0  0  0
  185.9540  171.6860  135.9460 N   0  0  0  0  0  0  0  0  0  0  0  0
  183.4620  171.3540  135.9190 C   0  0  0  0  0  0  0  0  0  0  0  0
  183.2770  172.5450  136.4930 C   0  0  0  0  0  3  0  0  0  0  0  0
  184.3840  173.5380  136.7240 C   0  0  1  0  0  3  0  0  0  0  0  0
  184.8180  170.9090  135.5440 C   0  0  0  0  0  0  0  0  0  0  0  0
  185.7490  172.9060  136.6700 C   0  0  0  0  0  0  0  0  0  0  0  0
  182.2800  170.4850  135.6630 C   0  0  0  0  0  2  0  0  0  0  0  0
  181.1490  171.0500  136.2550 O   0  0  0  0  0  1  0  0  0  0  0  0
  180.6510  178.9810  139.1970 C   0  0  1  0  0  3  0  0  0  0  0  0
  179.8090  180.8090  140.7970 C   0  0  0  0  0  1  0  0  0  0  0  0
  179.6660  179.3670  140.3130 C   0  0  2  0  0  3  0  0  0  0  0  0
  179.7960  178.3790  141.4730 C   0  0  2  0  0  3  0  0  0  0  0  0
  180.2610  178.1940  143.9060 C   0  0  0  0  0  2  0  0  0  0  0  0
  180.4960  179.0250  142.6590 C   0  0  0  0  0  3  0  0  0  0  0  0
  179.4520  179.4540  143.6720 C   0  0  0  0  0  2  0  0  0  0  0  0
  180.4830  177.2250  141.0720 O   0  0  0  0  0  0  0  0  0  0  0  0
  179.5000  176.2360  140.9760 C   0  0  0  0  0  2  0  0  0  0  0  0
  180.0330  175.0500  140.1780 C   0  0  0  0  0  2  0  0  0  0  0  0
  181.4200  175.3680  139.6270 C   0  0  0  0  0  1  0  0  0  0  0  0
  178.9310  179.6570  137.2320 C   0  0  0  0  0  1  0  0  0  0  0  0
  179.7620  178.1510  137.8280 S   0  0  0  0  0  0  0  0  0  0  0  0
  1  9  1  0  0  0  0
  1  4  1  6  0  0  0
  2  3  1  0  0  0  0
  3 26  1  1  0  0  0
  3  1  1  0  0  0  0
  5  4  1  1  0  0  0
  6  5  1  0  0  0  0
  6 40  1  1  0  0  0
  7  2  1  1  0  0  0
  7  6  1  0  0  0  0
  7  5  1  0  0  0  0
  8 21  1  1  0  0  0
  9 14  1  1  0  0  0
 10 15  2  0  0  0  0
 11 20  1  0  0  0  0
 11 14  1  1  0  0  0
 12 16  1  0  0  0  0
 15 18  1  0  0  0  0
 15 24  1  0  0  0  0
 16 25  2  0  0  0  0
 17 20  1  0  0  0  0
 18 19  2  0  0  0  0
 19  8  1  0  0  0  0
 20 10  2  0  0  0  0
 22 16  1  6  0  0  0
 22  9  1  0  0  0  0
 22 11  1  0  0  0  0
 23 13  1  1  0  0  0
 23  8  1  0  0  0  0
 24 13  1  1  0  0  0
 24 23  1  0  0  0  0
 25 17  1  0  0  0  0
 27 26  1  0  0  0  0
 28 27  1  0  0  0  0
 29 32  1  0  0  0  0
 30 36  2  0  0  0  0
 32 37  1  0  0  0  0
 33 34  2  0  0  0  0
 34 35  1  0  0  0  0
 35 28  1  6  0  0  0
 36 33  1  0  0  0  0
 36 32  1  0  0  0  0
 37 35  1  0  0  0  0
 37 31  2  0  0  0  0
 38 33  1  0  0  0  0
 38 39  1  0  0  0  0
 40 52  1  6  0  0  0
 40 42  1  0  0  0  0
 42 41  1  1  0  0  0
 42 43  1  0  0  0  0
 43 47  1  6  0  0  0
 43 45  1  0  0  0  0
 45 46  1  0  0  0  0
 45 44  1  0  0  0  0
 46 44  1  0  0  0  0
 48 47  1  0  0  0  0
 49 48  1  0  0  0  0
 50 49  1  0  0  0  0
 51 52  1  0  0  0  0
M  END
>  <MODEL>
3

>  <REMARK>
 VINA RESULT:      -5.7      2.530      6.386
  Name = 
  14 active torsions:
  status: ('A' for Active; 'I' for Inactive)
    1  A    between atoms: C_2  and  C_19
    2  A    between atoms: N_3  and  C_6
    3  A    between atoms: O_4  and  C_7
    4  A    between atoms: O_4  and  C_19
    5  A    between atoms: C_7  and  C_15
    6  A    between atoms: C_7  and  C_22
    7  A    between atoms: C_8  and  C_34
    8  A    between atoms: C_8  and  N_43
    9  A    between atoms: C_15  and  C_51
   10  A    between atoms: C_24  and  C_28
   11  A    between atoms: C_31  and  C_35
   12  A    between atoms: C_31  and  N_43
   13  A    between atoms: S_41  and  C_51
   14  A    between atoms: C_48  and  C_51
                            x       y       z     vdW  Elec       q    Type
                         _______ _______ _______ _____ _____    ______ ____

>  <TORSDO>
F 14

$$$$
=
 OpenBabel10222420143D

 52 59  0  0  1  0  0  0  0  0999 V2000
  188.9460  177.8080  140.7820 N   0  0  2  0  0  0  0  0  0  0  0  0
  190.6920  176.4540  142.0160 C   0  0  0  0  0  2  0  0  0  0  0  0
  190.1820  177.0010  140.6780 C   0  0  2  0  0  3  0  0  0  0  0  0
  188.4020  177.8840  142.1490 C   0  0  0  0  0  2  0  0  0  0  0  0
  188.2780  176.4970  142.8170 C   0  0  2  0  0  3  0  0  0  0  0  0
  189.1360  176.3080  144.0780 C   0  0  1  0  0  3  0  0  0  0  0  0
  189.5790  175.6920  142.7410 C   0  0  2  0  0  3  0  0  0  0  0  0
  180.6130  180.2610  140.2470 C   0  0  1  0  0  3  0  0  0  0  0  0
  187.9100  177.2650  139.8930 C   0  0  1  0  0  3  0  0  0  0  0  0
  184.0700  178.6760  138.6660 C   0  0  0  0  0  0  0  0  0  0  0  0
  186.4500  178.6560  139.1110 C   0  0  2  0  0  3  0  0  0  0  0  0
  188.7530  176.2770  137.1710 O   0  0  0  0  0  1  0  0  0  0  0  0
  182.1680  178.7810  141.4590 C   0  0  0  0  0  2  0  0  0  0  0  0
  186.5400  177.7680  140.3400 C   0  0  0  0  0  2  0  0  0  0  0  0
  182.8910  179.0400  139.0840 C   0  0  0  0  0  0  0  0  0  0  0  0
  187.6930  177.1400  137.4300 C   0  0  0  0  0  0  0  0  0  0  0  0
  185.4630  178.0240  136.8130 C   0  0  0  0  0  2  0  0  0  0  0  0
  182.1570  180.0690  138.3410 C   0  0  0  0  0  3  0  0  0  0  0  0
  181.0560  180.6030  138.8560 C   0  0  0  0  0  3  0  0  0  0  0  0
  185.2580  178.3190  138.2610 C   0  0  0  0  0  0  0  0  0  0  0  0
  179.2650  180.5380  140.3840 F   0  0  0  0  0  0  0  0  0  0  0  0
  187.7860  178.0850  138.6090 C   0  0  2  0  0  3  0  0  0  0  0  0
  180.8880  178.8040  140.6440 C   0  0  2  0  0  3  0  0  0  0  0  0
  182.1700  178.1690  140.0760 C   0  0  2  0  0  3  0  0  0  0  0  0
  186.6280  177.1050  136.6300 C   0  0  0  0  0  3  0  0  0  0  0  0
  191.2690  177.8380  140.0240 C   0  0  0  0  0  2  0  0  0  0  0  0
  192.3370  176.9830  139.5320 N   0  0  0  0  0  2  0  0  0  0  0  0
  191.8360  176.2940  138.3520 C   0  0  0  0  0  2  0  0  0  0  0  0
  191.7400  173.4880  134.7230 C   0  0  0  0  0  1  0  0  0  0  0  0
  193.4730  172.0540  136.4130 O   0  0  0  0  0  0  0  0  0  0  0  0
  191.8140  176.2580  135.2310 O   0  0  0  0  0  0  0  0  0  0  0  0
  192.4930  174.0960  135.8100 N   0  0  0  0  0  0  0  0  0  0  0  0
  194.2050  173.9480  137.6460 C   0  0  0  0  0  0  0  0  0  0  0  0
  194.0280  175.2370  137.9430 C   0  0  0  0  0  3  0  0  0  0  0  0
  192.9500  176.0910  137.3300 C   0  0  1  0  0  3  0  0  0  0  0  0
  193.3770  173.3000  136.6120 C   0  0  0  0  0  0  0  0  0  0  0  0
  192.4000  175.5040  136.0580 C   0  0  0  0  0  0  0  0  0  0  0  0
  195.2500  173.1770  138.3750 C   0  0  0  0  0  2  0  0  0  0  0  0
  195.7590  173.9530  139.4180 O   0  0  0  0  0  1  0  0  0  0  0  0
  189.9160  177.5630  144.5300 C   0  0  1  0  0  3  0  0  0  0  0  0
  190.5440  176.7120  146.8740 C   0  0  0  0  0  1  0  0  0  0  0  0
  189.8960  177.8210  146.0460 C   0  0  2  0  0  3  0  0  0  0  0  0
  188.4590  178.0830  146.5010 C   0  0  2  0  0  3  0  0  0  0  0  0
  187.3980  178.4020  148.7240 C   0  0  0  0  0  2  0  0  0  0  0  0
  188.1970  177.4460  147.8570 C   0  0  0  0  0  3  0  0  0  0  0  0
  188.8940  178.2640  148.9270 C   0  0  0  0  0  2  0  0  0  0  0  0
  187.5420  177.6080  145.5540 O   0  0  0  0  0  0  0  0  0  0  0  0
  186.3830  178.3600  145.7670 C   0  0  0  0  0  2  0  0  0  0  0  0
  185.5780  178.4500  144.4750 C   0  0  0  0  0  2  0  0  0  0  0  0
  184.1370  178.8480  144.7790 C   0  0  0  0  0  1  0  0  0  0  0  0
  191.8940  179.3200  144.0090 C   0  0  0  0  0  1  0  0  0  0  0  0
  191.6410  177.5210  143.9190 S   0  0  0  0  0  0  0  0  0  0  0  0
  1  4  1  1  0  0  0
  3 26  1  1  0  0  0
  3  1  1  0  0  0  0
  3  2  1  0  0  0  0
  5  4  1  6  0  0  0
  5  6  1  0  0  0  0
  6 40  1  6  0  0  0
  7  2  1  6  0  0  0
  7  5  1  0  0  0  0
  7  6  1  0  0  0  0
  8 21  1  6  0  0  0
  8 23  1  0  0  0  0
  9 14  1  1  0  0  0
  9  1  1  0  0  0  0
 10 15  2  0  0  0  0
 11 14  1  1  0  0  0
 12 16  1  0  0  0  0
 15 24  1  0  0  0  0
 17 20  1  0  0  0  0
 18 19  2  0  0  0  0
 18 15  1  0  0  0  0
 19  8  1  0  0  0  0
 20 10  2  0  0  0  0
 20 11  1  0  0  0  0
 22 16  1  6  0  0  0
 22 11  1  0  0  0  0
 22  9  1  0  0  0  0
 23 13  1  1  0  0  0
 24 23  1  0  0  0  0
 24 13  1  1  0  0  0
 25 17  1  0  0  0  0
 25 16  2  0  0  0  0
 27 26  1  0  0  0  0
 28 27  1  0  0  0  0
 29 32  1  0  0  0  0
 30 36  2  0  0  0  0
 31 37  2  0  0  0  0
 32 37  1  0  0  0  0
 32 36  1  0  0  0  0
 33 34  2  0  0  0  0
 33 38  1  0  0  0  0
 35 34  1  0  0  0  0
 35 28  1  1  0  0  0
 36 33  1  0  0  0  0
 37 35  1  0  0  0  0
 38 39  1  0  0  0  0
 40 52  1  1  0  0  0
 40 42  1  0  0  0  0
 42 43  1  0  0  0  0
 42 41  1  1  0  0  0
 43 47  1  6  0  0  0
 43 45  1  0  0  0  0
 44 46  1  0  0  0  0
 45 44  1  0  0  0  0
 45 46  1  0  0  0  0
 47 48  1  0  0  0  0
 49 50  1  0  0  0  0
 49 48  1  0  0  0  0
 52 51  1  0  0  0  0
M  END
>  <MODEL>
4

>  <REMARK>
 VINA RESULT:      -5.7      4.084      9.146
  Name = 
  14 active torsions:
  status: ('A' for Active; 'I' for Inactive)
    1  A    between atoms: C_2  and  C_19
    2  A    between atoms: N_3  and  C_6
    3  A    between atoms: O_4  and  C_7
    4  A    between atoms: O_4  and  C_19
    5  A    between atoms: C_7  and  C_15
    6  A    between atoms: C_7  and  C_22
    7  A    between atoms: C_8  and  C_34
    8  A    between atoms: C_8  and  N_43
    9  A    between atoms: C_15  and  C_51
   10  A    between atoms: C_24  and  C_28
   11  A    between atoms: C_31  and  C_35
   12  A    between atoms: C_31  and  N_43
   13  A    between atoms: S_41  and  C_51
   14  A    between atoms: C_48  and  C_51
                            x       y       z     vdW  Elec       q    Type
                         _______ _______ _______ _____ _____    ______ ____

>  <TORSDO>
F 14

$$$$
=
 OpenBabel10222420143D

 52 59  0  0  1  0  0  0  0  0999 V2000
  187.2760  179.2610  141.6900 N   0  0  2  0  0  0  0  0  0  0  0  0
  188.3490  176.9830  141.4330 C   0  0  0  0  0  2  0  0  0  0  0  0
  187.5660  178.1290  140.7820 C   0  0  2  0  0  3  0  0  0  0  0  0
  187.7450  179.0470  143.0710 C   0  0  0  0  0  2  0  0  0  0  0  0
  187.3020  177.6830  143.6430 C   0  0  2  0  0  3  0  0  0  0  0  0
  188.4530  176.7300  144.0050 C   0  0  1  0  0  3  0  0  0  0  0  0
  187.6490  176.5170  142.7120 C   0  0  2  0  0  3  0  0  0  0  0  0
  181.1480  175.8570  136.5330 C   0  0  1  0  0  3  0  0  0  0  0  0
  185.8320  179.5310  141.7200 C   0  0  1  0  0  3  0  0  0  0  0  0
  182.4430  177.5230  140.0690 C   0  0  0  0  0  0  0  0  0  0  0  0
  184.5090  177.8780  141.2830 C   0  0  2  0  0  3  0  0  0  0  0  0
  184.5570  180.1360  144.3850 O   0  0  0  0  0  1  0  0  0  0  0  0
  182.7990  177.6800  136.7110 C   0  0  0  0  0  2  0  0  0  0  0  0
  185.1830  178.9630  140.4610 C   0  0  0  0  0  2  0  0  0  0  0  0
  181.8920  177.1080  138.9650 C   0  0  0  0  0  0  0  0  0  0  0  0
  184.0900  179.2180  143.4510 C   0  0  0  0  0  0  0  0  0  0  0  0
  182.1940  178.0050  142.4160 C   0  0  0  0  0  2  0  0  0  0  0  0
  181.0680  175.8950  138.9910 C   0  0  0  0  0  3  0  0  0  0  0  0
  180.6690  175.3370  137.8550 C   0  0  0  0  0  3  0  0  0  0  0  0
  183.0110  177.9360  141.1690 C   0  0  0  0  0  0  0  0  0  0  0  0
  180.2750  175.4610  135.5360 F   0  0  0  0  0  0  0  0  0  0  0  0
  185.0850  178.5000  142.5650 C   0  0  2  0  0  3  0  0  0  0  0  0
  181.3270  177.3800  136.4930 C   0  0  2  0  0  3  0  0  0  0  0  0
  181.8090  178.0490  137.7930 C   0  0  2  0  0  3  0  0  0  0  0  0
  182.7770  179.0030  143.3640 C   0  0  0  0  0  3  0  0  0  0  0  0
  188.3290  178.6430  139.5730 C   0  0  0  0  0  2  0  0  0  0  0  0
  187.9170  177.9300  138.3750 N   0  0  0  0  0  2  0  0  0  0  0  0
  188.5080  178.6150  137.2340 C   0  0  0  0  0  2  0  0  0  0  0  0
  185.5350  175.4010  135.8620 C   0  0  0  0  0  1  0  0  0  0  0  0
  187.5030  173.7800  137.0540 O   0  0  0  0  0  0  0  0  0  0  0  0
  186.6000  177.8240  134.8950 O   0  0  0  0  0  0  0  0  0  0  0  0
  186.9150  175.8200  136.0620 N   0  0  0  0  0  0  0  0  0  0  0  0
  189.2790  175.3290  136.7610 C   0  0  0  0  0  0  0  0  0  0  0  0
  189.6510  176.5730  136.4510 C   0  0  0  0  0  3  0  0  0  0  0  0
  188.6830  177.6570  136.0600 C   0  0  1  0  0  3  0  0  0  0  0  0
  187.8650  174.9240  136.6540 C   0  0  0  0  0  0  0  0  0  0  0  0
  187.3510  177.1120  135.6190 C   0  0  0  0  0  0  0  0  0  0  0  0
  190.3140  174.3600  137.2160 C   0  0  0  0  0  2  0  0  0  0  0  0
  190.9860  174.8790  138.3230 O   0  0  0  0  0  1  0  0  0  0  0  0
  189.8700  177.3210  143.8260 C   0  0  1  0  0  3  0  0  0  0  0  0
  191.6820  178.8890  144.7570 C   0  0  0  0  0  1  0  0  0  0  0  0
  190.3880  178.1240  145.0310 C   0  0  2  0  0  3  0  0  0  0  0  0
  190.5390  177.1960  146.2370 C   0  0  2  0  0  3  0  0  0  0  0  0
  188.6780  176.7520  147.8210 C   0  0  0  0  0  2  0  0  0  0  0  0
  189.7680  177.7330  147.4330 C   0  0  0  0  0  3  0  0  0  0  0  0
  188.3330  177.9910  147.0180 C   0  0  0  0  0  2  0  0  0  0  0  0
  191.8900  177.0210  146.5660 O   0  0  0  0  0  0  0  0  0  0  0  0
  192.0610  175.6370  146.6600 C   0  0  0  0  0  2  0  0  0  0  0  0
  192.4030  175.2520  148.0950 C   0  0  0  0  0  2  0  0  0  0  0  0
  193.0690  176.4250  148.8090 C   0  0  0  0  0  1  0  0  0  0  0  0
  191.7890  176.9360  141.9710 C   0  0  0  0  0  1  0  0  0  0  0  0
  191.0710  176.0180  143.3690 S   0  0  0  0  0  0  0  0  0  0  0  0
  1  9  1  0  0  0  0
  1  4  1  1  0  0  0
  3 26  1  6  0  0  0
  3  2  1  0  0  0  0
  3  1  1  0  0  0  0
  5  4  1  6  0  0  0
  5  6  1  0  0  0  0
  6 40  1  6  0  0  0
  7  2  1  6  0  0  0
  7  5  1  0  0  0  0
  7  6  1  0  0  0  0
  8 21  1  6  0  0  0
  8 19  1  0  0  0  0
  9 14  1  6  0  0  0
  9 22  1  0  0  0  0
 10 20  2  0  0  0  0
 11 14  1  6  0  0  0
 11 22  1  0  0  0  0
 15 18  1  0  0  0  0
 15 10  2  0  0  0  0
 16 12  1  0  0  0  0
 17 25  1  0  0  0  0
 19 18  2  0  0  0  0
 20 11  1  0  0  0  0
 20 17  1  0  0  0  0
 22 16  1  1  0  0  0
 23  8  1  0  0  0  0
 23 13  1  6  0  0  0
 23 24  1  0  0  0  0
 24 13  1  6  0  0  0
 24 15  1  0  0  0  0
 25 16  2  0  0  0  0
 27 26  1  0  0  0  0
 28 27  1  0  0  0  0
 29 32  1  0  0  0  0
 31 37  2  0  0  0  0
 32 36  1  0  0  0  0
 33 38  1  0  0  0  0
 34 33  2  0  0  0  0
 35 34  1  0  0  0  0
 35 28  1  1  0  0  0
 36 33  1  0  0  0  0
 36 30  2  0  0  0  0
 37 35  1  0  0  0  0
 37 32  1  0  0  0  0
 38 39  1  0  0  0  0
 40 52  1  1  0  0  0
 40 42  1  0  0  0  0
 42 41  1  6  0  0  0
 42 43  1  0  0  0  0
 43 47  1  1  0  0  0
 43 45  1  0  0  0  0
 45 44  1  0  0  0  0
 46 45  1  0  0  0  0
 46 44  1  0  0  0  0
 47 48  1  0  0  0  0
 48 49  1  0  0  0  0
 49 50  1  0  0  0  0
 51 52  1  0  0  0  0
M  END
>  <MODEL>
5

>  <REMARK>
 VINA RESULT:      -5.6      3.770      8.892
  Name = 
  14 active torsions:
  status: ('A' for Active; 'I' for Inactive)
    1  A    between atoms: C_2  and  C_19
    2  A    between atoms: N_3  and  C_6
    3  A    between atoms: O_4  and  C_7
    4  A    between atoms: O_4  and  C_19
    5  A    between atoms: C_7  and  C_15
    6  A    between atoms: C_7  and  C_22
    7  A    between atoms: C_8  and  C_34
    8  A    between atoms: C_8  and  N_43
    9  A    between atoms: C_15  and  C_51
   10  A    between atoms: C_24  and  C_28
   11  A    between atoms: C_31  and  C_35
   12  A    between atoms: C_31  and  N_43
   13  A    between atoms: S_41  and  C_51
   14  A    between atoms: C_48  and  C_51
                            x       y       z     vdW  Elec       q    Type
                         _______ _______ _______ _____ _____    ______ ____

>  <TORSDO>
F 14

$$$$
=
 OpenBabel10222420143D

 52 59  0  0  1  0  0  0  0  0999 V2000
  190.9880  175.0670  136.7050 N   0  0  2  0  0  0  0  0  0  0  0  0
  193.3010  176.0780  136.5300 C   0  0  0  0  0  2  0  0  0  0  0  0
  191.8090  176.2950  136.8050 C   0  0  2  0  0  3  0  0  0  0  0  0
  191.7530  173.8740  136.3010 C   0  0  0  0  0  2  0  0  0  0  0  0
  192.6230  174.1230  135.0500 C   0  0  2  0  0  3  0  0  0  0  0  0
  194.1370  173.9750  135.2750 C   0  0  1  0  0  3  0  0  0  0  0  0
  193.5000  175.3710  135.1860 C   0  0  2  0  0  3  0  0  0  0  0  0
  183.4290  170.7680  136.3560 C   0  0  1  0  0  3  0  0  0  0  0  0
  189.8890  175.2680  135.7510 C   0  0  1  0  0  3  0  0  0  0  0  0
  185.7860  174.0860  135.7200 C   0  0  0  0  0  0  0  0  0  0  0  0
  187.8750  175.0290  136.5000 C   0  0  2  0  0  3  0  0  0  0  0  0
  189.4080  178.0560  134.7090 O   0  0  0  0  0  1  0  0  0  0  0  0
  185.7800  170.7070  135.6130 C   0  0  0  0  0  2  0  0  0  0  0  0
  188.9010  174.1100  135.8620 C   0  0  0  0  0  2  0  0  0  0  0  0
  184.9760  173.0650  135.7540 C   0  0  0  0  0  0  0  0  0  0  0  0
  188.4390  177.2050  135.2270 C   0  0  0  0  0  0  0  0  0  0  0  0
  186.0860  176.4350  135.2820 C   0  0  0  0  0  2  0  0  0  0  0  0
  183.6650  173.2170  136.3920 C   0  0  0  0  0  3  0  0  0  0  0  0
  182.9110  172.1490  136.6240 C   0  0  0  0  0  3  0  0  0  0  0  0
  186.6070  175.0990  135.6950 C   0  0  0  0  0  0  0  0  0  0  0  0
  182.3670  169.8940  136.2180 F   0  0  0  0  0  0  0  0  0  0  0  0
  188.8290  176.2190  136.3070 C   0  0  2  0  0  3  0  0  0  0  0  0
  184.3420  170.6760  135.1260 C   0  0  2  0  0  3  0  0  0  0  0  0
  185.2420  171.8940  134.8470 C   0  0  2  0  0  3  0  0  0  0  0  0
  187.1960  177.2840  134.7530 C   0  0  0  0  0  3  0  0  0  0  0  0
  191.6300  176.9030  138.1850 C   0  0  0  0  0  2  0  0  0  0  0  0
  191.1020  175.9120  139.1090 N   0  0  0  0  0  2  0  0  0  0  0  0
  189.7970  176.3810  139.5530 C   0  0  0  0  0  2  0  0  0  0  0  0
  190.7600  176.3590  144.0390 C   0  0  0  0  0  1  0  0  0  0  0  0
  188.0270  177.0240  144.1210 O   0  0  0  0  0  0  0  0  0  0  0  0
  191.9800  177.1810  141.6350 O   0  0  0  0  0  0  0  0  0  0  0  0
  190.0380  176.9490  142.9200 N   0  0  0  0  0  0  0  0  0  0  0  0
  187.9580  177.9680  141.9430 C   0  0  0  0  0  0  0  0  0  0  0  0
  188.5710  178.1430  140.7700 C   0  0  0  0  0  3  0  0  0  0  0  0
  189.9400  177.6010  140.4580 C   0  0  1  0  0  3  0  0  0  0  0  0
  188.6500  177.2830  143.0510 C   0  0  0  0  0  0  0  0  0  0  0  0
  190.7200  177.2520  141.6960 C   0  0  0  0  0  0  0  0  0  0  0  0
  186.5690  178.4770  142.1130 C   0  0  0  0  0  2  0  0  0  0  0  0
  186.2300  179.2820  141.0250 O   0  0  0  0  0  1  0  0  0  0  0  0
  194.5420  173.5110  136.6930 C   0  0  1  0  0  3  0  0  0  0  0  0
  195.6090  171.5940  138.0340 C   0  0  0  0  0  1  0  0  0  0  0  0
  194.7450  171.9940  136.8390 C   0  0  2  0  0  3  0  0  0  0  0  0
  195.3070  171.4250  135.5350 C   0  0  2  0  0  3  0  0  0  0  0  0
  193.2270  170.4470  134.5940 C   0  0  0  0  0  2  0  0  0  0  0  0
  194.6000  170.1320  135.1590 C   0  0  0  0  0  3  0  0  0  0  0  0
  193.3670  169.9750  136.0280 C   0  0  0  0  0  2  0  0  0  0  0  0
  196.6880  171.2140  135.6380 O   0  0  0  0  0  0  0  0  0  0  0  0
  197.2480  171.9830  134.6150 C   0  0  0  0  0  2  0  0  0  0  0  0
  198.6240  172.4870  135.0370 C   0  0  0  0  0  2  0  0  0  0  0  0
  199.0110  171.8900  136.3870 C   0  0  0  0  0  1  0  0  0  0  0  0
  195.4220  174.6430  138.9770 C   0  0  0  0  0  1  0  0  0  0  0  0
  196.0270  174.4070  137.2770 S   0  0  0  0  0  0  0  0  0  0  0  0
  1  4  1  6  0  0  0
  1  3  1  0  0  0  0
  2  3  1  0  0  0  0
  3 26  1  1  0  0  0
  5  7  1  0  0  0  0
  5  6  1  0  0  0  0
  5  4  1  1  0  0  0
  6 40  1  1  0  0  0
  7  6  1  0  0  0  0
  7  2  1  1  0  0  0
  8 21  1  6  0  0  0
  8 19  1  0  0  0  0
  9 14  1  1  0  0  0
  9 22  1  0  0  0  0
  9  1  1  0  0  0  0
 10 15  2  0  0  0  0
 11 14  1  6  0  0  0
 12 16  1  0  0  0  0
 15 18  1  0  0  0  0
 17 20  1  0  0  0  0
 18 19  2  0  0  0  0
 20 10  2  0  0  0  0
 20 11  1  0  0  0  0
 22 16  1  6  0  0  0
 22 11  1  0  0  0  0
 23 13  1  1  0  0  0
 23  8  1  0  0  0  0
 24 23  1  0  0  0  0
 24 13  1  1  0  0  0
 24 15  1  0  0  0  0
 25 16  2  0  0  0  0
 25 17  1  0  0  0  0
 26 27  1  0  0  0  0
 27 28  1  0  0  0  0
 31 37  2  0  0  0  0
 32 36  1  0  0  0  0
 32 29  1  0  0  0  0
 33 38  1  0  0  0  0
 33 36  1  0  0  0  0
 34 33  2  0  0  0  0
 35 28  1  6  0  0  0
 35 34  1  0  0  0  0
 35 37  1  0  0  0  0
 36 30  2  0  0  0  0
 37 32  1  0  0  0  0
 39 38  1  0  0  0  0
 40 42  1  0  0  0  0
 40 52  1  6  0  0  0
 42 41  1  1  0  0  0
 43 47  1  1  0  0  0
 43 42  1  0  0  0  0
 44 45  1  0  0  0  0
 44 46  1  0  0  0  0
 45 43  1  0  0  0  0
 45 46  1  0  0  0  0
 48 49  1  0  0  0  0
 48 47  1  0  0  0  0
 49 50  1  0  0  0  0
 52 51  1  0  0  0  0
M  END
>  <MODEL>
6

>  <REMARK>
 VINA RESULT:      -5.3      5.407     10.912
  Name = 
  14 active torsions:
  status: ('A' for Active; 'I' for Inactive)
    1  A    between atoms: C_2  and  C_19
    2  A    between atoms: N_3  and  C_6
    3  A    between atoms: O_4  and  C_7
    4  A    between atoms: O_4  and  C_19
    5  A    between atoms: C_7  and  C_15
    6  A    between atoms: C_7  and  C_22
    7  A    between atoms: C_8  and  C_34
    8  A    between atoms: C_8  and  N_43
    9  A    between atoms: C_15  and  C_51
   10  A    between atoms: C_24  and  C_28
   11  A    between atoms: C_31  and  C_35
   12  A    between atoms: C_31  and  N_43
   13  A    between atoms: S_41  and  C_51
   14  A    between atoms: C_48  and  C_51
                            x       y       z     vdW  Elec       q    Type
                         _______ _______ _______ _____ _____    ______ ____

>  <TORSDO>
F 14

$$$$
=
 OpenBabel10222420143D

 52 59  0  0  1  0  0  0  0  0999 V2000
  189.7300  177.8430  140.6200 N   0  0  2  0  0  0  0  0  0  0  0  0
  191.2110  176.5330  142.1990 C   0  0  0  0  0  2  0  0  0  0  0  0
  190.9890  177.0830  140.7860 C   0  0  2  0  0  3  0  0  0  0  0  0
  188.8950  177.8780  141.8340 C   0  0  0  0  0  2  0  0  0  0  0  0
  188.6810  176.4770  142.4470 C   0  0  2  0  0  3  0  0  0  0  0  0
  189.2460  176.2980  143.8650 C   0  0  1  0  0  3  0  0  0  0  0  0
  189.9960  175.7210  142.6540 C   0  0  2  0  0  3  0  0  0  0  0  0
  181.1350  178.4860  139.4150 C   0  0  1  0  0  3  0  0  0  0  0  0
  188.9370  177.2780  139.5200 C   0  0  1  0  0  3  0  0  0  0  0  0
  184.9970  178.0400  138.0570 C   0  0  0  0  0  0  0  0  0  0  0  0
  187.2640  178.4470  138.8060 C   0  0  2  0  0  3  0  0  0  0  0  0
  190.2310  177.0640  136.8040 O   0  0  0  0  0  1  0  0  0  0  0  0
  182.8830  177.1670  140.5470 C   0  0  0  0  0  2  0  0  0  0  0  0
  187.4520  177.3720  139.8620 C   0  0  0  0  0  2  0  0  0  0  0  0
  183.7330  178.0470  138.3720 C   0  0  0  0  0  0  0  0  0  0  0  0
  188.9780  177.6060  137.0660 C   0  0  0  0  0  0  0  0  0  0  0  0
  186.6660  178.0900  136.3210 C   0  0  0  0  0  2  0  0  0  0  0  0
  182.8440  179.0200  137.7290 C   0  0  0  0  0  3  0  0  0  0  0  0
  181.6060  179.1890  138.1780 C   0  0  0  0  0  3  0  0  0  0  0  0
  186.2670  178.0370  137.7580 C   0  0  0  0  0  0  0  0  0  0  0  0
  179.7530  178.4310  139.4170 F   0  0  0  0  0  0  0  0  0  0  0  0
  188.7370  178.2920  138.3940 C   0  0  2  0  0  3  0  0  0  0  0  0
  181.7120  177.0750  139.5850 C   0  0  2  0  0  3  0  0  0  0  0  0
  183.1540  176.8590  139.0910 C   0  0  2  0  0  3  0  0  0  0  0  0
  188.0270  177.5010  136.1380 C   0  0  0  0  0  3  0  0  0  0  0  0
  192.1600  177.9680  140.3950 C   0  0  0  0  0  2  0  0  0  0  0  0
  193.3200  177.1550  140.0650 N   0  0  0  0  0  2  0  0  0  0  0  0
  193.1870  176.7500  138.6730 C   0  0  0  0  0  2  0  0  0  0  0  0
  196.5960  174.6110  136.4700 C   0  0  0  0  0  1  0  0  0  0  0  0
  194.4920  174.2010  134.6460 O   0  0  0  0  0  0  0  0  0  0  0  0
  195.6660  174.9060  139.1130 O   0  0  0  0  0  0  0  0  0  0  0  0
  195.1880  174.6660  136.8360 N   0  0  0  0  0  0  0  0  0  0  0  0
  192.7570  174.3850  136.2580 C   0  0  0  0  0  0  0  0  0  0  0  0
  192.4010  174.7280  137.4980 C   0  0  0  0  0  3  0  0  0  0  0  0
  193.3710  175.2430  138.5280 C   0  0  1  0  0  3  0  0  0  0  0  0
  194.1740  174.4200  135.8510 C   0  0  0  0  0  0  0  0  0  0  0  0
  194.8000  174.9140  138.1930 C   0  0  0  0  0  0  0  0  0  0  0  0
  191.7010  173.9670  135.2950 C   0  0  0  0  0  2  0  0  0  0  0  0
  190.5910  173.4940  135.9960 O   0  0  0  0  0  1  0  0  0  0  0  0
  189.8580  177.5730  144.4880 C   0  0  1  0  0  3  0  0  0  0  0  0
  189.6550  176.6030  146.8600 C   0  0  0  0  0  1  0  0  0  0  0  0
  189.4720  177.8200  145.9560 C   0  0  2  0  0  3  0  0  0  0  0  0
  188.0390  178.3490  146.0250 C   0  0  2  0  0  3  0  0  0  0  0  0
  186.8090  178.9730  148.0910 C   0  0  0  0  0  2  0  0  0  0  0  0
  187.3240  177.8150  147.2560 C   0  0  0  0  0  3  0  0  0  0  0  0
  188.0810  178.2530  148.4950 C   0  0  0  0  0  2  0  0  0  0  0  0
  187.3280  178.0160  144.8650 O   0  0  0  0  0  0  0  0  0  0  0  0
  186.0160  177.8000  145.2960 C   0  0  0  0  0  2  0  0  0  0  0  0
  185.0340  178.2490  144.2190 C   0  0  0  0  0  2  0  0  0  0  0  0
  185.7910  178.8210  143.0230 C   0  0  0  0  0  1  0  0  0  0  0  0
  191.8370  179.3990  144.3220 C   0  0  0  0  0  1  0  0  0  0  0  0
  191.6790  177.5860  144.3020 S   0  0  0  0  0  0  0  0  0  0  0  0
  1  3  1  0  0  0  0
  1  4  1  1  0  0  0
  3 26  1  1  0  0  0
  3  2  1  0  0  0  0
  5  4  1  6  0  0  0
  5  7  1  0  0  0  0
  5  6  1  0  0  0  0
  6 40  1  6  0  0  0
  7  2  1  6  0  0  0
  7  6  1  0  0  0  0
  8 21  1  6  0  0  0
  8 23  1  0  0  0  0
  9 14  1  1  0  0  0
  9  1  1  0  0  0  0
 10 15  2  0  0  0  0
 11 14  1  1  0  0  0
 12 16  1  0  0  0  0
 15 24  1  0  0  0  0
 17 20  1  0  0  0  0
 18 19  2  0  0  0  0
 18 15  1  0  0  0  0
 19  8  1  0  0  0  0
 20 10  2  0  0  0  0
 20 11  1  0  0  0  0
 22 16  1  6  0  0  0
 22 11  1  0  0  0  0
 22  9  1  0  0  0  0
 23 13  1  1  0  0  0
 24 23  1  0  0  0  0
 24 13  1  1  0  0  0
 25 17  1  0  0  0  0
 25 16  2  0  0  0  0
 27 26  1  0  0  0  0
 28 27  1  0  0  0  0
 29 32  1  0  0  0  0
 30 36  2  0  0  0  0
 32 37  1  0  0  0  0
 33 34  2  0  0  0  0
 34 35  1  0  0  0  0
 35 28  1  6  0  0  0
 36 33  1  0  0  0  0
 36 32  1  0  0  0  0
 37 35  1  0  0  0  0
 37 31  2  0  0  0  0
 38 39  1  0  0  0  0
 38 33  1  0  0  0  0
 40 52  1  1  0  0  0
 40 42  1  0  0  0  0
 42 43  1  0  0  0  0
 42 41  1  1  0  0  0
 43 47  1  6  0  0  0
 43 45  1  0  0  0  0
 44 46  1  0  0  0  0
 45 44  1  0  0  0  0
 45 46  1  0  0  0  0
 47 48  1  0  0  0  0
 49 48  1  0  0  0  0
 50 49  1  0  0  0  0
 52 51  1  0  0  0  0
M  END
>  <MODEL>
7

>  <REMARK>
 VINA RESULT:      -5.2      4.094      9.431
  Name = 
  14 active torsions:
  status: ('A' for Active; 'I' for Inactive)
    1  A    between atoms: C_2  and  C_19
    2  A    between atoms: N_3  and  C_6
    3  A    between atoms: O_4  and  C_7
    4  A    between atoms: O_4  and  C_19
    5  A    between atoms: C_7  and  C_15
    6  A    between atoms: C_7  and  C_22
    7  A    between atoms: C_8  and  C_34
    8  A    between atoms: C_8  and  N_43
    9  A    between atoms: C_15  and  C_51
   10  A    between atoms: C_24  and  C_28
   11  A    between atoms: C_31  and  C_35
   12  A    between atoms: C_31  and  N_43
   13  A    between atoms: S_41  and  C_51
   14  A    between atoms: C_48  and  C_51
                            x       y       z     vdW  Elec       q    Type
                         _______ _______ _______ _____ _____    ______ ____

>  <TORSDO>
F 14

$$$$
=
 OpenBabel10222420143D

 52 59  0  0  1  0  0  0  0  0999 V2000
  184.1070  177.9990  140.1950 N   0  0  2  0  0  0  0  0  0  0  0  0
  182.8770  178.6260  138.0740 C   0  0  0  0  0  2  0  0  0  0  0  0
  184.1040  177.9670  138.7150 C   0  0  2  0  0  3  0  0  0  0  0  0
  182.9560  178.7140  140.7750 C   0  0  0  0  0  2  0  0  0  0  0  0
  182.7400  180.1050  140.1390 C   0  0  2  0  0  3  0  0  0  0  0  0
  181.4000  180.2790  139.4070 C   0  0  1  0  0  3  0  0  0  0  0  0
  182.6930  180.0490  138.6090 C   0  0  2  0  0  3  0  0  0  0  0  0
  187.5550  177.3660  148.1600 C   0  0  1  0  0  3  0  0  0  0  0  0
  185.3440  178.6230  140.6850 C   0  0  1  0  0  3  0  0  0  0  0  0
  187.8270  177.9200  144.0880 C   0  0  0  0  0  0  0  0  0  0  0  0
  186.5350  177.4860  142.0870 C   0  0  2  0  0  3  0  0  0  0  0  0
  187.6100  179.0060  138.7320 O   0  0  0  0  0  1  0  0  0  0  0  0
  185.9340  178.6300  146.7980 C   0  0  0  0  0  2  0  0  0  0  0  0
  185.4090  178.4980  142.2050 C   0  0  0  0  0  2  0  0  0  0  0  0
  187.8560  177.8850  145.3900 C   0  0  0  0  0  0  0  0  0  0  0  0
  187.7150  178.4400  139.9980 C   0  0  0  0  0  0  0  0  0  0  0  0
  189.0660  177.9840  142.0240 C   0  0  0  0  0  2  0  0  0  0  0  0
  188.7620  176.9450  146.0580 C   0  0  0  0  0  3  0  0  0  0  0  0
  188.6630  176.7420  147.3660 C   0  0  0  0  0  3  0  0  0  0  0  0
  187.7830  177.9500  142.7850 C   0  0  0  0  0  0  0  0  0  0  0  0
  187.9120  177.4120  149.4960 F   0  0  0  0  0  0  0  0  0  0  0  0
  186.5380  177.6760  140.5620 C   0  0  2  0  0  3  0  0  0  0  0  0
  187.1620  178.7700  147.6790 C   0  0  2  0  0  3  0  0  0  0  0  0
  187.2490  179.0240  146.1630 C   0  0  2  0  0  3  0  0  0  0  0  0
  188.8530  178.5930  140.6750 C   0  0  0  0  0  3  0  0  0  0  0  0
  184.2080  176.5250  138.2480 C   0  0  0  0  0  2  0  0  0  0  0  0
  184.8610  176.4600  136.9510 N   0  0  0  0  0  2  0  0  0  0  0  0
  186.2940  176.5790  137.1770 C   0  0  0  0  0  2  0  0  0  0  0  0
  187.9330  172.2940  137.1990 C   0  0  0  0  0  1  0  0  0  0  0  0
  190.3220  173.7410  137.5470 O   0  0  0  0  0  0  0  0  0  0  0  0
  185.9810  173.7860  135.8200 O   0  0  0  0  0  0  0  0  0  0  0  0
  188.0950  173.6900  136.8170 N   0  0  0  0  0  0  0  0  0  0  0  0
  189.5300  175.7330  136.5250 C   0  0  0  0  0  0  0  0  0  0  0  0
  188.4870  176.4230  136.0570 C   0  0  0  0  0  3  0  0  0  0  0  0
  187.0760  175.9000  136.0580 C   0  0  1  0  0  3  0  0  0  0  0  0
  189.3550  174.3490  137.0040 C   0  0  0  0  0  0  0  0  0  0  0  0
  187.0150  174.4030  136.2020 C   0  0  0  0  0  0  0  0  0  0  0  0
  190.8700  176.3820  136.5530 C   0  0  0  0  0  2  0  0  0  0  0  0
  191.7280  175.7200  135.6740 O   0  0  0  0  0  1  0  0  0  0  0  0
  180.4430  179.0690  139.5010 C   0  0  1  0  0  3  0  0  0  0  0  0
  179.1410  180.6610  141.0430 C   0  0  0  0  0  1  0  0  0  0  0  0
  179.2840  179.2420  140.4950 C   0  0  2  0  0  3  0  0  0  0  0  0
  179.4250  178.2240  141.6280 C   0  0  2  0  0  3  0  0  0  0  0  0
  180.0560  177.8920  144.0070 C   0  0  0  0  0  2  0  0  0  0  0  0
  180.1240  178.8440  142.8280 C   0  0  0  0  0  3  0  0  0  0  0  0
  179.1050  179.0700  143.9280 C   0  0  0  0  0  2  0  0  0  0  0  0
  180.1200  177.0880  141.1930 O   0  0  0  0  0  0  0  0  0  0  0  0
  179.1350  176.1150  141.0010 C   0  0  0  0  0  2  0  0  0  0  0  0
  179.7320  174.9040  140.2910 C   0  0  0  0  0  2  0  0  0  0  0  0
  180.9530  175.3220  139.4760 C   0  0  0  0  0  1  0  0  0  0  0  0
  179.2320  180.2890  137.4230 C   0  0  0  0  0  1  0  0  0  0  0  0
  179.7980  178.6130  137.8490 S   0  0  0  0  0  0  0  0  0  0  0  0
  1  9  1  0  0  0  0
  1  4  1  6  0  0  0
  2  3  1  0  0  0  0
  3 26  1  1  0  0  0
  3  1  1  0  0  0  0
  5  4  1  1  0  0  0
  6 40  1  1  0  0  0
  6  5  1  0  0  0  0
  7  2  1  1  0  0  0
  7  6  1  0  0  0  0
  7  5  1  0  0  0  0
  8 21  1  1  0  0  0
  9 14  1  1  0  0  0
 10 15  2  0  0  0  0
 11 14  1  1  0  0  0
 11 20  1  0  0  0  0
 12 16  1  0  0  0  0
 15 18  1  0  0  0  0
 15 24  1  0  0  0  0
 16 25  2  0  0  0  0
 17 20  1  0  0  0  0
 18 19  2  0  0  0  0
 19  8  1  0  0  0  0
 20 10  2  0  0  0  0
 22 16  1  1  0  0  0
 22  9  1  0  0  0  0
 22 11  1  0  0  0  0
 23 13  1  6  0  0  0
 23  8  1  0  0  0  0
 24 13  1  6  0  0  0
 24 23  1  0  0  0  0
 25 17  1  0  0  0  0
 27 28  1  0  0  0  0
 27 26  1  0  0  0  0
 31 37  2  0  0  0  0
 32 36  1  0  0  0  0
 32 29  1  0  0  0  0
 33 38  1  0  0  0  0
 33 36  1  0  0  0  0
 34 35  1  0  0  0  0
 34 33  2  0  0  0  0
 35 37  1  0  0  0  0
 35 28  1  1  0  0  0
 36 30  2  0  0  0  0
 37 32  1  0  0  0  0
 39 38  1  0  0  0  0
 40 52  1  6  0  0  0
 40 42  1  0  0  0  0
 42 41  1  1  0  0  0
 42 43  1  0  0  0  0
 43 47  1  6  0  0  0
 43 45  1  0  0  0  0
 45 46  1  0  0  0  0
 45 44  1  0  0  0  0
 46 44  1  0  0  0  0
 48 47  1  0  0  0  0
 49 48  1  0  0  0  0
 50 49  1  0  0  0  0
 51 52  1  0  0  0  0
M  END
>  <MODEL>
8

>  <REMARK>
 VINA RESULT:      -5.0      2.404      4.975
  Name = 
  14 active torsions:
  status: ('A' for Active; 'I' for Inactive)
    1  A    between atoms: C_2  and  C_19
    2  A    between atoms: N_3  and  C_6
    3  A    between atoms: O_4  and  C_7
    4  A    between atoms: O_4  and  C_19
    5  A    between atoms: C_7  and  C_15
    6  A    between atoms: C_7  and  C_22
    7  A    between atoms: C_8  and  C_34
    8  A    between atoms: C_8  and  N_43
    9  A    between atoms: C_15  and  C_51
   10  A    between atoms: C_24  and  C_28
   11  A    between atoms: C_31  and  C_35
   12  A    between atoms: C_31  and  N_43
   13  A    between atoms: S_41  and  C_51
   14  A    between atoms: C_48  and  C_51
                            x       y       z     vdW  Elec       q    Type
                         _______ _______ _______ _____ _____    ______ ____

>  <TORSDO>
F 14

$$$$
=
 OpenBabel10222420143D

 52 59  0  0  1  0  0  0  0  0999 V2000
  189.0300  176.4240  138.8880 N   0  0  2  0  0  0  0  0  0  0  0  0
  187.0730  177.9200  139.4680 C   0  0  0  0  0  2  0  0  0  0  0  0
  187.7540  177.0190  138.4320 C   0  0  2  0  0  3  0  0  0  0  0  0
  189.4380  176.8580  140.2360 C   0  0  0  0  0  2  0  0  0  0  0  0
  189.3910  178.3920  140.4040 C   0  0  2  0  0  3  0  0  0  0  0  0
  188.3980  178.8960  141.4650 C   0  0  1  0  0  3  0  0  0  0  0  0
  188.0480  178.9880  139.9710 C   0  0  2  0  0  3  0  0  0  0  0  0
  196.4780  172.0910  137.6620 C   0  0  1  0  0  3  0  0  0  0  0  0
  190.1080  176.7480  137.9430 C   0  0  1  0  0  3  0  0  0  0  0  0
  193.4090  174.5270  136.3920 C   0  0  0  0  0  0  0  0  0  0  0  0
  191.1370  175.0900  137.0120 C   0  0  2  0  0  3  0  0  0  0  0  0
  189.3550  178.0400  135.3240 O   0  0  0  0  0  1  0  0  0  0  0  0
  195.4040  173.8370  139.0330 C   0  0  0  0  0  2  0  0  0  0  0  0
  191.3420  175.9130  138.2720 C   0  0  0  0  0  2  0  0  0  0  0  0
  194.4900  173.8740  136.7110 C   0  0  0  0  0  0  0  0  0  0  0  0
  190.1900  176.9390  135.4760 C   0  0  0  0  0  0  0  0  0  0  0  0
  192.0980  175.5820  134.6680 C   0  0  0  0  0  2  0  0  0  0  0  0
  194.9070  172.7370  135.8820 C   0  0  0  0  0  3  0  0  0  0  0  0
  195.8770  171.9320  136.2980 C   0  0  0  0  0  3  0  0  0  0  0  0
  192.3190  175.1760  136.0870 C   0  0  0  0  0  0  0  0  0  0  0  0
  197.7250  171.4960  137.6900 F   0  0  0  0  0  0  0  0  0  0  0  0
  189.9490  175.9860  136.6270 C   0  0  2  0  0  3  0  0  0  0  0  0
  196.5870  173.5500  138.1250 C   0  0  2  0  0  3  0  0  0  0  0  0
  195.4620  174.4990  137.6740 C   0  0  2  0  0  3  0  0  0  0  0  0
  191.1800  176.7590  134.6020 C   0  0  0  0  0  3  0  0  0  0  0  0
  186.8030  175.9070  138.0230 C   0  0  0  0  0  2  0  0  0  0  0  0
  186.2340  176.1840  136.7150 N   0  0  0  0  0  2  0  0  0  0  0  0
  186.0030  174.9050  136.0590 C   0  0  0  0  0  2  0  0  0  0  0  0
  187.4870  170.6480  135.2070 C   0  0  0  0  0  1  0  0  0  0  0  0
  184.7210  170.1760  135.4250 O   0  0  0  0  0  0  0  0  0  0  0  0
  188.3000  172.8930  136.7030 O   0  0  0  0  0  0  0  0  0  0  0  0
  186.5690  171.5320  135.9120 N   0  0  0  0  0  0  0  0  0  0  0  0
  184.2770  172.0610  136.7980 C   0  0  0  0  0  0  0  0  0  0  0  0
  184.7190  173.2120  137.3120 C   0  0  0  0  0  3  0  0  0  0  0  0
  186.0990  173.7590  137.0600 C   0  0  1  0  0  3  0  0  0  0  0  0
  185.1750  171.2070  136.0000 C   0  0  0  0  0  0  0  0  0  0  0  0
  187.0580  172.7070  136.5710 C   0  0  0  0  0  0  0  0  0  0  0  0
  182.8650  171.6580  137.0450 C   0  0  0  0  0  2  0  0  0  0  0  0
  182.0560  172.7940  137.0900 O   0  0  0  0  0  1  0  0  0  0  0  0
  187.6720  177.7860  142.2570 C   0  0  1  0  0  3  0  0  0  0  0  0
  187.9290  175.6100  143.6030 C   0  0  0  0  0  1  0  0  0  0  0  0
  188.5950  176.8900  143.1010 C   0  0  2  0  0  3  0  0  0  0  0  0
  189.1750  177.7020  144.2590 C   0  0  2  0  0  3  0  0  0  0  0  0
  191.5150  178.5160  144.0810 C   0  0  0  0  0  2  0  0  0  0  0  0
  190.6370  177.3480  144.4900 C   0  0  0  0  0  3  0  0  0  0  0  0
  191.3540  177.3270  143.1540 C   0  0  0  0  0  2  0  0  0  0  0  0
  188.4340  177.5000  145.4310 O   0  0  0  0  0  0  0  0  0  0  0  0
  189.3900  177.3200  146.4350 C   0  0  0  0  0  2  0  0  0  0  0  0
  188.6980  177.1110  147.7790 C   0  0  0  0  0  2  0  0  0  0  0  0
  187.7660  178.2810  148.0780 C   0  0  0  0  0  1  0  0  0  0  0  0
  185.4040  179.2040  141.9170 C   0  0  0  0  0  1  0  0  0  0  0  0
  186.3420  178.4870  143.3020 S   0  0  0  0  0  0  0  0  0  0  0  0
  1  4  1  1  0  0  0
  3 26  1  1  0  0  0
  3  1  1  0  0  0  0
  3  2  1  0  0  0  0
  5  4  1  1  0  0  0
  5  6  1  0  0  0  0
  6 40  1  1  0  0  0
  7  2  1  1  0  0  0
  7  5  1  0  0  0  0
  7  6  1  0  0  0  0
  8 21  1  6  0  0  0
  8 23  1  0  0  0  0
  9 14  1  1  0  0  0
  9  1  1  0  0  0  0
 10 15  2  0  0  0  0
 11 14  1  1  0  0  0
 12 16  1  0  0  0  0
 15 24  1  0  0  0  0
 17 20  1  0  0  0  0
 18 19  2  0  0  0  0
 18 15  1  0  0  0  0
 19  8  1  0  0  0  0
 20 10  2  0  0  0  0
 20 11  1  0  0  0  0
 22 16  1  6  0  0  0
 22 11  1  0  0  0  0
 22  9  1  0  0  0  0
 23 13  1  1  0  0  0
 24 23  1  0  0  0  0
 24 13  1  1  0  0  0
 25 17  1  0  0  0  0
 25 16  2  0  0  0  0
 27 26  1  0  0  0  0
 28 27  1  0  0  0  0
 29 32  1  0  0  0  0
 30 36  2  0  0  0  0
 32 36  1  0  0  0  0
 32 37  1  0  0  0  0
 33 38  1  0  0  0  0
 33 34  2  0  0  0  0
 35 28  1  6  0  0  0
 35 34  1  0  0  0  0
 36 33  1  0  0  0  0
 37 31  2  0  0  0  0
 37 35  1  0  0  0  0
 38 39  1  0  0  0  0
 40 42  1  0  0  0  0
 40 52  1  1  0  0  0
 42 41  1  1  0  0  0
 42 43  1  0  0  0  0
 43 45  1  0  0  0  0
 43 47  1  1  0  0  0
 44 45  1  0  0  0  0
 46 44  1  0  0  0  0
 46 45  1  0  0  0  0
 47 48  1  0  0  0  0
 48 49  1  0  0  0  0
 49 50  1  0  0  0  0
 51 52  1  0  0  0  0
M  END
>  <MODEL>
9

>  <REMARK>
 VINA RESULT:      -5.0      4.294     10.262
  Name = 
  14 active torsions:
  status: ('A' for Active; 'I' for Inactive)
    1  A    between atoms: C_2  and  C_19
    2  A    between atoms: N_3  and  C_6
    3  A    between atoms: O_4  and  C_7
    4  A    between atoms: O_4  and  C_19
    5  A    between atoms: C_7  and  C_15
    6  A    between atoms: C_7  and  C_22
    7  A    between atoms: C_8  and  C_34
    8  A    between atoms: C_8  and  N_43
    9  A    between atoms: C_15  and  C_51
   10  A    between atoms: C_24  and  C_28
   11  A    between atoms: C_31  and  C_35
   12  A    between atoms: C_31  and  N_43
   13  A    between atoms: S_41  and  C_51
   14  A    between atoms: C_48  and  C_51
                            x       y       z     vdW  Elec       q    Type
                         _______ _______ _______ _____ _____    ______ ____

>  <TORSDO>
F 14

$$$$
