=
 OpenBabel10222420433D

 66 77  0  0  1  0  0  0  0  0999 V2000
  184.1010  176.1980  135.6800 C   0  0  0  0  0  2  0  0  0  0  0  0
  189.7440  176.9760  136.5610 N   0  0  0  0  0  0  0  0  0  0  0  0
  185.0830  178.4420  135.5440 C   0  0  0  0  0  2  0  0  0  0  0  0
  189.3520  177.8950  140.7190 C   0  0  0  0  0  3  0  0  0  0  0  0
  185.9550  178.2350  138.1940 C   0  0  0  0  0  2  0  0  0  0  0  0
  188.5460  176.8250  135.7340 C   0  0  2  0  0  3  0  0  0  0  0  0
  182.9920  177.0110  136.2210 N   0  0  0  0  0  0  0  0  0  0  0  0
  187.2800  177.8840  137.5670 C   0  0  2  0  0  3  0  0  0  0  0  0
  188.2810  177.8030  139.9330 C   0  0  0  0  0  3  0  0  0  0  0  0
  187.4070  177.6740  136.2310 C   0  0  2  0  0  3  0  0  0  0  0  0
  184.9190  177.1630  137.8380 C   0  0  0  0  0  2  0  0  0  0  0  0
  189.6360  177.2520  137.9670 C   0  0  0  0  0  0  0  0  0  0  0  0
  184.4020  177.4000  136.4290 C   0  0  1  0  0  0  0  0  0  0  0  0
  188.4320  177.6120  138.4740 C   0  0  0  0  0  0  0  0  0  0  0  0
  190.7280  177.9130  140.1170 C   0  0  2  0  0  3  0  0  0  0  0  0
  191.0230  176.6130  135.9750 C   0  0  0  0  0  1  0  0  0  0  0  0
  186.4320  178.0500  135.2780 O   0  0  0  0  0  0  0  0  0  0  0  0
  190.8010  176.9960  138.8930 C   0  0  0  0  0  2  0  0  0  0  0  0
  188.0910  171.9540  136.9750 C   0  0  0  0  0  3  0  0  0  0  0  0
  188.0060  173.2050  136.3830 C   0  0  0  0  0  0  0  0  0  0  0  0
  186.8830  171.3350  136.6130 C   0  0  0  0  0  3  0  0  0  0  0  0
  186.5380  174.8700  135.1950 S   0  0  0  0  0  0  0  0  0  0  0  0
  188.7690  174.3530  136.3960 C   0  0  0  0  0  3  0  0  0  0  0  0
  186.8340  173.3160  135.7600 C   0  0  0  0  0  0  0  0  0  0  0  0
  188.0780  175.3970  135.7440 C   0  0  0  0  0  0  0  0  0  0  0  0
  186.1230  172.1910  135.8750 N   0  0  0  0  0  0  0  0  0  0  0  0
  184.5560  170.4940  135.1160 C   0  0  0  0  0  0  0  0  0  0  0  0
  183.2300  170.0240  135.6320 C   0  0  0  0  0  2  0  0  0  0  0  0
  185.4160  169.6280  134.5940 C   0  0  0  0  0  2  0  0  0  0  0  0
  182.9730  172.4200  136.6590 C   0  0  1  0  0  3  0  0  0  0  0  0
  182.7640  170.8940  136.8070 C   0  0  1  0  0  3  0  0  0  0  0  0
  183.7840  172.7990  135.4100 C   0  0  0  0  0  2  0  0  0  0  0  0
  184.9050  171.8800  135.2500 N   0  0  0  0  0  0  0  0  0  0  0  0
  181.6410  171.7810  136.2990 C   0  0  0  0  0  2  0  0  0  0  0  0
  192.7670  176.9550  140.8300 O   0  0  0  0  0  0  0  0  0  0  0  0
  191.7680  177.5870  141.1360 C   0  0  0  0  0  0  0  0  0  0  0  0
  191.5480  178.0060  142.5520 C   0  0  0  0  0  2  0  0  0  0  0  0
  191.2610  176.7980  143.4230 C   0  0  0  0  0  2  0  0  0  0  0  0
  189.5540  177.0120  145.2590 C   0  0  1  0  0  3  0  0  0  0  0  0
  191.0180  177.2280  144.8580 C   0  0  1  0  0  3  0  0  0  0  0  0
  191.6500  176.5470  147.1270 C   0  0  0  0  0  3  0  0  0  0  0  0
  189.3840  177.2470  146.7030 N   0  0  0  0  0  0  0  0  0  0  0  0
  187.9990  177.8380  148.4960 O   0  0  0  0  0  0  0  0  0  0  0  0
  190.4610  176.9240  147.5990 C   0  0  0  0  0  3  0  0  0  0  0  0
  188.7300  177.8670  144.5110 O   0  0  0  0  0  1  0  0  0  0  0  0
  191.8780  176.5250  145.7500 O   0  0  0  0  0  0  0  0  0  0  0  0
  188.0930  177.5340  147.2740 C   0  0  0  0  0  0  0  0  0  0  0  0
  186.9450  177.4620  146.4770 O   0  0  0  0  0  0  0  0  0  0  0  0
  186.0870  178.5700  146.2970 C   0  0  0  0  0  1  0  0  0  0  0  0
  182.4510  177.7800  135.1670 N   0  0  0  0  0  2  0  0  0  0  0  0
  179.7760  176.0360  134.6770 O   0  0  0  0  0  0  0  0  0  0  0  0
  180.5090  176.7790  138.0060 N   0  0  0  0  0  0  0  0  0  0  0  0
  181.4540  178.6820  135.7290 C   0  0  1  0  0  3  0  0  0  0  0  0
  180.4020  175.7560  136.9680 C   0  0  2  0  0  3  0  0  0  0  0  0
  180.0870  178.0150  135.9870 C   0  0  1  0  0  3  0  0  0  0  0  0
  181.6850  178.7830  137.2340 C   0  0  1  0  0  3  0  0  0  0  0  0
  180.0340  176.5360  135.7610 C   0  0  0  0  0  0  0  0  0  0  0  0
  178.9310  173.6950  136.3470 C   0  0  0  0  0  1  0  0  0  0  0  0
  179.1840  174.4280  138.6510 C   0  0  0  0  0  3  0  0  0  0  0  0
  179.4260  174.6690  137.3580 C   0  0  0  0  0  0  0  0  0  0  0  0
  181.6450  180.1230  137.6240 O   0  0  0  0  0  1  0  0  0  0  0  0
  180.3400  176.4460  139.3930 C   0  0  0  0  0  0  0  0  0  0  0  0
  180.3350  178.1390  137.4940 C   0  0  2  0  0  3  0  0  0  0  0  0
  179.7020  175.3130  139.7100 C   0  0  0  0  0  3  0  0  0  0  0  0
  182.1790  177.6330  140.2810 O   0  0  0  0  0  1  0  0  0  0  0  0
  180.8250  177.3630  140.4700 C   0  0  0  0  0  2  0  0  0  0  0  0
  1  7  1  0  0  0  0
  1 13  1  0  0  0  0
  2 12  1  0  0  0  0
  6 25  1  1  0  0  0
  6 10  1  0  0  0  0
  6  2  1  0  0  0  0
  7 13  1  0  0  0  0
  8  5  1  1  0  0  0
  8 14  1  0  0  0  0
  9  4  2  0  0  0  0
 10 17  1  1  0  0  0
 10  8  1  0  0  0  0
 11  5  1  0  0  0  0
 12 14  2  0  0  0  0
 12 18  1  0  0  0  0
 13  3  1  6  0  0  0
 13 11  1  0  0  0  0
 14  9  1  0  0  0  0
 15  4  1  0  0  0  0
 15 36  1  1  0  0  0
 16  2  1  0  0  0  0
 17  3  1  0  0  0  0
 18 15  1  0  0  0  0
 20 23  1  0  0  0  0
 20 19  1  0  0  0  0
 21 19  2  0  0  0  0
 22 25  1  0  0  0  0
 22 24  1  0  0  0  0
 24 26  1  0  0  0  0
 24 20  2  0  0  0  0
 25 23  2  0  0  0  0
 26 21  1  0  0  0  0
 27 33  1  0  0  0  0
 27 28  1  0  0  0  0
 29 27  2  0  0  0  0
 30 32  1  6  0  0  0
 30 31  1  0  0  0  0
 31 28  1  6  0  0  0
 33 32  1  0  0  0  0
 33 26  1  0  0  0  0
 34 30  1  0  0  0  0
 34 31  1  0  0  0  0
 35 36  2  0  0  0  0
 36 37  1  0  0  0  0
 37 38  1  0  0  0  0
 39 45  1  6  0  0  0
 39 42  1  0  0  0  0
 40 38  1  6  0  0  0
 40 39  1  0  0  0  0
 40 46  1  0  0  0  0
 41 44  2  0  0  0  0
 42 47  1  0  0  0  0
 42 44  1  0  0  0  0
 46 41  1  0  0  0  0
 47 43  2  0  0  0  0
 48 47  1  0  0  0  0
 49 48  1  0  0  0  0
 50  7  1  0  0  0  0
 51 57  2  0  0  0  0
 52 62  1  0  0  0  0
 53 50  1  6  0  0  0
 53 55  1  0  0  0  0
 53 56  1  0  0  0  0
 54 57  1  6  0  0  0
 54 60  1  0  0  0  0
 54 52  1  0  0  0  0
 55 57  1  1  0  0  0
 55 63  1  0  0  0  0
 56 63  1  0  0  0  0
 56 61  1  1  0  0  0
 58 60  1  0  0  0  0
 59 64  1  0  0  0  0
 60 59  2  0  0  0  0
 62 64  2  0  0  0  0
 62 66  1  0  0  0  0
 63 52  1  1  0  0  0
 65 66  1  0  0  0  0
M  END
>  <MODEL>
1

>  <REMARK>
 VINA RESULT:      -7.7      0.000      0.000
  Name = 
  10 active torsions:
  status: ('A' for Active; 'I' for Inactive)
    1  A    between atoms: C_6  and  C_30
    2  A    between atoms: C_6  and  C_51
    3  A    between atoms: O_13  and  C_65
    4  A    between atoms: C_15  and  C_54
    5  A    between atoms: C_17  and  N_60
    6  A    between atoms: N_21  and  N_60
    7  A    between atoms: C_27  and  C_51
    8  A    between atoms: C_30  and  C_56
    9  A    between atoms: N_39  and  N_62
   10  A    between atoms: C_53  and  C_55
                            x       y       z     vdW  Elec       q    Type
                         _______ _______ _______ _____ _____    ______ ____

>  <TORSDO>
F 10

$$$$
=
 OpenBabel10222420433D

 66 77  0  0  1  0  0  0  0  0999 V2000
  182.3650  177.9150  139.1590 C   0  0  0  0  0  2  0  0  0  0  0  0
  188.0080  178.7600  138.3380 N   0  0  0  0  0  0  0  0  0  0  0  0
  183.4310  179.9970  139.8970 C   0  0  0  0  0  2  0  0  0  0  0  0
  189.1670  177.3310  142.1990 C   0  0  0  0  0  3  0  0  0  0  0  0
  185.1480  178.5430  141.5610 C   0  0  0  0  0  2  0  0  0  0  0  0
  186.5890  178.9250  138.0200 C   0  0  2  0  0  3  0  0  0  0  0  0
  181.5890  178.1950  140.3840 N   0  0  0  0  0  0  0  0  0  0  0  0
  186.1370  178.7240  140.4370 C   0  0  2  0  0  3  0  0  0  0  0  0
  187.8860  177.5390  141.9000 C   0  0  0  0  0  3  0  0  0  0  0  0
  185.7720  179.2550  139.2410 C   0  0  2  0  0  3  0  0  0  0  0  0
  183.9630  177.7030  141.0710 C   0  0  0  0  0  2  0  0  0  0  0  0
  188.4200  178.2500  139.6170 C   0  0  0  0  0  0  0  0  0  0  0  0
  183.0120  178.5760  140.2720 C   0  0  1  0  0  0  0  0  0  0  0  0
  187.5040  178.1530  140.6100 C   0  0  0  0  0  0  0  0  0  0  0  0
  190.2440  177.8160  141.2710 C   0  0  2  0  0  3  0  0  0  0  0  0
  188.9670  178.9040  137.2560 C   0  0  0  0  0  1  0  0  0  0  0  0
  184.5640  179.9580  139.0250 O   0  0  0  0  0  0  0  0  0  0  0  0
  189.8070  177.6860  139.8100 C   0  0  0  0  0  2  0  0  0  0  0  0
  184.2240  175.7360  134.9060 C   0  0  0  0  0  3  0  0  0  0  0  0
  184.8950  176.3380  135.9590 C   0  0  0  0  0  0  0  0  0  0  0  0
  184.5940  174.3830  135.0080 C   0  0  0  0  0  3  0  0  0  0  0  0
  186.6420  176.0840  137.7540 S   0  0  0  0  0  0  0  0  0  0  0  0
  185.0720  177.6310  136.4000 C   0  0  0  0  0  3  0  0  0  0  0  0
  185.6200  175.4210  136.5970 C   0  0  0  0  0  0  0  0  0  0  0  0
  186.0310  177.6580  137.4370 C   0  0  0  0  0  0  0  0  0  0  0  0
  185.4580  174.2140  136.0470 N   0  0  0  0  0  0  0  0  0  0  0  0
  185.0720  171.8520  136.4740 C   0  0  0  0  0  0  0  0  0  0  0  0
  185.5280  170.6020  135.7860 C   0  0  0  0  0  2  0  0  0  0  0  0
  183.8500  171.9260  136.9880 C   0  0  0  0  0  2  0  0  0  0  0  0
  187.5930  172.0000  134.9850 C   0  0  1  0  0  3  0  0  0  0  0  0
  186.5230  170.9300  134.6650 C   0  0  1  0  0  3  0  0  0  0  0  0
  187.3690  172.6900  136.3400 C   0  0  0  0  0  2  0  0  0  0  0  0
  185.9510  172.9860  136.5150 N   0  0  0  0  0  0  0  0  0  0  0  0
  187.9030  170.5200  135.1480 C   0  0  0  0  0  2  0  0  0  0  0  0
  192.4330  177.1260  140.7080 O   0  0  0  0  0  0  0  0  0  0  0  0
  191.5410  177.1300  141.5420 C   0  0  0  0  0  0  0  0  0  0  0  0
  191.7180  176.4040  142.8340 C   0  0  0  0  0  2  0  0  0  0  0  0
  190.4150  176.3830  143.6120 C   0  0  0  0  0  2  0  0  0  0  0  0
  189.3180  176.9410  145.8080 C   0  0  1  0  0  3  0  0  0  0  0  0
  190.6180  176.9780  144.9940 C   0  0  1  0  0  3  0  0  0  0  0  0
  191.8280  176.4750  147.0660 C   0  0  0  0  0  3  0  0  0  0  0  0
  189.5810  177.3370  147.2020 N   0  0  0  0  0  0  0  0  0  0  0  0
  188.8040  178.2330  149.2200 O   0  0  0  0  0  0  0  0  0  0  0  0
  190.8470  177.0070  147.7980 C   0  0  0  0  0  3  0  0  0  0  0  0
  188.3690  177.7890  145.2160 O   0  0  0  0  0  1  0  0  0  0  0  0
  191.6520  176.2920  145.6940 O   0  0  0  0  0  0  0  0  0  0  0  0
  188.5270  177.7980  148.0660 C   0  0  0  0  0  0  0  0  0  0  0  0
  187.1980  177.7540  147.6330 O   0  0  0  0  0  0  0  0  0  0  0  0
  186.3140  178.8420  147.8090 C   0  0  0  0  0  1  0  0  0  0  0  0
  180.7850  179.3320  140.1490 N   0  0  0  0  0  2  0  0  0  0  0  0
  179.5150  182.2090  139.4090 O   0  0  0  0  0  0  0  0  0  0  0  0
  180.3830  180.1950  136.6960 N   0  0  0  0  0  0  0  0  0  0  0  0
  179.5980  178.9050  139.4190 C   0  0  1  0  0  3  0  0  0  0  0  0
  180.6530  181.4080  137.4640 C   0  0  2  0  0  3  0  0  0  0  0  0
  178.9310  180.0320  138.6040 C   0  0  1  0  0  3  0  0  0  0  0  0
  180.0410  178.2350  138.1220 C   0  0  1  0  0  3  0  0  0  0  0  0
  179.6680  181.3340  138.5710 C   0  0  0  0  0  0  0  0  0  0  0  0
  180.4980  183.9990  137.2150 C   0  0  0  0  0  1  0  0  0  0  0  0
  180.7720  182.5510  135.2820 C   0  0  0  0  0  3  0  0  0  0  0  0
  180.5610  182.6450  136.5990 C   0  0  0  0  0  0  0  0  0  0  0  0
  179.3410  177.0390  137.9500 O   0  0  0  0  0  1  0  0  0  0  0  0
  180.7240  180.1100  135.3030 C   0  0  0  0  0  0  0  0  0  0  0  0
  179.3750  179.3340  137.3150 C   0  0  2  0  0  3  0  0  0  0  0  0
  180.9130  181.2430  134.6160 C   0  0  0  0  0  3  0  0  0  0  0  0
  181.9340  178.0930  135.0920 O   0  0  0  0  0  1  0  0  0  0  0  0
  180.8240  178.7870  134.6130 C   0  0  0  0  0  2  0  0  0  0  0  0
  1  7  1  0  0  0  0
  2 12  1  0  0  0  0
  3 13  1  0  0  0  0
  6 25  1  1  0  0  0
  6  2  1  0  0  0  0
  6 10  1  0  0  0  0
  8 14  1  0  0  0  0
  8  5  1  6  0  0  0
  9  4  2  0  0  0  0
 10 17  1  6  0  0  0
 10  8  1  0  0  0  0
 11  5  1  0  0  0  0
 12 18  1  0  0  0  0
 12 14  2  0  0  0  0
 13  1  1  6  0  0  0
 13  7  1  0  0  0  0
 13 11  1  0  0  0  0
 14  9  1  0  0  0  0
 15 36  1  6  0  0  0
 15  4  1  0  0  0  0
 16  2  1  0  0  0  0
 17  3  1  0  0  0  0
 18 15  1  0  0  0  0
 19 21  2  0  0  0  0
 19 20  1  0  0  0  0
 20 23  1  0  0  0  0
 20 24  2  0  0  0  0
 21 26  1  0  0  0  0
 23 25  2  0  0  0  0
 24 22  1  0  0  0  0
 25 22  1  0  0  0  0
 26 33  1  0  0  0  0
 26 24  1  0  0  0  0
 27 33  1  0  0  0  0
 27 29  2  0  0  0  0
 28 27  1  0  0  0  0
 30 34  1  1  0  0  0
 30 32  1  0  0  0  0
 31 30  1  0  0  0  0
 31 34  1  1  0  0  0
 31 28  1  0  0  0  0
 32 33  1  0  0  0  0
 35 36  2  0  0  0  0
 36 37  1  0  0  0  0
 37 38  1  0  0  0  0
 39 45  1  6  0  0  0
 39 42  1  0  0  0  0
 40 38  1  6  0  0  0
 40 46  1  0  0  0  0
 40 39  1  0  0  0  0
 41 44  2  0  0  0  0
 42 44  1  0  0  0  0
 42 47  1  0  0  0  0
 46 41  1  0  0  0  0
 47 43  2  0  0  0  0
 48 49  1  0  0  0  0
 48 47  1  0  0  0  0
 50  7  1  0  0  0  0
 52 54  1  0  0  0  0
 53 50  1  1  0  0  0
 54 60  1  6  0  0  0
 54 57  1  0  0  0  0
 55 57  1  1  0  0  0
 55 53  1  0  0  0  0
 56 61  1  6  0  0  0
 56 53  1  0  0  0  0
 57 51  2  0  0  0  0
 59 60  2  0  0  0  0
 60 58  1  0  0  0  0
 62 52  1  0  0  0  0
 63 52  1  1  0  0  0
 63 56  1  0  0  0  0
 63 55  1  0  0  0  0
 64 59  1  0  0  0  0
 64 62  2  0  0  0  0
 66 65  1  0  0  0  0
 66 62  1  0  0  0  0
M  END
>  <MODEL>
2

>  <REMARK>
 VINA RESULT:      -7.3      2.166      4.080
  Name = 
  10 active torsions:
  status: ('A' for Active; 'I' for Inactive)
    1  A    between atoms: C_6  and  C_30
    2  A    between atoms: C_6  and  C_51
    3  A    between atoms: O_13  and  C_65
    4  A    between atoms: C_15  and  C_54
    5  A    between atoms: C_17  and  N_60
    6  A    between atoms: N_21  and  N_60
    7  A    between atoms: C_27  and  C_51
    8  A    between atoms: C_30  and  C_56
    9  A    between atoms: N_39  and  N_62
   10  A    between atoms: C_53  and  C_55
                            x       y       z     vdW  Elec       q    Type
                         _______ _______ _______ _____ _____    ______ ____

>  <TORSDO>
F 10

$$$$
=
 OpenBabel10222420433D

 66 77  0  0  1  0  0  0  0  0999 V2000
  182.3790  177.9140  139.2660 C   0  0  0  0  0  2  0  0  0  0  0  0
  188.0320  178.5130  138.3140 N   0  0  0  0  0  0  0  0  0  0  0  0
  183.5130  180.0220  139.7990 C   0  0  0  0  0  2  0  0  0  0  0  0
  189.2000  177.4090  142.2770 C   0  0  0  0  0  3  0  0  0  0  0  0
  185.2090  178.6770  141.5720 C   0  0  0  0  0  2  0  0  0  0  0  0
  186.6150  178.6900  137.9960 C   0  0  2  0  0  3  0  0  0  0  0  0
  181.6270  178.3280  140.4690 N   0  0  0  0  0  0  0  0  0  0  0  0
  186.1880  178.7240  140.4260 C   0  0  2  0  0  3  0  0  0  0  0  0
  187.9210  177.6270  141.9740 C   0  0  0  0  0  3  0  0  0  0  0  0
  185.8240  179.1550  139.1900 C   0  0  2  0  0  3  0  0  0  0  0  0
  183.9950  177.8310  141.1740 C   0  0  0  0  0  2  0  0  0  0  0  0
  188.4460  178.1100  139.6300 C   0  0  0  0  0  0  0  0  0  0  0  0
  183.0580  178.6560  140.3080 C   0  0  1  0  0  0  0  0  0  0  0  0
  187.5400  178.1320  140.6360 C   0  0  0  0  0  0  0  0  0  0  0  0
  190.2780  177.7750  141.2980 C   0  0  2  0  0  3  0  0  0  0  0  0
  188.9800  178.5280  137.2130 C   0  0  0  0  0  1  0  0  0  0  0  0
  184.6340  179.8700  138.9230 O   0  0  0  0  0  0  0  0  0  0  0  0
  189.8190  177.5240  139.8590 C   0  0  0  0  0  2  0  0  0  0  0  0
  185.9700  173.7560  137.1540 C   0  0  0  0  0  3  0  0  0  0  0  0
  185.8710  175.1380  137.1910 C   0  0  0  0  0  0  0  0  0  0  0  0
  184.6490  173.3360  136.9210 C   0  0  0  0  0  3  0  0  0  0  0  0
  184.3350  177.1310  137.2750 S   0  0  0  0  0  0  0  0  0  0  0  0
  186.7320  176.1780  137.4690 C   0  0  0  0  0  3  0  0  0  0  0  0
  184.5970  175.4900  137.0290 C   0  0  0  0  0  0  0  0  0  0  0  0
  186.0130  177.3920  137.5380 C   0  0  0  0  0  0  0  0  0  0  0  0
  183.8220  174.4170  136.8570 N   0  0  0  0  0  0  0  0  0  0  0  0
  181.9320  173.1850  135.9480 C   0  0  0  0  0  0  0  0  0  0  0  0
  180.7400  172.5320  136.5780 C   0  0  0  0  0  2  0  0  0  0  0  0
  182.5270  172.6250  134.9010 C   0  0  0  0  0  2  0  0  0  0  0  0
  181.0270  174.2720  138.5160 C   0  0  1  0  0  3  0  0  0  0  0  0
  180.6930  172.8240  138.0850 C   0  0  1  0  0  3  0  0  0  0  0  0
  181.5250  175.1470  137.3560 C   0  0  0  0  0  2  0  0  0  0  0  0
  182.4570  174.3880  136.5290 N   0  0  0  0  0  0  0  0  0  0  0  0
  179.5840  173.8340  138.3170 C   0  0  0  0  0  2  0  0  0  0  0  0
  192.4420  176.9790  140.7800 O   0  0  0  0  0  0  0  0  0  0  0  0
  191.5590  177.0780  141.6170 C   0  0  0  0  0  0  0  0  0  0  0  0
  191.7270  176.4590  142.9650 C   0  0  0  0  0  2  0  0  0  0  0  0
  190.4230  176.5140  143.7390 C   0  0  0  0  0  2  0  0  0  0  0  0
  189.3810  177.0170  145.9740 C   0  0  1  0  0  3  0  0  0  0  0  0
  190.6580  177.0800  145.1280 C   0  0  1  0  0  3  0  0  0  0  0  0
  191.9250  176.5390  147.1560 C   0  0  0  0  0  3  0  0  0  0  0  0
  189.6780  177.3830  147.3690 N   0  0  0  0  0  0  0  0  0  0  0  0
  188.9480  178.2310  149.4260 O   0  0  0  0  0  0  0  0  0  0  0  0
  190.9610  177.0490  147.9250 C   0  0  0  0  0  3  0  0  0  0  0  0
  188.4110  177.8710  145.4250 O   0  0  0  0  0  1  0  0  0  0  0  0
  191.7140  176.3850  145.7850 O   0  0  0  0  0  0  0  0  0  0  0  0
  188.6440  177.8200  148.2700 C   0  0  0  0  0  0  0  0  0  0  0  0
  187.3040  177.7760  147.8710 O   0  0  0  0  0  0  0  0  0  0  0  0
  186.5740  178.9470  147.5640 C   0  0  0  0  0  1  0  0  0  0  0  0
  180.8530  179.4630  140.1390 N   0  0  0  0  0  2  0  0  0  0  0  0
  179.4970  182.3080  139.4320 O   0  0  0  0  0  0  0  0  0  0  0  0
  180.3220  180.3070  136.6980 N   0  0  0  0  0  0  0  0  0  0  0  0
  179.6530  179.0070  139.4480 C   0  0  1  0  0  3  0  0  0  0  0  0
  180.5890  181.5270  137.4540 C   0  0  2  0  0  3  0  0  0  0  0  0
  178.9350  180.1160  138.6520 C   0  0  1  0  0  3  0  0  0  0  0  0
  180.0690  178.3430  138.1390 C   0  0  1  0  0  3  0  0  0  0  0  0
  179.6420  181.4340  138.5930 C   0  0  0  0  0  0  0  0  0  0  0  0
  180.3690  184.1140  137.2050 C   0  0  0  0  0  1  0  0  0  0  0  0
  180.6130  182.6660  135.2670 C   0  0  0  0  0  3  0  0  0  0  0  0
  180.4420  182.7590  136.5900 C   0  0  0  0  0  0  0  0  0  0  0  0
  179.3910  177.1320  137.9920 O   0  0  0  0  0  1  0  0  0  0  0  0
  180.6200  180.2250  135.2950 C   0  0  0  0  0  0  0  0  0  0  0  0
  179.3530  179.4250  137.3510 C   0  0  2  0  0  3  0  0  0  0  0  0
  180.7620  181.3600  134.6000 C   0  0  0  0  0  3  0  0  0  0  0  0
  182.0200  178.4010  134.7540 O   0  0  0  0  0  1  0  0  0  0  0  0
  180.7280  178.9020  134.6050 C   0  0  0  0  0  2  0  0  0  0  0  0
  1  7  1  0  0  0  0
  2 12  1  0  0  0  0
  3 13  1  0  0  0  0
  6 25  1  1  0  0  0
  6  2  1  0  0  0  0
  6 10  1  0  0  0  0
  8 14  1  0  0  0  0
  8  5  1  6  0  0  0
  9  4  2  0  0  0  0
 10 17  1  6  0  0  0
 10  8  1  0  0  0  0
 11  5  1  0  0  0  0
 12 18  1  0  0  0  0
 12 14  2  0  0  0  0
 13  1  1  6  0  0  0
 13  7  1  0  0  0  0
 13 11  1  0  0  0  0
 14  9  1  0  0  0  0
 15 36  1  1  0  0  0
 15  4  1  0  0  0  0
 16  2  1  0  0  0  0
 17  3  1  0  0  0  0
 18 15  1  0  0  0  0
 19 20  1  0  0  0  0
 20 23  1  0  0  0  0
 21 19  2  0  0  0  0
 22 25  1  0  0  0  0
 23 25  2  0  0  0  0
 24 20  2  0  0  0  0
 24 22  1  0  0  0  0
 26 21  1  0  0  0  0
 26 24  1  0  0  0  0
 27 33  1  0  0  0  0
 27 28  1  0  0  0  0
 29 27  2  0  0  0  0
 30 32  1  6  0  0  0
 31 28  1  6  0  0  0
 31 34  1  0  0  0  0
 31 30  1  0  0  0  0
 33 26  1  0  0  0  0
 33 32  1  0  0  0  0
 34 30  1  0  0  0  0
 35 36  2  0  0  0  0
 36 37  1  0  0  0  0
 37 38  1  0  0  0  0
 39 45  1  6  0  0  0
 39 42  1  0  0  0  0
 40 38  1  6  0  0  0
 40 46  1  0  0  0  0
 40 39  1  0  0  0  0
 41 44  2  0  0  0  0
 42 44  1  0  0  0  0
 42 47  1  0  0  0  0
 46 41  1  0  0  0  0
 47 43  2  0  0  0  0
 48 47  1  0  0  0  0
 49 48  1  0  0  0  0
 50  7  1  0  0  0  0
 52 54  1  0  0  0  0
 53 50  1  6  0  0  0
 54 60  1  6  0  0  0
 54 57  1  0  0  0  0
 55 57  1  6  0  0  0
 55 53  1  0  0  0  0
 56 61  1  1  0  0  0
 56 53  1  0  0  0  0
 57 51  2  0  0  0  0
 59 60  2  0  0  0  0
 60 58  1  0  0  0  0
 62 52  1  0  0  0  0
 63 52  1  6  0  0  0
 63 56  1  0  0  0  0
 63 55  1  0  0  0  0
 64 59  1  0  0  0  0
 64 62  2  0  0  0  0
 66 65  1  0  0  0  0
 66 62  1  0  0  0  0
M  END
>  <MODEL>
3

>  <REMARK>
 VINA RESULT:      -6.8      2.290      3.989
  Name = 
  10 active torsions:
  status: ('A' for Active; 'I' for Inactive)
    1  A    between atoms: C_6  and  C_30
    2  A    between atoms: C_6  and  C_51
    3  A    between atoms: O_13  and  C_65
    4  A    between atoms: C_15  and  C_54
    5  A    between atoms: C_17  and  N_60
    6  A    between atoms: N_21  and  N_60
    7  A    between atoms: C_27  and  C_51
    8  A    between atoms: C_30  and  C_56
    9  A    between atoms: N_39  and  N_62
   10  A    between atoms: C_53  and  C_55
                            x       y       z     vdW  Elec       q    Type
                         _______ _______ _______ _____ _____    ______ ____

>  <TORSDO>
F 10

$$$$
=
 OpenBabel10222420433D

 66 77  0  0  1  0  0  0  0  0999 V2000
  182.7560  177.6750  138.8910 C   0  0  0  0  0  2  0  0  0  0  0  0
  188.3710  178.6330  138.0060 N   0  0  0  0  0  0  0  0  0  0  0  0
  183.7740  179.8060  139.5530 C   0  0  0  0  0  2  0  0  0  0  0  0
  189.5880  177.3610  141.9040 C   0  0  0  0  0  3  0  0  0  0  0  0
  185.5360  178.4520  141.2530 C   0  0  0  0  0  2  0  0  0  0  0  0
  186.9470  178.7510  137.6920 C   0  0  2  0  0  3  0  0  0  0  0  0
  181.9800  177.9760  140.1120 N   0  0  0  0  0  0  0  0  0  0  0  0
  186.5140  178.6190  140.1170 C   0  0  2  0  0  3  0  0  0  0  0  0
  188.3000  177.5280  141.6070 C   0  0  0  0  0  3  0  0  0  0  0  0
  186.1290  179.1020  138.9060 C   0  0  2  0  0  3  0  0  0  0  0  0
  184.3700  177.5660  140.7990 C   0  0  0  0  0  2  0  0  0  0  0  0
  188.8030  178.1750  139.2980 C   0  0  0  0  0  0  0  0  0  0  0  0
  183.3920  178.3890  139.9780 C   0  0  1  0  0  0  0  0  0  0  0  0
  187.8950  178.0890  140.2990 C   0  0  0  0  0  0  0  0  0  0  0  0
  190.6470  177.8420  140.9540 C   0  0  2  0  0  3  0  0  0  0  0  0
  189.3190  178.7640  136.9130 C   0  0  0  0  0  1  0  0  0  0  0  0
  184.9030  179.7660  138.6760 O   0  0  0  0  0  0  0  0  0  0  0  0
  190.2050  177.6520  139.5000 C   0  0  0  0  0  2  0  0  0  0  0  0
  183.7730  175.2660  135.8880 C   0  0  0  0  0  3  0  0  0  0  0  0
  184.8630  175.9650  136.3860 C   0  0  0  0  0  0  0  0  0  0  0  0
  184.3590  174.2130  135.1650 C   0  0  0  0  0  3  0  0  0  0  0  0
  187.3600  176.2790  136.3260 S   0  0  0  0  0  0  0  0  0  0  0  0
  185.0420  177.1380  137.0870 C   0  0  0  0  0  3  0  0  0  0  0  0
  185.9850  175.3870  135.9600 C   0  0  0  0  0  0  0  0  0  0  0  0
  186.4170  177.4520  137.1550 C   0  0  0  0  0  0  0  0  0  0  0  0
  185.7170  174.3110  135.2150 N   0  0  0  0  0  0  0  0  0  0  0  0
  188.0270  173.6190  134.9070 C   0  0  0  0  0  0  0  0  0  0  0  0
  188.8670  172.5520  135.5390 C   0  0  0  0  0  2  0  0  0  0  0  0
  188.5610  174.7940  134.5940 C   0  0  0  0  0  2  0  0  0  0  0  0
  186.6190  171.2770  135.9670 C   0  0  1  0  0  3  0  0  0  0  0  0
  188.0220  171.6800  136.4790 C   0  0  1  0  0  3  0  0  0  0  0  0
  186.2340  171.9720  134.6520 C   0  0  0  0  0  2  0  0  0  0  0  0
  186.6280  173.3760  134.7010 N   0  0  0  0  0  0  0  0  0  0  0  0
  187.8070  170.3450  135.7890 C   0  0  0  0  0  2  0  0  0  0  0  0
  192.6410  176.7360  140.3340 O   0  0  0  0  0  0  0  0  0  0  0  0
  191.9630  177.1970  141.2380 C   0  0  0  0  0  0  0  0  0  0  0  0
  192.4180  177.0810  142.6550 C   0  0  0  0  0  2  0  0  0  0  0  0
  191.4140  176.2880  143.4710 C   0  0  0  0  0  2  0  0  0  0  0  0
  190.0590  177.0150  145.4630 C   0  0  1  0  0  3  0  0  0  0  0  0
  191.4640  176.7140  144.9260 C   0  0  1  0  0  3  0  0  0  0  0  0
  192.0010  175.7550  147.1180 C   0  0  0  0  0  3  0  0  0  0  0  0
  190.1070  177.2320  146.9190 N   0  0  0  0  0  0  0  0  0  0  0  0
  189.1830  178.1970  148.8400 O   0  0  0  0  0  0  0  0  0  0  0  0
  191.0700  176.5090  147.7050 C   0  0  0  0  0  3  0  0  0  0  0  0
  189.5350  178.1380  144.8040 O   0  0  0  0  0  1  0  0  0  0  0  0
  192.0880  175.7130  145.7260 O   0  0  0  0  0  0  0  0  0  0  0  0
  189.0580  177.9330  147.6110 C   0  0  0  0  0  0  0  0  0  0  0  0
  187.8980  178.3080  146.9270 O   0  0  0  0  0  0  0  0  0  0  0  0
  186.6150  177.8690  147.3270 C   0  0  0  0  0  1  0  0  0  0  0  0
  181.1470  179.0850  139.8450 N   0  0  0  0  0  2  0  0  0  0  0  0
  179.9710  179.2380  136.8400 O   0  0  0  0  0  0  0  0  0  0  0  0
  179.8410  176.1000  138.3560 N   0  0  0  0  0  0  0  0  0  0  0  0
  179.7670  178.6850  140.0910 C   0  0  1  0  0  3  0  0  0  0  0  0
  180.4250  176.9380  137.3130 C   0  0  2  0  0  3  0  0  0  0  0  0
  178.9930  178.3020  138.8130 C   0  0  1  0  0  3  0  0  0  0  0  0
  179.7570  177.2230  140.5300 C   0  0  1  0  0  3  0  0  0  0  0  0
  179.8000  178.2630  137.5530 C   0  0  0  0  0  0  0  0  0  0  0  0
  180.4300  177.1740  134.7160 C   0  0  0  0  0  1  0  0  0  0  0  0
  180.0080  175.0380  135.7980 C   0  0  0  0  0  3  0  0  0  0  0  0
  180.1950  176.3550  135.9370 C   0  0  0  0  0  0  0  0  0  0  0  0
  178.9370  177.0760  141.6500 O   0  0  0  0  0  1  0  0  0  0  0  0
  179.7570  174.6740  138.1990 C   0  0  0  0  0  0  0  0  0  0  0  0
  178.9840  176.8430  139.2800 C   0  0  2  0  0  3  0  0  0  0  0  0
  179.8370  174.1570  136.9670 C   0  0  0  0  0  3  0  0  0  0  0  0
  179.1060  172.5290  138.9410 O   0  0  0  0  0  1  0  0  0  0  0  0
  179.5390  173.7800  139.3770 C   0  0  0  0  0  2  0  0  0  0  0  0
  1  7  1  0  0  0  0
  2 12  1  0  0  0  0
  3 13  1  0  0  0  0
  6 25  1  1  0  0  0
  6  2  1  0  0  0  0
  6 10  1  0  0  0  0
  8 14  1  0  0  0  0
  8  5  1  6  0  0  0
  9  4  2  0  0  0  0
 10 17  1  6  0  0  0
 10  8  1  0  0  0  0
 11  5  1  0  0  0  0
 12 18  1  0  0  0  0
 12 14  2  0  0  0  0
 13  1  1  6  0  0  0
 13  7  1  0  0  0  0
 13 11  1  0  0  0  0
 14  9  1  0  0  0  0
 15 36  1  6  0  0  0
 15  4  1  0  0  0  0
 16  2  1  0  0  0  0
 17  3  1  0  0  0  0
 18 15  1  0  0  0  0
 19 20  1  0  0  0  0
 20 23  1  0  0  0  0
 21 26  1  0  0  0  0
 21 19  2  0  0  0  0
 22 25  1  0  0  0  0
 23 25  2  0  0  0  0
 24 22  1  0  0  0  0
 24 20  2  0  0  0  0
 26 24  1  0  0  0  0
 27 28  1  0  0  0  0
 29 27  2  0  0  0  0
 30 32  1  6  0  0  0
 30 31  1  0  0  0  0
 31 28  1  6  0  0  0
 32 33  1  0  0  0  0
 33 27  1  0  0  0  0
 33 26  1  0  0  0  0
 34 30  1  0  0  0  0
 34 31  1  0  0  0  0
 35 36  2  0  0  0  0
 36 37  1  0  0  0  0
 37 38  1  0  0  0  0
 39 45  1  6  0  0  0
 39 42  1  0  0  0  0
 40 38  1  6  0  0  0
 40 39  1  0  0  0  0
 40 46  1  0  0  0  0
 41 44  2  0  0  0  0
 42 47  1  0  0  0  0
 42 44  1  0  0  0  0
 46 41  1  0  0  0  0
 47 43  2  0  0  0  0
 48 49  1  0  0  0  0
 48 47  1  0  0  0  0
 50  7  1  0  0  0  0
 51 57  2  0  0  0  0
 53 50  1  6  0  0  0
 53 56  1  0  0  0  0
 54 60  1  6  0  0  0
 54 57  1  0  0  0  0
 54 52  1  0  0  0  0
 55 57  1  6  0  0  0
 55 63  1  0  0  0  0
 55 53  1  0  0  0  0
 56 61  1  1  0  0  0
 58 60  1  0  0  0  0
 59 60  2  0  0  0  0
 59 64  1  0  0  0  0
 62 52  1  0  0  0  0
 62 66  1  0  0  0  0
 63 52  1  6  0  0  0
 63 56  1  0  0  0  0
 64 62  2  0  0  0  0
 65 66  1  0  0  0  0
M  END
>  <MODEL>
4

>  <REMARK>
 VINA RESULT:      -5.6      1.906      3.280
  Name = 
  10 active torsions:
  status: ('A' for Active; 'I' for Inactive)
    1  A    between atoms: C_6  and  C_30
    2  A    between atoms: C_6  and  C_51
    3  A    between atoms: O_13  and  C_65
    4  A    between atoms: C_15  and  C_54
    5  A    between atoms: C_17  and  N_60
    6  A    between atoms: N_21  and  N_60
    7  A    between atoms: C_27  and  C_51
    8  A    between atoms: C_30  and  C_56
    9  A    between atoms: N_39  and  N_62
   10  A    between atoms: C_53  and  C_55
                            x       y       z     vdW  Elec       q    Type
                         _______ _______ _______ _____ _____    ______ ____

>  <TORSDO>
F 10

$$$$
