=
 OpenBabel10222419343D

 39 41  0  0  1  0  0  0  0  0999 V2000
  190.6120  176.9900  138.7040 C   0  0  0  0  0  0  0  0  0  0  0  0
  188.9040  177.4610  140.9170 C   0  0  1  0  0  3  0  0  0  0  0  0
  191.8490  176.7960  138.5770 O   0  0  0  0  0  0  0  0  0  0  0  0
  190.0550  177.2520  139.9860 N   0  0  0  0  0  0  0  0  0  0  0  0
  190.1750  177.5680  141.4430 C   0  0  2  0  0  3  0  0  0  0  0  0
  190.5570  176.3110  142.2260 C   0  0  2  0  0  3  0  0  0  0  0  0
  188.9970  176.5060  144.2140 C   0  0  0  0  0  3  0  0  0  0  0  0
  189.3510  175.7300  142.9680 C   0  0  0  0  0  2  0  0  0  0  0  0
  191.6820  176.5670  143.2310 C   0  0  0  0  0  2  0  0  0  0  0  0
  191.2470  177.5770  144.2900 C   0  0  0  0  0  2  0  0  0  0  0  0
  189.8810  177.2870  144.8570 C   0  0  0  0  0  0  0  0  0  0  0  0
  189.4850  178.0050  146.1040 C   0  0  0  0  0  2  0  0  0  0  0  0
  188.3470  177.2810  146.8060 C   0  0  0  0  0  2  0  0  0  0  0  0
  187.1990  178.2420  147.0520 C   0  0  0  0  0  2  0  0  0  0  0  0
  184.7440  178.4910  144.2780 C   0  0  0  0  0  2  0  0  0  0  0  0
  183.8990  178.8390  145.4840 C   0  0  0  0  0  2  0  0  0  0  0  0
  184.7500  178.5740  146.7140 C   0  0  0  0  0  2  0  0  0  0  0  0
  186.1520  178.2860  144.7890 C   0  0  0  0  0  2  0  0  0  0  0  0
  185.9850  177.8520  146.2250 C   0  0  0  0  0  3  0  0  0  0  0  0
  189.5640  176.9560  137.2600 S   0  0  0  0  0  0  0  0  0  0  0  0
  190.8820  176.2340  136.2480 C   0  0  0  0  0  1  0  0  0  0  0  0
  188.3790  178.7390  140.7370 O   0  0  0  0  0  0  0  0  0  0  0  0
  187.1280  178.5370  140.1490 C   0  0  0  0  0  2  0  0  0  0  0  0
  186.0210  178.8530  141.1470 C   0  0  0  0  0  2  0  0  0  0  0  0
  184.5800  179.7210  139.4290 N   0  0  0  0  0  2  0  0  0  0  0  0
  184.7030  178.9640  140.4560 C   0  0  0  0  0  0  0  0  0  0  0  0
  183.6050  178.0140  140.8410 C   0  0  0  0  0  2  0  0  0  0  0  0
  182.1940  178.5390  140.5630 C   0  0  2  0  0  3  0  0  0  0  0  0
  181.5130  178.8560  141.7420 O   0  0  0  0  0  1  0  0  0  0  0  0
  181.3540  177.6990  139.5930 C   0  0  2  0  0  3  0  0  0  0  0  0
  179.9990  177.7810  139.9190 O   0  0  0  0  0  1  0  0  0  0  0  0
  181.0390  175.3710  139.9270 O   0  0  0  0  0  0  0  0  0  0  0  0
  181.7770  176.2630  139.4340 C   0  0  0  0  0  0  0  0  0  0  0  0
  182.9810  175.8800  138.8340 O   0  0  0  0  0  0  0  0  0  0  0  0
  183.1720  175.8310  137.4290 C   0  0  0  0  0  2  0  0  0  0  0  0
  183.8980  177.0800  136.9550 C   0  0  0  0  0  2  0  0  0  0  0  0
  185.9390  175.6650  137.1680 O   0  0  0  0  0  1  0  0  0  0  0  0
  186.1450  177.9200  136.8380 O   0  0  0  0  0  0  0  0  0  0  0  0
  185.3880  176.9300  137.0100 C   0  0  0  0  0  0  0  0  0  0  0  0
  1  4  1  0  0  0  0
  2 22  1  6  0  0  0
  2  5  1  0  0  0  0
  3  1  2  0  0  0  0
  4  2  1  0  0  0  0
  5  4  1  6  0  0  0
  5  6  1  0  0  0  0
  6  8  1  1  0  0  0
  6  9  1  0  0  0  0
  7 11  2  0  0  0  0
  8  7  1  0  0  0  0
  9 10  1  0  0  0  0
 10 11  1  0  0  0  0
 11 12  1  0  0  0  0
 12 13  1  0  0  0  0
 13 14  1  0  0  0  0
 15 18  1  0  0  0  0
 15 16  1  0  0  0  0
 16 17  1  0  0  0  0
 18 19  1  0  0  0  0
 19 17  1  0  0  0  0
 19 14  1  0  0  0  0
 20  1  1  0  0  0  0
 21 20  1  0  0  0  0
 23 22  1  0  0  0  0
 23 24  1  0  0  0  0
 25 26  2  0  0  0  0
 26 27  1  0  0  0  0
 26 24  1  0  0  0  0
 28 27  1  0  0  0  0
 28 29  1  1  0  0  0
 30 31  1  1  0  0  0
 30 28  1  0  0  0  0
 33 30  1  0  0  0  0
 33 32  2  0  0  0  0
 34 33  1  0  0  0  0
 35 34  1  0  0  0  0
 36 39  1  0  0  0  0
 36 35  1  0  0  0  0
 38 39  2  0  0  0  0
 39 37  1  0  0  0  0
M  END
>  <MODEL>
1

>  <REMARK>
 VINA RESULT:      -7.2      0.000      0.000
  Name = 
  18 active torsions:
  status: ('A' for Active; 'I' for Inactive)
    1  A    between atoms: C_2  and  C_6
    2  A    between atoms: C_2  and  C_27
    3  A    between atoms: C_4  and  C_30
    4  A    between atoms: C_5  and  C_6
    5  A    between atoms: C_5  and  C_38
    6  A    between atoms: C_8  and  C_34
    7  A    between atoms: C_8  and  C_36
    8  A    between atoms: O_10  and  C_33
    9  A    between atoms: O_10  and  C_36
   10  A    between atoms: C_12  and  S_24
   11  A    between atoms: C_13  and  C_32
   12  A    between atoms: C_13  and  C_33
   13  A    between atoms: C_15  and  O_17
   14  A    between atoms: O_17  and  C_37
   15  A    between atoms: C_19  and  C_23
   16  A    between atoms: C_19  and  C_34
   17  A    between atoms: C_23  and  C_26
   18  A    between atoms: C_26  and  C_37
                            x       y       z     vdW  Elec       q    Type
                         _______ _______ _______ _____ _____    ______ ____

>  <TORSDO>
F 18

$$$$
=
 OpenBabel10222419343D

 39 41  0  0  1  0  0  0  0  0999 V2000
  192.0850  177.0270  139.4850 C   0  0  0  0  0  0  0  0  0  0  0  0
  189.6200  177.2540  140.8680 C   0  0  1  0  0  3  0  0  0  0  0  0
  193.2930  177.0690  139.8350 O   0  0  0  0  0  0  0  0  0  0  0  0
  191.0530  177.2310  140.4440 N   0  0  0  0  0  0  0  0  0  0  0  0
  190.5660  177.6240  141.8010 C   0  0  2  0  0  3  0  0  0  0  0  0
  190.8250  176.4970  142.8020 C   0  0  2  0  0  3  0  0  0  0  0  0
  188.6090  176.4430  144.0310 C   0  0  0  0  0  3  0  0  0  0  0  0
  189.5460  175.7120  143.1000 C   0  0  0  0  0  2  0  0  0  0  0  0
  191.4120  177.0080  144.1200 C   0  0  0  0  0  2  0  0  0  0  0  0
  190.4340  177.9460  144.8230 C   0  0  0  0  0  2  0  0  0  0  0  0
  189.0270  177.4070  144.8680 C   0  0  0  0  0  0  0  0  0  0  0  0
  188.0610  178.0730  145.7920 C   0  0  0  0  0  2  0  0  0  0  0  0
  186.6450  177.5880  145.5340 C   0  0  0  0  0  2  0  0  0  0  0  0
  185.6500  178.6530  145.9560 C   0  0  0  0  0  2  0  0  0  0  0  0
  182.9580  178.9200  143.4130 C   0  0  0  0  0  2  0  0  0  0  0  0
  184.1380  178.4650  142.5820 C   0  0  0  0  0  2  0  0  0  0  0  0
  185.3600  178.5130  143.4830 C   0  0  0  0  0  2  0  0  0  0  0  0
  183.4400  178.9720  144.8450 C   0  0  0  0  0  2  0  0  0  0  0  0
  184.9250  179.2200  144.7470 C   0  0  0  0  0  3  0  0  0  0  0  0
  191.6740  176.7330  137.7740 S   0  0  0  0  0  0  0  0  0  0  0  0
  193.3360  176.1030  137.4230 C   0  0  0  0  0  1  0  0  0  0  0  0
  189.0010  178.3990  140.3720 O   0  0  0  0  0  0  0  0  0  0  0  0
  187.8920  177.9320  139.6610 C   0  0  0  0  0  2  0  0  0  0  0  0
  188.2160  177.8510  138.1750 C   0  0  0  0  0  2  0  0  0  0  0  0
  187.1990  175.8130  137.4020 N   0  0  0  0  0  2  0  0  0  0  0  0
  187.1570  177.0940  137.4440 C   0  0  0  0  0  0  0  0  0  0  0  0
  185.9420  177.8360  136.9650 C   0  0  0  0  0  2  0  0  0  0  0  0
  184.6160  177.2610  137.4700 C   0  0  2  0  0  3  0  0  0  0  0  0
  183.6190  177.3130  136.4920 O   0  0  0  0  0  1  0  0  0  0  0  0
  184.1460  177.7800  138.8350 C   0  0  2  0  0  3  0  0  0  0  0  0
  183.2980  176.8560  139.4460 O   0  0  0  0  0  1  0  0  0  0  0  0
  184.2770  180.1410  139.0440 O   0  0  0  0  0  0  0  0  0  0  0  0
  183.5260  179.1520  138.8350 C   0  0  0  0  0  0  0  0  0  0  0  0
  182.1530  179.3740  138.6890 O   0  0  0  0  0  0  0  0  0  0  0  0
  181.5060  179.4650  137.4290 C   0  0  0  0  0  2  0  0  0  0  0  0
  180.4710  180.5780  137.4500 C   0  0  0  0  0  2  0  0  0  0  0  0
  180.0800  181.6060  139.6880 O   0  0  0  0  0  1  0  0  0  0  0  0
  181.6970  182.4560  138.3100 O   0  0  0  0  0  0  0  0  0  0  0  0
  180.7740  181.6200  138.4840 C   0  0  0  0  0  0  0  0  0  0  0  0
  1  3  2  0  0  0  0
  1  4  1  0  0  0  0
  2 22  1  6  0  0  0
  2  5  1  0  0  0  0
  4  2  1  0  0  0  0
  5  4  1  6  0  0  0
  5  6  1  0  0  0  0
  6  8  1  1  0  0  0
  6  9  1  0  0  0  0
  7 11  2  0  0  0  0
  8  7  1  0  0  0  0
  9 10  1  0  0  0  0
 10 11  1  0  0  0  0
 11 12  1  0  0  0  0
 13 12  1  0  0  0  0
 13 14  1  0  0  0  0
 15 18  1  0  0  0  0
 16 15  1  0  0  0  0
 16 17  1  0  0  0  0
 17 19  1  0  0  0  0
 19 18  1  0  0  0  0
 19 14  1  0  0  0  0
 20  1  1  0  0  0  0
 21 20  1  0  0  0  0
 23 22  1  0  0  0  0
 24 23  1  0  0  0  0
 25 26  2  0  0  0  0
 26 24  1  0  0  0  0
 27 26  1  0  0  0  0
 27 28  1  0  0  0  0
 28 29  1  6  0  0  0
 28 30  1  0  0  0  0
 30 31  1  6  0  0  0
 33 30  1  0  0  0  0
 33 32  2  0  0  0  0
 34 33  1  0  0  0  0
 35 36  1  0  0  0  0
 35 34  1  0  0  0  0
 36 39  1  0  0  0  0
 38 39  2  0  0  0  0
 39 37  1  0  0  0  0
M  END
>  <MODEL>
2

>  <REMARK>
 VINA RESULT:      -7.2      2.152      3.537
  Name = 
  18 active torsions:
  status: ('A' for Active; 'I' for Inactive)
    1  A    between atoms: C_2  and  C_6
    2  A    between atoms: C_2  and  C_27
    3  A    between atoms: C_4  and  C_30
    4  A    between atoms: C_5  and  C_6
    5  A    between atoms: C_5  and  C_38
    6  A    between atoms: C_8  and  C_34
    7  A    between atoms: C_8  and  C_36
    8  A    between atoms: O_10  and  C_33
    9  A    between atoms: O_10  and  C_36
   10  A    between atoms: C_12  and  S_24
   11  A    between atoms: C_13  and  C_32
   12  A    between atoms: C_13  and  C_33
   13  A    between atoms: C_15  and  O_17
   14  A    between atoms: O_17  and  C_37
   15  A    between atoms: C_19  and  C_23
   16  A    between atoms: C_19  and  C_34
   17  A    between atoms: C_23  and  C_26
   18  A    between atoms: C_26  and  C_37
                            x       y       z     vdW  Elec       q    Type
                         _______ _______ _______ _____ _____    ______ ____

>  <TORSDO>
F 18

$$$$
=
 OpenBabel10222419343D

 39 41  0  0  1  0  0  0  0  0999 V2000
  192.4780  176.9830  139.4000 C   0  0  0  0  0  0  0  0  0  0  0  0
  189.9350  177.0730  140.6500 C   0  0  1  0  0  3  0  0  0  0  0  0
  193.6600  177.1320  139.8060 O   0  0  0  0  0  0  0  0  0  0  0  0
  191.3850  177.1440  140.2970 N   0  0  0  0  0  0  0  0  0  0  0  0
  190.8000  177.5510  141.6120 C   0  0  2  0  0  3  0  0  0  0  0  0
  191.0920  176.4880  142.6720 C   0  0  2  0  0  3  0  0  0  0  0  0
  188.8900  176.4630  143.9270 C   0  0  0  0  0  3  0  0  0  0  0  0
  189.8310  175.6970  143.0280 C   0  0  0  0  0  2  0  0  0  0  0  0
  191.6820  177.0840  143.9520 C   0  0  0  0  0  2  0  0  0  0  0  0
  190.6930  178.0420  144.6120 C   0  0  0  0  0  2  0  0  0  0  0  0
  189.2980  177.4810  144.7030 C   0  0  0  0  0  0  0  0  0  0  0  0
  188.3290  178.1800  145.5990 C   0  0  0  0  0  2  0  0  0  0  0  0
  187.0210  177.4120  145.6840 C   0  0  0  0  0  2  0  0  0  0  0  0
  185.9210  178.3220  146.1990 C   0  0  0  0  0  2  0  0  0  0  0  0
  183.1450  178.9620  143.8180 C   0  0  0  0  0  2  0  0  0  0  0  0
  184.2200  178.4020  142.9120 C   0  0  0  0  0  2  0  0  0  0  0  0
  185.4860  178.2870  143.7440 C   0  0  0  0  0  2  0  0  0  0  0  0
  183.7060  178.9190  145.2210 C   0  0  0  0  0  2  0  0  0  0  0  0
  185.2020  179.0020  145.0450 C   0  0  0  0  0  3  0  0  0  0  0  0
  192.1800  176.5910  137.6850 S   0  0  0  0  0  0  0  0  0  0  0  0
  191.4950  174.9700  138.1140 C   0  0  0  0  0  1  0  0  0  0  0  0
  189.2580  178.1460  140.0760 O   0  0  0  0  0  0  0  0  0  0  0  0
  188.7880  177.6650  138.8510 C   0  0  0  0  0  2  0  0  0  0  0  0
  188.9730  178.7180  137.7660 C   0  0  0  0  0  2  0  0  0  0  0  0
  189.0630  177.7480  135.5680 N   0  0  0  0  0  2  0  0  0  0  0  0
  188.3430  178.2760  136.4880 C   0  0  0  0  0  0  0  0  0  0  0  0
  186.8440  178.2500  136.3940 C   0  0  0  0  0  2  0  0  0  0  0  0
  186.2740  176.9680  135.7820 C   0  0  2  0  0  3  0  0  0  0  0  0
  185.5770  177.2200  134.5960 O   0  0  0  0  0  1  0  0  0  0  0  0
  185.5050  176.0580  136.7480 C   0  0  2  0  0  3  0  0  0  0  0  0
  185.8570  174.7220  136.5500 O   0  0  0  0  0  1  0  0  0  0  0  0
  183.3110  175.2790  136.2850 O   0  0  0  0  0  0  0  0  0  0  0  0
  184.0080  176.2190  136.7480 C   0  0  0  0  0  0  0  0  0  0  0  0
  183.3620  177.3870  137.1670 O   0  0  0  0  0  0  0  0  0  0  0  0
  182.4830  177.4360  138.2800 C   0  0  0  0  0  2  0  0  0  0  0  0
  183.2030  178.0040  139.4920 C   0  0  0  0  0  2  0  0  0  0  0  0
  184.8210  179.8900  139.6940 O   0  0  0  0  0  1  0  0  0  0  0  0
  182.7570  180.2520  138.7740 O   0  0  0  0  0  0  0  0  0  0  0  0
  183.5570  179.4500  139.3200 C   0  0  0  0  0  0  0  0  0  0  0  0
  1  3  2  0  0  0  0
  1  4  1  0  0  0  0
  2 22  1  6  0  0  0
  2  5  1  0  0  0  0
  4  2  1  0  0  0  0
  5  4  1  6  0  0  0
  5  6  1  0  0  0  0
  6  8  1  1  0  0  0
  6  9  1  0  0  0  0
  7 11  2  0  0  0  0
  8  7  1  0  0  0  0
  9 10  1  0  0  0  0
 10 11  1  0  0  0  0
 11 12  1  0  0  0  0
 12 13  1  0  0  0  0
 13 14  1  0  0  0  0
 15 18  1  0  0  0  0
 16 17  1  0  0  0  0
 16 15  1  0  0  0  0
 17 19  1  0  0  0  0
 19 18  1  0  0  0  0
 19 14  1  0  0  0  0
 20 21  1  0  0  0  0
 20  1  1  0  0  0  0
 23 22  1  0  0  0  0
 24 23  1  0  0  0  0
 25 26  2  0  0  0  0
 26 24  1  0  0  0  0
 27 26  1  0  0  0  0
 28 29  1  6  0  0  0
 28 27  1  0  0  0  0
 28 30  1  0  0  0  0
 30 31  1  6  0  0  0
 32 33  2  0  0  0  0
 33 30  1  0  0  0  0
 33 34  1  0  0  0  0
 34 35  1  0  0  0  0
 35 36  1  0  0  0  0
 38 39  2  0  0  0  0
 39 36  1  0  0  0  0
 39 37  1  0  0  0  0
M  END
>  <MODEL>
3

>  <REMARK>
 VINA RESULT:      -7.2      2.047      3.557
  Name = 
  18 active torsions:
  status: ('A' for Active; 'I' for Inactive)
    1  A    between atoms: C_2  and  C_6
    2  A    between atoms: C_2  and  C_27
    3  A    between atoms: C_4  and  C_30
    4  A    between atoms: C_5  and  C_6
    5  A    between atoms: C_5  and  C_38
    6  A    between atoms: C_8  and  C_34
    7  A    between atoms: C_8  and  C_36
    8  A    between atoms: O_10  and  C_33
    9  A    between atoms: O_10  and  C_36
   10  A    between atoms: C_12  and  S_24
   11  A    between atoms: C_13  and  C_32
   12  A    between atoms: C_13  and  C_33
   13  A    between atoms: C_15  and  O_17
   14  A    between atoms: O_17  and  C_37
   15  A    between atoms: C_19  and  C_23
   16  A    between atoms: C_19  and  C_34
   17  A    between atoms: C_23  and  C_26
   18  A    between atoms: C_26  and  C_37
                            x       y       z     vdW  Elec       q    Type
                         _______ _______ _______ _____ _____    ______ ____

>  <TORSDO>
F 18

$$$$
=
 OpenBabel10222419343D

 39 41  0  0  1  0  0  0  0  0999 V2000
  190.5440  177.0350  138.7780 C   0  0  0  0  0  0  0  0  0  0  0  0
  188.7590  177.4480  140.9420 C   0  0  1  0  0  3  0  0  0  0  0  0
  191.7880  176.8670  138.6890 O   0  0  0  0  0  0  0  0  0  0  0  0
  189.9420  177.2720  140.0450 N   0  0  0  0  0  0  0  0  0  0  0  0
  190.0100  177.5740  141.5080 C   0  0  2  0  0  3  0  0  0  0  0  0
  190.3920  176.3160  142.2900 C   0  0  2  0  0  3  0  0  0  0  0  0
  188.8720  176.5390  144.3060 C   0  0  0  0  0  3  0  0  0  0  0  0
  189.1940  175.7530  143.0570 C   0  0  0  0  0  2  0  0  0  0  0  0
  191.5390  176.5630  143.2720 C   0  0  0  0  0  2  0  0  0  0  0  0
  191.1350  177.5830  144.3340 C   0  0  0  0  0  2  0  0  0  0  0  0
  189.7770  177.3120  144.9280 C   0  0  0  0  0  0  0  0  0  0  0  0
  189.4130  178.0400  146.1800 C   0  0  0  0  0  2  0  0  0  0  0  0
  188.2750  177.3380  146.9010 C   0  0  0  0  0  2  0  0  0  0  0  0
  187.1230  178.3040  147.1110 C   0  0  0  0  0  2  0  0  0  0  0  0
  184.6910  179.1100  144.4240 C   0  0  0  0  0  2  0  0  0  0  0  0
  183.7850  178.8570  145.6090 C   0  0  0  0  0  2  0  0  0  0  0  0
  184.6590  178.3170  146.7290 C   0  0  0  0  0  2  0  0  0  0  0  0
  186.1070  178.9760  144.9350 C   0  0  0  0  0  2  0  0  0  0  0  0
  186.0100  178.0370  146.1120 C   0  0  0  0  0  3  0  0  0  0  0  0
  189.5430  176.9960  137.3020 S   0  0  0  0  0  0  0  0  0  0  0  0
  189.2320  178.7780  137.3950 C   0  0  0  0  0  1  0  0  0  0  0  0
  188.2140  178.7170  140.7580 O   0  0  0  0  0  0  0  0  0  0  0  0
  186.9380  178.4920  140.2340 C   0  0  0  0  0  2  0  0  0  0  0  0
  185.8750  178.8630  141.2610 C   0  0  0  0  0  2  0  0  0  0  0  0
  184.4640  179.7450  139.5260 N   0  0  0  0  0  2  0  0  0  0  0  0
  184.5500  179.0550  140.6030 C   0  0  0  0  0  0  0  0  0  0  0  0
  183.3800  178.2480  141.0890 C   0  0  0  0  0  2  0  0  0  0  0  0
  182.1370  178.3450  140.2000 C   0  0  2  0  0  3  0  0  0  0  0  0
  180.9800  178.5880  140.9450 O   0  0  0  0  0  1  0  0  0  0  0  0
  181.9650  177.2150  139.1760 C   0  0  2  0  0  3  0  0  0  0  0  0
  182.9960  176.2820  139.2960 O   0  0  0  0  0  1  0  0  0  0  0  0
  181.5660  176.7650  136.8800 O   0  0  0  0  0  0  0  0  0  0  0  0
  181.8050  177.6500  137.7430 C   0  0  0  0  0  0  0  0  0  0  0  0
  181.9810  178.9700  137.3170 O   0  0  0  0  0  0  0  0  0  0  0  0
  180.9490  179.7440  136.7270 C   0  0  0  0  0  2  0  0  0  0  0  0
  179.9650  180.2040  137.7900 C   0  0  0  0  0  2  0  0  0  0  0  0
  181.5590  182.0850  138.1570 O   0  0  0  0  0  0  0  0  0  0  0  0
  180.0060  181.5780  139.7590 O   0  0  0  0  0  1  0  0  0  0  0  0
  180.5180  181.3040  138.6440 C   0  0  0  0  0  0  0  0  0  0  0  0
  1  4  1  0  0  0  0
  2 22  1  6  0  0  0
  2  5  1  0  0  0  0
  3  1  2  0  0  0  0
  4  2  1  0  0  0  0
  5  4  1  6  0  0  0
  5  6  1  0  0  0  0
  6  8  1  1  0  0  0
  6  9  1  0  0  0  0
  7 11  2  0  0  0  0
  8  7  1  0  0  0  0
  9 10  1  0  0  0  0
 10 11  1  0  0  0  0
 11 12  1  0  0  0  0
 12 13  1  0  0  0  0
 13 14  1  0  0  0  0
 15 18  1  0  0  0  0
 15 16  1  0  0  0  0
 16 17  1  0  0  0  0
 18 19  1  0  0  0  0
 19 17  1  0  0  0  0
 19 14  1  0  0  0  0
 20 21  1  0  0  0  0
 20  1  1  0  0  0  0
 23 22  1  0  0  0  0
 23 24  1  0  0  0  0
 25 26  2  0  0  0  0
 26 27  1  0  0  0  0
 26 24  1  0  0  0  0
 28 29  1  1  0  0  0
 28 27  1  0  0  0  0
 30 31  1  6  0  0  0
 30 28  1  0  0  0  0
 32 33  2  0  0  0  0
 33 30  1  0  0  0  0
 34 33  1  0  0  0  0
 35 34  1  0  0  0  0
 35 36  1  0  0  0  0
 36 39  1  0  0  0  0
 37 39  2  0  0  0  0
 39 38  1  0  0  0  0
M  END
>  <MODEL>
4

>  <REMARK>
 VINA RESULT:      -7.2      1.666      2.622
  Name = 
  18 active torsions:
  status: ('A' for Active; 'I' for Inactive)
    1  A    between atoms: C_2  and  C_6
    2  A    between atoms: C_2  and  C_27
    3  A    between atoms: C_4  and  C_30
    4  A    between atoms: C_5  and  C_6
    5  A    between atoms: C_5  and  C_38
    6  A    between atoms: C_8  and  C_34
    7  A    between atoms: C_8  and  C_36
    8  A    between atoms: O_10  and  C_33
    9  A    between atoms: O_10  and  C_36
   10  A    between atoms: C_12  and  S_24
   11  A    between atoms: C_13  and  C_32
   12  A    between atoms: C_13  and  C_33
   13  A    between atoms: C_15  and  O_17
   14  A    between atoms: O_17  and  C_37
   15  A    between atoms: C_19  and  C_23
   16  A    between atoms: C_19  and  C_34
   17  A    between atoms: C_23  and  C_26
   18  A    between atoms: C_26  and  C_37
                            x       y       z     vdW  Elec       q    Type
                         _______ _______ _______ _____ _____    ______ ____

>  <TORSDO>
F 18

$$$$
=
 OpenBabel10222419343D

 39 41  0  0  1  0  0  0  0  0999 V2000
  192.7070  177.0360  139.4090 C   0  0  0  0  0  0  0  0  0  0  0  0
  190.1230  176.9690  140.5740 C   0  0  1  0  0  3  0  0  0  0  0  0
  193.8600  177.2820  139.8480 O   0  0  0  0  0  0  0  0  0  0  0  0
  191.5760  177.1380  140.2660 N   0  0  0  0  0  0  0  0  0  0  0  0
  190.9180  177.5350  141.5480 C   0  0  2  0  0  3  0  0  0  0  0  0
  191.2500  176.5240  142.6470 C   0  0  2  0  0  3  0  0  0  0  0  0
  189.0170  176.3740  143.8360 C   0  0  0  0  0  3  0  0  0  0  0  0
  190.0380  175.6550  142.9880 C   0  0  0  0  0  2  0  0  0  0  0  0
  191.7560  177.1940  143.9260 C   0  0  0  0  0  2  0  0  0  0  0  0
  190.6810  178.0960  144.5290 C   0  0  0  0  0  2  0  0  0  0  0  0
  189.3270  177.4390  144.5940 C   0  0  0  0  0  0  0  0  0  0  0  0
  188.2830  178.0910  145.4400 C   0  0  0  0  0  2  0  0  0  0  0  0
  186.9040  177.5410  145.1160 C   0  0  0  0  0  2  0  0  0  0  0  0
  185.8430  178.3570  145.8300 C   0  0  0  0  0  2  0  0  0  0  0  0
  182.8570  179.0380  143.7300 C   0  0  0  0  0  2  0  0  0  0  0  0
  183.9110  178.7180  142.6920 C   0  0  0  0  0  2  0  0  0  0  0  0
  185.2380  178.6170  143.4240 C   0  0  0  0  0  2  0  0  0  0  0  0
  183.5180  178.8580  145.0770 C   0  0  0  0  0  2  0  0  0  0  0  0
  184.9840  179.1140  144.8290 C   0  0  0  0  0  3  0  0  0  0  0  0
  192.4970  176.5780  137.6970 S   0  0  0  0  0  0  0  0  0  0  0  0
  193.6140  175.1630  137.8770 C   0  0  0  0  0  1  0  0  0  0  0  0
  189.3890  177.9740  139.9470 O   0  0  0  0  0  0  0  0  0  0  0  0
  188.9080  177.3930  138.7720 C   0  0  0  0  0  2  0  0  0  0  0  0
  188.4550  178.4730  137.7980 C   0  0  0  0  0  2  0  0  0  0  0  0
  186.7020  178.1970  136.1750 N   0  0  0  0  0  2  0  0  0  0  0  0
  187.0270  178.2720  137.4130 C   0  0  0  0  0  0  0  0  0  0  0  0
  186.0320  177.9340  138.4860 C   0  0  0  0  0  2  0  0  0  0  0  0
  184.7650  178.7940  138.4610 C   0  0  2  0  0  3  0  0  0  0  0  0
  184.7990  179.8030  139.4280 O   0  0  0  0  0  1  0  0  0  0  0  0
  183.4400  178.0200  138.4470 C   0  0  2  0  0  3  0  0  0  0  0  0
  183.2390  177.3690  139.6650 O   0  0  0  0  0  1  0  0  0  0  0  0
  183.1920  177.5490  136.1340 O   0  0  0  0  0  0  0  0  0  0  0  0
  183.2500  177.0690  137.2970 C   0  0  0  0  0  0  0  0  0  0  0  0
  183.0600  175.6930  137.4620 O   0  0  0  0  0  0  0  0  0  0  0  0
  183.7000  174.7140  136.6570 C   0  0  0  0  0  2  0  0  0  0  0  0
  182.9530  173.3940  136.7450 C   0  0  0  0  0  2  0  0  0  0  0  0
  183.4550  170.9560  136.8750 O   0  0  0  0  0  0  0  0  0  0  0  0
  184.9650  172.4750  137.6810 O   0  0  0  0  0  1  0  0  0  0  0  0
  183.8420  172.2600  137.1560 C   0  0  0  0  0  0  0  0  0  0  0  0
  1  3  2  0  0  0  0
  1  4  1  0  0  0  0
  2 22  1  6  0  0  0
  2  5  1  0  0  0  0
  4  2  1  0  0  0  0
  5  4  1  6  0  0  0
  5  6  1  0  0  0  0
  6  8  1  1  0  0  0
  6  9  1  0  0  0  0
  7 11  2  0  0  0  0
  8  7  1  0  0  0  0
  9 10  1  0  0  0  0
 10 11  1  0  0  0  0
 11 12  1  0  0  0  0
 13 12  1  0  0  0  0
 13 14  1  0  0  0  0
 15 18  1  0  0  0  0
 16 17  1  0  0  0  0
 16 15  1  0  0  0  0
 17 19  1  0  0  0  0
 19 18  1  0  0  0  0
 19 14  1  0  0  0  0
 20 21  1  0  0  0  0
 20  1  1  0  0  0  0
 23 22  1  0  0  0  0
 24 23  1  0  0  0  0
 25 26  2  0  0  0  0
 26 24  1  0  0  0  0
 26 27  1  0  0  0  0
 28 27  1  0  0  0  0
 28 29  1  1  0  0  0
 30 28  1  0  0  0  0
 30 31  1  1  0  0  0
 32 33  2  0  0  0  0
 33 34  1  0  0  0  0
 33 30  1  0  0  0  0
 35 36  1  0  0  0  0
 35 34  1  0  0  0  0
 36 39  1  0  0  0  0
 37 39  2  0  0  0  0
 39 38  1  0  0  0  0
M  END
>  <MODEL>
5

>  <REMARK>
 VINA RESULT:      -7.1      2.177      2.922
  Name = 
  18 active torsions:
  status: ('A' for Active; 'I' for Inactive)
    1  A    between atoms: C_2  and  C_6
    2  A    between atoms: C_2  and  C_27
    3  A    between atoms: C_4  and  C_30
    4  A    between atoms: C_5  and  C_6
    5  A    between atoms: C_5  and  C_38
    6  A    between atoms: C_8  and  C_34
    7  A    between atoms: C_8  and  C_36
    8  A    between atoms: O_10  and  C_33
    9  A    between atoms: O_10  and  C_36
   10  A    between atoms: C_12  and  S_24
   11  A    between atoms: C_13  and  C_32
   12  A    between atoms: C_13  and  C_33
   13  A    between atoms: C_15  and  O_17
   14  A    between atoms: O_17  and  C_37
   15  A    between atoms: C_19  and  C_23
   16  A    between atoms: C_19  and  C_34
   17  A    between atoms: C_23  and  C_26
   18  A    between atoms: C_26  and  C_37
                            x       y       z     vdW  Elec       q    Type
                         _______ _______ _______ _____ _____    ______ ____

>  <TORSDO>
F 18

$$$$
=
 OpenBabel10222419343D

 39 41  0  0  1  0  0  0  0  0999 V2000
  191.1170  175.7690  138.0360 C   0  0  0  0  0  0  0  0  0  0  0  0
  189.3550  177.9560  137.6470 C   0  0  1  0  0  3  0  0  0  0  0  0
  190.9840  174.5180  137.9920 O   0  0  0  0  0  0  0  0  0  0  0  0
  189.9920  176.6170  137.8350 N   0  0  0  0  0  0  0  0  0  0  0  0
  188.5240  176.8560  137.6840 C   0  0  2  0  0  3  0  0  0  0  0  0
  188.0660  176.4610  136.2800 C   0  0  2  0  0  3  0  0  0  0  0  0
  185.7440  177.4750  136.2420 C   0  0  0  0  0  3  0  0  0  0  0  0
  187.1430  177.5220  135.6760 C   0  0  0  0  0  2  0  0  0  0  0  0
  187.3500  175.1080  136.2560 C   0  0  0  0  0  2  0  0  0  0  0  0
  186.0730  175.1550  137.0920 C   0  0  0  0  0  2  0  0  0  0  0  0
  185.2320  176.3750  136.8190 C   0  0  0  0  0  0  0  0  0  0  0  0
  183.8290  176.3750  137.3310 C   0  0  0  0  0  2  0  0  0  0  0  0
  183.2630  177.7850  137.3510 C   0  0  0  0  0  2  0  0  0  0  0  0
  182.7160  178.1010  138.7310 C   0  0  0  0  0  2  0  0  0  0  0  0
  184.3510  178.3860  142.0520 C   0  0  0  0  0  2  0  0  0  0  0  0
  185.3510  179.0680  141.1450 C   0  0  0  0  0  2  0  0  0  0  0  0
  184.8850  178.8370  139.7180 C   0  0  0  0  0  2  0  0  0  0  0  0
  183.1790  177.9980  141.1790 C   0  0  0  0  0  2  0  0  0  0  0  0
  183.7630  177.8280  139.7980 C   0  0  0  0  0  3  0  0  0  0  0  0
  192.7220  176.4720  138.3740 S   0  0  0  0  0  0  0  0  0  0  0  0
  193.5660  175.0140  137.7070 C   0  0  0  0  0  1  0  0  0  0  0  0
  189.2850  178.6200  138.8690 O   0  0  0  0  0  0  0  0  0  0  0  0
  188.6610  177.7190  139.7360 C   0  0  0  0  0  2  0  0  0  0  0  0
  188.9330  178.1090  141.1840 C   0  0  0  0  0  2  0  0  0  0  0  0
  190.1610  176.0560  141.4280 N   0  0  0  0  0  2  0  0  0  0  0  0
  190.0450  177.2910  141.7510 C   0  0  0  0  0  0  0  0  0  0  0  0
  191.1370  177.9880  142.5110 C   0  0  0  0  0  2  0  0  0  0  0  0
  190.7440  178.4150  143.9270 C   0  0  2  0  0  3  0  0  0  0  0  0
  191.0510  179.7570  144.1730 O   0  0  0  0  0  1  0  0  0  0  0  0
  191.2010  177.4790  145.0530 C   0  0  2  0  0  3  0  0  0  0  0  0
  191.7760  176.3220  144.5260 O   0  0  0  0  0  1  0  0  0  0  0  0
  190.5400  176.9110  147.2610 O   0  0  0  0  0  0  0  0  0  0  0  0
  190.1580  177.1340  146.0820 C   0  0  0  0  0  0  0  0  0  0  0  0
  188.8020  176.9770  145.7770 O   0  0  0  0  0  0  0  0  0  0  0  0
  187.7750  177.7670  146.3570 C   0  0  0  0  0  2  0  0  0  0  0  0
  186.4590  177.5280  145.6340 C   0  0  0  0  0  2  0  0  0  0  0  0
  185.1890  179.6040  145.0910 O   0  0  0  0  0  0  0  0  0  0  0  0
  184.7170  178.4470  147.0080 O   0  0  0  0  0  1  0  0  0  0  0  0
  185.4250  178.5580  145.9750 C   0  0  0  0  0  0  0  0  0  0  0  0
  1 20  1  0  0  0  0
  2  5  1  0  0  0  0
  2  4  1  0  0  0  0
  2 22  1  1  0  0  0
  3  1  2  0  0  0  0
  4  1  1  0  0  0  0
  5  4  1  6  0  0  0
  6  8  1  1  0  0  0
  6  5  1  0  0  0  0
  7 11  2  0  0  0  0
  8  7  1  0  0  0  0
  9  6  1  0  0  0  0
  9 10  1  0  0  0  0
 11 10  1  0  0  0  0
 11 12  1  0  0  0  0
 12 13  1  0  0  0  0
 13 14  1  0  0  0  0
 14 19  1  0  0  0  0
 16 15  1  0  0  0  0
 17 19  1  0  0  0  0
 17 16  1  0  0  0  0
 18 15  1  0  0  0  0
 19 18  1  0  0  0  0
 21 20  1  0  0  0  0
 22 23  1  0  0  0  0
 23 24  1  0  0  0  0
 24 26  1  0  0  0  0
 25 26  2  0  0  0  0
 26 27  1  0  0  0  0
 27 28  1  0  0  0  0
 28 29  1  1  0  0  0
 28 30  1  0  0  0  0
 30 31  1  6  0  0  0
 30 33  1  0  0  0  0
 33 32  2  0  0  0  0
 34 33  1  0  0  0  0
 34 35  1  0  0  0  0
 36 39  1  0  0  0  0
 36 35  1  0  0  0  0
 37 39  2  0  0  0  0
 39 38  1  0  0  0  0
M  END
>  <MODEL>
6

>  <REMARK>
 VINA RESULT:      -7.0      2.977      7.797
  Name = 
  18 active torsions:
  status: ('A' for Active; 'I' for Inactive)
    1  A    between atoms: C_2  and  C_6
    2  A    between atoms: C_2  and  C_27
    3  A    between atoms: C_4  and  C_30
    4  A    between atoms: C_5  and  C_6
    5  A    between atoms: C_5  and  C_38
    6  A    between atoms: C_8  and  C_34
    7  A    between atoms: C_8  and  C_36
    8  A    between atoms: O_10  and  C_33
    9  A    between atoms: O_10  and  C_36
   10  A    between atoms: C_12  and  S_24
   11  A    between atoms: C_13  and  C_32
   12  A    between atoms: C_13  and  C_33
   13  A    between atoms: C_15  and  O_17
   14  A    between atoms: O_17  and  C_37
   15  A    between atoms: C_19  and  C_23
   16  A    between atoms: C_19  and  C_34
   17  A    between atoms: C_23  and  C_26
   18  A    between atoms: C_26  and  C_37
                            x       y       z     vdW  Elec       q    Type
                         _______ _______ _______ _____ _____    ______ ____

>  <TORSDO>
F 18

$$$$
=
 OpenBabel10222419343D

 39 41  0  0  1  0  0  0  0  0999 V2000
  191.7800  177.0160  139.4140 C   0  0  0  0  0  0  0  0  0  0  0  0
  189.4740  177.4420  141.0070 C   0  0  1  0  0  3  0  0  0  0  0  0
  193.0150  176.9760  139.6530 O   0  0  0  0  0  0  0  0  0  0  0  0
  190.8570  177.3090  140.4560 N   0  0  0  0  0  0  0  0  0  0  0  0
  190.5250  177.7570  141.8440 C   0  0  2  0  0  3  0  0  0  0  0  0
  190.7940  176.6290  142.8410 C   0  0  2  0  0  3  0  0  0  0  0  0
  188.6090  176.6090  144.1260 C   0  0  0  0  0  3  0  0  0  0  0  0
  189.5120  175.8620  143.1730 C   0  0  0  0  0  2  0  0  0  0  0  0
  191.4210  177.1360  144.1430 C   0  0  0  0  0  2  0  0  0  0  0  0
  190.4730  178.0890  144.8670 C   0  0  0  0  0  2  0  0  0  0  0  0
  189.0600  177.5700  144.9490 C   0  0  0  0  0  0  0  0  0  0  0  0
  188.1280  178.2520  145.8940 C   0  0  0  0  0  2  0  0  0  0  0  0
  186.8930  177.4020  146.1410 C   0  0  0  0  0  2  0  0  0  0  0  0
  185.7320  178.2870  146.5580 C   0  0  0  0  0  2  0  0  0  0  0  0
  183.1820  179.0690  143.9750 C   0  0  0  0  0  2  0  0  0  0  0  0
  184.2870  178.4420  143.1530 C   0  0  0  0  0  2  0  0  0  0  0  0
  185.4790  178.2610  144.0770 C   0  0  0  0  0  2  0  0  0  0  0  0
  183.6340  179.0030  145.4160 C   0  0  0  0  0  2  0  0  0  0  0  0
  185.1410  178.9990  145.3520 C   0  0  0  0  0  3  0  0  0  0  0  0
  191.1960  176.7270  137.7530 S   0  0  0  0  0  0  0  0  0  0  0  0
  191.3520  174.9320  137.9480 C   0  0  0  0  0  1  0  0  0  0  0  0
  188.8950  178.6210  140.5440 O   0  0  0  0  0  0  0  0  0  0  0  0
  187.8850  178.2100  139.6700 C   0  0  0  0  0  2  0  0  0  0  0  0
  186.5200  178.6020  140.2210 C   0  0  0  0  0  2  0  0  0  0  0  0
  185.8570  178.4930  137.9130 N   0  0  0  0  0  2  0  0  0  0  0  0
  185.4950  178.6080  139.1370 C   0  0  0  0  0  0  0  0  0  0  0  0
  184.0440  178.5220  139.5170 C   0  0  0  0  0  2  0  0  0  0  0  0
  183.1880  179.6780  138.9910 C   0  0  2  0  0  3  0  0  0  0  0  0
  183.9030  180.8770  138.9420 O   0  0  0  0  0  1  0  0  0  0  0  0
  181.8080  179.8290  139.6430 C   0  0  2  0  0  3  0  0  0  0  0  0
  181.5680  178.7820  140.5340 O   0  0  0  0  0  1  0  0  0  0  0  0
  179.7630  179.1030  138.6800 O   0  0  0  0  0  0  0  0  0  0  0  0
  180.6500  179.9960  138.6950 C   0  0  0  0  0  0  0  0  0  0  0  0
  180.5520  181.0520  137.7830 O   0  0  0  0  0  0  0  0  0  0  0  0
  181.2470  182.2810  137.9330 C   0  0  0  0  0  2  0  0  0  0  0  0
  180.3490  183.4420  137.5390 C   0  0  0  0  0  2  0  0  0  0  0  0
  182.3020  184.9910  137.5960 O   0  0  0  0  0  1  0  0  0  0  0  0
  180.7580  185.1640  135.9160 O   0  0  0  0  0  0  0  0  0  0  0  0
  181.1210  184.5970  136.9780 C   0  0  0  0  0  0  0  0  0  0  0  0
  1  3  2  0  0  0  0
  1  4  1  0  0  0  0
  2 22  1  6  0  0  0
  2  5  1  0  0  0  0
  4  2  1  0  0  0  0
  5  4  1  6  0  0  0
  5  6  1  0  0  0  0
  6  8  1  1  0  0  0
  6  9  1  0  0  0  0
  7 11  2  0  0  0  0
  8  7  1  0  0  0  0
  9 10  1  0  0  0  0
 10 11  1  0  0  0  0
 11 12  1  0  0  0  0
 12 13  1  0  0  0  0
 13 14  1  0  0  0  0
 15 18  1  0  0  0  0
 16 15  1  0  0  0  0
 16 17  1  0  0  0  0
 17 19  1  0  0  0  0
 19 18  1  0  0  0  0
 19 14  1  0  0  0  0
 20 21  1  0  0  0  0
 20  1  1  0  0  0  0
 23 24  1  0  0  0  0
 23 22  1  0  0  0  0
 25 26  2  0  0  0  0
 26 27  1  0  0  0  0
 26 24  1  0  0  0  0
 28 29  1  1  0  0  0
 28 27  1  0  0  0  0
 28 30  1  0  0  0  0
 30 31  1  6  0  0  0
 32 33  2  0  0  0  0
 33 30  1  0  0  0  0
 34 35  1  0  0  0  0
 34 33  1  0  0  0  0
 36 35  1  0  0  0  0
 38 39  2  0  0  0  0
 39 36  1  0  0  0  0
 39 37  1  0  0  0  0
M  END
>  <MODEL>
7

>  <REMARK>
 VINA RESULT:      -7.0      2.887      3.650
  Name = 
  18 active torsions:
  status: ('A' for Active; 'I' for Inactive)
    1  A    between atoms: C_2  and  C_6
    2  A    between atoms: C_2  and  C_27
    3  A    between atoms: C_4  and  C_30
    4  A    between atoms: C_5  and  C_6
    5  A    between atoms: C_5  and  C_38
    6  A    between atoms: C_8  and  C_34
    7  A    between atoms: C_8  and  C_36
    8  A    between atoms: O_10  and  C_33
    9  A    between atoms: O_10  and  C_36
   10  A    between atoms: C_12  and  S_24
   11  A    between atoms: C_13  and  C_32
   12  A    between atoms: C_13  and  C_33
   13  A    between atoms: C_15  and  O_17
   14  A    between atoms: O_17  and  C_37
   15  A    between atoms: C_19  and  C_23
   16  A    between atoms: C_19  and  C_34
   17  A    between atoms: C_23  and  C_26
   18  A    between atoms: C_26  and  C_37
                            x       y       z     vdW  Elec       q    Type
                         _______ _______ _______ _____ _____    ______ ____

>  <TORSDO>
F 18

$$$$
=
 OpenBabel10222419343D

 39 41  0  0  1  0  0  0  0  0999 V2000
  190.3340  177.3510  147.4130 C   0  0  0  0  0  0  0  0  0  0  0  0
  189.7360  177.5080  144.6460 C   0  0  1  0  0  3  0  0  0  0  0  0
  189.6600  177.5060  148.4650 O   0  0  0  0  0  0  0  0  0  0  0  0
  189.7320  177.5540  146.1400 N   0  0  0  0  0  0  0  0  0  0  0  0
  188.6110  178.0140  145.2630 C   0  0  2  0  0  3  0  0  0  0  0  0
  187.4770  176.9880  145.2740 C   0  0  2  0  0  3  0  0  0  0  0  0
  186.1440  177.7440  143.2550 C   0  0  0  0  0  3  0  0  0  0  0  0
  187.0100  176.6610  143.8540 C   0  0  0  0  0  2  0  0  0  0  0  0
  186.2740  177.4530  146.0970 C   0  0  0  0  0  2  0  0  0  0  0  0
  185.6610  178.7170  145.4980 C   0  0  0  0  0  2  0  0  0  0  0  0
  185.4720  178.6320  144.0060 C   0  0  0  0  0  0  0  0  0  0  0  0
  184.6030  179.6600  143.3600 C   0  0  0  0  0  2  0  0  0  0  0  0
  183.1610  179.1850  143.2970 C   0  0  0  0  0  2  0  0  0  0  0  0
  182.8630  178.6240  141.9180 C   0  0  0  0  0  2  0  0  0  0  0  0
  179.1590  178.6940  142.1660 C   0  0  0  0  0  2  0  0  0  0  0  0
  179.3820  177.8060  140.9620 C   0  0  0  0  0  2  0  0  0  0  0  0
  180.8640  177.8630  140.6360 C   0  0  0  0  0  2  0  0  0  0  0  0
  180.5310  179.0460  142.6950 C   0  0  0  0  0  2  0  0  0  0  0  0
  181.4430  178.9630  141.4960 C   0  0  0  0  0  3  0  0  0  0  0  0
  192.0560  176.8990  147.5290 S   0  0  0  0  0  0  0  0  0  0  0  0
  191.6580  175.1330  147.4420 C   0  0  0  0  0  1  0  0  0  0  0  0
  190.4930  178.5640  144.1450 O   0  0  0  0  0  0  0  0  0  0  0  0
  191.4840  177.9630  143.3650 C   0  0  0  0  0  2  0  0  0  0  0  0
  190.8610  176.9460  142.4160 C   0  0  0  0  0  2  0  0  0  0  0  0
  191.8260  177.4970  140.2830 N   0  0  0  0  0  2  0  0  0  0  0  0
  190.7840  177.4960  141.0300 C   0  0  0  0  0  0  0  0  0  0  0  0
  189.4350  177.8280  140.4600 C   0  0  0  0  0  2  0  0  0  0  0  0
  189.4260  178.0290  138.9430 C   0  0  2  0  0  3  0  0  0  0  0  0
  189.0570  179.3300  138.5900 O   0  0  0  0  0  1  0  0  0  0  0  0
  188.6840  176.9550  138.1370 C   0  0  2  0  0  3  0  0  0  0  0  0
  189.5470  175.9130  137.7960 O   0  0  0  0  0  1  0  0  0  0  0  0
  188.5780  177.5800  135.8490 O   0  0  0  0  0  0  0  0  0  0  0  0
  187.9380  177.4460  136.9250 C   0  0  0  0  0  0  0  0  0  0  0  0
  186.5930  177.8290  136.9540 O   0  0  0  0  0  0  0  0  0  0  0  0
  185.5610  177.0150  137.4910 C   0  0  0  0  0  2  0  0  0  0  0  0
  184.4810  177.8820  138.1150 C   0  0  0  0  0  2  0  0  0  0  0  0
  184.4620  180.1750  139.0950 O   0  0  0  0  0  0  0  0  0  0  0  0
  185.9810  178.6320  139.8350 O   0  0  0  0  0  1  0  0  0  0  0  0
  185.0430  178.9140  139.0460 C   0  0  0  0  0  0  0  0  0  0  0  0
  1 20  1  0  0  0  0
  1  3  2  0  0  0  0
  2 22  1  6  0  0  0
  2  5  1  0  0  0  0
  2  4  1  0  0  0  0
  4  1  1  0  0  0  0
  5  6  1  0  0  0  0
  5  4  1  1  0  0  0
  6  8  1  6  0  0  0
  6  9  1  0  0  0  0
  7  8  1  0  0  0  0
  7 11  2  0  0  0  0
 10  9  1  0  0  0  0
 11 10  1  0  0  0  0
 12 11  1  0  0  0  0
 13 12  1  0  0  0  0
 14 13  1  0  0  0  0
 15 18  1  0  0  0  0
 16 15  1  0  0  0  0
 17 16  1  0  0  0  0
 17 19  1  0  0  0  0
 19 14  1  0  0  0  0
 19 18  1  0  0  0  0
 21 20  1  0  0  0  0
 23 22  1  0  0  0  0
 24 23  1  0  0  0  0
 25 26  2  0  0  0  0
 26 24  1  0  0  0  0
 27 26  1  0  0  0  0
 28 29  1  1  0  0  0
 28 27  1  0  0  0  0
 30 31  1  6  0  0  0
 30 28  1  0  0  0  0
 32 33  2  0  0  0  0
 33 34  1  0  0  0  0
 33 30  1  0  0  0  0
 34 35  1  0  0  0  0
 35 36  1  0  0  0  0
 36 39  1  0  0  0  0
 39 37  2  0  0  0  0
 39 38  1  0  0  0  0
M  END
>  <MODEL>
8

>  <REMARK>
 VINA RESULT:      -6.9      3.033      6.473
  Name = 
  18 active torsions:
  status: ('A' for Active; 'I' for Inactive)
    1  A    between atoms: C_2  and  C_6
    2  A    between atoms: C_2  and  C_27
    3  A    between atoms: C_4  and  C_30
    4  A    between atoms: C_5  and  C_6
    5  A    between atoms: C_5  and  C_38
    6  A    between atoms: C_8  and  C_34
    7  A    between atoms: C_8  and  C_36
    8  A    between atoms: O_10  and  C_33
    9  A    between atoms: O_10  and  C_36
   10  A    between atoms: C_12  and  S_24
   11  A    between atoms: C_13  and  C_32
   12  A    between atoms: C_13  and  C_33
   13  A    between atoms: C_15  and  O_17
   14  A    between atoms: O_17  and  C_37
   15  A    between atoms: C_19  and  C_23
   16  A    between atoms: C_19  and  C_34
   17  A    between atoms: C_23  and  C_26
   18  A    between atoms: C_26  and  C_37
                            x       y       z     vdW  Elec       q    Type
                         _______ _______ _______ _____ _____    ______ ____

>  <TORSDO>
F 18

$$$$
=
 OpenBabel10222419343D

 39 41  0  0  1  0  0  0  0  0999 V2000
  180.2380  176.3680  139.6630 C   0  0  0  0  0  0  0  0  0  0  0  0
  182.8250  176.7150  138.5570 C   0  0  1  0  0  3  0  0  0  0  0  0
  179.7180  176.6360  140.7780 O   0  0  0  0  0  0  0  0  0  0  0  0
  181.6170  176.6320  139.4330 N   0  0  0  0  0  0  0  0  0  0  0  0
  182.9880  177.0080  139.8950 C   0  0  2  0  0  3  0  0  0  0  0  0
  183.0730  178.5180  140.1250 C   0  0  2  0  0  3  0  0  0  0  0  0
  185.5310  178.7670  140.6920 C   0  0  0  0  0  3  0  0  0  0  0  0
  184.4350  179.0690  139.6980 C   0  0  0  0  0  2  0  0  0  0  0  0
  182.8160  178.9030  141.5830 C   0  0  0  0  0  2  0  0  0  0  0  0
  183.8790  178.3030  142.5000 C   0  0  0  0  0  2  0  0  0  0  0  0
  185.2820  178.4920  141.9830 C   0  0  0  0  0  0  0  0  0  0  0  0
  186.4070  178.2340  142.9290 C   0  0  0  0  0  2  0  0  0  0  0  0
  185.8920  178.0750  144.3500 C   0  0  0  0  0  2  0  0  0  0  0  0
  186.8080  177.1500  145.1300 C   0  0  0  0  0  2  0  0  0  0  0  0
  189.3810  177.6770  147.7550 C   0  0  0  0  0  2  0  0  0  0  0  0
  188.1200  178.1520  148.4440 C   0  0  0  0  0  2  0  0  0  0  0  0
  187.0220  178.1740  147.3940 C   0  0  0  0  0  2  0  0  0  0  0  0
  188.9580  177.1740  146.3930 C   0  0  0  0  0  2  0  0  0  0  0  0
  187.7050  177.9460  146.0650 C   0  0  0  0  0  3  0  0  0  0  0  0
  179.2390  175.6340  138.3800 S   0  0  0  0  0  0  0  0  0  0  0  0
  179.4720  173.9740  139.0680 C   0  0  0  0  0  1  0  0  0  0  0  0
  183.3160  175.4350  138.3100 O   0  0  0  0  0  0  0  0  0  0  0  0
  183.9650  175.5280  137.0760 C   0  0  0  0  0  2  0  0  0  0  0  0
  185.2500  176.3330  137.2160 C   0  0  0  0  0  2  0  0  0  0  0  0
  186.2380  174.6110  135.8590 N   0  0  0  0  0  2  0  0  0  0  0  0
  186.4180  175.5570  136.7050 C   0  0  0  0  0  0  0  0  0  0  0  0
  187.8030  176.0460  137.0210 C   0  0  0  0  0  2  0  0  0  0  0  0
  187.9550  177.5690  136.9810 C   0  0  2  0  0  3  0  0  0  0  0  0
  188.5680  178.0020  135.8020 O   0  0  0  0  0  1  0  0  0  0  0  0
  188.5560  178.2080  138.2400 C   0  0  2  0  0  3  0  0  0  0  0  0
  189.0290  179.4910  137.9620 O   0  0  0  0  0  1  0  0  0  0  0  0
  190.7080  177.2120  138.3640 O   0  0  0  0  0  0  0  0  0  0  0  0
  189.6080  177.3950  138.9480 C   0  0  0  0  0  0  0  0  0  0  0  0
  189.3960  176.7750  140.1840 O   0  0  0  0  0  0  0  0  0  0  0  0
  189.7480  177.3670  141.4240 C   0  0  0  0  0  2  0  0  0  0  0  0
  190.0890  176.2900  142.4410 C   0  0  0  0  0  2  0  0  0  0  0  0
  191.9080  175.8190  144.0790 O   0  0  0  0  0  1  0  0  0  0  0  0
  191.2680  177.9790  143.6760 O   0  0  0  0  0  0  0  0  0  0  0  0
  191.0960  176.7540  143.4490 C   0  0  0  0  0  0  0  0  0  0  0  0
  1  3  2  0  0  0  0
  2 22  1  1  0  0  0
  2  4  1  0  0  0  0
  2  5  1  0  0  0  0
  4  1  1  0  0  0  0
  5  4  1  1  0  0  0
  5  6  1  0  0  0  0
  6  8  1  1  0  0  0
  6  9  1  0  0  0  0
  7 11  2  0  0  0  0
  8  7  1  0  0  0  0
  9 10  1  0  0  0  0
 11 10  1  0  0  0  0
 11 12  1  0  0  0  0
 12 13  1  0  0  0  0
 13 14  1  0  0  0  0
 14 19  1  0  0  0  0
 15 16  1  0  0  0  0
 17 16  1  0  0  0  0
 18 15  1  0  0  0  0
 19 18  1  0  0  0  0
 19 17  1  0  0  0  0
 20 21  1  0  0  0  0
 20  1  1  0  0  0  0
 23 24  1  0  0  0  0
 23 22  1  0  0  0  0
 25 26  2  0  0  0  0
 26 27  1  0  0  0  0
 26 24  1  0  0  0  0
 28 29  1  6  0  0  0
 28 27  1  0  0  0  0
 28 30  1  0  0  0  0
 30 31  1  6  0  0  0
 30 33  1  0  0  0  0
 32 33  2  0  0  0  0
 33 34  1  0  0  0  0
 34 35  1  0  0  0  0
 35 36  1  0  0  0  0
 36 39  1  0  0  0  0
 39 38  2  0  0  0  0
 39 37  1  0  0  0  0
M  END
>  <MODEL>
9

>  <REMARK>
 VINA RESULT:      -6.9      2.793      7.443
  Name = 
  18 active torsions:
  status: ('A' for Active; 'I' for Inactive)
    1  A    between atoms: C_2  and  C_6
    2  A    between atoms: C_2  and  C_27
    3  A    between atoms: C_4  and  C_30
    4  A    between atoms: C_5  and  C_6
    5  A    between atoms: C_5  and  C_38
    6  A    between atoms: C_8  and  C_34
    7  A    between atoms: C_8  and  C_36
    8  A    between atoms: O_10  and  C_33
    9  A    between atoms: O_10  and  C_36
   10  A    between atoms: C_12  and  S_24
   11  A    between atoms: C_13  and  C_32
   12  A    between atoms: C_13  and  C_33
   13  A    between atoms: C_15  and  O_17
   14  A    between atoms: O_17  and  C_37
   15  A    between atoms: C_19  and  C_23
   16  A    between atoms: C_19  and  C_34
   17  A    between atoms: C_23  and  C_26
   18  A    between atoms: C_26  and  C_37
                            x       y       z     vdW  Elec       q    Type
                         _______ _______ _______ _____ _____    ______ ____

>  <TORSDO>
F 18

$$$$
