=
 OpenBabel10222417093D

 25 30  0  0  1  0  0  0  0  0999 V2000
  190.3230  178.3810  144.8310 C   0  0  2  0  0  3  0  0  0  0  0  0
  185.3540  179.0210  145.8090 C   0  0  0  0  0  2  0  0  0  0  0  0
  187.9140  177.6780  142.1510 N   0  0  0  0  0  0  0  0  0  0  0  0
  189.2660  177.6170  144.1700 C   0  0  2  0  0  0  0  0  0  0  0  0
  189.1110  177.5740  142.6530 C   0  0  0  0  0  0  0  0  0  0  0  0
  190.1970  177.2820  141.7600 N   0  0  0  0  0  0  0  0  0  0  0  0
  191.1640  179.1860  143.8370 C   0  0  0  0  0  2  0  0  0  0  0  0
  184.5120  178.1200  143.7300 C   0  0  1  0  0  3  0  0  0  0  0  0
  183.9330  179.4930  144.0370 C   0  0  0  0  0  2  0  0  0  0  0  0
  191.9800  178.3470  142.9720 N   0  0  0  0  0  2  0  0  0  0  0  0
  192.4140  177.0420  140.8780 C   0  0  0  0  0  1  0  0  0  0  0  0
  185.3820  178.0630  142.4510 C   0  0  2  0  0  3  0  0  0  0  0  0
  186.7860  177.7150  144.2900 C   0  0  0  0  0  0  0  0  0  0  0  0
  191.4640  177.5470  141.9030 C   0  0  0  0  0  0  0  0  0  0  0  0
  185.4370  177.8100  144.9010 C   0  0  1  0  0  3  0  0  0  0  0  0
  188.0340  177.3290  145.0290 C   0  0  0  0  0  2  0  0  0  0  0  0
  190.4600  176.9160  144.6560 N   0  0  0  0  0  2  0  0  0  0  0  0
  184.1550  179.7630  145.4500 N   0  0  0  0  0  2  0  0  0  0  0  0
  186.7510  177.8410  142.9750 C   0  0  0  0  0  0  0  0  0  0  0  0
  185.3310  179.2980  141.6750 N   0  0  0  0  0  2  0  0  0  0  0  0
  182.8090  178.4540  139.3260 C   0  0  0  0  0  2  0  0  0  0  0  0
  183.7380  177.9810  140.4030 C   0  0  0  0  0  2  0  0  0  0  0  0
  183.5110  179.6550  138.7390 C   0  0  0  0  0  2  0  0  0  0  0  0
  184.4670  180.1040  139.6610 O   0  0  0  0  0  0  0  0  0  0  0  0
  184.8960  178.9500  140.3320 C   0  0  1  0  0  3  0  0  0  0  0  0
  1  7  1  6  0  0  0
  3  5  2  0  0  0  0
  3 19  1  0  0  0  0
  4 17  1  0  0  0  0
  4  1  1  0  0  0  0
  4 16  1  1  0  0  0
  5  4  1  0  0  0  0
  6 14  2  0  0  0  0
  6  5  1  0  0  0  0
  8  9  1  1  0  0  0
  8 15  1  0  0  0  0
  9 18  1  0  0  0  0
 10  7  1  0  0  0  0
 11 14  1  0  0  0  0
 12 20  1  1  0  0  0
 12 19  1  0  0  0  0
 12  8  1  0  0  0  0
 13 15  1  0  0  0  0
 13 16  1  0  0  0  0
 14 10  1  0  0  0  0
 15  2  1  1  0  0  0
 17  1  1  0  0  0  0
 18  2  1  0  0  0  0
 19 13  2  0  0  0  0
 21 22  1  0  0  0  0
 23 21  1  0  0  0  0
 23 24  1  0  0  0  0
 24 25  1  0  0  0  0
 25 22  1  0  0  0  0
 25 20  1  1  0  0  0
M  END
>  <MODEL>
1

>  <REMARK>
 VINA RESULT:      -8.3      0.000      0.000
  Name = 
  2 active torsions:
  status: ('A' for Active; 'I' for Inactive)
    1  A    between atoms: N_1  and  C_17
    2  A    between atoms: N_1  and  C_24
                            x       y       z     vdW  Elec       q    Type
                         _______ _______ _______ _____ _____    ______ ____

>  <TORSDO>
F 2

$$$$
=
 OpenBabel10222417093D

 25 30  0  0  1  0  0  0  0  0999 V2000
  188.4590  178.3340  148.1510 C   0  0  2  0  0  3  0  0  0  0  0  0
  184.8490  179.3980  144.7010 C   0  0  0  0  0  2  0  0  0  0  0  0
  188.7830  176.8950  144.7890 N   0  0  0  0  0  0  0  0  0  0  0  0
  188.0970  177.4330  147.0580 C   0  0  2  0  0  0  0  0  0  0  0  0
  189.1170  176.9190  146.0460 C   0  0  0  0  0  0  0  0  0  0  0  0
  190.3710  176.3290  146.4250 N   0  0  0  0  0  0  0  0  0  0  0  0
  189.9280  178.7600  148.0890 C   0  0  0  0  0  2  0  0  0  0  0  0
  185.6380  177.9140  142.9640 C   0  0  1  0  0  3  0  0  0  0  0  0
  185.4190  179.3300  142.4530 C   0  0  0  0  0  2  0  0  0  0  0  0
  190.8490  177.6670  148.3650 N   0  0  0  0  0  2  0  0  0  0  0  0
  192.3240  175.7570  147.6930 C   0  0  0  0  0  1  0  0  0  0  0  0
  187.1070  177.4310  142.9030 C   0  0  2  0  0  3  0  0  0  0  0  0
  186.5110  177.6380  145.1560 C   0  0  0  0  0  0  0  0  0  0  0  0
  191.1130  176.5860  147.4640 C   0  0  0  0  0  0  0  0  0  0  0  0
  185.2530  177.9610  144.4370 C   0  0  1  0  0  3  0  0  0  0  0  0
  186.6260  177.4670  146.6430 C   0  0  0  0  0  2  0  0  0  0  0  0
  188.2830  176.8850  148.4060 N   0  0  0  0  0  2  0  0  0  0  0  0
  184.5770  180.0250  143.4160 N   0  0  0  0  0  2  0  0  0  0  0  0
  187.4990  177.3440  144.3300 C   0  0  0  0  0  0  0  0  0  0  0  0
  187.9810  178.3600  142.1940 N   0  0  0  0  0  2  0  0  0  0  0  0
  189.4970  178.2420  138.9880 C   0  0  0  0  0  2  0  0  0  0  0  0
  188.2260  178.3070  139.7800 C   0  0  0  0  0  2  0  0  0  0  0  0
  190.4670  177.5430  139.9110 C   0  0  0  0  0  2  0  0  0  0  0  0
  189.9750  177.6330  141.2210 O   0  0  0  0  0  0  0  0  0  0  0  0
  188.5790  177.6330  141.0860 C   0  0  1  0  0  3  0  0  0  0  0  0
  1  7  1  6  0  0  0
  1 17  1  0  0  0  0
  3  5  2  0  0  0  0
  4 16  1  6  0  0  0
  4  1  1  0  0  0  0
  4 17  1  0  0  0  0
  5  6  1  0  0  0  0
  5  4  1  0  0  0  0
  6 14  2  0  0  0  0
  7 10  1  0  0  0  0
  8  9  1  1  0  0  0
  8 15  1  0  0  0  0
  9 18  1  0  0  0  0
 12 20  1  6  0  0  0
 12  8  1  0  0  0  0
 12 19  1  0  0  0  0
 13 16  1  0  0  0  0
 14 11  1  0  0  0  0
 14 10  1  0  0  0  0
 15  2  1  1  0  0  0
 15 13  1  0  0  0  0
 18  2  1  0  0  0  0
 19  3  1  0  0  0  0
 19 13  2  0  0  0  0
 21 22  1  0  0  0  0
 21 23  1  0  0  0  0
 22 25  1  0  0  0  0
 23 24  1  0  0  0  0
 25 24  1  0  0  0  0
 25 20  1  1  0  0  0
M  END
>  <MODEL>
2

>  <REMARK>
 VINA RESULT:      -8.0      2.693      4.118
  Name = 
  2 active torsions:
  status: ('A' for Active; 'I' for Inactive)
    1  A    between atoms: N_1  and  C_17
    2  A    between atoms: N_1  and  C_24
                            x       y       z     vdW  Elec       q    Type
                         _______ _______ _______ _____ _____    ______ ____

>  <TORSDO>
F 2

$$$$
=
 OpenBabel10222417093D

 25 30  0  0  1  0  0  0  0  0999 V2000
  191.6880  177.6970  143.8400 C   0  0  2  0  0  3  0  0  0  0  0  0
  188.6200  178.3110  147.8740 C   0  0  0  0  0  2  0  0  0  0  0  0
  188.1100  176.9820  143.4330 N   0  0  0  0  0  0  0  0  0  0  0  0
  190.4610  176.9280  144.0450 C   0  0  2  0  0  0  0  0  0  0  0  0
  189.3380  176.8850  143.0140 C   0  0  0  0  0  0  0  0  0  0  0  0
  189.5580  176.5980  141.6240 N   0  0  0  0  0  0  0  0  0  0  0  0
  191.6530  178.5070  142.5410 C   0  0  0  0  0  2  0  0  0  0  0  0
  186.6140  177.4060  146.8750 C   0  0  1  0  0  3  0  0  0  0  0  0
  186.3790  178.7760  147.4940 C   0  0  0  0  0  2  0  0  0  0  0  0
  191.6920  177.6720  141.3500 N   0  0  0  0  0  2  0  0  0  0  0  0
  190.6310  176.3700  139.4910 C   0  0  0  0  0  1  0  0  0  0  0  0
  186.4140  177.3540  145.3410 C   0  0  2  0  0  3  0  0  0  0  0  0
  188.6860  177.0130  145.7820 C   0  0  0  0  0  0  0  0  0  0  0  0
  190.5990  176.8690  140.8900 C   0  0  0  0  0  0  0  0  0  0  0  0
  188.0840  177.1010  147.1350 C   0  0  1  0  0  3  0  0  0  0  0  0
  190.1120  176.6330  145.5040 C   0  0  0  0  0  2  0  0  0  0  0  0
  191.6790  176.2330  143.6130 N   0  0  0  0  0  2  0  0  0  0  0  0
  187.4830  179.0470  148.4040 N   0  0  0  0  0  2  0  0  0  0  0  0
  187.7870  177.1390  144.8230 C   0  0  0  0  0  0  0  0  0  0  0  0
  185.8570  178.5890  144.7990 N   0  0  0  0  0  2  0  0  0  0  0  0
  182.6450  179.3080  143.4740 C   0  0  0  0  0  2  0  0  0  0  0  0
  183.4470  178.8320  144.6470 C   0  0  0  0  0  2  0  0  0  0  0  0
  183.4930  178.9430  142.2790 C   0  0  0  0  0  2  0  0  0  0  0  0
  184.8090  178.7350  142.7170 O   0  0  0  0  0  0  0  0  0  0  0  0
  184.6830  178.2300  144.0200 C   0  0  1  0  0  3  0  0  0  0  0  0
  1  7  1  6  0  0  0
  1  4  1  0  0  0  0
  2 18  1  0  0  0  0
  3 19  1  0  0  0  0
  4 16  1  1  0  0  0
  5  3  2  0  0  0  0
  5  4  1  0  0  0  0
  6  5  1  0  0  0  0
  8 15  1  0  0  0  0
  8  9  1  6  0  0  0
  9 18  1  0  0  0  0
 10  7  1  0  0  0  0
 11 14  1  0  0  0  0
 12 20  1  6  0  0  0
 12  8  1  0  0  0  0
 13 15  1  0  0  0  0
 14 10  1  0  0  0  0
 14  6  2  0  0  0  0
 15  2  1  1  0  0  0
 16 13  1  0  0  0  0
 17  1  1  0  0  0  0
 17  4  1  0  0  0  0
 19 12  1  0  0  0  0
 19 13  2  0  0  0  0
 21 22  1  0  0  0  0
 23 24  1  0  0  0  0
 23 21  1  0  0  0  0
 24 25  1  0  0  0  0
 25 22  1  0  0  0  0
 25 20  1  1  0  0  0
M  END
>  <MODEL>
3

>  <REMARK>
 VINA RESULT:      -7.7      1.968      2.959
  Name = 
  2 active torsions:
  status: ('A' for Active; 'I' for Inactive)
    1  A    between atoms: N_1  and  C_17
    2  A    between atoms: N_1  and  C_24
                            x       y       z     vdW  Elec       q    Type
                         _______ _______ _______ _____ _____    ______ ____

>  <TORSDO>
F 2

$$$$
=
 OpenBabel10222417093D

 25 30  0  0  1  0  0  0  0  0999 V2000
  189.0840  176.5330  138.0550 C   0  0  2  0  0  3  0  0  0  0  0  0
  186.8630  177.5910  142.5280 C   0  0  0  0  0  2  0  0  0  0  0  0
  191.2350  177.1850  140.9590 N   0  0  0  0  0  0  0  0  0  0  0  0
  189.7000  177.3710  139.0830 C   0  0  2  0  0  0  0  0  0  0  0  0
  191.0740  177.0700  139.6720 C   0  0  0  0  0  0  0  0  0  0  0  0
  192.2340  176.8070  138.8660 N   0  0  0  0  0  0  0  0  0  0  0  0
  189.9300  175.2990  137.7310 C   0  0  0  0  0  2  0  0  0  0  0  0
  188.8760  178.1360  143.7500 C   0  0  1  0  0  3  0  0  0  0  0  0
  188.0230  177.1060  144.4780 C   0  0  0  0  0  2  0  0  0  0  0  0
  191.1780  175.6260  137.0580 N   0  0  0  0  0  2  0  0  0  0  0  0
  193.6200  176.1810  137.0130 C   0  0  0  0  0  1  0  0  0  0  0  0
  190.2670  177.6190  143.3090 C   0  0  2  0  0  3  0  0  0  0  0  0
  189.0010  178.0110  141.3810 C   0  0  0  0  0  0  0  0  0  0  0  0
  192.3020  176.2410  137.6950 C   0  0  0  0  0  0  0  0  0  0  0  0
  188.1050  178.4580  142.4760 C   0  0  1  0  0  3  0  0  0  0  0  0
  188.7250  178.2020  139.9180 C   0  0  0  0  0  2  0  0  0  0  0  0
  189.7450  177.8060  137.6830 N   0  0  0  0  0  2  0  0  0  0  0  0
  186.6860  177.1510  143.9040 N   0  0  0  0  0  2  0  0  0  0  0  0
  190.1620  177.5710  141.8310 C   0  0  0  0  0  0  0  0  0  0  0  0
  190.5730  176.2940  143.8380 N   0  0  0  0  0  2  0  0  0  0  0  0
  191.5560  176.4190  147.2460 C   0  0  0  0  0  2  0  0  0  0  0  0
  190.9630  177.1460  146.0770 C   0  0  0  0  0  2  0  0  0  0  0  0
  192.4500  175.3790  146.6140 C   0  0  0  0  0  2  0  0  0  0  0  0
  192.0550  175.2070  145.2790 O   0  0  0  0  0  0  0  0  0  0  0  0
  191.5770  176.4630  144.8770 C   0  0  1  0  0  3  0  0  0  0  0  0
  1  7  1  6  0  0  0
  1  4  1  0  0  0  0
  2 18  1  0  0  0  0
  3 19  1  0  0  0  0
  4  5  1  0  0  0  0
  4 16  1  1  0  0  0
  5  3  2  0  0  0  0
  6  5  1  0  0  0  0
  8  9  1  6  0  0  0
 10 14  1  0  0  0  0
 10  7  1  0  0  0  0
 11 14  1  0  0  0  0
 12  8  1  0  0  0  0
 12 20  1  1  0  0  0
 13 19  2  0  0  0  0
 13 15  1  0  0  0  0
 14  6  2  0  0  0  0
 15  2  1  1  0  0  0
 15  8  1  0  0  0  0
 16 13  1  0  0  0  0
 17  1  1  0  0  0  0
 17  4  1  0  0  0  0
 18  9  1  0  0  0  0
 19 12  1  0  0  0  0
 22 21  1  0  0  0  0
 23 21  1  0  0  0  0
 24 23  1  0  0  0  0
 25 20  1  6  0  0  0
 25 24  1  0  0  0  0
 25 22  1  0  0  0  0
M  END
>  <MODEL>
4

>  <REMARK>
 VINA RESULT:      -7.1      3.520      6.568
  Name = 
  2 active torsions:
  status: ('A' for Active; 'I' for Inactive)
    1  A    between atoms: N_1  and  C_17
    2  A    between atoms: N_1  and  C_24
                            x       y       z     vdW  Elec       q    Type
                         _______ _______ _______ _____ _____    ______ ____

>  <TORSDO>
F 2

$$$$
=
 OpenBabel10222417093D

 25 30  0  0  1  0  0  0  0  0999 V2000
  187.9860  176.3100  137.1060 C   0  0  2  0  0  3  0  0  0  0  0  0
  184.0610  178.0480  139.8680 C   0  0  0  0  0  2  0  0  0  0  0  0
  188.6910  177.8270  140.3740 N   0  0  0  0  0  0  0  0  0  0  0  0
  188.0950  177.4180  138.0540 C   0  0  2  0  0  0  0  0  0  0  0  0
  189.0930  177.4170  139.2060 C   0  0  0  0  0  0  0  0  0  0  0  0
  190.4890  177.1240  139.0360 N   0  0  0  0  0  0  0  0  0  0  0  0
  188.9070  175.1430  137.4710 C   0  0  0  0  0  2  0  0  0  0  0  0
  185.3560  179.0790  141.6290 C   0  0  1  0  0  3  0  0  0  0  0  0
  184.2900  178.1400  142.1750 C   0  0  0  0  0  2  0  0  0  0  0  0
  190.3180  175.4610  137.3080 N   0  0  0  0  0  2  0  0  0  0  0  0
  192.5410  176.2760  138.1290 C   0  0  0  0  0  1  0  0  0  0  0  0
  186.8100  178.6470  141.9370 C   0  0  2  0  0  3  0  0  0  0  0  0
  186.4770  178.4560  139.6290 C   0  0  0  0  0  0  0  0  0  0  0  0
  191.0570  176.3280  138.1750 C   0  0  0  0  0  0  0  0  0  0  0  0
  185.1950  179.0230  140.1150 C   0  0  1  0  0  3  0  0  0  0  0  0
  186.8450  178.2910  138.1830 C   0  0  0  0  0  2  0  0  0  0  0  0
  188.7240  177.5390  136.7340 N   0  0  0  0  0  2  0  0  0  0  0  0
  183.3230  177.9010  141.1140 N   0  0  0  0  0  2  0  0  0  0  0  0
  187.3440  178.2660  140.6070 C   0  0  0  0  0  0  0  0  0  0  0  0
  186.8820  177.5140  142.8550 N   0  0  0  0  0  2  0  0  0  0  0  0
  187.3900  177.5040  146.3670 C   0  0  0  0  0  2  0  0  0  0  0  0
  186.6050  178.0400  145.2080 C   0  0  0  0  0  2  0  0  0  0  0  0
  188.7360  177.1660  145.7710 C   0  0  0  0  0  2  0  0  0  0  0  0
  188.5910  177.0600  144.3800 O   0  0  0  0  0  0  0  0  0  0  0  0
  187.5740  177.9680  144.0500 C   0  0  1  0  0  3  0  0  0  0  0  0
  1  7  1  1  0  0  0
  1  4  1  0  0  0  0
  2 18  1  0  0  0  0
  3 19  1  0  0  0  0
  4 16  1  1  0  0  0
  4  5  1  0  0  0  0
  5  3  2  0  0  0  0
  6  5  1  0  0  0  0
  8 12  1  0  0  0  0
  8  9  1  1  0  0  0
 10  7  1  0  0  0  0
 10 14  1  0  0  0  0
 11 14  1  0  0  0  0
 12 20  1  1  0  0  0
 13 15  1  0  0  0  0
 13 19  2  0  0  0  0
 14  6  2  0  0  0  0
 15  2  1  1  0  0  0
 15  8  1  0  0  0  0
 16 13  1  0  0  0  0
 17  1  1  0  0  0  0
 17  4  1  0  0  0  0
 18  9  1  0  0  0  0
 19 12  1  0  0  0  0
 22 21  1  0  0  0  0
 23 21  1  0  0  0  0
 24 23  1  0  0  0  0
 25 20  1  6  0  0  0
 25 24  1  0  0  0  0
 25 22  1  0  0  0  0
M  END
>  <MODEL>
5

>  <REMARK>
 VINA RESULT:      -7.0      3.155      5.538
  Name = 
  2 active torsions:
  status: ('A' for Active; 'I' for Inactive)
    1  A    between atoms: N_1  and  C_17
    2  A    between atoms: N_1  and  C_24
                            x       y       z     vdW  Elec       q    Type
                         _______ _______ _______ _____ _____    ______ ____

>  <TORSDO>
F 2

$$$$
=
 OpenBabel10222417093D

 25 30  0  0  1  0  0  0  0  0999 V2000
  188.6660  176.0620  136.9070 C   0  0  2  0  0  3  0  0  0  0  0  0
  186.3410  178.4840  140.7520 C   0  0  0  0  0  2  0  0  0  0  0  0
  190.4450  176.3670  140.1030 N   0  0  0  0  0  0  0  0  0  0  0  0
  189.3830  176.7820  137.9570 C   0  0  2  0  0  0  0  0  0  0  0  0
  190.4480  176.1200  138.8250 C   0  0  0  0  0  0  0  0  0  0  0  0
  191.5390  175.3560  138.2860 N   0  0  0  0  0  0  0  0  0  0  0  0
  189.0400  174.5780  136.8620 C   0  0  0  0  0  2  0  0  0  0  0  0
  188.2070  178.4820  142.2890 C   0  0  1  0  0  3  0  0  0  0  0  0
  186.9380  177.9320  142.9240 C   0  0  0  0  0  2  0  0  0  0  0  0
  190.4080  174.3500  136.4180 N   0  0  0  0  0  2  0  0  0  0  0  0
  192.8610  174.0180  136.8000 C   0  0  0  0  0  1  0  0  0  0  0  0
  189.3620  177.4590  142.1740 C   0  0  2  0  0  3  0  0  0  0  0  0
  188.6310  177.9640  140.0100 C   0  0  0  0  0  0  0  0  0  0  0  0
  191.5700  174.6310  137.2050 C   0  0  0  0  0  0  0  0  0  0  0  0
  187.8070  178.8520  140.8660 C   0  0  1  0  0  3  0  0  0  0  0  0
  188.6660  178.0150  138.5100 C   0  0  0  0  0  2  0  0  0  0  0  0
  189.7940  176.9570  136.5590 N   0  0  0  0  0  2  0  0  0  0  0  0
  185.8120  178.3460  142.1000 N   0  0  0  0  0  2  0  0  0  0  0  0
  189.4700  177.2260  140.7140 C   0  0  0  0  0  0  0  0  0  0  0  0
  189.0800  176.2050  142.8670 N   0  0  0  0  0  2  0  0  0  0  0  0
  191.6030  177.5710  144.9550 C   0  0  0  0  0  2  0  0  0  0  0  0
  191.2760  176.8090  143.7070 C   0  0  0  0  0  2  0  0  0  0  0  0
  190.4410  177.2810  145.8760 C   0  0  0  0  0  2  0  0  0  0  0  0
  189.3660  176.8220  145.1010 O   0  0  0  0  0  0  0  0  0  0  0  0
  189.9570  176.1430  144.0250 C   0  0  1  0  0  3  0  0  0  0  0  0
  1  7  1  1  0  0  0
  1  4  1  0  0  0  0
  2 18  1  0  0  0  0
  3 19  1  0  0  0  0
  4 16  1  1  0  0  0
  4  5  1  0  0  0  0
  5  3  2  0  0  0  0
  6  5  1  0  0  0  0
  8  9  1  6  0  0  0
 10  7  1  0  0  0  0
 10 14  1  0  0  0  0
 11 14  1  0  0  0  0
 12  8  1  0  0  0  0
 12 20  1  1  0  0  0
 13 19  2  0  0  0  0
 13 15  1  0  0  0  0
 14  6  2  0  0  0  0
 15  2  1  1  0  0  0
 15  8  1  0  0  0  0
 16 13  1  0  0  0  0
 17  1  1  0  0  0  0
 17  4  1  0  0  0  0
 18  9  1  0  0  0  0
 19 12  1  0  0  0  0
 21 23  1  0  0  0  0
 22 25  1  0  0  0  0
 22 21  1  0  0  0  0
 24 23  1  0  0  0  0
 25 20  1  6  0  0  0
 25 24  1  0  0  0  0
M  END
>  <MODEL>
6

>  <REMARK>
 VINA RESULT:      -7.0      3.706      6.405
  Name = 
  2 active torsions:
  status: ('A' for Active; 'I' for Inactive)
    1  A    between atoms: N_1  and  C_17
    2  A    between atoms: N_1  and  C_24
                            x       y       z     vdW  Elec       q    Type
                         _______ _______ _______ _____ _____    ______ ____

>  <TORSDO>
F 2

$$$$
=
 OpenBabel10222417093D

 25 30  0  0  1  0  0  0  0  0999 V2000
  183.6910  177.8780  142.1920 C   0  0  2  0  0  3  0  0  0  0  0  0
  188.3650  176.3910  143.6090 C   0  0  0  0  0  2  0  0  0  0  0  0
  186.5540  178.9610  140.1650 N   0  0  0  0  0  0  0  0  0  0  0  0
  184.9010  178.6520  141.9200 C   0  0  2  0  0  0  0  0  0  0  0  0
  185.3040  179.0750  140.5110 C   0  0  0  0  0  0  0  0  0  0  0  0
  184.4060  179.7260  139.5980 N   0  0  0  0  0  0  0  0  0  0  0  0
  182.9600  177.4750  140.9090 C   0  0  0  0  0  2  0  0  0  0  0  0
  189.6050  177.6990  141.9990 C   0  0  1  0  0  3  0  0  0  0  0  0
  190.0110  176.2330  141.9830 C   0  0  0  0  0  2  0  0  0  0  0  0
  182.3680  178.6070  140.2120 N   0  0  0  0  0  2  0  0  0  0  0  0
  182.3900  180.4640  138.5300 C   0  0  0  0  0  1  0  0  0  0  0  0
  188.9630  178.2000  140.6820 C   0  0  2  0  0  3  0  0  0  0  0  0
  187.3120  178.2200  142.3390 C   0  0  0  0  0  0  0  0  0  0  0  0
  183.1150  179.5920  139.4900 C   0  0  0  0  0  0  0  0  0  0  0  0
  188.5300  177.8000  143.0740 C   0  0  1  0  0  3  0  0  0  0  0  0
  185.9960  178.5470  142.9820 C   0  0  0  0  0  2  0  0  0  0  0  0
  183.7050  179.3420  142.4180 N   0  0  0  0  0  2  0  0  0  0  0  0
  189.5410  175.6280  143.2200 N   0  0  0  0  0  2  0  0  0  0  0  0
  187.5500  178.4430  141.0590 C   0  0  0  0  0  0  0  0  0  0  0  0
  189.0380  177.2180  139.6050 N   0  0  0  0  0  2  0  0  0  0  0  0
  189.4320  177.6420  136.1040 C   0  0  0  0  0  2  0  0  0  0  0  0
  189.8280  176.8840  137.3350 C   0  0  0  0  0  2  0  0  0  0  0  0
  189.0340  179.0030  136.6260 C   0  0  0  0  0  2  0  0  0  0  0  0
  188.7690  178.8910  137.9980 O   0  0  0  0  0  0  0  0  0  0  0  0
  189.6290  177.8810  138.4540 C   0  0  1  0  0  3  0  0  0  0  0  0
  1  7  1  6  0  0  0
  1 17  1  0  0  0  0
  3  5  2  0  0  0  0
  3 19  1  0  0  0  0
  4  1  1  0  0  0  0
  4 17  1  0  0  0  0
  4 16  1  1  0  0  0
  5  4  1  0  0  0  0
  6  5  1  0  0  0  0
  8  9  1  6  0  0  0
  8 15  1  0  0  0  0
  9 18  1  0  0  0  0
 10  7  1  0  0  0  0
 11 14  1  0  0  0  0
 12 20  1  6  0  0  0
 12 19  1  0  0  0  0
 12  8  1  0  0  0  0
 13 16  1  0  0  0  0
 13 15  1  0  0  0  0
 14  6  2  0  0  0  0
 14 10  1  0  0  0  0
 15  2  1  6  0  0  0
 18  2  1  0  0  0  0
 19 13  2  0  0  0  0
 21 23  1  0  0  0  0
 21 22  1  0  0  0  0
 22 25  1  0  0  0  0
 23 24  1  0  0  0  0
 24 25  1  0  0  0  0
 25 20  1  1  0  0  0
M  END
>  <MODEL>
7

>  <REMARK>
 VINA RESULT:      -6.9      2.677      6.302
  Name = 
  2 active torsions:
  status: ('A' for Active; 'I' for Inactive)
    1  A    between atoms: N_1  and  C_17
    2  A    between atoms: N_1  and  C_24
                            x       y       z     vdW  Elec       q    Type
                         _______ _______ _______ _____ _____    ______ ____

>  <TORSDO>
F 2

$$$$
=
 OpenBabel10222417093D

 25 30  0  0  1  0  0  0  0  0999 V2000
  186.3600  176.3170  136.8430 C   0  0  2  0  0  3  0  0  0  0  0  0
  183.9560  178.2460  140.9120 C   0  0  0  0  0  2  0  0  0  0  0  0
  188.3880  177.7110  139.5670 N   0  0  0  0  0  0  0  0  0  0  0  0
  186.9060  177.3940  137.6670 C   0  0  2  0  0  0  0  0  0  0  0  0
  188.2730  177.3020  138.3370 C   0  0  0  0  0  0  0  0  0  0  0  0
  189.4680  176.9210  137.6360 N   0  0  0  0  0  0  0  0  0  0  0  0
  187.2680  175.0840  136.8250 C   0  0  0  0  0  2  0  0  0  0  0  0
  185.9040  179.1510  142.0200 C   0  0  1  0  0  3  0  0  0  0  0  0
  185.0740  178.2720  142.9440 C   0  0  0  0  0  2  0  0  0  0  0  0
  188.5210  175.3120  136.1210 N   0  0  0  0  0  2  0  0  0  0  0  0
  190.9380  175.9610  136.0020 C   0  0  0  0  0  1  0  0  0  0  0  0
  187.3290  178.6170  141.7370 C   0  0  2  0  0  3  0  0  0  0  0  0
  186.1090  178.5000  139.7440 C   0  0  0  0  0  0  0  0  0  0  0  0
  189.5970  176.1090  136.6260 C   0  0  0  0  0  0  0  0  0  0  0  0
  185.1610  179.1390  140.6900 C   0  0  1  0  0  3  0  0  0  0  0  0
  185.8700  178.3430  138.2700 C   0  0  0  0  0  2  0  0  0  0  0  0
  186.9770  177.5030  136.2060 N   0  0  0  0  0  2  0  0  0  0  0  0
  183.7550  178.1200  142.3480 N   0  0  0  0  0  2  0  0  0  0  0  0
  187.2730  178.2320  140.3060 C   0  0  0  0  0  0  0  0  0  0  0  0
  187.6760  177.4630  142.5590 N   0  0  0  0  0  2  0  0  0  0  0  0
  189.5620  177.1750  145.5510 C   0  0  0  0  0  2  0  0  0  0  0  0
  188.3560  177.7490  144.8710 C   0  0  0  0  0  2  0  0  0  0  0  0
  190.5630  176.9990  144.4330 C   0  0  0  0  0  2  0  0  0  0  0  0
  189.8710  177.0080  143.2140 O   0  0  0  0  0  0  0  0  0  0  0  0
  188.7760  177.8590  143.4230 C   0  0  1  0  0  3  0  0  0  0  0  0
  1  7  1  1  0  0  0
  1  4  1  0  0  0  0
  2 18  1  0  0  0  0
  3 19  1  0  0  0  0
  4 16  1  1  0  0  0
  4  5  1  0  0  0  0
  5  3  2  0  0  0  0
  6  5  1  0  0  0  0
  8  9  1  1  0  0  0
 10 14  1  0  0  0  0
 10  7  1  0  0  0  0
 11 14  1  0  0  0  0
 12  8  1  0  0  0  0
 12 20  1  1  0  0  0
 13 19  2  0  0  0  0
 13 15  1  0  0  0  0
 14  6  2  0  0  0  0
 15  2  1  1  0  0  0
 15  8  1  0  0  0  0
 16 13  1  0  0  0  0
 17  1  1  0  0  0  0
 17  4  1  0  0  0  0
 18  9  1  0  0  0  0
 19 12  1  0  0  0  0
 22 21  1  0  0  0  0
 23 21  1  0  0  0  0
 24 25  1  0  0  0  0
 24 23  1  0  0  0  0
 25 20  1  6  0  0  0
 25 22  1  0  0  0  0
M  END
>  <MODEL>
8

>  <REMARK>
 VINA RESULT:      -6.9      3.572      6.088
  Name = 
  2 active torsions:
  status: ('A' for Active; 'I' for Inactive)
    1  A    between atoms: N_1  and  C_17
    2  A    between atoms: N_1  and  C_24
                            x       y       z     vdW  Elec       q    Type
                         _______ _______ _______ _____ _____    ______ ____

>  <TORSDO>
F 2

$$$$
=
 OpenBabel10222417093D

 25 30  0  0  1  0  0  0  0  0999 V2000
  188.2580  176.4700  137.4780 C   0  0  2  0  0  3  0  0  0  0  0  0
  183.3650  177.6470  138.3350 C   0  0  0  0  0  2  0  0  0  0  0  0
  187.4390  178.4580  140.4540 N   0  0  0  0  0  0  0  0  0  0  0  0
  187.8310  177.6750  138.1860 C   0  0  2  0  0  0  0  0  0  0  0  0
  188.3090  178.0120  139.5950 C   0  0  0  0  0  0  0  0  0  0  0  0
  189.6940  178.0000  139.9780 N   0  0  0  0  0  0  0  0  0  0  0  0
  189.1410  175.5700  138.3470 C   0  0  0  0  0  2  0  0  0  0  0  0
  183.7280  179.1180  140.2190 C   0  0  1  0  0  3  0  0  0  0  0  0
  182.6930  178.0430  140.5190 C   0  0  0  0  0  2  0  0  0  0  0  0
  190.4430  176.1550  138.6310 N   0  0  0  0  0  2  0  0  0  0  0  0
  192.0390  177.5030  140.0120 C   0  0  0  0  0  1  0  0  0  0  0  0
  185.0070  179.0360  141.0870 C   0  0  2  0  0  3  0  0  0  0  0  0
  185.6010  178.5220  138.8830 C   0  0  0  0  0  0  0  0  0  0  0  0
  190.6580  177.2490  139.5280 C   0  0  0  0  0  0  0  0  0  0  0  0
  184.1590  178.8590  138.7810 C   0  0  1  0  0  3  0  0  0  0  0  0
  186.5070  178.2760  137.7120 C   0  0  0  0  0  2  0  0  0  0  0  0
  188.8840  177.7760  137.1700 N   0  0  0  0  0  2  0  0  0  0  0  0
  182.2450  177.4900  139.2500 N   0  0  0  0  0  2  0  0  0  0  0  0
  186.0530  178.6280  140.1200 C   0  0  0  0  0  0  0  0  0  0  0  0
  184.9010  178.0540  142.1620 N   0  0  0  0  0  2  0  0  0  0  0  0
  184.5970  178.6290  145.6500 C   0  0  0  0  0  2  0  0  0  0  0  0
  184.1060  178.9530  144.2720 C   0  0  0  0  0  2  0  0  0  0  0  0
  186.0370  178.2230  145.4390 C   0  0  0  0  0  2  0  0  0  0  0  0
  186.2090  177.8880  144.0880 O   0  0  0  0  0  0  0  0  0  0  0  0
  185.3110  178.7100  143.3920 C   0  0  1  0  0  3  0  0  0  0  0  0
  1  4  1  0  0  0  0
  1  7  1  1  0  0  0
  2 18  1  0  0  0  0
  4 16  1  6  0  0  0
  4  5  1  0  0  0  0
  5  6  1  0  0  0  0
  5  3  2  0  0  0  0
  7 10  1  0  0  0  0
  8  9  1  1  0  0  0
  8 12  1  0  0  0  0
 10 14  1  0  0  0  0
 12 20  1  1  0  0  0
 13 19  2  0  0  0  0
 14  6  2  0  0  0  0
 14 11  1  0  0  0  0
 15  2  1  1  0  0  0
 15 13  1  0  0  0  0
 15  8  1  0  0  0  0
 16 13  1  0  0  0  0
 17  1  1  0  0  0  0
 17  4  1  0  0  0  0
 18  9  1  0  0  0  0
 19  3  1  0  0  0  0
 19 12  1  0  0  0  0
 22 21  1  0  0  0  0
 23 21  1  0  0  0  0
 24 23  1  0  0  0  0
 25 20  1  6  0  0  0
 25 24  1  0  0  0  0
 25 22  1  0  0  0  0
M  END
>  <MODEL>
9

>  <REMARK>
 VINA RESULT:      -6.8      2.751      5.249
  Name = 
  2 active torsions:
  status: ('A' for Active; 'I' for Inactive)
    1  A    between atoms: N_1  and  C_17
    2  A    between atoms: N_1  and  C_24
                            x       y       z     vdW  Elec       q    Type
                         _______ _______ _______ _____ _____    ______ ____

>  <TORSDO>
F 2

$$$$
