=
 OpenBabel10222420333D

 61 64  0  0  1  0  0  0  0  0999 V2000
  189.4240  176.4680  138.3900 C   0  0  2  0  0  3  0  0  0  0  0  0
  187.9220  176.6020  138.0350 C   0  0  1  0  0  3  0  0  0  0  0  0
  187.4170  178.0560  138.0960 C   0  0  0  0  0  2  0  0  0  0  0  0
  186.1390  178.2420  137.2800 C   0  0  0  0  0  1  0  0  0  0  0  0
  187.5580  175.9620  136.6680 C   0  0  0  0  0  2  0  0  0  0  0  0
  186.6580  174.7390  136.7980 C   0  0  0  0  0  2  0  0  0  0  0  0
  187.0350  173.5800  135.8710 C   0  0  1  0  0  3  0  0  0  0  0  0
  188.0240  172.6610  136.5950 C   0  0  0  0  0  1  0  0  0  0  0  0
  185.8340  172.7500  135.4120 C   0  0  0  0  0  2  0  0  0  0  0  0
  185.5380  171.7180  136.3850 N   0  0  0  0  0  2  0  0  0  0  0  0
  183.2430  171.2240  136.8130 N   0  0  0  0  0  2  0  0  0  0  0  0
  184.3350  172.1630  137.0770 C   0  0  2  0  0  3  0  0  0  0  0  0
  183.2850  172.5340  136.1210 C   0  0  2  0  0  3  0  0  0  0  0  0
  182.2500  173.4770  136.7240 C   0  0  0  0  0  0  0  0  0  0  0  0
  180.9860  172.9930  136.9870 O   0  0  0  0  0  1  0  0  0  0  0  0
  182.5670  174.7460  137.0290 C   0  0  0  0  0  3  0  0  0  0  0  0
  181.6490  175.8360  137.5270 C   0  0  2  0  0  3  0  0  0  0  0  0
  181.7310  177.4130  136.6690 S   0  0  0  0  0  0  0  0  0  0  0  0
  182.7010  177.2610  135.5350 O   0  0  0  0  0  0  0  0  0  0  0  0
  180.3710  177.7260  136.0930 O   0  0  0  0  0  0  0  0  0  0  0  0
  181.2040  179.6730  137.7600 C   0  0  0  0  0  1  0  0  0  0  0  0
  182.2660  178.6870  137.7150 N   0  0  0  0  0  2  0  0  0  0  0  0
  181.7720  175.9960  139.0430 C   0  0  0  0  0  2  0  0  0  0  0  0
  180.5880  175.3550  139.7460 C   0  0  0  0  0  2  0  0  0  0  0  0
  179.6010  176.4320  140.1550 C   0  0  0  0  0  1  0  0  0  0  0  0
  189.9560  177.6350  139.2470 C   0  0  0  0  0  2  0  0  0  0  0  0
  190.1390  177.1540  140.6710 C   0  0  0  0  0  2  0  0  0  0  0  0
  188.7970  177.0350  141.3680 C   0  0  0  0  0  2  0  0  0  0  0  0
  189.0240  176.3180  142.6910 C   0  0  0  0  0  2  0  0  0  0  0  0
  187.0760  177.5830  146.9410 C   0  0  0  0  0  2  0  0  0  0  0  0
  188.3050  177.1240  147.7530 C   0  0  1  0  0  3  0  0  0  0  0  0
  189.9920  177.9450  145.9830 C   0  0  0  0  0  0  0  0  0  0  0  0
  188.9710  176.0910  147.0700 O   0  0  0  0  0  0  0  0  0  0  0  0
  190.1300  179.1570  145.9250 O   0  0  0  0  0  0  0  0  0  0  0  0
  190.1040  177.1280  144.7330 C   0  0  0  0  0  2  0  0  0  0  0  0
  188.8830  177.3060  143.8340 C   0  0  2  0  0  3  0  0  0  0  0  0
  187.5700  177.0110  144.5650 C   0  0  0  0  0  2  0  0  0  0  0  0
  187.2290  178.1360  145.5190 C   0  0  1  0  0  3  0  0  0  0  0  0
  189.7270  177.2690  147.2950 C   0  0  2  0  0  3  0  0  0  0  0  0
  185.9080  178.7580  145.0690 C   0  0  0  0  0  2  0  0  0  0  0  0
  185.5360  178.3310  143.6480 C   0  0  0  0  0  2  0  0  0  0  0  0
  181.3410  179.0260  141.8740 C   0  0  0  0  0  2  0  0  0  0  0  0
  182.6720  178.8270  141.1680 C   0  0  0  0  0  2  0  0  0  0  0  0
  184.1300  178.7670  143.2300 C   0  0  2  0  0  3  0  0  0  0  0  0
  181.6890  178.8520  144.0440 C   0  0  0  0  0  2  0  0  0  0  0  0
  181.5250  179.7970  143.0280 O   0  0  0  0  0  0  0  0  0  0  0  0
  183.1640  178.7310  144.4270 C   0  0  0  0  0  2  0  0  0  0  0  0
  183.6350  177.9920  141.9990 C   0  0  0  0  0  2  0  0  0  0  0  0
  190.2130  176.2930  137.0770 C   0  0  0  0  0  2  0  0  0  0  0  0
  192.0440  175.2810  138.0790 C   0  0  0  0  0  1  0  0  0  0  0  0
  191.6620  176.3960  137.2170 N   0  0  0  0  0  0  0  0  0  0  0  0
  192.2030  176.1350  135.8800 C   0  0  0  0  0  2  0  0  0  0  0  0
  192.5300  174.6710  135.5720 C   0  0  0  0  0  2  0  0  0  0  0  0
  193.8610  174.3920  134.8730 C   0  0  2  0  0  3  0  0  0  0  0  0
  193.0290  172.0600  134.7780 C   0  0  0  0  0  1  0  0  0  0  0  0
  194.2320  172.9310  135.0790 C   0  0  0  0  0  2  0  0  0  0  0  0
  194.8980  175.2100  135.4910 N   0  0  0  0  0  2  0  0  0  0  0  0
  196.0860  174.3780  135.6650 C   0  0  0  0  0  2  0  0  0  0  0  0
  195.7650  175.0580  138.0470 O   0  0  0  0  0  1  0  0  0  0  0  0
  196.4020  174.2580  137.1200 C   0  0  0  0  0  0  0  0  0  0  0  0
  197.2390  173.3950  137.4970 O   0  0  0  0  0  0  0  0  0  0  0  0
  1 49  1  6  0  0  0
  1 26  1  0  0  0  0
  2  5  1  6  0  0  0
  2  3  1  0  0  0  0
  2  1  1  0  0  0  0
  4  3  1  0  0  0  0
  5  6  1  0  0  0  0
  7  8  1  1  0  0  0
  7  6  1  0  0  0  0
  9  7  1  0  0  0  0
  9 10  1  0  0  0  0
 11 12  1  0  0  0  0
 12 10  1  6  0  0  0
 13 14  1  1  0  0  0
 13 11  1  0  0  0  0
 13 12  1  0  0  0  0
 14 15  1  0  0  0  0
 14 16  2  0  0  0  0
 17 16  1  6  0  0  0
 17 23  1  0  0  0  0
 18 17  1  0  0  0  0
 18 22  1  0  0  0  0
 19 18  2  0  0  0  0
 20 18  2  0  0  0  0
 22 21  1  0  0  0  0
 23 24  1  0  0  0  0
 24 25  1  0  0  0  0
 26 27  1  0  0  0  0
 27 28  1  0  0  0  0
 28 29  1  0  0  0  0
 31 30  1  6  0  0  0
 33 39  1  0  0  0  0
 33 31  1  0  0  0  0
 34 32  2  0  0  0  0
 35 32  1  0  0  0  0
 36 29  1  6  0  0  0
 36 37  1  0  0  0  0
 36 35  1  0  0  0  0
 37 38  1  0  0  0  0
 38 40  1  6  0  0  0
 38 30  1  0  0  0  0
 39 32  1  6  0  0  0
 39 31  1  0  0  0  0
 41 40  1  0  0  0  0
 42 46  1  0  0  0  0
 43 42  1  0  0  0  0
 43 48  1  0  0  0  0
 44 41  1  1  0  0  0
 44 47  1  0  0  0  0
 45 47  1  0  0  0  0
 46 45  1  0  0  0  0
 48 44  1  0  0  0  0
 49 51  1  0  0  0  0
 51 50  1  0  0  0  0
 52 51  1  0  0  0  0
 53 52  1  0  0  0  0
 54 56  1  1  0  0  0
 54 57  1  0  0  0  0
 54 53  1  0  0  0  0
 55 56  1  0  0  0  0
 57 58  1  0  0  0  0
 58 60  1  0  0  0  0
 60 61  2  0  0  0  0
 60 59  1  0  0  0  0
M  END
>  <MODEL>
1

>  <REMARK>
 VINA RESULT:      -5.3      0.000      0.000
  Name = 
  31 active torsions:
  status: ('A' for Active; 'I' for Inactive)
    1  A    between atoms: C_1  and  N_8
    2  A    between atoms: C_1  and  C_21
    3  A    between atoms: C_1  and  C_28
    4  A    between atoms: C_4  and  S_15
    5  A    between atoms: C_4  and  C_46
    6  A    between atoms: C_4  and  C_51
    7  A    between atoms: C_7  and  N_8
    8  A    between atoms: C_7  and  C_42
    9  A    between atoms: C_9  and  C_34
   10  A    between atoms: C_9  and  C_39
   11  A    between atoms: C_10  and  C_53
   12  A    between atoms: C_11  and  C_29
   13  A    between atoms: C_11  and  C_39
   14  A    between atoms: C_14  and  C_36
   15  A    between atoms: C_14  and  C_43
   16  A    between atoms: S_15  and  N_38
   17  A    between atoms: C_19  and  C_45
   18  A    between atoms: C_23  and  N_41
   19  A    between atoms: C_23  and  C_43
   20  A    between atoms: C_25  and  C_58
   21  A    between atoms: C_26  and  C_28
   22  A    between atoms: C_26  and  N_59
   23  A    between atoms: C_32  and  C_55
   24  A    between atoms: C_32  and  N_59
   25  A    between atoms: C_33  and  C_51
   26  A    between atoms: C_34  and  C_55
   27  A    between atoms: C_35  and  N_41
   28  A    between atoms: C_36  and  C_53
   29  A    between atoms: C_47  and  C_49
   30  A    between atoms: C_47  and  C_58
   31  A    between atoms: C_53  and  C_55
                            x       y       z     vdW  Elec       q    Type
                         _______ _______ _______ _____ _____    ______ ____

>  <TORSDO>
F 31

$$$$
=
 OpenBabel10222420333D

 61 64  0  0  1  0  0  0  0  0999 V2000
  186.8140  178.2950  143.6230 C   0  0  2  0  0  3  0  0  0  0  0  0
  187.7670  177.7170  144.6980 C   0  0  1  0  0  3  0  0  0  0  0  0
  187.0220  177.1490  145.9200 C   0  0  0  0  0  2  0  0  0  0  0  0
  187.1210  178.0840  147.1250 C   0  0  0  0  0  1  0  0  0  0  0  0
  188.7590  176.6650  144.1350 C   0  0  0  0  0  2  0  0  0  0  0  0
  190.2150  176.9800  144.4490 C   0  0  0  0  0  2  0  0  0  0  0  0
  190.9170  177.8350  143.3900 C   0  0  1  0  0  3  0  0  0  0  0  0
  191.7100  178.9450  144.0870 C   0  0  0  0  0  1  0  0  0  0  0  0
  191.8670  177.0380  142.4930 C   0  0  0  0  0  2  0  0  0  0  0  0
  191.6720  177.4060  141.1050 N   0  0  0  0  0  2  0  0  0  0  0  0
  193.2380  177.8870  139.3710 N   0  0  0  0  0  2  0  0  0  0  0  0
  192.8490  176.9190  140.3990 C   0  0  2  0  0  3  0  0  0  0  0  0
  192.5400  176.6360  138.9920 C   0  0  2  0  0  3  0  0  0  0  0  0
  193.5230  175.6580  138.3610 C   0  0  0  0  0  0  0  0  0  0  0  0
  194.8550  175.7410  138.7080 O   0  0  0  0  0  1  0  0  0  0  0  0
  193.1030  174.7080  137.5100 C   0  0  0  0  0  3  0  0  0  0  0  0
  193.9430  173.7340  136.7180 C   0  0  2  0  0  3  0  0  0  0  0  0
  195.2830  172.9240  137.6000 S   0  0  0  0  0  0  0  0  0  0  0  0
  196.5510  173.6500  137.2630 O   0  0  0  0  0  0  0  0  0  0  0  0
  195.0400  173.0550  139.0840 O   0  0  0  0  0  0  0  0  0  0  0  0
  196.6040  171.1590  136.2890 C   0  0  0  0  0  1  0  0  0  0  0  0
  195.4370  171.2590  137.1450 N   0  0  0  0  0  2  0  0  0  0  0  0
  194.4120  174.3670  135.4080 C   0  0  0  0  0  2  0  0  0  0  0  0
  193.9010  175.7930  135.2910 C   0  0  0  0  0  2  0  0  0  0  0  0
  195.0760  176.7530  135.3180 C   0  0  0  0  0  1  0  0  0  0  0  0
  185.3230  178.0320  143.9220 C   0  0  0  0  0  2  0  0  0  0  0  0
  184.5250  179.2660  143.5590 C   0  0  0  0  0  2  0  0  0  0  0  0
  183.2890  178.8850  142.7660 C   0  0  0  0  0  2  0  0  0  0  0  0
  183.7170  178.6520  141.3240 C   0  0  0  0  0  2  0  0  0  0  0  0
  181.2640  178.8150  137.1510 C   0  0  0  0  0  2  0  0  0  0  0  0
  181.7690  177.4340  136.6860 C   0  0  1  0  0  3  0  0  0  0  0  0
  181.6610  176.4100  139.0510 C   0  0  0  0  0  0  0  0  0  0  0  0
  183.0270  177.1670  137.2560 O   0  0  0  0  0  0  0  0  0  0  0  0
  180.5350  176.1740  139.4600 O   0  0  0  0  0  0  0  0  0  0  0  0
  182.7230  176.8370  140.0160 C   0  0  0  0  0  2  0  0  0  0  0  0
  182.5070  178.2720  140.4910 C   0  0  2  0  0  3  0  0  0  0  0  0
  182.3940  179.2620  139.3280 C   0  0  0  0  0  2  0  0  0  0  0  0
  181.0530  179.1200  138.6390 C   0  0  1  0  0  3  0  0  0  0  0  0
  181.9910  176.2610  137.5960 C   0  0  2  0  0  3  0  0  0  0  0  0
  180.3000  180.4410  138.7860 C   0  0  0  0  0  2  0  0  0  0  0  0
  181.1500  181.6300  138.3330 C   0  0  0  0  0  2  0  0  0  0  0  0
  179.8400  184.5340  135.0040 C   0  0  0  0  0  2  0  0  0  0  0  0
  180.0440  184.7880  136.4880 C   0  0  0  0  0  2  0  0  0  0  0  0
  180.5370  182.4050  137.1630 C   0  0  2  0  0  3  0  0  0  0  0  0
  180.3660  182.4320  134.5950 C   0  0  0  0  0  2  0  0  0  0  0  0
  179.2690  183.2700  134.8120 O   0  0  0  0  0  0  0  0  0  0  0  0
  180.6690  181.6140  135.8500 C   0  0  0  0  0  2  0  0  0  0  0  0
  181.0730  183.8430  137.0880 C   0  0  0  0  0  2  0  0  0  0  0  0
  187.2470  177.7410  142.2510 C   0  0  0  0  0  2  0  0  0  0  0  0
  188.6460  179.4380  141.5170 C   0  0  0  0  0  1  0  0  0  0  0  0
  187.3980  178.7480  141.2060 N   0  0  0  0  0  0  0  0  0  0  0  0
  187.5990  177.9950  139.9650 C   0  0  0  0  0  3  0  0  0  0  0  0
  188.9820  178.1360  139.3200 C   0  0  0  0  0  3  0  0  0  0  0  0
  189.1910  177.4430  137.9730 C   0  0  2  0  0  3  0  0  0  0  0  0
  187.6390  178.8000  136.5990 C   0  0  0  0  0  1  0  0  0  0  0  0
  189.0950  178.4780  136.8640 C   0  0  0  0  0  2  0  0  0  0  0  0
  188.1250  176.4690  137.7730 N   0  0  0  0  0  2  0  0  0  0  0  0
  188.7210  175.2490  137.2350 C   0  0  0  0  0  2  0  0  0  0  0  0
  186.9570  174.8150  135.5210 O   0  0  0  0  0  1  0  0  0  0  0  0
  188.2820  175.0610  135.8200 C   0  0  0  0  0  0  0  0  0  0  0  0
  189.1320  175.1580  134.8950 O   0  0  0  0  0  0  0  0  0  0  0  0
  1 49  1  6  0  0  0
  1 26  1  0  0  0  0
  1  2  1  0  0  0  0
  2  5  1  6  0  0  0
  2  3  1  0  0  0  0
  3  4  1  0  0  0  0
  5  6  1  0  0  0  0
  7  8  1  1  0  0  0
  7  6  1  0  0  0  0
  9  7  1  0  0  0  0
 10  9  1  0  0  0  0
 11 12  1  0  0  0  0
 12 10  1  1  0  0  0
 13 14  1  6  0  0  0
 13 11  1  0  0  0  0
 13 12  1  0  0  0  0
 14 15  1  0  0  0  0
 16 14  2  0  0  0  0
 17 23  1  6  0  0  0
 17 16  1  0  0  0  0
 17 18  1  0  0  0  0
 18 20  2  0  0  0  0
 19 18  2  0  0  0  0
 21 22  1  0  0  0  0
 22 18  1  0  0  0  0
 24 25  1  0  0  0  0
 24 23  1  0  0  0  0
 27 26  1  0  0  0  0
 28 27  1  0  0  0  0
 29 28  1  0  0  0  0
 30 38  1  0  0  0  0
 31 30  1  1  0  0  0
 31 33  1  0  0  0  0
 31 39  1  0  0  0  0
 32 34  2  0  0  0  0
 32 35  1  0  0  0  0
 35 36  1  0  0  0  0
 36 29  1  1  0  0  0
 37 36  1  0  0  0  0
 38 40  1  6  0  0  0
 38 37  1  0  0  0  0
 39 33  1  1  0  0  0
 39 32  1  0  0  0  0
 41 40  1  0  0  0  0
 42 43  1  0  0  0  0
 43 48  1  0  0  0  0
 44 41  1  1  0  0  0
 45 46  1  0  0  0  0
 45 47  1  0  0  0  0
 46 42  1  0  0  0  0
 47 44  1  0  0  0  0
 48 44  1  0  0  0  0
 51 50  1  0  0  0  0
 51 49  1  0  0  0  0
 52 51  1  0  0  0  0
 53 52  2  0  0  0  0
 54 56  1  6  0  0  0
 54 53  1  0  0  0  0
 55 56  1  0  0  0  0
 57 54  1  0  0  0  0
 58 57  1  0  0  0  0
 59 60  1  0  0  0  0
 60 58  1  0  0  0  0
 61 60  2  0  0  0  0
M  END
>  <MODEL>
2

>  <REMARK>
 VINA RESULT:      -5.0      3.565     10.128
  Name = 
  31 active torsions:
  status: ('A' for Active; 'I' for Inactive)
    1  A    between atoms: C_1  and  N_8
    2  A    between atoms: C_1  and  C_21
    3  A    between atoms: C_1  and  C_28
    4  A    between atoms: C_4  and  S_15
    5  A    between atoms: C_4  and  C_46
    6  A    between atoms: C_4  and  C_51
    7  A    between atoms: C_7  and  N_8
    8  A    between atoms: C_7  and  C_42
    9  A    between atoms: C_9  and  C_34
   10  A    between atoms: C_9  and  C_39
   11  A    between atoms: C_10  and  C_53
   12  A    between atoms: C_11  and  C_29
   13  A    between atoms: C_11  and  C_39
   14  A    between atoms: C_14  and  C_36
   15  A    between atoms: C_14  and  C_43
   16  A    between atoms: S_15  and  N_38
   17  A    between atoms: C_19  and  C_45
   18  A    between atoms: C_23  and  N_41
   19  A    between atoms: C_23  and  C_43
   20  A    between atoms: C_25  and  C_58
   21  A    between atoms: C_26  and  C_28
   22  A    between atoms: C_26  and  N_59
   23  A    between atoms: C_32  and  C_55
   24  A    between atoms: C_32  and  N_59
   25  A    between atoms: C_33  and  C_51
   26  A    between atoms: C_34  and  C_55
   27  A    between atoms: C_35  and  N_41
   28  A    between atoms: C_36  and  C_53
   29  A    between atoms: C_47  and  C_49
   30  A    between atoms: C_47  and  C_58
   31  A    between atoms: C_53  and  C_55
                            x       y       z     vdW  Elec       q    Type
                         _______ _______ _______ _____ _____    ______ ____

>  <TORSDO>
F 31

$$$$
=
 OpenBabel10222420333D

 61 64  0  0  1  0  0  0  0  0999 V2000
  186.8250  178.3210  143.7690 C   0  0  2  0  0  3  0  0  0  0  0  0
  187.9080  177.8880  144.7880 C   0  0  1  0  0  3  0  0  0  0  0  0
  187.3330  177.5830  146.1830 C   0  0  0  0  0  2  0  0  0  0  0  0
  188.3050  176.7570  147.0240 C   0  0  0  0  0  1  0  0  0  0  0  0
  188.7760  176.7010  144.2900 C   0  0  0  0  0  2  0  0  0  0  0  0
  190.2710  176.9820  144.3500 C   0  0  0  0  0  2  0  0  0  0  0  0
  190.8330  177.6740  143.1050 C   0  0  1  0  0  3  0  0  0  0  0  0
  191.7350  178.8330  143.5400 C   0  0  0  0  0  1  0  0  0  0  0  0
  191.6330  176.7400  142.1950 C   0  0  0  0  0  2  0  0  0  0  0  0
  191.1090  176.7870  140.8440 N   0  0  0  0  0  2  0  0  0  0  0  0
  191.9780  177.6340  138.7900 N   0  0  0  0  0  2  0  0  0  0  0  0
  192.2740  176.8190  139.9710 C   0  0  2  0  0  3  0  0  0  0  0  0
  191.9910  176.1550  138.6920 C   0  0  2  0  0  3  0  0  0  0  0  0
  193.2560  175.6890  137.9810 C   0  0  0  0  0  0  0  0  0  0  0  0
  193.7640  176.4620  136.9580 O   0  0  0  0  0  1  0  0  0  0  0  0
  193.8900  174.5680  138.3620 C   0  0  0  0  0  3  0  0  0  0  0  0
  195.0810  173.9090  137.7090 C   0  0  2  0  0  3  0  0  0  0  0  0
  195.0070  172.1230  137.5140 S   0  0  0  0  0  0  0  0  0  0  0  0
  194.7700  171.5290  138.8700 O   0  0  0  0  0  0  0  0  0  0  0  0
  193.8320  171.7780  136.6310 O   0  0  0  0  0  0  0  0  0  0  0  0
  196.1750  170.1710  136.3300 C   0  0  0  0  0  1  0  0  0  0  0  0
  196.4790  171.4870  136.8580 N   0  0  0  0  0  2  0  0  0  0  0  0
  196.3820  174.3650  138.3710 C   0  0  0  0  0  2  0  0  0  0  0  0
  197.2650  175.0890  137.3690 C   0  0  0  0  0  2  0  0  0  0  0  0
  198.5440  174.2990  137.1620 C   0  0  0  0  0  1  0  0  0  0  0  0
  185.3860  178.0330  144.2460 C   0  0  0  0  0  2  0  0  0  0  0  0
  184.4860  179.1640  143.7970 C   0  0  0  0  0  2  0  0  0  0  0  0
  183.2840  178.6210  143.0470 C   0  0  0  0  0  2  0  0  0  0  0  0
  183.6370  178.5890  141.5670 C   0  0  0  0  0  2  0  0  0  0  0  0
  180.3720  176.9450  138.3900 C   0  0  0  0  0  2  0  0  0  0  0  0
  179.3510  176.5700  139.4840 C   0  0  1  0  0  3  0  0  0  0  0  0
  179.8930  178.6320  140.9350 C   0  0  0  0  0  0  0  0  0  0  0  0
  180.0220  176.2700  140.6820 O   0  0  0  0  0  0  0  0  0  0  0  0
  179.4670  179.6920  140.5040 O   0  0  0  0  0  0  0  0  0  0  0  0
  181.1920  178.6060  141.6800 C   0  0  0  0  0  2  0  0  0  0  0  0
  182.3810  178.7970  140.7410 C   0  0  2  0  0  3  0  0  0  0  0  0
  182.3890  177.7850  139.5920 C   0  0  0  0  0  2  0  0  0  0  0  0
  181.3260  178.1320  138.5720 C   0  0  1  0  0  3  0  0  0  0  0  0
  179.1200  177.3630  140.7380 C   0  0  2  0  0  3  0  0  0  0  0  0
  182.0200  178.4350  137.2450 C   0  0  0  0  0  2  0  0  0  0  0  0
  181.0500  179.0290  136.2210 C   0  0  0  0  0  2  0  0  0  0  0  0
  179.9570  183.5050  136.2140 C   0  0  0  0  0  2  0  0  0  0  0  0
  179.7560  182.4550  135.1340 C   0  0  0  0  0  2  0  0  0  0  0  0
  180.9390  180.5530  136.3010 C   0  0  2  0  0  3  0  0  0  0  0  0
  180.8510  182.5120  137.9690 C   0  0  0  0  0  2  0  0  0  0  0  0
  181.1830  183.2950  136.8590 O   0  0  0  0  0  0  0  0  0  0  0  0
  181.2350  181.0530  137.7260 C   0  0  0  0  0  2  0  0  0  0  0  0
  179.6100  181.0600  135.7200 C   0  0  0  0  0  2  0  0  0  0  0  0
  187.1430  177.6520  142.4170 C   0  0  0  0  0  2  0  0  0  0  0  0
  188.2070  179.5370  141.5850 C   0  0  0  0  0  1  0  0  0  0  0  0
  187.1670  178.5610  141.2760 N   0  0  0  0  0  0  0  0  0  0  0  0
  187.6300  177.7550  140.1440 C   0  0  0  0  0  3  0  0  0  0  0  0
  187.0260  178.1140  138.7830 C   0  0  0  0  0  3  0  0  0  0  0  0
  187.6930  177.5070  137.5480 C   0  0  2  0  0  3  0  0  0  0  0  0
  185.3020  177.2250  136.9610 C   0  0  0  0  0  1  0  0  0  0  0  0
  186.6880  177.4790  136.4060 C   0  0  0  0  0  2  0  0  0  0  0  0
  188.0730  176.1310  137.8450 N   0  0  0  0  0  2  0  0  0  0  0  0
  189.1240  175.7400  136.9100 C   0  0  0  0  0  2  0  0  0  0  0  0
  188.0720  173.7300  135.8670 O   0  0  0  0  0  0  0  0  0  0  0  0
  189.0560  174.2680  136.6700 C   0  0  0  0  0  0  0  0  0  0  0  0
  189.9290  173.5200  137.1890 O   0  0  0  0  0  1  0  0  0  0  0  0
  1 49  1  6  0  0  0
  1 26  1  0  0  0  0
  1  2  1  0  0  0  0
  2  5  1  6  0  0  0
  2  3  1  0  0  0  0
  3  4  1  0  0  0  0
  5  6  1  0  0  0  0
  7  8  1  1  0  0  0
  7  6  1  0  0  0  0
  9  7  1  0  0  0  0
 10  9  1  0  0  0  0
 11 12  1  0  0  0  0
 12 10  1  1  0  0  0
 13 14  1  6  0  0  0
 13 11  1  0  0  0  0
 13 12  1  0  0  0  0
 14 16  2  0  0  0  0
 15 14  1  0  0  0  0
 17 16  1  1  0  0  0
 17 23  1  0  0  0  0
 18 17  1  0  0  0  0
 18 19  2  0  0  0  0
 20 18  2  0  0  0  0
 21 22  1  0  0  0  0
 22 18  1  0  0  0  0
 24 23  1  0  0  0  0
 25 24  1  0  0  0  0
 27 26  1  0  0  0  0
 28 27  1  0  0  0  0
 29 28  1  0  0  0  0
 30 38  1  0  0  0  0
 31 30  1  6  0  0  0
 31 33  1  0  0  0  0
 31 39  1  0  0  0  0
 32 35  1  0  0  0  0
 34 32  2  0  0  0  0
 36 29  1  1  0  0  0
 36 35  1  0  0  0  0
 37 36  1  0  0  0  0
 38 40  1  6  0  0  0
 38 37  1  0  0  0  0
 39 33  1  1  0  0  0
 39 32  1  0  0  0  0
 41 40  1  0  0  0  0
 42 46  1  0  0  0  0
 43 48  1  0  0  0  0
 43 42  1  0  0  0  0
 44 41  1  1  0  0  0
 44 47  1  0  0  0  0
 46 45  1  0  0  0  0
 47 45  1  0  0  0  0
 48 44  1  0  0  0  0
 51 50  1  0  0  0  0
 51 49  1  0  0  0  0
 52 51  1  0  0  0  0
 53 52  2  0  0  0  0
 54 56  1  6  0  0  0
 54 57  1  0  0  0  0
 54 53  1  0  0  0  0
 56 55  1  0  0  0  0
 58 57  1  0  0  0  0
 59 60  2  0  0  0  0
 60 58  1  0  0  0  0
 60 61  1  0  0  0  0
M  END
>  <MODEL>
3

>  <REMARK>
 VINA RESULT:      -4.5      3.809     10.127
  Name = 
  31 active torsions:
  status: ('A' for Active; 'I' for Inactive)
    1  A    between atoms: C_1  and  N_8
    2  A    between atoms: C_1  and  C_21
    3  A    between atoms: C_1  and  C_28
    4  A    between atoms: C_4  and  S_15
    5  A    between atoms: C_4  and  C_46
    6  A    between atoms: C_4  and  C_51
    7  A    between atoms: C_7  and  N_8
    8  A    between atoms: C_7  and  C_42
    9  A    between atoms: C_9  and  C_34
   10  A    between atoms: C_9  and  C_39
   11  A    between atoms: C_10  and  C_53
   12  A    between atoms: C_11  and  C_29
   13  A    between atoms: C_11  and  C_39
   14  A    between atoms: C_14  and  C_36
   15  A    between atoms: C_14  and  C_43
   16  A    between atoms: S_15  and  N_38
   17  A    between atoms: C_19  and  C_45
   18  A    between atoms: C_23  and  N_41
   19  A    between atoms: C_23  and  C_43
   20  A    between atoms: C_25  and  C_58
   21  A    between atoms: C_26  and  C_28
   22  A    between atoms: C_26  and  N_59
   23  A    between atoms: C_32  and  C_55
   24  A    between atoms: C_32  and  N_59
   25  A    between atoms: C_33  and  C_51
   26  A    between atoms: C_34  and  C_55
   27  A    between atoms: C_35  and  N_41
   28  A    between atoms: C_36  and  C_53
   29  A    between atoms: C_47  and  C_49
   30  A    between atoms: C_47  and  C_58
   31  A    between atoms: C_53  and  C_55
                            x       y       z     vdW  Elec       q    Type
                         _______ _______ _______ _____ _____    ______ ____

>  <TORSDO>
F 31

$$$$
=
 OpenBabel10222420333D

 61 64  0  0  1  0  0  0  0  0999 V2000
  187.8780  176.4900  137.4640 C   0  0  2  0  0  3  0  0  0  0  0  0
  186.9110  176.3270  136.2650 C   0  0  1  0  0  3  0  0  0  0  0  0
  187.4520  176.9540  134.9670 C   0  0  0  0  0  2  0  0  0  0  0  0
  186.9430  178.3820  134.7760 C   0  0  0  0  0  1  0  0  0  0  0  0
  186.4860  174.8550  136.0180 C   0  0  0  0  0  2  0  0  0  0  0  0
  185.4340  174.3580  137.0010 C   0  0  0  0  0  2  0  0  0  0  0  0
  184.0050  174.7980  136.6690 C   0  0  1  0  0  3  0  0  0  0  0  0
  183.9980  176.3020  136.3790 C   0  0  0  0  0  1  0  0  0  0  0  0
  183.4010  174.0610  135.4720 C   0  0  0  0  0  2  0  0  0  0  0  0
  182.1710  173.4000  135.8590 N   0  0  0  0  0  2  0  0  0  0  0  0
  180.8160  173.0290  137.7870 N   0  0  0  0  0  2  0  0  0  0  0  0
  181.9080  173.8270  137.2270 C   0  0  2  0  0  3  0  0  0  0  0  0
  180.5710  174.4220  137.3450 C   0  0  2  0  0  3  0  0  0  0  0  0
  180.4420  175.3400  138.5550 C   0  0  0  0  0  0  0  0  0  0  0  0
  179.8520  174.8490  139.7000 O   0  0  0  0  0  1  0  0  0  0  0  0
  180.9250  176.5930  138.5260 C   0  0  0  0  0  3  0  0  0  0  0  0
  180.7910  177.6630  139.5830 C   0  0  2  0  0  3  0  0  0  0  0  0
  180.2370  179.2800  139.0270 S   0  0  0  0  0  0  0  0  0  0  0  0
  181.4030  180.2170  139.1270 O   0  0  0  0  0  0  0  0  0  0  0  0
  179.8280  179.1830  137.5770 O   0  0  0  0  0  0  0  0  0  0  0  0
  179.0960  181.3180  140.0860 C   0  0  0  0  0  1  0  0  0  0  0  0
  178.9330  179.8800  139.9970 N   0  0  0  0  0  2  0  0  0  0  0  0
  182.0610  177.7470  140.4300 C   0  0  0  0  0  2  0  0  0  0  0  0
  183.2350  177.1220  139.6960 C   0  0  0  0  0  2  0  0  0  0  0  0
  184.0540  178.2130  139.0330 C   0  0  0  0  0  1  0  0  0  0  0  0
  188.1160  177.9610  137.8630 C   0  0  0  0  0  2  0  0  0  0  0  0
  187.4250  178.2300  139.1820 C   0  0  0  0  0  2  0  0  0  0  0  0
  188.4460  178.4120  140.2890 C   0  0  0  0  0  2  0  0  0  0  0  0
  187.7140  178.3000  141.6190 C   0  0  0  0  0  2  0  0  0  0  0  0
  190.4040  176.0510  144.9600 C   0  0  0  0  0  2  0  0  0  0  0  0
  191.6820  176.0850  144.0960 C   0  0  1  0  0  3  0  0  0  0  0  0
  191.1850  178.4340  143.1530 C   0  0  0  0  0  0  0  0  0  0  0  0
  191.3380  176.0970  142.7330 O   0  0  0  0  0  0  0  0  0  0  0  0
  191.3530  179.3520  143.9400 O   0  0  0  0  0  0  0  0  0  0  0  0
  190.0970  178.5300  142.1280 C   0  0  0  0  0  2  0  0  0  0  0  0
  188.7170  178.3520  142.7560 C   0  0  2  0  0  3  0  0  0  0  0  0
  188.6010  177.0530  143.5590 C   0  0  0  0  0  2  0  0  0  0  0  0
  189.3560  177.1670  144.8660 C   0  0  1  0  0  3  0  0  0  0  0  0
  192.0670  177.2220  143.1950 C   0  0  2  0  0  3  0  0  0  0  0  0
  188.3530  177.0210  146.0090 C   0  0  0  0  0  2  0  0  0  0  0  0
  187.7860  178.3740  146.4410 C   0  0  0  0  0  2  0  0  0  0  0  0
  183.6830  178.5490  144.3520 C   0  0  0  0  0  2  0  0  0  0  0  0
  185.0760  178.4820  143.7490 C   0  0  0  0  0  2  0  0  0  0  0  0
  186.3750  178.6390  145.9100 C   0  0  2  0  0  3  0  0  0  0  0  0
  183.8860  178.4710  146.5460 C   0  0  0  0  0  2  0  0  0  0  0  0
  183.6950  179.3660  145.4890 O   0  0  0  0  0  0  0  0  0  0  0  0
  185.3330  178.5260  147.0370 C   0  0  0  0  0  2  0  0  0  0  0  0
  186.0600  177.7830  144.6740 C   0  0  0  0  0  2  0  0  0  0  0  0
  189.1880  175.7510  137.1270 C   0  0  0  0  0  2  0  0  0  0  0  0
  191.2410  176.2540  138.0810 C   0  0  0  0  0  1  0  0  0  0  0  0
  190.3550  176.6140  136.9780 N   0  0  0  0  0  0  0  0  0  0  0  0
  190.9970  176.1900  135.7300 C   0  0  0  0  0  2  0  0  0  0  0  0
  191.1490  174.6770  135.5440 C   0  0  0  0  0  2  0  0  0  0  0  0
  192.5400  174.1630  135.1700 C   0  0  2  0  0  3  0  0  0  0  0  0
  193.0950  171.8690  135.9240 C   0  0  0  0  0  1  0  0  0  0  0  0
  192.4450  172.6850  134.8260 C   0  0  0  0  0  2  0  0  0  0  0  0
  193.4190  174.3000  136.3250 N   0  0  0  0  0  2  0  0  0  0  0  0
  194.3530  175.3900  136.0560 C   0  0  0  0  0  2  0  0  0  0  0  0
  196.7560  175.7960  136.5990 O   0  0  0  0  0  1  0  0  0  0  0  0
  195.7520  174.9120  136.2600 C   0  0  0  0  0  0  0  0  0  0  0  0
  196.0030  173.6820  136.1480 O   0  0  0  0  0  0  0  0  0  0  0  0
  1 49  1  6  0  0  0
  1 26  1  0  0  0  0
  2  3  1  6  0  0  0
  2  1  1  0  0  0  0
  4  3  1  0  0  0  0
  5  2  1  0  0  0  0
  5  6  1  0  0  0  0
  7  8  1  6  0  0  0
  7  6  1  0  0  0  0
  9 10  1  0  0  0  0
  9  7  1  0  0  0  0
 12 10  1  6  0  0  0
 12 13  1  0  0  0  0
 12 11  1  0  0  0  0
 13 11  1  0  0  0  0
 13 14  1  1  0  0  0
 14 15  1  0  0  0  0
 16 14  2  0  0  0  0
 17 16  1  6  0  0  0
 17 23  1  0  0  0  0
 18 19  2  0  0  0  0
 18 17  1  0  0  0  0
 18 22  1  0  0  0  0
 20 18  2  0  0  0  0
 22 21  1  0  0  0  0
 24 23  1  0  0  0  0
 25 24  1  0  0  0  0
 26 27  1  0  0  0  0
 27 28  1  0  0  0  0
 28 29  1  0  0  0  0
 31 30  1  1  0  0  0
 32 39  1  0  0  0  0
 32 34  2  0  0  0  0
 33 31  1  0  0  0  0
 35 36  1  0  0  0  0
 35 32  1  0  0  0  0
 36 29  1  6  0  0  0
 36 37  1  0  0  0  0
 37 38  1  0  0  0  0
 38 30  1  0  0  0  0
 38 40  1  1  0  0  0
 39 33  1  6  0  0  0
 39 31  1  0  0  0  0
 40 41  1  0  0  0  0
 42 46  1  0  0  0  0
 43 42  1  0  0  0  0
 43 48  1  0  0  0  0
 44 41  1  1  0  0  0
 44 47  1  0  0  0  0
 45 47  1  0  0  0  0
 46 45  1  0  0  0  0
 48 44  1  0  0  0  0
 51 49  1  0  0  0  0
 51 50  1  0  0  0  0
 52 51  1  0  0  0  0
 53 52  1  0  0  0  0
 54 56  1  1  0  0  0
 54 53  1  0  0  0  0
 54 57  1  0  0  0  0
 56 55  1  0  0  0  0
 58 60  1  0  0  0  0
 58 57  1  0  0  0  0
 60 59  1  0  0  0  0
 61 60  2  0  0  0  0
M  END
>  <MODEL>
4

>  <REMARK>
 VINA RESULT:      -4.4      2.011      3.028
  Name = 
  31 active torsions:
  status: ('A' for Active; 'I' for Inactive)
    1  A    between atoms: C_1  and  N_8
    2  A    between atoms: C_1  and  C_21
    3  A    between atoms: C_1  and  C_28
    4  A    between atoms: C_4  and  S_15
    5  A    between atoms: C_4  and  C_46
    6  A    between atoms: C_4  and  C_51
    7  A    between atoms: C_7  and  N_8
    8  A    between atoms: C_7  and  C_42
    9  A    between atoms: C_9  and  C_34
   10  A    between atoms: C_9  and  C_39
   11  A    between atoms: C_10  and  C_53
   12  A    between atoms: C_11  and  C_29
   13  A    between atoms: C_11  and  C_39
   14  A    between atoms: C_14  and  C_36
   15  A    between atoms: C_14  and  C_43
   16  A    between atoms: S_15  and  N_38
   17  A    between atoms: C_19  and  C_45
   18  A    between atoms: C_23  and  N_41
   19  A    between atoms: C_23  and  C_43
   20  A    between atoms: C_25  and  C_58
   21  A    between atoms: C_26  and  C_28
   22  A    between atoms: C_26  and  N_59
   23  A    between atoms: C_32  and  C_55
   24  A    between atoms: C_32  and  N_59
   25  A    between atoms: C_33  and  C_51
   26  A    between atoms: C_34  and  C_55
   27  A    between atoms: C_35  and  N_41
   28  A    between atoms: C_36  and  C_53
   29  A    between atoms: C_47  and  C_49
   30  A    between atoms: C_47  and  C_58
   31  A    between atoms: C_53  and  C_55
                            x       y       z     vdW  Elec       q    Type
                         _______ _______ _______ _____ _____    ______ ____

>  <TORSDO>
F 31

$$$$
=
 OpenBabel10222420333D

 61 64  0  0  1  0  0  0  0  0999 V2000
  188.4280  176.1710  135.9970 C   0  0  2  0  0  3  0  0  0  0  0  0
  188.1080  177.4980  136.7270 C   0  0  1  0  0  3  0  0  0  0  0  0
  186.9520  177.3660  137.7360 C   0  0  0  0  0  2  0  0  0  0  0  0
  185.8740  178.4230  137.4990 C   0  0  0  0  0  1  0  0  0  0  0  0
  189.3480  178.1360  137.4090 C   0  0  0  0  0  2  0  0  0  0  0  0
  188.9980  178.9880  138.6210 C   0  0  0  0  0  2  0  0  0  0  0  0
  189.3630  178.3520  139.9660 C   0  0  1  0  0  3  0  0  0  0  0  0
  188.1130  178.2980  140.8490 C   0  0  0  0  0  1  0  0  0  0  0  0
  189.9380  176.9400  139.8360 C   0  0  0  0  0  2  0  0  0  0  0  0
  191.2790  176.8930  140.3860 N   0  0  0  0  0  2  0  0  0  0  0  0
  192.0740  176.8930  142.6350 N   0  0  0  0  0  2  0  0  0  0  0  0
  191.2000  177.5690  141.6740 C   0  0  2  0  0  3  0  0  0  0  0  0
  190.6070  176.6940  142.6920 C   0  0  2  0  0  3  0  0  0  0  0  0
  190.0180  177.4720  143.8630 C   0  0  0  0  0  0  0  0  0  0  0  0
  190.4790  178.7470  144.1100 O   0  0  0  0  0  1  0  0  0  0  0  0
  189.0430  176.9460  144.6210 C   0  0  0  0  0  3  0  0  0  0  0  0
  188.4250  177.5260  145.8710 C   0  0  2  0  0  3  0  0  0  0  0  0
  189.3020  177.2350  147.4130 S   0  0  0  0  0  0  0  0  0  0  0  0
  188.9210  175.8680  147.8990 O   0  0  0  0  0  0  0  0  0  0  0  0
  190.7870  177.2460  147.1390 O   0  0  0  0  0  0  0  0  0  0  0  0
  187.4880  178.2110  148.9400 C   0  0  0  0  0  1  0  0  0  0  0  0
  188.8880  178.4090  148.6190 N   0  0  0  0  0  2  0  0  0  0  0  0
  186.9460  177.1510  145.9670 C   0  0  0  0  0  2  0  0  0  0  0  0
  186.1790  177.6940  144.7740 C   0  0  0  0  0  2  0  0  0  0  0  0
  185.7000  179.1000  145.0800 C   0  0  0  0  0  1  0  0  0  0  0  0
  187.7940  176.0760  134.5940 C   0  0  0  0  0  2  0  0  0  0  0  0
  186.6540  175.0820  134.6370 C   0  0  0  0  0  2  0  0  0  0  0  0
  185.5430  175.5850  135.5380 C   0  0  0  0  0  2  0  0  0  0  0  0
  184.2390  175.5040  134.7570 C   0  0  0  0  0  2  0  0  0  0  0  0
  179.4640  175.6060  135.5660 C   0  0  0  0  0  2  0  0  0  0  0  0
  179.4100  174.1320  136.0200 C   0  0  1  0  0  3  0  0  0  0  0  0
  181.6690  174.2540  137.2590 C   0  0  0  0  0  0  0  0  0  0  0  0
  180.4440  173.4040  135.4050 O   0  0  0  0  0  0  0  0  0  0  0  0
  181.6480  174.8730  138.3110 O   0  0  0  0  0  0  0  0  0  0  0  0
  182.9010  174.2870  136.4070 C   0  0  0  0  0  2  0  0  0  0  0  0
  183.0670  175.6360  135.7120 C   0  0  2  0  0  3  0  0  0  0  0  0
  181.8290  176.0330  134.9010 C   0  0  0  0  0  2  0  0  0  0  0  0
  180.7080  176.4670  135.8210 C   0  0  1  0  0  3  0  0  0  0  0  0
  180.4810  173.4510  136.8220 C   0  0  2  0  0  3  0  0  0  0  0  0
  180.3850  177.9290  135.5220 C   0  0  0  0  0  2  0  0  0  0  0  0
  181.2540  178.8810  136.3460 C   0  0  0  0  0  2  0  0  0  0  0  0
  181.8740  178.4430  140.8910 C   0  0  0  0  0  2  0  0  0  0  0  0
  182.8920  178.3930  139.7630 C   0  0  0  0  0  2  0  0  0  0  0  0
  181.2600  178.5580  137.8410 C   0  0  2  0  0  3  0  0  0  0  0  0
  179.8980  178.8620  140.0050 C   0  0  0  0  0  2  0  0  0  0  0  0
  180.6880  177.8150  140.4890 O   0  0  0  0  0  0  0  0  0  0  0  0
  179.8920  178.8630  138.4760 C   0  0  0  0  0  2  0  0  0  0  0  0
  182.4480  179.2140  138.5620 C   0  0  0  0  0  2  0  0  0  0  0  0
  188.0060  175.0050  136.9140 C   0  0  0  0  0  2  0  0  0  0  0  0
  188.6380  172.7790  136.7660 C   0  0  0  0  0  1  0  0  0  0  0  0
  189.0810  174.0800  137.2590 N   0  0  0  0  0  0  0  0  0  0  0  0
  190.2300  174.4990  136.4520 C   0  0  0  0  0  2  0  0  0  0  0  0
  191.6040  174.2780  137.0930 C   0  0  0  0  0  2  0  0  0  0  0  0
  192.6780  175.3290  136.8070 C   0  0  2  0  0  3  0  0  0  0  0  0
  191.7450  174.7180  134.5940 C   0  0  0  0  0  1  0  0  0  0  0  0
  192.8710  175.4430  135.3020 C   0  0  0  0  0  2  0  0  0  0  0  0
  193.9380  174.8870  137.3900 N   0  0  0  0  0  2  0  0  0  0  0  0
  195.0140  175.2560  136.4740 C   0  0  0  0  0  2  0  0  0  0  0  0
  196.4020  174.6390  138.4570 O   0  0  0  0  0  1  0  0  0  0  0  0
  196.3270  175.1570  137.1800 C   0  0  0  0  0  0  0  0  0  0  0  0
  197.3740  175.5270  136.5840 O   0  0  0  0  0  0  0  0  0  0  0  0
  1 26  1  6  0  0  0
  1  2  1  0  0  0  0
  1 49  1  0  0  0  0
  2  5  1  1  0  0  0
  2  3  1  0  0  0  0
  4  3  1  0  0  0  0
  5  6  1  0  0  0  0
  6  7  1  0  0  0  0
  7  8  1  1  0  0  0
  9  7  1  0  0  0  0
  9 10  1  0  0  0  0
 11 13  1  0  0  0  0
 12 10  1  6  0  0  0
 12 11  1  0  0  0  0
 12 13  1  0  0  0  0
 13 14  1  1  0  0  0
 14 15  1  0  0  0  0
 14 16  2  0  0  0  0
 17 16  1  6  0  0  0
 17 23  1  0  0  0  0
 17 18  1  0  0  0  0
 18 19  2  0  0  0  0
 18 22  1  0  0  0  0
 20 18  2  0  0  0  0
 22 21  1  0  0  0  0
 24 25  1  0  0  0  0
 24 23  1  0  0  0  0
 26 27  1  0  0  0  0
 27 28  1  0  0  0  0
 29 28  1  0  0  0  0
 30 38  1  0  0  0  0
 31 30  1  6  0  0  0
 31 39  1  0  0  0  0
 32 34  2  0  0  0  0
 33 31  1  0  0  0  0
 35 32  1  0  0  0  0
 36 29  1  6  0  0  0
 36 35  1  0  0  0  0
 37 36  1  0  0  0  0
 37 38  1  0  0  0  0
 38 40  1  6  0  0  0
 39 33  1  6  0  0  0
 39 32  1  0  0  0  0
 40 41  1  0  0  0  0
 43 42  1  0  0  0  0
 44 41  1  6  0  0  0
 44 47  1  0  0  0  0
 44 48  1  0  0  0  0
 45 46  1  0  0  0  0
 46 42  1  0  0  0  0
 47 45  1  0  0  0  0
 48 43  1  0  0  0  0
 49 51  1  0  0  0  0
 50 51  1  0  0  0  0
 52 53  1  0  0  0  0
 52 51  1  0  0  0  0
 54 56  1  6  0  0  0
 54 53  1  0  0  0  0
 54 57  1  0  0  0  0
 55 56  1  0  0  0  0
 58 60  1  0  0  0  0
 58 57  1  0  0  0  0
 60 59  1  0  0  0  0
 61 60  2  0  0  0  0
M  END
>  <MODEL>
5

>  <REMARK>
 VINA RESULT:      -4.1      2.960      8.645
  Name = 
  31 active torsions:
  status: ('A' for Active; 'I' for Inactive)
    1  A    between atoms: C_1  and  N_8
    2  A    between atoms: C_1  and  C_21
    3  A    between atoms: C_1  and  C_28
    4  A    between atoms: C_4  and  S_15
    5  A    between atoms: C_4  and  C_46
    6  A    between atoms: C_4  and  C_51
    7  A    between atoms: C_7  and  N_8
    8  A    between atoms: C_7  and  C_42
    9  A    between atoms: C_9  and  C_34
   10  A    between atoms: C_9  and  C_39
   11  A    between atoms: C_10  and  C_53
   12  A    between atoms: C_11  and  C_29
   13  A    between atoms: C_11  and  C_39
   14  A    between atoms: C_14  and  C_36
   15  A    between atoms: C_14  and  C_43
   16  A    between atoms: S_15  and  N_38
   17  A    between atoms: C_19  and  C_45
   18  A    between atoms: C_23  and  N_41
   19  A    between atoms: C_23  and  C_43
   20  A    between atoms: C_25  and  C_58
   21  A    between atoms: C_26  and  C_28
   22  A    between atoms: C_26  and  N_59
   23  A    between atoms: C_32  and  C_55
   24  A    between atoms: C_32  and  N_59
   25  A    between atoms: C_33  and  C_51
   26  A    between atoms: C_34  and  C_55
   27  A    between atoms: C_35  and  N_41
   28  A    between atoms: C_36  and  C_53
   29  A    between atoms: C_47  and  C_49
   30  A    between atoms: C_47  and  C_58
   31  A    between atoms: C_53  and  C_55
                            x       y       z     vdW  Elec       q    Type
                         _______ _______ _______ _____ _____    ______ ____

>  <TORSDO>
F 31

$$$$
=
 OpenBabel10222420333D

 61 64  0  0  1  0  0  0  0  0999 V2000
  189.2960  176.6690  138.8130 C   0  0  2  0  0  3  0  0  0  0  0  0
  187.9500  176.7690  138.0530 C   0  0  1  0  0  3  0  0  0  0  0  0
  187.3530  178.1890  138.0720 C   0  0  0  0  0  2  0  0  0  0  0  0
  186.0010  178.2220  138.7820 C   0  0  0  0  0  1  0  0  0  0  0  0
  188.0270  176.2360  136.5970 C   0  0  0  0  0  2  0  0  0  0  0  0
  187.2580  174.9390  136.3890 C   0  0  0  0  0  2  0  0  0  0  0  0
  188.0420  173.8530  135.6460 C   0  0  1  0  0  3  0  0  0  0  0  0
  188.5920  172.8480  136.6620 C   0  0  0  0  0  1  0  0  0  0  0  0
  187.2070  173.1000  134.6080 C   0  0  0  0  0  2  0  0  0  0  0  0
  186.9160  171.7600  135.0760 N   0  0  0  0  0  2  0  0  0  0  0  0
  184.6220  171.1160  135.1990 N   0  0  0  0  0  2  0  0  0  0  0  0
  185.6910  171.8720  135.8550 C   0  0  2  0  0  3  0  0  0  0  0  0
  184.6550  172.5940  135.1060 C   0  0  2  0  0  3  0  0  0  0  0  0
  183.5900  173.2000  136.0130 C   0  0  0  0  0  0  0  0  0  0  0  0
  183.2610  172.5420  137.1790 O   0  0  0  0  0  1  0  0  0  0  0  0
  183.0040  174.3690  135.7070 C   0  0  0  0  0  3  0  0  0  0  0  0
  181.8670  175.0530  136.4270 C   0  0  2  0  0  3  0  0  0  0  0  0
  180.2070  174.6870  135.8430 S   0  0  0  0  0  0  0  0  0  0  0  0
  179.9590  175.5310  134.6280 O   0  0  0  0  0  0  0  0  0  0  0  0
  180.1430  173.2350  135.4350 O   0  0  0  0  0  0  0  0  0  0  0  0
  179.6840  175.0360  138.3290 C   0  0  0  0  0  1  0  0  0  0  0  0
  179.0110  175.0440  137.0440 N   0  0  0  0  0  2  0  0  0  0  0  0
  182.1240  176.5570  136.5360 C   0  0  0  0  0  2  0  0  0  0  0  0
  183.5970  176.8630  136.3310 C   0  0  0  0  0  2  0  0  0  0  0  0
  183.8970  176.9270  134.8450 C   0  0  0  0  0  1  0  0  0  0  0  0
  189.7450  178.0040  139.4410 C   0  0  0  0  0  2  0  0  0  0  0  0
  189.9380  177.8050  140.9290 C   0  0  0  0  0  2  0  0  0  0  0  0
  188.7040  178.2510  141.6890 C   0  0  0  0  0  2  0  0  0  0  0  0
  188.4370  177.2260  142.7830 C   0  0  0  0  0  2  0  0  0  0  0  0
  186.8110  177.4420  147.3400 C   0  0  0  0  0  2  0  0  0  0  0  0
  188.1020  176.8420  147.9330 C   0  0  1  0  0  3  0  0  0  0  0  0
  189.6420  178.0860  146.2800 C   0  0  0  0  0  0  0  0  0  0  0  0
  188.7220  176.0080  146.9850 O   0  0  0  0  0  0  0  0  0  0  0  0
  189.7660  179.2810  146.4910 O   0  0  0  0  0  0  0  0  0  0  0  0
  189.6640  177.5770  144.8710 C   0  0  0  0  0  2  0  0  0  0  0  0
  188.3770  177.9250  144.1280 C   0  0  2  0  0  3  0  0  0  0  0  0
  187.1250  177.4380  144.8660 C   0  0  0  0  0  2  0  0  0  0  0  0
  186.8500  178.3080  146.0750 C   0  0  1  0  0  3  0  0  0  0  0  0
  189.4840  177.1220  147.4180 C   0  0  2  0  0  3  0  0  0  0  0  0
  185.4940  178.9820  145.8770 C   0  0  0  0  0  2  0  0  0  0  0  0
  185.4500  179.7970  144.5830 C   0  0  0  0  0  2  0  0  0  0  0  0
  182.0410  178.5100  141.7620 C   0  0  0  0  0  2  0  0  0  0  0  0
  183.4970  178.8140  141.4490 C   0  0  0  0  0  2  0  0  0  0  0  0
  184.1790  179.5670  143.7620 C   0  0  2  0  0  3  0  0  0  0  0  0
  181.7570  178.7110  143.9400 C   0  0  0  0  0  2  0  0  0  0  0  0
  181.5690  179.3980  142.7380 O   0  0  0  0  0  0  0  0  0  0  0  0
  182.9830  179.2510  144.6770 C   0  0  0  0  0  2  0  0  0  0  0  0
  184.4010  178.5400  142.6410 C   0  0  0  0  0  2  0  0  0  0  0  0
  190.3480  176.0870  137.8470 C   0  0  0  0  0  2  0  0  0  0  0  0
  192.2460  176.1170  139.1800 C   0  0  0  0  0  1  0  0  0  0  0  0
  191.6760  176.6820  137.9610 N   0  0  0  0  0  0  0  0  0  0  0  0
  192.4370  176.1570  136.8240 C   0  0  0  0  0  2  0  0  0  0  0  0
  192.8170  174.6750  136.9090 C   0  0  0  0  0  2  0  0  0  0  0  0
  194.2770  174.3180  136.6270 C   0  0  2  0  0  3  0  0  0  0  0  0
  196.2880  174.9780  135.3390 C   0  0  0  0  0  1  0  0  0  0  0  0
  194.8860  175.3900  135.7370 C   0  0  0  0  0  2  0  0  0  0  0  0
  194.3220  173.0530  135.9030 N   0  0  0  0  0  2  0  0  0  0  0  0
  195.4750  172.2980  136.3850 C   0  0  0  0  0  2  0  0  0  0  0  0
  194.6840  170.0540  135.6240 O   0  0  0  0  0  0  0  0  0  0  0  0
  195.0690  170.8870  136.6560 C   0  0  0  0  0  0  0  0  0  0  0  0
  195.1100  170.4520  137.8380 O   0  0  0  0  0  1  0  0  0  0  0  0
  1 49  1  6  0  0  0
  1 26  1  0  0  0  0
  2  5  1  6  0  0  0
  2  3  1  0  0  0  0
  2  1  1  0  0  0  0
  3  4  1  0  0  0  0
  6  5  1  0  0  0  0
  7  6  1  0  0  0  0
  7  8  1  1  0  0  0
  9 10  1  0  0  0  0
  9  7  1  0  0  0  0
 11 12  1  0  0  0  0
 12 10  1  6  0  0  0
 13 11  1  0  0  0  0
 13 12  1  0  0  0  0
 13 14  1  1  0  0  0
 14 15  1  0  0  0  0
 16 14  2  0  0  0  0
 17 16  1  6  0  0  0
 17 23  1  0  0  0  0
 18 17  1  0  0  0  0
 18 22  1  0  0  0  0
 19 18  2  0  0  0  0
 20 18  2  0  0  0  0
 22 21  1  0  0  0  0
 24 23  1  0  0  0  0
 25 24  1  0  0  0  0
 26 27  1  0  0  0  0
 27 28  1  0  0  0  0
 28 29  1  0  0  0  0
 31 30  1  6  0  0  0
 32 34  2  0  0  0  0
 33 39  1  0  0  0  0
 33 31  1  0  0  0  0
 35 32  1  0  0  0  0
 36 29  1  6  0  0  0
 36 37  1  0  0  0  0
 36 35  1  0  0  0  0
 37 38  1  0  0  0  0
 38 40  1  6  0  0  0
 38 30  1  0  0  0  0
 39 32  1  6  0  0  0
 39 31  1  0  0  0  0
 41 40  1  0  0  0  0
 42 46  1  0  0  0  0
 43 42  1  0  0  0  0
 43 48  1  0  0  0  0
 44 41  1  1  0  0  0
 44 47  1  0  0  0  0
 45 47  1  0  0  0  0
 46 45  1  0  0  0  0
 48 44  1  0  0  0  0
 49 51  1  0  0  0  0
 51 50  1  0  0  0  0
 52 53  1  0  0  0  0
 52 51  1  0  0  0  0
 54 56  1  6  0  0  0
 54 53  1  0  0  0  0
 55 56  1  0  0  0  0
 57 58  1  0  0  0  0
 57 54  1  0  0  0  0
 58 60  1  0  0  0  0
 59 60  2  0  0  0  0
 60 61  1  0  0  0  0
M  END
>  <MODEL>
6

>  <REMARK>
 VINA RESULT:      -3.5      1.732      2.295
  Name = 
  31 active torsions:
  status: ('A' for Active; 'I' for Inactive)
    1  A    between atoms: C_1  and  N_8
    2  A    between atoms: C_1  and  C_21
    3  A    between atoms: C_1  and  C_28
    4  A    between atoms: C_4  and  S_15
    5  A    between atoms: C_4  and  C_46
    6  A    between atoms: C_4  and  C_51
    7  A    between atoms: C_7  and  N_8
    8  A    between atoms: C_7  and  C_42
    9  A    between atoms: C_9  and  C_34
   10  A    between atoms: C_9  and  C_39
   11  A    between atoms: C_10  and  C_53
   12  A    between atoms: C_11  and  C_29
   13  A    between atoms: C_11  and  C_39
   14  A    between atoms: C_14  and  C_36
   15  A    between atoms: C_14  and  C_43
   16  A    between atoms: S_15  and  N_38
   17  A    between atoms: C_19  and  C_45
   18  A    between atoms: C_23  and  N_41
   19  A    between atoms: C_23  and  C_43
   20  A    between atoms: C_25  and  C_58
   21  A    between atoms: C_26  and  C_28
   22  A    between atoms: C_26  and  N_59
   23  A    between atoms: C_32  and  C_55
   24  A    between atoms: C_32  and  N_59
   25  A    between atoms: C_33  and  C_51
   26  A    between atoms: C_34  and  C_55
   27  A    between atoms: C_35  and  N_41
   28  A    between atoms: C_36  and  C_53
   29  A    between atoms: C_47  and  C_49
   30  A    between atoms: C_47  and  C_58
   31  A    between atoms: C_53  and  C_55
                            x       y       z     vdW  Elec       q    Type
                         _______ _______ _______ _____ _____    ______ ____

>  <TORSDO>
F 31

$$$$
=
 OpenBabel10222420333D

 61 64  0  0  1  0  0  0  0  0999 V2000
  187.9640  176.7540  137.3210 C   0  0  2  0  0  3  0  0  0  0  0  0
  188.3390  176.8790  138.8180 C   0  0  1  0  0  3  0  0  0  0  0  0
  189.8190  176.5550  139.0960 C   0  0  0  0  0  2  0  0  0  0  0  0
  190.5780  177.7810  139.6030 C   0  0  0  0  0  1  0  0  0  0  0  0
  187.9640  178.2560  139.4300 C   0  0  0  0  0  2  0  0  0  0  0  0
  187.1500  178.1430  140.7120 C   0  0  0  0  0  2  0  0  0  0  0  0
  185.9120  179.0440  140.7520 C   0  0  1  0  0  3  0  0  0  0  0  0
  184.7300  178.2990  140.1240 C   0  0  0  0  0  1  0  0  0  0  0  0
  185.5240  179.4850  142.1650 C   0  0  0  0  0  2  0  0  0  0  0  0
  185.2470  178.3270  142.9930 N   0  0  0  0  0  2  0  0  0  0  0  0
  186.4140  176.5360  144.0520 N   0  0  0  0  0  2  0  0  0  0  0  0
  186.5410  177.8850  143.4960 C   0  0  2  0  0  3  0  0  0  0  0  0
  186.5060  177.7080  144.9530 C   0  0  2  0  0  3  0  0  0  0  0  0
  187.8910  177.7760  145.5850 C   0  0  0  0  0  0  0  0  0  0  0  0
  188.0480  178.4740  146.7640 O   0  0  0  0  0  1  0  0  0  0  0  0
  188.9350  177.1390  145.0310 C   0  0  0  0  0  3  0  0  0  0  0  0
  190.3830  177.1860  145.4580 C   0  0  2  0  0  3  0  0  0  0  0  0
  190.7550  176.5870  147.1110 S   0  0  0  0  0  0  0  0  0  0  0  0
  191.1640  177.7680  147.9400 O   0  0  0  0  0  0  0  0  0  0  0  0
  189.5010  175.9970  147.7090 O   0  0  0  0  0  0  0  0  0  0  0  0
  192.9660  175.8020  148.1480 C   0  0  0  0  0  1  0  0  0  0  0  0
  192.0390  175.4230  147.0990 N   0  0  0  0  0  2  0  0  0  0  0  0
  190.9790  178.5700  145.1970 C   0  0  0  0  0  2  0  0  0  0  0  0
  191.9680  178.5160  144.0450 C   0  0  0  0  0  2  0  0  0  0  0  0
  191.5480  177.4320  143.0700 C   0  0  0  0  0  1  0  0  0  0  0  0
  186.5460  176.1910  137.0910 C   0  0  0  0  0  2  0  0  0  0  0  0
  186.4470  175.6770  135.6700 C   0  0  0  0  0  2  0  0  0  0  0  0
  185.0310  175.8290  135.1480 C   0  0  0  0  0  2  0  0  0  0  0  0
  184.5010  177.1720  135.6300 C   0  0  0  0  0  2  0  0  0  0  0  0
  180.4430  178.5780  137.8700 C   0  0  0  0  0  2  0  0  0  0  0  0
  180.0590  179.5780  136.7590 C   0  0  1  0  0  3  0  0  0  0  0  0
  180.8860  178.0430  134.8580 C   0  0  0  0  0  0  0  0  0  0  0  0
  181.2180  180.0390  136.1100 O   0  0  0  0  0  0  0  0  0  0  0  0
  180.1730  177.0790  134.6270 O   0  0  0  0  0  0  0  0  0  0  0  0
  182.3690  177.9230  134.6900 C   0  0  0  0  0  2  0  0  0  0  0  0
  182.9960  177.0890  135.8050 C   0  0  2  0  0  3  0  0  0  0  0  0
  182.6440  177.6180  137.1990 C   0  0  0  0  0  2  0  0  0  0  0  0
  181.2070  177.2890  137.5440 C   0  0  1  0  0  3  0  0  0  0  0  0
  180.2870  179.3470  135.2940 C   0  0  2  0  0  3  0  0  0  0  0  0
  181.2090  176.3750  138.7680 C   0  0  0  0  0  2  0  0  0  0  0  0
  179.9750  175.4710  138.8020 C   0  0  0  0  0  2  0  0  0  0  0  0
  180.1220  171.5100  136.4510 C   0  0  0  0  0  2  0  0  0  0  0  0
  178.9310  172.2430  137.0440 C   0  0  0  0  0  2  0  0  0  0  0  0
  180.2180  174.0880  138.1930 C   0  0  2  0  0  3  0  0  0  0  0  0
  181.9240  172.7260  136.8270 C   0  0  0  0  0  2  0  0  0  0  0  0
  181.2230  171.6180  137.3110 O   0  0  0  0  0  0  0  0  0  0  0  0
  181.6740  173.9450  137.7160 C   0  0  0  0  0  2  0  0  0  0  0  0
  179.1700  173.7430  137.1240 C   0  0  0  0  0  2  0  0  0  0  0  0
  189.0520  175.9150  136.6220 C   0  0  0  0  0  2  0  0  0  0  0  0
  189.8820  177.3960  135.0420 C   0  0  0  0  0  1  0  0  0  0  0  0
  189.1630  176.1340  135.1830 N   0  0  0  0  0  0  0  0  0  0  0  0
  190.0340  175.0630  134.6910 C   0  0  0  0  0  2  0  0  0  0  0  0
  191.5030  175.1570  135.1160 C   0  0  0  0  0  2  0  0  0  0  0  0
  191.9810  174.1640  136.1770 C   0  0  2  0  0  3  0  0  0  0  0  0
  193.3290  176.0080  137.1380 C   0  0  0  0  0  1  0  0  0  0  0  0
  193.3670  174.5750  136.6500 C   0  0  0  0  0  2  0  0  0  0  0  0
  192.0850  172.8420  135.5720 N   0  0  0  0  0  2  0  0  0  0  0  0
  193.2890  172.8160  134.7460 C   0  0  0  0  0  2  0  0  0  0  0  0
  193.2920  170.3540  135.1630 O   0  0  0  0  0  1  0  0  0  0  0  0
  194.0000  171.5170  134.9400 C   0  0  0  0  0  0  0  0  0  0  0  0
  195.2580  171.4890  134.8690 O   0  0  0  0  0  0  0  0  0  0  0  0
  1 49  1  6  0  0  0
  1  2  1  0  0  0  0
  2  3  1  6  0  0  0
  2  5  1  0  0  0  0
  3  4  1  0  0  0  0
  5  6  1  0  0  0  0
  6  7  1  0  0  0  0
  7  8  1  1  0  0  0
  7  9  1  0  0  0  0
  9 10  1  0  0  0  0
 11 13  1  0  0  0  0
 12 10  1  6  0  0  0
 12 11  1  0  0  0  0
 12 13  1  0  0  0  0
 13 14  1  1  0  0  0
 14 15  1  0  0  0  0
 16 14  2  0  0  0  0
 17 16  1  1  0  0  0
 17 18  1  0  0  0  0
 18 20  2  0  0  0  0
 18 19  2  0  0  0  0
 22 18  1  0  0  0  0
 22 21  1  0  0  0  0
 23 17  1  0  0  0  0
 24 23  1  0  0  0  0
 25 24  1  0  0  0  0
 26  1  1  0  0  0  0
 27 26  1  0  0  0  0
 28 29  1  0  0  0  0
 28 27  1  0  0  0  0
 31 30  1  1  0  0  0
 33 31  1  0  0  0  0
 34 32  2  0  0  0  0
 35 32  1  0  0  0  0
 35 36  1  0  0  0  0
 36 29  1  6  0  0  0
 36 37  1  0  0  0  0
 37 38  1  0  0  0  0
 38 30  1  0  0  0  0
 38 40  1  1  0  0  0
 39 32  1  1  0  0  0
 39 33  1  0  0  0  0
 39 31  1  0  0  0  0
 40 41  1  0  0  0  0
 42 43  1  0  0  0  0
 42 46  1  0  0  0  0
 43 48  1  0  0  0  0
 44 41  1  6  0  0  0
 45 46  1  0  0  0  0
 45 47  1  0  0  0  0
 47 44  1  0  0  0  0
 48 44  1  0  0  0  0
 50 51  1  0  0  0  0
 51 49  1  0  0  0  0
 52 53  1  0  0  0  0
 52 51  1  0  0  0  0
 54 53  1  6  0  0  0
 54 56  1  0  0  0  0
 56 55  1  0  0  0  0
 57 54  1  0  0  0  0
 58 60  1  0  0  0  0
 58 57  1  0  0  0  0
 60 59  1  0  0  0  0
 61 60  2  0  0  0  0
M  END
>  <MODEL>
7

>  <REMARK>
 VINA RESULT:      -3.4      3.302      9.408
  Name = 
  31 active torsions:
  status: ('A' for Active; 'I' for Inactive)
    1  A    between atoms: C_1  and  N_8
    2  A    between atoms: C_1  and  C_21
    3  A    between atoms: C_1  and  C_28
    4  A    between atoms: C_4  and  S_15
    5  A    between atoms: C_4  and  C_46
    6  A    between atoms: C_4  and  C_51
    7  A    between atoms: C_7  and  N_8
    8  A    between atoms: C_7  and  C_42
    9  A    between atoms: C_9  and  C_34
   10  A    between atoms: C_9  and  C_39
   11  A    between atoms: C_10  and  C_53
   12  A    between atoms: C_11  and  C_29
   13  A    between atoms: C_11  and  C_39
   14  A    between atoms: C_14  and  C_36
   15  A    between atoms: C_14  and  C_43
   16  A    between atoms: S_15  and  N_38
   17  A    between atoms: C_19  and  C_45
   18  A    between atoms: C_23  and  N_41
   19  A    between atoms: C_23  and  C_43
   20  A    between atoms: C_25  and  C_58
   21  A    between atoms: C_26  and  C_28
   22  A    between atoms: C_26  and  N_59
   23  A    between atoms: C_32  and  C_55
   24  A    between atoms: C_32  and  N_59
   25  A    between atoms: C_33  and  C_51
   26  A    between atoms: C_34  and  C_55
   27  A    between atoms: C_35  and  N_41
   28  A    between atoms: C_36  and  C_53
   29  A    between atoms: C_47  and  C_49
   30  A    between atoms: C_47  and  C_58
   31  A    between atoms: C_53  and  C_55
                            x       y       z     vdW  Elec       q    Type
                         _______ _______ _______ _____ _____    ______ ____

>  <TORSDO>
F 31

$$$$
=
 OpenBabel10222420333D

 61 64  0  0  1  0  0  0  0  0999 V2000
  186.7700  177.1270  138.1560 C   0  0  2  0  0  3  0  0  0  0  0  0
  185.9720  177.3200  136.8430 C   0  0  1  0  0  3  0  0  0  0  0  0
  186.5730  178.4020  135.9270 C   0  0  0  0  0  2  0  0  0  0  0  0
  187.0450  177.8160  134.5980 C   0  0  0  0  0  1  0  0  0  0  0  0
  185.7650  175.9990  136.0530 C   0  0  0  0  0  2  0  0  0  0  0  0
  184.5680  175.1900  136.5360 C   0  0  0  0  0  2  0  0  0  0  0  0
  183.2110  175.8340  136.2380 C   0  0  1  0  0  3  0  0  0  0  0  0
  183.3070  176.6210  134.9280 C   0  0  0  0  0  1  0  0  0  0  0  0
  182.0670  174.8230  136.1260 C   0  0  0  0  0  2  0  0  0  0  0  0
  181.3530  174.7330  137.3830 N   0  0  0  0  0  2  0  0  0  0  0  0
  180.2460  176.1670  138.9360 N   0  0  0  0  0  2  0  0  0  0  0  0
  181.2610  176.0990  137.8820 C   0  0  2  0  0  3  0  0  0  0  0  0
  179.9480  176.6820  137.5790 C   0  0  2  0  0  3  0  0  0  0  0  0
  179.9690  178.2060  137.5810 C   0  0  0  0  0  0  0  0  0  0  0  0
  178.9390  178.8810  138.2020 O   0  0  0  0  0  1  0  0  0  0  0  0
  180.9850  178.8840  137.0240 C   0  0  0  0  0  3  0  0  0  0  0  0
  181.1140  180.3780  136.8440 C   0  0  2  0  0  3  0  0  0  0  0  0
  181.1800  181.3680  138.3420 S   0  0  0  0  0  0  0  0  0  0  0  0
  181.5890  180.4620  139.4660 O   0  0  0  0  0  0  0  0  0  0  0  0
  182.2400  182.4300  138.1780 O   0  0  0  0  0  0  0  0  0  0  0  0
  179.3570  181.7780  140.0980 C   0  0  0  0  0  1  0  0  0  0  0  0
  179.6440  182.0800  138.7090 N   0  0  0  0  0  2  0  0  0  0  0  0
  180.0690  180.8950  135.8540 C   0  0  0  0  0  2  0  0  0  0  0  0
  180.6410  182.0260  135.0180 C   0  0  0  0  0  2  0  0  0  0  0  0
  179.8200  183.2830  135.2410 C   0  0  0  0  0  1  0  0  0  0  0  0
  187.0310  178.4450  138.9130 C   0  0  0  0  0  2  0  0  0  0  0  0
  186.5710  178.2880  140.3460 C   0  0  0  0  0  2  0  0  0  0  0  0
  187.7070  177.7880  141.2180 C   0  0  0  0  0  2  0  0  0  0  0  0
  187.4820  178.3220  142.6250 C   0  0  0  0  0  2  0  0  0  0  0  0
  191.2840  175.8590  144.3390 C   0  0  0  0  0  2  0  0  0  0  0  0
  192.2100  176.2930  143.1840 C   0  0  1  0  0  3  0  0  0  0  0  0
  191.2360  178.6790  143.0740 C   0  0  0  0  0  0  0  0  0  0  0  0
  191.4490  176.5510  142.0310 O   0  0  0  0  0  0  0  0  0  0  0  0
  191.5660  179.4130  143.9900 O   0  0  0  0  0  0  0  0  0  0  0  0
  189.8730  178.8200  142.4680 C   0  0  0  0  0  2  0  0  0  0  0  0
  188.7870  178.2840  143.3970 C   0  0  2  0  0  3  0  0  0  0  0  0
  189.0470  176.8370  143.8290 C   0  0  0  0  0  2  0  0  0  0  0  0
  190.1680  176.7800  144.8460 C   0  0  1  0  0  3  0  0  0  0  0  0
  192.1860  177.6490  142.5410 C   0  0  2  0  0  3  0  0  0  0  0  0
  189.5990  176.2220  146.1490 C   0  0  0  0  0  2  0  0  0  0  0  0
  189.2960  177.3320  147.1570 C   0  0  0  0  0  2  0  0  0  0  0  0
  184.9230  178.5870  146.4230 C   0  0  0  0  0  2  0  0  0  0  0  0
  185.7970  177.6140  145.6480 C   0  0  0  0  0  2  0  0  0  0  0  0
  187.9360  177.9990  146.9350 C   0  0  2  0  0  3  0  0  0  0  0  0
  186.0920  179.3330  148.1380 C   0  0  0  0  0  2  0  0  0  0  0  0
  185.6890  179.6810  146.8450 O   0  0  0  0  0  0  0  0  0  0  0  0
  187.5520  178.8790  148.1370 C   0  0  0  0  0  2  0  0  0  0  0  0
  186.8600  176.9800  146.5320 C   0  0  0  0  0  2  0  0  0  0  0  0
  188.0720  176.3720  137.8190 C   0  0  0  0  0  2  0  0  0  0  0  0
  189.5520  178.1240  138.1680 C   0  0  0  0  0  1  0  0  0  0  0  0
  189.0910  177.1790  137.1550 N   0  0  0  0  0  0  0  0  0  0  0  0
  190.1930  176.2570  136.8670 C   0  0  0  0  0  2  0  0  0  0  0  0
  189.9840  175.3300  135.6650 C   0  0  0  0  0  2  0  0  0  0  0  0
  190.0050  173.8260  135.9390 C   0  0  2  0  0  3  0  0  0  0  0  0
  192.4160  173.5520  135.4410 C   0  0  0  0  0  1  0  0  0  0  0  0
  191.3580  173.4480  136.5200 C   0  0  0  0  0  2  0  0  0  0  0  0
  189.8420  173.1140  134.6770 N   0  0  0  0  0  2  0  0  0  0  0  0
  189.5220  171.7220  134.9820 C   0  0  0  0  0  2  0  0  0  0  0  0
  187.2850  172.5720  135.6940 O   0  0  0  0  0  1  0  0  0  0  0  0
  188.0440  171.5690  135.1270 C   0  0  0  0  0  0  0  0  0  0  0  0
  187.4900  170.5210  134.6980 O   0  0  0  0  0  0  0  0  0  0  0  0
  1 49  1  6  0  0  0
  1 26  1  0  0  0  0
  2  3  1  6  0  0  0
  2  1  1  0  0  0  0
  4  3  1  0  0  0  0
  5  6  1  0  0  0  0
  5  2  1  0  0  0  0
  7  8  1  6  0  0  0
  7  6  1  0  0  0  0
  9  7  1  0  0  0  0
  9 10  1  0  0  0  0
 12 10  1  6  0  0  0
 12 11  1  0  0  0  0
 13 14  1  1  0  0  0
 13 12  1  0  0  0  0
 13 11  1  0  0  0  0
 14 15  1  0  0  0  0
 16 14  2  0  0  0  0
 17 23  1  6  0  0  0
 17 16  1  0  0  0  0
 17 18  1  0  0  0  0
 18 22  1  0  0  0  0
 18 19  2  0  0  0  0
 20 18  2  0  0  0  0
 22 21  1  0  0  0  0
 24 25  1  0  0  0  0
 24 23  1  0  0  0  0
 26 27  1  0  0  0  0
 27 28  1  0  0  0  0
 28 29  1  0  0  0  0
 30 38  1  0  0  0  0
 31 30  1  1  0  0  0
 32 34  2  0  0  0  0
 33 31  1  0  0  0  0
 35 32  1  0  0  0  0
 35 36  1  0  0  0  0
 36 29  1  6  0  0  0
 36 37  1  0  0  0  0
 37 38  1  0  0  0  0
 38 40  1  1  0  0  0
 39 33  1  6  0  0  0
 39 32  1  0  0  0  0
 39 31  1  0  0  0  0
 40 41  1  0  0  0  0
 42 46  1  0  0  0  0
 43 42  1  0  0  0  0
 43 48  1  0  0  0  0
 44 41  1  1  0  0  0
 44 47  1  0  0  0  0
 46 45  1  0  0  0  0
 47 45  1  0  0  0  0
 48 44  1  0  0  0  0
 51 49  1  0  0  0  0
 51 50  1  0  0  0  0
 52 51  1  0  0  0  0
 53 52  1  0  0  0  0
 54 53  1  6  0  0  0
 54 56  1  0  0  0  0
 55 56  1  0  0  0  0
 57 58  1  0  0  0  0
 57 54  1  0  0  0  0
 58 60  1  0  0  0  0
 60 59  1  0  0  0  0
 61 60  2  0  0  0  0
M  END
>  <MODEL>
8

>  <REMARK>
 VINA RESULT:      -3.1      2.976      5.003
  Name = 
  31 active torsions:
  status: ('A' for Active; 'I' for Inactive)
    1  A    between atoms: C_1  and  N_8
    2  A    between atoms: C_1  and  C_21
    3  A    between atoms: C_1  and  C_28
    4  A    between atoms: C_4  and  S_15
    5  A    between atoms: C_4  and  C_46
    6  A    between atoms: C_4  and  C_51
    7  A    between atoms: C_7  and  N_8
    8  A    between atoms: C_7  and  C_42
    9  A    between atoms: C_9  and  C_34
   10  A    between atoms: C_9  and  C_39
   11  A    between atoms: C_10  and  C_53
   12  A    between atoms: C_11  and  C_29
   13  A    between atoms: C_11  and  C_39
   14  A    between atoms: C_14  and  C_36
   15  A    between atoms: C_14  and  C_43
   16  A    between atoms: S_15  and  N_38
   17  A    between atoms: C_19  and  C_45
   18  A    between atoms: C_23  and  N_41
   19  A    between atoms: C_23  and  C_43
   20  A    between atoms: C_25  and  C_58
   21  A    between atoms: C_26  and  C_28
   22  A    between atoms: C_26  and  N_59
   23  A    between atoms: C_32  and  C_55
   24  A    between atoms: C_32  and  N_59
   25  A    between atoms: C_33  and  C_51
   26  A    between atoms: C_34  and  C_55
   27  A    between atoms: C_35  and  N_41
   28  A    between atoms: C_36  and  C_53
   29  A    between atoms: C_47  and  C_49
   30  A    between atoms: C_47  and  C_58
   31  A    between atoms: C_53  and  C_55
                            x       y       z     vdW  Elec       q    Type
                         _______ _______ _______ _____ _____    ______ ____

>  <TORSDO>
F 31

$$$$
=
 OpenBabel10222420333D

 61 64  0  0  1  0  0  0  0  0999 V2000
  189.8520  176.5560  139.5080 C   0  0  2  0  0  3  0  0  0  0  0  0
  188.5640  176.7070  138.6610 C   0  0  1  0  0  3  0  0  0  0  0  0
  188.0660  178.1620  138.5790 C   0  0  0  0  0  2  0  0  0  0  0  0
  187.2250  178.5390  139.7980 C   0  0  0  0  0  1  0  0  0  0  0  0
  188.6930  176.1000  137.2380 C   0  0  0  0  0  2  0  0  0  0  0  0
  187.7440  174.9340  136.9930 C   0  0  0  0  0  2  0  0  0  0  0  0
  188.1560  174.0190  135.8360 C   0  0  1  0  0  3  0  0  0  0  0  0
  188.3240  172.5910  136.3640 C   0  0  0  0  0  1  0  0  0  0  0  0
  187.1530  174.0040  134.6810 C   0  0  0  0  0  2  0  0  0  0  0  0
  186.1090  173.0320  134.9370 N   0  0  0  0  0  2  0  0  0  0  0  0
  184.6630  172.7630  136.8160 N   0  0  0  0  0  2  0  0  0  0  0  0
  185.1490  173.7030  135.8030 C   0  0  2  0  0  3  0  0  0  0  0  0
  183.8100  173.1180  135.6580 C   0  0  2  0  0  3  0  0  0  0  0  0
  182.7040  174.0710  136.0950 C   0  0  0  0  0  0  0  0  0  0  0  0
  182.8440  175.4160  135.8280 O   0  0  0  0  0  1  0  0  0  0  0  0
  181.5950  173.6120  136.6970 C   0  0  0  0  0  3  0  0  0  0  0  0
  180.4590  174.4150  137.2860 C   0  0  2  0  0  3  0  0  0  0  0  0
  180.9070  175.7070  138.4530 S   0  0  0  0  0  0  0  0  0  0  0  0
  182.2490  175.3570  139.0230 O   0  0  0  0  0  0  0  0  0  0  0  0
  181.0320  177.0140  137.7090 O   0  0  0  0  0  0  0  0  0  0  0  0
  179.3410  177.2260  139.8000 C   0  0  0  0  0  1  0  0  0  0  0  0
  179.7530  175.8370  139.7400 N   0  0  0  0  0  2  0  0  0  0  0  0
  179.3720  173.4910  137.8350 C   0  0  0  0  0  2  0  0  0  0  0  0
  179.7220  172.0370  137.5670 C   0  0  0  0  0  2  0  0  0  0  0  0
  179.3940  171.6970  136.1250 C   0  0  0  0  0  1  0  0  0  0  0  0
  190.3730  177.8930  140.0740 C   0  0  0  0  0  2  0  0  0  0  0  0
  190.5700  177.7500  141.5680 C   0  0  0  0  0  2  0  0  0  0  0  0
  189.3660  178.2890  142.3170 C   0  0  0  0  0  2  0  0  0  0  0  0
  188.9930  177.2720  143.3870 C   0  0  0  0  0  2  0  0  0  0  0  0
  186.6030  177.3440  147.5990 C   0  0  0  0  0  2  0  0  0  0  0  0
  187.8640  177.0350  148.4330 C   0  0  1  0  0  3  0  0  0  0  0  0
  189.4000  178.4920  146.9600 C   0  0  0  0  0  0  0  0  0  0  0  0
  188.7820  176.3030  147.6580 O   0  0  0  0  0  0  0  0  0  0  0  0
  189.2590  179.6960  147.1010 O   0  0  0  0  0  0  0  0  0  0  0  0
  189.7580  177.9430  145.6140 C   0  0  0  0  0  2  0  0  0  0  0  0
  188.5730  177.9980  144.6520 C   0  0  2  0  0  3  0  0  0  0  0  0
  187.3290  177.3030  145.2140 C   0  0  0  0  0  2  0  0  0  0  0  0
  186.6930  178.1490  146.2970 C   0  0  1  0  0  3  0  0  0  0  0  0
  189.2350  177.5630  148.1250 C   0  0  2  0  0  3  0  0  0  0  0  0
  185.2880  178.5330  145.8370 C   0  0  0  0  0  2  0  0  0  0  0  0
  185.3240  179.5120  144.6620 C   0  0  0  0  0  2  0  0  0  0  0  0
  182.2350  178.3120  141.4610 C   0  0  0  0  0  2  0  0  0  0  0  0
  183.7410  178.4720  141.3440 C   0  0  0  0  0  2  0  0  0  0  0  0
  184.1630  179.3290  143.6820 C   0  0  2  0  0  3  0  0  0  0  0  0
  181.6730  178.6880  143.5600 C   0  0  0  0  0  2  0  0  0  0  0  0
  181.7150  179.3020  142.3050 O   0  0  0  0  0  0  0  0  0  0  0  0
  182.8280  179.1770  144.4330 C   0  0  0  0  0  2  0  0  0  0  0  0
  184.4440  178.2100  142.6670 C   0  0  0  0  0  2  0  0  0  0  0  0
  190.9060  175.8270  138.6510 C   0  0  0  0  0  2  0  0  0  0  0  0
  193.1970  176.1420  138.8280 C   0  0  0  0  0  1  0  0  0  0  0  0
  192.0010  176.6710  138.1810 N   0  0  0  0  0  0  0  0  0  0  0  0
  192.1100  176.4040  136.7450 C   0  0  0  0  0  2  0  0  0  0  0  0
  192.8460  175.1150  136.3650 C   0  0  0  0  0  2  0  0  0  0  0  0
  194.3700  175.1920  136.2690 C   0  0  2  0  0  3  0  0  0  0  0  0
  195.9180  176.1940  134.6140 C   0  0  0  0  0  1  0  0  0  0  0  0
  194.7570  176.4730  135.5460 C   0  0  0  0  0  2  0  0  0  0  0  0
  194.8510  174.0660  135.4770 N   0  0  0  0  0  2  0  0  0  0  0  0
  194.9950  172.9160  136.3660 C   0  0  0  0  0  2  0  0  0  0  0  0
  195.7340  172.5520  138.7230 O   0  0  0  0  0  1  0  0  0  0  0  0
  195.7790  173.3130  137.5730 C   0  0  0  0  0  0  0  0  0  0  0  0
  196.5080  174.3400  137.5220 O   0  0  0  0  0  0  0  0  0  0  0  0
  1 49  1  6  0  0  0
  1 26  1  0  0  0  0
  2  5  1  6  0  0  0
  2  1  1  0  0  0  0
  3  2  1  0  0  0  0
  3  4  1  0  0  0  0
  6  5  1  0  0  0  0
  7  8  1  1  0  0  0
  7  6  1  0  0  0  0
  9 10  1  0  0  0  0
  9  7  1  0  0  0  0
 12 10  1  6  0  0  0
 12 11  1  0  0  0  0
 13 12  1  0  0  0  0
 13 14  1  1  0  0  0
 13 11  1  0  0  0  0
 14 16  2  0  0  0  0
 15 14  1  0  0  0  0
 17 16  1  1  0  0  0
 17 23  1  0  0  0  0
 17 18  1  0  0  0  0
 18 19  2  0  0  0  0
 18 22  1  0  0  0  0
 20 18  2  0  0  0  0
 22 21  1  0  0  0  0
 24 23  1  0  0  0  0
 25 24  1  0  0  0  0
 26 27  1  0  0  0  0
 27 28  1  0  0  0  0
 28 29  1  0  0  0  0
 31 30  1  6  0  0  0
 32 34  2  0  0  0  0
 33 39  1  0  0  0  0
 33 31  1  0  0  0  0
 35 32  1  0  0  0  0
 36 29  1  6  0  0  0
 36 37  1  0  0  0  0
 36 35  1  0  0  0  0
 37 38  1  0  0  0  0
 38 40  1  6  0  0  0
 38 30  1  0  0  0  0
 39 32  1  6  0  0  0
 39 31  1  0  0  0  0
 41 40  1  0  0  0  0
 42 46  1  0  0  0  0
 43 42  1  0  0  0  0
 43 48  1  0  0  0  0
 44 47  1  0  0  0  0
 44 41  1  1  0  0  0
 45 47  1  0  0  0  0
 46 45  1  0  0  0  0
 48 44  1  0  0  0  0
 51 49  1  0  0  0  0
 51 50  1  0  0  0  0
 52 51  1  0  0  0  0
 53 52  1  0  0  0  0
 54 56  1  6  0  0  0
 54 53  1  0  0  0  0
 55 56  1  0  0  0  0
 57 54  1  0  0  0  0
 57 58  1  0  0  0  0
 58 60  1  0  0  0  0
 60 59  1  0  0  0  0
 61 60  2  0  0  0  0
M  END
>  <MODEL>
9

>  <REMARK>
 VINA RESULT:      -3.0      1.575      2.101
  Name = 
  31 active torsions:
  status: ('A' for Active; 'I' for Inactive)
    1  A    between atoms: C_1  and  N_8
    2  A    between atoms: C_1  and  C_21
    3  A    between atoms: C_1  and  C_28
    4  A    between atoms: C_4  and  S_15
    5  A    between atoms: C_4  and  C_46
    6  A    between atoms: C_4  and  C_51
    7  A    between atoms: C_7  and  N_8
    8  A    between atoms: C_7  and  C_42
    9  A    between atoms: C_9  and  C_34
   10  A    between atoms: C_9  and  C_39
   11  A    between atoms: C_10  and  C_53
   12  A    between atoms: C_11  and  C_29
   13  A    between atoms: C_11  and  C_39
   14  A    between atoms: C_14  and  C_36
   15  A    between atoms: C_14  and  C_43
   16  A    between atoms: S_15  and  N_38
   17  A    between atoms: C_19  and  C_45
   18  A    between atoms: C_23  and  N_41
   19  A    between atoms: C_23  and  C_43
   20  A    between atoms: C_25  and  C_58
   21  A    between atoms: C_26  and  C_28
   22  A    between atoms: C_26  and  N_59
   23  A    between atoms: C_32  and  C_55
   24  A    between atoms: C_32  and  N_59
   25  A    between atoms: C_33  and  C_51
   26  A    between atoms: C_34  and  C_55
   27  A    between atoms: C_35  and  N_41
   28  A    between atoms: C_36  and  C_53
   29  A    between atoms: C_47  and  C_49
   30  A    between atoms: C_47  and  C_58
   31  A    between atoms: C_53  and  C_55
                            x       y       z     vdW  Elec       q    Type
                         _______ _______ _______ _____ _____    ______ ____

>  <TORSDO>
F 31

$$$$
