=
 OpenBabel10222419393D

 51 55  0  0  1  0  0  0  0  0999 V2000
  182.9870  178.0540  138.3840 C   0  0  0  0  0  3  0  0  0  0  0  0
  185.4660  172.3450  137.0870 C   0  0  0  0  0  1  0  0  0  0  0  0
  184.2270  175.8170  137.2250 C   0  0  0  0  0  0  0  0  0  0  0  0
  188.2180  174.9350  135.4370 C   0  0  0  0  0  3  0  0  0  0  0  0
  186.7390  176.8400  135.9370 C   0  0  0  0  0  0  0  0  0  0  0  0
  185.7130  173.8320  137.1490 C   0  0  1  0  0  3  0  0  0  0  0  0
  185.9140  174.3650  135.7480 C   0  0  2  0  0  3  0  0  0  0  0  0
  183.3930  175.6760  138.3500 C   0  0  0  0  0  3  0  0  0  0  0  0
  185.4250  177.3230  135.6940 N   0  0  0  0  0  2  0  0  0  0  0  0
  189.7790  176.5040  136.4970 C   0  0  0  0  0  0  0  0  0  0  0  0
  188.9380  177.3830  137.0820 C   0  0  0  0  0  0  0  0  0  0  0  0
  182.7820  176.7850  138.9390 C   0  0  0  0  0  0  0  0  0  0  0  0
  187.0080  175.3910  135.7720 C   0  0  0  0  0  0  0  0  0  0  0  0
  183.8210  178.2110  137.2740 C   0  0  0  0  0  3  0  0  0  0  0  0
  189.4040  175.8130  135.2260 C   0  0  0  0  0  2  0  0  0  0  0  0
  187.5820  177.6790  136.5560 C   0  0  0  0  0  3  0  0  0  0  0  0
  184.5710  174.5600  136.4750 C   0  0  2  0  0  3  0  0  0  0  0  0
  184.4390  177.1010  136.6890 C   0  0  0  0  0  0  0  0  0  0  0  0
  189.1760  179.5300  138.0830 F   0  0  0  0  0  0  0  0  0  0  0  0
  189.3840  178.1770  138.2760 C   0  0  1  0  0  3  0  0  0  0  0  0
  188.7290  177.6970  139.5720 C   0  0  0  0  0  2  0  0  0  0  0  0
  189.5990  176.8080  140.3300 N   0  0  0  0  0  2  0  0  0  0  0  0
  188.3540  176.1780  142.5720 O   0  0  0  0  0  0  0  0  0  0  0  0
  189.4070  177.1050  142.0350 S   0  0  0  0  0  0  0  0  0  0  0  0
  188.9600  178.5310  142.2360 O   0  0  0  0  0  0  0  0  0  0  0  0
  190.9180  176.8270  142.9450 C   0  0  0  0  0  2  0  0  0  0  0  0
  190.4490  177.4090  145.3460 C   0  0  0  0  0  0  0  0  0  0  0  0
  190.6110  176.4440  144.3080 N   0  0  0  0  0  2  0  0  0  0  0  0
  190.6090  178.6390  145.1110 O   0  0  0  0  0  0  0  0  0  0  0  0
  190.0710  176.9480  146.7200 C   0  0  1  0  0  3  0  0  0  0  0  0
  191.1590  177.0600  147.6000 O   0  0  0  0  0  0  0  0  0  0  0  0
  191.9660  175.9560  147.3130 C   0  0  0  0  0  1  0  0  0  0  0  0
  188.8950  177.7190  147.2530 C   0  0  0  0  0  0  0  0  0  0  0  0
  188.9950  178.3410  148.3450 O   0  0  0  0  0  0  0  0  0  0  0  0
  187.6090  177.6890  146.5360 C   0  0  0  0  0  0  0  0  0  0  0  0
  187.4690  176.9680  145.5150 O   0  0  0  0  0  0  0  0  0  0  0  0
  186.2340  178.6500  147.1190 S   0  0  0  0  0  3  0  0  0  0  0  0
  185.4970  179.0200  145.8370 O   0  0  0  0  0  0  0  0  0  0  0  0
  181.9500  176.5940  140.0420 O   0  0  0  0  0  0  0  0  0  0  0  0
  179.9150  175.6230  139.2150 C   0  0  0  0  0  1  0  0  0  0  0  0
  180.5410  176.7710  139.9850 C   0  0  0  0  0  2  0  0  0  0  0  0
  191.1810  176.3250  137.0140 C   0  0  0  0  0  2  0  0  0  0  0  0
  192.0910  175.6430  136.0070 C   0  0  0  0  0  2  0  0  0  0  0  0
  193.0190  174.3020  136.8250 S   0  0  0  0  0  0  0  0  0  0  0  0
  197.9640  173.8300  136.8840 C   0  0  0  0  0  1  0  0  0  0  0  0
  195.0430  175.4570  135.4310 N   0  0  0  0  0  2  0  0  0  0  0  0
  195.7260  174.3310  137.4220 C   0  0  1  0  0  3  0  0  0  0  0  0
  196.8020  175.6820  135.4650 S   0  0  0  0  0  0  0  0  0  0  0  0
  194.6370  175.1620  136.7890 C   0  0  2  0  0  3  0  0  0  0  0  0
  197.0000  174.9150  137.0540 N   0  0  0  0  0  0  0  0  0  0  0  0
  195.5710  174.3640  138.9330 C   0  0  0  0  0  1  0  0  0  0  0  0
  1 12  1  0  0  0  0
  3  8  1  0  0  0  0
  4 13  2  0  0  0  0
  5 16  2  0  0  0  0
  6  2  1  6  0  0  0
  7 13  1  1  0  0  0
  7 17  1  0  0  0  0
  7  6  1  0  0  0  0
  8 12  2  0  0  0  0
  9  5  1  0  0  0  0
  9 18  1  0  0  0  0
 10 42  1  0  0  0  0
 10 11  2  0  0  0  0
 11 20  1  0  0  0  0
 12 39  1  0  0  0  0
 13  5  1  0  0  0  0
 14  1  2  0  0  0  0
 15  4  1  0  0  0  0
 15 10  1  0  0  0  0
 16 11  1  0  0  0  0
 17  6  1  0  0  0  0
 17  3  1  1  0  0  0
 18  3  2  0  0  0  0
 18 14  1  0  0  0  0
 20 19  1  6  0  0  0
 20 21  1  0  0  0  0
 21 22  1  0  0  0  0
 22 24  1  0  0  0  0
 24 25  2  0  0  0  0
 24 23  2  0  0  0  0
 24 26  1  0  0  0  0
 26 28  1  0  0  0  0
 28 27  1  0  0  0  0
 29 27  2  0  0  0  0
 30 27  1  6  0  0  0
 30 33  1  0  0  0  0
 30 31  1  0  0  0  0
 32 31  1  0  0  0  0
 33 34  2  0  0  0  0
 35 37  1  0  0  0  0
 35 33  1  0  0  0  0
 36 35  2  0  0  0  0
 38 37  2  0  0  0  0
 40 41  1  0  0  0  0
 41 39  1  0  0  0  0
 43 44  1  0  0  0  0
 43 42  1  0  0  0  0
 45 50  1  0  0  0  0
 46 48  1  0  0  0  0
 46 49  1  0  0  0  0
 47 51  1  1  0  0  0
 48 50  1  0  0  0  0
 49 44  1  6  0  0  0
 49 47  1  0  0  0  0
 50 47  1  0  0  0  0
M  END
>  <MODEL>
1

>  <REMARK>
 VINA RESULT:      -7.0      0.000      0.000
  Name = 
  17 active torsions:
  status: ('A' for Active; 'I' for Inactive)
    1  A    between atoms: C_3  and  C_26
    2  A    between atoms: C_3  and  C_51
    3  A    between atoms: O_5  and  C_15
    4  A    between atoms: C_8  and  C_15
    5  A    between atoms: C_8  and  C_36
    6  A    between atoms: C_14  and  C_15
    7  A    between atoms: S_18  and  C_36
    8  A    between atoms: S_20  and  C_38
    9  A    between atoms: S_20  and  N_44
   10  A    between atoms: O_24  and  C_32
   11  A    between atoms: O_24  and  C_35
   12  A    between atoms: S_25  and  C_30
   13  A    between atoms: S_25  and  C_51
   14  A    between atoms: C_28  and  C_39
   15  A    between atoms: C_28  and  N_44
   16  A    between atoms: C_31  and  C_39
   17  A    between atoms: C_38  and  N_43
                            x       y       z     vdW  Elec       q    Type
                         _______ _______ _______ _____ _____    ______ ____

>  <TORSDO>
F 17

$$$$
=
 OpenBabel10222419393D

 51 55  0  0  1  0  0  0  0  0999 V2000
  183.7310  178.7570  140.1700 C   0  0  0  0  0  3  0  0  0  0  0  0
  184.5170  174.3670  135.6390 C   0  0  0  0  0  1  0  0  0  0  0  0
  184.4120  177.3080  137.8630 C   0  0  0  0  0  0  0  0  0  0  0  0
  188.1940  176.2290  135.7590 C   0  0  0  0  0  3  0  0  0  0  0  0
  187.3120  177.8910  137.3470 C   0  0  0  0  0  0  0  0  0  0  0  0
  185.1970  175.3450  136.5660 C   0  0  1  0  0  3  0  0  0  0  0  0
  185.8120  176.4610  135.7510 C   0  0  2  0  0  3  0  0  0  0  0  0
  183.3790  176.8670  138.7110 C   0  0  0  0  0  3  0  0  0  0  0  0
  186.2830  178.8600  137.4880 N   0  0  0  0  0  2  0  0  0  0  0  0
  189.9360  176.2290  137.4870 C   0  0  0  0  0  0  0  0  0  0  0  0
  189.3150  176.8520  138.5110 C   0  0  0  0  0  0  0  0  0  0  0  0
  183.0430  177.5760  139.8670 C   0  0  0  0  0  0  0  0  0  0  0  0
  187.1450  176.8130  136.3430 C   0  0  0  0  0  0  0  0  0  0  0  0
  184.7650  179.2010  139.3420 C   0  0  0  0  0  3  0  0  0  0  0  0
  189.6120  176.5720  136.0700 C   0  0  0  0  0  2  0  0  0  0  0  0
  188.2420  177.8590  138.3140 C   0  0  0  0  0  3  0  0  0  0  0  0
  184.4840  176.6770  136.5000 C   0  0  2  0  0  3  0  0  0  0  0  0
  185.1080  178.4870  138.1900 C   0  0  0  0  0  0  0  0  0  0  0  0
  191.0610  176.1600  139.9730 F   0  0  0  0  0  0  0  0  0  0  0  0
  189.7520  176.6030  139.9250 C   0  0  1  0  0  3  0  0  0  0  0  0
  189.5490  177.8260  140.8220 C   0  0  0  0  0  2  0  0  0  0  0  0
  189.2550  177.4540  142.1980 N   0  0  0  0  0  2  0  0  0  0  0  0
  191.8620  177.8630  142.2790 O   0  0  0  0  0  0  0  0  0  0  0  0
  190.7370  177.3010  143.1000 S   0  0  0  0  0  0  0  0  0  0  0  0
  191.0000  175.8400  143.3660 O   0  0  0  0  0  0  0  0  0  0  0  0
  190.6790  178.1820  144.6520 C   0  0  0  0  0  2  0  0  0  0  0  0
  188.8810  177.3320  146.1900 C   0  0  0  0  0  0  0  0  0  0  0  0
  189.3210  178.2090  145.1550 N   0  0  0  0  0  2  0  0  0  0  0  0
  189.6630  176.4680  146.6770 O   0  0  0  0  0  0  0  0  0  0  0  0
  187.4810  177.4560  146.7080 C   0  0  1  0  0  3  0  0  0  0  0  0
  187.3660  178.5530  147.5750 O   0  0  0  0  0  0  0  0  0  0  0  0
  187.8660  178.0950  148.7980 C   0  0  0  0  0  1  0  0  0  0  0  0
  186.4900  177.5830  145.5830 C   0  0  0  0  0  0  0  0  0  0  0  0
  186.7240  177.0280  144.4750 O   0  0  0  0  0  0  0  0  0  0  0  0
  185.2850  178.4120  145.7530 C   0  0  0  0  0  0  0  0  0  0  0  0
  184.7160  178.4820  146.8720 O   0  0  0  0  0  0  0  0  0  0  0  0
  184.6350  179.3420  144.3870 S   0  0  0  0  0  3  0  0  0  0  0  0
  183.3380  178.6140  144.0530 O   0  0  0  0  0  0  0  0  0  0  0  0
  182.0010  177.1100  140.6680 O   0  0  0  0  0  0  0  0  0  0  0  0
  179.6020  177.0890  140.7690 C   0  0  0  0  0  1  0  0  0  0  0  0
  180.8650  177.8990  140.9930 C   0  0  0  0  0  2  0  0  0  0  0  0
  191.0910  175.2970  137.7450 C   0  0  0  0  0  2  0  0  0  0  0  0
  192.2550  175.5380  136.8000 C   0  0  0  0  0  2  0  0  0  0  0  0
  193.3380  174.0690  136.7720 S   0  0  0  0  0  0  0  0  0  0  0  0
  198.2560  173.8510  137.4380 C   0  0  0  0  0  1  0  0  0  0  0  0
  195.4620  175.2640  135.5720 N   0  0  0  0  0  2  0  0  0  0  0  0
  195.9490  174.2610  137.6820 C   0  0  1  0  0  3  0  0  0  0  0  0
  197.1910  175.5790  135.8030 S   0  0  0  0  0  0  0  0  0  0  0  0
  194.9080  175.0070  136.8850 C   0  0  2  0  0  3  0  0  0  0  0  0
  197.2310  174.8920  137.4390 N   0  0  0  0  0  0  0  0  0  0  0  0
  195.6120  174.3520  139.1620 C   0  0  0  0  0  1  0  0  0  0  0  0
  3 18  2  0  0  0  0
  3  8  1  0  0  0  0
  4 15  1  0  0  0  0
  4 13  2  0  0  0  0
  5  9  1  0  0  0  0
  5 16  2  0  0  0  0
  6  2  1  6  0  0  0
  7 13  1  1  0  0  0
  7 17  1  0  0  0  0
  7  6  1  0  0  0  0
  8 12  2  0  0  0  0
  9 18  1  0  0  0  0
 10 42  1  0  0  0  0
 10 11  2  0  0  0  0
 11 20  1  0  0  0  0
 12  1  1  0  0  0  0
 12 39  1  0  0  0  0
 13  5  1  0  0  0  0
 14  1  2  0  0  0  0
 15 10  1  0  0  0  0
 16 11  1  0  0  0  0
 17  6  1  0  0  0  0
 17  3  1  1  0  0  0
 18 14  1  0  0  0  0
 20 19  1  6  0  0  0
 20 21  1  0  0  0  0
 21 22  1  0  0  0  0
 22 24  1  0  0  0  0
 23 24  2  0  0  0  0
 24 25  2  0  0  0  0
 24 26  1  0  0  0  0
 26 28  1  0  0  0  0
 27 29  2  0  0  0  0
 27 30  1  0  0  0  0
 28 27  1  0  0  0  0
 30 33  1  6  0  0  0
 30 31  1  0  0  0  0
 31 32  1  0  0  0  0
 33 35  1  0  0  0  0
 34 33  2  0  0  0  0
 35 36  2  0  0  0  0
 37 35  1  0  0  0  0
 38 37  2  0  0  0  0
 39 41  1  0  0  0  0
 40 41  1  0  0  0  0
 43 42  1  0  0  0  0
 44 43  1  0  0  0  0
 45 50  1  0  0  0  0
 46 48  1  0  0  0  0
 46 49  1  0  0  0  0
 47 51  1  1  0  0  0
 48 50  1  0  0  0  0
 49 44  1  6  0  0  0
 49 47  1  0  0  0  0
 50 47  1  0  0  0  0
M  END
>  <MODEL>
2

>  <REMARK>
 VINA RESULT:      -7.0      1.691      2.302
  Name = 
  17 active torsions:
  status: ('A' for Active; 'I' for Inactive)
    1  A    between atoms: C_3  and  C_26
    2  A    between atoms: C_3  and  C_51
    3  A    between atoms: O_5  and  C_15
    4  A    between atoms: C_8  and  C_15
    5  A    between atoms: C_8  and  C_36
    6  A    between atoms: C_14  and  C_15
    7  A    between atoms: S_18  and  C_36
    8  A    between atoms: S_20  and  C_38
    9  A    between atoms: S_20  and  N_44
   10  A    between atoms: O_24  and  C_32
   11  A    between atoms: O_24  and  C_35
   12  A    between atoms: S_25  and  C_30
   13  A    between atoms: S_25  and  C_51
   14  A    between atoms: C_28  and  C_39
   15  A    between atoms: C_28  and  N_44
   16  A    between atoms: C_31  and  C_39
   17  A    between atoms: C_38  and  N_43
                            x       y       z     vdW  Elec       q    Type
                         _______ _______ _______ _____ _____    ______ ____

>  <TORSDO>
F 17

$$$$
=
 OpenBabel10222419393D

 51 55  0  0  1  0  0  0  0  0999 V2000
  183.1730  177.3280  138.1430 C   0  0  0  0  0  3  0  0  0  0  0  0
  186.2970  172.1110  136.2890 C   0  0  0  0  0  1  0  0  0  0  0  0
  184.7150  175.4030  136.8000 C   0  0  0  0  0  0  0  0  0  0  0  0
  188.9020  175.1440  135.2810 C   0  0  0  0  0  3  0  0  0  0  0  0
  187.2070  176.8190  135.9060 C   0  0  0  0  0  0  0  0  0  0  0  0
  186.3910  173.5870  136.5820 C   0  0  1  0  0  3  0  0  0  0  0  0
  186.6480  174.3380  135.2950 C   0  0  2  0  0  3  0  0  0  0  0  0
  183.8130  175.0250  137.8120 C   0  0  0  0  0  3  0  0  0  0  0  0
  185.8750  177.2180  135.6140 N   0  0  0  0  0  2  0  0  0  0  0  0
  190.2120  176.6670  136.6910 C   0  0  0  0  0  0  0  0  0  0  0  0
  189.2450  177.3730  137.3140 C   0  0  0  0  0  0  0  0  0  0  0  0
  183.0510  175.9780  138.4920 C   0  0  0  0  0  0  0  0  0  0  0  0
  187.6300  175.4390  135.5640 C   0  0  0  0  0  0  0  0  0  0  0  0
  184.0720  177.7190  137.1470 C   0  0  0  0  0  3  0  0  0  0  0  0
  190.0080  176.1430  135.3070 C   0  0  0  0  0  2  0  0  0  0  0  0
  187.9120  177.6270  136.7120 C   0  0  0  0  0  3  0  0  0  0  0  0
  185.2400  174.3060  135.9150 C   0  0  2  0  0  3  0  0  0  0  0  0
  184.8410  176.7660  136.4720 C   0  0  0  0  0  0  0  0  0  0  0  0
  189.1790  179.3570  138.6280 F   0  0  0  0  0  0  0  0  0  0  0  0
  189.5150  178.0150  138.6440 C   0  0  1  0  0  3  0  0  0  0  0  0
  188.8220  177.2860  139.7950 C   0  0  0  0  0  2  0  0  0  0  0  0
  188.7630  178.0970  141.0030 N   0  0  0  0  0  2  0  0  0  0  0  0
  190.2640  178.4640  143.1440 O   0  0  0  0  0  0  0  0  0  0  0  0
  189.7440  177.3760  142.2480 S   0  0  0  0  0  0  0  0  0  0  0  0
  190.9080  176.6660  141.6050 O   0  0  0  0  0  0  0  0  0  0  0  0
  188.8250  176.2160  143.2470 C   0  0  0  0  0  2  0  0  0  0  0  0
  187.1740  177.5720  144.5730 C   0  0  0  0  0  0  0  0  0  0  0  0
  187.4850  176.7140  143.4770 N   0  0  0  0  0  2  0  0  0  0  0  0
  188.0650  177.8950  145.4080 O   0  0  0  0  0  0  0  0  0  0  0  0
  185.7800  178.1010  144.7170 C   0  0  1  0  0  3  0  0  0  0  0  0
  185.7250  179.0970  145.7030 O   0  0  0  0  0  0  0  0  0  0  0  0
  185.1200  178.4790  146.8020 C   0  0  0  0  0  1  0  0  0  0  0  0
  185.2610  178.6380  143.4110 C   0  0  0  0  0  0  0  0  0  0  0  0
  186.0590  179.1550  142.5840 O   0  0  0  0  0  0  0  0  0  0  0  0
  183.8150  178.6250  143.1330 C   0  0  0  0  0  0  0  0  0  0  0  0
  182.9870  178.6510  144.0790 O   0  0  0  0  0  0  0  0  0  0  0  0
  183.2230  178.5970  141.4590 S   0  0  0  0  0  3  0  0  0  0  0  0
  181.7170  178.4310  141.6220 O   0  0  0  0  0  0  0  0  0  0  0  0
  182.1580  175.5540  139.4750 O   0  0  0  0  0  0  0  0  0  0  0  0
  179.9920  174.6830  140.0390 C   0  0  0  0  0  1  0  0  0  0  0  0
  180.7660  175.8360  139.4270 C   0  0  0  0  0  2  0  0  0  0  0  0
  191.5800  176.5340  137.3050 C   0  0  0  0  0  2  0  0  0  0  0  0
  192.3850  175.4000  136.6940 C   0  0  0  0  0  2  0  0  0  0  0  0
  193.9360  176.0570  135.9910 S   0  0  0  0  0  0  0  0  0  0  0  0
  196.7550  172.3250  137.6680 C   0  0  0  0  0  1  0  0  0  0  0  0
  193.7330  173.3490  135.9040 N   0  0  0  0  0  2  0  0  0  0  0  0
  195.9060  174.1640  136.4660 C   0  0  1  0  0  3  0  0  0  0  0  0
  194.6930  171.8770  136.1380 S   0  0  0  0  0  0  0  0  0  0  0  0
  194.6740  174.4170  135.6330 C   0  0  2  0  0  3  0  0  0  0  0  0
  196.2190  172.7520  136.3770 N   0  0  0  0  0  0  0  0  0  0  0  0
  197.0650  174.9760  135.9090 C   0  0  0  0  0  1  0  0  0  0  0  0
  1 12  1  0  0  0  0
  3  8  1  0  0  0  0
  4 15  1  0  0  0  0
  4 13  2  0  0  0  0
  5 16  2  0  0  0  0
  6  2  1  6  0  0  0
  7 13  1  1  0  0  0
  7 17  1  0  0  0  0
  7  6  1  0  0  0  0
  8 12  2  0  0  0  0
  9  5  1  0  0  0  0
  9 18  1  0  0  0  0
 10 42  1  0  0  0  0
 10 11  2  0  0  0  0
 11 20  1  0  0  0  0
 12 39  1  0  0  0  0
 13  5  1  0  0  0  0
 14  1  2  0  0  0  0
 15 10  1  0  0  0  0
 16 11  1  0  0  0  0
 17  6  1  0  0  0  0
 17  3  1  1  0  0  0
 18  3  2  0  0  0  0
 18 14  1  0  0  0  0
 20 19  1  6  0  0  0
 20 21  1  0  0  0  0
 21 22  1  0  0  0  0
 22 24  1  0  0  0  0
 24 23  2  0  0  0  0
 24 26  1  0  0  0  0
 25 24  2  0  0  0  0
 26 28  1  0  0  0  0
 27 30  1  0  0  0  0
 27 29  2  0  0  0  0
 28 27  1  0  0  0  0
 30 33  1  6  0  0  0
 30 31  1  0  0  0  0
 31 32  1  0  0  0  0
 34 33  2  0  0  0  0
 35 33  1  0  0  0  0
 35 36  2  0  0  0  0
 37 38  2  0  0  0  0
 37 35  1  0  0  0  0
 41 39  1  0  0  0  0
 41 40  1  0  0  0  0
 43 42  1  0  0  0  0
 44 43  1  0  0  0  0
 46 48  1  0  0  0  0
 47 51  1  6  0  0  0
 48 50  1  0  0  0  0
 49 46  1  0  0  0  0
 49 44  1  1  0  0  0
 49 47  1  0  0  0  0
 50 47  1  0  0  0  0
 50 45  1  0  0  0  0
M  END
>  <MODEL>
3

>  <REMARK>
 VINA RESULT:      -6.9      2.032      2.923
  Name = 
  17 active torsions:
  status: ('A' for Active; 'I' for Inactive)
    1  A    between atoms: C_3  and  C_26
    2  A    between atoms: C_3  and  C_51
    3  A    between atoms: O_5  and  C_15
    4  A    between atoms: C_8  and  C_15
    5  A    between atoms: C_8  and  C_36
    6  A    between atoms: C_14  and  C_15
    7  A    between atoms: S_18  and  C_36
    8  A    between atoms: S_20  and  C_38
    9  A    between atoms: S_20  and  N_44
   10  A    between atoms: O_24  and  C_32
   11  A    between atoms: O_24  and  C_35
   12  A    between atoms: S_25  and  C_30
   13  A    between atoms: S_25  and  C_51
   14  A    between atoms: C_28  and  C_39
   15  A    between atoms: C_28  and  N_44
   16  A    between atoms: C_31  and  C_39
   17  A    between atoms: C_38  and  N_43
                            x       y       z     vdW  Elec       q    Type
                         _______ _______ _______ _____ _____    ______ ____

>  <TORSDO>
F 17

$$$$
=
 OpenBabel10222419393D

 51 55  0  0  1  0  0  0  0  0999 V2000
  188.6700  177.3480  141.5630 C   0  0  0  0  0  3  0  0  0  0  0  0
  184.2790  178.2190  146.0770 C   0  0  0  0  0  1  0  0  0  0  0  0
  186.5750  178.2680  143.1910 C   0  0  0  0  0  0  0  0  0  0  0  0
  182.2470  179.1920  142.6240 C   0  0  0  0  0  3  0  0  0  0  0  0
  184.3290  178.9730  141.3270 C   0  0  0  0  0  0  0  0  0  0  0  0
  184.5420  178.0730  144.5990 C   0  0  1  0  0  3  0  0  0  0  0  0
  184.2570  179.3880  143.9080 C   0  0  2  0  0  3  0  0  0  0  0  0
  187.5190  177.3480  143.6840 C   0  0  0  0  0  3  0  0  0  0  0  0
  185.6560  179.4770  141.2560 N   0  0  0  0  0  2  0  0  0  0  0  0
  181.5120  177.7910  140.7480 C   0  0  0  0  0  0  0  0  0  0  0  0
  182.6880  177.3780  140.2300 C   0  0  0  0  0  0  0  0  0  0  0  0
  188.5570  176.8770  142.8760 C   0  0  0  0  0  0  0  0  0  0  0  0
  183.5800  179.1100  142.5990 C   0  0  0  0  0  0  0  0  0  0  0  0
  187.7330  178.2530  141.0560 C   0  0  0  0  0  3  0  0  0  0  0  0
  181.3910  179.1280  141.4050 C   0  0  0  0  0  2  0  0  0  0  0  0
  183.9380  178.1720  140.3250 C   0  0  0  0  0  3  0  0  0  0  0  0
  185.7050  178.9560  144.2060 C   0  0  2  0  0  3  0  0  0  0  0  0
  186.6890  178.7180  141.8620 C   0  0  0  0  0  0  0  0  0  0  0  0
  181.7570  175.2250  139.8220 F   0  0  0  0  0  0  0  0  0  0  0  0
  182.7610  176.0990  139.4460 C   0  0  1  0  0  3  0  0  0  0  0  0
  182.7480  176.3390  137.9360 C   0  0  0  0  0  2  0  0  0  0  0  0
  183.1920  175.1690  137.1910 N   0  0  0  0  0  2  0  0  0  0  0  0
  184.1900  177.0930  135.6820 O   0  0  0  0  0  0  0  0  0  0  0  0
  183.7700  175.6520  135.6210 S   0  0  0  0  0  0  0  0  0  0  0  0
  182.6500  175.5060  134.6210 O   0  0  0  0  0  0  0  0  0  0  0  0
  185.1680  174.6810  135.0850 C   0  0  0  0  0  2  0  0  0  0  0  0
  187.0990  175.3430  136.5550 C   0  0  0  0  0  0  0  0  0  0  0  0
  186.3970  175.4140  135.3150 N   0  0  0  0  0  2  0  0  0  0  0  0
  186.6410  174.6610  137.5140 O   0  0  0  0  0  0  0  0  0  0  0  0
  188.3960  176.0770  136.7040 C   0  0  1  0  0  3  0  0  0  0  0  0
  188.3260  177.0030  137.7550 O   0  0  0  0  0  0  0  0  0  0  0  0
  187.6780  178.1150  137.2100 C   0  0  0  0  0  1  0  0  0  0  0  0
  189.5410  175.1270  136.9290 C   0  0  0  0  0  0  0  0  0  0  0  0
  189.4810  173.9540  136.4710 O   0  0  0  0  0  0  0  0  0  0  0  0
  190.6950  175.5450  137.7420 C   0  0  0  0  0  0  0  0  0  0  0  0
  190.5890  175.6430  138.9910 O   0  0  0  0  0  0  0  0  0  0  0  0
  192.2570  175.8900  136.9710 S   0  0  0  0  0  3  0  0  0  0  0  0
  192.9880  176.7220  138.0190 O   0  0  0  0  0  0  0  0  0  0  0  0
  189.4790  175.9790  143.4140 O   0  0  0  0  0  0  0  0  0  0  0  0
  191.2190  177.2810  144.4360 C   0  0  0  0  0  1  0  0  0  0  0  0
  190.8800  176.2170  143.4090 C   0  0  0  0  0  2  0  0  0  0  0  0
  180.2540  176.9940  140.5270 C   0  0  0  0  0  2  0  0  0  0  0  0
  179.1300  177.8290  139.9390 C   0  0  0  0  0  2  0  0  0  0  0  0
  179.2050  177.7650  138.1170 S   0  0  0  0  0  0  0  0  0  0  0  0
  179.9560  181.8220  135.3500 C   0  0  0  0  0  1  0  0  0  0  0  0
  179.5120  180.4050  138.6790 N   0  0  0  0  0  2  0  0  0  0  0  0
  180.2000  179.7710  136.4830 C   0  0  1  0  0  3  0  0  0  0  0  0
  180.0660  181.9240  137.9520 S   0  0  0  0  0  0  0  0  0  0  0  0
  180.1320  179.3350  137.9250 C   0  0  2  0  0  3  0  0  0  0  0  0
  180.6350  181.1530  136.4580 N   0  0  0  0  0  0  0  0  0  0  0  0
  181.2090  178.9090  135.7430 C   0  0  0  0  0  1  0  0  0  0  0  0
  1 12  1  0  0  0  0
  3  8  1  0  0  0  0
  5 13  1  0  0  0  0
  6  2  1  1  0  0  0
  7 13  1  6  0  0  0
  7 17  1  0  0  0  0
  7  6  1  0  0  0  0
  9  5  1  0  0  0  0
  9 18  1  0  0  0  0
 10 15  1  0  0  0  0
 11 16  1  0  0  0  0
 11 10  2  0  0  0  0
 12 39  1  0  0  0  0
 12  8  2  0  0  0  0
 13  4  2  0  0  0  0
 14  1  2  0  0  0  0
 14 18  1  0  0  0  0
 15  4  1  0  0  0  0
 16  5  2  0  0  0  0
 17  3  1  6  0  0  0
 17  6  1  0  0  0  0
 18  3  2  0  0  0  0
 20 19  1  6  0  0  0
 20 11  1  0  0  0  0
 21 20  1  0  0  0  0
 22 21  1  0  0  0  0
 24 23  2  0  0  0  0
 24 22  1  0  0  0  0
 25 24  2  0  0  0  0
 26 28  1  0  0  0  0
 26 24  1  0  0  0  0
 27 29  2  0  0  0  0
 28 27  1  0  0  0  0
 30 27  1  1  0  0  0
 30 33  1  0  0  0  0
 30 31  1  0  0  0  0
 32 31  1  0  0  0  0
 33 35  1  0  0  0  0
 34 33  2  0  0  0  0
 35 36  2  0  0  0  0
 37 35  1  0  0  0  0
 37 38  2  0  0  0  0
 41 39  1  0  0  0  0
 41 40  1  0  0  0  0
 42 10  1  0  0  0  0
 43 42  1  0  0  0  0
 44 43  1  0  0  0  0
 45 50  1  0  0  0  0
 47 51  1  6  0  0  0
 47 49  1  0  0  0  0
 48 46  1  0  0  0  0
 49 44  1  6  0  0  0
 49 46  1  0  0  0  0
 50 47  1  0  0  0  0
 50 48  1  0  0  0  0
M  END
>  <MODEL>
4

>  <REMARK>
 VINA RESULT:      -6.9      4.404     10.781
  Name = 
  17 active torsions:
  status: ('A' for Active; 'I' for Inactive)
    1  A    between atoms: C_3  and  C_26
    2  A    between atoms: C_3  and  C_51
    3  A    between atoms: O_5  and  C_15
    4  A    between atoms: C_8  and  C_15
    5  A    between atoms: C_8  and  C_36
    6  A    between atoms: C_14  and  C_15
    7  A    between atoms: S_18  and  C_36
    8  A    between atoms: S_20  and  C_38
    9  A    between atoms: S_20  and  N_44
   10  A    between atoms: O_24  and  C_32
   11  A    between atoms: O_24  and  C_35
   12  A    between atoms: S_25  and  C_30
   13  A    between atoms: S_25  and  C_51
   14  A    between atoms: C_28  and  C_39
   15  A    between atoms: C_28  and  N_44
   16  A    between atoms: C_31  and  C_39
   17  A    between atoms: C_38  and  N_43
                            x       y       z     vdW  Elec       q    Type
                         _______ _______ _______ _____ _____    ______ ____

>  <TORSDO>
F 17

$$$$
=
 OpenBabel10222419393D

 51 55  0  0  1  0  0  0  0  0999 V2000
  189.6870  177.2810  141.8160 C   0  0  0  0  0  3  0  0  0  0  0  0
  183.4630  178.5650  142.0030 C   0  0  0  0  0  1  0  0  0  0  0  0
  187.0820  178.2300  141.3710 C   0  0  0  0  0  0  0  0  0  0  0  0
  184.2030  178.2030  137.9630 C   0  0  0  0  0  3  0  0  0  0  0  0
  186.6160  178.0060  138.4130 C   0  0  0  0  0  0  0  0  0  0  0  0
  184.6150  178.0730  141.1620 C   0  0  1  0  0  3  0  0  0  0  0  0
  184.9070  179.0830  140.0740 C   0  0  2  0  0  3  0  0  0  0  0  0
  187.4380  177.6550  142.6050 C   0  0  0  0  0  3  0  0  0  0  0  0
  187.6930  178.6940  139.0340 N   0  0  0  0  0  2  0  0  0  0  0  0
  184.7960  176.2420  136.6110 C   0  0  0  0  0  0  0  0  0  0  0  0
  186.0060  175.9140  137.1100 C   0  0  0  0  0  0  0  0  0  0  0  0
  188.7290  177.1710  142.8300 C   0  0  0  0  0  0  0  0  0  0  0  0
  185.2280  178.3490  138.8060 C   0  0  0  0  0  0  0  0  0  0  0  0
  189.3460  177.8400  140.5810 C   0  0  0  0  0  3  0  0  0  0  0  0
  184.3390  177.6640  136.5790 C   0  0  0  0  0  2  0  0  0  0  0  0
  186.9320  176.9090  137.7090 C   0  0  0  0  0  3  0  0  0  0  0  0
  185.7940  179.0050  141.3300 C   0  0  2  0  0  3  0  0  0  0  0  0
  188.0510  178.3170  140.3530 C   0  0  0  0  0  0  0  0  0  0  0  0
  185.5330  173.5950  137.3620 F   0  0  0  0  0  0  0  0  0  0  0  0
  186.5110  174.5040  137.0040 C   0  0  1  0  0  3  0  0  0  0  0  0
  187.0770  174.1900  135.6190 C   0  0  0  0  0  2  0  0  0  0  0  0
  188.4780  174.5670  135.5000 N   0  0  0  0  0  2  0  0  0  0  0  0
  188.6710  172.0060  136.1130 O   0  0  0  0  0  0  0  0  0  0  0  0
  189.4910  173.2630  136.0530 S   0  0  0  0  0  0  0  0  0  0  0  0
  189.9980  173.5900  137.4350 O   0  0  0  0  0  0  0  0  0  0  0  0
  190.8800  172.9780  134.9680 C   0  0  0  0  0  2  0  0  0  0  0  0
  193.0990  173.6460  135.9430 C   0  0  0  0  0  0  0  0  0  0  0  0
  191.9130  173.9620  135.2170 N   0  0  0  0  0  2  0  0  0  0  0  0
  193.2670  172.4930  136.4310 O   0  0  0  0  0  0  0  0  0  0  0  0
  194.1560  174.6950  136.1100 C   0  0  1  0  0  3  0  0  0  0  0  0
  193.7140  175.9300  135.6110 O   0  0  0  0  0  0  0  0  0  0  0  0
  194.7510  176.3720  134.7830 C   0  0  0  0  0  1  0  0  0  0  0  0
  194.5630  174.8380  137.5510 C   0  0  0  0  0  0  0  0  0  0  0  0
  193.9890  175.6890  138.2840 O   0  0  0  0  0  0  0  0  0  0  0  0
  195.6780  174.0370  138.0840 C   0  0  0  0  0  0  0  0  0  0  0  0
  195.4920  173.2600  139.0560 O   0  0  0  0  0  0  0  0  0  0  0  0
  197.2890  174.1380  137.3460 S   0  0  0  0  0  3  0  0  0  0  0  0
  197.4730  175.6330  137.1090 O   0  0  0  0  0  0  0  0  0  0  0  0
  189.0390  176.6250  144.0750 O   0  0  0  0  0  0  0  0  0  0  0  0
  190.1680  177.3100  146.0810 C   0  0  0  0  0  1  0  0  0  0  0  0
  188.8710  177.3380  145.2930 C   0  0  0  0  0  2  0  0  0  0  0  0
  183.9470  175.2090  135.9200 C   0  0  0  0  0  2  0  0  0  0  0  0
  182.4600  175.4890  136.0590 C   0  0  0  0  0  2  0  0  0  0  0  0
  181.8870  174.9580  137.7080 S   0  0  0  0  0  0  0  0  0  0  0  0
  180.7170  179.6320  138.9190 C   0  0  0  0  0  1  0  0  0  0  0  0
  180.3240  176.8680  136.5740 N   0  0  0  0  0  2  0  0  0  0  0  0
  180.9050  177.2840  138.8520 C   0  0  1  0  0  3  0  0  0  0  0  0
  179.5380  178.4160  136.9380 S   0  0  0  0  0  0  0  0  0  0  0  0
  180.5600  176.2160  137.8450 C   0  0  2  0  0  3  0  0  0  0  0  0
  179.9910  178.3910  138.6540 N   0  0  0  0  0  0  0  0  0  0  0  0
  180.7320  176.7290  140.2560 C   0  0  0  0  0  1  0  0  0  0  0  0
  1 12  1  0  0  0  0
  3  8  1  0  0  0  0
  4 13  2  0  0  0  0
  5 13  1  0  0  0  0
  5  9  1  0  0  0  0
  6 17  1  0  0  0  0
  6  2  1  1  0  0  0
  7 13  1  6  0  0  0
  7  6  1  0  0  0  0
  7 17  1  0  0  0  0
  8 12  2  0  0  0  0
  9 18  1  0  0  0  0
 10 11  2  0  0  0  0
 11 16  1  0  0  0  0
 12 39  1  0  0  0  0
 14  1  2  0  0  0  0
 15 10  1  0  0  0  0
 15  4  1  0  0  0  0
 16  5  2  0  0  0  0
 17  3  1  6  0  0  0
 18 14  1  0  0  0  0
 18  3  2  0  0  0  0
 20 11  1  0  0  0  0
 20 19  1  6  0  0  0
 21 20  1  0  0  0  0
 22 21  1  0  0  0  0
 22 24  1  0  0  0  0
 24 23  2  0  0  0  0
 24 25  2  0  0  0  0
 26 28  1  0  0  0  0
 26 24  1  0  0  0  0
 27 30  1  0  0  0  0
 27 29  2  0  0  0  0
 28 27  1  0  0  0  0
 30 31  1  1  0  0  0
 30 33  1  0  0  0  0
 32 31  1  0  0  0  0
 33 35  1  0  0  0  0
 33 34  2  0  0  0  0
 35 36  2  0  0  0  0
 37 35  1  0  0  0  0
 38 37  2  0  0  0  0
 39 41  1  0  0  0  0
 41 40  1  0  0  0  0
 42 43  1  0  0  0  0
 42 10  1  0  0  0  0
 43 44  1  0  0  0  0
 46 48  1  0  0  0  0
 46 49  1  0  0  0  0
 47 51  1  1  0  0  0
 48 50  1  0  0  0  0
 49 44  1  6  0  0  0
 49 47  1  0  0  0  0
 50 47  1  0  0  0  0
 50 45  1  0  0  0  0
M  END
>  <MODEL>
5

>  <REMARK>
 VINA RESULT:      -6.7      4.399     10.048
  Name = 
  17 active torsions:
  status: ('A' for Active; 'I' for Inactive)
    1  A    between atoms: C_3  and  C_26
    2  A    between atoms: C_3  and  C_51
    3  A    between atoms: O_5  and  C_15
    4  A    between atoms: C_8  and  C_15
    5  A    between atoms: C_8  and  C_36
    6  A    between atoms: C_14  and  C_15
    7  A    between atoms: S_18  and  C_36
    8  A    between atoms: S_20  and  C_38
    9  A    between atoms: S_20  and  N_44
   10  A    between atoms: O_24  and  C_32
   11  A    between atoms: O_24  and  C_35
   12  A    between atoms: S_25  and  C_30
   13  A    between atoms: S_25  and  C_51
   14  A    between atoms: C_28  and  C_39
   15  A    between atoms: C_28  and  N_44
   16  A    between atoms: C_31  and  C_39
   17  A    between atoms: C_38  and  N_43
                            x       y       z     vdW  Elec       q    Type
                         _______ _______ _______ _____ _____    ______ ____

>  <TORSDO>
F 17

$$$$
=
 OpenBabel10222419393D

 51 55  0  0  1  0  0  0  0  0999 V2000
  185.4170  177.2980  135.3760 C   0  0  0  0  0  3  0  0  0  0  0  0
  190.0480  173.1290  136.6380 C   0  0  0  0  0  1  0  0  0  0  0  0
  187.8530  175.9950  135.8800 C   0  0  0  0  0  0  0  0  0  0  0  0
  191.1720  176.4370  138.8270 C   0  0  0  0  0  3  0  0  0  0  0  0
  189.3340  177.7350  137.8270 C   0  0  0  0  0  0  0  0  0  0  0  0
  189.3920  174.4290  137.0340 C   0  0  1  0  0  3  0  0  0  0  0  0
  190.3420  175.5730  136.7560 C   0  0  2  0  0  3  0  0  0  0  0  0
  186.7090  175.2640  135.5080 C   0  0  0  0  0  3  0  0  0  0  0  0
  188.8180  178.1490  136.5700 N   0  0  0  0  0  2  0  0  0  0  0  0
  190.1610  177.4660  140.8120 C   0  0  0  0  0  0  0  0  0  0  0  0
  188.9700  177.8830  140.3350 C   0  0  0  0  0  0  0  0  0  0  0  0
  185.4910  175.9050  135.2670 C   0  0  0  0  0  0  0  0  0  0  0  0
  190.2440  176.5660  137.8750 C   0  0  0  0  0  0  0  0  0  0  0  0
  186.5430  178.0360  135.7540 C   0  0  0  0  0  3  0  0  0  0  0  0
  191.3670  177.4200  139.9310 C   0  0  0  0  0  2  0  0  0  0  0  0
  188.7540  178.2620  138.9160 C   0  0  0  0  0  3  0  0  0  0  0  0
  189.1710  175.2760  135.8000 C   0  0  2  0  0  3  0  0  0  0  0  0
  187.7600  177.3940  136.0030 C   0  0  0  0  0  0  0  0  0  0  0  0
  188.0660  179.0330  142.2140 F   0  0  0  0  0  0  0  0  0  0  0  0
  187.8040  178.0620  141.2640 C   0  0  1  0  0  3  0  0  0  0  0  0
  186.5030  178.3580  140.5160 C   0  0  0  0  0  2  0  0  0  0  0  0
  185.3550  178.4060  141.4100 N   0  0  0  0  0  2  0  0  0  0  0  0
  182.7790  178.9870  141.3940 O   0  0  0  0  0  0  0  0  0  0  0  0
  183.8880  178.5480  140.4820 S   0  0  0  0  0  0  0  0  0  0  0  0
  183.5450  177.1990  139.9000 O   0  0  0  0  0  0  0  0  0  0  0  0
  184.0360  179.7390  139.1610 C   0  0  0  0  0  2  0  0  0  0  0  0
  181.7650  179.8780  138.0890 C   0  0  0  0  0  0  0  0  0  0  0  0
  182.7680  180.4080  138.9540 N   0  0  0  0  0  2  0  0  0  0  0  0
  181.9730  178.8150  137.4400 O   0  0  0  0  0  0  0  0  0  0  0  0
  180.4510  180.5890  137.9700 C   0  0  1  0  0  3  0  0  0  0  0  0
  180.2160  181.3920  139.0960 O   0  0  0  0  0  0  0  0  0  0  0  0
  179.2370  180.7090  139.8240 C   0  0  0  0  0  1  0  0  0  0  0  0
  180.3910  181.4230  136.7200 C   0  0  0  0  0  0  0  0  0  0  0  0
  180.5600  180.8800  135.5950 O   0  0  0  0  0  0  0  0  0  0  0  0
  180.2060  182.8810  136.8160 C   0  0  0  0  0  0  0  0  0  0  0  0
  179.0700  183.3890  136.6380 O   0  0  0  0  0  0  0  0  0  0  0  0
  181.5800  183.9350  137.2090 S   0  0  0  0  0  3  0  0  0  0  0  0
  181.2960  185.1960  136.3990 O   0  0  0  0  0  0  0  0  0  0  0  0
  184.3890  175.1410  134.8860 O   0  0  0  0  0  0  0  0  0  0  0  0
  183.3710  173.2230  135.9130 C   0  0  0  0  0  1  0  0  0  0  0  0
  183.3770  174.7360  135.7990 C   0  0  0  0  0  2  0  0  0  0  0  0
  190.3470  177.1980  142.2820 C   0  0  0  0  0  2  0  0  0  0  0  0
  190.8990  178.4010  143.0280 C   0  0  0  0  0  2  0  0  0  0  0  0
  191.6790  177.8540  144.5850 S   0  0  0  0  0  0  0  0  0  0  0  0
  188.6540  177.8930  148.5260 C   0  0  0  0  0  1  0  0  0  0  0  0
  188.9830  177.9630  144.8950 N   0  0  0  0  0  2  0  0  0  0  0  0
  190.1790  177.2690  146.8410 C   0  0  1  0  0  3  0  0  0  0  0  0
  187.7120  177.6950  146.1030 S   0  0  0  0  0  0  0  0  0  0  0  0
  190.1370  177.2060  145.3350 C   0  0  2  0  0  3  0  0  0  0  0  0
  188.8300  177.0690  147.3310 N   0  0  0  0  0  0  0  0  0  0  0  0
  191.0790  176.1620  147.3670 C   0  0  0  0  0  1  0  0  0  0  0  0
  1 14  1  0  0  0  0
  3 18  1  0  0  0  0
  4 15  1  0  0  0  0
  5 13  1  0  0  0  0
  5 16  2  0  0  0  0
  6  2  1  6  0  0  0
  7  6  1  0  0  0  0
  7 13  1  1  0  0  0
  8  3  2  0  0  0  0
  9  5  1  0  0  0  0
 10 42  1  0  0  0  0
 11 10  2  0  0  0  0
 11 20  1  0  0  0  0
 12  1  2  0  0  0  0
 12  8  1  0  0  0  0
 13  4  2  0  0  0  0
 14 18  2  0  0  0  0
 15 10  1  0  0  0  0
 16 11  1  0  0  0  0
 17  3  1  1  0  0  0
 17  7  1  0  0  0  0
 17  6  1  0  0  0  0
 18  9  1  0  0  0  0
 20 19  1  1  0  0  0
 21 20  1  0  0  0  0
 21 22  1  0  0  0  0
 24 23  2  0  0  0  0
 24 22  1  0  0  0  0
 25 24  2  0  0  0  0
 26 24  1  0  0  0  0
 27 28  1  0  0  0  0
 28 26  1  0  0  0  0
 29 27  2  0  0  0  0
 30 33  1  6  0  0  0
 30 27  1  0  0  0  0
 30 31  1  0  0  0  0
 31 32  1  0  0  0  0
 33 35  1  0  0  0  0
 34 33  2  0  0  0  0
 35 37  1  0  0  0  0
 36 35  2  0  0  0  0
 38 37  2  0  0  0  0
 39 12  1  0  0  0  0
 39 41  1  0  0  0  0
 41 40  1  0  0  0  0
 42 43  1  0  0  0  0
 43 44  1  0  0  0  0
 46 49  1  0  0  0  0
 46 48  1  0  0  0  0
 47 50  1  0  0  0  0
 47 51  1  1  0  0  0
 48 50  1  0  0  0  0
 49 44  1  6  0  0  0
 49 47  1  0  0  0  0
 50 45  1  0  0  0  0
M  END
>  <MODEL>
6

>  <REMARK>
 VINA RESULT:      -6.5      4.502      8.822
  Name = 
  17 active torsions:
  status: ('A' for Active; 'I' for Inactive)
    1  A    between atoms: C_3  and  C_26
    2  A    between atoms: C_3  and  C_51
    3  A    between atoms: O_5  and  C_15
    4  A    between atoms: C_8  and  C_15
    5  A    between atoms: C_8  and  C_36
    6  A    between atoms: C_14  and  C_15
    7  A    between atoms: S_18  and  C_36
    8  A    between atoms: S_20  and  C_38
    9  A    between atoms: S_20  and  N_44
   10  A    between atoms: O_24  and  C_32
   11  A    between atoms: O_24  and  C_35
   12  A    between atoms: S_25  and  C_30
   13  A    between atoms: S_25  and  C_51
   14  A    between atoms: C_28  and  C_39
   15  A    between atoms: C_28  and  N_44
   16  A    between atoms: C_31  and  C_39
   17  A    between atoms: C_38  and  N_43
                            x       y       z     vdW  Elec       q    Type
                         _______ _______ _______ _____ _____    ______ ____

>  <TORSDO>
F 17

$$$$
=
 OpenBabel10222419393D

 51 55  0  0  1  0  0  0  0  0999 V2000
  183.5420  177.9030  138.4610 C   0  0  0  0  0  3  0  0  0  0  0  0
  184.5800  171.8420  136.8450 C   0  0  0  0  0  1  0  0  0  0  0  0
  184.2110  175.4970  137.1750 C   0  0  0  0  0  0  0  0  0  0  0  0
  187.8760  173.7790  135.3010 C   0  0  0  0  0  3  0  0  0  0  0  0
  186.8970  175.9540  135.9140 C   0  0  0  0  0  0  0  0  0  0  0  0
  185.1770  173.2210  136.9810 C   0  0  1  0  0  3  0  0  0  0  0  0
  185.5020  173.7620  135.6070 C   0  0  2  0  0  3  0  0  0  0  0  0
  183.3650  175.5010  138.3000 C   0  0  0  0  0  3  0  0  0  0  0  0
  185.7380  176.7500  135.7110 N   0  0  0  0  0  2  0  0  0  0  0  0
  189.7660  174.8700  136.4230 C   0  0  0  0  0  0  0  0  0  0  0  0
  189.1600  175.8930  137.0610 C   0  0  0  0  0  0  0  0  0  0  0  0
  183.0370  176.6930  138.9520 C   0  0  0  0  0  0  0  0  0  0  0  0
  186.8100  174.4930  135.6720 C   0  0  0  0  0  0  0  0  0  0  0  0
  184.3910  177.9130  137.3510 C   0  0  0  0  0  3  0  0  0  0  0  0
  189.2390  174.3560  135.1220 C   0  0  0  0  0  2  0  0  0  0  0  0
  187.9160  176.5330  136.5660 C   0  0  0  0  0  3  0  0  0  0  0  0
  184.2440  174.2350  136.3580 C   0  0  2  0  0  3  0  0  0  0  0  0
  184.7260  176.7190  136.7030 C   0  0  0  0  0  0  0  0  0  0  0  0
  191.0090  177.0590  138.0020 F   0  0  0  0  0  0  0  0  0  0  0  0
  189.7820  176.4920  138.2900 C   0  0  1  0  0  3  0  0  0  0  0  0
  188.8570  177.4960  138.9800 C   0  0  0  0  0  2  0  0  0  0  0  0
  188.5830  177.1280  140.3620 N   0  0  0  0  0  2  0  0  0  0  0  0
  186.5690  178.8210  140.1340 O   0  0  0  0  0  0  0  0  0  0  0  0
  187.6040  178.3550  141.1170 S   0  0  0  0  0  0  0  0  0  0  0  0
  188.4850  179.5190  141.4960 O   0  0  0  0  0  0  0  0  0  0  0  0
  186.7660  177.7520  142.5730 C   0  0  0  0  0  2  0  0  0  0  0  0
  188.5300  177.1590  144.2650 C   0  0  0  0  0  0  0  0  0  0  0  0
  187.5460  178.0570  143.7550 N   0  0  0  0  0  2  0  0  0  0  0  0
  188.7240  176.0390  143.7140 O   0  0  0  0  0  0  0  0  0  0  0  0
  189.3450  177.5640  145.4540 C   0  0  1  0  0  3  0  0  0  0  0  0
  189.1900  176.6430  146.5010 O   0  0  0  0  0  0  0  0  0  0  0  0
  188.3060  177.2590  147.3930 C   0  0  0  0  0  1  0  0  0  0  0  0
  190.8000  177.7030  145.1010 C   0  0  0  0  0  0  0  0  0  0  0  0
  191.6760  177.1540  145.8230 O   0  0  0  0  0  0  0  0  0  0  0  0
  191.2030  178.5360  143.9560 C   0  0  0  0  0  0  0  0  0  0  0  0
  191.0230  179.7810  143.9820 O   0  0  0  0  0  0  0  0  0  0  0  0
  191.9710  177.7980  142.5350 S   0  0  0  0  0  3  0  0  0  0  0  0
  191.4890  176.3530  142.5870 O   0  0  0  0  0  0  0  0  0  0  0  0
  182.1820  176.6490  140.0530 O   0  0  0  0  0  0  0  0  0  0  0  0
  180.0200  176.2120  139.1020 C   0  0  0  0  0  1  0  0  0  0  0  0
  180.8400  177.1140  140.0060 C   0  0  0  0  0  2  0  0  0  0  0  0
  191.0840  174.3320  136.9150 C   0  0  0  0  0  2  0  0  0  0  0  0
  191.9790  173.8580  135.7830 C   0  0  0  0  0  2  0  0  0  0  0  0
  193.4180  172.9690  136.4680 S   0  0  0  0  0  0  0  0  0  0  0  0
  198.0800  174.6410  136.8570 C   0  0  0  0  0  1  0  0  0  0  0  0
  194.8440  174.9010  135.1970 N   0  0  0  0  0  2  0  0  0  0  0  0
  195.8120  174.1340  137.2410 C   0  0  1  0  0  3  0  0  0  0  0  0
  196.3340  175.8500  135.3460 S   0  0  0  0  0  0  0  0  0  0  0  0
  194.5160  174.4360  136.5290 C   0  0  2  0  0  3  0  0  0  0  0  0
  196.7380  175.2110  136.9510 N   0  0  0  0  0  0  0  0  0  0  0  0
  195.5610  174.0710  138.7390 C   0  0  0  0  0  1  0  0  0  0  0  0
  1 12  1  0  0  0  0
  3  8  1  0  0  0  0
  4 13  2  0  0  0  0
  5 16  2  0  0  0  0
  6  2  1  6  0  0  0
  7 13  1  1  0  0  0
  7 17  1  0  0  0  0
  7  6  1  0  0  0  0
  8 12  2  0  0  0  0
  9  5  1  0  0  0  0
  9 18  1  0  0  0  0
 10 42  1  0  0  0  0
 10 11  2  0  0  0  0
 11 20  1  0  0  0  0
 12 39  1  0  0  0  0
 13  5  1  0  0  0  0
 14  1  2  0  0  0  0
 15  4  1  0  0  0  0
 15 10  1  0  0  0  0
 16 11  1  0  0  0  0
 17  6  1  0  0  0  0
 17  3  1  1  0  0  0
 18  3  2  0  0  0  0
 18 14  1  0  0  0  0
 20 19  1  6  0  0  0
 20 21  1  0  0  0  0
 21 22  1  0  0  0  0
 22 24  1  0  0  0  0
 23 24  2  0  0  0  0
 24 25  2  0  0  0  0
 24 26  1  0  0  0  0
 26 28  1  0  0  0  0
 28 27  1  0  0  0  0
 29 27  2  0  0  0  0
 30 27  1  6  0  0  0
 30 31  1  0  0  0  0
 31 32  1  0  0  0  0
 33 30  1  0  0  0  0
 33 34  2  0  0  0  0
 35 36  2  0  0  0  0
 35 33  1  0  0  0  0
 37 38  2  0  0  0  0
 37 35  1  0  0  0  0
 40 41  1  0  0  0  0
 41 39  1  0  0  0  0
 43 44  1  0  0  0  0
 43 42  1  0  0  0  0
 45 50  1  0  0  0  0
 46 48  1  0  0  0  0
 46 49  1  0  0  0  0
 47 51  1  1  0  0  0
 48 50  1  0  0  0  0
 49 44  1  6  0  0  0
 49 47  1  0  0  0  0
 50 47  1  0  0  0  0
M  END
>  <MODEL>
7

>  <REMARK>
 VINA RESULT:      -6.4      1.720      2.469
  Name = 
  17 active torsions:
  status: ('A' for Active; 'I' for Inactive)
    1  A    between atoms: C_3  and  C_26
    2  A    between atoms: C_3  and  C_51
    3  A    between atoms: O_5  and  C_15
    4  A    between atoms: C_8  and  C_15
    5  A    between atoms: C_8  and  C_36
    6  A    between atoms: C_14  and  C_15
    7  A    between atoms: S_18  and  C_36
    8  A    between atoms: S_20  and  C_38
    9  A    between atoms: S_20  and  N_44
   10  A    between atoms: O_24  and  C_32
   11  A    between atoms: O_24  and  C_35
   12  A    between atoms: S_25  and  C_30
   13  A    between atoms: S_25  and  C_51
   14  A    between atoms: C_28  and  C_39
   15  A    between atoms: C_28  and  N_44
   16  A    between atoms: C_31  and  C_39
   17  A    between atoms: C_38  and  N_43
                            x       y       z     vdW  Elec       q    Type
                         _______ _______ _______ _____ _____    ______ ____

>  <TORSDO>
F 17

$$$$
=
 OpenBabel10222419393D

 51 55  0  0  1  0  0  0  0  0999 V2000
  189.1320  177.6190  142.5650 C   0  0  0  0  0  3  0  0  0  0  0  0
  183.0060  178.4040  141.0600 C   0  0  0  0  0  1  0  0  0  0  0  0
  186.6780  178.3130  141.3890 C   0  0  0  0  0  0  0  0  0  0  0  0
  184.7770  177.7720  137.3900 C   0  0  0  0  0  3  0  0  0  0  0  0
  187.0010  177.8100  138.4470 C   0  0  0  0  0  0  0  0  0  0  0  0
  184.3610  177.9400  140.5870 C   0  0  1  0  0  3  0  0  0  0  0  0
  184.8630  178.8770  139.5110 C   0  0  2  0  0  3  0  0  0  0  0  0
  186.7380  177.8730  142.7250 C   0  0  0  0  0  3  0  0  0  0  0  0
  187.8410  178.6310  139.2450 N   0  0  0  0  0  2  0  0  0  0  0  0
  185.8090  175.7620  136.4330 C   0  0  0  0  0  0  0  0  0  0  0  0
  186.8680  175.5760  137.2490 C   0  0  0  0  0  0  0  0  0  0  0  0
  187.9540  177.5150  143.3130 C   0  0  0  0  0  0  0  0  0  0  0  0
  185.5410  178.0700  138.4440 C   0  0  0  0  0  0  0  0  0  0  0  0
  189.0870  178.0450  141.2350 C   0  0  0  0  0  3  0  0  0  0  0  0
  185.2940  177.1350  136.1460 C   0  0  0  0  0  2  0  0  0  0  0  0
  187.5490  176.6880  137.9580 C   0  0  0  0  0  3  0  0  0  0  0  0
  185.4020  178.9750  140.9510 C   0  0  2  0  0  3  0  0  0  0  0  0
  187.8690  178.3950  140.6430 C   0  0  0  0  0  0  0  0  0  0  0  0
  186.5040  173.2230  137.2610 F   0  0  0  0  0  0  0  0  0  0  0  0
  187.4630  174.2070  137.4150 C   0  0  1  0  0  3  0  0  0  0  0  0
  188.6510  173.9720  136.4810 C   0  0  0  0  0  2  0  0  0  0  0  0
  189.8300  173.5090  137.1990 N   0  0  0  0  0  2  0  0  0  0  0  0
  190.8540  174.4540  134.9560 O   0  0  0  0  0  0  0  0  0  0  0  0
  191.2630  173.8640  136.2750 S   0  0  0  0  0  0  0  0  0  0  0  0
  192.0180  172.5810  136.0300 O   0  0  0  0  0  0  0  0  0  0  0  0
  192.3320  175.0280  137.1040 C   0  0  0  0  0  2  0  0  0  0  0  0
  194.5560  174.9650  138.2770 C   0  0  0  0  0  0  0  0  0  0  0  0
  193.6330  174.4320  137.3300 N   0  0  0  0  0  2  0  0  0  0  0  0
  194.2760  176.0110  138.9270 O   0  0  0  0  0  0  0  0  0  0  0  0
  195.8590  174.2620  138.5050 C   0  0  1  0  0  3  0  0  0  0  0  0
  196.2390  174.3430  139.8540 O   0  0  0  0  0  0  0  0  0  0  0  0
  197.5240  174.8940  139.8310 C   0  0  0  0  0  1  0  0  0  0  0  0
  195.7880  172.8230  138.0750 C   0  0  0  0  0  0  0  0  0  0  0  0
  195.0670  172.0110  138.7180 O   0  0  0  0  0  0  0  0  0  0  0  0
  196.6120  172.3480  136.9510 C   0  0  0  0  0  0  0  0  0  0  0  0
  197.0710  171.1780  136.9510 O   0  0  0  0  0  0  0  0  0  0  0  0
  196.9480  173.4150  135.5720 S   0  0  0  0  0  3  0  0  0  0  0  0
  195.7840  173.1410  134.6260 O   0  0  0  0  0  0  0  0  0  0  0  0
  187.9650  177.1000  144.6440 O   0  0  0  0  0  0  0  0  0  0  0  0
  188.7310  177.2270  146.9170 C   0  0  0  0  0  1  0  0  0  0  0  0
  189.1310  177.1440  145.4550 C   0  0  0  0  0  2  0  0  0  0  0  0
  185.2260  174.6100  135.6580 C   0  0  0  0  0  2  0  0  0  0  0  0
  183.7080  174.5960  135.6880 C   0  0  0  0  0  2  0  0  0  0  0  0
  183.1290  174.4670  137.4140 S   0  0  0  0  0  0  0  0  0  0  0  0
  180.4490  178.5170  138.4620 C   0  0  0  0  0  1  0  0  0  0  0  0
  181.6180  176.1680  135.9300 N   0  0  0  0  0  2  0  0  0  0  0  0
  181.2480  176.3070  138.2840 C   0  0  1  0  0  3  0  0  0  0  0  0
  180.3840  177.4310  136.0930 S   0  0  0  0  0  0  0  0  0  0  0  0
  181.5600  175.3750  137.1410 C   0  0  2  0  0  3  0  0  0  0  0  0
  180.2060  177.2140  137.8450 N   0  0  0  0  0  0  0  0  0  0  0  0
  180.7490  175.5000  139.4710 C   0  0  0  0  0  1  0  0  0  0  0  0
  1 12  1  0  0  0  0
  3  8  1  0  0  0  0
  4 13  2  0  0  0  0
  5  9  1  0  0  0  0
  6 17  1  0  0  0  0
  6  2  1  1  0  0  0
  7 13  1  6  0  0  0
  7  6  1  0  0  0  0
  7 17  1  0  0  0  0
  8 12  2  0  0  0  0
  9 18  1  0  0  0  0
 10 11  2  0  0  0  0
 11 20  1  0  0  0  0
 11 16  1  0  0  0  0
 12 39  1  0  0  0  0
 13  5  1  0  0  0  0
 14  1  2  0  0  0  0
 15 10  1  0  0  0  0
 15  4  1  0  0  0  0
 16  5  2  0  0  0  0
 17  3  1  6  0  0  0
 18 14  1  0  0  0  0
 18  3  2  0  0  0  0
 20 19  1  6  0  0  0
 21 22  1  0  0  0  0
 21 20  1  0  0  0  0
 23 24  2  0  0  0  0
 24 26  1  0  0  0  0
 24 22  1  0  0  0  0
 25 24  2  0  0  0  0
 26 28  1  0  0  0  0
 27 30  1  0  0  0  0
 27 29  2  0  0  0  0
 28 27  1  0  0  0  0
 30 33  1  1  0  0  0
 30 31  1  0  0  0  0
 32 31  1  0  0  0  0
 33 34  2  0  0  0  0
 35 36  2  0  0  0  0
 35 33  1  0  0  0  0
 37 35  1  0  0  0  0
 38 37  2  0  0  0  0
 39 41  1  0  0  0  0
 41 40  1  0  0  0  0
 42 43  1  0  0  0  0
 42 10  1  0  0  0  0
 43 44  1  0  0  0  0
 46 48  1  0  0  0  0
 46 49  1  0  0  0  0
 47 51  1  1  0  0  0
 48 50  1  0  0  0  0
 49 44  1  1  0  0  0
 49 47  1  0  0  0  0
 50 47  1  0  0  0  0
 50 45  1  0  0  0  0
M  END
>  <MODEL>
8

>  <REMARK>
 VINA RESULT:      -6.2      4.530      9.709
  Name = 
  17 active torsions:
  status: ('A' for Active; 'I' for Inactive)
    1  A    between atoms: C_3  and  C_26
    2  A    between atoms: C_3  and  C_51
    3  A    between atoms: O_5  and  C_15
    4  A    between atoms: C_8  and  C_15
    5  A    between atoms: C_8  and  C_36
    6  A    between atoms: C_14  and  C_15
    7  A    between atoms: S_18  and  C_36
    8  A    between atoms: S_20  and  C_38
    9  A    between atoms: S_20  and  N_44
   10  A    between atoms: O_24  and  C_32
   11  A    between atoms: O_24  and  C_35
   12  A    between atoms: S_25  and  C_30
   13  A    between atoms: S_25  and  C_51
   14  A    between atoms: C_28  and  C_39
   15  A    between atoms: C_28  and  N_44
   16  A    between atoms: C_31  and  C_39
   17  A    between atoms: C_38  and  N_43
                            x       y       z     vdW  Elec       q    Type
                         _______ _______ _______ _____ _____    ______ ____

>  <TORSDO>
F 17

$$$$
=
 OpenBabel10222419393D

 51 55  0  0  1  0  0  0  0  0999 V2000
  185.8180  177.1500  135.6300 C   0  0  0  0  0  3  0  0  0  0  0  0
  190.7690  173.2550  136.4840 C   0  0  0  0  0  1  0  0  0  0  0  0
  188.3560  175.9940  135.9540 C   0  0  0  0  0  0  0  0  0  0  0  0
  191.7970  176.5520  138.7380 C   0  0  0  0  0  3  0  0  0  0  0  0
  189.8270  177.7590  137.8870 C   0  0  0  0  0  0  0  0  0  0  0  0
  190.0540  174.4940  136.9640 C   0  0  1  0  0  3  0  0  0  0  0  0
  190.9110  175.7070  136.6810 C   0  0  2  0  0  3  0  0  0  0  0  0
  187.2430  175.2030  135.6150 C   0  0  0  0  0  3  0  0  0  0  0  0
  189.2170  178.1820  136.6760 N   0  0  0  0  0  2  0  0  0  0  0  0
  190.8320  177.4400  140.8120 C   0  0  0  0  0  0  0  0  0  0  0  0
  189.5930  177.7940  140.4150 C   0  0  0  0  0  0  0  0  0  0  0  0
  185.9750  175.7690  135.4630 C   0  0  0  0  0  0  0  0  0  0  0  0
  190.8110  176.6520  137.8420 C   0  0  0  0  0  0  0  0  0  0  0  0
  186.9120  177.9470  135.9760 C   0  0  0  0  0  3  0  0  0  0  0  0
  191.9890  177.5050  139.8680 C   0  0  0  0  0  2  0  0  0  0  0  0
  189.2750  178.2080  139.0250 C   0  0  0  0  0  3  0  0  0  0  0  0
  189.7120  175.3670  135.7780 C   0  0  2  0  0  3  0  0  0  0  0  0
  188.1800  177.3790  136.1360 C   0  0  0  0  0  0  0  0  0  0  0  0
  188.5740  178.9900  142.2030 F   0  0  0  0  0  0  0  0  0  0  0  0
  188.4700  177.8620  141.4100 C   0  0  1  0  0  3  0  0  0  0  0  0
  187.0960  177.7800  140.7440 C   0  0  0  0  0  2  0  0  0  0  0  0
  186.0210  177.6550  141.7190 N   0  0  0  0  0  2  0  0  0  0  0  0
  185.2590  179.7490  140.3010 O   0  0  0  0  0  0  0  0  0  0  0  0
  184.7690  178.8140  141.3690 S   0  0  0  0  0  0  0  0  0  0  0  0
  184.4700  179.6030  142.6190 O   0  0  0  0  0  0  0  0  0  0  0  0
  183.2690  178.0370  140.7910 C   0  0  0  0  0  2  0  0  0  0  0  0
  180.8530  178.7010  140.9990 C   0  0  0  0  0  0  0  0  0  0  0  0
  182.2090  179.0190  140.6920 N   0  0  0  0  0  2  0  0  0  0  0  0
  180.5280  177.5270  141.3330 O   0  0  0  0  0  0  0  0  0  0  0  0
  179.8160  179.7810  140.9360 C   0  0  1  0  0  3  0  0  0  0  0  0
  179.9650  180.6760  142.0060 O   0  0  0  0  0  0  0  0  0  0  0  0
  179.1310  180.1750  143.0110 C   0  0  0  0  0  1  0  0  0  0  0  0
  179.8770  180.5240  139.6300 C   0  0  0  0  0  0  0  0  0  0  0  0
  179.7130  181.7730  139.6110 O   0  0  0  0  0  0  0  0  0  0  0  0
  180.0580  179.7840  138.3700 C   0  0  0  0  0  0  0  0  0  0  0  0
  181.0140  180.0620  137.6020 O   0  0  0  0  0  0  0  0  0  0  0  0
  178.9430  178.4730  137.9310 S   0  0  0  0  0  3  0  0  0  0  0  0
  179.8500  177.2500  137.8600 O   0  0  0  0  0  0  0  0  0  0  0  0
  184.9050  174.9480  135.1110 O   0  0  0  0  0  0  0  0  0  0  0  0
  183.5950  174.8370  137.1210 C   0  0  0  0  0  1  0  0  0  0  0  0
  184.2870  174.0500  136.0240 C   0  0  0  0  0  2  0  0  0  0  0  0
  191.1160  177.1330  142.2590 C   0  0  0  0  0  2  0  0  0  0  0  0
  191.3460  178.3870  143.0860 C   0  0  0  0  0  2  0  0  0  0  0  0
  191.9470  177.9260  144.7460 S   0  0  0  0  0  0  0  0  0  0  0  0
  188.6660  177.7630  148.4730 C   0  0  0  0  0  1  0  0  0  0  0  0
  189.2400  178.1080  144.8900 N   0  0  0  0  0  2  0  0  0  0  0  0
  190.2810  177.2190  146.8460 C   0  0  1  0  0  3  0  0  0  0  0  0
  187.8840  177.7920  145.9870 S   0  0  0  0  0  0  0  0  0  0  0  0
  190.3380  177.2770  145.3400 C   0  0  2  0  0  3  0  0  0  0  0  0
  188.8960  177.0300  147.2300 N   0  0  0  0  0  0  0  0  0  0  0  0
  191.1080  176.0420  147.3370 C   0  0  0  0  0  1  0  0  0  0  0  0
  1 14  1  0  0  0  0
  3 18  1  0  0  0  0
  4 15  1  0  0  0  0
  5 16  2  0  0  0  0
  6  2  1  6  0  0  0
  7  6  1  0  0  0  0
  7 13  1  1  0  0  0
  8  3  2  0  0  0  0
  9  5  1  0  0  0  0
 10 42  1  0  0  0  0
 11 10  2  0  0  0  0
 11 20  1  0  0  0  0
 12  8  1  0  0  0  0
 12  1  2  0  0  0  0
 13  5  1  0  0  0  0
 13  4  2  0  0  0  0
 14 18  2  0  0  0  0
 15 10  1  0  0  0  0
 16 11  1  0  0  0  0
 17  3  1  1  0  0  0
 17  7  1  0  0  0  0
 17  6  1  0  0  0  0
 18  9  1  0  0  0  0
 20 19  1  6  0  0  0
 21 20  1  0  0  0  0
 21 22  1  0  0  0  0
 23 24  2  0  0  0  0
 24 22  1  0  0  0  0
 24 25  2  0  0  0  0
 26 24  1  0  0  0  0
 27 29  2  0  0  0  0
 28 26  1  0  0  0  0
 28 27  1  0  0  0  0
 30 33  1  6  0  0  0
 30 27  1  0  0  0  0
 30 31  1  0  0  0  0
 31 32  1  0  0  0  0
 34 33  2  0  0  0  0
 35 33  1  0  0  0  0
 36 35  2  0  0  0  0
 37 35  1  0  0  0  0
 38 37  2  0  0  0  0
 39 12  1  0  0  0  0
 39 41  1  0  0  0  0
 41 40  1  0  0  0  0
 42 43  1  0  0  0  0
 43 44  1  0  0  0  0
 46 49  1  0  0  0  0
 46 48  1  0  0  0  0
 47 50  1  0  0  0  0
 47 51  1  6  0  0  0
 48 50  1  0  0  0  0
 49 44  1  1  0  0  0
 49 47  1  0  0  0  0
 50 45  1  0  0  0  0
M  END
>  <MODEL>
9

>  <REMARK>
 VINA RESULT:      -6.1      4.008      8.272
  Name = 
  17 active torsions:
  status: ('A' for Active; 'I' for Inactive)
    1  A    between atoms: C_3  and  C_26
    2  A    between atoms: C_3  and  C_51
    3  A    between atoms: O_5  and  C_15
    4  A    between atoms: C_8  and  C_15
    5  A    between atoms: C_8  and  C_36
    6  A    between atoms: C_14  and  C_15
    7  A    between atoms: S_18  and  C_36
    8  A    between atoms: S_20  and  C_38
    9  A    between atoms: S_20  and  N_44
   10  A    between atoms: O_24  and  C_32
   11  A    between atoms: O_24  and  C_35
   12  A    between atoms: S_25  and  C_30
   13  A    between atoms: S_25  and  C_51
   14  A    between atoms: C_28  and  C_39
   15  A    between atoms: C_28  and  N_44
   16  A    between atoms: C_31  and  C_39
   17  A    between atoms: C_38  and  N_43
                            x       y       z     vdW  Elec       q    Type
                         _______ _______ _______ _____ _____    ______ ____

>  <TORSDO>
F 17

$$$$
