=
 OpenBabel10222420283D

 31 36  0  0  1  0  0  0  0  0999 V2000
  188.1890  176.3080  143.9660 N   0  0  0  0  0  0  0  0  0  0  0  0
  188.9660  175.9870  142.9900 C   0  0  0  0  0  3  0  0  0  0  0  0
  184.8260  178.5830  145.4770 C   0  0  0  0  0  0  0  0  0  0  0  0
  185.9410  178.2700  144.7590 C   0  0  0  0  0  0  0  0  0  0  0  0
  184.2140  178.8410  143.2290 C   0  0  1  0  0  3  0  0  0  0  0  0
  188.8250  178.4710  148.3950 C   0  0  0  0  0  1  0  0  0  0  0  0
  189.5650  177.1330  146.1290 S   0  0  0  0  0  0  0  0  0  0  0  0
  185.7030  178.4400  143.3110 C   0  0  0  0  0  2  0  0  0  0  0  0
  183.6790  178.9650  144.6240 C   0  0  2  0  0  3  0  0  0  0  0  0
  184.0130  180.0930  143.8460 O   0  0  0  0  0  0  0  0  0  0  0  0
  184.8220  178.4970  146.8340 N   0  0  0  0  0  0  0  0  0  0  0  0
  185.9310  178.1170  147.4840 N   0  0  0  0  0  0  0  0  0  0  0  0
  187.0740  177.8100  146.8000 C   0  0  0  0  0  0  0  0  0  0  0  0
  187.0980  177.8690  145.4210 C   0  0  0  0  0  0  0  0  0  0  0  0
  188.3320  177.3860  147.4580 C   0  0  2  0  0  3  0  0  0  0  0  0
  188.3790  177.4920  144.7750 C   0  0  2  0  0  3  0  0  0  0  0  0
  190.1430  176.8180  142.5820 C   0  0  0  0  0  2  0  0  0  0  0  0
  189.7680  177.6750  141.3900 C   0  0  0  0  0  2  0  0  0  0  0  0
  191.9110  177.4650  140.4350 O   0  0  0  0  0  0  0  0  0  0  0  0
  190.7050  177.4120  140.2510 C   0  0  0  0  0  0  0  0  0  0  0  0
  190.8030  175.8200  138.3460 C   0  0  0  0  0  2  0  0  0  0  0  0
  190.3120  175.5860  136.9560 C   0  0  0  0  0  3  0  0  0  0  0  0
  188.0320  176.3030  137.6570 C   0  0  1  0  0  3  0  0  0  0  0  0
  187.9800  177.8190  137.7850 C   0  0  1  0  0  0  0  0  0  0  0  0
  189.0370  175.8060  136.6370 C   0  0  0  0  0  0  0  0  0  0  0  0
  186.6720  178.3260  138.1590 N   0  0  0  0  0  1  0  0  0  0  0  0
  190.1830  177.1050  138.8830 C   0  0  1  0  0  3  0  0  0  0  0  0
  188.6160  175.5720  135.3360 O   0  0  0  0  0  1  0  0  0  0  0  0
  188.6450  177.0130  138.8950 C   0  0  2  0  0  3  0  0  0  0  0  0
  188.9730  179.9770  137.4650 O   0  0  0  0  0  1  0  0  0  0  0  0
  188.8320  178.7170  136.8830 C   0  0  0  0  0  2  0  0  0  0  0  0
  2  1  2  0  0  0  0
  3 11  1  0  0  0  0
  4 14  1  0  0  0  0
  4  3  2  0  0  0  0
  5  8  1  1  0  0  0
  5 10  1  0  0  0  0
  5  9  1  0  0  0  0
  7 15  1  0  0  0  0
  8  4  1  0  0  0  0
  9 10  1  1  0  0  0
  9  3  1  0  0  0  0
 11 12  2  0  0  0  0
 13 15  1  0  0  0  0
 13 12  1  0  0  0  0
 14 13  2  0  0  0  0
 15  6  1  1  0  0  0
 16  1  1  6  0  0  0
 16 14  1  0  0  0  0
 16  7  1  0  0  0  0
 17  2  1  0  0  0  0
 18 17  1  0  0  0  0
 20 19  2  0  0  0  0
 20 18  1  0  0  0  0
 21 27  1  0  0  0  0
 22 21  1  0  0  0  0
 23 25  1  6  0  0  0
 23 24  1  0  0  0  0
 23 29  1  0  0  0  0
 24 26  1  1  0  0  0
 24 29  1  0  0  0  0
 25 22  2  0  0  0  0
 27 29  1  0  0  0  0
 27 20  1  1  0  0  0
 28 25  1  0  0  0  0
 31 30  1  0  0  0  0
 31 24  1  0  0  0  0
M  END
>  <MODEL>
1

>  <REMARK>
 VINA RESULT:      -9.3      0.000      0.000
  Name = 
  6 active torsions:
  status: ('A' for Active; 'I' for Inactive)
    1  A    between atoms: C_2  and  C_5
    2  A    between atoms: C_2  and  C_10
    3  A    between atoms: N_3  and  C_31
    4  A    between atoms: C_5  and  C_14
    5  A    between atoms: C_10  and  C_25
    6  A    between atoms: C_18  and  C_19
                            x       y       z     vdW  Elec       q    Type
                         _______ _______ _______ _____ _____    ______ ____

>  <TORSDO>
F 6

$$$$
=
 OpenBabel10222420283D

 31 36  0  0  1  0  0  0  0  0999 V2000
  188.1810  176.3510  143.9630 N   0  0  0  0  0  0  0  0  0  0  0  0
  188.9370  176.0700  142.9590 C   0  0  0  0  0  3  0  0  0  0  0  0
  184.7780  178.5700  145.4680 C   0  0  0  0  0  0  0  0  0  0  0  0
  185.9010  178.2770  144.7540 C   0  0  0  0  0  0  0  0  0  0  0  0
  184.1730  178.8300  143.2180 C   0  0  1  0  0  3  0  0  0  0  0  0
  188.7640  178.5030  148.4050 C   0  0  0  0  0  1  0  0  0  0  0  0
  189.5350  177.1860  146.1360 S   0  0  0  0  0  0  0  0  0  0  0  0
  185.6670  178.4510  143.3050 C   0  0  0  0  0  2  0  0  0  0  0  0
  183.6290  178.9400  144.6110 C   0  0  2  0  0  3  0  0  0  0  0  0
  183.9510  180.0760  143.8400 O   0  0  0  0  0  0  0  0  0  0  0  0
  184.7690  178.4780  146.8240 N   0  0  0  0  0  0  0  0  0  0  0  0
  185.8800  178.1110  147.4780 N   0  0  0  0  0  0  0  0  0  0  0  0
  187.0300  177.8240  146.7980 C   0  0  0  0  0  0  0  0  0  0  0  0
  187.0600  177.8890  145.4190 C   0  0  0  0  0  0  0  0  0  0  0  0
  188.2910  177.4150  147.4600 C   0  0  2  0  0  3  0  0  0  0  0  0
  188.3500  177.5340  144.7770 C   0  0  2  0  0  3  0  0  0  0  0  0
  190.0670  176.9520  142.5220 C   0  0  0  0  0  2  0  0  0  0  0  0
  190.2680  176.8120  141.0270 C   0  0  0  0  0  2  0  0  0  0  0  0
  188.5670  178.4360  140.8990 O   0  0  0  0  0  0  0  0  0  0  0  0
  189.2480  177.6260  140.2910 C   0  0  0  0  0  0  0  0  0  0  0  0
  189.1100  178.7840  138.0970 C   0  0  0  0  0  2  0  0  0  0  0  0
  188.8260  178.5710  136.6480 C   0  0  0  0  0  3  0  0  0  0  0  0
  190.2070  176.4990  136.6970 C   0  0  1  0  0  3  0  0  0  0  0  0
  189.4300  175.3730  137.3650 C   0  0  1  0  0  0  0  0  0  0  0  0
  189.3310  177.5210  136.0010 C   0  0  0  0  0  0  0  0  0  0  0  0
  190.1530  174.1140  137.4060 N   0  0  0  0  0  1  0  0  0  0  0  0
  189.0370  177.4450  138.8200 C   0  0  1  0  0  3  0  0  0  0  0  0
  189.0500  177.3590  134.6510 O   0  0  0  0  0  1  0  0  0  0  0  0
  190.0590  176.4480  138.2430 C   0  0  2  0  0  3  0  0  0  0  0  0
  187.5600  174.4560  136.1780 O   0  0  0  0  0  1  0  0  0  0  0  0
  187.9060  175.2860  137.2450 C   0  0  0  0  0  2  0  0  0  0  0  0
  2  1  2  0  0  0  0
  3 11  1  0  0  0  0
  4 14  1  0  0  0  0
  4  3  2  0  0  0  0
  5  8  1  1  0  0  0
  5 10  1  0  0  0  0
  5  9  1  0  0  0  0
  7 15  1  0  0  0  0
  8  4  1  0  0  0  0
  9 10  1  1  0  0  0
  9  3  1  0  0  0  0
 11 12  2  0  0  0  0
 13 15  1  0  0  0  0
 13 12  1  0  0  0  0
 14 13  2  0  0  0  0
 15  6  1  1  0  0  0
 16  1  1  6  0  0  0
 16 14  1  0  0  0  0
 16  7  1  0  0  0  0
 17  2  1  0  0  0  0
 18 17  1  0  0  0  0
 20 19  2  0  0  0  0
 20 18  1  0  0  0  0
 21 27  1  0  0  0  0
 22 21  1  0  0  0  0
 23 25  1  6  0  0  0
 23 24  1  0  0  0  0
 23 29  1  0  0  0  0
 24 26  1  1  0  0  0
 24 29  1  0  0  0  0
 25 22  2  0  0  0  0
 27 20  1  1  0  0  0
 28 25  1  0  0  0  0
 29 27  1  0  0  0  0
 30 31  1  0  0  0  0
 31 24  1  0  0  0  0
M  END
>  <MODEL>
2

>  <REMARK>
 VINA RESULT:      -9.1      1.503      2.136
  Name = 
  6 active torsions:
  status: ('A' for Active; 'I' for Inactive)
    1  A    between atoms: C_2  and  C_5
    2  A    between atoms: C_2  and  C_10
    3  A    between atoms: N_3  and  C_31
    4  A    between atoms: C_5  and  C_14
    5  A    between atoms: C_10  and  C_25
    6  A    between atoms: C_18  and  C_19
                            x       y       z     vdW  Elec       q    Type
                         _______ _______ _______ _____ _____    ______ ____

>  <TORSDO>
F 6

$$$$
=
 OpenBabel10222420283D

 31 36  0  0  1  0  0  0  0  0999 V2000
  188.2990  176.4200  143.9110 N   0  0  0  0  0  0  0  0  0  0  0  0
  188.7890  176.3330  142.7230 C   0  0  0  0  0  3  0  0  0  0  0  0
  184.8790  178.5570  145.4960 C   0  0  0  0  0  0  0  0  0  0  0  0
  186.0010  178.2960  144.7670 C   0  0  0  0  0  0  0  0  0  0  0  0
  184.2530  178.8630  143.2580 C   0  0  1  0  0  3  0  0  0  0  0  0
  188.8900  178.4710  148.3990 C   0  0  0  0  0  1  0  0  0  0  0  0
  189.6590  177.2190  146.0930 S   0  0  0  0  0  0  0  0  0  0  0  0
  185.7530  178.5010  143.3240 C   0  0  0  0  0  2  0  0  0  0  0  0
  183.7190  178.9330  144.6570 C   0  0  2  0  0  3  0  0  0  0  0  0
  184.0210  180.0910  143.9120 O   0  0  0  0  0  0  0  0  0  0  0  0
  184.8830  178.4320  146.8500 N   0  0  0  0  0  0  0  0  0  0  0  0
  186.0040  178.0640  147.4860 N   0  0  0  0  0  0  0  0  0  0  0  0
  187.1520  177.8080  146.7910 C   0  0  0  0  0  0  0  0  0  0  0  0
  187.1700  177.9080  145.4130 C   0  0  0  0  0  0  0  0  0  0  0  0
  188.4240  177.4000  147.4320 C   0  0  2  0  0  3  0  0  0  0  0  0
  188.4590  177.5840  144.7530 C   0  0  2  0  0  3  0  0  0  0  0  0
  189.5680  177.4410  142.0840 C   0  0  0  0  0  2  0  0  0  0  0  0
  189.6000  177.2360  140.5830 C   0  0  0  0  0  2  0  0  0  0  0  0
  191.9130  177.6030  140.8360 O   0  0  0  0  0  0  0  0  0  0  0  0
  191.0160  177.2380  140.0930 C   0  0  0  0  0  0  0  0  0  0  0  0
  192.8480  176.6310  138.5290 C   0  0  0  0  0  2  0  0  0  0  0  0
  193.1410  176.2810  137.1080 C   0  0  0  0  0  3  0  0  0  0  0  0
  191.1500  174.7840  137.0820 C   0  0  1  0  0  3  0  0  0  0  0  0
  189.8780  175.6130  136.9720 C   0  0  1  0  0  0  0  0  0  0  0  0
  192.3620  175.4300  136.4410 C   0  0  0  0  0  0  0  0  0  0  0  0
  188.6670  174.8150  136.9170 N   0  0  0  0  0  1  0  0  0  0  0  0
  191.3450  176.8170  138.6950 C   0  0  1  0  0  3  0  0  0  0  0  0
  192.6690  175.1240  135.1220 O   0  0  0  0  0  1  0  0  0  0  0  0
  190.5840  175.5310  138.3210 C   0  0  2  0  0  3  0  0  0  0  0  0
  189.5000  176.7110  134.8750 O   0  0  0  0  0  1  0  0  0  0  0  0
  189.8630  176.9370  136.2030 C   0  0  0  0  0  2  0  0  0  0  0  0
  2  1  2  0  0  0  0
  3 11  1  0  0  0  0
  4 14  1  0  0  0  0
  4  3  2  0  0  0  0
  5  8  1  1  0  0  0
  5 10  1  0  0  0  0
  5  9  1  0  0  0  0
  7 15  1  0  0  0  0
  8  4  1  0  0  0  0
  9 10  1  1  0  0  0
  9  3  1  0  0  0  0
 11 12  2  0  0  0  0
 13 15  1  0  0  0  0
 13 12  1  0  0  0  0
 14 13  2  0  0  0  0
 15  6  1  1  0  0  0
 16  1  1  6  0  0  0
 16 14  1  0  0  0  0
 16  7  1  0  0  0  0
 17  2  1  0  0  0  0
 18 17  1  0  0  0  0
 20 18  1  0  0  0  0
 20 19  2  0  0  0  0
 21 27  1  0  0  0  0
 22 21  1  0  0  0  0
 23 25  1  6  0  0  0
 23 29  1  0  0  0  0
 24 26  1  6  0  0  0
 24 23  1  0  0  0  0
 24 29  1  0  0  0  0
 25 22  2  0  0  0  0
 27 20  1  1  0  0  0
 28 25  1  0  0  0  0
 29 27  1  0  0  0  0
 30 31  1  0  0  0  0
 31 24  1  0  0  0  0
M  END
>  <MODEL>
3

>  <REMARK>
 VINA RESULT:      -8.6      1.418      1.911
  Name = 
  6 active torsions:
  status: ('A' for Active; 'I' for Inactive)
    1  A    between atoms: C_2  and  C_5
    2  A    between atoms: C_2  and  C_10
    3  A    between atoms: N_3  and  C_31
    4  A    between atoms: C_5  and  C_14
    5  A    between atoms: C_10  and  C_25
    6  A    between atoms: C_18  and  C_19
                            x       y       z     vdW  Elec       q    Type
                         _______ _______ _______ _____ _____    ______ ____

>  <TORSDO>
F 6

$$$$
=
 OpenBabel10222420283D

 31 36  0  0  1  0  0  0  0  0999 V2000
  188.2280  176.3830  143.8970 N   0  0  0  0  0  0  0  0  0  0  0  0
  188.7490  176.2640  142.7250 C   0  0  0  0  0  3  0  0  0  0  0  0
  184.8240  178.5460  145.4790 C   0  0  0  0  0  0  0  0  0  0  0  0
  185.9400  178.2730  144.7460 C   0  0  0  0  0  0  0  0  0  0  0  0
  184.1850  178.8290  143.2420 C   0  0  1  0  0  3  0  0  0  0  0  0
  188.8520  178.4810  148.3590 C   0  0  0  0  0  1  0  0  0  0  0  0
  189.6030  177.2020  146.0620 S   0  0  0  0  0  0  0  0  0  0  0  0
  185.6840  178.4640  143.3030 C   0  0  0  0  0  2  0  0  0  0  0  0
  183.6600  178.9150  144.6430 C   0  0  2  0  0  3  0  0  0  0  0  0
  183.9590  180.0650  143.8840 O   0  0  0  0  0  0  0  0  0  0  0  0
  184.8350  178.4350  146.8340 N   0  0  0  0  0  0  0  0  0  0  0  0
  185.9590  178.0710  147.4680 N   0  0  0  0  0  0  0  0  0  0  0  0
  187.1020  177.8050  146.7680 C   0  0  0  0  0  0  0  0  0  0  0  0
  187.1120  177.8890  145.3900 C   0  0  0  0  0  0  0  0  0  0  0  0
  188.3760  177.4010  147.4070 C   0  0  2  0  0  3  0  0  0  0  0  0
  188.3960  177.5560  144.7250 C   0  0  2  0  0  3  0  0  0  0  0  0
  189.5760  177.3400  142.0920 C   0  0  0  0  0  2  0  0  0  0  0  0
  189.4060  177.2880  140.5870 C   0  0  0  0  0  2  0  0  0  0  0  0
  191.7450  177.4800  140.3910 O   0  0  0  0  0  0  0  0  0  0  0  0
  190.7210  177.0020  139.9300 C   0  0  0  0  0  0  0  0  0  0  0  0
  189.4110  175.9520  138.0990 C   0  0  0  0  0  2  0  0  0  0  0  0
  189.5190  175.0440  136.9190 C   0  0  0  0  0  3  0  0  0  0  0  0
  191.6050  176.2160  136.2280 C   0  0  1  0  0  3  0  0  0  0  0  0
  192.7660  175.7710  137.1060 C   0  0  1  0  0  0  0  0  0  0  0  0
  190.5260  175.1650  136.0550 C   0  0  0  0  0  0  0  0  0  0  0  0
  194.0330  176.3830  136.7470 N   0  0  0  0  0  1  0  0  0  0  0  0
  190.7970  176.1520  138.7000 C   0  0  1  0  0  3  0  0  0  0  0  0
  190.5900  174.3070  134.9670 O   0  0  0  0  0  1  0  0  0  0  0  0
  191.7620  176.7690  137.6710 C   0  0  2  0  0  3  0  0  0  0  0  0
  193.5790  173.5330  136.8300 O   0  0  0  0  0  1  0  0  0  0  0  0
  192.8270  174.3500  137.6740 C   0  0  0  0  0  2  0  0  0  0  0  0
  2  1  2  0  0  0  0
  3 11  1  0  0  0  0
  4 14  1  0  0  0  0
  4  3  2  0  0  0  0
  5  8  1  1  0  0  0
  5 10  1  0  0  0  0
  5  9  1  0  0  0  0
  7 15  1  0  0  0  0
  8  4  1  0  0  0  0
  9 10  1  1  0  0  0
  9  3  1  0  0  0  0
 11 12  2  0  0  0  0
 13 15  1  0  0  0  0
 13 12  1  0  0  0  0
 14 13  2  0  0  0  0
 15  6  1  1  0  0  0
 16  1  1  6  0  0  0
 16 14  1  0  0  0  0
 16  7  1  0  0  0  0
 17  2  1  0  0  0  0
 18 17  1  0  0  0  0
 20 19  2  0  0  0  0
 20 18  1  0  0  0  0
 21 27  1  0  0  0  0
 22 21  1  0  0  0  0
 23 25  1  1  0  0  0
 23 24  1  0  0  0  0
 23 29  1  0  0  0  0
 24 26  1  6  0  0  0
 24 29  1  0  0  0  0
 24 31  1  0  0  0  0
 25 22  2  0  0  0  0
 27 20  1  1  0  0  0
 28 25  1  0  0  0  0
 29 27  1  0  0  0  0
 30 31  1  0  0  0  0
M  END
>  <MODEL>
4

>  <REMARK>
 VINA RESULT:      -8.5      1.967      2.709
  Name = 
  6 active torsions:
  status: ('A' for Active; 'I' for Inactive)
    1  A    between atoms: C_2  and  C_5
    2  A    between atoms: C_2  and  C_10
    3  A    between atoms: N_3  and  C_31
    4  A    between atoms: C_5  and  C_14
    5  A    between atoms: C_10  and  C_25
    6  A    between atoms: C_18  and  C_19
                            x       y       z     vdW  Elec       q    Type
                         _______ _______ _______ _____ _____    ______ ____

>  <TORSDO>
F 6

$$$$
=
 OpenBabel10222420283D

 31 36  0  0  1  0  0  0  0  0999 V2000
  184.5790  179.7750  143.2990 N   0  0  0  0  0  0  0  0  0  0  0  0
  184.8690  179.6120  144.5440 C   0  0  0  0  0  3  0  0  0  0  0  0
  180.6080  179.0320  141.7350 C   0  0  0  0  0  0  0  0  0  0  0  0
  181.7630  178.8510  142.4350 C   0  0  0  0  0  0  0  0  0  0  0  0
  179.9520  178.8260  143.9760 C   0  0  1  0  0  3  0  0  0  0  0  0
  184.3550  177.9150  138.6960 C   0  0  0  0  0  1  0  0  0  0  0  0
  185.5460  178.6900  141.0320 S   0  0  0  0  0  0  0  0  0  0  0  0
  181.4840  178.6580  143.8730 C   0  0  0  0  0  2  0  0  0  0  0  0
  179.4040  179.0260  142.5950 C   0  0  2  0  0  3  0  0  0  0  0  0
  179.3020  177.7930  143.2700 O   0  0  0  0  0  0  0  0  0  0  0  0
  180.6310  179.2280  140.3890 N   0  0  0  0  0  0  0  0  0  0  0  0
  181.7990  179.2290  139.7320 N   0  0  0  0  0  0  0  0  0  0  0  0
  182.9770  179.0350  140.3980 C   0  0  0  0  0  0  0  0  0  0  0  0
  182.9830  178.8540  141.7670 C   0  0  0  0  0  0  0  0  0  0  0  0
  184.3000  179.0220  139.7320 C   0  0  2  0  0  3  0  0  0  0  0  0
  184.3160  178.6780  142.3950 C   0  0  2  0  0  3  0  0  0  0  0  0
  184.9510  178.2630  145.1870 C   0  0  0  0  0  2  0  0  0  0  0  0
  186.2150  178.1750  146.0180 C   0  0  0  0  0  2  0  0  0  0  0  0
  187.1590  177.3800  144.0120 O   0  0  0  0  0  0  0  0  0  0  0  0
  187.3600  177.7150  145.1680 C   0  0  0  0  0  0  0  0  0  0  0  0
  188.7260  177.1270  147.1580 C   0  0  0  0  0  2  0  0  0  0  0  0
  190.1180  177.1340  147.6990 C   0  0  0  0  0  3  0  0  0  0  0  0
  190.9540  176.2760  145.5150 C   0  0  1  0  0  3  0  0  0  0  0  0
  190.9820  177.4020  144.4910 C   0  0  1  0  0  0  0  0  0  0  0  0
  191.1440  176.7410  146.9450 C   0  0  0  0  0  0  0  0  0  0  0  0
  191.4910  176.9950  143.1930 N   0  0  0  0  0  1  0  0  0  0  0  0
  188.7480  177.6410  145.7240 C   0  0  1  0  0  3  0  0  0  0  0  0
  192.4230  176.7550  147.4840 O   0  0  0  0  0  1  0  0  0  0  0  0
  189.6440  176.7580  144.8340 C   0  0  2  0  0  3  0  0  0  0  0  0
  190.9560  179.7160  143.8660 O   0  0  0  0  0  1  0  0  0  0  0  0
  191.2600  178.8470  144.9140 C   0  0  0  0  0  2  0  0  0  0  0  0
  1  2  2  0  0  0  0
  2 17  1  0  0  0  0
  3  4  1  0  0  0  0
  4  8  1  0  0  0  0
  5  8  1  6  0  0  0
  7 16  1  0  0  0  0
  9  3  1  6  0  0  0
  9 10  1  0  0  0  0
  9  5  1  0  0  0  0
 10  5  1  0  0  0  0
 11  3  2  0  0  0  0
 12 11  1  0  0  0  0
 12 13  2  0  0  0  0
 13 14  1  0  0  0  0
 14 16  1  0  0  0  0
 14  4  2  0  0  0  0
 15  6  1  6  0  0  0
 15 13  1  0  0  0  0
 15  7  1  0  0  0  0
 16  1  1  1  0  0  0
 17 18  1  0  0  0  0
 19 20  2  0  0  0  0
 20 18  1  0  0  0  0
 21 22  1  0  0  0  0
 23 25  1  1  0  0  0
 24 26  1  6  0  0  0
 24 29  1  0  0  0  0
 24 31  1  0  0  0  0
 24 23  1  0  0  0  0
 25 28  1  0  0  0  0
 25 22  2  0  0  0  0
 27 20  1  6  0  0  0
 27 21  1  0  0  0  0
 29 23  1  0  0  0  0
 29 27  1  0  0  0  0
 30 31  1  0  0  0  0
M  END
>  <MODEL>
5

>  <REMARK>
 VINA RESULT:      -8.4      4.225      7.368
  Name = 
  6 active torsions:
  status: ('A' for Active; 'I' for Inactive)
    1  A    between atoms: C_2  and  C_5
    2  A    between atoms: C_2  and  C_10
    3  A    between atoms: N_3  and  C_31
    4  A    between atoms: C_5  and  C_14
    5  A    between atoms: C_10  and  C_25
    6  A    between atoms: C_18  and  C_19
                            x       y       z     vdW  Elec       q    Type
                         _______ _______ _______ _____ _____    ______ ____

>  <TORSDO>
F 6

$$$$
=
 OpenBabel10222420283D

 31 36  0  0  1  0  0  0  0  0999 V2000
  184.5590  179.2350  140.9140 N   0  0  0  0  0  0  0  0  0  0  0  0
  184.8300  179.0170  139.6730 C   0  0  0  0  0  3  0  0  0  0  0  0
  185.5350  178.4630  145.0640 C   0  0  0  0  0  0  0  0  0  0  0  0
  185.3490  178.2490  143.7300 C   0  0  0  0  0  0  0  0  0  0  0  0
  187.6060  177.7190  144.2570 C   0  0  1  0  0  3  0  0  0  0  0  0
  180.7110  178.3930  143.9440 C   0  0  0  0  0  1  0  0  0  0  0  0
  181.9870  178.7610  141.5540 S   0  0  0  0  0  0  0  0  0  0  0  0
  186.5800  177.7260  143.1030 C   0  0  0  0  0  2  0  0  0  0  0  0
  186.9110  178.1560  145.5120 C   0  0  2  0  0  3  0  0  0  0  0  0
  187.2100  176.8030  145.2530 O   0  0  0  0  0  0  0  0  0  0  0  0
  184.5270  178.9450  145.8390 N   0  0  0  0  0  0  0  0  0  0  0  0
  183.3280  179.1990  145.2990 N   0  0  0  0  0  0  0  0  0  0  0  0
  183.0980  178.9830  143.9690 C   0  0  0  0  0  0  0  0  0  0  0  0
  184.1100  178.5140  143.1540 C   0  0  0  0  0  0  0  0  0  0  0  0
  181.7970  179.2410  143.3100 C   0  0  2  0  0  3  0  0  0  0  0  0
  183.7650  178.3370  141.7220 C   0  0  2  0  0  3  0  0  0  0  0  0
  184.3610  177.7970  138.9430 C   0  0  0  0  0  2  0  0  0  0  0  0
  184.8790  177.8310  137.5190 C   0  0  0  0  0  2  0  0  0  0  0  0
  185.0190  175.5840  136.8240 O   0  0  0  0  0  0  0  0  0  0  0  0
  185.6260  176.5690  137.2130 C   0  0  0  0  0  0  0  0  0  0  0  0
  187.6600  175.2020  136.8010 C   0  0  0  0  0  2  0  0  0  0  0  0
  189.1270  175.1300  137.0660 C   0  0  0  0  0  3  0  0  0  0  0  0
  189.3250  177.5570  136.5430 C   0  0  1  0  0  3  0  0  0  0  0  0
  188.8090  178.3840  137.7120 C   0  0  1  0  0  0  0  0  0  0  0  0
  189.8960  176.2120  136.9460 C   0  0  0  0  0  0  0  0  0  0  0  0
  188.9190  179.8170  137.5030 N   0  0  0  0  0  1  0  0  0  0  0  0
  187.1100  176.4920  137.3980 C   0  0  1  0  0  3  0  0  0  0  0  0
  191.2570  176.1050  137.1950 O   0  0  0  0  0  1  0  0  0  0  0  0
  187.7990  177.7240  136.7810 C   0  0  2  0  0  3  0  0  0  0  0  0
  188.2180  178.7080  140.0120 O   0  0  0  0  0  1  0  0  0  0  0  0
  188.9510  177.8880  139.1530 C   0  0  0  0  0  2  0  0  0  0  0  0
  2  1  2  0  0  0  0
  3 11  1  0  0  0  0
  4  3  2  0  0  0  0
  5  8  1  6  0  0  0
  5 10  1  0  0  0  0
  5  9  1  0  0  0  0
  7 16  1  0  0  0  0
  7 15  1  0  0  0  0
  8  4  1  0  0  0  0
  9  3  1  6  0  0  0
 10  9  1  0  0  0  0
 12 11  2  0  0  0  0
 13 12  1  0  0  0  0
 14  4  1  0  0  0  0
 14 13  2  0  0  0  0
 15  6  1  1  0  0  0
 15 13  1  0  0  0  0
 16  1  1  6  0  0  0
 16 14  1  0  0  0  0
 17  2  1  0  0  0  0
 18 17  1  0  0  0  0
 19 20  2  0  0  0  0
 20 18  1  0  0  0  0
 21 22  1  0  0  0  0
 21 27  1  0  0  0  0
 23 29  1  0  0  0  0
 23 25  1  1  0  0  0
 23 24  1  0  0  0  0
 24 26  1  6  0  0  0
 24 31  1  0  0  0  0
 25 22  2  0  0  0  0
 25 28  1  0  0  0  0
 27 20  1  6  0  0  0
 29 27  1  0  0  0  0
 29 24  1  0  0  0  0
 31 30  1  0  0  0  0
M  END
>  <MODEL>
6

>  <REMARK>
 VINA RESULT:      -8.3      2.777      4.729
  Name = 
  6 active torsions:
  status: ('A' for Active; 'I' for Inactive)
    1  A    between atoms: C_2  and  C_5
    2  A    between atoms: C_2  and  C_10
    3  A    between atoms: N_3  and  C_31
    4  A    between atoms: C_5  and  C_14
    5  A    between atoms: C_10  and  C_25
    6  A    between atoms: C_18  and  C_19
                            x       y       z     vdW  Elec       q    Type
                         _______ _______ _______ _____ _____    ______ ____

>  <TORSDO>
F 6

$$$$
=
 OpenBabel10222420283D

 31 36  0  0  1  0  0  0  0  0999 V2000
  187.2580  176.8700  143.2770 N   0  0  0  0  0  0  0  0  0  0  0  0
  186.0570  177.3350  143.3080 C   0  0  0  0  0  3  0  0  0  0  0  0
  190.0610  177.0500  146.5760 C   0  0  0  0  0  0  0  0  0  0  0  0
  189.1130  177.4410  145.6780 C   0  0  0  0  0  0  0  0  0  0  0  0
  188.2320  177.7500  147.8640 C   0  0  1  0  0  3  0  0  0  0  0  0
  192.0240  177.5810  142.0600 C   0  0  0  0  0  1  0  0  0  0  0  0
  189.3250  177.4310  141.6450 S   0  0  0  0  0  0  0  0  0  0  0  0
  187.9120  177.9560  146.3670 C   0  0  0  0  0  2  0  0  0  0  0  0
  189.6250  177.2060  147.9810 C   0  0  2  0  0  3  0  0  0  0  0  0
  189.3240  178.5590  148.2430 O   0  0  0  0  0  0  0  0  0  0  0  0
  191.2510  176.5440  146.1570 N   0  0  0  0  0  0  0  0  0  0  0  0
  191.5120  176.4390  144.8470 N   0  0  0  0  0  0  0  0  0  0  0  0
  190.5930  176.8350  143.9160 C   0  0  0  0  0  0  0  0  0  0  0  0
  189.3680  177.3340  144.3140 C   0  0  0  0  0  0  0  0  0  0  0  0
  190.8190  176.7480  142.4550 C   0  0  2  0  0  3  0  0  0  0  0  0
  188.4330  177.7110  143.2250 C   0  0  2  0  0  3  0  0  0  0  0  0
  185.7540  178.8020  143.3080 C   0  0  0  0  0  2  0  0  0  0  0  0
  184.3130  179.0200  142.8950 C   0  0  0  0  0  2  0  0  0  0  0  0
  185.1600  179.4550  140.7410 O   0  0  0  0  0  0  0  0  0  0  0  0
  184.2070  179.0750  141.4010 C   0  0  0  0  0  0  0  0  0  0  0  0
  183.0020  177.2400  140.2380 C   0  0  0  0  0  2  0  0  0  0  0  0
  181.7510  176.9160  139.4910 C   0  0  0  0  0  3  0  0  0  0  0  0
  180.4310  178.1820  141.1820 C   0  0  1  0  0  3  0  0  0  0  0  0
  180.5870  179.6780  140.9480 C   0  0  1  0  0  0  0  0  0  0  0  0
  180.5670  177.3460  139.9250 C   0  0  0  0  0  0  0  0  0  0  0  0
  179.8210  180.4940  141.8730 N   0  0  0  0  0  1  0  0  0  0  0  0
  182.9390  178.6890  140.7070 C   0  0  1  0  0  3  0  0  0  0  0  0
  179.4240  177.0200  139.2070 O   0  0  0  0  0  1  0  0  0  0  0  0
  181.7240  178.9210  141.6250 C   0  0  2  0  0  3  0  0  0  0  0  0
  180.3340  181.5600  139.4860 O   0  0  0  0  0  1  0  0  0  0  0  0
  180.7840  180.2410  139.5380 C   0  0  0  0  0  2  0  0  0  0  0  0
  1  2  2  0  0  0  0
  4  8  1  0  0  0  0
  4  3  2  0  0  0  0
  5  8  1  6  0  0  0
  5  9  1  0  0  0  0
  5 10  1  0  0  0  0
  7 15  1  0  0  0  0
  7 16  1  0  0  0  0
  9  3  1  6  0  0  0
  9 10  1  0  0  0  0
 11  3  1  0  0  0  0
 12 11  2  0  0  0  0
 13 14  2  0  0  0  0
 13 12  1  0  0  0  0
 14  4  1  0  0  0  0
 15  6  1  1  0  0  0
 15 13  1  0  0  0  0
 16  1  1  6  0  0  0
 16 14  1  0  0  0  0
 17  2  1  0  0  0  0
 18 17  1  0  0  0  0
 19 20  2  0  0  0  0
 20 18  1  0  0  0  0
 21 27  1  0  0  0  0
 22 25  2  0  0  0  0
 22 21  1  0  0  0  0
 23 25  1  6  0  0  0
 23 29  1  0  0  0  0
 24 23  1  0  0  0  0
 24 29  1  0  0  0  0
 24 26  1  1  0  0  0
 27 20  1  1  0  0  0
 27 29  1  0  0  0  0
 28 25  1  0  0  0  0
 30 31  1  0  0  0  0
 31 24  1  0  0  0  0
M  END
>  <MODEL>
7

>  <REMARK>
 VINA RESULT:      -8.0      3.938      6.710
  Name = 
  6 active torsions:
  status: ('A' for Active; 'I' for Inactive)
    1  A    between atoms: C_2  and  C_5
    2  A    between atoms: C_2  and  C_10
    3  A    between atoms: N_3  and  C_31
    4  A    between atoms: C_5  and  C_14
    5  A    between atoms: C_10  and  C_25
    6  A    between atoms: C_18  and  C_19
                            x       y       z     vdW  Elec       q    Type
                         _______ _______ _______ _____ _____    ______ ____

>  <TORSDO>
F 6

$$$$
=
 OpenBabel10222420283D

 31 36  0  0  1  0  0  0  0  0999 V2000
  186.1810  179.1750  142.0950 N   0  0  0  0  0  0  0  0  0  0  0  0
  185.5760  179.2640  140.9610 C   0  0  0  0  0  3  0  0  0  0  0  0
  189.2970  177.0580  144.2350 C   0  0  0  0  0  0  0  0  0  0  0  0
  188.2510  177.2870  143.3920 C   0  0  0  0  0  0  0  0  0  0  0  0
  190.0380  176.3670  142.1220 C   0  0  1  0  0  3  0  0  0  0  0  0
  185.1290  177.8860  146.7780 C   0  0  0  0  0  1  0  0  0  0  0  0
  184.6200  178.8230  144.2610 S   0  0  0  0  0  0  0  0  0  0  0  0
  188.5730  176.8450  142.0190 C   0  0  0  0  0  2  0  0  0  0  0  0
  190.4720  176.4730  143.5530 C   0  0  2  0  0  3  0  0  0  0  0  0
  190.1220  175.2400  142.9660 O   0  0  0  0  0  0  0  0  0  0  0  0
  189.2160  177.3890  145.5510 N   0  0  0  0  0  0  0  0  0  0  0  0
  188.0930  177.9330  146.0390 N   0  0  0  0  0  0  0  0  0  0  0  0
  187.0170  178.1630  145.2270 C   0  0  0  0  0  0  0  0  0  0  0  0
  187.0800  177.8560  143.8820 C   0  0  0  0  0  0  0  0  0  0  0  0
  185.7470  178.7590  145.7020 C   0  0  2  0  0  3  0  0  0  0  0  0
  185.8690  178.1690  143.0850 C   0  0  2  0  0  3  0  0  0  0  0  0
  184.4910  178.3190  140.5450 C   0  0  0  0  0  2  0  0  0  0  0  0
  184.0800  178.6210  139.1180 C   0  0  0  0  0  2  0  0  0  0  0  0
  183.3950  176.5320  138.2710 O   0  0  0  0  0  0  0  0  0  0  0  0
  184.2510  177.4010  138.2640 C   0  0  0  0  0  0  0  0  0  0  0  0
  185.0880  177.0550  135.9500 C   0  0  0  0  0  2  0  0  0  0  0  0
  186.3240  176.8110  135.1490 C   0  0  0  0  0  3  0  0  0  0  0  0
  187.5150  178.5410  136.4880 C   0  0  1  0  0  3  0  0  0  0  0  0
  187.8800  177.9800  137.8550 C   0  0  1  0  0  0  0  0  0  0  0  0
  187.4410  177.4950  135.3930 C   0  0  0  0  0  0  0  0  0  0  0  0
  188.6100  178.9160  138.6910 N   0  0  0  0  0  1  0  0  0  0  0  0
  185.4720  177.2240  137.4160 C   0  0  1  0  0  3  0  0  0  0  0  0
  188.5690  177.2450  134.6240 O   0  0  0  0  0  1  0  0  0  0  0  0
  186.4400  178.4080  137.6010 C   0  0  2  0  0  3  0  0  0  0  0  0
  189.5940  176.3130  138.0240 O   0  0  0  0  0  1  0  0  0  0  0  0
  188.2110  176.4960  138.0360 C   0  0  0  0  0  2  0  0  0  0  0  0
  2  1  2  0  0  0  0
  3 11  1  0  0  0  0
  4 14  1  0  0  0  0
  4  3  2  0  0  0  0
  5  8  1  1  0  0  0
  5 10  1  0  0  0  0
  5  9  1  0  0  0  0
  7 15  1  0  0  0  0
  8  4  1  0  0  0  0
  9 10  1  1  0  0  0
  9  3  1  0  0  0  0
 11 12  2  0  0  0  0
 13 15  1  0  0  0  0
 13 12  1  0  0  0  0
 14 13  2  0  0  0  0
 15  6  1  1  0  0  0
 16  1  1  6  0  0  0
 16 14  1  0  0  0  0
 16  7  1  0  0  0  0
 17  2  1  0  0  0  0
 18 17  1  0  0  0  0
 20 19  2  0  0  0  0
 20 18  1  0  0  0  0
 21 27  1  0  0  0  0
 22 25  2  0  0  0  0
 22 21  1  0  0  0  0
 23 25  1  6  0  0  0
 23 29  1  0  0  0  0
 23 24  1  0  0  0  0
 24 31  1  0  0  0  0
 24 26  1  1  0  0  0
 27 29  1  0  0  0  0
 27 20  1  1  0  0  0
 28 25  1  0  0  0  0
 29 24  1  0  0  0  0
 30 31  1  0  0  0  0
M  END
>  <MODEL>
8

>  <REMARK>
 VINA RESULT:      -7.8      2.678      4.689
  Name = 
  6 active torsions:
  status: ('A' for Active; 'I' for Inactive)
    1  A    between atoms: C_2  and  C_5
    2  A    between atoms: C_2  and  C_10
    3  A    between atoms: N_3  and  C_31
    4  A    between atoms: C_5  and  C_14
    5  A    between atoms: C_10  and  C_25
    6  A    between atoms: C_18  and  C_19
                            x       y       z     vdW  Elec       q    Type
                         _______ _______ _______ _____ _____    ______ ____

>  <TORSDO>
F 6

$$$$
=
 OpenBabel10222420283D

 31 36  0  0  1  0  0  0  0  0999 V2000
  186.0470  179.1010  144.0270 N   0  0  0  0  0  0  0  0  0  0  0  0
  184.9620  179.2600  143.3500 C   0  0  0  0  0  3  0  0  0  0  0  0
  189.9210  177.1690  144.2000 C   0  0  0  0  0  0  0  0  0  0  0  0
  188.5930  177.3560  143.9580 C   0  0  0  0  0  0  0  0  0  0  0  0
  189.6470  176.8030  141.9010 C   0  0  1  0  0  3  0  0  0  0  0  0
  187.3490  177.2020  148.4310 C   0  0  0  0  0  1  0  0  0  0  0  0
  185.6820  178.3310  146.5810 S   0  0  0  0  0  0  0  0  0  0  0  0
  188.2730  177.1050  142.5380 C   0  0  0  0  0  2  0  0  0  0  0  0
  190.6840  176.8090  142.9840 C   0  0  2  0  0  3  0  0  0  0  0  0
  190.1790  175.6120  142.4370 O   0  0  0  0  0  0  0  0  0  0  0  0
  190.4350  177.3460  145.4460 N   0  0  0  0  0  0  0  0  0  0  0  0
  189.6310  177.6920  146.4600 N   0  0  0  0  0  0  0  0  0  0  0  0
  188.2910  177.8730  146.2610 C   0  0  0  0  0  0  0  0  0  0  0  0
  187.7460  177.7200  145.0010 C   0  0  0  0  0  0  0  0  0  0  0  0
  187.3470  178.2530  147.3380 C   0  0  2  0  0  3  0  0  0  0  0  0
  186.2870  177.9640  144.8870 C   0  0  2  0  0  3  0  0  0  0  0  0
  183.8390  178.2700  143.3760 C   0  0  0  0  0  2  0  0  0  0  0  0
  182.5180  179.0030  143.2590 C   0  0  0  0  0  2  0  0  0  0  0  0
  180.5630  178.5630  142.0210 O   0  0  0  0  0  0  0  0  0  0  0  0
  181.7830  178.5470  142.0350 C   0  0  0  0  0  0  0  0  0  0  0  0
  181.9010  176.7640  140.3080 C   0  0  0  0  0  2  0  0  0  0  0  0
  182.7090  176.2660  139.1560 C   0  0  0  0  0  3  0  0  0  0  0  0
  182.9340  178.6030  138.3230 C   0  0  1  0  0  3  0  0  0  0  0  0
  183.9610  179.3550  139.1590 C   0  0  1  0  0  0  0  0  0  0  0  0
  183.1840  177.1100  138.2410 C   0  0  0  0  0  0  0  0  0  0  0  0
  184.1790  180.7220  138.7180 N   0  0  0  0  0  1  0  0  0  0  0  0
  182.5250  178.0510  140.8340 C   0  0  1  0  0  3  0  0  0  0  0  0
  183.9260  176.6100  137.1810 O   0  0  0  0  0  1  0  0  0  0  0  0
  182.5680  179.1330  139.7370 C   0  0  2  0  0  3  0  0  0  0  0  0
  186.2260  178.6270  138.8680 O   0  0  0  0  0  1  0  0  0  0  0  0
  185.1630  178.6320  139.7720 C   0  0  0  0  0  2  0  0  0  0  0  0
  2 17  1  0  0  0  0
  2  1  2  0  0  0  0
  3 11  1  0  0  0  0
  4  3  2  0  0  0  0
  4 14  1  0  0  0  0
  5 10  1  0  0  0  0
  5  8  1  1  0  0  0
  5  9  1  0  0  0  0
  7 15  1  0  0  0  0
  8  4  1  0  0  0  0
  9 10  1  1  0  0  0
  9  3  1  0  0  0  0
 11 12  2  0  0  0  0
 13 12  1  0  0  0  0
 13 15  1  0  0  0  0
 14 13  2  0  0  0  0
 15  6  1  1  0  0  0
 16  1  1  6  0  0  0
 16 14  1  0  0  0  0
 16  7  1  0  0  0  0
 18 17  1  0  0  0  0
 19 20  2  0  0  0  0
 20 18  1  0  0  0  0
 21 27  1  0  0  0  0
 22 21  1  0  0  0  0
 23 25  1  1  0  0  0
 23 24  1  0  0  0  0
 23 29  1  0  0  0  0
 24 26  1  6  0  0  0
 24 29  1  0  0  0  0
 24 31  1  0  0  0  0
 25 22  2  0  0  0  0
 27 20  1  1  0  0  0
 28 25  1  0  0  0  0
 29 27  1  0  0  0  0
 30 31  1  0  0  0  0
M  END
>  <MODEL>
9

>  <REMARK>
 VINA RESULT:      -7.8      3.074      5.818
  Name = 
  6 active torsions:
  status: ('A' for Active; 'I' for Inactive)
    1  A    between atoms: C_2  and  C_5
    2  A    between atoms: C_2  and  C_10
    3  A    between atoms: N_3  and  C_31
    4  A    between atoms: C_5  and  C_14
    5  A    between atoms: C_10  and  C_25
    6  A    between atoms: C_18  and  C_19
                            x       y       z     vdW  Elec       q    Type
                         _______ _______ _______ _____ _____    ______ ____

>  <TORSDO>
F 6

$$$$
