=
 OpenBabel10222420433D

 66 71  0  0  1  0  0  0  0  0999 V2000
  185.1340  177.3790  138.0090 C   0  0  0  0  0  0  0  0  0  0  0  0
  183.2290  176.1900  136.3870 C   0  0  2  0  0  3  0  0  0  0  0  0
  185.9310  177.8840  138.9190 C   0  0  0  0  0  0  0  0  0  0  0  0
  184.2550  177.7180  134.6870 C   0  0  0  0  0  1  0  0  0  0  0  0
  184.3730  176.4780  135.5520 C   0  0  1  0  0  0  0  0  0  0  0  0
  184.4450  176.8790  137.0240 C   0  0  0  0  0  0  0  0  0  0  0  0
  186.3790  178.8000  141.6140 S   0  0  0  0  0  0  0  0  0  0  0  0
  184.9340  179.2190  142.5710 N   0  0  0  0  0  0  0  0  0  0  0  0
  184.0900  178.5480  140.4310 C   0  0  0  0  0  3  0  0  0  0  0  0
  183.8180  179.0100  141.7380 N   0  0  0  0  0  2  0  0  0  0  0  0
  185.3750  178.4020  140.1940 C   0  0  0  0  0  0  0  0  0  0  0  0
  184.8170  178.2650  143.6680 C   0  0  0  0  0  2  0  0  0  0  0  0
  185.8400  178.5530  144.7590 C   0  0  1  0  0  3  0  0  0  0  0  0
  185.1460  179.0880  146.0040 C   0  0  0  0  0  1  0  0  0  0  0  0
  186.5610  177.2640  145.1060 C   0  0  0  0  0  2  0  0  0  0  0  0
  187.5360  177.5130  146.1600 N   0  0  0  0  0  0  0  0  0  0  0  0
  189.7340  177.3910  147.0380 C   0  0  0  0  0  1  0  0  0  0  0  0
  188.9270  177.2470  145.9970 C   0  0  0  0  0  0  0  0  0  0  0  0
  189.4610  176.6860  144.7110 C   0  0  0  0  0  2  0  0  0  0  0  0
  189.6280  178.5620  142.9170 C   0  0  0  0  0  1  0  0  0  0  0  0
  190.2660  177.6970  143.9490 C   0  0  0  0  0  0  0  0  0  0  0  0
  191.5200  177.9440  144.3100 C   0  0  0  0  0  2  0  0  0  0  0  0
  188.1910  176.9740  138.5380 C   0  0  0  0  0  3  0  0  0  0  0  0
  189.2480  178.7810  137.7400 C   0  0  0  0  0  3  0  0  0  0  0  0
  189.3830  177.4310  138.0410 C   0  0  0  0  0  0  0  0  0  0  0  0
  187.3320  178.0080  138.6100 N   0  0  0  0  0  0  0  0  0  0  0  0
  187.9560  179.1070  138.1190 C   0  0  0  0  0  3  0  0  0  0  0  0
  190.4320  176.5410  137.6240 N   0  0  0  0  0  0  0  0  0  0  0  0
  190.7440  176.0710  136.4420 C   0  0  0  0  0  0  0  0  0  0  0  0
  194.2090  174.4880  136.5610 N   0  0  0  0  0  0  0  0  0  0  0  0
  196.8640  173.0180  136.5370 C   0  0  0  0  0  0  0  0  0  0  0  0
  197.2300  174.2220  135.8480 N   0  0  0  0  0  0  0  0  0  0  0  0
  193.3810  176.6980  136.7590 F   0  0  0  0  0  0  0  0  0  0  0  0
  193.0900  175.3840  136.5590 C   0  0  2  0  0  3  0  0  0  0  0  0
  198.5220  174.8290  136.1360 C   0  0  0  0  0  1  0  0  0  0  0  0
  191.8000  175.0280  136.3960 C   0  0  0  0  0  0  0  0  0  0  0  0
  193.8420  170.8200  136.1730 C   0  0  0  0  0  3  0  0  0  0  0  0
  195.5710  172.4160  136.3590 N   0  0  0  0  0  0  0  0  0  0  0  0
  193.3260  172.2220  136.2360 C   0  0  0  0  0  0  0  0  0  0  0  0
  194.3160  173.0820  136.3500 C   0  0  0  0  0  0  0  0  0  0  0  0
  191.8950  172.4800  136.2510 C   0  0  0  0  0  3  0  0  0  0  0  0
  195.3490  170.9820  136.3680 C   0  0  0  0  0  3  0  0  0  0  0  0
  197.7120  172.4370  137.2710 O   0  0  0  0  0  0  0  0  0  0  0  0
  191.2710  173.6510  136.3150 C   0  0  0  0  0  3  0  0  0  0  0  0
  196.5270  174.6290  134.6360 C   0  0  0  0  0  2  0  0  0  0  0  0
  196.3100  176.1300  134.6240 C   0  0  0  0  0  1  0  0  0  0  0  0
  189.2770  175.7560  134.5940 O   0  0  0  0  0  1  0  0  0  0  0  0
  190.0870  176.5160  135.1830 C   0  0  0  0  0  0  0  0  0  0  0  0
  190.4140  177.7330  134.5940 O   0  0  0  0  0  0  0  0  0  0  0  0
  183.1020  174.7660  136.9240 C   0  0  0  0  0  2  0  0  0  0  0  0
  179.3710  173.8050  138.9430 O   0  0  0  0  0  0  0  0  0  0  0  0
  181.1480  175.2530  138.4540 N   0  0  0  0  0  2  0  0  0  0  0  0
  181.7150  174.4640  137.4020 C   0  0  0  0  0  0  0  0  0  0  0  0
  179.9590  174.8990  139.1700 C   0  0  0  0  0  0  0  0  0  0  0  0
  181.0910  173.4640  136.9460 O   0  0  0  0  0  0  0  0  0  0  0  0
  179.4000  175.7950  140.2310 C   0  0  0  0  0  2  0  0  0  0  0  0
  179.8610  177.2560  140.1490 C   0  0  0  0  0  2  0  0  0  0  0  0
  180.4600  177.5770  138.9220 O   0  0  0  0  0  0  0  0  0  0  0  0
  179.9210  180.8770  137.7140 S   0  0  0  0  0  0  0  0  0  0  0  0
  180.3080  179.6530  140.0770 C   0  0  0  0  0  2  0  0  0  0  0  0
  181.1750  179.5620  137.7400 C   0  0  0  0  0  2  0  0  0  0  0  0
  181.0960  178.8200  139.0760 C   0  0  2  0  0  3  0  0  0  0  0  0
  180.1230  181.0480  139.5110 C   0  0  0  0  0  2  0  0  0  0  0  0
  185.5320  175.5310  135.1620 C   0  0  0  0  0  2  0  0  0  0  0  0
  186.5220  174.0880  136.4430 O   0  0  0  0  0  1  0  0  0  0  0  0
  186.5260  175.3730  136.1360 O   0  0  0  0  0  0  0  0  0  0  0  0
  1  3  2  0  0  0  0
  2 50  1  1  0  0  0
  2  6  1  0  0  0  0
  3 11  1  0  0  0  0
  5  4  1  6  0  0  0
  5  2  1  0  0  0  0
  5  6  1  0  0  0  0
  6  1  2  0  0  0  0
  7  8  1  0  0  0  0
  8 12  1  0  0  0  0
  9 10  1  0  0  0  0
 10  8  1  0  0  0  0
 11  9  2  0  0  0  0
 11  7  1  0  0  0  0
 12 13  1  0  0  0  0
 13 15  1  0  0  0  0
 13 14  1  1  0  0  0
 15 16  1  0  0  0  0
 18 16  2  0  0  0  0
 18 17  1  0  0  0  0
 19 18  1  0  0  0  0
 20 21  1  0  0  0  0
 21 22  2  0  0  0  0
 21 19  1  0  0  0  0
 23 26  1  0  0  0  0
 24 25  1  0  0  0  0
 24 27  2  0  0  0  0
 25 23  2  0  0  0  0
 26  3  1  0  0  0  0
 27 26  1  0  0  0  0
 28 25  1  0  0  0  0
 29 28  2  0  0  0  0
 31 43  2  0  0  0  0
 32 35  1  0  0  0  0
 32 31  1  0  0  0  0
 34 30  1  0  0  0  0
 34 33  1  1  0  0  0
 36 29  1  0  0  0  0
 36 34  1  0  0  0  0
 37 39  1  0  0  0  0
 37 42  2  0  0  0  0
 38 42  1  0  0  0  0
 38 31  1  0  0  0  0
 39 41  2  0  0  0  0
 39 40  1  0  0  0  0
 40 38  1  0  0  0  0
 40 30  2  0  0  0  0
 41 44  1  0  0  0  0
 44 36  2  0  0  0  0
 45 32  1  0  0  0  0
 46 45  1  0  0  0  0
 47 48  1  0  0  0  0
 48 29  1  0  0  0  0
 49 48  2  0  0  0  0
 50 53  1  0  0  0  0
 51 54  2  0  0  0  0
 52 54  1  0  0  0  0
 53 52  1  0  0  0  0
 54 56  1  0  0  0  0
 55 53  2  0  0  0  0
 57 56  1  0  0  0  0
 58 57  1  0  0  0  0
 59 61  1  0  0  0  0
 59 63  1  0  0  0  0
 61 62  1  0  0  0  0
 62 58  1  6  0  0  0
 62 60  1  0  0  0  0
 63 60  1  0  0  0  0
 64  5  1  0  0  0  0
 64 66  1  0  0  0  0
 66 65  1  0  0  0  0
M  END
>  <MODEL>
1

>  <REMARK>
 VINA RESULT:      -5.9      0.000      0.000
  Name = 
  21 active torsions:
  status: ('A' for Active; 'I' for Inactive)
    1  A    between atoms: C_5  and  C_11
    2  A    between atoms: C_5  and  C_32
    3  A    between atoms: N_8  and  C_26
    4  A    between atoms: O_10  and  C_43
    5  A    between atoms: C_11  and  N_47
    6  A    between atoms: N_12  and  C_41
    7  A    between atoms: C_14  and  C_44
    8  A    between atoms: C_14  and  C_51
    9  A    between atoms: O_18  and  C_38
   10  A    between atoms: O_18  and  C_44
   11  A    between atoms: C_19  and  CA_54
   12  A    between atoms: C_20  and  C_62
   13  A    between atoms: C_20  and  C_65
   14  A    between atoms: C_31  and  C_36
   15  A    between atoms: C_31  and  C_37
   16  A    between atoms: N_34  and  C_62
   17  A    between atoms: N_40  and  C_49
   18  A    between atoms: C_43  and  C_57
   19  A    between atoms: C_45  and  CA_54
   20  A    between atoms: N_47  and  C_65
   21  A    between atoms: C_49  and  C_58
                            x       y       z     vdW  Elec       q    Type
                         _______ _______ _______ _____ _____    ______ ____

>  <TORSDO>
F 21

$$$$
=
 OpenBabel10222420433D

 66 71  0  0  1  0  0  0  0  0999 V2000
  183.3100  177.6900  139.9070 C   0  0  0  0  0  0  0  0  0  0  0  0
  180.7210  176.9110  139.3020 C   0  0  2  0  0  3  0  0  0  0  0  0
  184.5040  177.9830  140.3600 C   0  0  0  0  0  0  0  0  0  0  0  0
  181.0050  178.6510  137.5220 C   0  0  0  0  0  1  0  0  0  0  0  0
  181.3540  177.2750  138.0540 C   0  0  1  0  0  0  0  0  0  0  0  0
  182.1740  177.4090  139.3370 C   0  0  0  0  0  0  0  0  0  0  0  0
  186.3000  178.6120  142.5240 S   0  0  0  0  0  0  0  0  0  0  0  0
  185.5740  178.7980  144.1420 N   0  0  0  0  0  0  0  0  0  0  0  0
  183.7330  178.3140  142.6860 C   0  0  0  0  0  3  0  0  0  0  0  0
  184.1880  178.5980  143.9940 N   0  0  0  0  0  2  0  0  0  0  0  0
  184.7010  178.3020  141.7960 C   0  0  0  0  0  0  0  0  0  0  0  0
  186.0600  177.7160  144.9910 C   0  0  0  0  0  2  0  0  0  0  0  0
  187.3280  178.1250  145.7320 C   0  0  1  0  0  3  0  0  0  0  0  0
  187.1480  177.9260  147.2300 C   0  0  0  0  0  1  0  0  0  0  0  0
  188.4770  177.2610  145.2490 C   0  0  0  0  0  2  0  0  0  0  0  0
  189.7400  177.9560  145.4620 N   0  0  0  0  0  2  0  0  0  0  0  0
  191.6190  176.6070  145.9760 C   0  0  0  0  0  2  0  0  0  0  0  0
  190.9980  177.3900  145.1060 C   0  0  0  0  0  0  0  0  0  0  0  0
  191.5590  177.5620  143.7230 C   0  0  0  0  0  2  0  0  0  0  0  0
  190.4740  177.4150  141.3630 C   0  0  0  0  0  1  0  0  0  0  0  0
  190.7590  176.8140  142.6970 C   0  0  0  0  0  0  0  0  0  0  0  0
  190.4420  175.5420  142.9110 C   0  0  0  0  0  2  0  0  0  0  0  0
  186.7120  177.3380  139.4700 C   0  0  0  0  0  3  0  0  0  0  0  0
  186.7100  178.4130  137.5050 C   0  0  0  0  0  3  0  0  0  0  0  0
  187.4320  177.5530  138.3250 C   0  0  0  0  0  0  0  0  0  0  0  0
  185.5900  178.0790  139.4180 N   0  0  0  0  0  0  0  0  0  0  0  0
  185.5700  178.7280  138.2280 C   0  0  0  0  0  3  0  0  0  0  0  0
  188.5610  176.7420  137.9640 N   0  0  0  0  0  0  0  0  0  0  0  0
  189.4670  176.8930  137.0300 C   0  0  0  0  0  0  0  0  0  0  0  0
  192.6310  174.7860  137.2980 N   0  0  0  0  0  0  0  0  0  0  0  0
  195.0660  172.9740  137.3010 C   0  0  0  0  0  0  0  0  0  0  0  0
  195.7020  174.2580  137.2220 N   0  0  0  0  0  0  0  0  0  0  0  0
  191.9630  176.8980  138.1340 F   0  0  0  0  0  0  0  0  0  0  0  0
  191.6310  175.8080  137.3900 C   0  0  2  0  0  3  0  0  0  0  0  0
  196.9120  174.4910  137.9960 C   0  0  0  0  0  1  0  0  0  0  0  0
  190.4080  175.7630  136.8250 C   0  0  0  0  0  0  0  0  0  0  0  0
  192.0870  171.6060  135.4720 C   0  0  0  0  0  3  0  0  0  0  0  0
  193.8260  172.7080  136.6280 N   0  0  0  0  0  0  0  0  0  0  0  0
  191.6890  172.9660  135.9480 C   0  0  0  0  0  0  0  0  0  0  0  0
  192.6770  173.5440  136.5970 C   0  0  0  0  0  0  0  0  0  0  0  0
  190.3320  173.4500  135.7450 C   0  0  0  0  0  3  0  0  0  0  0  0
  193.4940  171.4230  136.0400 C   0  0  0  0  0  3  0  0  0  0  0  0
  195.6350  172.0350  137.9270 O   0  0  0  0  0  0  0  0  0  0  0  0
  189.8110  174.6160  136.1110 C   0  0  0  0  0  3  0  0  0  0  0  0
  195.3870  175.1770  136.1340 C   0  0  0  0  0  2  0  0  0  0  0  0
  196.2680  174.9010  134.9300 C   0  0  0  0  0  1  0  0  0  0  0  0
  189.7930  179.2300  136.7120 O   0  0  0  0  0  1  0  0  0  0  0  0
  189.5750  178.1110  136.1810 C   0  0  0  0  0  0  0  0  0  0  0  0
  189.3560  178.0510  134.8090 O   0  0  0  0  0  0  0  0  0  0  0  0
  180.6760  175.4250  139.6510 C   0  0  0  0  0  2  0  0  0  0  0  0
  179.0350  173.0910  136.3670 O   0  0  0  0  0  0  0  0  0  0  0  0
  180.3400  173.3120  138.3030 N   0  0  0  0  0  2  0  0  0  0  0  0
  179.9020  174.6320  138.6420 C   0  0  0  0  0  0  0  0  0  0  0  0
  179.8530  172.5720  137.1780 C   0  0  0  0  0  0  0  0  0  0  0  0
  178.9310  175.1620  138.0310 O   0  0  0  0  0  0  0  0  0  0  0  0
  180.3260  171.1770  136.9070 C   0  0  0  0  0  2  0  0  0  0  0  0
  181.5360  171.0770  135.9700 C   0  0  0  0  0  2  0  0  0  0  0  0
  182.7620  171.2400  136.6330 O   0  0  0  0  0  0  0  0  0  0  0  0
  185.9730  172.7320  136.3110 S   0  0  0  0  0  0  0  0  0  0  0  0
  183.7160  172.5150  134.8640 C   0  0  0  0  0  2  0  0  0  0  0  0
  184.4130  172.9030  137.2280 C   0  0  0  0  0  2  0  0  0  0  0  0
  183.2480  172.5180  136.3130 C   0  0  2  0  0  3  0  0  0  0  0  0
  185.0800  173.1740  134.7920 C   0  0  0  0  0  2  0  0  0  0  0  0
  182.0470  176.3460  137.0300 C   0  0  0  0  0  2  0  0  0  0  0  0
  182.8390  176.0130  135.0390 O   0  0  0  0  0  1  0  0  0  0  0  0
  182.5380  176.9840  135.8840 O   0  0  0  0  0  0  0  0  0  0  0  0
  1  3  2  0  0  0  0
  2  6  1  0  0  0  0
  2 50  1  6  0  0  0
  3 11  1  0  0  0  0
  5  4  1  6  0  0  0
  5  2  1  0  0  0  0
  5  6  1  0  0  0  0
  6  1  2  0  0  0  0
  7  8  1  0  0  0  0
  8 12  1  0  0  0  0
  9 10  1  0  0  0  0
 10  8  1  0  0  0  0
 11  7  1  0  0  0  0
 11  9  2  0  0  0  0
 12 13  1  0  0  0  0
 13 14  1  1  0  0  0
 15 16  1  0  0  0  0
 15 13  1  0  0  0  0
 18 16  1  0  0  0  0
 18 17  2  0  0  0  0
 19 18  1  0  0  0  0
 20 21  1  0  0  0  0
 21 22  2  0  0  0  0
 21 19  1  0  0  0  0
 24 27  2  0  0  0  0
 24 25  1  0  0  0  0
 25 23  2  0  0  0  0
 26 23  1  0  0  0  0
 26  3  1  0  0  0  0
 27 26  1  0  0  0  0
 28 25  1  0  0  0  0
 29 28  2  0  0  0  0
 30 34  1  0  0  0  0
 31 43  2  0  0  0  0
 32 31  1  0  0  0  0
 32 35  1  0  0  0  0
 34 33  1  1  0  0  0
 36 29  1  0  0  0  0
 36 34  1  0  0  0  0
 37 39  1  0  0  0  0
 37 42  2  0  0  0  0
 38 31  1  0  0  0  0
 39 40  1  0  0  0  0
 40 38  1  0  0  0  0
 40 30  2  0  0  0  0
 41 39  2  0  0  0  0
 41 44  1  0  0  0  0
 42 38  1  0  0  0  0
 44 36  2  0  0  0  0
 45 32  1  0  0  0  0
 46 45  1  0  0  0  0
 48 47  1  0  0  0  0
 48 29  1  0  0  0  0
 49 48  2  0  0  0  0
 51 54  2  0  0  0  0
 52 53  1  0  0  0  0
 53 50  1  0  0  0  0
 54 52  1  0  0  0  0
 55 53  2  0  0  0  0
 56 54  1  0  0  0  0
 57 58  1  0  0  0  0
 57 56  1  0  0  0  0
 59 61  1  0  0  0  0
 60 62  1  0  0  0  0
 62 58  1  1  0  0  0
 62 61  1  0  0  0  0
 63 60  1  0  0  0  0
 63 59  1  0  0  0  0
 64  5  1  0  0  0  0
 65 66  1  0  0  0  0
 66 64  1  0  0  0  0
M  END
>  <MODEL>
2

>  <REMARK>
 VINA RESULT:      -5.7      2.132      3.722
  Name = 
  21 active torsions:
  status: ('A' for Active; 'I' for Inactive)
    1  A    between atoms: C_5  and  C_11
    2  A    between atoms: C_5  and  C_32
    3  A    between atoms: N_8  and  C_26
    4  A    between atoms: O_10  and  C_43
    5  A    between atoms: C_11  and  N_47
    6  A    between atoms: N_12  and  C_41
    7  A    between atoms: C_14  and  C_44
    8  A    between atoms: C_14  and  C_51
    9  A    between atoms: O_18  and  C_38
   10  A    between atoms: O_18  and  C_44
   11  A    between atoms: C_19  and  CA_54
   12  A    between atoms: C_20  and  C_62
   13  A    between atoms: C_20  and  C_65
   14  A    between atoms: C_31  and  C_36
   15  A    between atoms: C_31  and  C_37
   16  A    between atoms: N_34  and  C_62
   17  A    between atoms: N_40  and  C_49
   18  A    between atoms: C_43  and  C_57
   19  A    between atoms: C_45  and  CA_54
   20  A    between atoms: N_47  and  C_65
   21  A    between atoms: C_49  and  C_58
                            x       y       z     vdW  Elec       q    Type
                         _______ _______ _______ _____ _____    ______ ____

>  <TORSDO>
F 21

$$$$
=
 OpenBabel10222420433D

 66 71  0  0  1  0  0  0  0  0999 V2000
  184.6720  177.1300  137.5310 C   0  0  0  0  0  0  0  0  0  0  0  0
  181.9190  176.8200  137.5550 C   0  0  2  0  0  3  0  0  0  0  0  0
  185.9640  177.2610  137.7040 C   0  0  0  0  0  0  0  0  0  0  0  0
  182.1510  177.8600  135.2860 C   0  0  0  0  0  1  0  0  0  0  0  0
  182.3500  176.6540  136.1840 C   0  0  1  0  0  0  0  0  0  0  0  0
  183.4150  176.9620  137.2360 C   0  0  0  0  0  0  0  0  0  0  0  0
  188.1640  177.7300  139.5050 S   0  0  0  0  0  0  0  0  0  0  0  0
  187.8340  178.7530  140.9280 N   0  0  0  0  0  0  0  0  0  0  0  0
  185.7610  178.6660  139.7300 C   0  0  0  0  0  3  0  0  0  0  0  0
  186.4850  179.1450  140.8450 N   0  0  0  0  0  2  0  0  0  0  0  0
  186.4900  177.9280  138.9210 C   0  0  0  0  0  0  0  0  0  0  0  0
  187.9540  177.9280  142.1240 C   0  0  0  0  0  2  0  0  0  0  0  0
  189.4150  177.7030  142.4950 C   0  0  1  0  0  3  0  0  0  0  0  0
  190.0720  179.0260  142.8650 C   0  0  0  0  0  1  0  0  0  0  0  0
  189.4780  176.7650  143.6850 C   0  0  0  0  0  2  0  0  0  0  0  0
  188.1290  176.4680  144.1510 N   0  0  0  0  0  2  0  0  0  0  0  0
  188.3260  177.7450  146.1380 C   0  0  0  0  0  2  0  0  0  0  0  0
  187.5400  177.1300  145.2680 C   0  0  0  0  0  0  0  0  0  0  0  0
  186.0480  177.2480  145.3950 C   0  0  0  0  0  2  0  0  0  0  0  0
  185.8430  179.0680  147.2430 C   0  0  0  0  0  1  0  0  0  0  0  0
  185.6310  178.6200  145.8370 C   0  0  0  0  0  0  0  0  0  0  0  0
  185.2220  179.5040  144.9350 C   0  0  0  0  0  2  0  0  0  0  0  0
  187.9990  176.1690  136.8410 C   0  0  0  0  0  3  0  0  0  0  0  0
  187.5610  176.1260  134.6450 C   0  0  0  0  0  3  0  0  0  0  0  0
  188.4760  175.7570  135.6240 C   0  0  0  0  0  0  0  0  0  0  0  0
  186.8440  176.8320  136.6490 N   0  0  0  0  0  0  0  0  0  0  0  0
  186.5610  176.8040  135.3230 C   0  0  0  0  0  3  0  0  0  0  0  0
  189.5640  174.8270  135.5010 N   0  0  0  0  0  0  0  0  0  0  0  0
  189.5930  173.5200  135.5750 C   0  0  0  0  0  0  0  0  0  0  0  0
  193.2550  172.8900  136.4200 N   0  0  0  0  0  0  0  0  0  0  0  0
  196.1830  172.2370  136.8780 C   0  0  0  0  0  0  0  0  0  0  0  0
  196.2430  173.6700  136.8400 N   0  0  0  0  0  0  0  0  0  0  0  0
  191.6600  174.5230  137.0480 F   0  0  0  0  0  0  0  0  0  0  0  0
  191.9240  173.4100  136.3110 C   0  0  2  0  0  3  0  0  0  0  0  0
  197.1140  174.3620  137.7790 C   0  0  0  0  0  1  0  0  0  0  0  0
  190.9330  172.8800  135.5670 C   0  0  0  0  0  0  0  0  0  0  0  0
  194.3530  169.8090  134.6760 C   0  0  0  0  0  3  0  0  0  0  0  0
  195.2830  171.5010  136.0340 N   0  0  0  0  0  0  0  0  0  0  0  0
  193.3650  170.8740  135.0240 C   0  0  0  0  0  0  0  0  0  0  0  0
  193.9140  171.7930  135.7900 C   0  0  0  0  0  0  0  0  0  0  0  0
  191.9790  170.7640  134.5940 C   0  0  0  0  0  3  0  0  0  0  0  0
  195.6030  170.2060  135.4610 C   0  0  0  0  0  3  0  0  0  0  0  0
  196.9790  171.6000  137.6240 O   0  0  0  0  0  0  0  0  0  0  0  0
  190.9770  171.6050  134.8220 C   0  0  0  0  0  3  0  0  0  0  0  0
  195.7570  174.4030  135.6760 C   0  0  0  0  0  2  0  0  0  0  0  0
  196.9150  175.0040  134.9020 C   0  0  0  0  0  1  0  0  0  0  0  0
  187.6810  172.4360  134.6590 O   0  0  0  0  0  0  0  0  0  0  0  0
  188.3700  172.6770  135.6830 C   0  0  0  0  0  0  0  0  0  0  0  0
  187.9230  172.2140  136.9160 O   0  0  0  0  0  1  0  0  0  0  0  0
  181.6830  175.5490  138.3670 C   0  0  0  0  0  2  0  0  0  0  0  0
  179.0240  176.3270  141.7210 O   0  0  0  0  0  0  0  0  0  0  0  0
  180.3130  177.0290  139.8920 N   0  0  0  0  0  2  0  0  0  0  0  0
  180.5950  175.7210  139.3820 C   0  0  0  0  0  0  0  0  0  0  0  0
  179.4960  177.2810  141.0420 C   0  0  0  0  0  0  0  0  0  0  0  0
  179.9990  174.7100  139.8500 O   0  0  0  0  0  0  0  0  0  0  0  0
  179.2090  178.6800  141.4940 C   0  0  0  0  0  2  0  0  0  0  0  0
  180.2110  179.7330  141.0030 C   0  0  0  0  0  2  0  0  0  0  0  0
  180.6040  179.5420  139.6710 O   0  0  0  0  0  0  0  0  0  0  0  0
  179.4660  181.4720  136.9100 S   0  0  0  0  0  0  0  0  0  0  0  0
  179.8240  181.7880  139.5570 C   0  0  0  0  0  2  0  0  0  0  0  0
  180.9790  180.7460  137.6070 C   0  0  0  0  0  2  0  0  0  0  0  0
  180.9070  180.8040  139.1350 C   0  0  2  0  0  3  0  0  0  0  0  0
  179.3910  182.5860  138.3420 C   0  0  0  0  0  2  0  0  0  0  0  0
  182.6550  175.3370  135.4340 C   0  0  0  0  0  2  0  0  0  0  0  0
  183.0380  173.2380  135.8220 O   0  0  0  0  0  1  0  0  0  0  0  0
  183.4930  174.4440  136.1140 O   0  0  0  0  0  0  0  0  0  0  0  0
  1  3  2  0  0  0  0
  2 50  1  1  0  0  0
  3 11  1  0  0  0  0
  5  4  1  6  0  0  0
  5  6  1  0  0  0  0
  5  2  1  0  0  0  0
  6  1  2  0  0  0  0
  6  2  1  0  0  0  0
  7  8  1  0  0  0  0
  8 12  1  0  0  0  0
  9 10  1  0  0  0  0
 10  8  1  0  0  0  0
 11  7  1  0  0  0  0
 11  9  2  0  0  0  0
 12 13  1  0  0  0  0
 13 14  1  1  0  0  0
 13 15  1  0  0  0  0
 15 16  1  0  0  0  0
 16 18  1  0  0  0  0
 18 19  1  0  0  0  0
 18 17  2  0  0  0  0
 19 21  1  0  0  0  0
 21 20  1  0  0  0  0
 22 21  2  0  0  0  0
 24 27  2  0  0  0  0
 24 25  1  0  0  0  0
 25 23  2  0  0  0  0
 26 23  1  0  0  0  0
 26  3  1  0  0  0  0
 27 26  1  0  0  0  0
 28 29  2  0  0  0  0
 28 25  1  0  0  0  0
 29 48  1  0  0  0  0
 31 43  2  0  0  0  0
 32 31  1  0  0  0  0
 32 35  1  0  0  0  0
 34 30  1  0  0  0  0
 34 33  1  1  0  0  0
 36 29  1  0  0  0  0
 36 34  1  0  0  0  0
 37 39  1  0  0  0  0
 37 42  2  0  0  0  0
 38 31  1  0  0  0  0
 39 40  1  0  0  0  0
 40 38  1  0  0  0  0
 40 30  2  0  0  0  0
 41 44  1  0  0  0  0
 41 39  2  0  0  0  0
 42 38  1  0  0  0  0
 44 36  2  0  0  0  0
 45 32  1  0  0  0  0
 46 45  1  0  0  0  0
 47 48  2  0  0  0  0
 48 49  1  0  0  0  0
 50 53  1  0  0  0  0
 52 54  1  0  0  0  0
 53 55  2  0  0  0  0
 53 52  1  0  0  0  0
 54 56  1  0  0  0  0
 54 51  2  0  0  0  0
 57 56  1  0  0  0  0
 58 57  1  0  0  0  0
 59 61  1  0  0  0  0
 59 63  1  0  0  0  0
 61 62  1  0  0  0  0
 62 60  1  0  0  0  0
 62 58  1  6  0  0  0
 63 60  1  0  0  0  0
 64 66  1  0  0  0  0
 64  5  1  0  0  0  0
 65 66  1  0  0  0  0
M  END
>  <MODEL>
3

>  <REMARK>
 VINA RESULT:      -5.4      1.926      2.953
  Name = 
  21 active torsions:
  status: ('A' for Active; 'I' for Inactive)
    1  A    between atoms: C_5  and  C_11
    2  A    between atoms: C_5  and  C_32
    3  A    between atoms: N_8  and  C_26
    4  A    between atoms: O_10  and  C_43
    5  A    between atoms: C_11  and  N_47
    6  A    between atoms: N_12  and  C_41
    7  A    between atoms: C_14  and  C_44
    8  A    between atoms: C_14  and  C_51
    9  A    between atoms: O_18  and  C_38
   10  A    between atoms: O_18  and  C_44
   11  A    between atoms: C_19  and  CA_54
   12  A    between atoms: C_20  and  C_62
   13  A    between atoms: C_20  and  C_65
   14  A    between atoms: C_31  and  C_36
   15  A    between atoms: C_31  and  C_37
   16  A    between atoms: N_34  and  C_62
   17  A    between atoms: N_40  and  C_49
   18  A    between atoms: C_43  and  C_57
   19  A    between atoms: C_45  and  CA_54
   20  A    between atoms: N_47  and  C_65
   21  A    between atoms: C_49  and  C_58
                            x       y       z     vdW  Elec       q    Type
                         _______ _______ _______ _____ _____    ______ ____

>  <TORSDO>
F 21

$$$$
=
 OpenBabel10222420433D

 66 71  0  0  1  0  0  0  0  0999 V2000
  183.9300  177.8890  137.9910 C   0  0  0  0  0  0  0  0  0  0  0  0
  181.1880  178.1560  138.2770 C   0  0  2  0  0  3  0  0  0  0  0  0
  185.2340  177.7690  138.0420 C   0  0  0  0  0  0  0  0  0  0  0  0
  181.3810  178.8950  135.8900 C   0  0  0  0  0  1  0  0  0  0  0  0
  181.4330  177.7690  136.9050 C   0  0  1  0  0  0  0  0  0  0  0  0
  182.6410  177.9550  137.8220 C   0  0  0  0  0  0  0  0  0  0  0  0
  187.7050  178.9400  138.9510 S   0  0  0  0  0  0  0  0  0  0  0  0
  187.7540  179.4990  140.6440 N   0  0  0  0  0  0  0  0  0  0  0  0
  185.5390  178.6390  140.3370 C   0  0  0  0  0  3  0  0  0  0  0  0
  186.4860  179.2410  141.1960 N   0  0  0  0  0  2  0  0  0  0  0  0
  186.0040  178.4310  139.1240 C   0  0  0  0  0  0  0  0  0  0  0  0
  188.7020  178.6660  141.3750 C   0  0  0  0  0  2  0  0  0  0  0  0
  188.7790  177.2650  140.7790 C   0  0  1  0  0  3  0  0  0  0  0  0
  189.7750  177.2380  139.6280 C   0  0  0  0  0  1  0  0  0  0  0  0
  189.2360  176.3000  141.8560 C   0  0  0  0  0  2  0  0  0  0  0  0
  189.5850  177.0380  143.0630 N   0  0  0  0  0  2  0  0  0  0  0  0
  191.6720  178.0630  143.5250 C   0  0  0  0  0  2  0  0  0  0  0  0
  190.8900  176.9990  143.6360 C   0  0  0  0  0  0  0  0  0  0  0  0
  191.3340  175.8300  144.4660 C   0  0  0  0  0  2  0  0  0  0  0  0
  190.4440  177.0240  146.6000 C   0  0  0  0  0  1  0  0  0  0  0  0
  191.4760  176.1930  145.9160 C   0  0  0  0  0  0  0  0  0  0  0  0
  192.4380  175.6350  146.6410 C   0  0  0  0  0  2  0  0  0  0  0  0
  187.1470  176.5660  137.0530 C   0  0  0  0  0  3  0  0  0  0  0  0
  186.2270  175.7780  135.1690 C   0  0  0  0  0  3  0  0  0  0  0  0
  187.3830  175.8040  135.9400 C   0  0  0  0  0  0  0  0  0  0  0  0
  185.8990  177.0650  136.9760 N   0  0  0  0  0  0  0  0  0  0  0  0
  185.3260  176.5860  135.8440 C   0  0  0  0  0  3  0  0  0  0  0  0
  188.5300  174.9470  135.8260 N   0  0  0  0  0  0  0  0  0  0  0  0
  188.6850  173.6740  136.0950 C   0  0  0  0  0  0  0  0  0  0  0  0
  192.3280  173.0480  137.0210 N   0  0  0  0  0  0  0  0  0  0  0  0
  195.2660  172.4630  137.5130 C   0  0  0  0  0  0  0  0  0  0  0  0
  195.2170  173.8520  137.8690 N   0  0  0  0  0  0  0  0  0  0  0  0
  190.5780  174.3510  137.9400 F   0  0  0  0  0  0  0  0  0  0  0  0
  190.9700  173.5000  136.9540 C   0  0  2  0  0  3  0  0  0  0  0  0
  195.9750  174.3080  139.0250 C   0  0  0  0  0  1  0  0  0  0  0  0
  190.0680  173.1390  136.0190 C   0  0  0  0  0  0  0  0  0  0  0  0
  193.7610  170.6330  134.6020 C   0  0  0  0  0  3  0  0  0  0  0  0
  194.4760  171.9360  136.4350 N   0  0  0  0  0  0  0  0  0  0  0  0
  192.6750  171.5030  135.1460 C   0  0  0  0  0  0  0  0  0  0  0  0
  193.1060  172.2060  136.1720 C   0  0  0  0  0  0  0  0  0  0  0  0
  191.3300  171.4360  134.5950 C   0  0  0  0  0  3  0  0  0  0  0  0
  194.9270  170.8700  135.5600 C   0  0  0  0  0  3  0  0  0  0  0  0
  196.0620  171.6920  138.1200 O   0  0  0  0  0  0  0  0  0  0  0  0
  190.2550  172.1230  134.9630 C   0  0  0  0  0  3  0  0  0  0  0  0
  194.7470  174.8480  136.9120 C   0  0  0  0  0  2  0  0  0  0  0  0
  193.9190  175.9100  137.6110 C   0  0  0  0  0  1  0  0  0  0  0  0
  187.1410  172.7680  137.6640 O   0  0  0  0  0  1  0  0  0  0  0  0
  187.5630  172.7750  136.4790 C   0  0  0  0  0  0  0  0  0  0  0  0
  187.0210  171.8730  135.5690 O   0  0  0  0  0  0  0  0  0  0  0  0
  180.7930  177.0480  139.2510 C   0  0  0  0  0  2  0  0  0  0  0  0
  180.8800  178.1630  143.4540 O   0  0  0  0  0  0  0  0  0  0  0  0
  181.6830  178.3050  141.2560 N   0  0  0  0  0  2  0  0  0  0  0  0
  180.6230  177.5590  140.6480 C   0  0  0  0  0  0  0  0  0  0  0  0
  181.7490  178.6090  142.6540 C   0  0  0  0  0  0  0  0  0  0  0  0
  179.5940  177.2510  141.3140 O   0  0  0  0  0  0  0  0  0  0  0  0
  182.8680  179.4330  143.2140 C   0  0  0  0  0  2  0  0  0  0  0  0
  183.0950  179.2690  144.7220 C   0  0  0  0  0  2  0  0  0  0  0  0
  184.4250  179.4940  145.1080 O   0  0  0  0  0  0  0  0  0  0  0  0
  187.6960  178.2630  145.7610 S   0  0  0  0  0  0  0  0  0  0  0  0
  185.2820  178.2480  146.9460 C   0  0  0  0  0  2  0  0  0  0  0  0
  186.2680  177.9910  144.6700 C   0  0  0  0  0  2  0  0  0  0  0  0
  184.9800  178.2510  145.4540 C   0  0  2  0  0  3  0  0  0  0  0  0
  186.6810  177.7030  147.1590 C   0  0  0  0  0  2  0  0  0  0  0  0
  181.3960  176.3500  136.2930 C   0  0  0  0  0  2  0  0  0  0  0  0
  180.0040  174.6870  136.2930 O   0  0  0  0  0  1  0  0  0  0  0  0
  180.1360  175.9250  135.8510 O   0  0  0  0  0  0  0  0  0  0  0  0
  1  3  2  0  0  0  0
  2 50  1  1  0  0  0
  3 11  1  0  0  0  0
  5  4  1  6  0  0  0
  5  6  1  0  0  0  0
  5  2  1  0  0  0  0
  6  1  2  0  0  0  0
  6  2  1  0  0  0  0
  7 11  1  0  0  0  0
  7  8  1  0  0  0  0
  8 10  1  0  0  0  0
  8 12  1  0  0  0  0
  9 10  1  0  0  0  0
 11  9  2  0  0  0  0
 13 14  1  6  0  0  0
 13 12  1  0  0  0  0
 13 15  1  0  0  0  0
 15 16  1  0  0  0  0
 16 18  1  0  0  0  0
 17 18  2  0  0  0  0
 18 19  1  0  0  0  0
 19 21  1  0  0  0  0
 21 20  1  0  0  0  0
 21 22  2  0  0  0  0
 24 27  2  0  0  0  0
 24 25  1  0  0  0  0
 25 23  2  0  0  0  0
 26 23  1  0  0  0  0
 26  3  1  0  0  0  0
 27 26  1  0  0  0  0
 28 25  1  0  0  0  0
 28 29  2  0  0  0  0
 29 48  1  0  0  0  0
 31 32  1  0  0  0  0
 31 43  2  0  0  0  0
 32 35  1  0  0  0  0
 34 30  1  0  0  0  0
 34 33  1  1  0  0  0
 36 29  1  0  0  0  0
 36 34  1  0  0  0  0
 37 39  1  0  0  0  0
 37 42  2  0  0  0  0
 38 31  1  0  0  0  0
 39 40  1  0  0  0  0
 40 38  1  0  0  0  0
 40 30  2  0  0  0  0
 41 44  1  0  0  0  0
 41 39  2  0  0  0  0
 42 38  1  0  0  0  0
 44 36  2  0  0  0  0
 45 46  1  0  0  0  0
 45 32  1  0  0  0  0
 48 47  1  0  0  0  0
 49 48  2  0  0  0  0
 50 53  1  0  0  0  0
 52 54  1  0  0  0  0
 53 52  1  0  0  0  0
 53 55  2  0  0  0  0
 54 56  1  0  0  0  0
 54 51  2  0  0  0  0
 56 57  1  0  0  0  0
 57 58  1  0  0  0  0
 59 63  1  0  0  0  0
 60 63  1  0  0  0  0
 61 62  1  0  0  0  0
 61 59  1  0  0  0  0
 62 58  1  6  0  0  0
 62 60  1  0  0  0  0
 64  5  1  0  0  0  0
 66 65  1  0  0  0  0
 66 64  1  0  0  0  0
M  END
>  <MODEL>
4

>  <REMARK>
 VINA RESULT:      -5.0      2.500      4.624
  Name = 
  21 active torsions:
  status: ('A' for Active; 'I' for Inactive)
    1  A    between atoms: C_5  and  C_11
    2  A    between atoms: C_5  and  C_32
    3  A    between atoms: N_8  and  C_26
    4  A    between atoms: O_10  and  C_43
    5  A    between atoms: C_11  and  N_47
    6  A    between atoms: N_12  and  C_41
    7  A    between atoms: C_14  and  C_44
    8  A    between atoms: C_14  and  C_51
    9  A    between atoms: O_18  and  C_38
   10  A    between atoms: O_18  and  C_44
   11  A    between atoms: C_19  and  CA_54
   12  A    between atoms: C_20  and  C_62
   13  A    between atoms: C_20  and  C_65
   14  A    between atoms: C_31  and  C_36
   15  A    between atoms: C_31  and  C_37
   16  A    between atoms: N_34  and  C_62
   17  A    between atoms: N_40  and  C_49
   18  A    between atoms: C_43  and  C_57
   19  A    between atoms: C_45  and  CA_54
   20  A    between atoms: N_47  and  C_65
   21  A    between atoms: C_49  and  C_58
                            x       y       z     vdW  Elec       q    Type
                         _______ _______ _______ _____ _____    ______ ____

>  <TORSDO>
F 21

$$$$
=
 OpenBabel10222420433D

 66 71  0  0  1  0  0  0  0  0999 V2000
  191.2710  177.1990  140.5690 C   0  0  0  0  0  0  0  0  0  0  0  0
  191.6160  177.5360  143.2970 C   0  0  2  0  0  3  0  0  0  0  0  0
  191.2410  176.9120  139.2910 C   0  0  0  0  0  0  0  0  0  0  0  0
  190.4730  179.7100  142.8020 C   0  0  0  0  0  1  0  0  0  0  0  0
  190.3830  178.2030  142.9430 C   0  0  1  0  0  0  0  0  0  0  0  0
  191.1770  177.5300  141.8250 C   0  0  0  0  0  0  0  0  0  0  0  0
  192.5270  176.0040  136.8770 S   0  0  0  0  0  0  0  0  0  0  0  0
  194.2760  175.6740  136.9740 N   0  0  0  0  0  0  0  0  0  0  0  0
  193.6610  176.4150  139.1680 C   0  0  0  0  0  3  0  0  0  0  0  0
  194.6740  175.9640  138.2920 N   0  0  0  0  0  0  0  0  0  0  0  0
  192.4850  176.5110  138.5870 C   0  0  2  0  0  3  0  0  0  0  0  0
  194.4860  174.2440  136.7820 C   0  0  0  0  0  2  0  0  0  0  0  0
  195.7720  173.7800  137.4570 C   0  0  1  0  0  3  0  0  0  0  0  0
  195.4500  173.0270  138.7390 C   0  0  0  0  0  1  0  0  0  0  0  0
  196.5150  172.8580  136.5100 C   0  0  0  0  0  2  0  0  0  0  0  0
  196.2470  171.4690  136.8630 N   0  0  0  0  0  2  0  0  0  0  0  0
  196.8490  170.0970  135.0260 C   0  0  0  0  0  2  0  0  0  0  0  0
  195.9200  170.4790  135.8900 C   0  0  0  0  0  0  0  0  0  0  0  0
  194.5930  169.7780  135.9180 C   0  0  0  0  0  2  0  0  0  0  0  0
  193.8350  171.8860  134.5970 C   0  0  0  0  0  1  0  0  0  0  0  0
  193.5370  170.5480  135.1810 C   0  0  0  0  0  0  0  0  0  0  0  0
  192.3770  169.9660  134.9010 C   0  0  0  0  0  2  0  0  0  0  0  0
  189.1660  176.0880  138.2440 C   0  0  0  0  0  3  0  0  0  0  0  0
  188.1050  178.0160  137.8260 C   0  0  0  0  0  3  0  0  0  0  0  0
  188.0100  176.6320  137.7490 C   0  0  0  0  0  0  0  0  0  0  0  0
  190.0030  177.0880  138.5770 N   0  0  0  0  0  0  0  0  0  0  0  0
  189.3690  178.2620  138.3390 C   0  0  0  0  0  3  0  0  0  0  0  0
  186.8290  175.8460  137.5200 N   0  0  0  0  0  0  0  0  0  0  0  0
  186.5960  174.8640  136.6860 C   0  0  0  0  0  0  0  0  0  0  0  0
  182.8540  174.8800  135.9630 N   0  0  0  0  0  0  0  0  0  0  0  0
  179.8550  174.6820  135.5440 C   0  0  0  0  0  0  0  0  0  0  0  0
  179.9590  176.0290  136.0270 N   0  0  0  0  0  0  0  0  0  0  0  0
  184.5960  176.4690  135.7530 F   0  0  0  0  0  0  0  0  0  0  0  0
  184.2390  175.2110  136.1270 C   0  0  0  0  0  0  0  0  0  0  0  0
  179.1340  177.0610  135.4140 C   0  0  0  0  0  1  0  0  0  0  0  0
  185.1940  174.3830  136.5960 C   0  0  0  0  0  0  0  0  0  0  0  0
  181.4890  171.5240  136.7470 C   0  0  0  0  0  3  0  0  0  0  0  0
  180.7000  173.6370  136.0500 N   0  0  0  0  0  0  0  0  0  0  0  0
  182.5760  172.5470  136.6730 C   0  0  0  0  0  0  0  0  0  0  0  0
  182.1020  173.7070  136.2710 C   0  0  1  0  0  3  0  0  0  0  0  0
  183.9570  172.1770  136.9440 C   0  0  0  0  0  3  0  0  0  0  0  0
  180.2610  172.2640  136.2180 C   0  0  0  0  0  3  0  0  0  0  0  0
  178.9620  174.3910  134.6990 O   0  0  0  0  0  0  0  0  0  0  0  0
  185.0370  172.9480  136.9120 C   0  0  0  0  0  3  0  0  0  0  0  0
  180.5720  176.3100  137.3210 C   0  0  0  0  0  2  0  0  0  0  0  0
  179.6610  175.8660  138.4500 C   0  0  0  0  0  1  0  0  0  0  0  0
  187.6540  174.4430  134.5950 O   0  0  0  0  0  0  0  0  0  0  0  0
  187.6480  174.2420  135.8370 C   0  0  0  0  0  0  0  0  0  0  0  0
  188.5850  173.3680  136.3790 O   0  0  0  0  0  1  0  0  0  0  0  0
  191.5020  176.1270  143.8760 C   0  0  0  0  0  2  0  0  0  0  0  0
  191.3020  176.8520  148.1600 O   0  0  0  0  0  0  0  0  0  0  0  0
  190.3650  176.8620  146.0110 N   0  0  0  0  0  2  0  0  0  0  0  0
  191.4200  176.1360  145.3710 C   0  0  0  0  0  0  0  0  0  0  0  0
  190.3350  177.1650  147.4100 C   0  0  0  0  0  0  0  0  0  0  0  0
  192.3270  175.5870  146.0590 O   0  0  0  0  0  0  0  0  0  0  0  0
  189.1770  177.8930  148.0190 C   0  0  0  0  0  2  0  0  0  0  0  0
  188.0660  176.9890  148.5700 C   0  0  0  0  0  2  0  0  0  0  0  0
  186.9380  176.9320  147.7380 O   0  0  0  0  0  0  0  0  0  0  0  0
  185.0650  178.0210  144.9200 S   0  0  0  0  0  0  0  0  0  0  0  0
  186.2660  179.1140  147.0640 C   0  0  0  0  0  2  0  0  0  0  0  0
  186.6860  177.3340  145.3670 C   0  0  0  0  0  2  0  0  0  0  0  0
  187.1100  177.8920  146.7280 C   0  0  2  0  0  3  0  0  0  0  0  0
  185.5040  179.5350  145.8220 C   0  0  0  0  0  2  0  0  0  0  0  0
  188.9410  177.6500  143.0290 C   0  0  0  0  0  2  0  0  0  0  0  0
  187.4780  178.2200  141.5340 O   0  0  0  0  0  1  0  0  0  0  0  0
  187.9310  178.5710  142.7250 O   0  0  0  0  0  0  0  0  0  0  0  0
  1  6  2  0  0  0  0
  2 50  1  1  0  0  0
  3  1  2  0  0  0  0
  5  4  1  1  0  0  0
  5 64  1  0  0  0  0
  5  2  1  0  0  0  0
  6  5  1  0  0  0  0
  6  2  1  0  0  0  0
  7  8  1  0  0  0  0
  7 11  1  0  0  0  0
  8 10  1  0  0  0  0
 10  9  2  0  0  0  0
 11  9  1  0  0  0  0
 11  3  1  1  0  0  0
 12  8  1  0  0  0  0
 12 13  1  0  0  0  0
 13 14  1  1  0  0  0
 15 16  1  0  0  0  0
 15 13  1  0  0  0  0
 17 18  2  0  0  0  0
 18 19  1  0  0  0  0
 18 16  1  0  0  0  0
 20 21  1  0  0  0  0
 21 19  1  0  0  0  0
 22 21  2  0  0  0  0
 23 26  1  0  0  0  0
 24 27  2  0  0  0  0
 25 24  1  0  0  0  0
 25 23  2  0  0  0  0
 26  3  1  0  0  0  0
 27 26  1  0  0  0  0
 28 25  1  0  0  0  0
 29 28  2  0  0  0  0
 30 34  2  0  0  0  0
 31 32  1  0  0  0  0
 31 38  1  0  0  0  0
 32 45  1  0  0  0  0
 33 34  1  0  0  0  0
 34 36  1  0  0  0  0
 35 32  1  0  0  0  0
 36 29  1  0  0  0  0
 36 44  2  0  0  0  0
 38 42  1  0  0  0  0
 38 40  1  0  0  0  0
 39 37  1  0  0  0  0
 39 41  2  0  0  0  0
 40 30  1  6  0  0  0
 40 39  1  0  0  0  0
 42 37  2  0  0  0  0
 43 31  2  0  0  0  0
 44 41  1  0  0  0  0
 45 46  1  0  0  0  0
 47 48  2  0  0  0  0
 48 49  1  0  0  0  0
 48 29  1  0  0  0  0
 50 53  1  0  0  0  0
 52 54  1  0  0  0  0
 53 52  1  0  0  0  0
 53 55  2  0  0  0  0
 54 56  1  0  0  0  0
 54 51  2  0  0  0  0
 56 57  1  0  0  0  0
 58 57  1  0  0  0  0
 59 61  1  0  0  0  0
 59 63  1  0  0  0  0
 61 62  1  0  0  0  0
 62 60  1  0  0  0  0
 62 58  1  1  0  0  0
 63 60  1  0  0  0  0
 65 66  1  0  0  0  0
 66 64  1  0  0  0  0
M  END
>  <MODEL>
5

>  <REMARK>
 VINA RESULT:      -5.0      3.700     11.194
  Name = 
  21 active torsions:
  status: ('A' for Active; 'I' for Inactive)
    1  A    between atoms: C_5  and  C_11
    2  A    between atoms: C_5  and  C_32
    3  A    between atoms: N_8  and  C_26
    4  A    between atoms: O_10  and  C_43
    5  A    between atoms: C_11  and  N_47
    6  A    between atoms: N_12  and  C_41
    7  A    between atoms: C_14  and  C_44
    8  A    between atoms: C_14  and  C_51
    9  A    between atoms: O_18  and  C_38
   10  A    between atoms: O_18  and  C_44
   11  A    between atoms: C_19  and  CA_54
   12  A    between atoms: C_20  and  C_62
   13  A    between atoms: C_20  and  C_65
   14  A    between atoms: C_31  and  C_36
   15  A    between atoms: C_31  and  C_37
   16  A    between atoms: N_34  and  C_62
   17  A    between atoms: N_40  and  C_49
   18  A    between atoms: C_43  and  C_57
   19  A    between atoms: C_45  and  CA_54
   20  A    between atoms: N_47  and  C_65
   21  A    between atoms: C_49  and  C_58
                            x       y       z     vdW  Elec       q    Type
                         _______ _______ _______ _____ _____    ______ ____

>  <TORSDO>
F 21

$$$$
=
 OpenBabel10222420433D

 66 71  0  0  1  0  0  0  0  0999 V2000
  180.3630  178.7780  138.7040 C   0  0  0  0  0  0  0  0  0  0  0  0
  179.7540  180.6170  136.7240 C   0  0  2  0  0  3  0  0  0  0  0  0
  180.6560  177.7820  139.5050 C   0  0  0  0  0  0  0  0  0  0  0  0
  178.9310  181.9200  138.7000 C   0  0  0  0  0  1  0  0  0  0  0  0
  180.1020  181.3720  137.9080 C   0  0  1  0  0  0  0  0  0  0  0  0
  180.1210  179.8470  138.0020 C   0  0  0  0  0  0  0  0  0  0  0  0
  180.8710  174.9370  139.9030 S   0  0  0  0  0  0  0  0  0  0  0  0
  179.7440  173.9090  138.9810 N   0  0  0  0  0  0  0  0  0  0  0  0
  179.1880  176.1550  138.3590 C   0  0  0  0  0  3  0  0  0  0  0  0
  178.9320  174.7720  138.2210 N   0  0  0  0  0  0  0  0  0  0  0  0
  180.1540  176.4170  139.2110 C   0  0  2  0  0  3  0  0  0  0  0  0
  180.5160  173.1200  138.0280 C   0  0  0  0  0  2  0  0  0  0  0  0
  179.6220  172.5510  136.9320 C   0  0  1  0  0  3  0  0  0  0  0  0
  179.8680  173.2820  135.6200 C   0  0  0  0  0  1  0  0  0  0  0  0
  179.9470  171.0800  136.7510 C   0  0  0  0  0  2  0  0  0  0  0  0
  180.7830  170.9020  135.5710 N   0  0  0  0  0  2  0  0  0  0  0  0
  182.8240  170.1940  134.5960 C   0  0  0  0  0  2  0  0  0  0  0  0
  182.1890  170.6780  135.6530 C   0  0  0  0  0  0  0  0  0  0  0  0
  182.9690  171.1020  136.8640 C   0  0  0  0  0  2  0  0  0  0  0  0
  184.5910  172.2090  135.1570 C   0  0  0  0  0  1  0  0  0  0  0  0
  184.0110  172.1290  136.5280 C   0  0  0  0  0  0  0  0  0  0  0  0
  184.3020  173.0810  137.4060 C   0  0  0  0  0  2  0  0  0  0  0  0
  182.6680  177.7110  140.9290 C   0  0  0  0  0  3  0  0  0  0  0  0
  182.0680  179.0960  142.5840 C   0  0  0  0  0  3  0  0  0  0  0  0
  183.0950  178.3010  142.0890 C   0  0  0  0  0  0  0  0  0  0  0  0
  181.3880  178.0660  140.7120 N   0  0  0  0  0  0  0  0  0  0  0  0
  181.0150  178.9140  141.7010 C   0  0  0  0  0  3  0  0  0  0  0  0
  184.4770  178.3130  142.4800 N   0  0  0  0  0  0  0  0  0  0  0  0
  185.5700  178.4930  141.7800 C   0  0  0  0  0  0  0  0  0  0  0  0
  188.0330  177.2800  144.4220 N   0  0  0  0  0  0  0  0  0  0  0  0
  190.1670  176.4900  146.4320 C   0  0  0  0  0  0  0  0  0  0  0  0
  189.0900  176.8260  147.3180 N   0  0  0  0  0  0  0  0  0  0  0  0
  185.6880  177.1250  144.1390 F   0  0  0  0  0  0  0  0  0  0  0  0
  186.8690  177.5890  143.6470 C   0  0  0  0  0  0  0  0  0  0  0  0
  188.8620  175.9960  148.4920 C   0  0  0  0  0  1  0  0  0  0  0  0
  186.8580  178.2710  142.4840 C   0  0  0  0  0  0  0  0  0  0  0  0
  191.4550  178.2510  143.3770 C   0  0  0  0  0  3  0  0  0  0  0  0
  190.3920  177.2190  145.2150 N   0  0  0  0  0  0  0  0  0  0  0  0
  189.9680  178.2060  143.2290 C   0  0  0  0  0  0  0  0  0  0  0  0
  189.4110  177.6150  144.2660 C   0  0  1  0  0  3  0  0  0  0  0  0
  189.3320  178.6990  142.0180 C   0  0  0  0  0  3  0  0  0  0  0  0
  191.7120  177.4820  144.6720 C   0  0  0  0  0  3  0  0  0  0  0  0
  190.9740  175.5720  146.7510 O   0  0  0  0  0  0  0  0  0  0  0  0
  188.0380  178.7250  141.7190 C   0  0  0  0  0  3  0  0  0  0  0  0
  188.4780  178.1500  147.2760 C   0  0  0  0  0  2  0  0  0  0  0  0
  188.1450  178.6290  148.6770 C   0  0  0  0  0  1  0  0  0  0  0  0
  184.7870  179.7780  139.9360 O   0  0  0  0  0  1  0  0  0  0  0  0
  185.5680  178.8810  140.3430 C   0  0  0  0  0  0  0  0  0  0  0  0
  186.3600  178.2100  139.4170 O   0  0  0  0  0  0  0  0  0  0  0  0
  180.8480  180.4280  135.6750 C   0  0  0  0  0  2  0  0  0  0  0  0
  182.2830  176.4670  134.5950 O   0  0  0  0  0  0  0  0  0  0  0  0
  182.4490  178.4750  135.7930 N   0  0  0  0  0  2  0  0  0  0  0  0
  181.1580  178.9830  135.4380 C   0  0  0  0  0  0  0  0  0  0  0  0
  182.9520  177.2010  135.3750 C   0  0  0  0  0  0  0  0  0  0  0  0
  180.3220  178.2440  134.8440 O   0  0  0  0  0  0  0  0  0  0  0  0
  184.2970  176.7160  135.8200 C   0  0  0  0  0  2  0  0  0  0  0  0
  185.4680  177.1700  134.9390 C   0  0  0  0  0  2  0  0  0  0  0  0
  186.6090  177.5220  135.6760 O   0  0  0  0  0  0  0  0  0  0  0  0
  189.8930  176.8460  136.8590 S   0  0  0  0  0  0  0  0  0  0  0  0
  187.4290  175.7940  137.0930 C   0  0  0  0  0  2  0  0  0  0  0  0
  188.8930  176.8010  135.3420 C   0  0  0  0  0  2  0  0  0  0  0  0
  187.4580  176.4040  135.6980 C   0  0  2  0  0  3  0  0  0  0  0  0
  188.8540  175.5180  137.5330 C   0  0  0  0  0  2  0  0  0  0  0  0
  181.4720  181.9830  138.2810 C   0  0  0  0  0  2  0  0  0  0  0  0
  182.6730  183.7600  138.5990 O   0  0  0  0  0  1  0  0  0  0  0  0
  181.6630  183.3100  137.8760 O   0  0  0  0  0  0  0  0  0  0  0  0
  1  3  2  0  0  0  0
  2 50  1  6  0  0  0
  2  5  1  0  0  0  0
  2  6  1  0  0  0  0
  3 26  1  0  0  0  0
  5  6  1  0  0  0  0
  5 64  1  0  0  0  0
  5  4  1  1  0  0  0
  6  1  2  0  0  0  0
  8  7  1  0  0  0  0
  9 11  1  0  0  0  0
 10  9  2  0  0  0  0
 10  8  1  0  0  0  0
 11  3  1  6  0  0  0
 11  7  1  0  0  0  0
 12  8  1  0  0  0  0
 13 14  1  6  0  0  0
 13 12  1  0  0  0  0
 15 13  1  0  0  0  0
 16 18  1  0  0  0  0
 16 15  1  0  0  0  0
 17 18  2  0  0  0  0
 18 19  1  0  0  0  0
 20 21  1  0  0  0  0
 21 19  1  0  0  0  0
 21 22  2  0  0  0  0
 23 25  2  0  0  0  0
 25 28  1  0  0  0  0
 25 24  1  0  0  0  0
 26 23  1  0  0  0  0
 26 27  1  0  0  0  0
 27 24  2  0  0  0  0
 29 28  2  0  0  0  0
 29 36  1  0  0  0  0
 31 43  2  0  0  0  0
 31 32  1  0  0  0  0
 32 35  1  0  0  0  0
 34 33  1  0  0  0  0
 34 30  2  0  0  0  0
 36 34  1  0  0  0  0
 37 42  2  0  0  0  0
 38 31  1  0  0  0  0
 39 37  1  0  0  0  0
 40 39  1  6  0  0  0
 40 30  1  0  0  0  0
 40 38  1  0  0  0  0
 41 39  2  0  0  0  0
 42 38  1  0  0  0  0
 44 41  1  0  0  0  0
 44 36  2  0  0  0  0
 45 32  1  0  0  0  0
 45 46  1  0  0  0  0
 47 48  1  0  0  0  0
 48 29  1  0  0  0  0
 49 48  2  0  0  0  0
 51 54  2  0  0  0  0
 53 50  1  0  0  0  0
 53 52  1  0  0  0  0
 54 52  1  0  0  0  0
 54 56  1  0  0  0  0
 55 53  2  0  0  0  0
 57 58  1  0  0  0  0
 57 56  1  0  0  0  0
 59 63  1  0  0  0  0
 60 63  1  0  0  0  0
 61 62  1  0  0  0  0
 61 59  1  0  0  0  0
 62 58  1  1  0  0  0
 62 60  1  0  0  0  0
 66 64  1  0  0  0  0
 66 65  1  0  0  0  0
M  END
>  <MODEL>
6

>  <REMARK>
 VINA RESULT:      -4.6      4.825      9.607
  Name = 
  21 active torsions:
  status: ('A' for Active; 'I' for Inactive)
    1  A    between atoms: C_5  and  C_11
    2  A    between atoms: C_5  and  C_32
    3  A    between atoms: N_8  and  C_26
    4  A    between atoms: O_10  and  C_43
    5  A    between atoms: C_11  and  N_47
    6  A    between atoms: N_12  and  C_41
    7  A    between atoms: C_14  and  C_44
    8  A    between atoms: C_14  and  C_51
    9  A    between atoms: O_18  and  C_38
   10  A    between atoms: O_18  and  C_44
   11  A    between atoms: C_19  and  CA_54
   12  A    between atoms: C_20  and  C_62
   13  A    between atoms: C_20  and  C_65
   14  A    between atoms: C_31  and  C_36
   15  A    between atoms: C_31  and  C_37
   16  A    between atoms: N_34  and  C_62
   17  A    between atoms: N_40  and  C_49
   18  A    between atoms: C_43  and  C_57
   19  A    between atoms: C_45  and  CA_54
   20  A    between atoms: N_47  and  C_65
   21  A    between atoms: C_49  and  C_58
                            x       y       z     vdW  Elec       q    Type
                         _______ _______ _______ _____ _____    ______ ____

>  <TORSDO>
F 21

$$$$
=
 OpenBabel10222420433D

 66 71  0  0  1  0  0  0  0  0999 V2000
  185.4360  177.9190  139.2970 C   0  0  0  0  0  0  0  0  0  0  0  0
  183.9280  177.6010  136.9950 C   0  0  2  0  0  3  0  0  0  0  0  0
  185.9940  178.0270  140.4780 C   0  0  0  0  0  0  0  0  0  0  0  0
  185.7930  178.9660  136.0250 C   0  0  0  0  0  1  0  0  0  0  0  0
  185.3160  177.6410  136.5880 C   0  0  1  0  0  0  0  0  0  0  0  0
  185.0030  177.7930  138.0760 C   0  0  0  0  0  0  0  0  0  0  0  0
  185.8790  179.5230  142.9380 S   0  0  0  0  0  0  0  0  0  0  0  0
  184.3280  179.5040  143.8180 N   0  0  0  0  0  0  0  0  0  0  0  0
  183.9500  178.1740  141.8610 C   0  0  0  0  0  3  0  0  0  0  0  0
  183.4370  178.7230  143.0590 N   0  0  0  0  0  2  0  0  0  0  0  0
  185.2010  178.5080  141.6370 C   0  0  0  0  0  0  0  0  0  0  0  0
  184.5240  178.8010  145.0800 C   0  0  0  0  0  2  0  0  0  0  0  0
  185.9480  178.9800  145.5950 C   0  0  1  0  0  3  0  0  0  0  0  0
  185.9280  179.5620  147.0020 C   0  0  0  0  0  1  0  0  0  0  0  0
  186.6310  177.6260  145.6250 C   0  0  0  0  0  2  0  0  0  0  0  0
  187.3090  177.4450  146.9030 N   0  0  0  0  0  2  0  0  0  0  0  0
  189.2650  178.3080  147.9260 C   0  0  0  0  0  2  0  0  0  0  0  0
  188.7280  177.4910  147.0320 C   0  0  0  0  0  0  0  0  0  0  0  0
  189.6030  176.5390  146.2700 C   0  0  0  0  0  2  0  0  0  0  0  0
  190.8090  178.1890  144.6600 C   0  0  0  0  0  1  0  0  0  0  0  0
  189.8940  177.0330  144.8830 C   0  0  0  0  0  0  0  0  0  0  0  0
  189.4700  176.3370  143.8350 C   0  0  0  0  0  2  0  0  0  0  0  0
  188.0780  176.8690  139.8480 C   0  0  0  0  0  3  0  0  0  0  0  0
  189.5920  178.0680  140.9830 C   0  0  0  0  0  3  0  0  0  0  0  0
  189.4180  177.0140  140.0940 C   0  0  0  0  0  0  0  0  0  0  0  0
  187.4050  177.7610  140.5970 N   0  0  0  0  0  0  0  0  0  0  0  0
  188.3100  178.5020  141.2820 C   0  0  0  0  0  3  0  0  0  0  0  0
  190.4200  176.3740  139.2870 N   0  0  0  0  0  0  0  0  0  0  0  0
  190.6920  176.4760  138.0100 C   0  0  0  0  0  0  0  0  0  0  0  0
  194.0760  175.1030  136.9200 N   0  0  0  0  0  0  0  0  0  0  0  0
  196.6400  173.8270  135.9140 C   0  0  0  0  0  0  0  0  0  0  0  0
  196.8330  175.1780  135.4700 N   0  0  0  0  0  0  0  0  0  0  0  0
  193.3300  177.1550  137.8340 F   0  0  0  0  0  0  0  0  0  0  0  0
  192.9940  175.9110  137.3990 C   0  0  2  0  0  3  0  0  0  0  0  0
  198.1580  175.7710  135.5810 C   0  0  0  0  0  1  0  0  0  0  0  0
  191.7010  175.5330  137.4660 C   0  0  0  0  0  0  0  0  0  0  0  0
  193.6130  171.6130  135.7580 C   0  0  0  0  0  3  0  0  0  0  0  0
  195.3410  173.2140  135.9080 N   0  0  0  0  0  0  0  0  0  0  0  0
  193.1320  172.9300  136.2770 C   0  0  0  0  0  0  0  0  0  0  0  0
  194.1240  173.7930  136.3580 C   0  0  0  0  0  0  0  0  0  0  0  0
  191.7490  173.0990  136.6930 C   0  0  0  0  0  3  0  0  0  0  0  0
  195.1220  171.8070  135.6230 C   0  0  0  0  0  3  0  0  0  0  0  0
  197.6390  173.1380  136.2650 O   0  0  0  0  0  0  0  0  0  0  0  0
  191.1630  174.1860  137.1820 C   0  0  0  0  0  3  0  0  0  0  0  0
  195.8570  175.8180  134.5940 C   0  0  0  0  0  2  0  0  0  0  0  0
  195.7770  177.3050  134.8810 C   0  0  0  0  0  1  0  0  0  0  0  0
  189.5400  178.5140  137.5810 O   0  0  0  0  0  1  0  0  0  0  0  0
  190.0340  177.4590  137.1070 C   0  0  0  0  0  0  0  0  0  0  0  0
  189.8790  177.1970  135.7500 O   0  0  0  0  0  0  0  0  0  0  0  0
  183.2880  176.2220  137.1430 C   0  0  0  0  0  2  0  0  0  0  0  0
  179.6570  176.5620  139.5130 O   0  0  0  0  0  0  0  0  0  0  0  0
  181.5260  177.4870  138.4420 N   0  0  0  0  0  2  0  0  0  0  0  0
  181.9210  176.2970  137.7510 C   0  0  0  0  0  0  0  0  0  0  0  0
  180.3690  177.5780  139.2820 C   0  0  0  0  0  0  0  0  0  0  0  0
  181.1640  175.2850  137.7350 O   0  0  0  0  0  0  0  0  0  0  0  0
  179.9920  178.8690  139.9410 C   0  0  0  0  0  2  0  0  0  0  0  0
  179.1290  179.8020  139.0820 C   0  0  0  0  0  2  0  0  0  0  0  0
  179.8750  180.7800  138.4090 O   0  0  0  0  0  0  0  0  0  0  0  0
  180.5210  182.7880  135.5460 S   0  0  0  0  0  0  0  0  0  0  0  0
  180.5450  180.1800  136.2040 C   0  0  0  0  0  2  0  0  0  0  0  0
  179.1560  182.2140  136.5990 C   0  0  0  0  0  2  0  0  0  0  0  0
  179.4500  180.7880  137.0700 C   0  0  2  0  0  3  0  0  0  0  0  0
  180.7630  181.0730  134.9980 C   0  0  0  0  0  2  0  0  0  0  0  0
  186.2670  176.4510  136.3250 C   0  0  0  0  0  2  0  0  0  0  0  0
  186.1960  174.5760  137.4130 O   0  0  0  0  0  1  0  0  0  0  0  0
  185.6650  175.1860  136.3680 O   0  0  0  0  0  0  0  0  0  0  0  0
  1  3  2  0  0  0  0
  2 50  1  1  0  0  0
  2  6  1  0  0  0  0
  3 26  1  0  0  0  0
  3 11  1  0  0  0  0
  5  4  1  6  0  0  0
  5  2  1  0  0  0  0
  5  6  1  0  0  0  0
  6  1  2  0  0  0  0
  7  8  1  0  0  0  0
  8 12  1  0  0  0  0
  9 10  1  0  0  0  0
 10  8  1  0  0  0  0
 11  9  2  0  0  0  0
 11  7  1  0  0  0  0
 12 13  1  0  0  0  0
 13 15  1  0  0  0  0
 13 14  1  1  0  0  0
 15 16  1  0  0  0  0
 16 18  1  0  0  0  0
 18 17  2  0  0  0  0
 19 18  1  0  0  0  0
 20 21  1  0  0  0  0
 21 19  1  0  0  0  0
 22 21  2  0  0  0  0
 23 25  2  0  0  0  0
 23 26  1  0  0  0  0
 24 27  2  0  0  0  0
 25 24  1  0  0  0  0
 26 27  1  0  0  0  0
 28 25  1  0  0  0  0
 29 28  2  0  0  0  0
 30 34  1  0  0  0  0
 31 43  2  0  0  0  0
 32 35  1  0  0  0  0
 32 31  1  0  0  0  0
 34 36  1  0  0  0  0
 34 33  1  1  0  0  0
 36 29  1  0  0  0  0
 37 39  1  0  0  0  0
 38 31  1  0  0  0  0
 38 40  1  0  0  0  0
 39 40  1  0  0  0  0
 39 41  2  0  0  0  0
 40 30  2  0  0  0  0
 41 44  1  0  0  0  0
 42 37  2  0  0  0  0
 42 38  1  0  0  0  0
 44 36  2  0  0  0  0
 45 46  1  0  0  0  0
 45 32  1  0  0  0  0
 48 47  1  0  0  0  0
 48 29  1  0  0  0  0
 49 48  2  0  0  0  0
 50 53  1  0  0  0  0
 52 54  1  0  0  0  0
 53 52  1  0  0  0  0
 54 51  2  0  0  0  0
 54 56  1  0  0  0  0
 55 53  2  0  0  0  0
 57 56  1  0  0  0  0
 58 57  1  0  0  0  0
 59 61  1  0  0  0  0
 60 62  1  0  0  0  0
 61 62  1  0  0  0  0
 62 58  1  1  0  0  0
 63 59  1  0  0  0  0
 63 60  1  0  0  0  0
 64 66  1  0  0  0  0
 64  5  1  0  0  0  0
 66 65  1  0  0  0  0
M  END
>  <MODEL>
7

>  <REMARK>
 VINA RESULT:      -4.5      1.545      2.004
  Name = 
  21 active torsions:
  status: ('A' for Active; 'I' for Inactive)
    1  A    between atoms: C_5  and  C_11
    2  A    between atoms: C_5  and  C_32
    3  A    between atoms: N_8  and  C_26
    4  A    between atoms: O_10  and  C_43
    5  A    between atoms: C_11  and  N_47
    6  A    between atoms: N_12  and  C_41
    7  A    between atoms: C_14  and  C_44
    8  A    between atoms: C_14  and  C_51
    9  A    between atoms: O_18  and  C_38
   10  A    between atoms: O_18  and  C_44
   11  A    between atoms: C_19  and  CA_54
   12  A    between atoms: C_20  and  C_62
   13  A    between atoms: C_20  and  C_65
   14  A    between atoms: C_31  and  C_36
   15  A    between atoms: C_31  and  C_37
   16  A    between atoms: N_34  and  C_62
   17  A    between atoms: N_40  and  C_49
   18  A    between atoms: C_43  and  C_57
   19  A    between atoms: C_45  and  CA_54
   20  A    between atoms: N_47  and  C_65
   21  A    between atoms: C_49  and  C_58
                            x       y       z     vdW  Elec       q    Type
                         _______ _______ _______ _____ _____    ______ ____

>  <TORSDO>
F 21

$$$$
=
 OpenBabel10222420433D

 66 71  0  0  1  0  0  0  0  0999 V2000
  190.3010  176.7790  140.2920 C   0  0  0  0  0  0  0  0  0  0  0  0
  191.4220  175.6670  138.0160 C   0  0  2  0  0  3  0  0  0  0  0  0
  189.9440  177.3490  141.4170 C   0  0  0  0  0  0  0  0  0  0  0  0
  189.2240  174.4650  137.9660 C   0  0  0  0  0  1  0  0  0  0  0  0
  189.9970  175.7560  137.7840 C   0  0  1  0  0  0  0  0  0  0  0  0
  190.5320  176.2340  139.1330 C   0  0  0  0  0  0  0  0  0  0  0  0
  191.0290  175.8280  143.6110 S   0  0  0  0  0  0  0  0  0  0  0  0
  192.1310  176.6880  144.7180 N   0  0  0  0  0  0  0  0  0  0  0  0
  191.5130  178.3130  143.0690 C   0  0  0  0  0  3  0  0  0  0  0  0
  192.2480  178.0050  144.2360 N   0  0  0  0  0  2  0  0  0  0  0  0
  190.8370  177.2860  142.6010 C   0  0  0  0  0  0  0  0  0  0  0  0
  191.4900  176.7800  146.0240 C   0  0  0  0  0  2  0  0  0  0  0  0
  189.9720  176.7480  145.8970 C   0  0  1  0  0  3  0  0  0  0  0  0
  189.3680  175.9140  147.0190 C   0  0  0  0  0  1  0  0  0  0  0  0
  189.4430  178.1660  145.9890 C   0  0  0  0  0  2  0  0  0  0  0  0
  187.9870  178.1450  146.0580 N   0  0  0  0  0  0  0  0  0  0  0  0
  187.9300  178.3610  148.4170 C   0  0  0  0  0  1  0  0  0  0  0  0
  187.2720  178.3830  147.2680 C   0  0  0  0  0  0  0  0  0  0  0  0
  185.8250  178.7830  147.2430 C   0  0  0  0  0  2  0  0  0  0  0  0
  185.2040  177.1450  145.3210 C   0  0  0  0  0  1  0  0  0  0  0  0
  185.1910  178.5140  145.9100 C   0  0  0  0  0  0  0  0  0  0  0  0
  184.4680  179.4600  145.3240 C   0  0  0  0  0  2  0  0  0  0  0  0
  187.8370  178.1770  140.4410 C   0  0  0  0  0  3  0  0  0  0  0  0
  186.6230  178.5350  142.2890 C   0  0  0  0  0  3  0  0  0  0  0  0
  186.6080  178.5730  140.9000 C   0  0  0  0  0  0  0  0  0  0  0  0
  188.6370  177.9460  141.4980 N   0  0  0  0  0  0  0  0  0  0  0  0
  187.9100  178.1490  142.6250 C   0  0  0  0  0  3  0  0  0  0  0  0
  185.4630  178.6730  140.0390 N   0  0  0  0  0  0  0  0  0  0  0  0
  184.1810  178.6770  140.3070 C   0  0  0  0  0  0  0  0  0  0  0  0
  182.0780  177.2290  137.4780 N   0  0  0  0  0  0  0  0  0  0  0  0
  180.3920  176.3180  135.1240 C   0  0  0  0  0  0  0  0  0  0  0  0
  181.5230  175.4470  134.9820 N   0  0  0  0  0  0  0  0  0  0  0  0
  183.5410  176.3150  139.1000 F   0  0  0  0  0  0  0  0  0  0  0  0
  182.9670  177.4350  138.5830 C   0  0  2  0  0  3  0  0  0  0  0  0
  181.2980  174.0590  134.6070 C   0  0  0  0  0  1  0  0  0  0  0  0
  183.2560  178.6250  139.1470 C   0  0  0  0  0  0  0  0  0  0  0  0
  180.2180  179.9960  135.8580 C   0  0  0  0  0  3  0  0  0  0  0  0
  180.5420  177.6750  135.5720 N   0  0  0  0  0  0  0  0  0  0  0  0
  181.1890  179.4260  136.8410 C   0  0  0  0  0  0  0  0  0  0  0  0
  181.3350  178.1300  136.6590 C   0  0  0  0  0  0  0  0  0  0  0  0
  181.7670  180.2670  137.8770 C   0  0  0  0  0  3  0  0  0  0  0  0
  179.7210  178.7710  135.0900 C   0  0  0  0  0  3  0  0  0  0  0  0
  179.2440  175.9070  134.7930 O   0  0  0  0  0  0  0  0  0  0  0  0
  182.6280  179.9250  138.8290 C   0  0  0  0  0  3  0  0  0  0  0  0
  182.8690  175.9940  134.8420 C   0  0  0  0  0  2  0  0  0  0  0  0
  183.9080  174.9620  135.2400 C   0  0  0  0  0  1  0  0  0  0  0  0
  183.5590  177.6540  142.3650 O   0  0  0  0  0  1  0  0  0  0  0  0
  183.6330  178.7130  141.6910 C   0  0  0  0  0  0  0  0  0  0  0  0
  183.1190  179.8880  142.2300 O   0  0  0  0  0  0  0  0  0  0  0  0
  192.2920  176.7790  137.4340 C   0  0  0  0  0  2  0  0  0  0  0  0
  196.3590  175.3110  136.9650 O   0  0  0  0  0  0  0  0  0  0  0  0
  194.0990  175.0130  137.5110 N   0  0  0  0  0  2  0  0  0  0  0  0
  193.6480  176.2850  137.0350 C   0  0  0  0  0  0  0  0  0  0  0  0
  195.4550  174.5590  137.4240 C   0  0  0  0  0  0  0  0  0  0  0  0
  194.4200  177.0270  136.3630 O   0  0  0  0  0  0  0  0  0  0  0  0
  195.8470  173.1960  137.9060 C   0  0  0  0  0  2  0  0  0  0  0  0
  194.9820  172.0490  137.3660 C   0  0  0  0  0  2  0  0  0  0  0  0
  193.6220  172.3810  137.2700 O   0  0  0  0  0  0  0  0  0  0  0  0
  192.6810  170.1600  134.6590 S   0  0  0  0  0  0  0  0  0  0  0  0
  191.8030  172.4620  135.7360 C   0  0  0  0  0  2  0  0  0  0  0  0
  193.9560  171.3780  135.0950 C   0  0  0  0  0  2  0  0  0  0  0  0
  193.3160  172.5080  135.9050 C   0  0  2  0  0  3  0  0  0  0  0  0
  191.4680  171.5100  134.6040 C   0  0  0  0  0  2  0  0  0  0  0  0
  189.2190  176.8740  137.0520 C   0  0  0  0  0  2  0  0  0  0  0  0
  189.2170  177.0230  134.8880 O   0  0  0  0  0  1  0  0  0  0  0  0
  188.5510  176.4710  135.8880 O   0  0  0  0  0  0  0  0  0  0  0  0
  1  3  2  0  0  0  0
  2 50  1  6  0  0  0
  2  6  1  0  0  0  0
  3 26  1  0  0  0  0
  3 11  1  0  0  0  0
  5  4  1  1  0  0  0
  5  2  1  0  0  0  0
  5  6  1  0  0  0  0
  6  1  2  0  0  0  0
  7  8  1  0  0  0  0
  8 12  1  0  0  0  0
  9 10  1  0  0  0  0
 10  8  1  0  0  0  0
 11  9  2  0  0  0  0
 11  7  1  0  0  0  0
 13 15  1  0  0  0  0
 13 12  1  0  0  0  0
 13 14  1  1  0  0  0
 15 16  1  0  0  0  0
 16 18  2  0  0  0  0
 18 17  1  0  0  0  0
 19 18  1  0  0  0  0
 20 21  1  0  0  0  0
 21 19  1  0  0  0  0
 22 21  2  0  0  0  0
 23 25  2  0  0  0  0
 23 26  1  0  0  0  0
 24 27  2  0  0  0  0
 25 24  1  0  0  0  0
 26 27  1  0  0  0  0
 28 29  2  0  0  0  0
 28 25  1  0  0  0  0
 29 48  1  0  0  0  0
 30 34  1  0  0  0  0
 31 38  1  0  0  0  0
 32 31  1  0  0  0  0
 34 33  1  1  0  0  0
 34 36  1  0  0  0  0
 35 32  1  0  0  0  0
 36 29  1  0  0  0  0
 37 39  1  0  0  0  0
 38 40  1  0  0  0  0
 39 41  2  0  0  0  0
 40 39  1  0  0  0  0
 40 30  2  0  0  0  0
 41 44  1  0  0  0  0
 42 38  1  0  0  0  0
 42 37  2  0  0  0  0
 43 31  2  0  0  0  0
 44 36  2  0  0  0  0
 45 32  1  0  0  0  0
 45 46  1  0  0  0  0
 48 49  2  0  0  0  0
 48 47  1  0  0  0  0
 51 54  2  0  0  0  0
 53 50  1  0  0  0  0
 53 52  1  0  0  0  0
 54 52  1  0  0  0  0
 54 56  1  0  0  0  0
 55 53  2  0  0  0  0
 57 56  1  0  0  0  0
 58 57  1  0  0  0  0
 59 61  1  0  0  0  0
 60 62  1  0  0  0  0
 61 62  1  0  0  0  0
 62 58  1  1  0  0  0
 63 59  1  0  0  0  0
 63 60  1  0  0  0  0
 64  5  1  0  0  0  0
 65 66  1  0  0  0  0
 66 64  1  0  0  0  0
M  END
>  <MODEL>
8

>  <REMARK>
 VINA RESULT:      -4.3      3.174     10.920
  Name = 
  21 active torsions:
  status: ('A' for Active; 'I' for Inactive)
    1  A    between atoms: C_5  and  C_11
    2  A    between atoms: C_5  and  C_32
    3  A    between atoms: N_8  and  C_26
    4  A    between atoms: O_10  and  C_43
    5  A    between atoms: C_11  and  N_47
    6  A    between atoms: N_12  and  C_41
    7  A    between atoms: C_14  and  C_44
    8  A    between atoms: C_14  and  C_51
    9  A    between atoms: O_18  and  C_38
   10  A    between atoms: O_18  and  C_44
   11  A    between atoms: C_19  and  CA_54
   12  A    between atoms: C_20  and  C_62
   13  A    between atoms: C_20  and  C_65
   14  A    between atoms: C_31  and  C_36
   15  A    between atoms: C_31  and  C_37
   16  A    between atoms: N_34  and  C_62
   17  A    between atoms: N_40  and  C_49
   18  A    between atoms: C_43  and  C_57
   19  A    between atoms: C_45  and  CA_54
   20  A    between atoms: N_47  and  C_65
   21  A    between atoms: C_49  and  C_58
                            x       y       z     vdW  Elec       q    Type
                         _______ _______ _______ _____ _____    ______ ____

>  <TORSDO>
F 21

$$$$
=
 OpenBabel10222420433D

 66 71  0  0  1  0  0  0  0  0999 V2000
  189.9990  176.9080  139.2790 C   0  0  0  0  0  0  0  0  0  0  0  0
  191.5190  175.4760  137.4580 C   0  0  2  0  0  3  0  0  0  0  0  0
  189.4410  177.6580  140.1970 C   0  0  0  0  0  0  0  0  0  0  0  0
  189.4640  174.0420  137.4280 C   0  0  0  0  0  1  0  0  0  0  0  0
  190.1370  175.3470  137.0490 C   0  0  1  0  0  0  0  0  0  0  0  0
  190.4360  176.1600  138.3080 C   0  0  0  0  0  0  0  0  0  0  0  0
  191.8290  177.4050  141.7910 S   0  0  0  0  0  0  0  0  0  0  0  0
  191.7820  178.1130  143.4270 N   0  0  0  0  0  0  0  0  0  0  0  0
  189.6280  178.5800  142.4850 C   0  0  0  0  0  3  0  0  0  0  0  0
  190.5080  178.6920  143.5850 N   0  0  0  0  0  2  0  0  0  0  0  0
  190.1640  177.9540  141.4600 C   0  0  0  0  0  0  0  0  0  0  0  0
  191.8690  177.0300  144.3990 C   0  0  0  0  0  2  0  0  0  0  0  0
  190.5600  176.8690  145.1630 C   0  0  1  0  0  3  0  0  0  0  0  0
  189.6260  175.9290  144.4140 C   0  0  0  0  0  1  0  0  0  0  0  0
  190.8610  176.2870  146.5310 C   0  0  0  0  0  2  0  0  0  0  0  0
  190.3230  177.1600  147.5670 N   0  0  0  0  0  2  0  0  0  0  0  0
  188.8240  178.9860  147.7570 C   0  0  0  0  0  2  0  0  0  0  0  0
  189.0030  177.6970  147.5090 C   0  0  0  0  0  0  0  0  0  0  0  0
  187.8470  176.8570  147.0480 C   0  0  0  0  0  2  0  0  0  0  0  0
  185.7200  178.3530  146.9850 C   0  0  0  0  0  1  0  0  0  0  0  0
  186.8390  177.6630  146.2820 C   0  0  0  0  0  0  0  0  0  0  0  0
  187.0350  177.9050  144.9920 C   0  0  0  0  0  2  0  0  0  0  0  0
  187.3060  177.7140  138.9650 C   0  0  0  0  0  3  0  0  0  0  0  0
  186.0070  178.8240  140.4140 C   0  0  0  0  0  3  0  0  0  0  0  0
  186.0350  178.1750  139.1850 C   0  0  0  0  0  0  0  0  0  0  0  0
  188.0870  178.1020  139.9900 N   0  0  0  0  0  0  0  0  0  0  0  0
  187.3100  178.7670  140.8810 C   0  0  0  0  0  3  0  0  0  0  0  0
  184.9140  177.7390  138.4000 N   0  0  0  0  0  0  0  0  0  0  0  0
  183.6770  178.1670  138.3510 C   0  0  0  0  0  0  0  0  0  0  0  0
  181.8390  175.1320  136.9610 N   0  0  0  0  0  0  0  0  0  0  0  0
  180.2970  172.8680  135.6550 C   0  0  0  0  0  0  0  0  0  0  0  0
  181.6010  172.2760  135.7390 N   0  0  0  0  0  0  0  0  0  0  0  0
  183.5830  175.4460  138.5310 F   0  0  0  0  0  0  0  0  0  0  0  0
  182.7130  176.0260  137.6610 C   0  0  2  0  0  3  0  0  0  0  0  0
  181.7120  170.8710  136.1070 C   0  0  0  0  0  1  0  0  0  0  0  0
  182.7250  177.3690  137.5380 C   0  0  0  0  0  0  0  0  0  0  0  0
  179.2410  176.3100  134.5940 C   0  0  0  0  0  3  0  0  0  0  0  0
  180.1250  174.2670  135.3780 N   0  0  0  0  0  0  0  0  0  0  0  0
  180.3840  176.5030  135.5380 C   0  0  0  0  0  0  0  0  0  0  0  0
  180.8430  175.3450  135.9630 C   0  0  0  0  0  0  0  0  0  0  0  0
  180.7940  177.8410  135.9360 C   0  0  0  0  0  3  0  0  0  0  0  0
  179.0250  174.7980  134.5940 C   0  0  0  0  0  3  0  0  0  0  0  0
  179.2720  172.1370  135.7670 O   0  0  0  0  0  0  0  0  0  0  0  0
  181.7700  178.1900  136.7650 C   0  0  0  0  0  3  0  0  0  0  0  0
  182.7530  172.9240  135.1210 C   0  0  0  0  0  2  0  0  0  0  0  0
  183.9650  172.8390  136.0300 C   0  0  0  0  0  1  0  0  0  0  0  0
  183.5920  180.5180  138.7180 O   0  0  0  0  0  0  0  0  0  0  0  0
  183.1990  179.3780  139.0740 C   0  0  0  0  0  0  0  0  0  0  0  0
  182.3850  179.2700  140.1970 O   0  0  0  0  0  1  0  0  0  0  0  0
  192.3580  176.5330  136.7430 C   0  0  0  0  0  2  0  0  0  0  0  0
  195.6890  174.3950  134.9400 O   0  0  0  0  0  0  0  0  0  0  0  0
  193.4900  174.5040  135.7470 N   0  0  0  0  0  2  0  0  0  0  0  0
  193.4530  175.9240  135.9230 C   0  0  0  0  0  0  0  0  0  0  0  0
  194.6160  173.7910  135.2210 C   0  0  0  0  0  0  0  0  0  0  0  0
  194.3850  176.6500  135.4730 O   0  0  0  0  0  0  0  0  0  0  0  0
  194.5690  172.3070  135.0250 C   0  0  0  0  0  2  0  0  0  0  0  0
  195.2970  171.4920  136.1010 C   0  0  0  0  0  2  0  0  0  0  0  0
  195.5670  172.2300  137.2640 O   0  0  0  0  0  0  0  0  0  0  0  0
  198.6440  172.4080  135.4920 S   0  0  0  0  0  0  0  0  0  0  0  0
  197.5830  173.3960  137.7570 C   0  0  0  0  0  2  0  0  0  0  0  0
  197.6350  171.2580  136.4730 C   0  0  0  0  0  2  0  0  0  0  0  0
  196.9220  172.0360  137.5810 C   0  0  2  0  0  3  0  0  0  0  0  0
  198.8910  173.4040  136.9910 C   0  0  0  0  0  2  0  0  0  0  0  0
  189.3710  176.1840  135.9990 C   0  0  0  0  0  2  0  0  0  0  0  0
  190.2150  174.6310  134.7420 O   0  0  0  0  0  1  0  0  0  0  0  0
  189.4370  175.6980  134.6870 O   0  0  0  0  0  0  0  0  0  0  0  0
  1  3  2  0  0  0  0
  2 50  1  6  0  0  0
  2  6  1  0  0  0  0
  3 11  1  0  0  0  0
  5  4  1  1  0  0  0
  5  2  1  0  0  0  0
  5  6  1  0  0  0  0
  6  1  2  0  0  0  0
  7  8  1  0  0  0  0
  8 10  1  0  0  0  0
  8 12  1  0  0  0  0
  9 10  1  0  0  0  0
 11  7  1  0  0  0  0
 11  9  2  0  0  0  0
 12 13  1  0  0  0  0
 13 14  1  6  0  0  0
 13 15  1  0  0  0  0
 15 16  1  0  0  0  0
 18 16  1  0  0  0  0
 18 17  2  0  0  0  0
 19 18  1  0  0  0  0
 21 20  1  0  0  0  0
 21 19  1  0  0  0  0
 22 21  2  0  0  0  0
 23 25  2  0  0  0  0
 23 26  1  0  0  0  0
 24 27  2  0  0  0  0
 25 24  1  0  0  0  0
 26  3  1  0  0  0  0
 26 27  1  0  0  0  0
 28 25  1  0  0  0  0
 29 28  2  0  0  0  0
 29 48  1  0  0  0  0
 30 34  1  0  0  0  0
 31 32  1  0  0  0  0
 31 43  2  0  0  0  0
 32 35  1  0  0  0  0
 34 33  1  1  0  0  0
 36 34  1  0  0  0  0
 36 29  1  0  0  0  0
 37 42  2  0  0  0  0
 37 39  1  0  0  0  0
 38 31  1  0  0  0  0
 38 40  1  0  0  0  0
 39 41  2  0  0  0  0
 39 40  1  0  0  0  0
 40 30  2  0  0  0  0
 41 44  1  0  0  0  0
 42 38  1  0  0  0  0
 44 36  2  0  0  0  0
 45 32  1  0  0  0  0
 45 46  1  0  0  0  0
 47 48  2  0  0  0  0
 48 49  1  0  0  0  0
 51 54  2  0  0  0  0
 52 53  1  0  0  0  0
 53 50  1  0  0  0  0
 54 52  1  0  0  0  0
 55 53  2  0  0  0  0
 56 54  1  0  0  0  0
 56 57  1  0  0  0  0
 57 58  1  0  0  0  0
 59 61  1  0  0  0  0
 59 63  1  0  0  0  0
 61 62  1  0  0  0  0
 62 58  1  6  0  0  0
 62 60  1  0  0  0  0
 63 60  1  0  0  0  0
 64  5  1  0  0  0  0
 66 65  1  0  0  0  0
 66 64  1  0  0  0  0
M  END
>  <MODEL>
9

>  <REMARK>
 VINA RESULT:      -4.2      3.229     11.137
  Name = 
  21 active torsions:
  status: ('A' for Active; 'I' for Inactive)
    1  A    between atoms: C_5  and  C_11
    2  A    between atoms: C_5  and  C_32
    3  A    between atoms: N_8  and  C_26
    4  A    between atoms: O_10  and  C_43
    5  A    between atoms: C_11  and  N_47
    6  A    between atoms: N_12  and  C_41
    7  A    between atoms: C_14  and  C_44
    8  A    between atoms: C_14  and  C_51
    9  A    between atoms: O_18  and  C_38
   10  A    between atoms: O_18  and  C_44
   11  A    between atoms: C_19  and  CA_54
   12  A    between atoms: C_20  and  C_62
   13  A    between atoms: C_20  and  C_65
   14  A    between atoms: C_31  and  C_36
   15  A    between atoms: C_31  and  C_37
   16  A    between atoms: N_34  and  C_62
   17  A    between atoms: N_40  and  C_49
   18  A    between atoms: C_43  and  C_57
   19  A    between atoms: C_45  and  CA_54
   20  A    between atoms: N_47  and  C_65
   21  A    between atoms: C_49  and  C_58
                            x       y       z     vdW  Elec       q    Type
                         _______ _______ _______ _____ _____    ______ ____

>  <TORSDO>
F 21

$$$$
