=
 OpenBabel10222416423D

 30 32  0  0  1  0  0  0  0  0999 V2000
  189.0250  177.6350  144.5630 C   0  0  0  0  0  0  0  0  0  0  0  0
  187.7990  177.8480  143.9150 C   0  0  0  0  0  3  0  0  0  0  0  0
  189.0730  177.6200  145.9590 C   0  0  0  0  0  3  0  0  0  0  0  0
  187.9100  177.8240  146.7050 C   0  0  0  0  0  0  0  0  0  0  0  0
  186.6920  178.0430  146.0550 C   0  0  0  0  0  3  0  0  0  0  0  0
  186.6220  178.0580  144.6530 C   0  0  0  0  0  0  0  0  0  0  0  0
  185.2260  178.1440  142.5740 C   0  0  0  0  0  3  0  0  0  0  0  0
  184.0110  178.3660  141.9060 C   0  0  0  0  0  0  0  0  0  0  0  0
  182.9820  178.8960  144.0400 C   0  0  0  0  0  3  0  0  0  0  0  0
  184.1970  178.6770  144.6890 C   0  0  0  0  0  3  0  0  0  0  0  0
  182.8690  178.7440  142.6550 C   0  0  0  0  0  0  0  0  0  0  0  0
  185.3320  178.2950  143.9640 C   0  0  0  0  0  0  0  0  0  0  0  0
  180.5140  179.5460  142.7260 C   0  0  0  0  0  2  0  0  0  0  0  0
  181.5320  178.9960  142.0760 C   0  0  0  0  0  3  0  0  0  0  0  0
  183.9420  178.2010  140.4860 N   0  0  0  0  0  2  0  0  0  0  0  0
  184.0730  179.3050  139.5470 C   0  0  0  0  0  1  0  0  0  0  0  0
  190.2820  177.4060  143.7860 C   0  0  1  0  0  3  0  0  0  0  0  0
  191.3880  177.4780  144.6340 O   0  0  0  0  0  1  0  0  0  0  0  0
  190.2500  176.0760  143.0880 C   0  0  0  0  0  3  0  0  0  0  0  0
  190.4780  175.9350  141.8270 N   0  0  0  0  0  0  0  0  0  0  0  0
  190.7670  177.0450  140.9550 C   0  0  0  0  0  2  0  0  0  0  0  0
  187.5950  177.4980  138.1530 N   0  0  0  0  0  0  0  0  0  0  0  0
  189.6510  176.4540  138.7780 C   0  0  0  0  0  0  0  0  0  0  0  0
  188.5950  176.6180  137.8790 C   0  0  0  0  0  3  0  0  0  0  0  0
  187.5890  178.2340  139.2980 C   0  0  0  0  0  3  0  0  0  0  0  0
  190.6680  175.5510  138.4900 O   0  0  0  0  0  1  0  0  0  0  0  0
  189.6670  177.2060  139.9610 C   0  0  0  0  0  0  0  0  0  0  0  0
  188.6250  178.0990  140.2240 C   0  0  0  0  0  3  0  0  0  0  0  0
  187.9990  177.7880  149.2960 N   0  0  0  0  0  0  0  0  0  0  0  0
  187.9620  177.8040  148.1390 C   0  0  0  0  0  0  0  0  0  0  0  0
  1  3  1  0  0  0  0
  2  1  2  0  0  0  0
  2  6  1  0  0  0  0
  3  4  2  0  0  0  0
  4 30  1  0  0  0  0
  5  4  1  0  0  0  0
  6  5  2  0  0  0  0
  7 12  1  0  0  0  0
  8  7  2  0  0  0  0
  8 11  1  0  0  0  0
  9 10  1  0  0  0  0
 11  9  2  0  0  0  0
 12  6  1  0  0  0  0
 12 10  2  0  0  0  0
 14 11  1  0  0  0  0
 14 13  2  0  0  0  0
 15  8  1  0  0  0  0
 16 15  1  0  0  0  0
 17  1  1  0  0  0  0
 17 18  1  1  0  0  0
 19 17  1  0  0  0  0
 20 19  2  0  0  0  0
 21 20  1  0  0  0  0
 22 25  1  0  0  0  0
 23 27  2  0  0  0  0
 24 22  2  0  0  0  0
 24 23  1  0  0  0  0
 25 28  2  0  0  0  0
 26 23  1  0  0  0  0
 27 28  1  0  0  0  0
 27 21  1  0  0  0  0
 30 29  3  0  0  0  0
M  END
>  <MODEL>
1

>  <REMARK>
 VINA RESULT:      -9.0      0.000      0.000
  Name = 
  8 active torsions:
  status: ('A' for Active; 'I' for Inactive)
    1  A    between atoms: C_1  and  N_16
    2  A    between atoms: C_1  and  C_25
    3  A    between atoms: N_4  and  C_9
    4  A    between atoms: C_6  and  C_10
    5  A    between atoms: C_8  and  C_10
    6  A    between atoms: C_13  and  C_22
    7  A    between atoms: C_20  and  C_30
    8  A    between atoms: C_26  and  C_29
                            x       y       z     vdW  Elec       q    Type
                         _______ _______ _______ _____ _____    ______ ____

>  <TORSDO>
F 8

$$$$
=
 OpenBabel10222416423D

 30 32  0  0  1  0  0  0  0  0999 V2000
  189.0110  177.4720  144.6960 C   0  0  0  0  0  0  0  0  0  0  0  0
  187.7710  177.7020  144.0810 C   0  0  0  0  0  3  0  0  0  0  0  0
  189.1150  177.5470  146.0870 C   0  0  0  0  0  3  0  0  0  0  0  0
  187.9940  177.8560  146.8610 C   0  0  0  0  0  0  0  0  0  0  0  0
  186.7620  178.0910  146.2430 C   0  0  0  0  0  3  0  0  0  0  0  0
  186.6360  178.0170  144.8470 C   0  0  0  0  0  0  0  0  0  0  0  0
  185.2020  178.1820  142.7990 C   0  0  0  0  0  3  0  0  0  0  0  0
  183.9730  178.4220  142.1630 C   0  0  0  0  0  0  0  0  0  0  0  0
  182.9770  178.8430  144.3370 C   0  0  0  0  0  3  0  0  0  0  0  0
  184.2050  178.6080  144.9540 C   0  0  0  0  0  3  0  0  0  0  0  0
  182.8410  178.7530  142.9480 C   0  0  0  0  0  0  0  0  0  0  0  0
  185.3310  178.2710  144.1920 C   0  0  0  0  0  0  0  0  0  0  0  0
  180.3540  178.7430  143.0310 C   0  0  0  0  0  2  0  0  0  0  0  0
  181.4910  179.0160  142.4060 C   0  0  0  0  0  3  0  0  0  0  0  0
  183.8800  178.3200  140.7380 N   0  0  0  0  0  2  0  0  0  0  0  0
  184.8490  178.9170  139.8320 C   0  0  0  0  0  1  0  0  0  0  0  0
  190.2230  177.1320  143.8900 C   0  0  1  0  0  3  0  0  0  0  0  0
  191.2830  176.8000  144.7360 O   0  0  0  0  0  1  0  0  0  0  0  0
  189.9410  175.9970  142.9460 C   0  0  0  0  0  3  0  0  0  0  0  0
  190.2160  176.0420  141.6870 N   0  0  0  0  0  0  0  0  0  0  0  0
  190.8050  177.1970  141.0540 C   0  0  0  0  0  2  0  0  0  0  0  0
  189.1290  177.7730  137.1840 N   0  0  0  0  0  0  0  0  0  0  0  0
  189.0010  178.0970  139.5480 C   0  0  0  0  0  0  0  0  0  0  0  0
  188.4760  178.2760  138.2660 C   0  0  0  0  0  3  0  0  0  0  0  0
  190.2990  177.0910  137.3130 C   0  0  0  0  0  3  0  0  0  0  0  0
  188.3270  178.6160  140.6480 O   0  0  0  0  0  1  0  0  0  0  0  0
  190.2030  177.3930  139.7040 C   0  0  0  0  0  0  0  0  0  0  0  0
  190.8590  176.8910  138.5770 C   0  0  0  0  0  3  0  0  0  0  0  0
  188.1900  177.9910  149.4430 N   0  0  0  0  0  0  0  0  0  0  0  0
  188.1030  177.9280  148.2900 C   0  0  0  0  0  0  0  0  0  0  0  0
  1  3  1  0  0  0  0
  2  1  2  0  0  0  0
  2  6  1  0  0  0  0
  3  4  2  0  0  0  0
  4 30  1  0  0  0  0
  5  4  1  0  0  0  0
  6  5  2  0  0  0  0
  7 12  1  0  0  0  0
  8  7  2  0  0  0  0
  8 11  1  0  0  0  0
  9 10  1  0  0  0  0
 11  9  2  0  0  0  0
 12  6  1  0  0  0  0
 12 10  2  0  0  0  0
 14 11  1  0  0  0  0
 14 13  2  0  0  0  0
 15  8  1  0  0  0  0
 16 15  1  0  0  0  0
 17  1  1  0  0  0  0
 17 18  1  1  0  0  0
 19 17  1  0  0  0  0
 20 19  2  0  0  0  0
 21 20  1  0  0  0  0
 22 25  2  0  0  0  0
 22 24  1  0  0  0  0
 23 27  1  0  0  0  0
 23 26  1  0  0  0  0
 24 23  2  0  0  0  0
 25 28  1  0  0  0  0
 27 21  1  0  0  0  0
 28 27  2  0  0  0  0
 30 29  3  0  0  0  0
M  END
>  <MODEL>
2

>  <REMARK>
 VINA RESULT:      -9.0      1.062      1.356
  Name = 
  8 active torsions:
  status: ('A' for Active; 'I' for Inactive)
    1  A    between atoms: C_1  and  N_16
    2  A    between atoms: C_1  and  C_25
    3  A    between atoms: N_4  and  C_9
    4  A    between atoms: C_6  and  C_10
    5  A    between atoms: C_8  and  C_10
    6  A    between atoms: C_13  and  C_22
    7  A    between atoms: C_20  and  C_30
    8  A    between atoms: C_26  and  C_29
                            x       y       z     vdW  Elec       q    Type
                         _______ _______ _______ _____ _____    ______ ____

>  <TORSDO>
F 8

$$$$
=
 OpenBabel10222416423D

 30 32  0  0  1  0  0  0  0  0999 V2000
  182.8580  178.5890  141.3890 C   0  0  0  0  0  0  0  0  0  0  0  0
  183.9710  178.4430  142.2300 C   0  0  0  0  0  3  0  0  0  0  0  0
  181.5950  178.8030  141.9470 C   0  0  0  0  0  3  0  0  0  0  0  0
  181.4410  178.8640  143.3340 C   0  0  0  0  0  0  0  0  0  0  0  0
  182.5510  178.7110  144.1680 C   0  0  0  0  0  3  0  0  0  0  0  0
  183.8300  178.4980  143.6270 C   0  0  0  0  0  0  0  0  0  0  0  0
  186.2300  177.8840  143.9950 C   0  0  0  0  0  3  0  0  0  0  0  0
  187.3540  177.7180  144.8200 C   0  0  0  0  0  0  0  0  0  0  0  0
  186.0240  178.4620  146.7110 C   0  0  0  0  0  3  0  0  0  0  0  0
  184.9150  178.6160  145.8790 C   0  0  0  0  0  3  0  0  0  0  0  0
  187.2490  178.0180  146.2010 C   0  0  0  0  0  0  0  0  0  0  0  0
  185.0060  178.3320  144.5110 C   0  0  0  0  0  0  0  0  0  0  0  0
  188.2290  178.0170  148.4880 C   0  0  0  0  0  2  0  0  0  0  0  0
  188.3560  177.8980  147.1730 C   0  0  0  0  0  3  0  0  0  0  0  0
  188.5870  177.2600  144.2560 N   0  0  0  0  0  2  0  0  0  0  0  0
  188.6660  176.1840  143.2790 C   0  0  0  0  0  1  0  0  0  0  0  0
  182.9990  178.5350  139.9010 C   0  0  1  0  0  3  0  0  0  0  0  0
  181.7400  178.5730  139.2990 O   0  0  0  0  0  1  0  0  0  0  0  0
  183.8480  179.6690  139.3990 C   0  0  0  0  0  3  0  0  0  0  0  0
  184.9330  179.4940  138.7260 N   0  0  0  0  0  0  0  0  0  0  0  0
  185.4530  178.1880  138.4030 C   0  0  0  0  0  2  0  0  0  0  0  0
  189.6740  178.1890  138.9560 N   0  0  0  0  0  0  0  0  0  0  0  0
  187.7940  178.1940  137.4800 C   0  0  0  0  0  0  0  0  0  0  0  0
  189.1750  178.1990  137.6910 C   0  0  0  0  0  3  0  0  0  0  0  0
  188.8550  178.1760  140.0430 C   0  0  0  0  0  3  0  0  0  0  0  0
  187.2940  178.2060  136.1830 O   0  0  0  0  0  1  0  0  0  0  0  0
  186.9330  178.1760  138.5860 C   0  0  0  0  0  0  0  0  0  0  0  0
  187.4680  178.1720  139.8770 C   0  0  0  0  0  3  0  0  0  0  0  0
  179.0950  179.2680  144.3610 N   0  0  0  0  0  0  0  0  0  0  0  0
  180.1430  179.0890  143.9040 C   0  0  0  0  0  0  0  0  0  0  0  0
  1  3  2  0  0  0  0
  1  2  1  0  0  0  0
  2  6  2  0  0  0  0
  3  4  1  0  0  0  0
  4 30  1  0  0  0  0
  4  5  2  0  0  0  0
  6  5  1  0  0  0  0
  6 12  1  0  0  0  0
  7 12  2  0  0  0  0
  7  8  1  0  0  0  0
  8 11  2  0  0  0  0
 10  9  2  0  0  0  0
 11  9  1  0  0  0  0
 11 14  1  0  0  0  0
 12 10  1  0  0  0  0
 14 13  2  0  0  0  0
 15  8  1  0  0  0  0
 16 15  1  0  0  0  0
 17 18  1  6  0  0  0
 17  1  1  0  0  0  0
 19 17  1  0  0  0  0
 20 19  2  0  0  0  0
 21 27  1  0  0  0  0
 21 20  1  0  0  0  0
 22 25  1  0  0  0  0
 23 24  1  0  0  0  0
 23 27  2  0  0  0  0
 24 22  2  0  0  0  0
 26 23  1  0  0  0  0
 27 28  1  0  0  0  0
 28 25  2  0  0  0  0
 30 29  3  0  0  0  0
M  END
>  <MODEL>
3

>  <REMARK>
 VINA RESULT:      -8.7      2.608      6.161
  Name = 
  8 active torsions:
  status: ('A' for Active; 'I' for Inactive)
    1  A    between atoms: C_1  and  N_16
    2  A    between atoms: C_1  and  C_25
    3  A    between atoms: N_4  and  C_9
    4  A    between atoms: C_6  and  C_10
    5  A    between atoms: C_8  and  C_10
    6  A    between atoms: C_13  and  C_22
    7  A    between atoms: C_20  and  C_30
    8  A    between atoms: C_26  and  C_29
                            x       y       z     vdW  Elec       q    Type
                         _______ _______ _______ _____ _____    ______ ____

>  <TORSDO>
F 8

$$$$
=
 OpenBabel10222416423D

 30 32  0  0  1  0  0  0  0  0999 V2000
  187.6500  177.6780  145.5820 C   0  0  0  0  0  0  0  0  0  0  0  0
  187.7860  177.7770  144.1890 C   0  0  0  0  0  3  0  0  0  0  0  0
  188.7590  177.3400  146.3610 C   0  0  0  0  0  3  0  0  0  0  0  0
  189.9940  177.0950  145.7570 C   0  0  0  0  0  0  0  0  0  0  0  0
  190.1240  177.1880  144.3680 C   0  0  0  0  0  3  0  0  0  0  0  0
  189.0220  177.5300  143.5680 C   0  0  0  0  0  0  0  0  0  0  0  0
  190.3380  177.2110  141.4590 C   0  0  0  0  0  3  0  0  0  0  0  0
  190.4830  177.2950  140.0660 C   0  0  0  0  0  0  0  0  0  0  0  0
  188.2400  178.2150  139.9280 C   0  0  0  0  0  3  0  0  0  0  0  0
  188.1120  178.1300  141.3140 C   0  0  0  0  0  3  0  0  0  0  0  0
  189.4130  177.8020  139.2870 C   0  0  0  0  0  0  0  0  0  0  0  0
  189.1580  177.6240  142.0960 C   0  0  0  0  0  0  0  0  0  0  0  0
  188.9840  178.9800  137.1380 C   0  0  0  0  0  2  0  0  0  0  0  0
  189.4340  177.9310  137.8150 C   0  0  0  0  0  3  0  0  0  0  0  0
  191.7020  176.8630  139.4520 N   0  0  0  0  0  2  0  0  0  0  0  0
  193.0150  177.3260  139.8750 C   0  0  0  0  0  1  0  0  0  0  0  0
  186.3400  177.9430  146.2520 C   0  0  1  0  0  3  0  0  0  0  0  0
  186.4590  177.7490  147.6290 O   0  0  0  0  0  1  0  0  0  0  0  0
  185.8610  179.3390  145.9650 C   0  0  0  0  0  3  0  0  0  0  0  0
  184.7130  179.5960  145.4370 N   0  0  0  0  0  0  0  0  0  0  0  0
  183.7810  178.5670  145.0490 C   0  0  0  0  0  2  0  0  0  0  0  0
  183.0760  178.8340  140.8590 N   0  0  0  0  0  0  0  0  0  0  0  0
  182.2150  178.7520  143.0870 C   0  0  0  0  0  0  0  0  0  0  0  0
  182.0130  178.8440  141.7080 C   0  0  0  0  0  3  0  0  0  0  0  0
  184.3530  178.7390  141.3200 C   0  0  0  0  0  3  0  0  0  0  0  0
  181.1220  178.7640  143.9460 O   0  0  0  0  0  1  0  0  0  0  0  0
  183.5220  178.6490  143.5820 C   0  0  0  0  0  0  0  0  0  0  0  0
  184.6000  178.6470  142.6910 C   0  0  0  0  0  3  0  0  0  0  0  0
  192.0530  176.4730  147.2050 N   0  0  0  0  0  0  0  0  0  0  0  0
  191.1330  176.7530  146.5600 C   0  0  0  0  0  0  0  0  0  0  0  0
  1 17  1  0  0  0  0
  1  3  1  0  0  0  0
  2  1  2  0  0  0  0
  4  3  2  0  0  0  0
  4 30  1  0  0  0  0
  5  4  1  0  0  0  0
  6  2  1  0  0  0  0
  6  5  2  0  0  0  0
  7 12  1  0  0  0  0
  8  7  2  0  0  0  0
  9 10  1  0  0  0  0
 10 12  2  0  0  0  0
 11  9  2  0  0  0  0
 11  8  1  0  0  0  0
 12  6  1  0  0  0  0
 13 14  2  0  0  0  0
 14 11  1  0  0  0  0
 15 16  1  0  0  0  0
 15  8  1  0  0  0  0
 17 18  1  1  0  0  0
 19 17  1  0  0  0  0
 20 19  2  0  0  0  0
 21 20  1  0  0  0  0
 22 25  2  0  0  0  0
 22 24  1  0  0  0  0
 23 27  1  0  0  0  0
 23 26  1  0  0  0  0
 24 23  2  0  0  0  0
 25 28  1  0  0  0  0
 27 21  1  0  0  0  0
 28 27  2  0  0  0  0
 30 29  3  0  0  0  0
M  END
>  <MODEL>
4

>  <REMARK>
 VINA RESULT:      -8.5      2.815      6.415
  Name = 
  8 active torsions:
  status: ('A' for Active; 'I' for Inactive)
    1  A    between atoms: C_1  and  N_16
    2  A    between atoms: C_1  and  C_25
    3  A    between atoms: N_4  and  C_9
    4  A    between atoms: C_6  and  C_10
    5  A    between atoms: C_8  and  C_10
    6  A    between atoms: C_13  and  C_22
    7  A    between atoms: C_20  and  C_30
    8  A    between atoms: C_26  and  C_29
                            x       y       z     vdW  Elec       q    Type
                         _______ _______ _______ _____ _____    ______ ____

>  <TORSDO>
F 8

$$$$
=
 OpenBabel10222416423D

 30 32  0  0  1  0  0  0  0  0999 V2000
  187.7640  177.6750  145.8100 C   0  0  0  0  0  0  0  0  0  0  0  0
  187.9500  177.6830  144.4190 C   0  0  0  0  0  3  0  0  0  0  0  0
  188.8370  177.3590  146.6470 C   0  0  0  0  0  3  0  0  0  0  0  0
  190.0840  177.0460  146.1020 C   0  0  0  0  0  0  0  0  0  0  0  0
  190.2630  177.0480  144.7160 C   0  0  0  0  0  3  0  0  0  0  0  0
  189.1980  177.3670  143.8580 C   0  0  0  0  0  0  0  0  0  0  0  0
  188.4470  177.9780  141.5470 C   0  0  0  0  0  3  0  0  0  0  0  0
  188.6100  177.9830  140.1530 C   0  0  0  0  0  0  0  0  0  0  0  0
  190.6820  176.7490  140.4310 C   0  0  0  0  0  3  0  0  0  0  0  0
  190.5040  176.7470  141.8140 C   0  0  0  0  0  3  0  0  0  0  0  0
  189.7510  177.3620  139.5870 C   0  0  0  0  0  0  0  0  0  0  0  0
  189.3860  177.3650  142.3880 C   0  0  0  0  0  0  0  0  0  0  0  0
  191.0730  176.6680  137.5960 C   0  0  0  0  0  2  0  0  0  0  0  0
  190.0460  177.3080  138.1390 C   0  0  0  0  0  3  0  0  0  0  0  0
  187.6300  178.6210  139.3270 N   0  0  0  0  0  2  0  0  0  0  0  0
  186.7320  177.8890  138.4450 C   0  0  0  0  0  1  0  0  0  0  0  0
  186.4400  178.0130  146.4160 C   0  0  1  0  0  3  0  0  0  0  0  0
  186.5100  177.9120  147.8060 O   0  0  0  0  0  1  0  0  0  0  0  0
  186.0040  179.3960  146.0190 C   0  0  0  0  0  3  0  0  0  0  0  0
  184.8790  179.6420  145.4400 N   0  0  0  0  0  0  0  0  0  0  0  0
  183.9320  178.6090  145.0950 C   0  0  0  0  0  2  0  0  0  0  0  0
  183.2740  178.6690  140.8900 N   0  0  0  0  0  0  0  0  0  0  0  0
  182.3880  178.6780  143.1090 C   0  0  0  0  0  0  0  0  0  0  0  0
  182.2010  178.7010  141.7250 C   0  0  0  0  0  3  0  0  0  0  0  0
  184.5470  178.6150  141.3690 C   0  0  0  0  0  3  0  0  0  0  0  0
  181.2850  178.7130  143.9550 O   0  0  0  0  0  1  0  0  0  0  0  0
  183.6910  178.6180  143.6240 C   0  0  0  0  0  0  0  0  0  0  0  0
  184.7790  178.5910  142.7460 C   0  0  0  0  0  3  0  0  0  0  0  0
  192.0780  176.4700  147.6570 N   0  0  0  0  0  0  0  0  0  0  0  0
  191.1860  176.7270  146.9650 C   0  0  0  0  0  0  0  0  0  0  0  0
  1 17  1  0  0  0  0
  1  3  1  0  0  0  0
  2  1  2  0  0  0  0
  4  3  2  0  0  0  0
  4 30  1  0  0  0  0
  5  4  1  0  0  0  0
  6  2  1  0  0  0  0
  6  5  2  0  0  0  0
  7 12  1  0  0  0  0
  8  7  2  0  0  0  0
  9 10  1  0  0  0  0
 10 12  2  0  0  0  0
 11  8  1  0  0  0  0
 11  9  2  0  0  0  0
 12  6  1  0  0  0  0
 13 14  2  0  0  0  0
 14 11  1  0  0  0  0
 15  8  1  0  0  0  0
 16 15  1  0  0  0  0
 17 18  1  1  0  0  0
 19 17  1  0  0  0  0
 20 19  2  0  0  0  0
 21 20  1  0  0  0  0
 22 25  2  0  0  0  0
 22 24  1  0  0  0  0
 23 27  1  0  0  0  0
 23 26  1  0  0  0  0
 24 23  2  0  0  0  0
 25 28  1  0  0  0  0
 27 21  1  0  0  0  0
 28 27  2  0  0  0  0
 30 29  3  0  0  0  0
M  END
>  <MODEL>
5

>  <REMARK>
 VINA RESULT:      -8.4      2.709      6.241
  Name = 
  8 active torsions:
  status: ('A' for Active; 'I' for Inactive)
    1  A    between atoms: C_1  and  N_16
    2  A    between atoms: C_1  and  C_25
    3  A    between atoms: N_4  and  C_9
    4  A    between atoms: C_6  and  C_10
    5  A    between atoms: C_8  and  C_10
    6  A    between atoms: C_13  and  C_22
    7  A    between atoms: C_20  and  C_30
    8  A    between atoms: C_26  and  C_29
                            x       y       z     vdW  Elec       q    Type
                         _______ _______ _______ _____ _____    ______ ____

>  <TORSDO>
F 8

$$$$
=
 OpenBabel10222416423D

 30 32  0  0  1  0  0  0  0  0999 V2000
  185.3550  178.8420  144.8930 C   0  0  0  0  0  0  0  0  0  0  0  0
  185.9270  178.7400  143.6150 C   0  0  0  0  0  3  0  0  0  0  0  0
  183.9650  178.8280  145.0290 C   0  0  0  0  0  3  0  0  0  0  0  0
  183.1490  178.7200  143.9010 C   0  0  0  0  0  0  0  0  0  0  0  0
  183.7230  178.6250  142.6300 C   0  0  0  0  0  3  0  0  0  0  0  0
  185.1180  178.6340  142.4720 C   0  0  0  0  0  0  0  0  0  0  0  0
  187.1130  178.3990  140.9740 C   0  0  0  0  0  3  0  0  0  0  0  0
  187.7050  178.3090  139.7040 C   0  0  0  0  0  0  0  0  0  0  0  0
  185.4980  178.4950  138.7080 C   0  0  0  0  0  3  0  0  0  0  0  0
  184.9260  178.5890  139.9760 C   0  0  0  0  0  3  0  0  0  0  0  0
  186.8810  178.3530  138.5520 C   0  0  0  0  0  0  0  0  0  0  0  0
  185.7260  178.5380  141.1240 C   0  0  0  0  0  0  0  0  0  0  0  0
  187.5040  177.1280  136.4780 C   0  0  0  0  0  2  0  0  0  0  0  0
  187.3750  178.2570  137.1630 C   0  0  0  0  0  3  0  0  0  0  0  0
  189.1250  178.1660  139.5920 N   0  0  0  0  0  2  0  0  0  0  0  0
  189.7840  176.8820  139.4060 C   0  0  0  0  0  1  0  0  0  0  0  0
  186.2080  178.9510  146.1160 C   0  0  1  0  0  3  0  0  0  0  0  0
  185.5510  179.7010  147.0930 O   0  0  0  0  0  1  0  0  0  0  0  0
  186.5560  177.5920  146.6530 C   0  0  0  0  0  3  0  0  0  0  0  0
  187.7580  177.1280  146.6780 N   0  0  0  0  0  0  0  0  0  0  0  0
  188.8910  177.8630  146.1720 C   0  0  0  0  0  2  0  0  0  0  0  0
  190.6000  175.7210  142.9150 N   0  0  0  0  0  0  0  0  0  0  0  0
  190.8610  176.7780  145.0420 C   0  0  0  0  0  0  0  0  0  0  0  0
  191.3940  176.0700  143.9620 C   0  0  0  0  0  3  0  0  0  0  0  0
  189.2780  176.0430  142.8850 C   0  0  0  0  0  3  0  0  0  0  0  0
  191.6800  177.1280  146.1090 O   0  0  0  0  0  1  0  0  0  0  0  0
  189.5020  177.1240  145.0300 C   0  0  0  0  0  0  0  0  0  0  0  0
  188.7040  176.7490  143.9450 C   0  0  0  0  0  3  0  0  0  0  0  0
  180.5700  178.6810  144.1630 N   0  0  0  0  0  0  0  0  0  0  0  0
  181.7220  178.7010  144.0440 C   0  0  0  0  0  0  0  0  0  0  0  0
  1  3  1  0  0  0  0
  1 17  1  0  0  0  0
  2  1  2  0  0  0  0
  4 30  1  0  0  0  0
  4  3  2  0  0  0  0
  5  4  1  0  0  0  0
  6  5  2  0  0  0  0
  6  2  1  0  0  0  0
  7 12  1  0  0  0  0
  8  7  2  0  0  0  0
  9 10  1  0  0  0  0
 10 12  2  0  0  0  0
 11  9  2  0  0  0  0
 11  8  1  0  0  0  0
 12  6  1  0  0  0  0
 13 14  2  0  0  0  0
 14 11  1  0  0  0  0
 15  8  1  0  0  0  0
 16 15  1  0  0  0  0
 17 19  1  0  0  0  0
 17 18  1  1  0  0  0
 19 20  2  0  0  0  0
 21 20  1  0  0  0  0
 22 24  1  0  0  0  0
 23 26  1  0  0  0  0
 24 23  2  0  0  0  0
 25 22  2  0  0  0  0
 25 28  1  0  0  0  0
 27 23  1  0  0  0  0
 27 21  1  0  0  0  0
 28 27  2  0  0  0  0
 30 29  3  0  0  0  0
M  END
>  <MODEL>
6

>  <REMARK>
 VINA RESULT:      -8.4      2.143      5.759
  Name = 
  8 active torsions:
  status: ('A' for Active; 'I' for Inactive)
    1  A    between atoms: C_1  and  N_16
    2  A    between atoms: C_1  and  C_25
    3  A    between atoms: N_4  and  C_9
    4  A    between atoms: C_6  and  C_10
    5  A    between atoms: C_8  and  C_10
    6  A    between atoms: C_13  and  C_22
    7  A    between atoms: C_20  and  C_30
    8  A    between atoms: C_26  and  C_29
                            x       y       z     vdW  Elec       q    Type
                         _______ _______ _______ _____ _____    ______ ____

>  <TORSDO>
F 8

$$$$
=
 OpenBabel10222416423D

 30 32  0  0  1  0  0  0  0  0999 V2000
  189.1980  177.9220  139.8090 C   0  0  0  0  0  0  0  0  0  0  0  0
  188.8950  177.8270  141.1760 C   0  0  0  0  0  3  0  0  0  0  0  0
  190.5060  177.6890  139.3750 C   0  0  0  0  0  3  0  0  0  0  0  0
  191.5060  177.3710  140.2960 C   0  0  0  0  0  0  0  0  0  0  0  0
  191.2010  177.2840  141.6570 C   0  0  0  0  0  3  0  0  0  0  0  0
  189.8930  177.5110  142.1140 C   0  0  0  0  0  0  0  0  0  0  0  0
  190.5870  177.2580  144.5080 C   0  0  0  0  0  3  0  0  0  0  0  0
  190.2980  177.1710  145.8790 C   0  0  0  0  0  0  0  0  0  0  0  0
  187.9410  177.4250  145.3560 C   0  0  0  0  0  3  0  0  0  0  0  0
  188.2430  177.5040  143.9970 C   0  0  0  0  0  3  0  0  0  0  0  0
  188.9510  177.2620  146.3090 C   0  0  0  0  0  0  0  0  0  0  0  0
  189.5700  177.4240  143.5570 C   0  0  0  0  0  0  0  0  0  0  0  0
  188.3640  178.2480  148.5170 C   0  0  0  0  0  2  0  0  0  0  0  0
  188.5150  177.1980  147.7190 C   0  0  0  0  0  3  0  0  0  0  0  0
  191.3640  177.0020  146.8190 N   0  0  0  0  0  2  0  0  0  0  0  0
  192.0560  175.7380  147.0220 C   0  0  0  0  0  1  0  0  0  0  0  0
  188.1430  178.2530  138.8030 C   0  0  1  0  0  3  0  0  0  0  0  0
  188.6150  179.2200  137.9140 O   0  0  0  0  0  1  0  0  0  0  0  0
  187.7110  177.0250  138.0520 C   0  0  0  0  0  3  0  0  0  0  0  0
  186.5880  176.9410  137.4240 N   0  0  0  0  0  0  0  0  0  0  0  0
  185.6230  178.0120  137.3980 C   0  0  0  0  0  2  0  0  0  0  0  0
  182.4170  177.1420  140.0610 N   0  0  0  0  0  0  0  0  0  0  0  0
  184.2000  178.5870  139.3930 C   0  0  0  0  0  0  0  0  0  0  0  0
  183.1390  178.2790  140.2490 C   0  0  0  0  0  3  0  0  0  0  0  0
  182.6990  176.2800  139.0460 C   0  0  0  0  0  3  0  0  0  0  0  0
  184.9300  179.7530  139.5920 O   0  0  0  0  0  1  0  0  0  0  0  0
  184.5100  177.7100  138.3440 C   0  0  0  0  0  0  0  0  0  0  0  0
  183.7500  176.5500  138.1670 C   0  0  0  0  0  3  0  0  0  0  0  0
  193.9300  176.9350  139.4850 N   0  0  0  0  0  0  0  0  0  0  0  0
  192.8470  177.1270  139.8470 C   0  0  0  0  0  0  0  0  0  0  0  0
  1  2  1  0  0  0  0
  2  6  2  0  0  0  0
  3  1  2  0  0  0  0
  3  4  1  0  0  0  0
  4  5  2  0  0  0  0
  5  6  1  0  0  0  0
  6 12  1  0  0  0  0
  7  8  1  0  0  0  0
  8 11  2  0  0  0  0
  8 15  1  0  0  0  0
  9 11  1  0  0  0  0
 10  9  2  0  0  0  0
 11 14  1  0  0  0  0
 12 10  1  0  0  0  0
 12  7  2  0  0  0  0
 14 13  2  0  0  0  0
 15 16  1  0  0  0  0
 17 18  1  6  0  0  0
 17  1  1  0  0  0  0
 19 17  1  0  0  0  0
 20 19  2  0  0  0  0
 21 20  1  0  0  0  0
 21 27  1  0  0  0  0
 22 24  1  0  0  0  0
 23 26  1  0  0  0  0
 23 24  2  0  0  0  0
 25 22  2  0  0  0  0
 27 23  1  0  0  0  0
 28 27  2  0  0  0  0
 28 25  1  0  0  0  0
 29 30  3  0  0  0  0
 30  4  1  0  0  0  0
M  END
>  <MODEL>
7

>  <REMARK>
 VINA RESULT:      -8.2      2.675      6.997
  Name = 
  8 active torsions:
  status: ('A' for Active; 'I' for Inactive)
    1  A    between atoms: C_1  and  N_16
    2  A    between atoms: C_1  and  C_25
    3  A    between atoms: N_4  and  C_9
    4  A    between atoms: C_6  and  C_10
    5  A    between atoms: C_8  and  C_10
    6  A    between atoms: C_13  and  C_22
    7  A    between atoms: C_20  and  C_30
    8  A    between atoms: C_26  and  C_29
                            x       y       z     vdW  Elec       q    Type
                         _______ _______ _______ _____ _____    ______ ____

>  <TORSDO>
F 8

$$$$
=
 OpenBabel10222416423D

 30 32  0  0  1  0  0  0  0  0999 V2000
  188.5890  177.2920  143.5540 C   0  0  0  0  0  0  0  0  0  0  0  0
  187.2640  177.6280  143.2400 C   0  0  0  0  0  3  0  0  0  0  0  0
  188.9900  177.2420  144.8910 C   0  0  0  0  0  3  0  0  0  0  0  0
  188.0780  177.5300  145.9090 C   0  0  0  0  0  0  0  0  0  0  0  0
  186.7600  177.8700  145.5920 C   0  0  0  0  0  3  0  0  0  0  0  0
  186.3370  177.9240  144.2540 C   0  0  0  0  0  0  0  0  0  0  0  0
  184.5030  178.2850  142.5850 C   0  0  0  0  0  3  0  0  0  0  0  0
  183.1850  178.6310  142.2490 C   0  0  0  0  0  0  0  0  0  0  0  0
  182.7220  178.9880  144.6050 C   0  0  0  0  0  3  0  0  0  0  0  0
  184.0360  178.6480  144.9230 C   0  0  0  0  0  3  0  0  0  0  0  0
  182.2780  178.9830  143.2790 C   0  0  0  0  0  0  0  0  0  0  0  0
  184.9420  178.2890  143.9170 C   0  0  0  0  0  0  0  0  0  0  0  0
  179.8950  179.2150  143.9570 C   0  0  0  0  0  2  0  0  0  0  0  0
  180.8640  179.3550  143.0620 C   0  0  0  0  0  3  0  0  0  0  0  0
  182.7750  178.6140  140.8780 N   0  0  0  0  0  2  0  0  0  0  0  0
  183.4880  179.3190  139.8240 C   0  0  0  0  0  1  0  0  0  0  0  0
  189.5810  176.9720  142.4820 C   0  0  1  0  0  3  0  0  0  0  0  0
  189.9950  175.6440  142.5940 O   0  0  0  0  0  1  0  0  0  0  0  0
  189.0000  177.2200  141.1190 C   0  0  0  0  0  3  0  0  0  0  0  0
  189.7140  177.2840  140.0470 N   0  0  0  0  0  0  0  0  0  0  0  0
  191.1500  177.1430  140.0540 C   0  0  0  0  0  2  0  0  0  0  0  0
  192.4480  175.7730  136.2380 N   0  0  0  0  0  0  0  0  0  0  0  0
  192.9800  176.4840  138.4570 C   0  0  0  0  0  0  0  0  0  0  0  0
  193.3780  176.0280  137.1980 C   0  0  0  0  0  3  0  0  0  0  0  0
  191.1190  175.9490  136.4710 C   0  0  0  0  0  3  0  0  0  0  0  0
  193.9380  176.7390  139.4320 O   0  0  0  0  0  1  0  0  0  0  0  0
  191.6160  176.6750  138.7170 C   0  0  0  0  0  0  0  0  0  0  0  0
  190.6780  176.4010  137.7170 C   0  0  0  0  0  3  0  0  0  0  0  0
  188.8280  177.4260  148.3890 N   0  0  0  0  0  0  0  0  0  0  0  0
  188.4900  177.4720  147.2830 C   0  0  0  0  0  0  0  0  0  0  0  0
  1  3  1  0  0  0  0
  2  1  2  0  0  0  0
  2  6  1  0  0  0  0
  3  4  2  0  0  0  0
  4 30  1  0  0  0  0
  5  4  1  0  0  0  0
  6  5  2  0  0  0  0
  7 12  1  0  0  0  0
  8  7  2  0  0  0  0
  8 11  1  0  0  0  0
  9 10  1  0  0  0  0
 11  9  2  0  0  0  0
 12  6  1  0  0  0  0
 12 10  2  0  0  0  0
 14 11  1  0  0  0  0
 14 13  2  0  0  0  0
 15  8  1  0  0  0  0
 16 15  1  0  0  0  0
 17 18  1  6  0  0  0
 17  1  1  0  0  0  0
 19 17  1  0  0  0  0
 20 21  1  0  0  0  0
 20 19  2  0  0  0  0
 22 25  2  0  0  0  0
 22 24  1  0  0  0  0
 23 27  1  0  0  0  0
 23 26  1  0  0  0  0
 24 23  2  0  0  0  0
 25 28  1  0  0  0  0
 27 21  1  0  0  0  0
 28 27  2  0  0  0  0
 30 29  3  0  0  0  0
M  END
>  <MODEL>
8

>  <REMARK>
 VINA RESULT:      -8.2      1.971      2.337
  Name = 
  8 active torsions:
  status: ('A' for Active; 'I' for Inactive)
    1  A    between atoms: C_1  and  N_16
    2  A    between atoms: C_1  and  C_25
    3  A    between atoms: N_4  and  C_9
    4  A    between atoms: C_6  and  C_10
    5  A    between atoms: C_8  and  C_10
    6  A    between atoms: C_13  and  C_22
    7  A    between atoms: C_20  and  C_30
    8  A    between atoms: C_26  and  C_29
                            x       y       z     vdW  Elec       q    Type
                         _______ _______ _______ _____ _____    ______ ____

>  <TORSDO>
F 8

$$$$
=
 OpenBabel10222416423D

 30 32  0  0  1  0  0  0  0  0999 V2000
  183.4760  178.8010  141.2760 C   0  0  0  0  0  0  0  0  0  0  0  0
  184.5270  178.5750  142.1780 C   0  0  0  0  0  3  0  0  0  0  0  0
  182.1750  178.9550  141.7600 C   0  0  0  0  0  3  0  0  0  0  0  0
  181.9200  178.8770  143.1310 C   0  0  0  0  0  0  0  0  0  0  0  0
  182.9690  178.6450  144.0250 C   0  0  0  0  0  3  0  0  0  0  0  0
  184.2850  178.4910  143.5590 C   0  0  0  0  0  0  0  0  0  0  0  0
  186.6230  177.7360  144.0510 C   0  0  0  0  0  3  0  0  0  0  0  0
  187.6850  177.4910  144.9360 C   0  0  0  0  0  0  0  0  0  0  0  0
  186.2880  178.2660  146.7640 C   0  0  0  0  0  3  0  0  0  0  0  0
  185.2390  178.4990  145.8740 C   0  0  0  0  0  3  0  0  0  0  0  0
  187.5140  177.7660  146.3150 C   0  0  0  0  0  0  0  0  0  0  0  0
  185.3960  178.2400  144.5060 C   0  0  0  0  0  0  0  0  0  0  0  0
  188.6600  178.2670  148.4670 C   0  0  0  0  0  2  0  0  0  0  0  0
  188.5540  177.5650  147.3460 C   0  0  0  0  0  3  0  0  0  0  0  0
  188.9230  176.9770  144.4330 N   0  0  0  0  0  2  0  0  0  0  0  0
  189.0220  176.1860  143.2160 C   0  0  0  0  0  1  0  0  0  0  0  0
  183.7250  178.8960  139.8050 C   0  0  1  0  0  3  0  0  0  0  0  0
  184.7920  179.7600  139.5550 O   0  0  0  0  0  1  0  0  0  0  0  0
  184.0090  177.5410  139.2190 C   0  0  0  0  0  3  0  0  0  0  0  0
  183.1620  176.8960  138.4920 N   0  0  0  0  0  0  0  0  0  0  0  0
  181.8470  177.4020  138.1850 C   0  0  0  0  0  2  0  0  0  0  0  0
  179.0190  175.8310  140.9520 N   0  0  0  0  0  0  0  0  0  0  0  0
  179.8490  177.6820  139.6890 C   0  0  0  0  0  0  0  0  0  0  0  0
  178.9310  177.1390  140.5910 C   0  0  0  0  0  3  0  0  0  0  0  0
  179.9900  175.0190  140.4510 C   0  0  0  0  0  3  0  0  0  0  0  0
  179.7480  179.0200  139.3250 O   0  0  0  0  0  1  0  0  0  0  0  0
  180.8590  176.8650  139.1640 C   0  0  0  0  0  0  0  0  0  0  0  0
  180.9270  175.5210  139.5450 C   0  0  0  0  0  3  0  0  0  0  0  0
  179.5020  179.1720  144.0190 N   0  0  0  0  0  0  0  0  0  0  0  0
  180.5830  179.0410  143.6250 C   0  0  0  0  0  0  0  0  0  0  0  0
  1  3  2  0  0  0  0
  1  2  1  0  0  0  0
  2  6  2  0  0  0  0
  3  4  1  0  0  0  0
  4 30  1  0  0  0  0
  4  5  2  0  0  0  0
  6  5  1  0  0  0  0
  6 12  1  0  0  0  0
  7 12  2  0  0  0  0
  7  8  1  0  0  0  0
  8 11  2  0  0  0  0
 10  9  2  0  0  0  0
 11  9  1  0  0  0  0
 11 14  1  0  0  0  0
 12 10  1  0  0  0  0
 14 13  2  0  0  0  0
 15  8  1  0  0  0  0
 16 15  1  0  0  0  0
 17 18  1  1  0  0  0
 17  1  1  0  0  0  0
 19 17  1  0  0  0  0
 20 19  2  0  0  0  0
 21 20  1  0  0  0  0
 21 27  1  0  0  0  0
 23 24  2  0  0  0  0
 24 22  1  0  0  0  0
 25 22  2  0  0  0  0
 26 23  1  0  0  0  0
 27 28  2  0  0  0  0
 27 23  1  0  0  0  0
 28 25  1  0  0  0  0
 30 29  3  0  0  0  0
M  END
>  <MODEL>
9

>  <REMARK>
 VINA RESULT:      -8.2      3.507      7.542
  Name = 
  8 active torsions:
  status: ('A' for Active; 'I' for Inactive)
    1  A    between atoms: C_1  and  N_16
    2  A    between atoms: C_1  and  C_25
    3  A    between atoms: N_4  and  C_9
    4  A    between atoms: C_6  and  C_10
    5  A    between atoms: C_8  and  C_10
    6  A    between atoms: C_13  and  C_22
    7  A    between atoms: C_20  and  C_30
    8  A    between atoms: C_26  and  C_29
                            x       y       z     vdW  Elec       q    Type
                         _______ _______ _______ _____ _____    ______ ____

>  <TORSDO>
F 8

$$$$
