=
 OpenBabel10222419273D

 42 47  0  0  1  0  0  0  0  0999 V2000
  183.1410  178.6840  141.9260 C   0  0  0  0  0  0  0  0  0  0  0  0
  185.1130  178.4780  139.8750 C   0  0  0  0  0  0  0  0  0  0  0  0
  183.7530  178.2020  139.5370 C   0  0  1  0  0  3  0  0  0  0  0  0
  182.1220  178.7790  143.0230 C   0  0  0  0  0  1  0  0  0  0  0  0
  184.4570  178.9360  142.1840 C   0  0  0  0  0  0  0  0  0  0  0  0
  185.0270  177.9720  137.7000 N   0  0  0  0  0  0  0  0  0  0  0  0
  182.7020  178.3030  140.5500 C   0  0  0  0  0  0  0  0  0  0  0  0
  183.7020  177.9070  138.2480 C   0  0  0  0  0  3  0  0  0  0  0  0
  181.1480  178.0680  140.1660 S   0  0  0  0  0  0  0  0  0  0  0  0
  185.8590  178.3060  138.6400 C   0  0  0  0  0  3  0  0  0  0  0  0
  185.4970  178.8290  141.1060 C   0  0  0  0  0  0  0  0  0  0  0  0
  179.9740  180.4550  140.8840 N   0  0  0  0  0  0  0  0  0  0  0  0
  180.6200  180.4120  138.7280 C   0  0  0  0  0  3  0  0  0  0  0  0
  180.0470  181.6200  139.0700 C   0  0  0  0  0  0  0  0  0  0  0  0
  179.6670  181.6300  140.3630 N   0  0  0  0  0  2  0  0  0  0  0  0
  180.5420  179.7140  139.9170 C   0  0  0  0  0  0  0  0  0  0  0  0
  179.7330  185.0890  136.7680 N   0  0  0  0  0  2  0  0  0  0  0  0
  179.2450  185.2370  138.1370 C   0  0  0  0  0  2  0  0  0  0  0  0
  181.1020  184.5630  136.8050 C   0  0  0  0  0  2  0  0  0  0  0  0
  181.2430  183.3190  137.7030 C   0  0  0  0  0  2  0  0  0  0  0  0
  179.0140  183.8640  138.7780 C   0  0  0  0  0  2  0  0  0  0  0  0
  179.8830  182.7740  138.1400 C   0  0  0  0  0  3  0  0  0  0  0  0
  186.9390  179.1200  141.3840 C   0  0  0  0  0  2  0  0  0  0  0  0
  187.7240  177.8340  141.6060 C   0  0  0  0  0  2  0  0  0  0  0  0
  188.6230  177.5820  140.4820 N   0  0  0  0  0  2  0  0  0  0  0  0
  190.3520  177.4640  142.1630 N   0  0  0  0  0  2  0  0  0  0  0  0
  192.1340  177.5050  140.5660 C   0  0  0  0  0  2  0  0  0  0  0  0
  190.9330  176.9220  139.8690 C   0  0  0  0  0  2  0  0  0  0  0  0
  191.8020  177.4370  142.0380 C   0  0  0  0  0  2  0  0  0  0  0  0
  189.8380  176.8910  140.9240 C   0  0  2  0  0  3  0  0  0  0  0  0
  184.9030  179.2890  143.5720 C   0  0  0  0  0  2  0  0  0  0  0  0
  185.1890  178.0760  144.3200 N   0  0  0  0  0  2  0  0  0  0  0  0
  185.7020  178.5380  145.9100 S   0  0  0  0  0  0  0  0  0  0  0  0
  185.6360  180.0340  146.0390 O   0  0  0  0  0  0  0  0  0  0  0  0
  184.7790  177.9130  146.9170 O   0  0  0  0  0  0  0  0  0  0  0  0
  189.2280  177.5690  147.6930 C   0  0  0  0  0  3  0  0  0  0  0  0
  187.2000  178.5620  148.6010 N   0  0  0  0  0  1  0  0  0  0  0  0
  187.3470  177.9750  146.2090 C   0  0  0  0  0  0  0  0  0  0  0  0
  187.9250  178.0370  147.4920 C   0  0  0  0  0  0  0  0  0  0  0  0
  188.0810  177.4270  145.1510 C   0  0  0  0  0  3  0  0  0  0  0  0
  189.9560  177.0340  146.6270 C   0  0  0  0  0  3  0  0  0  0  0  0
  189.3830  176.9620  145.3560 C   0  0  0  0  0  3  0  0  0  0  0  0
  1  5  1  0  0  0  0
  1  4  1  0  0  0  0
  2 11  1  0  0  0  0
  3  8  1  6  0  0  0
  3  2  1  0  0  0  0
  3  7  1  0  0  0  0
  5 31  1  0  0  0  0
  6  8  2  0  0  0  0
  6 10  1  0  0  0  0
  7  1  2  0  0  0  0
  9  7  1  0  0  0  0
 10  2  2  0  0  0  0
 11 23  1  0  0  0  0
 11  5  2  0  0  0  0
 13 14  2  0  0  0  0
 13 16  1  0  0  0  0
 14 15  1  0  0  0  0
 15 12  1  0  0  0  0
 16  9  1  0  0  0  0
 16 12  2  0  0  0  0
 17 19  1  0  0  0  0
 17 18  1  0  0  0  0
 18 21  1  0  0  0  0
 19 20  1  0  0  0  0
 20 22  1  0  0  0  0
 22 21  1  0  0  0  0
 22 14  1  0  0  0  0
 23 24  1  0  0  0  0
 25 24  1  0  0  0  0
 27 29  1  0  0  0  0
 28 27  1  0  0  0  0
 28 30  1  0  0  0  0
 29 26  1  0  0  0  0
 30 25  1  6  0  0  0
 30 26  1  0  0  0  0
 31 32  1  0  0  0  0
 32 33  1  0  0  0  0
 33 34  2  0  0  0  0
 33 38  1  0  0  0  0
 33 35  2  0  0  0  0
 38 39  2  0  0  0  0
 39 36  1  0  0  0  0
 39 37  1  0  0  0  0
 40 42  2  0  0  0  0
 40 38  1  0  0  0  0
 41 36  2  0  0  0  0
 42 41  1  0  0  0  0
M  END
>  <MODEL>
1

>  <REMARK>
 VINA RESULT:      -8.7      0.000      0.000
  Name = 
  10 active torsions:
  status: ('A' for Active; 'I' for Inactive)
    1  A    between atoms: C_1  and  C_10
    2  A    between atoms: C_1  and  N_16
    3  A    between atoms: S_8  and  C_11
    4  A    between atoms: S_8  and  N_30
    5  A    between atoms: C_10  and  C_37
    6  A    between atoms: N_16  and  C_33
    7  A    between atoms: C_19  and  C_36
    8  A    between atoms: C_22  and  C_23
    9  A    between atoms: C_22  and  N_30
   10  A    between atoms: S_34  and  C_38
                            x       y       z     vdW  Elec       q    Type
                         _______ _______ _______ _____ _____    ______ ____

>  <TORSDO>
F 10

$$$$
=
 OpenBabel10222419273D

 42 47  0  0  1  0  0  0  0  0999 V2000
  187.2340  178.1940  139.5710 C   0  0  0  0  0  0  0  0  0  0  0  0
  184.5180  178.9340  140.0350 C   0  0  0  0  0  0  0  0  0  0  0  0
  184.9130  178.6100  138.7020 C   0  0  0  0  0  0  0  0  0  0  0  0
  188.6700  177.8260  139.3450 C   0  0  0  0  0  1  0  0  0  0  0  0
  186.7930  178.5130  140.8220 C   0  0  0  0  0  0  0  0  0  0  0  0
  182.7240  179.1190  138.7150 N   0  0  0  0  0  0  0  0  0  0  0  0
  186.2920  178.2150  138.4110 C   0  0  0  0  0  0  0  0  0  0  0  0
  183.8500  178.7150  137.9210 C   0  0  0  0  0  3  0  0  0  0  0  0
  186.7370  177.7720  136.9210 S   0  0  0  0  0  0  0  0  0  0  0  0
  183.1020  179.2480  139.9510 C   0  0  0  0  0  2  0  0  0  0  0  0
  185.3630  178.9020  141.0690 C   0  0  0  0  0  0  0  0  0  0  0  0
  187.7130  175.2030  137.1260 N   0  0  0  0  0  0  0  0  0  0  0  0
  185.4730  175.2740  136.9230 C   0  0  0  0  0  3  0  0  0  0  0  0
  185.9390  173.9790  137.0370 C   0  0  0  0  0  0  0  0  0  0  0  0
  187.2800  173.9550  137.1600 N   0  0  0  0  0  2  0  0  0  0  0  0
  186.6430  176.0030  136.9820 C   0  0  0  0  0  0  0  0  0  0  0  0
  183.3120  170.7480  136.7440 N   0  0  0  0  0  2  0  0  0  0  0  0
  182.6580  172.0530  136.6890 C   0  0  0  0  0  2  0  0  0  0  0  0
  184.3710  170.7030  135.7300 C   0  0  0  0  0  2  0  0  0  0  0  0
  185.3100  171.9230  135.7880 C   0  0  0  0  0  2  0  0  0  0  0  0
  183.6000  173.1500  137.2000 C   0  0  0  0  0  2  0  0  0  0  0  0
  185.0750  172.7640  137.0430 C   0  0  0  0  0  3  0  0  0  0  0  0
  184.8750  179.2380  142.4440 C   0  0  0  0  0  2  0  0  0  0  0  0
  183.7040  178.3500  142.8420 C   0  0  0  0  0  2  0  0  0  0  0  0
  182.7220  179.1120  143.6110 N   0  0  0  0  0  2  0  0  0  0  0  0
  180.7540  180.1770  142.7020 N   0  0  0  0  0  2  0  0  0  0  0  0
  179.2630  179.0940  144.2290 C   0  0  0  0  0  2  0  0  0  0  0  0
  180.4650  178.1980  144.0780 C   0  0  0  0  0  2  0  0  0  0  0  0
  179.3520  180.0620  143.0730 C   0  0  0  0  0  2  0  0  0  0  0  0
  181.3690  178.9100  143.0830 C   0  0  2  0  0  3  0  0  0  0  0  0
  187.7450  178.5220  141.9820 C   0  0  0  0  0  2  0  0  0  0  0  0
  187.8090  177.1970  142.5750 N   0  0  0  0  0  2  0  0  0  0  0  0
  189.3290  177.0530  143.3960 S   0  0  0  0  0  0  0  0  0  0  0  0
  189.9480  175.7240  143.0690 O   0  0  0  0  0  0  0  0  0  0  0  0
  190.2400  178.1520  142.9270 O   0  0  0  0  0  0  0  0  0  0  0  0
  189.9550  177.2130  147.4130 C   0  0  0  0  0  3  0  0  0  0  0  0
  191.4970  176.8190  145.5720 N   0  0  0  0  0  1  0  0  0  0  0  0
  189.0980  177.2020  145.1390 C   0  0  0  0  0  0  0  0  0  0  0  0
  190.1750  177.0760  146.0380 C   0  0  0  0  0  0  0  0  0  0  0  0
  187.8190  177.4810  145.6350 C   0  0  0  0  0  3  0  0  0  0  0  0
  188.6720  177.4810  147.8980 C   0  0  0  0  0  3  0  0  0  0  0  0
  187.6040  177.6170  147.0090 C   0  0  0  0  0  3  0  0  0  0  0  0
  1  5  1  0  0  0  0
  2 11  1  0  0  0  0
  3  2  2  0  0  0  0
  4  1  1  0  0  0  0
  5 11  2  0  0  0  0
  5 31  1  0  0  0  0
  6 10  1  0  0  0  0
  7  3  1  0  0  0  0
  7  1  2  0  0  0  0
  8  3  1  0  0  0  0
  8  6  2  0  0  0  0
  9 16  1  0  0  0  0
  9  7  1  0  0  0  0
 10  2  1  0  0  0  0
 11 23  1  0  0  0  0
 12 15  1  0  0  0  0
 13 16  1  0  0  0  0
 13 14  2  0  0  0  0
 14 22  1  0  0  0  0
 14 15  1  0  0  0  0
 16 12  2  0  0  0  0
 18 17  1  0  0  0  0
 18 21  1  0  0  0  0
 19 20  1  0  0  0  0
 19 17  1  0  0  0  0
 20 22  1  0  0  0  0
 22 21  1  0  0  0  0
 23 24  1  0  0  0  0
 24 25  1  0  0  0  0
 26 29  1  0  0  0  0
 26 30  1  0  0  0  0
 28 27  1  0  0  0  0
 29 27  1  0  0  0  0
 30 25  1  1  0  0  0
 30 28  1  0  0  0  0
 31 32  1  0  0  0  0
 32 33  1  0  0  0  0
 33 38  1  0  0  0  0
 34 33  2  0  0  0  0
 35 33  2  0  0  0  0
 36 41  1  0  0  0  0
 37 39  1  0  0  0  0
 38 40  2  0  0  0  0
 38 39  1  0  0  0  0
 39 36  2  0  0  0  0
 40 42  1  0  0  0  0
 42 41  2  0  0  0  0
M  END
>  <MODEL>
2

>  <REMARK>
 VINA RESULT:      -8.6      3.624      7.788
  Name = 
  10 active torsions:
  status: ('A' for Active; 'I' for Inactive)
    1  A    between atoms: C_1  and  C_10
    2  A    between atoms: C_1  and  N_16
    3  A    between atoms: S_8  and  C_11
    4  A    between atoms: S_8  and  N_30
    5  A    between atoms: C_10  and  C_37
    6  A    between atoms: N_16  and  C_33
    7  A    between atoms: C_19  and  C_36
    8  A    between atoms: C_22  and  C_23
    9  A    between atoms: C_22  and  N_30
   10  A    between atoms: S_34  and  C_38
                            x       y       z     vdW  Elec       q    Type
                         _______ _______ _______ _____ _____    ______ ____

>  <TORSDO>
F 10

$$$$
=
 OpenBabel10222419273D

 42 47  0  0  1  0  0  0  0  0999 V2000
  184.2770  178.3830  140.5420 C   0  0  0  0  0  0  0  0  0  0  0  0
  185.7480  177.8990  138.1460 C   0  0  0  0  0  0  0  0  0  0  0  0
  184.3330  177.7070  138.1230 C   0  0  1  0  0  3  0  0  0  0  0  0
  183.5250  178.6240  141.8170 C   0  0  0  0  0  1  0  0  0  0  0  0
  185.6310  178.5500  140.4980 C   0  0  0  0  0  0  0  0  0  0  0  0
  185.1680  177.2660  136.0830 N   0  0  0  0  0  0  0  0  0  0  0  0
  183.5310  177.9500  139.3220 C   0  0  0  0  0  0  0  0  0  0  0  0
  183.9890  177.3360  136.9000 C   0  0  0  0  0  3  0  0  0  0  0  0
  181.9200  177.8110  139.2910 S   0  0  0  0  0  0  0  0  0  0  0  0
  186.2000  177.5930  136.7990 C   0  0  0  0  0  3  0  0  0  0  0  0
  186.4070  178.2960  139.2380 C   0  0  0  0  0  0  0  0  0  0  0  0
  180.6240  180.1570  139.9320 N   0  0  0  0  0  0  0  0  0  0  0  0
  181.6940  180.2610  137.9550 C   0  0  0  0  0  3  0  0  0  0  0  0
  181.0630  181.4500  138.2620 C   0  0  0  0  0  0  0  0  0  0  0  0
  180.4290  181.3710  139.4480 N   0  0  0  0  0  2  0  0  0  0  0  0
  181.3770  179.4800  139.0480 C   0  0  0  0  0  0  0  0  0  0  0  0
  180.7620  184.7660  135.7440 N   0  0  0  0  0  2  0  0  0  0  0  0
  180.3010  183.5170  135.1420 C   0  0  0  0  0  2  0  0  0  0  0  0
  180.0640  184.9650  137.0190 C   0  0  0  0  0  2  0  0  0  0  0  0
  180.1150  183.7250  137.9310 C   0  0  0  0  0  2  0  0  0  0  0  0
  180.8060  182.3130  135.9440 C   0  0  0  0  0  2  0  0  0  0  0  0
  181.0910  182.6710  137.4070 C   0  0  0  0  0  3  0  0  0  0  0  0
  187.8910  178.4930  139.1850 C   0  0  0  0  0  2  0  0  0  0  0  0
  188.6250  177.1690  139.3460 C   0  0  0  0  0  2  0  0  0  0  0  0
  190.0330  177.3990  139.6650 N   0  0  0  0  0  2  0  0  0  0  0  0
  192.2590  176.8270  138.9250 N   0  0  0  0  0  2  0  0  0  0  0  0
  191.5290  176.0880  136.7690 C   0  0  0  0  0  2  0  0  0  0  0  0
  190.3670  175.9100  137.7120 C   0  0  0  0  0  2  0  0  0  0  0  0
  192.7320  176.2760  137.6630 C   0  0  0  0  0  2  0  0  0  0  0  0
  190.8830  176.3640  139.0680 C   0  0  2  0  0  3  0  0  0  0  0  0
  186.3850  178.9540  141.7310 C   0  0  0  0  0  2  0  0  0  0  0  0
  186.2680  177.9160  142.7410 N   0  0  0  0  0  2  0  0  0  0  0  0
  187.8670  177.4830  143.2500 S   0  0  0  0  0  0  0  0  0  0  0  0
  188.1740  176.0850  142.7920 O   0  0  0  0  0  0  0  0  0  0  0  0
  188.8480  178.4350  142.6250 O   0  0  0  0  0  0  0  0  0  0  0  0
  189.2790  177.4180  147.0650 C   0  0  0  0  0  3  0  0  0  0  0  0
  190.3760  176.9280  144.9480 N   0  0  0  0  0  1  0  0  0  0  0  0
  188.0000  177.5890  145.0060 C   0  0  0  0  0  0  0  0  0  0  0  0
  189.2090  177.3100  145.6710 C   0  0  0  0  0  0  0  0  0  0  0  0
  186.8830  177.9880  145.7490 C   0  0  0  0  0  3  0  0  0  0  0  0
  188.1550  177.8070  147.7980 C   0  0  0  0  0  3  0  0  0  0  0  0
  186.9570  178.0930  147.1410 C   0  0  0  0  0  3  0  0  0  0  0  0
  1  4  1  0  0  0  0
  2 11  1  0  0  0  0
  3  8  1  6  0  0  0
  3  2  1  0  0  0  0
  3  7  1  0  0  0  0
  5  1  1  0  0  0  0
  5 31  1  0  0  0  0
  6 10  1  0  0  0  0
  6  8  2  0  0  0  0
  7  1  2  0  0  0  0
  9  7  1  0  0  0  0
 10  2  2  0  0  0  0
 11  5  2  0  0  0  0
 13 14  2  0  0  0  0
 13 16  1  0  0  0  0
 14 15  1  0  0  0  0
 15 12  1  0  0  0  0
 16  9  1  0  0  0  0
 16 12  2  0  0  0  0
 17 19  1  0  0  0  0
 18 17  1  0  0  0  0
 18 21  1  0  0  0  0
 19 20  1  0  0  0  0
 21 22  1  0  0  0  0
 22 20  1  0  0  0  0
 22 14  1  0  0  0  0
 23 11  1  0  0  0  0
 23 24  1  0  0  0  0
 24 25  1  0  0  0  0
 26 30  1  0  0  0  0
 27 29  1  0  0  0  0
 27 28  1  0  0  0  0
 28 30  1  0  0  0  0
 29 26  1  0  0  0  0
 30 25  1  6  0  0  0
 31 32  1  0  0  0  0
 32 33  1  0  0  0  0
 33 38  1  0  0  0  0
 34 33  2  0  0  0  0
 35 33  2  0  0  0  0
 36 41  1  0  0  0  0
 37 39  1  0  0  0  0
 38 39  1  0  0  0  0
 38 40  2  0  0  0  0
 39 36  2  0  0  0  0
 40 42  1  0  0  0  0
 42 41  2  0  0  0  0
M  END
>  <MODEL>
3

>  <REMARK>
 VINA RESULT:      -8.3      2.021      2.660
  Name = 
  10 active torsions:
  status: ('A' for Active; 'I' for Inactive)
    1  A    between atoms: C_1  and  C_10
    2  A    between atoms: C_1  and  N_16
    3  A    between atoms: S_8  and  C_11
    4  A    between atoms: S_8  and  N_30
    5  A    between atoms: C_10  and  C_37
    6  A    between atoms: N_16  and  C_33
    7  A    between atoms: C_19  and  C_36
    8  A    between atoms: C_22  and  C_23
    9  A    between atoms: C_22  and  N_30
   10  A    between atoms: S_34  and  C_38
                            x       y       z     vdW  Elec       q    Type
                         _______ _______ _______ _____ _____    ______ ____

>  <TORSDO>
F 10

$$$$
=
 OpenBabel10222419273D

 42 47  0  0  1  0  0  0  0  0999 V2000
  189.4940  177.1070  139.0550 C   0  0  0  0  0  0  0  0  0  0  0  0
  186.9950  178.3380  139.6750 C   0  0  0  0  0  0  0  0  0  0  0  0
  187.2300  177.9230  138.3290 C   0  0  0  0  0  0  0  0  0  0  0  0
  190.8200  176.4800  138.7460 C   0  0  0  0  0  1  0  0  0  0  0  0
  189.2070  177.5240  140.3220 C   0  0  0  0  0  0  0  0  0  0  0  0
  185.1760  178.8230  138.4720 N   0  0  0  0  0  0  0  0  0  0  0  0
  188.4910  177.2780  137.9600 C   0  0  0  0  0  0  0  0  0  0  0  0
  186.1510  178.2060  137.6170 C   0  0  0  0  0  3  0  0  0  0  0  0
  188.7420  176.7340  136.4580 S   0  0  0  0  0  0  0  0  0  0  0  0
  185.6570  178.9040  139.6750 C   0  0  0  0  0  2  0  0  0  0  0  0
  187.8920  178.1720  140.6510 C   0  0  0  0  0  0  0  0  0  0  0  0
  189.2230  174.0570  136.9000 N   0  0  0  0  0  0  0  0  0  0  0  0
  187.0720  174.4880  136.3940 C   0  0  0  0  0  3  0  0  0  0  0  0
  187.2880  173.1440  136.6240 C   0  0  0  0  0  0  0  0  0  0  0  0
  188.5790  172.9040  136.9270 N   0  0  0  0  0  2  0  0  0  0  0  0
  188.3350  175.0140  136.5800 C   0  0  0  0  0  0  0  0  0  0  0  0
  184.0960  170.4780  136.2660 N   0  0  0  0  0  2  0  0  0  0  0  0
  183.7070  171.8160  136.7040 C   0  0  0  0  0  2  0  0  0  0  0  0
  184.8750  170.5890  135.0280 C   0  0  0  0  0  2  0  0  0  0  0  0
  186.0170  171.6170  135.1280 C   0  0  0  0  0  2  0  0  0  0  0  0
  184.9300  172.5990  137.1960 C   0  0  0  0  0  2  0  0  0  0  0  0
  186.2320  172.0930  136.5650 C   0  0  0  0  0  3  0  0  0  0  0  0
  187.5710  178.6160  142.0440 C   0  0  0  0  0  2  0  0  0  0  0  0
  186.2920  177.9610  142.5470 C   0  0  0  0  0  2  0  0  0  0  0  0
  185.8770  178.5550  143.8170 N   0  0  0  0  0  2  0  0  0  0  0  0
  183.7660  179.1570  144.8240 N   0  0  0  0  0  2  0  0  0  0  0  0
  182.4860  178.5420  142.8980 C   0  0  0  0  0  2  0  0  0  0  0  0
  183.8640  178.9050  142.4120 C   0  0  0  0  0  2  0  0  0  0  0  0
  182.4090  179.0950  144.3020 C   0  0  0  0  0  2  0  0  0  0  0  0
  184.6310  179.3140  143.6600 C   0  0  2  0  0  3  0  0  0  0  0  0
  190.2240  177.3810  141.4150 C   0  0  0  0  0  2  0  0  0  0  0  0
  189.7400  176.4470  142.4180 N   0  0  0  0  0  2  0  0  0  0  0  0
  190.8570  176.4610  143.7440 S   0  0  0  0  0  0  0  0  0  0  0  0
  191.5280  175.1200  143.8430 O   0  0  0  0  0  0  0  0  0  0  0  0
  191.8960  177.5170  143.4910 O   0  0  0  0  0  0  0  0  0  0  0  0
  189.9900  177.1670  147.6560 C   0  0  0  0  0  3  0  0  0  0  0  0
  192.0860  176.5830  146.5650 N   0  0  0  0  0  1  0  0  0  0  0  0
  190.0150  176.8300  145.2490 C   0  0  0  0  0  0  0  0  0  0  0  0
  190.6900  176.8570  146.4840 C   0  0  0  0  0  0  0  0  0  0  0  0
  188.6480  177.1310  145.2070 C   0  0  0  0  0  3  0  0  0  0  0  0
  188.6240  177.4560  147.6040 C   0  0  0  0  0  3  0  0  0  0  0  0
  187.9530  177.4390  146.3800 C   0  0  0  0  0  3  0  0  0  0  0  0
  1  5  1  0  0  0  0
  2 10  1  0  0  0  0
  2 11  1  0  0  0  0
  3  2  2  0  0  0  0
  4  1  1  0  0  0  0
  5 11  2  0  0  0  0
  5 31  1  0  0  0  0
  6 10  1  0  0  0  0
  7  3  1  0  0  0  0
  7  1  2  0  0  0  0
  8  3  1  0  0  0  0
  8  6  2  0  0  0  0
  9 16  1  0  0  0  0
  9  7  1  0  0  0  0
 11 23  1  0  0  0  0
 12 15  1  0  0  0  0
 13 16  1  0  0  0  0
 13 14  2  0  0  0  0
 14 15  1  0  0  0  0
 16 12  2  0  0  0  0
 17 18  1  0  0  0  0
 18 21  1  0  0  0  0
 19 20  1  0  0  0  0
 19 17  1  0  0  0  0
 20 22  1  0  0  0  0
 22 14  1  0  0  0  0
 22 21  1  0  0  0  0
 23 24  1  0  0  0  0
 24 25  1  0  0  0  0
 27 29  1  0  0  0  0
 28 27  1  0  0  0  0
 28 30  1  0  0  0  0
 29 26  1  0  0  0  0
 30 25  1  1  0  0  0
 30 26  1  0  0  0  0
 31 32  1  0  0  0  0
 32 33  1  0  0  0  0
 33 34  2  0  0  0  0
 33 38  1  0  0  0  0
 35 33  2  0  0  0  0
 38 39  1  0  0  0  0
 39 37  1  0  0  0  0
 39 36  2  0  0  0  0
 40 38  2  0  0  0  0
 40 42  1  0  0  0  0
 41 36  1  0  0  0  0
 42 41  2  0  0  0  0
M  END
>  <MODEL>
4

>  <REMARK>
 VINA RESULT:      -8.3      4.348      8.069
  Name = 
  10 active torsions:
  status: ('A' for Active; 'I' for Inactive)
    1  A    between atoms: C_1  and  C_10
    2  A    between atoms: C_1  and  N_16
    3  A    between atoms: S_8  and  C_11
    4  A    between atoms: S_8  and  N_30
    5  A    between atoms: C_10  and  C_37
    6  A    between atoms: N_16  and  C_33
    7  A    between atoms: C_19  and  C_36
    8  A    between atoms: C_22  and  C_23
    9  A    between atoms: C_22  and  N_30
   10  A    between atoms: S_34  and  C_38
                            x       y       z     vdW  Elec       q    Type
                         _______ _______ _______ _____ _____    ______ ____

>  <TORSDO>
F 10

$$$$
=
 OpenBabel10222419273D

 42 47  0  0  1  0  0  0  0  0999 V2000
  187.0750  177.3080  137.8020 C   0  0  0  0  0  0  0  0  0  0  0  0
  188.9390  175.2100  137.2890 C   0  0  0  0  0  0  0  0  0  0  0  0
  189.3450  176.2840  138.1380 C   0  0  0  0  0  0  0  0  0  0  0  0
  186.0870  178.4100  138.0430 C   0  0  0  0  0  1  0  0  0  0  0  0
  186.7480  176.2530  137.0010 C   0  0  0  0  0  0  0  0  0  0  0  0
  191.0290  174.8060  137.9680 N   0  0  0  0  0  0  0  0  0  0  0  0
  188.4240  177.3800  138.4410 C   0  0  2  0  0  3  0  0  0  0  0  0
  190.5810  176.0430  138.5440 C   0  0  0  0  0  3  0  0  0  0  0  0
  188.8410  178.5640  139.4610 S   0  0  0  0  0  0  0  0  0  0  0  0
  190.0790  174.3110  137.2350 C   0  0  0  0  0  3  0  0  0  0  0  0
  187.7270  175.1470  136.7300 C   0  0  0  0  0  0  0  0  0  0  0  0
  188.6380  177.0650  141.7630 N   0  0  0  0  0  0  0  0  0  0  0  0
  187.0050  178.6030  141.5740 C   0  0  0  0  0  3  0  0  0  0  0  0
  186.8920  177.8720  142.7400 C   0  0  0  0  0  0  0  0  0  0  0  0
  187.8770  176.9580  142.8380 N   0  0  0  0  0  2  0  0  0  0  0  0
  188.1270  178.0430  140.9960 C   0  0  0  0  0  0  0  0  0  0  0  0
  184.1170  178.7890  145.7210 N   0  0  0  0  0  2  0  0  0  0  0  0
  185.5080  178.9840  146.1220 C   0  0  0  0  0  2  0  0  0  0  0  0
  183.8710  179.5310  144.4790 C   0  0  0  0  0  2  0  0  0  0  0  0
  184.9260  179.2490  143.3930 C   0  0  0  0  0  2  0  0  0  0  0  0
  186.4540  178.2610  145.1570 C   0  0  0  0  0  2  0  0  0  0  0  0
  185.8320  178.0750  143.7690 C   0  0  0  0  0  3  0  0  0  0  0  0
  187.3640  173.9810  135.8630 C   0  0  0  0  0  2  0  0  0  0  0  0
  186.8850  172.8040  136.7010 C   0  0  0  0  0  2  0  0  0  0  0  0
  186.5140  171.6810  135.8420 N   0  0  0  0  0  2  0  0  0  0  0  0
  184.3290  172.0450  136.8030 N   0  0  0  0  0  2  0  0  0  0  0  0
  183.4920  169.9100  136.1180 C   0  0  0  0  0  2  0  0  0  0  0  0
  184.5850  170.2850  135.1510 C   0  0  0  0  0  2  0  0  0  0  0  0
  183.1480  171.1950  136.8340 C   0  0  0  0  0  2  0  0  0  0  0  0
  185.0670  171.6540  135.6070 C   0  0  2  0  0  3  0  0  0  0  0  0
  185.4050  176.1950  136.3350 C   0  0  0  0  0  2  0  0  0  0  0  0
  184.4610  175.4940  137.1900 N   0  0  0  0  0  2  0  0  0  0  0  0
  182.9080  176.2360  136.9900 S   0  0  0  0  0  0  0  0  0  0  0  0
  182.9480  177.1640  135.8090 O   0  0  0  0  0  0  0  0  0  0  0  0
  181.8860  175.1630  136.7430 O   0  0  0  0  0  0  0  0  0  0  0  0
  180.9780  178.6040  139.6770 C   0  0  0  0  0  3  0  0  0  0  0  0
  180.4390  178.0370  137.3730 N   0  0  0  0  0  1  0  0  0  0  0  0
  182.4650  177.1280  138.4460 C   0  0  0  0  0  0  0  0  0  0  0  0
  181.3030  177.9220  138.4990 C   0  0  0  0  0  0  0  0  0  0  0  0
  183.2740  177.0190  139.5840 C   0  0  0  0  0  3  0  0  0  0  0  0
  181.7980  178.4970  140.8030 C   0  0  0  0  0  3  0  0  0  0  0  0
  182.9460  177.7030  140.7570 C   0  0  0  0  0  3  0  0  0  0  0  0
  1  4  1  0  0  0  0
  1  7  1  0  0  0  0
  2  3  1  0  0  0  0
  3  7  1  0  0  0  0
  3  8  2  0  0  0  0
  5  1  2  0  0  0  0
  6  8  1  0  0  0  0
  7  9  1  1  0  0  0
  9 16  1  0  0  0  0
 10  2  1  0  0  0  0
 10  6  2  0  0  0  0
 11  5  1  0  0  0  0
 11  2  2  0  0  0  0
 12 15  1  0  0  0  0
 13 14  2  0  0  0  0
 14 15  1  0  0  0  0
 14 22  1  0  0  0  0
 16 13  1  0  0  0  0
 16 12  2  0  0  0  0
 17 18  1  0  0  0  0
 19 17  1  0  0  0  0
 20 22  1  0  0  0  0
 20 19  1  0  0  0  0
 21 18  1  0  0  0  0
 22 21  1  0  0  0  0
 23 24  1  0  0  0  0
 23 11  1  0  0  0  0
 25 24  1  0  0  0  0
 26 29  1  0  0  0  0
 27 29  1  0  0  0  0
 28 30  1  0  0  0  0
 28 27  1  0  0  0  0
 30 25  1  1  0  0  0
 30 26  1  0  0  0  0
 31  5  1  0  0  0  0
 31 32  1  0  0  0  0
 33 32  1  0  0  0  0
 33 38  1  0  0  0  0
 34 33  2  0  0  0  0
 35 33  2  0  0  0  0
 36 41  1  0  0  0  0
 37 39  1  0  0  0  0
 38 39  1  0  0  0  0
 38 40  2  0  0  0  0
 39 36  2  0  0  0  0
 40 42  1  0  0  0  0
 42 41  2  0  0  0  0
M  END
>  <MODEL>
5

>  <REMARK>
 VINA RESULT:      -8.2      4.500      9.001
  Name = 
  10 active torsions:
  status: ('A' for Active; 'I' for Inactive)
    1  A    between atoms: C_1  and  C_10
    2  A    between atoms: C_1  and  N_16
    3  A    between atoms: S_8  and  C_11
    4  A    between atoms: S_8  and  N_30
    5  A    between atoms: C_10  and  C_37
    6  A    between atoms: N_16  and  C_33
    7  A    between atoms: C_19  and  C_36
    8  A    between atoms: C_22  and  C_23
    9  A    between atoms: C_22  and  N_30
   10  A    between atoms: S_34  and  C_38
                            x       y       z     vdW  Elec       q    Type
                         _______ _______ _______ _____ _____    ______ ____

>  <TORSDO>
F 10

$$$$
=
 OpenBabel10222419273D

 42 47  0  0  1  0  0  0  0  0999 V2000
  183.3890  178.1620  139.6120 C   0  0  0  0  0  0  0  0  0  0  0  0
  185.3970  177.7000  137.6380 C   0  0  0  0  0  0  0  0  0  0  0  0
  184.0510  177.3310  137.3350 C   0  0  1  0  0  3  0  0  0  0  0  0
  182.3520  178.3960  140.6700 C   0  0  0  0  0  1  0  0  0  0  0  0
  184.6930  178.4940  139.8390 C   0  0  0  0  0  0  0  0  0  0  0  0
  185.3580  176.8560  135.5700 N   0  0  0  0  0  0  0  0  0  0  0  0
  182.9820  177.5560  138.3090 C   0  0  0  0  0  0  0  0  0  0  0  0
  184.0270  176.8350  136.1080 C   0  0  0  0  0  3  0  0  0  0  0  0
  181.4420  177.2140  137.9520 S   0  0  0  0  0  0  0  0  0  0  0  0
  186.1660  177.3600  136.4530 C   0  0  0  0  0  3  0  0  0  0  0  0
  185.7520  178.2530  138.8020 C   0  0  0  0  0  0  0  0  0  0  0  0
  179.4840  179.0120  137.2260 N   0  0  0  0  0  0  0  0  0  0  0  0
  181.5430  179.9210  137.2450 C   0  0  0  0  0  3  0  0  0  0  0  0
  180.5770  180.8410  136.8920 C   0  0  0  0  0  0  0  0  0  0  0  0
  179.3510  180.2820  136.8870 N   0  0  0  0  0  0  0  0  0  0  0  0
  180.7910  178.7800  137.4410 C   0  0  1  0  0  3  0  0  0  0  0  0
  180.9200  184.8990  135.9720 N   0  0  0  0  0  2  0  0  0  0  0  0
  179.9720  184.1760  135.1280 C   0  0  0  0  0  2  0  0  0  0  0  0
  180.5760  184.6710  137.3800 C   0  0  0  0  0  2  0  0  0  0  0  0
  180.3840  183.1800  137.7160 C   0  0  0  0  0  2  0  0  0  0  0  0
  180.1930  182.6630  135.2430 C   0  0  0  0  0  2  0  0  0  0  0  0
  180.8450  182.2730  136.5740 C   0  0  0  0  0  3  0  0  0  0  0  0
  187.1800  178.6300  139.0450 C   0  0  0  0  0  2  0  0  0  0  0  0
  187.9690  177.4540  139.6040 C   0  0  0  0  0  2  0  0  0  0  0  0
  188.4720  177.7630  140.9410 N   0  0  0  0  0  2  0  0  0  0  0  0
  190.4290  177.6080  142.3470 N   0  0  0  0  0  2  0  0  0  0  0  0
  191.9470  177.5030  140.5000 C   0  0  0  0  0  2  0  0  0  0  0  0
  190.6280  176.9620  140.0160 C   0  0  0  0  0  2  0  0  0  0  0  0
  191.8400  177.5010  142.0070 C   0  0  0  0  0  2  0  0  0  0  0  0
  189.7060  177.0230  141.2240 C   0  0  2  0  0  3  0  0  0  0  0  0
  185.1080  179.0750  141.1590 C   0  0  0  0  0  2  0  0  0  0  0  0
  185.2250  178.0160  142.1480 N   0  0  0  0  0  2  0  0  0  0  0  0
  184.9580  178.7140  143.7120 S   0  0  0  0  0  0  0  0  0  0  0  0
  184.9530  180.2120  143.5940 O   0  0  0  0  0  0  0  0  0  0  0  0
  183.6230  178.2530  144.2260 O   0  0  0  0  0  0  0  0  0  0  0  0
  187.1020  177.9500  147.0840 C   0  0  0  0  0  3  0  0  0  0  0  0
  184.9290  179.0030  146.7780 N   0  0  0  0  0  1  0  0  0  0  0  0
  186.2170  178.1980  144.8340 C   0  0  0  0  0  0  0  0  0  0  0  0
  186.0870  178.3850  146.2240 C   0  0  0  0  0  0  0  0  0  0  0  0
  187.3580  177.5610  144.3310 C   0  0  0  0  0  3  0  0  0  0  0  0
  188.2410  177.3260  146.5700 C   0  0  0  0  0  3  0  0  0  0  0  0
  188.3690  177.1300  145.1940 C   0  0  0  0  0  3  0  0  0  0  0  0
  1  5  1  0  0  0  0
  1  4  1  0  0  0  0
  2 11  1  0  0  0  0
  3  8  1  6  0  0  0
  3  2  1  0  0  0  0
  3  7  1  0  0  0  0
  5 31  1  0  0  0  0
  6  8  2  0  0  0  0
  6 10  1  0  0  0  0
  7  1  2  0  0  0  0
  9  7  1  0  0  0  0
 10  2  2  0  0  0  0
 11 23  1  0  0  0  0
 11  5  2  0  0  0  0
 12 16  1  0  0  0  0
 13 16  1  0  0  0  0
 14 13  2  0  0  0  0
 15 14  1  0  0  0  0
 15 12  2  0  0  0  0
 16  9  1  1  0  0  0
 17 19  1  0  0  0  0
 18 21  1  0  0  0  0
 18 17  1  0  0  0  0
 19 20  1  0  0  0  0
 21 22  1  0  0  0  0
 22 14  1  0  0  0  0
 22 20  1  0  0  0  0
 23 24  1  0  0  0  0
 24 25  1  0  0  0  0
 27 29  1  0  0  0  0
 28 27  1  0  0  0  0
 28 30  1  0  0  0  0
 29 26  1  0  0  0  0
 30 25  1  6  0  0  0
 30 26  1  0  0  0  0
 31 32  1  0  0  0  0
 32 33  1  0  0  0  0
 33 35  2  0  0  0  0
 33 38  1  0  0  0  0
 34 33  2  0  0  0  0
 38 39  1  0  0  0  0
 39 37  1  0  0  0  0
 39 36  2  0  0  0  0
 40 38  2  0  0  0  0
 40 42  1  0  0  0  0
 41 36  1  0  0  0  0
 42 41  2  0  0  0  0
M  END
>  <MODEL>
6

>  <REMARK>
 VINA RESULT:      -8.0      1.779      2.242
  Name = 
  10 active torsions:
  status: ('A' for Active; 'I' for Inactive)
    1  A    between atoms: C_1  and  C_10
    2  A    between atoms: C_1  and  N_16
    3  A    between atoms: S_8  and  C_11
    4  A    between atoms: S_8  and  N_30
    5  A    between atoms: C_10  and  C_37
    6  A    between atoms: N_16  and  C_33
    7  A    between atoms: C_19  and  C_36
    8  A    between atoms: C_22  and  C_23
    9  A    between atoms: C_22  and  N_30
   10  A    between atoms: S_34  and  C_38
                            x       y       z     vdW  Elec       q    Type
                         _______ _______ _______ _____ _____    ______ ____

>  <TORSDO>
F 10

$$$$
=
 OpenBabel10222419273D

 42 47  0  0  1  0  0  0  0  0999 V2000
  185.0530  178.8860  140.4260 C   0  0  0  0  0  0  0  0  0  0  0  0
  184.2650  178.7060  143.1630 C   0  0  0  0  0  0  0  0  0  0  0  0
  183.2440  178.7980  142.1680 C   0  0  0  0  0  0  0  0  0  0  0  0
  185.4890  178.9990  138.9960 C   0  0  0  0  0  1  0  0  0  0  0  0
  185.9800  178.7940  141.4240 C   0  0  0  0  0  0  0  0  0  0  0  0
  182.2830  178.6480  144.1940 N   0  0  0  0  0  0  0  0  0  0  0  0
  183.5950  178.8830  140.7500 C   0  0  0  0  0  0  0  0  0  0  0  0
  182.0710  178.7590  142.7790 C   0  0  0  0  0  3  0  0  0  0  0  0
  182.4500  178.9100  139.6070 S   0  0  0  0  0  0  0  0  0  0  0  0
  183.5600  178.6150  144.4300 C   0  0  0  0  0  2  0  0  0  0  0  0
  185.5670  178.6980  142.8650 C   0  0  0  0  0  0  0  0  0  0  0  0
  181.4800  176.3320  139.6000 N   0  0  0  0  0  0  0  0  0  0  0  0
  183.1340  176.6470  138.1080 C   0  0  0  0  0  3  0  0  0  0  0  0
  182.6540  175.3530  138.0790 C   0  0  0  0  0  0  0  0  0  0  0  0
  181.6640  175.1820  138.9760 N   0  0  0  0  0  0  0  0  0  0  0  0
  182.3540  177.2170  139.0940 C   0  0  1  0  0  3  0  0  0  0  0  0
  184.3510  172.6150  135.4230 N   0  0  0  0  0  2  0  0  0  0  0  0
  184.2990  173.9830  134.9150 C   0  0  0  0  0  2  0  0  0  0  0  0
  185.0200  172.6170  136.7290 C   0  0  0  0  0  2  0  0  0  0  0  0
  184.4430  173.6680  137.6970 C   0  0  0  0  0  2  0  0  0  0  0  0
  183.3250  174.8290  135.7410 C   0  0  0  0  0  2  0  0  0  0  0  0
  183.1490  174.2850  137.1640 C   0  0  0  0  0  3  0  0  0  0  0  0
  186.5830  178.5830  143.9590 C   0  0  0  0  0  2  0  0  0  0  0  0
  186.8060  177.1280  144.3480 C   0  0  0  0  0  2  0  0  0  0  0  0
  188.1650  176.7100  144.0090 N   0  0  0  0  0  2  0  0  0  0  0  0
  190.1680  177.9430  143.4640 N   0  0  0  0  0  2  0  0  0  0  0  0
  191.3040  177.3040  145.4710 C   0  0  0  0  0  2  0  0  0  0  0  0
  189.8280  177.2530  145.7660 C   0  0  0  0  0  2  0  0  0  0  0  0
  191.4190  178.0990  144.1920 C   0  0  0  0  0  2  0  0  0  0  0  0
  189.1500  177.6910  144.4770 C   0  0  2  0  0  3  0  0  0  0  0  0
  187.4450  178.8280  141.1030 C   0  0  0  0  0  2  0  0  0  0  0  0
  187.8940  177.5020  140.7130 N   0  0  0  0  0  2  0  0  0  0  0  0
  189.0710  177.6860  139.4540 S   0  0  0  0  0  0  0  0  0  0  0  0
  189.0480  179.1030  138.9550 O   0  0  0  0  0  0  0  0  0  0  0  0
  190.4310  177.3800  140.0130 O   0  0  0  0  0  0  0  0  0  0  0  0
  189.3490  174.7250  136.6780 C   0  0  0  0  0  3  0  0  0  0  0  0
  190.9280  175.4820  138.3680 N   0  0  0  0  0  1  0  0  0  0  0  0
  188.7280  176.5720  138.1300 C   0  0  0  0  0  0  0  0  0  0  0  0
  189.6630  175.6000  137.7240 C   0  0  0  0  0  0  0  0  0  0  0  0
  187.4850  176.6380  137.4900 C   0  0  0  0  0  3  0  0  0  0  0  0
  188.1100  174.8070  136.0390 C   0  0  0  0  0  3  0  0  0  0  0  0
  187.1770  175.7620  136.4450 C   0  0  0  0  0  3  0  0  0  0  0  0
  1  7  2  0  0  0  0
  1  5  1  0  0  0  0
  2 10  1  0  0  0  0
  3  8  1  0  0  0  0
  3  2  2  0  0  0  0
  4  1  1  0  0  0  0
  5 11  2  0  0  0  0
  6 10  1  0  0  0  0
  7  3  1  0  0  0  0
  8  6  2  0  0  0  0
  9  7  1  0  0  0  0
 11  2  1  0  0  0  0
 11 23  1  0  0  0  0
 13 16  1  0  0  0  0
 14 13  2  0  0  0  0
 14 15  1  0  0  0  0
 15 12  2  0  0  0  0
 16 12  1  0  0  0  0
 16  9  1  6  0  0  0
 17 19  1  0  0  0  0
 18 17  1  0  0  0  0
 18 21  1  0  0  0  0
 19 20  1  0  0  0  0
 21 22  1  0  0  0  0
 22 20  1  0  0  0  0
 22 14  1  0  0  0  0
 23 24  1  0  0  0  0
 25 24  1  0  0  0  0
 26 29  1  0  0  0  0
 26 30  1  0  0  0  0
 27 28  1  0  0  0  0
 29 27  1  0  0  0  0
 30 25  1  6  0  0  0
 30 28  1  0  0  0  0
 31  5  1  0  0  0  0
 32 31  1  0  0  0  0
 33 35  2  0  0  0  0
 33 32  1  0  0  0  0
 34 33  2  0  0  0  0
 36 39  1  0  0  0  0
 38 33  1  0  0  0  0
 39 38  2  0  0  0  0
 39 37  1  0  0  0  0
 40 38  1  0  0  0  0
 41 42  1  0  0  0  0
 41 36  2  0  0  0  0
 42 40  2  0  0  0  0
M  END
>  <MODEL>
7

>  <REMARK>
 VINA RESULT:      -8.0      4.197      7.164
  Name = 
  10 active torsions:
  status: ('A' for Active; 'I' for Inactive)
    1  A    between atoms: C_1  and  C_10
    2  A    between atoms: C_1  and  N_16
    3  A    between atoms: S_8  and  C_11
    4  A    between atoms: S_8  and  N_30
    5  A    between atoms: C_10  and  C_37
    6  A    between atoms: N_16  and  C_33
    7  A    between atoms: C_19  and  C_36
    8  A    between atoms: C_22  and  C_23
    9  A    between atoms: C_22  and  N_30
   10  A    between atoms: S_34  and  C_38
                            x       y       z     vdW  Elec       q    Type
                         _______ _______ _______ _____ _____    ______ ____

>  <TORSDO>
F 10

$$$$
=
 OpenBabel10222419273D

 42 47  0  0  1  0  0  0  0  0999 V2000
  185.3650  178.6880  140.6990 C   0  0  0  0  0  0  0  0  0  0  0  0
  184.0380  178.8290  143.2210 C   0  0  0  0  0  0  0  0  0  0  0  0
  183.2470  178.8980  142.0340 C   0  0  0  0  0  0  0  0  0  0  0  0
  186.0840  178.6310  139.3840 C   0  0  0  0  0  1  0  0  0  0  0  0
  186.0640  178.6250  141.8700 C   0  0  0  0  0  0  0  0  0  0  0  0
  181.8940  179.0130  143.8250 N   0  0  0  0  0  0  0  0  0  0  0  0
  183.8770  178.8210  140.7150 C   0  0  0  0  0  0  0  0  0  0  0  0
  181.9770  179.0030  142.3920 C   0  0  0  0  0  3  0  0  0  0  0  0
  182.9890  178.8200  139.3640 S   0  0  0  0  0  0  0  0  0  0  0  0
  183.0910  178.9120  144.3200 C   0  0  0  0  0  2  0  0  0  0  0  0
  185.3670  178.6990  143.1980 C   0  0  0  0  0  0  0  0  0  0  0  0
  182.1060  176.2310  139.6930 N   0  0  0  0  0  0  0  0  0  0  0  0
  183.4390  176.4790  137.8970 C   0  0  0  0  0  3  0  0  0  0  0  0
  182.9980  175.1780  138.0350 C   0  0  0  0  0  0  0  0  0  0  0  0
  182.2010  175.0480  139.1130 N   0  0  0  0  0  2  0  0  0  0  0  0
  182.8440  177.0970  138.9780 C   0  0  0  0  0  0  0  0  0  0  0  0
  184.2890  172.2730  135.3290 N   0  0  0  0  0  2  0  0  0  0  0  0
  184.3630  173.6390  134.8160 C   0  0  0  0  0  2  0  0  0  0  0  0
  185.0050  172.2050  136.6080 C   0  0  0  0  0  2  0  0  0  0  0  0
  184.5820  173.3130  137.5920 C   0  0  0  0  0  2  0  0  0  0  0  0
  183.5160  174.5840  135.6760 C   0  0  0  0  0  2  0  0  0  0  0  0
  183.3410  174.0620  137.1070 C   0  0  0  0  0  3  0  0  0  0  0  0
  186.1320  178.6170  144.4830 C   0  0  0  0  0  2  0  0  0  0  0  0
  186.2360  177.1770  144.9660 C   0  0  0  0  0  2  0  0  0  0  0  0
  186.8040  177.1280  146.3120 N   0  0  0  0  0  2  0  0  0  0  0  0
  189.0500  177.1320  145.4230 N   0  0  0  0  0  2  0  0  0  0  0  0
  190.0800  177.1160  147.5830 C   0  0  0  0  0  2  0  0  0  0  0  0
  188.7260  177.7570  147.7470 C   0  0  0  0  0  2  0  0  0  0  0  0
  190.3400  177.1290  146.0960 C   0  0  0  0  0  2  0  0  0  0  0  0
  188.1220  177.7700  146.3510 C   0  0  2  0  0  3  0  0  0  0  0  0
  187.5610  178.5230  141.8540 C   0  0  0  0  0  2  0  0  0  0  0  0
  187.9590  177.1300  141.9760 N   0  0  0  0  0  2  0  0  0  0  0  0
  189.6830  177.0520  141.8050 S   0  0  0  0  0  0  0  0  0  0  0  0
  190.3000  178.2730  142.4270 O   0  0  0  0  0  0  0  0  0  0  0  0
  190.1850  175.8270  142.5140 O   0  0  0  0  0  0  0  0  0  0  0  0
  191.7750  176.9470  138.3170 C   0  0  0  0  0  3  0  0  0  0  0  0
  192.5190  177.2250  140.6170 N   0  0  0  0  0  1  0  0  0  0  0  0
  190.1230  176.9530  140.0990 C   0  0  0  0  0  0  0  0  0  0  0  0
  191.4630  177.0440  139.6780 C   0  0  0  0  0  0  0  0  0  0  0  0
  189.1170  176.7480  139.1470 C   0  0  0  0  0  3  0  0  0  0  0  0
  190.7620  176.7540  137.3750 C   0  0  0  0  0  3  0  0  0  0  0  0
  189.4330  176.6520  137.7900 C   0  0  0  0  0  3  0  0  0  0  0  0
  1  7  2  0  0  0  0
  1  5  1  0  0  0  0
  2 10  1  0  0  0  0
  3  8  1  0  0  0  0
  3  2  2  0  0  0  0
  4  1  1  0  0  0  0
  5 11  2  0  0  0  0
  6 10  1  0  0  0  0
  7  3  1  0  0  0  0
  8  6  2  0  0  0  0
  9  7  1  0  0  0  0
 11  2  1  0  0  0  0
 11 23  1  0  0  0  0
 13 14  2  0  0  0  0
 13 16  1  0  0  0  0
 14 15  1  0  0  0  0
 15 12  1  0  0  0  0
 16  9  1  0  0  0  0
 16 12  2  0  0  0  0
 17 19  1  0  0  0  0
 18 17  1  0  0  0  0
 18 21  1  0  0  0  0
 19 20  1  0  0  0  0
 21 22  1  0  0  0  0
 22 20  1  0  0  0  0
 22 14  1  0  0  0  0
 23 24  1  0  0  0  0
 24 25  1  0  0  0  0
 26 29  1  0  0  0  0
 26 30  1  0  0  0  0
 27 28  1  0  0  0  0
 29 27  1  0  0  0  0
 30 25  1  1  0  0  0
 30 28  1  0  0  0  0
 31  5  1  0  0  0  0
 31 32  1  0  0  0  0
 33 32  1  0  0  0  0
 33 34  2  0  0  0  0
 33 35  2  0  0  0  0
 36 39  1  0  0  0  0
 38 33  1  0  0  0  0
 39 38  2  0  0  0  0
 39 37  1  0  0  0  0
 40 38  1  0  0  0  0
 41 42  1  0  0  0  0
 41 36  2  0  0  0  0
 42 40  2  0  0  0  0
M  END
>  <MODEL>
8

>  <REMARK>
 VINA RESULT:      -8.0      3.801      7.026
  Name = 
  10 active torsions:
  status: ('A' for Active; 'I' for Inactive)
    1  A    between atoms: C_1  and  C_10
    2  A    between atoms: C_1  and  N_16
    3  A    between atoms: S_8  and  C_11
    4  A    between atoms: S_8  and  N_30
    5  A    between atoms: C_10  and  C_37
    6  A    between atoms: N_16  and  C_33
    7  A    between atoms: C_19  and  C_36
    8  A    between atoms: C_22  and  C_23
    9  A    between atoms: C_22  and  N_30
   10  A    between atoms: S_34  and  C_38
                            x       y       z     vdW  Elec       q    Type
                         _______ _______ _______ _____ _____    ______ ____

>  <TORSDO>
F 10

$$$$
=
 OpenBabel10222419273D

 42 47  0  0  1  0  0  0  0  0999 V2000
  186.2200  178.5640  139.3260 C   0  0  0  0  0  0  0  0  0  0  0  0
  186.0460  178.4760  142.1730 C   0  0  0  0  0  0  0  0  0  0  0  0
  184.8360  178.5960  141.4230 C   0  0  0  0  0  0  0  0  0  0  0  0
  186.3350  178.6280  137.8320 C   0  0  0  0  0  1  0  0  0  0  0  0
  187.3390  178.4480  140.0990 C   0  0  0  0  0  0  0  0  0  0  0  0
  184.3390  178.5310  143.6140 N   0  0  0  0  0  0  0  0  0  0  0  0
  184.8690  178.6360  139.9610 C   0  0  0  0  0  0  0  0  0  0  0  0
  183.8250  178.6240  142.2760 C   0  0  0  0  0  3  0  0  0  0  0  0
  183.5040  178.6950  139.0950 S   0  0  0  0  0  0  0  0  0  0  0  0
  185.6340  178.4430  143.5660 C   0  0  0  0  0  2  0  0  0  0  0  0
  187.2490  178.4010  141.5980 C   0  0  0  0  0  0  0  0  0  0  0  0
  182.4910  176.1510  139.4050 N   0  0  0  0  0  0  0  0  0  0  0  0
  183.7030  176.3870  137.5240 C   0  0  0  0  0  3  0  0  0  0  0  0
  183.1950  175.1100  137.6530 C   0  0  0  0  0  0  0  0  0  0  0  0
  182.4710  174.9870  138.7820 N   0  0  0  0  0  2  0  0  0  0  0  0
  183.2270  176.9990  138.6660 C   0  0  0  0  0  0  0  0  0  0  0  0
  183.6180  171.7780  135.1730 N   0  0  0  0  0  2  0  0  0  0  0  0
  184.0680  171.5590  136.5450 C   0  0  0  0  0  2  0  0  0  0  0  0
  182.2420  172.2870  135.1980 C   0  0  0  0  0  2  0  0  0  0  0  0
  182.0600  173.4770  136.1580 C   0  0  0  0  0  2  0  0  0  0  0  0
  184.2630  172.8970  137.2680 C   0  0  0  0  0  2  0  0  0  0  0  0
  183.4000  174.0110  136.6660 C   0  0  0  0  0  3  0  0  0  0  0  0
  188.4750  178.2590  142.4460 C   0  0  0  0  0  2  0  0  0  0  0  0
  188.6710  176.8160  142.8880 C   0  0  0  0  0  2  0  0  0  0  0  0
  188.5280  176.7000  144.3380 N   0  0  0  0  0  2  0  0  0  0  0  0
  190.9120  176.7180  144.7220 N   0  0  0  0  0  2  0  0  0  0  0  0
  190.6940  176.7530  147.1040 C   0  0  0  0  0  2  0  0  0  0  0  0
  189.4460  177.3790  146.5390 C   0  0  0  0  0  2  0  0  0  0  0  0
  191.6780  176.7430  145.9590 C   0  0  0  0  0  2  0  0  0  0  0  0
  189.6400  177.3600  145.0310 C   0  0  2  0  0  3  0  0  0  0  0  0
  188.6980  178.4070  139.4640 C   0  0  0  0  0  2  0  0  0  0  0  0
  189.1030  177.0260  139.2590 N   0  0  0  0  0  2  0  0  0  0  0  0
  189.6800  176.8760  137.6310 S   0  0  0  0  0  0  0  0  0  0  0  0
  189.4320  178.1630  136.8950 O   0  0  0  0  0  0  0  0  0  0  0  0
  191.1560  176.6010  137.6640 O   0  0  0  0  0  0  0  0  0  0  0  0
  188.6770  173.1940  136.2210 C   0  0  0  0  0  3  0  0  0  0  0  0
  190.5500  173.9220  137.5940 N   0  0  0  0  0  1  0  0  0  0  0  0
  188.8630  175.5440  136.8140 C   0  0  0  0  0  0  0  0  0  0  0  0
  189.3610  174.2280  136.8720 C   0  0  0  0  0  0  0  0  0  0  0  0
  187.6760  175.7980  136.1170 C   0  0  0  0  0  3  0  0  0  0  0  0
  187.4990  173.4610  135.5190 C   0  0  0  0  0  3  0  0  0  0  0  0
  186.9970  174.7630  135.4680 C   0  0  0  0  0  3  0  0  0  0  0  0
  1  7  2  0  0  0  0
  1  5  1  0  0  0  0
  2 10  1  0  0  0  0
  3  2  2  0  0  0  0
  3  8  1  0  0  0  0
  4  1  1  0  0  0  0
  5 11  2  0  0  0  0
  7  3  1  0  0  0  0
  8  6  2  0  0  0  0
  9  7  1  0  0  0  0
 10  6  1  0  0  0  0
 11  2  1  0  0  0  0
 11 23  1  0  0  0  0
 13 14  2  0  0  0  0
 13 16  1  0  0  0  0
 14 15  1  0  0  0  0
 15 12  1  0  0  0  0
 16  9  1  0  0  0  0
 16 12  2  0  0  0  0
 17 19  1  0  0  0  0
 17 18  1  0  0  0  0
 18 21  1  0  0  0  0
 19 20  1  0  0  0  0
 20 22  1  0  0  0  0
 22 21  1  0  0  0  0
 22 14  1  0  0  0  0
 23 24  1  0  0  0  0
 24 25  1  0  0  0  0
 26 30  1  0  0  0  0
 26 29  1  0  0  0  0
 28 27  1  0  0  0  0
 29 27  1  0  0  0  0
 30 25  1  6  0  0  0
 30 28  1  0  0  0  0
 31  5  1  0  0  0  0
 32 31  1  0  0  0  0
 33 35  2  0  0  0  0
 33 32  1  0  0  0  0
 34 33  2  0  0  0  0
 36 39  1  0  0  0  0
 38 39  2  0  0  0  0
 38 33  1  0  0  0  0
 39 37  1  0  0  0  0
 40 38  1  0  0  0  0
 41 36  2  0  0  0  0
 42 41  1  0  0  0  0
 42 40  2  0  0  0  0
M  END
>  <MODEL>
9

>  <REMARK>
 VINA RESULT:      -7.9      4.648      7.977
  Name = 
  10 active torsions:
  status: ('A' for Active; 'I' for Inactive)
    1  A    between atoms: C_1  and  C_10
    2  A    between atoms: C_1  and  N_16
    3  A    between atoms: S_8  and  C_11
    4  A    between atoms: S_8  and  N_30
    5  A    between atoms: C_10  and  C_37
    6  A    between atoms: N_16  and  C_33
    7  A    between atoms: C_19  and  C_36
    8  A    between atoms: C_22  and  C_23
    9  A    between atoms: C_22  and  N_30
   10  A    between atoms: S_34  and  C_38
                            x       y       z     vdW  Elec       q    Type
                         _______ _______ _______ _____ _____    ______ ____

>  <TORSDO>
F 10

$$$$
