=
 OpenBabel10222418263D

 26 30  0  0  1  0  0  0  0  0999 V2000
  183.7610  179.2300  144.6960 C   0  0  0  0  0  1  0  0  0  0  0  0
  184.7760  178.2570  144.1230 C   0  0  1  0  0  3  0  0  0  0  0  0
  185.4880  177.9510  138.6110 N   0  0  0  0  0  0  0  0  0  0  0  0
  183.2860  177.5470  137.7930 N   0  0  0  0  0  2  0  0  0  0  0  0
  182.7850  178.5910  140.3170 C   0  0  0  0  0  0  0  0  0  0  0  0
  181.9080  177.6450  138.2940 C   0  0  0  0  0  2  0  0  0  0  0  0
  184.9590  179.2990  140.4230 N   0  0  0  0  0  0  0  0  0  0  0  0
  181.9320  177.7790  139.7590 N   0  0  0  0  0  0  0  0  0  0  0  0
  183.8340  179.2820  139.5180 C   0  0  1  0  0  3  0  0  0  0  0  0
  184.4540  178.8270  141.6770 C   0  0  0  0  0  0  0  0  0  0  0  0
  184.2670  178.3430  138.4640 C   0  0  0  0  0  0  0  0  0  0  0  0
  185.2740  178.7440  142.8440 N   0  0  0  0  0  2  0  0  0  0  0  0
  186.0800  178.6500  139.7480 C   0  0  0  0  0  2  0  0  0  0  0  0
  183.2230  178.4190  141.6570 N   0  0  0  0  0  0  0  0  0  0  0  0
  187.9490  177.7530  146.8420 C   0  0  0  0  0  0  0  0  0  0  0  0
  186.7660  178.2420  147.2820 N   0  0  0  0  0  0  0  0  0  0  0  0
  185.7670  178.3960  146.4040 N   0  0  0  0  0  0  0  0  0  0  0  0
  189.9010  177.0460  146.6170 C   0  0  0  0  0  0  0  0  0  0  0  0
  187.1330  177.5620  144.6040 C   0  0  0  0  0  3  0  0  0  0  0  0
  185.9100  178.0740  145.0750 C   0  0  0  0  0  0  0  0  0  0  0  0
  188.1390  177.4190  145.5470 C   0  0  0  0  0  0  0  0  0  0  0  0
  189.0540  177.5300  147.5680 N   0  0  0  0  0  0  0  0  0  0  0  0
  189.3590  176.9780  145.4090 O   0  0  0  0  0  0  0  0  0  0  0  0
  191.2800  176.6360  146.9030 C   0  0  0  0  0  0  0  0  0  0  0  0
  192.0210  175.7720  145.9440 C   0  0  0  0  0  1  0  0  0  0  0  0
  191.8600  177.0120  147.9960 N   0  0  0  0  0  2  0  0  0  0  0  0
  2  1  1  1  0  0  0
  2 20  1  0  0  0  0
  3 13  1  0  0  0  0
  4  6  1  0  0  0  0
  4 11  1  0  0  0  0
  5 14  1  0  0  0  0
  6  8  1  0  0  0  0
  7 10  1  0  0  0  0
  8  5  2  0  0  0  0
  9 11  1  6  0  0  0
  9  5  1  0  0  0  0
  9  7  1  0  0  0  0
 10 12  1  0  0  0  0
 11  3  2  0  0  0  0
 12  2  1  0  0  0  0
 13  7  1  0  0  0  0
 14 10  2  0  0  0  0
 15 16  1  0  0  0  0
 15 22  1  0  0  0  0
 17 16  2  0  0  0  0
 18 24  1  0  0  0  0
 18 22  2  0  0  0  0
 19 20  2  0  0  0  0
 19 21  1  0  0  0  0
 20 17  1  0  0  0  0
 21 15  2  0  0  0  0
 23 21  1  0  0  0  0
 23 18  1  0  0  0  0
 24 26  2  0  0  0  0
 25 24  1  0  0  0  0
M  END
>  <MODEL>
1

>  <REMARK>
 VINA RESULT:      -8.1      0.000      0.000
  Name = 
  3 active torsions:
  status: ('A' for Active; 'I' for Inactive)
    1  A    between atoms: C_1  and  C_14
    2  A    between atoms: C_18  and  C_22
    3  A    between atoms: N_21  and  C_22
                            x       y       z     vdW  Elec       q    Type
                         _______ _______ _______ _____ _____    ______ ____

>  <TORSDO>
F 3

$$$$
=
 OpenBabel10222418263D

 26 30  0  0  1  0  0  0  0  0999 V2000
  188.2150  178.1990  139.7390 C   0  0  0  0  0  1  0  0  0  0  0  0
  189.1730  177.1040  140.1780 C   0  0  1  0  0  3  0  0  0  0  0  0
  194.1420  175.3900  138.3480 N   0  0  0  0  0  0  0  0  0  0  0  0
  193.6030  173.5400  136.9450 N   0  0  0  0  0  2  0  0  0  0  0  0
  191.1820  174.8940  137.0740 C   0  0  0  0  0  0  0  0  0  0  0  0
  192.4110  172.9910  136.2830 C   0  0  0  0  0  2  0  0  0  0  0  0
  192.2780  176.7080  137.9400 N   0  0  0  0  0  0  0  0  0  0  0  0
  191.2070  173.6080  136.8620 N   0  0  0  0  0  0  0  0  0  0  0  0
  192.3950  175.7360  136.8780 C   0  0  1  0  0  3  0  0  0  0  0  0
  190.9830  176.4990  138.5140 C   0  0  0  0  0  0  0  0  0  0  0  0
  193.5570  174.9260  137.2950 C   0  0  0  0  0  0  0  0  0  0  0  0
  190.4830  177.3120  139.5780 N   0  0  0  0  0  2  0  0  0  0  0  0
  193.4970  176.6400  138.7400 C   0  0  0  0  0  2  0  0  0  0  0  0
  190.3300  175.4800  138.0470 N   0  0  0  0  0  0  0  0  0  0  0  0
  189.5440  177.0420  144.3700 C   0  0  0  0  0  0  0  0  0  0  0  0
  190.5530  176.5620  143.6060 N   0  0  0  0  0  0  0  0  0  0  0  0
  190.4190  176.5890  142.2730 N   0  0  0  0  0  0  0  0  0  0  0  0
  188.2770  177.6640  145.9080 C   0  0  0  0  0  0  0  0  0  0  0  0
  188.2350  177.5920  142.4480 C   0  0  0  0  0  3  0  0  0  0  0  0
  189.2900  177.0880  141.6650 C   0  0  0  0  0  0  0  0  0  0  0  0
  188.4170  177.5440  143.8220 C   0  0  0  0  0  0  0  0  0  0  0  0
  189.5000  177.0990  145.7100 N   0  0  0  0  0  0  0  0  0  0  0  0
  187.6260  177.9320  144.7840 O   0  0  0  0  0  0  0  0  0  0  0  0
  187.7320  177.9530  147.2400 C   0  0  0  0  0  0  0  0  0  0  0  0
  188.5800  177.7880  148.4510 C   0  0  0  0  0  1  0  0  0  0  0  0
  186.5070  178.3430  147.3730 N   0  0  0  0  0  2  0  0  0  0  0  0
  2  1  1  1  0  0  0
  2 20  1  0  0  0  0
  3 13  1  0  0  0  0
  4 11  1  0  0  0  0
  5 14  1  0  0  0  0
  6  8  1  0  0  0  0
  6  4  1  0  0  0  0
  7 10  1  0  0  0  0
  7 13  1  0  0  0  0
  8  5  2  0  0  0  0
  9  5  1  1  0  0  0
  9 11  1  0  0  0  0
  9  7  1  0  0  0  0
 10 12  1  0  0  0  0
 11  3  2  0  0  0  0
 12  2  1  0  0  0  0
 14 10  2  0  0  0  0
 15 22  1  0  0  0  0
 16 15  2  0  0  0  0
 17 16  1  0  0  0  0
 18 24  1  0  0  0  0
 19 21  2  0  0  0  0
 20 17  2  0  0  0  0
 20 19  1  0  0  0  0
 21 15  1  0  0  0  0
 21 23  1  0  0  0  0
 22 18  2  0  0  0  0
 23 18  1  0  0  0  0
 24 26  2  0  0  0  0
 24 25  1  0  0  0  0
M  END
>  <MODEL>
2

>  <REMARK>
 VINA RESULT:      -7.8      5.480      7.103
  Name = 
  3 active torsions:
  status: ('A' for Active; 'I' for Inactive)
    1  A    between atoms: C_1  and  C_14
    2  A    between atoms: C_18  and  C_22
    3  A    between atoms: N_21  and  C_22
                            x       y       z     vdW  Elec       q    Type
                         _______ _______ _______ _____ _____    ______ ____

>  <TORSDO>
F 3

$$$$
=
 OpenBabel10222418263D

 26 30  0  0  1  0  0  0  0  0999 V2000
  184.9390  179.2500  144.4200 C   0  0  0  0  0  1  0  0  0  0  0  0
  185.4600  178.2180  143.4350 C   0  0  1  0  0  3  0  0  0  0  0  0
  183.9690  178.0040  138.0760 N   0  0  0  0  0  0  0  0  0  0  0  0
  181.6400  177.5070  138.1730 N   0  0  0  0  0  2  0  0  0  0  0  0
  182.1270  178.4990  140.7200 C   0  0  0  0  0  0  0  0  0  0  0  0
  180.5650  177.5360  139.1740 C   0  0  0  0  0  2  0  0  0  0  0  0
  184.1400  179.3070  139.9870 N   0  0  0  0  0  0  0  0  0  0  0  0
  181.1560  177.6550  140.5170 N   0  0  0  0  0  0  0  0  0  0  0  0
  182.7520  179.2470  139.5940 C   0  0  1  0  0  3  0  0  0  0  0  0
  184.1840  178.7980  141.3260 C   0  0  0  0  0  0  0  0  0  0  0  0
  182.7740  178.3400  138.4290 C   0  0  0  0  0  0  0  0  0  0  0  0
  185.3980  178.7410  142.0770 N   0  0  0  0  0  2  0  0  0  0  0  0
  184.9320  178.7170  138.9110 C   0  0  0  0  0  2  0  0  0  0  0  0
  183.0610  178.3340  141.7770 N   0  0  0  0  0  0  0  0  0  0  0  0
  189.4320  177.1660  144.3490 C   0  0  0  0  0  0  0  0  0  0  0  0
  189.0580  177.2930  143.0550 N   0  0  0  0  0  0  0  0  0  0  0  0
  187.7910  177.6290  142.7810 N   0  0  0  0  0  0  0  0  0  0  0  0
  190.4310  176.8670  146.1580 C   0  0  0  0  0  0  0  0  0  0  0  0
  187.2400  177.7180  145.1240 C   0  0  0  0  0  3  0  0  0  0  0  0
  186.8640  177.8440  143.7740 C   0  0  0  0  0  0  0  0  0  0  0  0
  188.5600  177.3690  145.3600 C   0  0  0  0  0  0  0  0  0  0  0  0
  190.6470  176.8410  144.8130 N   0  0  0  0  0  0  0  0  0  0  0  0
  189.1860  177.1820  146.4900 O   0  0  0  0  0  0  0  0  0  0  0  0
  191.4770  176.5780  147.1460 C   0  0  0  0  0  0  0  0  0  0  0  0
  192.3200  175.3580  147.0130 C   0  0  0  0  0  1  0  0  0  0  0  0
  191.6670  177.3730  148.1460 N   0  0  0  0  0  2  0  0  0  0  0  0
  2 20  1  0  0  0  0
  2  1  1  1  0  0  0
  3 11  2  0  0  0  0
  3 13  1  0  0  0  0
  4 11  1  0  0  0  0
  4  6  1  0  0  0  0
  5 14  1  0  0  0  0
  6  8  1  0  0  0  0
  7 10  1  0  0  0  0
  8  5  2  0  0  0  0
  9 11  1  6  0  0  0
  9  7  1  0  0  0  0
  9  5  1  0  0  0  0
 10 14  2  0  0  0  0
 10 12  1  0  0  0  0
 12  2  1  0  0  0  0
 13  7  1  0  0  0  0
 15 22  1  0  0  0  0
 15 21  1  0  0  0  0
 16 15  2  0  0  0  0
 17 16  1  0  0  0  0
 17 20  2  0  0  0  0
 18 23  1  0  0  0  0
 18 24  1  0  0  0  0
 19 21  2  0  0  0  0
 20 19  1  0  0  0  0
 21 23  1  0  0  0  0
 22 18  2  0  0  0  0
 24 26  2  0  0  0  0
 25 24  1  0  0  0  0
M  END
>  <MODEL>
3

>  <REMARK>
 VINA RESULT:      -7.8      1.638      1.832
  Name = 
  3 active torsions:
  status: ('A' for Active; 'I' for Inactive)
    1  A    between atoms: C_1  and  C_14
    2  A    between atoms: C_18  and  C_22
    3  A    between atoms: N_21  and  C_22
                            x       y       z     vdW  Elec       q    Type
                         _______ _______ _______ _____ _____    ______ ____

>  <TORSDO>
F 3

$$$$
=
 OpenBabel10222418263D

 26 30  0  0  1  0  0  0  0  0999 V2000
  186.0820  179.2780  141.7600 C   0  0  0  0  0  1  0  0  0  0  0  0
  187.0040  178.0710  141.7270 C   0  0  1  0  0  3  0  0  0  0  0  0
  190.0420  176.9930  137.1900 N   0  0  0  0  0  0  0  0  0  0  0  0
  188.4140  176.8780  135.4520 N   0  0  0  0  0  2  0  0  0  0  0  0
  187.0580  178.2860  137.4250 C   0  0  0  0  0  0  0  0  0  0  0  0
  187.0120  177.2710  135.2510 C   0  0  0  0  0  2  0  0  0  0  0  0
  189.0460  178.6180  138.5110 N   0  0  0  0  0  0  0  0  0  0  0  0
  186.4000  177.5720  136.5560 N   0  0  0  0  0  0  0  0  0  0  0  0
  188.4730  178.6870  137.1870 C   0  0  1  0  0  3  0  0  0  0  0  0
  187.9440  178.3930  139.3980 C   0  0  0  0  0  0  0  0  0  0  0  0
  189.1290  177.5680  136.4820 C   0  0  0  0  0  0  0  0  0  0  0  0
  188.1130  178.3100  140.8140 N   0  0  0  0  0  2  0  0  0  0  0  0
  190.1880  177.7100  138.4530 C   0  0  0  0  0  2  0  0  0  0  0  0
  186.7990  178.2030  138.8180 N   0  0  0  0  0  0  0  0  0  0  0  0
  188.4270  177.2520  145.6030 C   0  0  0  0  0  0  0  0  0  0  0  0
  187.0990  177.4270  145.4040 N   0  0  0  0  0  0  0  0  0  0  0  0
  186.6630  177.6870  144.1650 N   0  0  0  0  0  0  0  0  0  0  0  0
  190.3430  176.9150  146.3600 C   0  0  0  0  0  0  0  0  0  0  0  0
  188.9040  177.5990  143.2880 C   0  0  0  0  0  3  0  0  0  0  0  0
  187.5230  177.7810  143.0960 C   0  0  0  0  0  0  0  0  0  0  0  0
  189.3110  177.3330  144.5860 C   0  0  0  0  0  0  0  0  0  0  0  0
  189.0440  176.9850  146.7630 N   0  0  0  0  0  0  0  0  0  0  0  0
  190.5080  177.1220  145.0610 O   0  0  0  0  0  0  0  0  0  0  0  0
  191.4550  176.6340  147.2760 C   0  0  0  0  0  0  0  0  0  0  0  0
  192.3230  175.4440  147.0620 C   0  0  0  0  0  1  0  0  0  0  0  0
  191.6820  177.4120  148.2830 N   0  0  0  0  0  2  0  0  0  0  0  0
  2  1  1  1  0  0  0
  2 20  1  0  0  0  0
  3 13  1  0  0  0  0
  4 11  1  0  0  0  0
  5 14  1  0  0  0  0
  6  4  1  0  0  0  0
  6  8  1  0  0  0  0
  7 10  1  0  0  0  0
  8  5  2  0  0  0  0
  9 11  1  6  0  0  0
  9  5  1  0  0  0  0
  9  7  1  0  0  0  0
 10 12  1  0  0  0  0
 11  3  2  0  0  0  0
 12  2  1  0  0  0  0
 13  7  1  0  0  0  0
 14 10  2  0  0  0  0
 15 22  1  0  0  0  0
 16 15  1  0  0  0  0
 17 16  2  0  0  0  0
 18 22  2  0  0  0  0
 18 24  1  0  0  0  0
 19 21  1  0  0  0  0
 20 19  2  0  0  0  0
 20 17  1  0  0  0  0
 21 23  1  0  0  0  0
 21 15  2  0  0  0  0
 23 18  1  0  0  0  0
 24 26  2  0  0  0  0
 25 24  1  0  0  0  0
M  END
>  <MODEL>
4

>  <REMARK>
 VINA RESULT:      -7.8      2.685      3.672
  Name = 
  3 active torsions:
  status: ('A' for Active; 'I' for Inactive)
    1  A    between atoms: C_1  and  C_14
    2  A    between atoms: C_18  and  C_22
    3  A    between atoms: N_21  and  C_22
                            x       y       z     vdW  Elec       q    Type
                         _______ _______ _______ _____ _____    ______ ____

>  <TORSDO>
F 3

$$$$
=
 OpenBabel10222418263D

 26 30  0  0  1  0  0  0  0  0999 V2000
  190.5970  176.8540  141.8090 C   0  0  0  0  0  1  0  0  0  0  0  0
  189.8990  177.4640  140.6040 C   0  0  1  0  0  3  0  0  0  0  0  0
  190.7570  175.6720  135.4050 N   0  0  0  0  0  0  0  0  0  0  0  0
  193.0830  176.0680  135.0640 N   0  0  0  0  0  2  0  0  0  0  0  0
  192.8930  176.0800  137.8340 C   0  0  0  0  0  0  0  0  0  0  0  0
  194.2670  176.3540  135.8860 C   0  0  0  0  0  2  0  0  0  0  0  0
  190.8080  175.1520  137.6650 N   0  0  0  0  0  0  0  0  0  0  0  0
  193.8360  176.7520  137.2350 N   0  0  0  0  0  0  0  0  0  0  0  0
  192.1410  175.0050  137.1290 C   0  0  1  0  0  3  0  0  0  0  0  0
  190.9200  176.1090  138.7250 C   0  0  0  0  0  0  0  0  0  0  0  0
  191.9850  175.4330  135.7250 C   0  0  0  0  0  0  0  0  0  0  0  0
  189.8020  176.4850  139.5300 N   0  0  0  0  0  2  0  0  0  0  0  0
  189.8970  175.3490  136.5400 C   0  0  0  0  0  2  0  0  0  0  0  0
  192.0900  176.6550  138.8530 N   0  0  0  0  0  0  0  0  0  0  0  0
  186.0510  178.8230  141.6350 C   0  0  0  0  0  0  0  0  0  0  0  0
  186.5040  179.0020  140.3720 N   0  0  0  0  0  0  0  0  0  0  0  0
  187.7310  178.5640  140.0610 N   0  0  0  0  0  0  0  0  0  0  0  0
  184.9630  178.7600  143.4160 C   0  0  0  0  0  0  0  0  0  0  0  0
  188.0780  177.7460  142.3000 C   0  0  0  0  0  3  0  0  0  0  0  0
  188.5380  177.9410  140.9840 C   0  0  0  0  0  0  0  0  0  0  0  0
  186.8040  178.2150  142.5770 C   0  0  0  0  0  0  0  0  0  0  0  0
  184.8590  179.1900  142.1280 N   0  0  0  0  0  0  0  0  0  0  0  0
  186.1220  178.1770  143.6900 O   0  0  0  0  0  0  0  0  0  0  0  0
  183.8920  178.9230  144.4060 C   0  0  0  0  0  0  0  0  0  0  0  0
  182.4710  179.0010  143.9710 C   0  0  0  0  0  1  0  0  0  0  0  0
  184.1760  179.0120  145.6640 N   0  0  0  0  0  2  0  0  0  0  0  0
  2 20  1  0  0  0  0
  2  1  1  1  0  0  0
  3 11  2  0  0  0  0
  3 13  1  0  0  0  0
  4 11  1  0  0  0  0
  4  6  1  0  0  0  0
  5 14  1  0  0  0  0
  6  8  1  0  0  0  0
  7 10  1  0  0  0  0
  8  5  2  0  0  0  0
  9 11  1  6  0  0  0
  9  7  1  0  0  0  0
  9  5  1  0  0  0  0
 10 14  2  0  0  0  0
 10 12  1  0  0  0  0
 12  2  1  0  0  0  0
 13  7  1  0  0  0  0
 15 22  1  0  0  0  0
 15 21  1  0  0  0  0
 16 15  2  0  0  0  0
 17 16  1  0  0  0  0
 17 20  2  0  0  0  0
 18 23  1  0  0  0  0
 18 24  1  0  0  0  0
 19 21  2  0  0  0  0
 20 19  1  0  0  0  0
 21 23  1  0  0  0  0
 22 18  2  0  0  0  0
 24 26  2  0  0  0  0
 25 24  1  0  0  0  0
M  END
>  <MODEL>
5

>  <REMARK>
 VINA RESULT:      -7.7      5.240      7.913
  Name = 
  3 active torsions:
  status: ('A' for Active; 'I' for Inactive)
    1  A    between atoms: C_1  and  C_14
    2  A    between atoms: C_18  and  C_22
    3  A    between atoms: N_21  and  C_22
                            x       y       z     vdW  Elec       q    Type
                         _______ _______ _______ _____ _____    ______ ____

>  <TORSDO>
F 3

$$$$
=
 OpenBabel10222418263D

 26 30  0  0  1  0  0  0  0  0999 V2000
  181.7820  179.3740  143.1770 C   0  0  0  0  0  1  0  0  0  0  0  0
  182.9790  178.4930  142.8610 C   0  0  1  0  0  3  0  0  0  0  0  0
  186.0270  177.7780  138.2590 N   0  0  0  0  0  0  0  0  0  0  0  0
  184.9570  175.9480  137.1700 N   0  0  0  0  0  2  0  0  0  0  0  0
  182.9640  176.8510  138.8790 C   0  0  0  0  0  0  0  0  0  0  0  0
  183.6720  175.2390  137.2480 C   0  0  0  0  0  2  0  0  0  0  0  0
  184.1600  178.7740  139.2090 N   0  0  0  0  0  0  0  0  0  0  0  0
  182.9920  175.6040  138.5020 N   0  0  0  0  0  0  0  0  0  0  0  0
  183.7240  177.9000  138.1460 C   0  0  1  0  0  3  0  0  0  0  0  0
  183.4930  178.3100  140.3890 C   0  0  0  0  0  0  0  0  0  0  0  0
  184.9830  177.2830  137.6840 C   0  0  0  0  0  0  0  0  0  0  0  0
  183.6430  178.9600  141.6520 N   0  0  0  0  0  2  0  0  0  0  0  0
  185.6150  178.8730  139.1330 C   0  0  0  0  0  2  0  0  0  0  0  0
  182.8020  177.2220  140.2400 N   0  0  0  0  0  0  0  0  0  0  0  0
  185.6530  178.5230  146.1120 C   0  0  0  0  0  0  0  0  0  0  0  0
  184.3820  178.9490  146.2920 N   0  0  0  0  0  0  0  0  0  0  0  0
  183.5430  178.9340  145.2480 N   0  0  0  0  0  0  0  0  0  0  0  0
  187.6570  177.9650  146.2950 C   0  0  0  0  0  0  0  0  0  0  0  0
  185.2560  178.0500  143.8030 C   0  0  0  0  0  3  0  0  0  0  0  0
  183.9380  178.4990  144.0040 C   0  0  0  0  0  0  0  0  0  0  0  0
  186.0890  178.0840  144.9110 C   0  0  0  0  0  0  0  0  0  0  0  0
  186.6260  178.4650  147.0330 N   0  0  0  0  0  0  0  0  0  0  0  0
  187.3410  177.7370  145.0280 O   0  0  0  0  0  0  0  0  0  0  0  0
  188.9900  177.7030  146.8510 C   0  0  0  0  0  0  0  0  0  0  0  0
  189.2720  177.9720  148.2870 C   0  0  0  0  0  1  0  0  0  0  0  0
  189.9330  177.2460  146.0950 N   0  0  0  0  0  2  0  0  0  0  0  0
  2  1  1  1  0  0  0
  2 20  1  0  0  0  0
  3 13  1  0  0  0  0
  4  6  1  0  0  0  0
  4 11  1  0  0  0  0
  5 14  1  0  0  0  0
  6  8  1  0  0  0  0
  7 10  1  0  0  0  0
  8  5  2  0  0  0  0
  9 11  1  1  0  0  0
  9  5  1  0  0  0  0
  9  7  1  0  0  0  0
 10 12  1  0  0  0  0
 11  3  2  0  0  0  0
 12  2  1  0  0  0  0
 13  7  1  0  0  0  0
 14 10  2  0  0  0  0
 15 16  1  0  0  0  0
 15 22  1  0  0  0  0
 17 16  2  0  0  0  0
 18 24  1  0  0  0  0
 18 22  2  0  0  0  0
 19 20  2  0  0  0  0
 19 21  1  0  0  0  0
 20 17  1  0  0  0  0
 21 23  1  0  0  0  0
 21 15  2  0  0  0  0
 23 18  1  0  0  0  0
 24 25  1  0  0  0  0
 26 24  2  0  0  0  0
M  END
>  <MODEL>
6

>  <REMARK>
 VINA RESULT:      -7.7      1.587      2.352
  Name = 
  3 active torsions:
  status: ('A' for Active; 'I' for Inactive)
    1  A    between atoms: C_1  and  C_14
    2  A    between atoms: C_18  and  C_22
    3  A    between atoms: N_21  and  C_22
                            x       y       z     vdW  Elec       q    Type
                         _______ _______ _______ _____ _____    ______ ____

>  <TORSDO>
F 3

$$$$
=
 OpenBabel10222418263D

 26 30  0  0  1  0  0  0  0  0999 V2000
  184.0960  177.6120  141.2640 C   0  0  0  0  0  1  0  0  0  0  0  0
  183.7120  178.8420  142.0690 C   0  0  1  0  0  3  0  0  0  0  0  0
  178.9320  181.5940  141.3240 N   0  0  0  0  0  0  0  0  0  0  0  0
  179.0900  182.3720  139.0760 N   0  0  0  0  0  2  0  0  0  0  0  0
  180.9490  180.3100  139.1080 C   0  0  0  0  0  0  0  0  0  0  0  0
  179.9010  182.0870  137.8840 C   0  0  0  0  0  2  0  0  0  0  0  0
  180.0650  179.5840  141.0910 N   0  0  0  0  0  0  0  0  0  0  0  0
  181.0830  181.3040  138.2770 N   0  0  0  0  0  0  0  0  0  0  0  0
  179.6500  180.0330  139.7820 C   0  0  1  0  0  3  0  0  0  0  0  0
  181.4890  179.4480  141.0200 C   0  0  0  0  0  0  0  0  0  0  0  0
  179.0190  181.3370  140.0620 C   0  0  0  0  0  0  0  0  0  0  0  0
  182.2630  178.9760  142.1240 N   0  0  0  0  0  2  0  0  0  0  0  0
  179.4200  180.4440  142.0800 C   0  0  0  0  0  2  0  0  0  0  0  0
  182.0260  179.8470  139.9090 N   0  0  0  0  0  0  0  0  0  0  0  0
  185.2410  178.5840  145.9830 C   0  0  0  0  0  0  0  0  0  0  0  0
  183.9670  178.9990  145.7920 N   0  0  0  0  0  0  0  0  0  0  0  0
  183.4950  179.0750  144.5400 N   0  0  0  0  0  0  0  0  0  0  0  0
  187.1010  178.0070  146.7350 C   0  0  0  0  0  0  0  0  0  0  0  0
  185.5930  178.3120  143.6350 C   0  0  0  0  0  3  0  0  0  0  0  0
  184.2680  178.7460  143.4510 C   0  0  0  0  0  0  0  0  0  0  0  0
  186.0380  178.2480  144.9460 C   0  0  0  0  0  0  0  0  0  0  0  0
  185.8810  178.4450  147.1530 N   0  0  0  0  0  0  0  0  0  0  0  0
  187.2000  177.8880  145.4180 O   0  0  0  0  0  0  0  0  0  0  0  0
  188.2000  177.6930  147.6550 C   0  0  0  0  0  0  0  0  0  0  0  0
  189.2880  176.7670  147.2380 C   0  0  0  0  0  1  0  0  0  0  0  0
  188.2270  178.2090  148.8400 N   0  0  0  0  0  2  0  0  0  0  0  0
  2  1  1  6  0  0  0
  2 12  1  0  0  0  0
  2 20  1  0  0  0  0
  3 13  1  0  0  0  0
  4 11  1  0  0  0  0
  5 14  1  0  0  0  0
  6  8  1  0  0  0  0
  6  4  1  0  0  0  0
  7 13  1  0  0  0  0
  8  5  2  0  0  0  0
  9  5  1  6  0  0  0
  9 11  1  0  0  0  0
  9  7  1  0  0  0  0
 10  7  1  0  0  0  0
 10 12  1  0  0  0  0
 11  3  2  0  0  0  0
 14 10  2  0  0  0  0
 15 22  1  0  0  0  0
 16 15  1  0  0  0  0
 17 16  2  0  0  0  0
 18 22  2  0  0  0  0
 18 24  1  0  0  0  0
 19 21  1  0  0  0  0
 20 19  2  0  0  0  0
 20 17  1  0  0  0  0
 21 23  1  0  0  0  0
 21 15  2  0  0  0  0
 23 18  1  0  0  0  0
 24 26  2  0  0  0  0
 25 24  1  0  0  0  0
M  END
>  <MODEL>
7

>  <REMARK>
 VINA RESULT:      -7.4      2.767      4.111
  Name = 
  3 active torsions:
  status: ('A' for Active; 'I' for Inactive)
    1  A    between atoms: C_1  and  C_14
    2  A    between atoms: C_18  and  C_22
    3  A    between atoms: N_21  and  C_22
                            x       y       z     vdW  Elec       q    Type
                         _______ _______ _______ _____ _____    ______ ____

>  <TORSDO>
F 3

$$$$
=
 OpenBabel10222418263D

 26 30  0  0  1  0  0  0  0  0999 V2000
  187.4630  178.5790  141.6830 C   0  0  0  0  0  1  0  0  0  0  0  0
  187.0290  177.8500  142.9430 C   0  0  1  0  0  3  0  0  0  0  0  0
  190.4010  176.7530  147.2330 N   0  0  0  0  0  0  0  0  0  0  0  0
  192.0020  175.2510  146.3040 N   0  0  0  0  0  2  0  0  0  0  0  0
  190.9580  176.4620  144.0340 C   0  0  0  0  0  0  0  0  0  0  0  0
  192.4450  174.8270  144.9680 C   0  0  0  0  0  2  0  0  0  0  0  0
  190.0130  178.0690  145.3630 N   0  0  0  0  0  0  0  0  0  0  0  0
  191.4550  175.2590  143.9690 N   0  0  0  0  0  0  0  0  0  0  0  0
  191.2610  177.3650  145.1790 C   0  0  1  0  0  3  0  0  0  0  0  0
  189.1910  177.6940  144.2520 C   0  0  0  0  0  0  0  0  0  0  0  0
  191.3480  176.5200  146.3870 C   0  0  0  0  0  0  0  0  0  0  0  0
  187.8800  178.2290  144.0620 N   0  0  0  0  0  2  0  0  0  0  0  0
  189.5860  177.8620  146.7440 C   0  0  0  0  0  2  0  0  0  0  0  0
  189.6950  176.7870  143.4740 N   0  0  0  0  0  0  0  0  0  0  0  0
  183.0210  178.7430  143.8680 C   0  0  0  0  0  0  0  0  0  0  0  0
  183.9260  178.6350  144.8680 N   0  0  0  0  0  0  0  0  0  0  0  0
  185.1980  178.3510  144.5570 N   0  0  0  0  0  0  0  0  0  0  0  0
  181.3230  179.0030  142.6810 C   0  0  0  0  0  0  0  0  0  0  0  0
  184.6740  178.2770  142.2070 C   0  0  0  0  0  3  0  0  0  0  0  0
  185.6040  178.1650  143.2560 C   0  0  0  0  0  0  0  0  0  0  0  0
  183.3710  178.5730  142.5750 C   0  0  0  0  0  0  0  0  0  0  0  0
  181.7140  179.0220  143.9850 N   0  0  0  0  0  0  0  0  0  0  0  0
  182.3080  178.7350  141.8340 O   0  0  0  0  0  0  0  0  0  0  0  0
  179.9430  179.2570  142.2510 C   0  0  0  0  0  0  0  0  0  0  0  0
  179.6340  180.4040  141.3540 C   0  0  0  0  0  1  0  0  0  0  0  0
  178.9820  178.4950  142.6580 N   0  0  0  0  0  2  0  0  0  0  0  0
  2  1  1  6  0  0  0
  2 20  1  0  0  0  0
  2 12  1  0  0  0  0
  4 11  1  0  0  0  0
  6  4  1  0  0  0  0
  7 13  1  0  0  0  0
  8  5  2  0  0  0  0
  8  6  1  0  0  0  0
  9  5  1  6  0  0  0
  9  7  1  0  0  0  0
  9 11  1  0  0  0  0
 10  7  1  0  0  0  0
 11  3  2  0  0  0  0
 12 10  1  0  0  0  0
 13  3  1  0  0  0  0
 14  5  1  0  0  0  0
 14 10  2  0  0  0  0
 15 22  1  0  0  0  0
 15 16  1  0  0  0  0
 17 16  2  0  0  0  0
 18 22  2  0  0  0  0
 19 21  1  0  0  0  0
 19 20  2  0  0  0  0
 20 17  1  0  0  0  0
 21 15  2  0  0  0  0
 23 21  1  0  0  0  0
 23 18  1  0  0  0  0
 24 26  2  0  0  0  0
 24 18  1  0  0  0  0
 25 24  1  0  0  0  0
M  END
>  <MODEL>
8

>  <REMARK>
 VINA RESULT:      -7.4      3.299      8.619
  Name = 
  3 active torsions:
  status: ('A' for Active; 'I' for Inactive)
    1  A    between atoms: C_1  and  C_14
    2  A    between atoms: C_18  and  C_22
    3  A    between atoms: N_21  and  C_22
                            x       y       z     vdW  Elec       q    Type
                         _______ _______ _______ _____ _____    ______ ____

>  <TORSDO>
F 3

$$$$
=
 OpenBabel10222418263D

 26 30  0  0  1  0  0  0  0  0999 V2000
  185.2260  178.2530  146.5870 C   0  0  0  0  0  1  0  0  0  0  0  0
  185.6410  178.5060  145.1480 C   0  0  1  0  0  3  0  0  0  0  0  0
  189.8850  176.3980  142.2280 N   0  0  0  0  0  0  0  0  0  0  0  0
  191.7330  177.7510  142.8890 N   0  0  0  0  0  2  0  0  0  0  0  0
  189.9320  178.1770  144.9590 C   0  0  0  0  0  0  0  0  0  0  0  0
  192.0550  178.6940  143.9690 C   0  0  0  0  0  2  0  0  0  0  0  0
  188.7150  176.3800  144.2300 N   0  0  0  0  0  0  0  0  0  0  0  0
  190.8150  179.0870  144.6570 N   0  0  0  0  0  0  0  0  0  0  0  0
  190.0800  176.7690  144.4980 C   0  0  1  0  0  3  0  0  0  0  0  0
  187.9050  177.4560  144.7170 C   0  0  0  0  0  0  0  0  0  0  0  0
  190.6840  176.8130  143.1520 C   0  0  0  0  0  0  0  0  0  0  0  0
  186.4770  177.4150  144.6660 N   0  0  0  0  0  2  0  0  0  0  0  0
  188.6470  175.9280  142.8440 C   0  0  0  0  0  2  0  0  0  0  0  0
  188.5590  178.4920  145.1410 N   0  0  0  0  0  0  0  0  0  0  0  0
  182.2140  178.9080  142.7360 C   0  0  0  0  0  0  0  0  0  0  0  0
  182.1060  179.0620  144.0770 N   0  0  0  0  0  0  0  0  0  0  0  0
  183.2060  178.9310  144.8300 N   0  0  0  0  0  0  0  0  0  0  0  0
  181.9150  178.7620  140.6750 C   0  0  0  0  0  0  0  0  0  0  0  0
  184.5610  178.4840  142.8890 C   0  0  0  0  0  3  0  0  0  0  0  0
  184.4340  178.6440  144.2800 C   0  0  0  0  0  0  0  0  0  0  0  0
  183.3980  178.6290  142.1490 C   0  0  0  0  0  0  0  0  0  0  0  0
  181.2310  179.0030  141.8280 N   0  0  0  0  0  0  0  0  0  0  0  0
  183.2080  178.5370  140.8610 O   0  0  0  0  0  0  0  0  0  0  0  0
  181.2800  178.7540  139.3520 C   0  0  0  0  0  0  0  0  0  0  0  0
  181.7600  179.6710  138.2830 C   0  0  0  0  0  1  0  0  0  0  0  0
  180.2910  177.9590  139.1070 N   0  0  0  0  0  2  0  0  0  0  0  0
  2  1  1  1  0  0  0
  3 13  1  0  0  0  0
  3 11  2  0  0  0  0
  4 11  1  0  0  0  0
  4  6  1  0  0  0  0
  5 14  1  0  0  0  0
  6  8  1  0  0  0  0
  7  9  1  0  0  0  0
  7 10  1  0  0  0  0
  8  5  2  0  0  0  0
  9 11  1  6  0  0  0
  9  5  1  0  0  0  0
 10 14  2  0  0  0  0
 12 10  1  0  0  0  0
 12  2  1  0  0  0  0
 13  7  1  0  0  0  0
 15 16  1  0  0  0  0
 16 17  2  0  0  0  0
 18 23  1  0  0  0  0
 18 22  2  0  0  0  0
 19 20  2  0  0  0  0
 20 17  1  0  0  0  0
 20  2  1  0  0  0  0
 21 15  2  0  0  0  0
 21 19  1  0  0  0  0
 22 15  1  0  0  0  0
 23 21  1  0  0  0  0
 24 18  1  0  0  0  0
 25 24  1  0  0  0  0
 26 24  2  0  0  0  0
M  END
>  <MODEL>
9

>  <REMARK>
 VINA RESULT:      -7.4      3.018      8.031
  Name = 
  3 active torsions:
  status: ('A' for Active; 'I' for Inactive)
    1  A    between atoms: C_1  and  C_14
    2  A    between atoms: C_18  and  C_22
    3  A    between atoms: N_21  and  C_22
                            x       y       z     vdW  Elec       q    Type
                         _______ _______ _______ _____ _____    ______ ____

>  <TORSDO>
F 3

$$$$
