=
 OpenBabel10222416473D

 45 50  0  0  1  0  0  0  0  0999 V2000
  186.6290  176.7570  137.2930 C   0  0  0  0  0  2  0  0  0  0  0  0
  188.6560  178.9120  137.3920 N   0  0  2  0  0  0  0  0  0  0  0  0
  189.3870  176.8840  136.0390 O   0  0  0  0  0  0  0  0  0  0  0  0
  189.6850  177.9800  136.8870 C   0  0  2  0  0  3  0  0  0  0  0  0
  190.0970  175.6980  136.3140 C   0  0  0  0  0  0  0  0  0  0  0  0
  187.8240  176.5920  138.2330 C   0  0  0  0  0  2  0  0  0  0  0  0
  188.9650  177.6560  138.1340 C   0  0  2  0  0  0  0  0  0  0  0  0
  189.8200  174.6450  135.6820 O   0  0  0  0  0  0  0  0  0  0  0  0
  187.5320  178.8680  136.4490 C   0  0  0  0  0  2  0  0  0  0  0  0
  190.6950  175.9940  138.8250 C   0  0  0  0  0  2  0  0  0  0  0  0
  186.3020  178.2150  137.0470 C   0  0  2  0  0  3  0  0  0  0  0  0
  191.1850  175.6690  137.3850 C   0  0  0  0  0  2  0  0  0  0  0  0
  190.1560  177.4380  139.0490 C   0  0  2  0  0  3  0  0  0  0  0  0
  189.7400  177.5880  140.4330 N   0  0  0  0  0  2  0  0  0  0  0  0
  191.9120  177.5140  141.2790 O   0  0  0  0  0  0  0  0  0  0  0  0
  190.6760  177.6060  141.5150 C   0  0  0  0  0  0  0  0  0  0  0  0
  188.4720  177.1980  144.6340 C   0  0  0  0  0  0  0  0  0  0  0  0
  189.0490  177.1640  143.2710 C   0  0  0  0  0  3  0  0  0  0  0  0
  190.6280  177.1550  145.8420 C   0  0  0  0  0  3  0  0  0  0  0  0
  190.1890  177.7490  142.8990 C   0  0  0  0  0  0  0  0  0  0  0  0
  191.4510  177.7770  144.9990 C   0  0  0  0  0  3  0  0  0  0  0  0
  190.9550  178.5990  143.8620 C   0  0  0  0  0  2  0  0  0  0  0  0
  189.1940  177.1650  145.7230 N   0  0  0  0  0  0  0  0  0  0  0  0
  187.0780  177.2030  144.7270 O   0  0  0  0  0  0  0  0  0  0  0  0
  186.3870  177.5910  145.9090 C   0  0  0  0  0  2  0  0  0  0  0  0
  185.6570  178.8960  145.6530 C   0  0  2  0  0  3  0  0  0  0  0  0
  185.6370  179.6630  146.8250 O   0  0  0  0  0  1  0  0  0  0  0  0
  184.2280  178.6010  145.2070 C   0  0  0  0  0  2  0  0  0  0  0  0
  184.6700  178.7310  142.9150 C   0  0  0  0  0  1  0  0  0  0  0  0
  182.5170  179.1210  143.7100 C   0  0  0  0  0  1  0  0  0  0  0  0
  183.9210  179.3450  143.9970 N   0  0  0  0  0  0  0  0  0  0  0  0
  185.8390  178.9200  138.3190 C   0  0  0  0  0  2  0  0  0  0  0  0
  184.7740  178.1000  139.0360 C   0  0  0  0  0  2  0  0  0  0  0  0
  183.6130  178.9710  139.4080 C   0  0  0  0  0  0  0  0  0  0  0  0
  181.2730  179.2820  140.2650 C   0  0  0  0  0  2  0  0  0  0  0  0
  180.5100  175.1570  139.5130 C   0  0  2  0  0  3  0  0  0  0  0  0
  182.1850  176.9510  139.8550 C   0  0  0  0  0  2  0  0  0  0  0  0
  178.9430  176.4100  140.7540 O   0  0  0  0  0  0  0  0  0  0  0  0
  180.4890  174.4820  138.2940 O   0  0  0  0  0  1  0  0  0  0  0  0
  179.1220  175.1820  140.1060 C   0  0  0  0  0  2  0  0  0  0  0  0
  179.6750  177.3420  140.0000 C   0  0  1  0  0  3  0  0  0  0  0  0
  182.3660  178.4020  139.8360 N   0  0  0  0  0  0  0  0  0  0  0  0
  180.1410  178.4830  140.9100 C   0  0  0  0  0  2  0  0  0  0  0  0
  180.8140  176.6050  139.2840 C   0  0  2  0  0  3  0  0  0  0  0  0
  183.7380  180.2260  139.3180 O   0  0  0  0  0  0  0  0  0  0  0  0
  1  6  1  0  0  0  0
  2  9  1  6  0  0  0
  2  7  1  0  0  0  0
  3  5  1  0  0  0  0
  4  3  1  6  0  0  0
  4  2  1  0  0  0  0
  4  7  1  0  0  0  0
  5 12  1  0  0  0  0
  7  6  1  6  0  0  0
  7 13  1  0  0  0  0
  8  5  2  0  0  0  0
  9 11  1  0  0  0  0
 10 13  1  0  0  0  0
 11  1  1  0  0  0  0
 11 32  1  1  0  0  0
 12 10  1  0  0  0  0
 13 14  1  1  0  0  0
 14 16  1  0  0  0  0
 15 16  2  0  0  0  0
 16 20  1  0  0  0  0
 17 24  1  0  0  0  0
 17 23  2  0  0  0  0
 18 17  1  0  0  0  0
 20 18  2  0  0  0  0
 20 22  1  0  0  0  0
 21 19  2  0  0  0  0
 22 21  1  0  0  0  0
 23 19  1  0  0  0  0
 24 25  1  0  0  0  0
 26 25  1  0  0  0  0
 26 27  1  1  0  0  0
 28 26  1  0  0  0  0
 29 31  1  0  0  0  0
 30 31  1  0  0  0  0
 31 28  1  0  0  0  0
 32 33  1  0  0  0  0
 33 34  1  0  0  0  0
 34 42  1  0  0  0  0
 35 43  1  0  0  0  0
 36 39  1  6  0  0  0
 36 40  1  0  0  0  0
 40 38  1  0  0  0  0
 41 38  1  0  0  0  0
 41 43  1  1  0  0  0
 42 37  1  0  0  0  0
 42 35  1  0  0  0  0
 44 36  1  0  0  0  0
 44 37  1  1  0  0  0
 44 41  1  0  0  0  0
 45 34  2  0  0  0  0
M  END
>  <MODEL>
1

>  <REMARK>
 VINA RESULT:      -8.6      0.000      0.000
  Name = 
  10 active torsions:
  status: ('A' for Active; 'I' for Inactive)
    1  A    between atoms: C_1  and  O_42
    2  A    between atoms: N_2  and  C_44
    3  A    between atoms: C_3  and  C_38
    4  A    between atoms: C_8  and  C_38
    5  A    between atoms: C_8  and  C_40
    6  A    between atoms: C_14  and  N_28
    7  A    between atoms: C_14  and  C_29
    8  A    between atoms: C_23  and  C_29
    9  A    between atoms: C_23  and  O_42
   10  A    between atoms: C_24  and  C_31
                            x       y       z     vdW  Elec       q    Type
                         _______ _______ _______ _____ _____    ______ ____

>  <TORSDO>
F 10

$$$$
=
 OpenBabel10222416473D

 45 50  0  0  1  0  0  0  0  0999 V2000
  182.2370  175.8500  139.4620 C   0  0  0  0  0  2  0  0  0  0  0  0
  183.0170  178.2290  137.8820 N   0  0  2  0  0  0  0  0  0  0  0  0
  181.2840  176.7630  136.7320 O   0  0  0  0  0  0  0  0  0  0  0  0
  182.3920  177.6460  136.6780 C   0  0  2  0  0  3  0  0  0  0  0  0
  181.3250  175.6870  135.8220 C   0  0  0  0  0  0  0  0  0  0  0  0
  183.2060  175.6640  138.2930 C   0  0  0  0  0  2  0  0  0  0  0  0
  183.4600  176.9000  137.3710 C   0  0  2  0  0  0  0  0  0  0  0  0
  180.4390  174.7950  135.8720 O   0  0  0  0  0  0  0  0  0  0  0  0
  182.0010  178.2280  138.9410 C   0  0  0  0  0  2  0  0  0  0  0  0
  183.8740  175.4430  135.3860 C   0  0  0  0  0  2  0  0  0  0  0  0
  182.3210  177.2440  140.0480 C   0  0  2  0  0  3  0  0  0  0  0  0
  182.4450  175.5790  134.7900 C   0  0  0  0  0  2  0  0  0  0  0  0
  184.3920  176.6690  136.1950 C   0  0  2  0  0  3  0  0  0  0  0  0
  185.7330  176.3930  136.6840 N   0  0  0  0  0  2  0  0  0  0  0  0
  186.7830  177.7070  135.0680 O   0  0  0  0  0  0  0  0  0  0  0  0
  186.9000  176.9380  136.0620 C   0  0  0  0  0  0  0  0  0  0  0  0
  189.7730  176.4560  138.5640 C   0  0  0  0  0  0  0  0  0  0  0  0
  188.4940  176.7810  137.8960 C   0  0  0  0  0  3  0  0  0  0  0  0
  190.3000  174.4700  137.1920 C   0  0  0  0  0  3  0  0  0  0  0  0
  188.2330  176.6100  136.5980 C   0  0  0  0  0  0  0  0  0  0  0  0
  189.7320  174.7600  136.0220 C   0  0  0  0  0  3  0  0  0  0  0  0
  189.3040  176.1390  135.6650 C   0  0  0  0  0  2  0  0  0  0  0  0
  190.5130  175.4270  138.2440 N   0  0  0  0  0  0  0  0  0  0  0  0
  190.1530  177.2770  139.6300 O   0  0  0  0  0  0  0  0  0  0  0  0
  190.1740  176.8260  140.9800 C   0  0  0  0  0  2  0  0  0  0  0  0
  191.2940  177.5280  141.7220 C   0  0  2  0  0  3  0  0  0  0  0  0
  192.4600  177.5050  140.9470 O   0  0  0  0  0  1  0  0  0  0  0  0
  191.5470  176.8190  143.0500 C   0  0  0  0  0  2  0  0  0  0  0  0
  191.0500  178.9470  143.8830 C   0  0  0  0  0  1  0  0  0  0  0  0
  191.5460  177.2080  145.3500 C   0  0  0  0  0  1  0  0  0  0  0  0
  191.9070  177.7890  144.0700 N   0  0  0  0  0  0  0  0  0  0  0  0
  183.6820  177.5170  140.6830 C   0  0  0  0  0  2  0  0  0  0  0  0
  183.7370  178.9250  141.2620 C   0  0  0  0  0  2  0  0  0  0  0  0
  183.2950  178.9120  142.6950 C   0  0  0  0  0  0  0  0  0  0  0  0
  183.7900  178.8350  145.1550 C   0  0  0  0  0  2  0  0  0  0  0  0
  187.7120  177.4240  144.2650 C   0  0  2  0  0  3  0  0  0  0  0  0
  185.6630  178.5650  143.4660 C   0  0  0  0  0  2  0  0  0  0  0  0
  187.2030  178.0930  146.4690 O   0  0  0  0  0  0  0  0  0  0  0  0
  188.0920  176.2270  143.6620 O   0  0  0  0  0  1  0  0  0  0  0  0
  188.1740  177.4390  145.7020 C   0  0  0  0  0  2  0  0  0  0  0  0
  185.9740  177.7780  145.8650 C   0  0  1  0  0  3  0  0  0  0  0  0
  184.2450  178.7680  143.7620 N   0  0  0  0  0  0  0  0  0  0  0  0
  184.9740  178.9110  146.1200 C   0  0  0  0  0  2  0  0  0  0  0  0
  186.2210  177.4810  144.3810 C   0  0  2  0  0  3  0  0  0  0  0  0
  182.0620  179.0090  142.9540 O   0  0  0  0  0  0  0  0  0  0  0  0
  1 11  1  0  0  0  0
  2  9  1  1  0  0  0
  4  3  1  1  0  0  0
  4  7  1  0  0  0  0
  4  2  1  0  0  0  0
  5  8  2  0  0  0  0
  5  3  1  0  0  0  0
  6  1  1  0  0  0  0
  7  2  1  0  0  0  0
  7  6  1  1  0  0  0
  9 11  1  0  0  0  0
 10 13  1  0  0  0  0
 11 32  1  6  0  0  0
 12 10  1  0  0  0  0
 12  5  1  0  0  0  0
 13 14  1  1  0  0  0
 13  7  1  0  0  0  0
 15 16  2  0  0  0  0
 16 20  1  0  0  0  0
 16 14  1  0  0  0  0
 17 24  1  0  0  0  0
 18 17  1  0  0  0  0
 19 23  1  0  0  0  0
 20 18  2  0  0  0  0
 21 19  2  0  0  0  0
 22 21  1  0  0  0  0
 22 20  1  0  0  0  0
 23 17  2  0  0  0  0
 24 25  1  0  0  0  0
 25 26  1  0  0  0  0
 26 27  1  6  0  0  0
 26 28  1  0  0  0  0
 28 31  1  0  0  0  0
 29 31  1  0  0  0  0
 31 30  1  0  0  0  0
 32 33  1  0  0  0  0
 33 34  1  0  0  0  0
 34 45  2  0  0  0  0
 34 42  1  0  0  0  0
 35 43  1  0  0  0  0
 36 39  1  1  0  0  0
 36 44  1  0  0  0  0
 36 40  1  0  0  0  0
 37 42  1  0  0  0  0
 40 38  1  0  0  0  0
 41 43  1  6  0  0  0
 41 38  1  0  0  0  0
 42 35  1  0  0  0  0
 44 37  1  6  0  0  0
 44 41  1  0  0  0  0
M  END
>  <MODEL>
2

>  <REMARK>
 VINA RESULT:      -8.5      2.143      7.260
  Name = 
  10 active torsions:
  status: ('A' for Active; 'I' for Inactive)
    1  A    between atoms: C_1  and  O_42
    2  A    between atoms: N_2  and  C_44
    3  A    between atoms: C_3  and  C_38
    4  A    between atoms: C_8  and  C_38
    5  A    between atoms: C_8  and  C_40
    6  A    between atoms: C_14  and  N_28
    7  A    between atoms: C_14  and  C_29
    8  A    between atoms: C_23  and  C_29
    9  A    between atoms: C_23  and  O_42
   10  A    between atoms: C_24  and  C_31
                            x       y       z     vdW  Elec       q    Type
                         _______ _______ _______ _____ _____    ______ ____

>  <TORSDO>
F 10

$$$$
=
 OpenBabel10222416473D

 45 50  0  0  1  0  0  0  0  0999 V2000
  186.9200  175.9620  136.2240 C   0  0  0  0  0  2  0  0  0  0  0  0
  187.5830  178.7860  136.8160 N   0  0  2  0  0  0  0  0  0  0  0  0
  189.6170  177.3470  136.2980 O   0  0  0  0  0  0  0  0  0  0  0  0
  189.0060  178.4270  136.9840 C   0  0  2  0  0  3  0  0  0  0  0  0
  190.5280  176.5880  137.0600 C   0  0  0  0  0  0  0  0  0  0  0  0
  187.4830  176.3060  137.6040 C   0  0  0  0  0  2  0  0  0  0  0  0
  187.9890  177.7680  137.8270 C   0  0  2  0  0  0  0  0  0  0  0  0
  191.0370  175.5470  136.5670 O   0  0  0  0  0  0  0  0  0  0  0  0
  187.1620  178.2860  135.5010 C   0  0  0  0  0  2  0  0  0  0  0  0
  189.6990  177.0180  139.4840 C   0  0  0  0  0  2  0  0  0  0  0  0
  186.1850  177.1340  135.6070 C   0  0  2  0  0  3  0  0  0  0  0  0
  190.8900  177.0010  138.4850 C   0  0  0  0  0  2  0  0  0  0  0  0
  188.5830  178.0640  139.1920 C   0  0  2  0  0  3  0  0  0  0  0  0
  187.5460  177.9590  140.2060 N   0  0  0  0  0  2  0  0  0  0  0  0
  188.8810  178.8240  141.9120 O   0  0  0  0  0  0  0  0  0  0  0  0
  187.7640  178.3480  141.5650 C   0  0  0  0  0  0  0  0  0  0  0  0
  185.9500  178.1270  144.9420 C   0  0  0  0  0  0  0  0  0  0  0  0
  186.9500  178.2220  143.8550 C   0  0  0  0  0  3  0  0  0  0  0  0
  184.1650  179.3810  143.7800 C   0  0  0  0  0  3  0  0  0  0  0  0
  186.6770  178.2050  142.5490 C   0  0  0  0  0  0  0  0  0  0  0  0
  184.4000  179.1080  142.4970 C   0  0  0  0  0  3  0  0  0  0  0  0
  185.2770  177.9850  142.0690 C   0  0  0  0  0  2  0  0  0  0  0  0
  184.7610  178.6680  144.8780 N   0  0  0  0  0  0  0  0  0  0  0  0
  186.3490  177.4690  146.1090 O   0  0  0  0  0  0  0  0  0  0  0  0
  186.7540  178.1630  147.2830 C   0  0  0  0  0  2  0  0  0  0  0  0
  187.9570  177.4620  147.8860 C   0  0  2  0  0  3  0  0  0  0  0  0
  188.0220  177.7340  149.2580 O   0  0  0  0  0  1  0  0  0  0  0  0
  189.2290  177.9570  147.2030 C   0  0  0  0  0  2  0  0  0  0  0  0
  190.2150  177.4020  145.1560 C   0  0  0  0  0  1  0  0  0  0  0  0
  191.0850  176.5470  147.1400 C   0  0  0  0  0  1  0  0  0  0  0  0
  189.8470  176.8730  146.4580 N   0  0  0  0  0  0  0  0  0  0  0  0
  184.9380  177.5090  136.4040 C   0  0  0  0  0  2  0  0  0  0  0  0
  183.8580  176.4450  136.2540 C   0  0  0  0  0  2  0  0  0  0  0  0
  183.4040  175.9760  137.6030 C   0  0  0  0  0  0  0  0  0  0  0  0
  182.0010  176.2300  139.6700 C   0  0  0  0  0  2  0  0  0  0  0  0
  181.3510  180.3190  138.6570 C   0  0  2  0  0  3  0  0  0  0  0  0
  182.0230  178.0550  137.9070 C   0  0  0  0  0  2  0  0  0  0  0  0
  180.0820  179.3480  140.3920 O   0  0  0  0  0  0  0  0  0  0  0  0
  182.2790  181.3560  138.5760 O   0  0  0  0  0  1  0  0  0  0  0  0
  180.3990  180.5750  139.8000 C   0  0  0  0  0  2  0  0  0  0  0  0
  181.2420  178.5640  140.2750 C   0  0  1  0  0  3  0  0  0  0  0  0
  182.4850  176.7520  138.3870 N   0  0  0  0  0  0  0  0  0  0  0  0
  180.8560  177.0830  140.2170 C   0  0  0  0  0  2  0  0  0  0  0  0
  182.0410  179.0530  139.0600 C   0  0  2  0  0  3  0  0  0  0  0  0
  183.8600  174.8880  138.0560 O   0  0  0  0  0  0  0  0  0  0  0  0
  1  6  1  0  0  0  0
  2  9  1  6  0  0  0
  2  4  1  0  0  0  0
  2  7  1  0  0  0  0
  3  5  1  0  0  0  0
  4  3  1  6  0  0  0
  4  7  1  0  0  0  0
  5 12  1  0  0  0  0
  7  6  1  6  0  0  0
  7 13  1  0  0  0  0
  8  5  2  0  0  0  0
  9 11  1  0  0  0  0
 11  1  1  0  0  0  0
 11 32  1  1  0  0  0
 12 10  1  0  0  0  0
 13 10  1  0  0  0  0
 13 14  1  1  0  0  0
 14 16  1  0  0  0  0
 16 15  2  0  0  0  0
 16 20  1  0  0  0  0
 17 24  1  0  0  0  0
 18 17  1  0  0  0  0
 19 23  1  0  0  0  0
 20 18  2  0  0  0  0
 21 19  2  0  0  0  0
 22 21  1  0  0  0  0
 22 20  1  0  0  0  0
 23 17  2  0  0  0  0
 24 25  1  0  0  0  0
 25 26  1  0  0  0  0
 26 27  1  1  0  0  0
 28 26  1  0  0  0  0
 29 31  1  0  0  0  0
 31 30  1  0  0  0  0
 31 28  1  0  0  0  0
 33 32  1  0  0  0  0
 33 34  1  0  0  0  0
 34 45  2  0  0  0  0
 34 42  1  0  0  0  0
 35 43  1  0  0  0  0
 36 39  1  1  0  0  0
 36 44  1  0  0  0  0
 36 40  1  0  0  0  0
 37 42  1  0  0  0  0
 40 38  1  0  0  0  0
 41 43  1  6  0  0  0
 41 38  1  0  0  0  0
 42 35  1  0  0  0  0
 44 37  1  6  0  0  0
 44 41  1  0  0  0  0
M  END
>  <MODEL>
3

>  <REMARK>
 VINA RESULT:      -8.4      1.860      3.930
  Name = 
  10 active torsions:
  status: ('A' for Active; 'I' for Inactive)
    1  A    between atoms: C_1  and  O_42
    2  A    between atoms: N_2  and  C_44
    3  A    between atoms: C_3  and  C_38
    4  A    between atoms: C_8  and  C_38
    5  A    between atoms: C_8  and  C_40
    6  A    between atoms: C_14  and  N_28
    7  A    between atoms: C_14  and  C_29
    8  A    between atoms: C_23  and  C_29
    9  A    between atoms: C_23  and  O_42
   10  A    between atoms: C_24  and  C_31
                            x       y       z     vdW  Elec       q    Type
                         _______ _______ _______ _____ _____    ______ ____

>  <TORSDO>
F 10

$$$$
=
 OpenBabel10222416473D

 45 50  0  0  1  0  0  0  0  0999 V2000
  186.8170  176.3670  136.9570 C   0  0  0  0  0  2  0  0  0  0  0  0
  188.0410  178.9020  137.8740 N   0  0  2  0  0  0  0  0  0  0  0  0
  189.5980  177.4690  136.4590 O   0  0  0  0  0  0  0  0  0  0  0  0
  189.3810  178.3980  137.5080 C   0  0  2  0  0  3  0  0  0  0  0  0
  190.5640  176.4770  136.7240 C   0  0  0  0  0  0  0  0  0  0  0  0
  187.7990  176.3220  138.1290 C   0  0  0  0  0  2  0  0  0  0  0  0
  188.5620  177.6400  138.4750 C   0  0  2  0  0  0  0  0  0  0  0  0
  190.7460  175.5480  135.8940 O   0  0  0  0  0  0  0  0  0  0  0  0
  187.1890  178.7690  136.6860 C   0  0  0  0  0  2  0  0  0  0  0  0
  190.5420  176.3760  139.3190 C   0  0  0  0  0  2  0  0  0  0  0  0
  186.1210  177.7090  136.8560 C   0  0  2  0  0  3  0  0  0  0  0  0
  191.3790  176.5030  138.0150 C   0  0  0  0  0  2  0  0  0  0  0  0
  189.5610  177.5490  139.6140 C   0  0  2  0  0  3  0  0  0  0  0  0
  188.8570  177.2880  140.8580 N   0  0  0  0  0  2  0  0  0  0  0  0
  187.9560  179.4340  141.0040 O   0  0  0  0  0  0  0  0  0  0  0  0
  188.0740  178.2870  141.5170 C   0  0  0  0  0  0  0  0  0  0  0  0
  187.4870  177.7770  145.2780 C   0  0  0  0  0  0  0  0  0  0  0  0
  188.0600  178.0370  143.9390 C   0  0  0  0  0  3  0  0  0  0  0  0
  185.2430  178.6940  144.7950 C   0  0  0  0  0  3  0  0  0  0  0  0
  187.3940  177.9640  142.7840 C   0  0  0  0  0  0  0  0  0  0  0  0
  185.1010  178.4570  143.4920 C   0  0  0  0  0  3  0  0  0  0  0  0
  185.9720  177.5000  142.7570 C   0  0  0  0  0  2  0  0  0  0  0  0
  186.2660  178.1030  145.6160 N   0  0  0  0  0  0  0  0  0  0  0  0
  188.3390  177.2080  146.2270 O   0  0  0  0  0  0  0  0  0  0  0  0
  189.5600  177.8190  146.6310 C   0  0  0  0  0  2  0  0  0  0  0  0
  190.6300  176.7530  146.7670 C   0  0  2  0  0  3  0  0  0  0  0  0
  191.2330  176.8480  148.0270 O   0  0  0  0  0  1  0  0  0  0  0  0
  191.6810  176.9460  145.6780 C   0  0  0  0  0  2  0  0  0  0  0  0
  191.6840  178.1290  143.6610 C   0  0  0  0  0  1  0  0  0  0  0  0
  191.3540  175.8240  143.6590 C   0  0  0  0  0  1  0  0  0  0  0  0
  191.0380  177.0440  144.3790 N   0  0  0  0  0  0  0  0  0  0  0  0
  185.2280  177.9820  138.0640 C   0  0  0  0  0  2  0  0  0  0  0  0
  183.7570  177.8690  137.6850 C   0  0  0  0  0  2  0  0  0  0  0  0
  182.9170  178.6770  138.6280 C   0  0  0  0  0  0  0  0  0  0  0  0
  181.2340  178.8570  140.4820 C   0  0  0  0  0  2  0  0  0  0  0  0
  180.1020  174.8100  139.7720 C   0  0  2  0  0  3  0  0  0  0  0  0
  181.7960  176.5950  139.4810 C   0  0  0  0  0  2  0  0  0  0  0  0
  179.3060  175.9050  141.7040 O   0  0  0  0  0  0  0  0  0  0  0  0
  179.5090  174.2570  138.6380 O   0  0  0  0  0  1  0  0  0  0  0  0
  179.1380  174.7500  140.9320 C   0  0  0  0  0  2  0  0  0  0  0  0
  179.6390  176.9200  140.7920 C   0  0  1  0  0  3  0  0  0  0  0  0
  181.9870  178.0450  139.5210 N   0  0  0  0  0  0  0  0  0  0  0  0
  180.4990  177.9770  141.4940 C   0  0  0  0  0  2  0  0  0  0  0  0
  180.3070  176.2790  139.5690 C   0  0  2  0  0  3  0  0  0  0  0  0
  183.0210  179.9370  138.6110 O   0  0  0  0  0  0  0  0  0  0  0  0
  1  6  1  0  0  0  0
  2  9  1  6  0  0  0
  2  7  1  0  0  0  0
  3  5  1  0  0  0  0
  4  3  1  6  0  0  0
  4  2  1  0  0  0  0
  4  7  1  0  0  0  0
  5 12  1  0  0  0  0
  7  6  1  6  0  0  0
  7 13  1  0  0  0  0
  8  5  2  0  0  0  0
  9 11  1  0  0  0  0
 10 13  1  0  0  0  0
 11  1  1  0  0  0  0
 11 32  1  1  0  0  0
 12 10  1  0  0  0  0
 13 14  1  1  0  0  0
 14 16  1  0  0  0  0
 15 16  2  0  0  0  0
 16 20  1  0  0  0  0
 17 23  2  0  0  0  0
 17 24  1  0  0  0  0
 18 17  1  0  0  0  0
 19 23  1  0  0  0  0
 20 18  2  0  0  0  0
 21 19  2  0  0  0  0
 22 20  1  0  0  0  0
 22 21  1  0  0  0  0
 24 25  1  0  0  0  0
 25 26  1  0  0  0  0
 26 27  1  1  0  0  0
 28 26  1  0  0  0  0
 29 31  1  0  0  0  0
 30 31  1  0  0  0  0
 31 28  1  0  0  0  0
 33 32  1  0  0  0  0
 33 34  1  0  0  0  0
 34 42  1  0  0  0  0
 35 43  1  0  0  0  0
 36 39  1  6  0  0  0
 36 40  1  0  0  0  0
 37 42  1  0  0  0  0
 40 38  1  0  0  0  0
 41 43  1  1  0  0  0
 41 38  1  0  0  0  0
 42 35  1  0  0  0  0
 44 37  1  1  0  0  0
 44 36  1  0  0  0  0
 44 41  1  0  0  0  0
 45 34  2  0  0  0  0
M  END
>  <MODEL>
4

>  <REMARK>
 VINA RESULT:      -8.4      1.603      3.374
  Name = 
  10 active torsions:
  status: ('A' for Active; 'I' for Inactive)
    1  A    between atoms: C_1  and  O_42
    2  A    between atoms: N_2  and  C_44
    3  A    between atoms: C_3  and  C_38
    4  A    between atoms: C_8  and  C_38
    5  A    between atoms: C_8  and  C_40
    6  A    between atoms: C_14  and  N_28
    7  A    between atoms: C_14  and  C_29
    8  A    between atoms: C_23  and  C_29
    9  A    between atoms: C_23  and  O_42
   10  A    between atoms: C_24  and  C_31
                            x       y       z     vdW  Elec       q    Type
                         _______ _______ _______ _____ _____    ______ ____

>  <TORSDO>
F 10

$$$$
=
 OpenBabel10222416473D

 45 50  0  0  1  0  0  0  0  0999 V2000
  189.0860  173.8060  136.6280 C   0  0  0  0  0  2  0  0  0  0  0  0
  188.9870  176.7280  136.1620 N   0  0  2  0  0  0  0  0  0  0  0  0
  191.1730  175.6510  135.4270 O   0  0  0  0  0  0  0  0  0  0  0  0
  190.4480  176.7530  135.9470 C   0  0  2  0  0  3  0  0  0  0  0  0
  192.4260  175.4160  136.0280 C   0  0  0  0  0  0  0  0  0  0  0  0
  189.8340  174.7260  137.5940 C   0  0  0  0  0  2  0  0  0  0  0  0
  189.9130  176.2420  137.2240 C   0  0  2  0  0  0  0  0  0  0  0  0
  193.0900  174.3970  135.7050 O   0  0  0  0  0  0  0  0  0  0  0  0
  188.4320  175.7190  135.2510 C   0  0  0  0  0  2  0  0  0  0  0  0
  192.1170  176.4970  138.3690 C   0  0  0  0  0  2  0  0  0  0  0  0
  187.9050  174.5050  135.9860 C   0  0  2  0  0  3  0  0  0  0  0  0
  192.9790  176.3720  137.0820 C   0  0  0  0  0  2  0  0  0  0  0  0
  190.7010  177.1180  138.1810 C   0  0  2  0  0  3  0  0  0  0  0  0
  190.0210  177.1690  139.4650 N   0  0  0  0  0  2  0  0  0  0  0  0
  188.6850  178.9900  138.8840 O   0  0  0  0  0  0  0  0  0  0  0  0
  189.0220  178.1470  139.7620 C   0  0  0  0  0  0  0  0  0  0  0  0
  186.2870  178.3150  142.4530 C   0  0  0  0  0  0  0  0  0  0  0  0
  187.0580  178.3250  141.1900 C   0  0  0  0  0  3  0  0  0  0  0  0
  187.6590  176.6050  143.5950 C   0  0  0  0  0  3  0  0  0  0  0  0
  188.3780  178.1550  141.0880 C   0  0  0  0  0  0  0  0  0  0  0  0
  188.8660  176.7930  143.0650 C   0  0  0  0  0  3  0  0  0  0  0  0
  189.2240  178.0280  142.3150 C   0  0  0  0  0  2  0  0  0  0  0  0
  186.5670  177.5320  143.4630 N   0  0  0  0  0  0  0  0  0  0  0  0
  185.1710  179.1540  142.5160 O   0  0  0  0  0  0  0  0  0  0  0  0
  183.8400  178.6580  142.6050 C   0  0  0  0  0  2  0  0  0  0  0  0
  183.0980  179.4150  143.6900 C   0  0  2  0  0  3  0  0  0  0  0  0
  183.8030  179.3210  144.8960 O   0  0  0  0  0  1  0  0  0  0  0  0
  181.7030  178.8200  143.8620 C   0  0  0  0  0  2  0  0  0  0  0  0
  180.0020  177.9690  142.5020 C   0  0  0  0  0  1  0  0  0  0  0  0
  180.0600  180.2400  143.0110 C   0  0  0  0  0  1  0  0  0  0  0  0
  180.8950  179.0990  142.6870 N   0  0  0  0  0  0  0  0  0  0  0  0
  186.8340  174.8730  137.0100 C   0  0  0  0  0  2  0  0  0  0  0  0
  185.5270  175.2390  136.3170 C   0  0  0  0  0  2  0  0  0  0  0  0
  184.3600  174.8050  137.1520 C   0  0  0  0  0  0  0  0  0  0  0  0
  182.2820  175.3060  138.4700 C   0  0  0  0  0  2  0  0  0  0  0  0
  183.4570  179.3990  138.6590 C   0  0  2  0  0  3  0  0  0  0  0  0
  183.6970  177.1980  137.5460 C   0  0  0  0  0  2  0  0  0  0  0  0
  181.2840  178.7920  139.3480 O   0  0  0  0  0  0  0  0  0  0  0  0
  184.5690  179.9590  139.2860 O   0  0  0  0  0  1  0  0  0  0  0  0
  182.1980  179.8530  139.3560 C   0  0  0  0  0  2  0  0  0  0  0  0
  182.0610  177.6270  139.4480 C   0  0  1  0  0  3  0  0  0  0  0  0
  183.4570  175.7650  137.7200 N   0  0  0  0  0  0  0  0  0  0  0  0
  181.3300  176.4640  138.7700 C   0  0  0  0  0  2  0  0  0  0  0  0
  183.4520  177.9160  138.8690 C   0  0  2  0  0  3  0  0  0  0  0  0
  184.1920  173.5710  137.3710 O   0  0  0  0  0  0  0  0  0  0  0  0
  1  6  1  0  0  0  0
  2  9  1  6  0  0  0
  2  7  1  0  0  0  0
  3  5  1  0  0  0  0
  4  3  1  6  0  0  0
  4  2  1  0  0  0  0
  4  7  1  0  0  0  0
  5 12  1  0  0  0  0
  7  6  1  1  0  0  0
  7 13  1  0  0  0  0
  8  5  2  0  0  0  0
  9 11  1  0  0  0  0
 11  1  1  0  0  0  0
 11 32  1  1  0  0  0
 12 10  1  0  0  0  0
 13 10  1  0  0  0  0
 13 14  1  1  0  0  0
 14 16  1  0  0  0  0
 15 16  2  0  0  0  0
 16 20  1  0  0  0  0
 17 24  1  0  0  0  0
 17 23  2  0  0  0  0
 18 17  1  0  0  0  0
 20 18  2  0  0  0  0
 20 22  1  0  0  0  0
 21 19  2  0  0  0  0
 22 21  1  0  0  0  0
 23 19  1  0  0  0  0
 24 25  1  0  0  0  0
 25 26  1  0  0  0  0
 26 28  1  0  0  0  0
 26 27  1  1  0  0  0
 29 31  1  0  0  0  0
 31 30  1  0  0  0  0
 31 28  1  0  0  0  0
 33 32  1  0  0  0  0
 33 34  1  0  0  0  0
 34 45  2  0  0  0  0
 34 42  1  0  0  0  0
 35 43  1  0  0  0  0
 36 44  1  0  0  0  0
 36 39  1  1  0  0  0
 36 40  1  0  0  0  0
 37 42  1  0  0  0  0
 38 40  1  0  0  0  0
 38 41  1  0  0  0  0
 41 43  1  6  0  0  0
 42 35  1  0  0  0  0
 44 37  1  6  0  0  0
 44 41  1  0  0  0  0
M  END
>  <MODEL>
5

>  <REMARK>
 VINA RESULT:      -8.3      2.343      3.593
  Name = 
  10 active torsions:
  status: ('A' for Active; 'I' for Inactive)
    1  A    between atoms: C_1  and  O_42
    2  A    between atoms: N_2  and  C_44
    3  A    between atoms: C_3  and  C_38
    4  A    between atoms: C_8  and  C_38
    5  A    between atoms: C_8  and  C_40
    6  A    between atoms: C_14  and  N_28
    7  A    between atoms: C_14  and  C_29
    8  A    between atoms: C_23  and  C_29
    9  A    between atoms: C_23  and  O_42
   10  A    between atoms: C_24  and  C_31
                            x       y       z     vdW  Elec       q    Type
                         _______ _______ _______ _____ _____    ______ ____

>  <TORSDO>
F 10

$$$$
=
 OpenBabel10222416473D

 45 50  0  0  1  0  0  0  0  0999 V2000
  186.6600  176.4600  137.3470 C   0  0  0  0  0  2  0  0  0  0  0  0
  188.2690  178.9450  137.3930 N   0  0  2  0  0  0  0  0  0  0  0  0
  189.3400  177.0590  136.0600 O   0  0  0  0  0  0  0  0  0  0  0  0
  189.4440  178.2040  136.8900 C   0  0  2  0  0  3  0  0  0  0  0  0
  190.2530  176.0240  136.3440 C   0  0  0  0  0  0  0  0  0  0  0  0
  187.8740  176.5270  138.2760 C   0  0  0  0  0  2  0  0  0  0  0  0
  188.8040  177.7760  138.1490 C   0  0  2  0  0  0  0  0  0  0  0  0
  190.1640  174.9290  135.7300 O   0  0  0  0  0  0  0  0  0  0  0  0
  187.1630  178.6850  136.4640 C   0  0  0  0  0  2  0  0  0  0  0  0
  190.8100  176.4620  138.8430 C   0  0  0  0  0  2  0  0  0  0  0  0
  186.0750  177.8320  137.0840 C   0  0  2  0  0  3  0  0  0  0  0  0
  191.3380  176.2070  137.4040 C   0  0  0  0  0  2  0  0  0  0  0  0
  190.0230  177.7890  139.0540 C   0  0  2  0  0  3  0  0  0  0  0  0
  189.5990  177.8850  140.4400 N   0  0  0  0  0  2  0  0  0  0  0  0
  191.7310  177.5010  141.3040 O   0  0  0  0  0  0  0  0  0  0  0  0
  190.5080  177.7170  141.5310 C   0  0  0  0  0  0  0  0  0  0  0  0
  188.2870  177.1990  144.6210 C   0  0  0  0  0  0  0  0  0  0  0  0
  188.8720  177.2120  143.2620 C   0  0  0  0  0  3  0  0  0  0  0  0
  190.4350  177.1240  145.8410 C   0  0  0  0  0  3  0  0  0  0  0  0
  190.0130  177.8120  142.9160 C   0  0  0  0  0  0  0  0  0  0  0  0
  191.2610  177.7750  145.0230 C   0  0  0  0  0  3  0  0  0  0  0  0
  190.7700  178.6330  143.9110 C   0  0  0  0  0  2  0  0  0  0  0  0
  189.0020  177.1330  145.7140 N   0  0  0  0  0  0  0  0  0  0  0  0
  186.8920  177.1970  144.7060 O   0  0  0  0  0  0  0  0  0  0  0  0
  186.1940  177.4660  145.9170 C   0  0  0  0  0  2  0  0  0  0  0  0
  185.5460  178.8350  145.8240 C   0  0  2  0  0  3  0  0  0  0  0  0
  185.6800  179.5030  147.0470 O   0  0  0  0  0  1  0  0  0  0  0  0
  184.0670  178.6750  145.4840 C   0  0  0  0  0  2  0  0  0  0  0  0
  182.4980  178.9990  143.7800 C   0  0  0  0  0  1  0  0  0  0  0  0
  184.6850  179.7520  143.5090 C   0  0  0  0  0  1  0  0  0  0  0  0
  183.8870  178.6630  144.0420 N   0  0  0  0  0  0  0  0  0  0  0  0
  185.5040  178.4630  138.3520 C   0  0  0  0  0  2  0  0  0  0  0  0
  184.4150  177.5820  138.9510 C   0  0  0  0  0  2  0  0  0  0  0  0
  183.2650  177.4600  137.9970 C   0  0  0  0  0  0  0  0  0  0  0  0
  181.6340  176.0840  136.6740 C   0  0  0  0  0  2  0  0  0  0  0  0
  184.1440  172.6830  137.2210 C   0  0  2  0  0  3  0  0  0  0  0  0
  183.5020  174.9570  137.9680 C   0  0  0  0  0  2  0  0  0  0  0  0
  181.9800  172.3850  136.3310 O   0  0  0  0  0  0  0  0  0  0  0  0
  185.4390  172.4710  136.7530 O   0  0  0  0  0  1  0  0  0  0  0  0
  183.1950  171.7240  136.5440 C   0  0  0  0  0  2  0  0  0  0  0  0
  182.3200  173.7240  136.0810 C   0  0  1  0  0  3  0  0  0  0  0  0
  182.8080  176.1750  137.5490 N   0  0  0  0  0  0  0  0  0  0  0  0
  181.1690  174.6360  136.5200 C   0  0  0  0  0  2  0  0  0  0  0  0
  183.6570  174.0250  136.7710 C   0  0  2  0  0  3  0  0  0  0  0  0
  182.7120  178.5130  137.5700 O   0  0  0  0  0  0  0  0  0  0  0  0
  1  6  1  0  0  0  0
  2  9  1  6  0  0  0
  2  7  1  0  0  0  0
  3  5  1  0  0  0  0
  4  3  1  6  0  0  0
  4  2  1  0  0  0  0
  4  7  1  0  0  0  0
  5 12  1  0  0  0  0
  7  6  1  6  0  0  0
  7 13  1  0  0  0  0
  8  5  2  0  0  0  0
  9 11  1  0  0  0  0
 10 13  1  0  0  0  0
 11  1  1  0  0  0  0
 11 32  1  1  0  0  0
 12 10  1  0  0  0  0
 13 14  1  1  0  0  0
 14 16  1  0  0  0  0
 15 16  2  0  0  0  0
 16 20  1  0  0  0  0
 17 24  1  0  0  0  0
 17 23  2  0  0  0  0
 18 17  1  0  0  0  0
 20 18  2  0  0  0  0
 20 22  1  0  0  0  0
 21 19  2  0  0  0  0
 22 21  1  0  0  0  0
 23 19  1  0  0  0  0
 24 25  1  0  0  0  0
 26 25  1  0  0  0  0
 26 27  1  1  0  0  0
 28 26  1  0  0  0  0
 29 31  1  0  0  0  0
 30 31  1  0  0  0  0
 31 28  1  0  0  0  0
 32 33  1  0  0  0  0
 34 33  1  0  0  0  0
 35 42  1  0  0  0  0
 36 39  1  6  0  0  0
 38 40  1  0  0  0  0
 40 36  1  0  0  0  0
 41 38  1  0  0  0  0
 41 43  1  1  0  0  0
 41 44  1  0  0  0  0
 42 37  1  0  0  0  0
 42 34  1  0  0  0  0
 43 35  1  0  0  0  0
 44 36  1  0  0  0  0
 44 37  1  1  0  0  0
 45 34  2  0  0  0  0
M  END
>  <MODEL>
6

>  <REMARK>
 VINA RESULT:      -8.3      1.960      2.591
  Name = 
  10 active torsions:
  status: ('A' for Active; 'I' for Inactive)
    1  A    between atoms: C_1  and  O_42
    2  A    between atoms: N_2  and  C_44
    3  A    between atoms: C_3  and  C_38
    4  A    between atoms: C_8  and  C_38
    5  A    between atoms: C_8  and  C_40
    6  A    between atoms: C_14  and  N_28
    7  A    between atoms: C_14  and  C_29
    8  A    between atoms: C_23  and  C_29
    9  A    between atoms: C_23  and  O_42
   10  A    between atoms: C_24  and  C_31
                            x       y       z     vdW  Elec       q    Type
                         _______ _______ _______ _____ _____    ______ ____

>  <TORSDO>
F 10

$$$$
=
 OpenBabel10222416473D

 45 50  0  0  1  0  0  0  0  0999 V2000
  190.6460  175.8600  143.2290 C   0  0  0  0  0  2  0  0  0  0  0  0
  190.4900  178.7040  144.0370 N   0  0  2  0  0  0  0  0  0  0  0  0
  191.0290  177.1240  145.9590 O   0  0  0  0  0  0  0  0  0  0  0  0
  190.4270  178.3060  145.4580 C   0  0  2  0  0  3  0  0  0  0  0  0
  190.2760  176.4260  146.9230 C   0  0  0  0  0  0  0  0  0  0  0  0
  189.3870  176.3470  143.9480 C   0  0  0  0  0  2  0  0  0  0  0  0
  189.4060  177.8010  144.5200 C   0  0  2  0  0  0  0  0  0  0  0  0
  190.6830  175.3110  147.3440 O   0  0  0  0  0  0  0  0  0  0  0  0
  191.6800  178.0650  143.4610 C   0  0  0  0  0  2  0  0  0  0  0  0
  187.8540  177.1870  146.3750 C   0  0  0  0  0  2  0  0  0  0  0  0
  191.3270  176.9780  142.4660 C   0  0  2  0  0  3  0  0  0  0  0  0
  188.9610  176.9940  147.4500 C   0  0  0  0  0  2  0  0  0  0  0  0
  188.1580  178.2360  145.2670 C   0  0  2  0  0  3  0  0  0  0  0  0
  187.0370  178.3030  144.3440 N   0  0  0  0  0  2  0  0  0  0  0  0
  185.6300  179.3890  145.8530 O   0  0  0  0  0  0  0  0  0  0  0  0
  185.7830  178.8860  144.7050 C   0  0  0  0  0  0  0  0  0  0  0  0
  183.7050  178.0860  141.5760 C   0  0  0  0  0  0  0  0  0  0  0  0
  184.7550  178.1780  142.6150 C   0  0  0  0  0  3  0  0  0  0  0  0
  181.7820  178.2530  143.1190 C   0  0  0  0  0  3  0  0  0  0  0  0
  184.6800  178.9110  143.7280 C   0  0  0  0  0  0  0  0  0  0  0  0
  182.2620  179.0040  144.1090 C   0  0  0  0  0  3  0  0  0  0  0  0
  183.5060  179.8070  143.9690 C   0  0  0  0  0  2  0  0  0  0  0  0
  182.4250  178.0950  141.8420 N   0  0  0  0  0  0  0  0  0  0  0  0
  184.1380  177.9190  140.2580 O   0  0  0  0  0  0  0  0  0  0  0  0
  185.1170  178.7590  139.6570 C   0  0  0  0  0  2  0  0  0  0  0  0
  185.3240  178.3320  138.2170 C   0  0  2  0  0  3  0  0  0  0  0  0
  184.5520  177.1950  137.9470 O   0  0  0  0  0  1  0  0  0  0  0  0
  186.7990  178.0170  137.9860 C   0  0  0  0  0  2  0  0  0  0  0  0
  188.7760  179.0030  137.2180 C   0  0  0  0  0  1  0  0  0  0  0  0
  187.1810  178.2530  135.6970 C   0  0  0  0  0  1  0  0  0  0  0  0
  187.3460  178.9110  136.9790 N   0  0  0  0  0  0  0  0  0  0  0  0
  190.4600  177.5030  141.3250 C   0  0  0  0  0  2  0  0  0  0  0  0
  191.2040  177.4240  139.9990 C   0  0  0  0  0  2  0  0  0  0  0  0
  190.5650  176.4020  139.1070 C   0  0  0  0  0  0  0  0  0  0  0  0
  190.6990  174.6270  137.3360 C   0  0  0  0  0  2  0  0  0  0  0  0
  194.5710  176.0570  136.2750 C   0  0  2  0  0  3  0  0  0  0  0  0
  192.7610  175.9630  137.9650 C   0  0  0  0  0  2  0  0  0  0  0  0
  193.8150  174.0110  135.3790 O   0  0  0  0  0  0  0  0  0  0  0  0
  194.9290  177.2940  135.7420 O   0  0  0  0  0  1  0  0  0  0  0  0
  194.8250  174.9710  135.2570 C   0  0  0  0  0  2  0  0  0  0  0  0
  192.6610  174.7230  135.7460 C   0  0  1  0  0  3  0  0  0  0  0  0
  191.3380  175.6730  138.1410 N   0  0  0  0  0  0  0  0  0  0  0  0
  191.7360  173.8140  136.5610 C   0  0  0  0  0  2  0  0  0  0  0  0
  193.0890  176.0020  136.4760 C   0  0  2  0  0  3  0  0  0  0  0  0
  189.3200  176.2030  139.2010 O   0  0  0  0  0  0  0  0  0  0  0  0
  1  6  1  0  0  0  0
  2  9  1  6  0  0  0
  2  7  1  0  0  0  0
  2  4  1  0  0  0  0
  3  5  1  0  0  0  0
  4  3  1  6  0  0  0
  5  8  2  0  0  0  0
  5 12  1  0  0  0  0
  7  6  1  6  0  0  0
  7 13  1  0  0  0  0
  7  4  1  0  0  0  0
 10 12  1  0  0  0  0
 11 32  1  6  0  0  0
 11  1  1  0  0  0  0
 11  9  1  0  0  0  0
 13 14  1  6  0  0  0
 13 10  1  0  0  0  0
 14 16  1  0  0  0  0
 16 15  2  0  0  0  0
 17 23  2  0  0  0  0
 17 18  1  0  0  0  0
 18 20  2  0  0  0  0
 19 21  2  0  0  0  0
 20 22  1  0  0  0  0
 20 16  1  0  0  0  0
 22 21  1  0  0  0  0
 23 19  1  0  0  0  0
 24 17  1  0  0  0  0
 25 24  1  0  0  0  0
 26 27  1  1  0  0  0
 26 25  1  0  0  0  0
 28 26  1  0  0  0  0
 30 31  1  0  0  0  0
 31 29  1  0  0  0  0
 31 28  1  0  0  0  0
 33 32  1  0  0  0  0
 34 45  2  0  0  0  0
 34 33  1  0  0  0  0
 35 42  1  0  0  0  0
 36 39  1  6  0  0  0
 36 44  1  0  0  0  0
 37 42  1  0  0  0  0
 38 41  1  0  0  0  0
 40 38  1  0  0  0  0
 40 36  1  0  0  0  0
 41 44  1  0  0  0  0
 41 43  1  1  0  0  0
 42 34  1  0  0  0  0
 43 35  1  0  0  0  0
 44 37  1  1  0  0  0
M  END
>  <MODEL>
7

>  <REMARK>
 VINA RESULT:      -8.3      2.492      9.311
  Name = 
  10 active torsions:
  status: ('A' for Active; 'I' for Inactive)
    1  A    between atoms: C_1  and  O_42
    2  A    between atoms: N_2  and  C_44
    3  A    between atoms: C_3  and  C_38
    4  A    between atoms: C_8  and  C_38
    5  A    between atoms: C_8  and  C_40
    6  A    between atoms: C_14  and  N_28
    7  A    between atoms: C_14  and  C_29
    8  A    between atoms: C_23  and  C_29
    9  A    between atoms: C_23  and  O_42
   10  A    between atoms: C_24  and  C_31
                            x       y       z     vdW  Elec       q    Type
                         _______ _______ _______ _____ _____    ______ ____

>  <TORSDO>
F 10

$$$$
=
 OpenBabel10222416473D

 45 50  0  0  1  0  0  0  0  0999 V2000
  190.0690  175.6250  143.1260 C   0  0  0  0  0  2  0  0  0  0  0  0
  189.7690  178.5700  143.1570 N   0  0  2  0  0  0  0  0  0  0  0  0
  190.0440  177.5480  145.4720 O   0  0  0  0  0  0  0  0  0  0  0  0
  189.5070  178.5380  144.6100 C   0  0  2  0  0  3  0  0  0  0  0  0
  189.1670  177.0780  146.4700 C   0  0  0  0  0  0  0  0  0  0  0  0
  188.7150  176.2170  143.5200 C   0  0  0  0  0  2  0  0  0  0  0  0
  188.6360  177.7670  143.7000 C   0  0  2  0  0  0  0  0  0  0  0  0
  189.5210  176.1240  147.2110 O   0  0  0  0  0  0  0  0  0  0  0  0
  191.0360  177.8640  142.9300 C   0  0  0  0  0  2  0  0  0  0  0  0
  186.8400  177.5650  145.4220 C   0  0  0  0  0  2  0  0  0  0  0  0
  190.8410  176.5480  142.2050 C   0  0  2  0  0  3  0  0  0  0  0  0
  187.7840  177.6980  146.6510 C   0  0  0  0  0  2  0  0  0  0  0  0
  187.2900  178.3170  144.1350 C   0  0  2  0  0  3  0  0  0  0  0  0
  186.3130  178.0980  143.0820 N   0  0  0  0  0  2  0  0  0  0  0  0
  184.9790  179.9090  143.7010 O   0  0  0  0  0  0  0  0  0  0  0  0
  185.1600  178.9300  142.9240 C   0  0  0  0  0  0  0  0  0  0  0  0
  181.8220  178.3840  141.1060 C   0  0  0  0  0  0  0  0  0  0  0  0
  182.8900  178.6170  142.1040 C   0  0  0  0  0  3  0  0  0  0  0  0
  182.9380  179.5540  139.2360 C   0  0  0  0  0  3  0  0  0  0  0  0
  184.1980  178.6490  141.8440 C   0  0  0  0  0  0  0  0  0  0  0  0
  184.2300  179.3700  139.5020 C   0  0  0  0  0  3  0  0  0  0  0  0
  184.7060  178.3450  140.4700 C   0  0  0  0  0  2  0  0  0  0  0  0
  181.8720  178.8330  139.8780 N   0  0  0  0  0  0  0  0  0  0  0  0
  180.6870  177.6990  141.5470 O   0  0  0  0  0  0  0  0  0  0  0  0
  179.4160  177.8280  140.9180 C   0  0  0  0  0  2  0  0  0  0  0  0
  178.9330  176.4560  140.4880 C   0  0  2  0  0  3  0  0  0  0  0  0
  179.3330  175.4990  141.4280 O   0  0  0  0  0  1  0  0  0  0  0  0
  179.5230  176.1150  139.1220 C   0  0  0  0  0  2  0  0  0  0  0  0
  179.8780  173.9480  138.3180 C   0  0  0  0  0  1  0  0  0  0  0  0
  181.6910  175.3510  138.7270 C   0  0  0  0  0  1  0  0  0  0  0  0
  180.3900  174.9530  139.2320 N   0  0  0  0  0  0  0  0  0  0  0  0
  190.1410  176.7300  140.8610 C   0  0  0  0  0  2  0  0  0  0  0  0
  191.0460  177.4550  139.8730 C   0  0  0  0  0  2  0  0  0  0  0  0
  190.4510  177.4120  138.4980 C   0  0  0  0  0  0  0  0  0  0  0  0
  190.3480  176.4870  136.1670 C   0  0  0  0  0  2  0  0  0  0  0  0
  194.2490  174.8560  136.7020 C   0  0  2  0  0  3  0  0  0  0  0  0
  192.1950  175.7640  137.7490 C   0  0  0  0  0  2  0  0  0  0  0  0
  192.9850  174.2180  134.8160 O   0  0  0  0  0  0  0  0  0  0  0  0
  195.4550  175.5260  136.8990 O   0  0  0  0  0  1  0  0  0  0  0  0
  194.2700  174.1530  135.3660 C   0  0  0  0  0  2  0  0  0  0  0  0
  192.4580  175.4500  135.2370 C   0  0  1  0  0  3  0  0  0  0  0  0
  190.9980  176.5620  137.4790 N   0  0  0  0  0  0  0  0  0  0  0  0
  190.9320  175.3520  135.3250 C   0  0  0  0  0  2  0  0  0  0  0  0
  193.1380  175.8480  136.5530 C   0  0  2  0  0  3  0  0  0  0  0  0
  189.4650  178.1590  138.2370 O   0  0  0  0  0  0  0  0  0  0  0  0
  1  6  1  0  0  0  0
  2  9  1  1  0  0  0
  2  7  1  0  0  0  0
  2  4  1  0  0  0  0
  3  5  1  0  0  0  0
  4  3  1  1  0  0  0
  5 12  1  0  0  0  0
  5  8  2  0  0  0  0
  7  6  1  1  0  0  0
  7 13  1  0  0  0  0
  7  4  1  0  0  0  0
 10 12  1  0  0  0  0
 11 32  1  6  0  0  0
 11  9  1  0  0  0  0
 11  1  1  0  0  0  0
 13 14  1  6  0  0  0
 13 10  1  0  0  0  0
 16 14  1  0  0  0  0
 16 15  2  0  0  0  0
 17 24  1  0  0  0  0
 17 18  1  0  0  0  0
 19 21  2  0  0  0  0
 19 23  1  0  0  0  0
 20 18  2  0  0  0  0
 20 16  1  0  0  0  0
 21 22  1  0  0  0  0
 22 20  1  0  0  0  0
 23 17  2  0  0  0  0
 25 24  1  0  0  0  0
 26 25  1  0  0  0  0
 26 27  1  1  0  0  0
 28 31  1  0  0  0  0
 28 26  1  0  0  0  0
 29 31  1  0  0  0  0
 30 31  1  0  0  0  0
 33 32  1  0  0  0  0
 34 33  1  0  0  0  0
 35 42  1  0  0  0  0
 36 39  1  6  0  0  0
 38 41  1  0  0  0  0
 38 40  1  0  0  0  0
 40 36  1  0  0  0  0
 41 43  1  1  0  0  0
 41 44  1  0  0  0  0
 42 37  1  0  0  0  0
 42 34  1  0  0  0  0
 43 35  1  0  0  0  0
 44 36  1  0  0  0  0
 44 37  1  1  0  0  0
 45 34  2  0  0  0  0
M  END
>  <MODEL>
8

>  <REMARK>
 VINA RESULT:      -8.2      2.251      9.203
  Name = 
  10 active torsions:
  status: ('A' for Active; 'I' for Inactive)
    1  A    between atoms: C_1  and  O_42
    2  A    between atoms: N_2  and  C_44
    3  A    between atoms: C_3  and  C_38
    4  A    between atoms: C_8  and  C_38
    5  A    between atoms: C_8  and  C_40
    6  A    between atoms: C_14  and  N_28
    7  A    between atoms: C_14  and  C_29
    8  A    between atoms: C_23  and  C_29
    9  A    between atoms: C_23  and  O_42
   10  A    between atoms: C_24  and  C_31
                            x       y       z     vdW  Elec       q    Type
                         _______ _______ _______ _____ _____    ______ ____

>  <TORSDO>
F 10

$$$$
=
 OpenBabel10222416473D

 45 50  0  0  1  0  0  0  0  0999 V2000
  186.1330  175.0300  136.6360 C   0  0  0  0  0  2  0  0  0  0  0  0
  185.3590  177.8810  136.8310 N   0  0  2  0  0  0  0  0  0  0  0  0
  187.4050  177.4750  135.3710 O   0  0  0  0  0  0  0  0  0  0  0  0
  186.6660  178.2830  136.2730 C   0  0  2  0  0  3  0  0  0  0  0  0
  188.7980  177.4560  135.5810 C   0  0  0  0  0  0  0  0  0  0  0  0
  186.9410  175.9440  137.5580 C   0  0  0  0  0  2  0  0  0  0  0  0
  186.6260  177.4740  137.5060 C   0  0  2  0  0  0  0  0  0  0  0  0
  189.5200  176.6840  134.8980 O   0  0  0  0  0  0  0  0  0  0  0  0
  184.7660  176.9180  135.8950 C   0  0  0  0  0  2  0  0  0  0  0  0
  188.9760  178.0690  138.0990 C   0  0  0  0  0  2  0  0  0  0  0  0
  184.7090  175.5170  136.4670 C   0  0  2  0  0  3  0  0  0  0  0  0
  189.4410  178.3470  136.6420 C   0  0  0  0  0  2  0  0  0  0  0  0
  187.4760  178.3570  138.4000 C   0  0  2  0  0  3  0  0  0  0  0  0
  187.1960  178.0520  139.7930 N   0  0  0  0  0  2  0  0  0  0  0  0
  185.3060  179.4150  139.8950 O   0  0  0  0  0  0  0  0  0  0  0  0
  186.0920  178.6290  140.4950 C   0  0  0  0  0  0  0  0  0  0  0  0
  186.8220  177.7290  144.1560 C   0  0  0  0  0  0  0  0  0  0  0  0
  186.9070  178.0420  142.7120 C   0  0  0  0  0  3  0  0  0  0  0  0
  184.8890  179.1910  144.6380 C   0  0  0  0  0  3  0  0  0  0  0  0
  185.8680  178.2900  141.9120 C   0  0  0  0  0  0  0  0  0  0  0  0
  184.2180  179.1830  143.4870 C   0  0  0  0  0  3  0  0  0  0  0  0
  184.4690  178.1700  142.4260 C   0  0  0  0  0  2  0  0  0  0  0  0
  185.9460  178.2710  144.9620 N   0  0  0  0  0  0  0  0  0  0  0  0
  187.7810  176.8490  144.6670 O   0  0  0  0  0  0  0  0  0  0  0  0
  189.0950  176.7450  144.1280 C   0  0  0  0  0  2  0  0  0  0  0  0
  190.0350  177.6150  144.9390 C   0  0  2  0  0  3  0  0  0  0  0  0
  190.4310  178.7210  144.1770 O   0  0  0  0  0  1  0  0  0  0  0  0
  191.2630  176.8010  145.3390 C   0  0  0  0  0  2  0  0  0  0  0  0
  190.1850  176.9730  147.4080 C   0  0  0  0  0  1  0  0  0  0  0  0
  192.1040  175.6710  147.1980 C   0  0  0  0  0  1  0  0  0  0  0  0
  191.4890  176.9140  146.7700 N   0  0  0  0  0  0  0  0  0  0  0  0
  183.9270  175.4630  137.7770 C   0  0  0  0  0  2  0  0  0  0  0  0
  182.7160  176.3870  137.7230 C   0  0  0  0  0  2  0  0  0  0  0  0
  182.0250  176.4110  139.0530 C   0  0  0  0  0  0  0  0  0  0  0  0
  180.4760  177.4820  140.7140 C   0  0  0  0  0  2  0  0  0  0  0  0
  180.7870  181.1460  138.5600 C   0  0  2  0  0  3  0  0  0  0  0  0
  181.0690  178.6840  138.5610 C   0  0  0  0  0  2  0  0  0  0  0  0
  179.1590  180.9420  140.2540 O   0  0  0  0  0  0  0  0  0  0  0  0
  181.9090  181.9490  138.3630 O   0  0  0  0  0  1  0  0  0  0  0  0
  179.7830  181.8750  139.4190 C   0  0  0  0  0  2  0  0  0  0  0  0
  180.1410  179.9820  140.5440 C   0  0  1  0  0  3  0  0  0  0  0  0
  181.1990  177.5210  139.4390 N   0  0  0  0  0  0  0  0  0  0  0  0
  179.4730  178.6300  140.8170 C   0  0  0  0  0  2  0  0  0  0  0  0
  181.1560  179.9580  139.3930 C   0  0  2  0  0  3  0  0  0  0  0  0
  182.1970  175.4440  139.8490 O   0  0  0  0  0  0  0  0  0  0  0  0
  1  6  1  0  0  0  0
  2  9  1  6  0  0  0
  2  7  1  0  0  0  0
  3  5  1  0  0  0  0
  4  3  1  6  0  0  0
  4  2  1  0  0  0  0
  4  7  1  0  0  0  0
  5 12  1  0  0  0  0
  7  6  1  6  0  0  0
  7 13  1  0  0  0  0
  8  5  2  0  0  0  0
  9 11  1  0  0  0  0
 10 13  1  0  0  0  0
 11  1  1  0  0  0  0
 11 32  1  1  0  0  0
 12 10  1  0  0  0  0
 13 14  1  1  0  0  0
 14 16  1  0  0  0  0
 15 16  2  0  0  0  0
 16 20  1  0  0  0  0
 17 24  1  0  0  0  0
 17 23  2  0  0  0  0
 18 17  1  0  0  0  0
 19 23  1  0  0  0  0
 20 22  1  0  0  0  0
 20 18  2  0  0  0  0
 21 19  2  0  0  0  0
 22 21  1  0  0  0  0
 25 24  1  0  0  0  0
 25 26  1  0  0  0  0
 26 27  1  6  0  0  0
 26 28  1  0  0  0  0
 28 31  1  0  0  0  0
 31 30  1  0  0  0  0
 31 29  1  0  0  0  0
 33 32  1  0  0  0  0
 33 34  1  0  0  0  0
 34 42  1  0  0  0  0
 34 45  2  0  0  0  0
 35 43  1  0  0  0  0
 36 39  1  1  0  0  0
 36 44  1  0  0  0  0
 36 40  1  0  0  0  0
 37 42  1  0  0  0  0
 38 41  1  0  0  0  0
 40 38  1  0  0  0  0
 41 43  1  6  0  0  0
 42 35  1  0  0  0  0
 44 37  1  6  0  0  0
 44 41  1  0  0  0  0
M  END
>  <MODEL>
9

>  <REMARK>
 VINA RESULT:      -8.1      2.018      4.634
  Name = 
  10 active torsions:
  status: ('A' for Active; 'I' for Inactive)
    1  A    between atoms: C_1  and  O_42
    2  A    between atoms: N_2  and  C_44
    3  A    between atoms: C_3  and  C_38
    4  A    between atoms: C_8  and  C_38
    5  A    between atoms: C_8  and  C_40
    6  A    between atoms: C_14  and  N_28
    7  A    between atoms: C_14  and  C_29
    8  A    between atoms: C_23  and  C_29
    9  A    between atoms: C_23  and  O_42
   10  A    between atoms: C_24  and  C_31
                            x       y       z     vdW  Elec       q    Type
                         _______ _______ _______ _____ _____    ______ ____

>  <TORSDO>
F 10

$$$$
