=
 OpenBabel10222420153D

 52 57  0  0  1  0  0  0  0  0999 V2000
  188.4170  177.5800  143.6830 C   0  0  0  0  0  0  0  0  0  0  0  0
  186.4780  179.0860  140.8500 C   0  0  0  0  0  2  0  0  0  0  0  0
  188.8820  176.8000  147.4260 C   0  0  0  0  0  1  0  0  0  0  0  0
  184.8670  178.1040  142.5320 C   0  0  1  0  0  3  0  0  0  0  0  0
  185.2110  178.2580  141.0430 C   0  0  1  0  0  3  0  0  0  0  0  0
  188.2490  176.7630  144.9360 C   0  0  0  0  0  2  0  0  0  0  0  0
  185.9890  177.3460  143.2460 C   0  0  0  0  0  2  0  0  0  0  0  0
  187.5720  178.5340  141.6420 N   0  0  0  0  0  2  0  0  0  0  0  0
  190.6230  178.3440  144.4740 C   0  0  0  0  0  0  0  0  0  0  0  0
  189.1710  177.2210  146.0310 C   0  0  0  0  0  0  0  0  0  0  0  0
  187.3660  177.8590  142.8950 C   0  0  0  0  0  0  0  0  0  0  0  0
  189.8070  177.9690  143.2690 C   0  0  1  0  0  3  0  0  0  0  0  0
  190.2450  177.9100  145.7850 N   0  0  0  0  0  0  0  0  0  0  0  0
  191.6550  179.0510  144.3300 O   0  0  0  0  0  0  0  0  0  0  0  0
  183.5770  179.6350  144.0470 C   0  0  0  0  0  3  0  0  0  0  0  0
  184.6020  179.4240  143.2100 C   0  0  0  0  0  3  0  0  0  0  0  0
  182.5630  178.5880  144.4080 C   0  0  0  0  0  2  0  0  0  0  0  0
  181.1720  178.9580  143.9130 C   0  0  0  0  0  2  0  0  0  0  0  0
  179.6400  180.7910  142.3940 O   0  0  0  0  0  0  0  0  0  0  0  0
  180.3340  179.9560  141.7530 C   0  0  0  0  0  0  0  0  0  0  0  0
  181.1540  179.0230  142.4580 N   0  0  0  0  0  2  0  0  0  0  0  0
  180.6670  182.0630  137.1330 S   0  0  0  0  0  0  0  0  0  0  0  0
  180.5370  181.0870  139.5700 N   0  0  0  0  0  0  0  0  0  0  0  0
  179.9580  178.8440  139.4850 C   0  0  1  0  0  3  0  0  0  0  0  0
  180.0000  179.3080  137.8700 S   0  0  0  0  0  0  0  0  0  0  0  0
  180.2810  179.9520  140.2780 C   0  0  0  0  0  0  0  0  0  0  0  0
  179.6170  177.4690  139.9440 C   0  0  0  0  0  1  0  0  0  0  0  0
  180.4220  180.8880  138.2400 C   0  0  0  0  0  0  0  0  0  0  0  0
  184.0450  178.7640  140.1960 C   0  0  0  0  0  2  0  0  0  0  0  0
  184.3880  179.9260  139.5020 O   0  0  0  0  0  1  0  0  0  0  0  0
  190.4510  176.8190  142.5020 C   0  0  0  0  0  2  0  0  0  0  0  0
  191.8270  177.1440  142.1270 N   0  0  0  0  0  0  0  0  0  0  0  0
  192.0610  177.1560  140.6860 C   0  0  2  0  0  3  0  0  0  0  0  0
  191.7870  178.3020  141.3660 O   0  0  0  0  0  0  0  0  0  0  0  0
  190.8610  176.8100  139.7960 C   0  0  0  0  0  2  0  0  0  0  0  0
  193.0320  175.6460  136.9240 C   0  0  0  0  0  0  0  0  0  0  0  0
  190.4490  175.2150  137.9000 C   0  0  0  0  0  3  0  0  0  0  0  0
  194.2930  175.8580  136.4690 F   0  0  0  0  0  0  0  0  0  0  0  0
  192.5940  176.3170  138.0690 C   0  0  0  0  0  3  0  0  0  0  0  0
  190.8850  174.5480  136.7520 C   0  0  0  0  0  3  0  0  0  0  0  0
  191.3010  176.1100  138.5550 C   0  0  0  0  0  0  0  0  0  0  0  0
  192.1810  174.7550  136.2560 C   0  0  0  0  0  0  0  0  0  0  0  0
  192.6540  174.0890  135.0740 N   0  0  0  0  0  2  0  0  0  0  0  0
  195.0020  169.9020  134.8830 C   0  0  0  0  0  3  0  0  0  0  0  0
  195.2860  172.8140  136.8060 O   0  0  0  0  0  0  0  0  0  0  0  0
  195.7840  173.7640  134.5940 O   0  0  0  0  0  0  0  0  0  0  0  0
  192.5270  170.4110  134.9730 C   0  0  0  0  0  2  0  0  0  0  0  0
  193.3320  172.8280  134.9840 C   0  0  1  0  0  3  0  0  0  0  0  0
  193.6660  169.6280  135.5570 C   0  0  0  0  0  2  0  0  0  0  0  0
  195.0430  172.6820  135.3290 S   0  0  0  0  0  0  0  0  0  0  0  0
  192.7340  171.6850  134.9410 C   0  0  0  0  0  2  0  0  0  0  0  0
  195.6340  171.0960  134.7620 C   0  0  0  0  0  3  0  0  0  0  0  0
  1  6  1  0  0  0  0
  2  5  1  0  0  0  0
  2  8  1  0  0  0  0
  4 16  1  1  0  0  0
  4  7  1  0  0  0  0
  5 29  1  6  0  0  0
  5  4  1  0  0  0  0
  6 10  1  0  0  0  0
  8 11  1  0  0  0  0
  9 13  1  0  0  0  0
 10  3  1  0  0  0  0
 11  7  1  0  0  0  0
 11  1  2  0  0  0  0
 12 31  1  1  0  0  0
 12  1  1  0  0  0  0
 12  9  1  0  0  0  0
 13 10  2  0  0  0  0
 14  9  2  0  0  0  0
 15 17  1  0  0  0  0
 16 15  2  0  0  0  0
 18 17  1  0  0  0  0
 20 19  2  0  0  0  0
 20 21  1  0  0  0  0
 21 18  1  0  0  0  0
 22 28  2  0  0  0  0
 23 26  2  0  0  0  0
 24 27  1  1  0  0  0
 24 26  1  0  0  0  0
 25 28  1  0  0  0  0
 25 24  1  0  0  0  0
 26 20  1  0  0  0  0
 28 23  1  0  0  0  0
 30 29  1  0  0  0  0
 32 31  1  0  0  0  0
 33 35  1  6  0  0  0
 33 34  1  0  0  0  0
 33 32  1  0  0  0  0
 34 32  1  0  0  0  0
 36 39  1  0  0  0  0
 37 41  1  0  0  0  0
 38 36  1  0  0  0  0
 39 41  2  0  0  0  0
 40 37  2  0  0  0  0
 41 35  1  0  0  0  0
 42 40  1  0  0  0  0
 42 36  2  0  0  0  0
 43 42  1  0  0  0  0
 44 49  1  0  0  0  0
 46 50  2  0  0  0  0
 47 49  1  0  0  0  0
 48 43  1  1  0  0  0
 48 50  1  0  0  0  0
 50 45  2  0  0  0  0
 51 47  1  0  0  0  0
 51 48  1  0  0  0  0
 52 44  2  0  0  0  0
 52 50  1  0  0  0  0
M  END
>  <MODEL>
1

>  <REMARK>
 VINA RESULT:      -8.0      0.000      0.000
  Name = 
  12 active torsions:
  status: ('A' for Active; 'I' for Inactive)
    1  A    between atoms: N_6  and  C_19
    2  A    between atoms: C_8  and  C_21
    3  A    between atoms: C_11  and  C_47
    4  A    between atoms: C_12  and  C_15
    5  A    between atoms: C_15  and  C_45
    6  A    between atoms: C_18  and  C_29
    7  A    between atoms: C_19  and  C_41
    8  A    between atoms: C_20  and  C_21
    9  A    between atoms: C_20  and  N_30
   10  A    between atoms: C_23  and  C_25
   11  A    between atoms: N_33  and  C_34
   12  A    between atoms: N_33  and  C_49
                            x       y       z     vdW  Elec       q    Type
                         _______ _______ _______ _____ _____    ______ ____

>  <TORSDO>
F 12

$$$$
=
 OpenBabel10222420153D

 52 57  0  0  1  0  0  0  0  0999 V2000
  189.3460  177.5780  145.4130 C   0  0  0  0  0  0  0  0  0  0  0  0
  187.4380  177.6340  142.1870 C   0  0  0  0  0  2  0  0  0  0  0  0
  192.4500  176.6390  147.4910 C   0  0  0  0  0  1  0  0  0  0  0  0
  189.8960  177.9720  141.7060 C   0  0  1  0  0  3  0  0  0  0  0  0
  188.4660  178.4310  141.3870 C   0  0  1  0  0  3  0  0  0  0  0  0
  190.7220  177.7980  145.9840 C   0  0  0  0  0  2  0  0  0  0  0  0
  190.2070  178.2320  143.1830 C   0  0  0  0  0  2  0  0  0  0  0  0
  187.7570  177.6780  143.6100 N   0  0  0  0  0  2  0  0  0  0  0  0
  188.7050  176.3210  147.4340 C   0  0  0  0  0  0  0  0  0  0  0  0
  191.0330  176.8230  147.0850 C   0  0  0  0  0  0  0  0  0  0  0  0
  189.1020  177.7740  144.1070 C   0  0  0  0  0  0  0  0  0  0  0  0
  188.2270  177.2570  146.3600 C   0  0  1  0  0  3  0  0  0  0  0  0
  190.1000  176.1940  147.7340 N   0  0  0  0  0  0  0  0  0  0  0  0
  187.8690  175.6380  148.0810 O   0  0  0  0  0  0  0  0  0  0  0  0
  190.8500  176.1270  140.2950 C   0  0  0  0  0  3  0  0  0  0  0  0
  190.1380  176.5250  141.3580 C   0  0  0  0  0  3  0  0  0  0  0  0
  191.4900  177.0690  139.3150 C   0  0  0  0  0  2  0  0  0  0  0  0
  190.8040  177.0200  137.9570 C   0  0  0  0  0  2  0  0  0  0  0  0
  189.1660  176.3750  135.7400 O   0  0  0  0  0  0  0  0  0  0  0  0
  189.1640  175.5670  136.7080 C   0  0  0  0  0  0  0  0  0  0  0  0
  189.9920  175.8160  137.8440 N   0  0  0  0  0  2  0  0  0  0  0  0
  184.9060  172.9290  137.6020 S   0  0  0  0  0  0  0  0  0  0  0  0
  187.0460  174.3970  137.1890 N   0  0  0  0  0  0  0  0  0  0  0  0
  188.6540  173.1420  136.0870 C   0  0  1  0  0  3  0  0  0  0  0  0
  187.3690  172.0740  136.2700 S   0  0  0  0  0  0  0  0  0  0  0  0
  188.2970  174.3730  136.6510 C   0  0  0  0  0  0  0  0  0  0  0  0
  189.9440  172.7850  135.4330 C   0  0  0  0  0  1  0  0  0  0  0  0
  186.4180  173.2100  137.0550 C   0  0  0  0  0  0  0  0  0  0  0  0
  188.1520  178.4590  139.8920 C   0  0  0  0  0  2  0  0  0  0  0  0
  186.7880  178.6460  139.6640 O   0  0  0  0  0  1  0  0  0  0  0  0
  187.6770  178.5490  146.9570 C   0  0  0  0  0  2  0  0  0  0  0  0
  186.3740  178.3260  147.5820 N   0  0  0  0  0  0  0  0  0  0  0  0
  185.2510  178.8560  146.8160 C   0  0  2  0  0  3  0  0  0  0  0  0
  185.6240  177.5510  146.7120 O   0  0  0  0  0  0  0  0  0  0  0  0
  185.5970  179.5750  145.5060 C   0  0  0  0  0  2  0  0  0  0  0  0
  182.2980  178.7490  143.8460 C   0  0  0  0  0  0  0  0  0  0  0  0
  184.9260  179.3370  143.0970 C   0  0  0  0  0  3  0  0  0  0  0  0
  181.0250  178.4750  144.2270 F   0  0  0  0  0  0  0  0  0  0  0  0
  183.2680  178.9950  144.8230 C   0  0  0  0  0  3  0  0  0  0  0  0
  183.9580  179.0850  142.1210 C   0  0  0  0  0  3  0  0  0  0  0  0
  184.5830  179.2820  144.4530 C   0  0  0  0  0  0  0  0  0  0  0  0
  182.6350  178.7920  142.4870 C   0  0  0  0  0  0  0  0  0  0  0  0
  181.6210  178.5220  141.5050 N   0  0  0  0  0  2  0  0  0  0  0  0
  182.2960  177.2840  136.9130 C   0  0  0  0  0  3  0  0  0  0  0  0
  183.1380  180.0560  138.8790 O   0  0  0  0  0  0  0  0  0  0  0  0
  180.6880  180.2350  138.9900 O   0  0  0  0  0  0  0  0  0  0  0  0
  182.6870  175.9930  139.0510 C   0  0  0  0  0  2  0  0  0  0  0  0
  181.8000  178.1180  140.1400 C   0  0  1  0  0  3  0  0  0  0  0  0
  183.2600  176.4470  137.7410 C   0  0  0  0  0  2  0  0  0  0  0  0
  181.8460  179.2880  138.8390 S   0  0  0  0  0  0  0  0  0  0  0  0
  182.2250  176.9550  139.7780 C   0  0  0  0  0  2  0  0  0  0  0  0
  181.6970  178.4460  137.2710 C   0  0  0  0  0  3  0  0  0  0  0  0
  1  6  1  0  0  0  0
  1 12  1  0  0  0  0
  2  8  1  0  0  0  0
  4 16  1  1  0  0  0
  4  7  1  0  0  0  0
  5 29  1  6  0  0  0
  5  4  1  0  0  0  0
  5  2  1  0  0  0  0
  6 10  1  0  0  0  0
  7 11  1  0  0  0  0
  8 11  1  0  0  0  0
  9 13  1  0  0  0  0
  9 14  2  0  0  0  0
 10  3  1  0  0  0  0
 10 13  2  0  0  0  0
 11  1  2  0  0  0  0
 12 31  1  1  0  0  0
 12  9  1  0  0  0  0
 15 16  2  0  0  0  0
 17 15  1  0  0  0  0
 18 17  1  0  0  0  0
 19 20  2  0  0  0  0
 20 21  1  0  0  0  0
 21 18  1  0  0  0  0
 24 27  1  1  0  0  0
 24 25  1  0  0  0  0
 24 26  1  0  0  0  0
 25 28  1  0  0  0  0
 26 20  1  0  0  0  0
 26 23  2  0  0  0  0
 28 23  1  0  0  0  0
 28 22  2  0  0  0  0
 30 29  1  0  0  0  0
 31 32  1  0  0  0  0
 33 35  1  6  0  0  0
 33 32  1  0  0  0  0
 34 33  1  0  0  0  0
 34 32  1  0  0  0  0
 36 38  1  0  0  0  0
 36 39  1  0  0  0  0
 37 41  1  0  0  0  0
 40 42  1  0  0  0  0
 40 37  2  0  0  0  0
 41 39  2  0  0  0  0
 41 35  1  0  0  0  0
 42 36  2  0  0  0  0
 43 42  1  0  0  0  0
 44 52  2  0  0  0  0
 44 49  1  0  0  0  0
 47 51  1  0  0  0  0
 48 43  1  1  0  0  0
 49 47  1  0  0  0  0
 50 45  2  0  0  0  0
 50 46  2  0  0  0  0
 50 48  1  0  0  0  0
 51 48  1  0  0  0  0
 52 50  1  0  0  0  0
M  END
>  <MODEL>
2

>  <REMARK>
 VINA RESULT:      -7.8      3.884      9.841
  Name = 
  12 active torsions:
  status: ('A' for Active; 'I' for Inactive)
    1  A    between atoms: N_6  and  C_19
    2  A    between atoms: C_8  and  C_21
    3  A    between atoms: C_11  and  C_47
    4  A    between atoms: C_12  and  C_15
    5  A    between atoms: C_15  and  C_45
    6  A    between atoms: C_18  and  C_29
    7  A    between atoms: C_19  and  C_41
    8  A    between atoms: C_20  and  C_21
    9  A    between atoms: C_20  and  N_30
   10  A    between atoms: C_23  and  C_25
   11  A    between atoms: N_33  and  C_34
   12  A    between atoms: N_33  and  C_49
                            x       y       z     vdW  Elec       q    Type
                         _______ _______ _______ _____ _____    ______ ____

>  <TORSDO>
F 12

$$$$
=
 OpenBabel10222420153D

 52 57  0  0  1  0  0  0  0  0999 V2000
  188.8560  177.7340  143.5480 C   0  0  0  0  0  0  0  0  0  0  0  0
  186.5480  179.3620  141.0830 C   0  0  0  0  0  2  0  0  0  0  0  0
  189.7580  176.6500  147.1320 C   0  0  0  0  0  1  0  0  0  0  0  0
  185.1820  178.1300  142.8150 C   0  0  1  0  0  3  0  0  0  0  0  0
  185.3560  178.4390  141.3220 C   0  0  1  0  0  3  0  0  0  0  0  0
  188.8680  176.7970  144.7260 C   0  0  0  0  0  2  0  0  0  0  0  0
  186.4120  177.3840  143.3370 C   0  0  0  0  0  2  0  0  0  0  0  0
  187.7480  178.8120  141.7050 N   0  0  0  0  0  2  0  0  0  0  0  0
  191.0890  178.5650  144.1830 C   0  0  0  0  0  0  0  0  0  0  0  0
  189.8740  177.2130  145.7620 C   0  0  0  0  0  0  0  0  0  0  0  0
  187.7150  178.0150  142.9000 C   0  0  0  0  0  0  0  0  0  0  0  0
  190.1710  178.2480  143.0360 C   0  0  1  0  0  3  0  0  0  0  0  0
  190.8770  177.9900  145.4780 N   0  0  0  0  0  0  0  0  0  0  0  0
  192.0590  179.3470  144.0060 O   0  0  0  0  0  0  0  0  0  0  0  0
  183.7840  179.5690  144.3250 C   0  0  0  0  0  3  0  0  0  0  0  0
  184.9180  179.3630  143.6410 C   0  0  0  0  0  3  0  0  0  0  0  0
  182.6330  178.6040  144.3490 C   0  0  0  0  0  2  0  0  0  0  0  0
  181.4230  179.1520  143.6070 C   0  0  0  0  0  2  0  0  0  0  0  0
  178.9320  178.4540  142.4560 O   0  0  0  0  0  0  0  0  0  0  0  0
  179.9690  178.1160  141.8240 C   0  0  0  0  0  0  0  0  0  0  0  0
  181.2570  178.4650  142.3330 N   0  0  0  0  0  2  0  0  0  0  0  0
  179.1050  173.9460  139.0390 S   0  0  0  0  0  0  0  0  0  0  0  0
  179.5190  176.0320  140.5840 N   0  0  0  0  0  0  0  0  0  0  0  0
  180.0240  177.8820  139.2810 C   0  0  1  0  0  3  0  0  0  0  0  0
  179.7890  176.6540  138.1580 S   0  0  0  0  0  0  0  0  0  0  0  0
  179.8330  177.3570  140.5650 C   0  0  0  0  0  0  0  0  0  0  0  0
  180.3850  179.2810  138.9190 C   0  0  0  0  0  1  0  0  0  0  0  0
  179.4580  175.5120  139.3400 C   0  0  0  0  0  0  0  0  0  0  0  0
  184.0810  178.9440  140.6490 C   0  0  0  0  0  2  0  0  0  0  0  0
  184.3710  179.8340  139.6140 O   0  0  0  0  0  1  0  0  0  0  0  0
  190.7930  177.2170  142.1000 C   0  0  0  0  0  2  0  0  0  0  0  0
  190.1000  177.1920  140.8120 N   0  0  0  0  0  0  0  0  0  0  0  0
  190.9940  177.1750  139.6590 C   0  0  2  0  0  3  0  0  0  0  0  0
  190.4710  176.0250  140.1630 O   0  0  0  0  0  0  0  0  0  0  0  0
  192.4980  177.2080  139.9600 C   0  0  0  0  0  2  0  0  0  0  0  0
  193.6230  175.7540  136.6520 C   0  0  0  0  0  0  0  0  0  0  0  0
  194.3610  175.6390  139.3460 C   0  0  0  0  0  3  0  0  0  0  0  0
  193.2580  175.8290  135.3480 F   0  0  0  0  0  0  0  0  0  0  0  0
  192.8990  176.4710  137.6090 C   0  0  0  0  0  3  0  0  0  0  0  0
  195.0810  174.9170  138.3900 C   0  0  0  0  0  3  0  0  0  0  0  0
  193.2600  176.4100  138.9560 C   0  0  0  0  0  0  0  0  0  0  0  0
  194.7210  174.9700  137.0350 C   0  0  0  0  0  0  0  0  0  0  0  0
  195.4380  174.2330  136.0320 N   0  0  0  0  0  2  0  0  0  0  0  0
  197.8340  170.1110  136.6160 C   0  0  0  0  0  3  0  0  0  0  0  0
  198.2550  173.4000  137.7400 O   0  0  0  0  0  0  0  0  0  0  0  0
  198.5090  173.7840  135.3250 O   0  0  0  0  0  0  0  0  0  0  0  0
  195.3720  170.6410  136.8350 C   0  0  0  0  0  2  0  0  0  0  0  0
  196.1270  172.9840  136.1800 C   0  0  1  0  0  3  0  0  0  0  0  0
  196.5790  170.0160  137.4700 C   0  0  0  0  0  2  0  0  0  0  0  0
  197.8670  172.9160  136.3720 S   0  0  0  0  0  0  0  0  0  0  0  0
  195.5500  171.8680  136.4750 C   0  0  0  0  0  2  0  0  0  0  0  0
  198.4280  171.2360  136.1460 C   0  0  0  0  0  3  0  0  0  0  0  0
  1  6  1  0  0  0  0
  2  5  1  0  0  0  0
  2  8  1  0  0  0  0
  4  7  1  0  0  0  0
  4 16  1  1  0  0  0
  5 29  1  1  0  0  0
  5  4  1  0  0  0  0
  6 10  1  0  0  0  0
  8 11  1  0  0  0  0
  9 13  1  0  0  0  0
 10  3  1  0  0  0  0
 11  7  1  0  0  0  0
 11  1  2  0  0  0  0
 12 31  1  6  0  0  0
 12  1  1  0  0  0  0
 12  9  1  0  0  0  0
 13 10  2  0  0  0  0
 14  9  2  0  0  0  0
 15 17  1  0  0  0  0
 16 15  2  0  0  0  0
 18 17  1  0  0  0  0
 20 21  1  0  0  0  0
 20 19  2  0  0  0  0
 21 18  1  0  0  0  0
 22 28  2  0  0  0  0
 24 27  1  1  0  0  0
 24 26  1  0  0  0  0
 25 24  1  0  0  0  0
 25 28  1  0  0  0  0
 26 23  2  0  0  0  0
 26 20  1  0  0  0  0
 28 23  1  0  0  0  0
 30 29  1  0  0  0  0
 32 31  1  0  0  0  0
 33 35  1  1  0  0  0
 33 34  1  0  0  0  0
 33 32  1  0  0  0  0
 34 32  1  0  0  0  0
 36 42  2  0  0  0  0
 36 39  1  0  0  0  0
 38 36  1  0  0  0  0
 39 41  2  0  0  0  0
 40 37  2  0  0  0  0
 41 37  1  0  0  0  0
 41 35  1  0  0  0  0
 42 40  1  0  0  0  0
 43 42  1  0  0  0  0
 44 49  1  0  0  0  0
 46 50  2  0  0  0  0
 47 49  1  0  0  0  0
 48 43  1  1  0  0  0
 48 50  1  0  0  0  0
 48 51  1  0  0  0  0
 50 45  2  0  0  0  0
 51 47  1  0  0  0  0
 52 50  1  0  0  0  0
 52 44  2  0  0  0  0
M  END
>  <MODEL>
3

>  <REMARK>
 VINA RESULT:      -7.6      1.927      2.545
  Name = 
  12 active torsions:
  status: ('A' for Active; 'I' for Inactive)
    1  A    between atoms: N_6  and  C_19
    2  A    between atoms: C_8  and  C_21
    3  A    between atoms: C_11  and  C_47
    4  A    between atoms: C_12  and  C_15
    5  A    between atoms: C_15  and  C_45
    6  A    between atoms: C_18  and  C_29
    7  A    between atoms: C_19  and  C_41
    8  A    between atoms: C_20  and  C_21
    9  A    between atoms: C_20  and  N_30
   10  A    between atoms: C_23  and  C_25
   11  A    between atoms: N_33  and  C_34
   12  A    between atoms: N_33  and  C_49
                            x       y       z     vdW  Elec       q    Type
                         _______ _______ _______ _____ _____    ______ ____

>  <TORSDO>
F 12

$$$$
=
 OpenBabel10222420153D

 52 57  0  0  1  0  0  0  0  0999 V2000
  189.3620  177.5010  145.3980 C   0  0  0  0  0  0  0  0  0  0  0  0
  187.4010  177.5290  142.2040 C   0  0  0  0  0  2  0  0  0  0  0  0
  192.5030  176.5850  147.4330 C   0  0  0  0  0  1  0  0  0  0  0  0
  189.8500  177.8700  141.6800 C   0  0  1  0  0  3  0  0  0  0  0  0
  188.4140  178.3220  141.3820 C   0  0  1  0  0  3  0  0  0  0  0  0
  190.7460  177.7290  145.9460 C   0  0  0  0  0  2  0  0  0  0  0  0
  190.1840  178.1410  143.1500 C   0  0  0  0  0  2  0  0  0  0  0  0
  187.7430  177.5840  143.6220 N   0  0  0  0  0  2  0  0  0  0  0  0
  188.7570  176.2580  147.4390 C   0  0  0  0  0  0  0  0  0  0  0  0
  191.0790  176.7620  147.0480 C   0  0  0  0  0  0  0  0  0  0  0  0
  189.0960  177.6870  144.0960 C   0  0  0  0  0  0  0  0  0  0  0  0
  188.2590  177.1850  146.3670 C   0  0  1  0  0  3  0  0  0  0  0  0
  190.1570  176.1360  147.7180 N   0  0  0  0  0  0  0  0  0  0  0  0
  187.9340  175.5770  148.1050 O   0  0  0  0  0  0  0  0  0  0  0  0
  190.8490  176.0170  140.3120 C   0  0  0  0  0  3  0  0  0  0  0  0
  190.0890  176.4210  141.3390 C   0  0  0  0  0  3  0  0  0  0  0  0
  191.5500  176.9530  139.3700 C   0  0  0  0  0  2  0  0  0  0  0  0
  191.5900  176.4010  137.9520 C   0  0  0  0  0  2  0  0  0  0  0  0
  194.2430  176.5300  136.9730 O   0  0  0  0  0  0  0  0  0  0  0  0
  193.8240  175.4000  137.3420 C   0  0  0  0  0  0  0  0  0  0  0  0
  192.5050  175.2710  137.8760 N   0  0  0  0  0  2  0  0  0  0  0  0
  195.5990  171.2180  135.0500 S   0  0  0  0  0  0  0  0  0  0  0  0
  194.6070  173.4000  136.1300 N   0  0  0  0  0  0  0  0  0  0  0  0
  195.6730  173.8310  138.1430 C   0  0  1  0  0  3  0  0  0  0  0  0
  196.4150  172.4280  137.5900 S   0  0  0  0  0  0  0  0  0  0  0  0
  194.7050  174.2230  137.2100 C   0  0  0  0  0  0  0  0  0  0  0  0
  196.0190  174.5030  139.4260 C   0  0  0  0  0  1  0  0  0  0  0  0
  195.4810  172.3730  136.1980 C   0  0  0  0  0  0  0  0  0  0  0  0
  188.0750  178.3390  139.8930 C   0  0  0  0  0  2  0  0  0  0  0  0
  189.0560  179.0060  139.1570 O   0  0  0  0  0  1  0  0  0  0  0  0
  187.7170  178.4800  146.9640 C   0  0  0  0  0  2  0  0  0  0  0  0
  186.4240  178.2580  147.6110 N   0  0  0  0  0  0  0  0  0  0  0  0
  185.2920  178.8150  146.8790 C   0  0  2  0  0  3  0  0  0  0  0  0
  185.6470  177.5090  146.7410 O   0  0  0  0  0  0  0  0  0  0  0  0
  185.6180  179.5560  145.5760 C   0  0  0  0  0  2  0  0  0  0  0  0
  182.3000  178.7660  143.9380 C   0  0  0  0  0  0  0  0  0  0  0  0
  184.9300  179.3200  143.1730 C   0  0  0  0  0  3  0  0  0  0  0  0
  181.0260  178.5090  144.3270 F   0  0  0  0  0  0  0  0  0  0  0  0
  183.2780  179.0040  144.9090 C   0  0  0  0  0  3  0  0  0  0  0  0
  183.9540  179.0760  142.2030 C   0  0  0  0  0  3  0  0  0  0  0  0
  184.5950  179.2730  144.5300 C   0  0  0  0  0  0  0  0  0  0  0  0
  182.6300  178.8010  142.5770 C   0  0  0  0  0  0  0  0  0  0  0  0
  181.6070  178.5400  141.6020 N   0  0  0  0  0  2  0  0  0  0  0  0
  182.2450  177.3620  136.9890 C   0  0  0  0  0  3  0  0  0  0  0  0
  183.1830  180.0660  139.0060 O   0  0  0  0  0  0  0  0  0  0  0  0
  180.7410  180.3310  139.1170 O   0  0  0  0  0  0  0  0  0  0  0  0
  182.5850  176.0190  139.1030 C   0  0  0  0  0  2  0  0  0  0  0  0
  181.7740  178.1550  140.2300 C   0  0  1  0  0  3  0  0  0  0  0  0
  183.1760  176.4760  137.8030 C   0  0  0  0  0  2  0  0  0  0  0  0
  181.8640  179.3460  138.9500 S   0  0  0  0  0  0  0  0  0  0  0  0
  182.1560  176.9840  139.8480 C   0  0  0  0  0  2  0  0  0  0  0  0
  181.6870  178.5390  137.3680 C   0  0  0  0  0  3  0  0  0  0  0  0
  1  6  1  0  0  0  0
  1 12  1  0  0  0  0
  2  8  1  0  0  0  0
  4 16  1  1  0  0  0
  4  7  1  0  0  0  0
  5 29  1  6  0  0  0
  5  4  1  0  0  0  0
  5  2  1  0  0  0  0
  6 10  1  0  0  0  0
  7 11  1  0  0  0  0
  8 11  1  0  0  0  0
  9 13  1  0  0  0  0
  9 14  2  0  0  0  0
 10  3  1  0  0  0  0
 10 13  2  0  0  0  0
 11  1  2  0  0  0  0
 12 31  1  1  0  0  0
 12  9  1  0  0  0  0
 15 16  2  0  0  0  0
 17 15  1  0  0  0  0
 18 17  1  0  0  0  0
 19 20  2  0  0  0  0
 20 21  1  0  0  0  0
 21 18  1  0  0  0  0
 22 28  2  0  0  0  0
 23 28  1  0  0  0  0
 23 26  2  0  0  0  0
 24 27  1  1  0  0  0
 25 24  1  0  0  0  0
 26 20  1  0  0  0  0
 26 24  1  0  0  0  0
 28 25  1  0  0  0  0
 30 29  1  0  0  0  0
 31 32  1  0  0  0  0
 33 35  1  6  0  0  0
 33 32  1  0  0  0  0
 34 33  1  0  0  0  0
 34 32  1  0  0  0  0
 36 38  1  0  0  0  0
 36 39  1  0  0  0  0
 37 41  1  0  0  0  0
 40 42  1  0  0  0  0
 40 37  2  0  0  0  0
 41 39  2  0  0  0  0
 41 35  1  0  0  0  0
 42 36  2  0  0  0  0
 43 42  1  0  0  0  0
 44 52  2  0  0  0  0
 44 49  1  0  0  0  0
 47 51  1  0  0  0  0
 48 43  1  1  0  0  0
 49 47  1  0  0  0  0
 50 45  2  0  0  0  0
 50 46  2  0  0  0  0
 50 48  1  0  0  0  0
 51 48  1  0  0  0  0
 52 50  1  0  0  0  0
M  END
>  <MODEL>
4

>  <REMARK>
 VINA RESULT:      -7.5      3.371     11.280
  Name = 
  12 active torsions:
  status: ('A' for Active; 'I' for Inactive)
    1  A    between atoms: N_6  and  C_19
    2  A    between atoms: C_8  and  C_21
    3  A    between atoms: C_11  and  C_47
    4  A    between atoms: C_12  and  C_15
    5  A    between atoms: C_15  and  C_45
    6  A    between atoms: C_18  and  C_29
    7  A    between atoms: C_19  and  C_41
    8  A    between atoms: C_20  and  C_21
    9  A    between atoms: C_20  and  N_30
   10  A    between atoms: C_23  and  C_25
   11  A    between atoms: N_33  and  C_34
   12  A    between atoms: N_33  and  C_49
                            x       y       z     vdW  Elec       q    Type
                         _______ _______ _______ _____ _____    ______ ____

>  <TORSDO>
F 12

$$$$
=
 OpenBabel10222420153D

 52 57  0  0  1  0  0  0  0  0999 V2000
  185.0060  176.2390  137.2310 C   0  0  0  0  0  0  0  0  0  0  0  0
  188.3370  177.9580  137.2320 C   0  0  0  0  0  2  0  0  0  0  0  0
  182.6540  173.4200  136.0650 C   0  0  0  0  0  1  0  0  0  0  0  0
  188.6910  175.4570  137.1500 C   0  0  1  0  0  3  0  0  0  0  0  0
  189.1420  176.7830  137.7800 C   0  0  1  0  0  3  0  0  0  0  0  0
  184.3720  174.8750  137.3040 C   0  0  0  0  0  2  0  0  0  0  0  0
  187.2290  175.1820  137.5130 C   0  0  0  0  0  2  0  0  0  0  0  0
  186.9070  177.7050  137.3770 N   0  0  0  0  0  2  0  0  0  0  0  0
  182.9180  177.1630  136.3020 C   0  0  0  0  0  0  0  0  0  0  0  0
  183.1650  174.7710  136.4130 C   0  0  0  0  0  0  0  0  0  0  0  0
  186.3370  176.3870  137.3230 C   0  0  0  0  0  0  0  0  0  0  0  0
  184.1050  177.4390  137.1810 C   0  0  1  0  0  3  0  0  0  0  0  0
  182.5190  175.8210  136.0020 N   0  0  0  0  0  0  0  0  0  0  0  0
  182.2630  178.1250  135.8210 O   0  0  0  0  0  0  0  0  0  0  0  0
  189.6780  174.5480  135.0280 C   0  0  0  0  0  3  0  0  0  0  0  0
  188.8820  175.4250  135.6550 C   0  0  0  0  0  3  0  0  0  0  0  0
  190.4840  173.4940  135.7340 C   0  0  0  0  0  2  0  0  0  0  0  0
  191.3700  172.7220  134.7680 C   0  0  0  0  0  2  0  0  0  0  0  0
  193.5490  172.5000  136.5630 O   0  0  0  0  0  0  0  0  0  0  0  0
  193.7000  173.2630  135.5700 C   0  0  0  0  0  0  0  0  0  0  0  0
  192.6520  173.3950  134.6090 N   0  0  0  0  0  2  0  0  0  0  0  0
  198.6700  173.7570  134.5940 S   0  0  0  0  0  0  0  0  0  0  0  0
  196.1120  173.3770  135.0620 N   0  0  0  0  0  0  0  0  0  0  0  0
  195.1140  175.3880  135.6400 C   0  0  1  0  0  3  0  0  0  0  0  0
  196.7220  175.8000  135.3740 S   0  0  0  0  0  0  0  0  0  0  0  0
  194.9630  174.0140  135.4210 C   0  0  0  0  0  0  0  0  0  0  0  0
  194.0640  176.3620  136.0500 C   0  0  0  0  0  1  0  0  0  0  0  0
  197.1580  174.2270  134.9960 C   0  0  0  0  0  0  0  0  0  0  0  0
  190.6500  177.0160  137.6980 C   0  0  0  0  0  2  0  0  0  0  0  0
  191.3590  175.9570  138.2670 O   0  0  0  0  0  1  0  0  0  0  0  0
  183.6710  177.8110  138.5950 C   0  0  0  0  0  2  0  0  0  0  0  0
  183.9110  179.2290  138.8620 N   0  0  0  0  0  0  0  0  0  0  0  0
  183.7470  179.6040  140.2630 C   0  0  2  0  0  3  0  0  0  0  0  0
  184.9720  179.3090  139.7510 O   0  0  0  0  0  0  0  0  0  0  0  0
  183.3310  178.4840  141.2260 C   0  0  0  0  0  2  0  0  0  0  0  0
  184.5390  178.6010  144.8100 C   0  0  0  0  0  0  0  0  0  0  0  0
  185.5880  178.1170  142.2650 C   0  0  0  0  0  3  0  0  0  0  0  0
  184.0120  178.8290  146.0390 F   0  0  0  0  0  0  0  0  0  0  0  0
  183.7120  178.6710  143.6850 C   0  0  0  0  0  3  0  0  0  0  0  0
  186.4160  178.0520  143.3880 C   0  0  0  0  0  3  0  0  0  0  0  0
  184.2340  178.4370  142.4120 C   0  0  0  0  0  0  0  0  0  0  0  0
  185.8990  178.2910  144.6710 C   0  0  0  0  0  0  0  0  0  0  0  0
  186.7280  178.2380  145.8430 N   0  0  0  0  0  2  0  0  0  0  0  0
  191.3290  176.9100  146.2180 C   0  0  0  0  0  3  0  0  0  0  0  0
  188.3420  175.9580  147.7780 O   0  0  0  0  0  0  0  0  0  0  0  0
  188.4390  178.2980  148.5270 O   0  0  0  0  0  0  0  0  0  0  0  0
  189.8530  177.2140  144.1890 C   0  0  0  0  0  2  0  0  0  0  0  0
  188.1120  177.8710  145.9280 C   0  0  1  0  0  3  0  0  0  0  0  0
  190.8020  176.3130  144.9220 C   0  0  0  0  0  2  0  0  0  0  0  0
  188.8270  177.3390  147.4360 S   0  0  0  0  0  0  0  0  0  0  0  0
  188.8580  177.6170  144.9070 C   0  0  0  0  0  2  0  0  0  0  0  0
  190.6060  177.3320  147.2850 C   0  0  0  0  0  3  0  0  0  0  0  0
  1  6  1  0  0  0  0
  1 11  2  0  0  0  0
  2  8  1  0  0  0  0
  2  5  1  0  0  0  0
  3 10  1  0  0  0  0
  4 16  1  6  0  0  0
  4  7  1  0  0  0  0
  4  5  1  0  0  0  0
  5 29  1  6  0  0  0
  9 12  1  0  0  0  0
 10  6  1  0  0  0  0
 11  8  1  0  0  0  0
 11  7  1  0  0  0  0
 12  1  1  0  0  0  0
 12 31  1  1  0  0  0
 13  9  1  0  0  0  0
 13 10  2  0  0  0  0
 14  9  2  0  0  0  0
 15 16  2  0  0  0  0
 15 17  1  0  0  0  0
 18 17  1  0  0  0  0
 20 19  2  0  0  0  0
 21 18  1  0  0  0  0
 21 20  1  0  0  0  0
 22 28  2  0  0  0  0
 23 26  2  0  0  0  0
 24 27  1  1  0  0  0
 25 24  1  0  0  0  0
 26 20  1  0  0  0  0
 26 24  1  0  0  0  0
 28 23  1  0  0  0  0
 28 25  1  0  0  0  0
 29 30  1  0  0  0  0
 31 32  1  0  0  0  0
 32 34  1  0  0  0  0
 32 33  1  0  0  0  0
 33 35  1  1  0  0  0
 34 33  1  0  0  0  0
 35 41  1  0  0  0  0
 36 38  1  0  0  0  0
 37 41  2  0  0  0  0
 37 40  1  0  0  0  0
 39 36  2  0  0  0  0
 40 42  2  0  0  0  0
 41 39  1  0  0  0  0
 42 36  1  0  0  0  0
 42 43  1  0  0  0  0
 44 52  2  0  0  0  0
 47 51  1  0  0  0  0
 47 49  1  0  0  0  0
 48 43  1  6  0  0  0
 48 50  1  0  0  0  0
 49 44  1  0  0  0  0
 50 45  2  0  0  0  0
 50 46  2  0  0  0  0
 51 48  1  0  0  0  0
 52 50  1  0  0  0  0
M  END
>  <MODEL>
5

>  <REMARK>
 VINA RESULT:      -7.5      4.335     12.201
  Name = 
  12 active torsions:
  status: ('A' for Active; 'I' for Inactive)
    1  A    between atoms: N_6  and  C_19
    2  A    between atoms: C_8  and  C_21
    3  A    between atoms: C_11  and  C_47
    4  A    between atoms: C_12  and  C_15
    5  A    between atoms: C_15  and  C_45
    6  A    between atoms: C_18  and  C_29
    7  A    between atoms: C_19  and  C_41
    8  A    between atoms: C_20  and  C_21
    9  A    between atoms: C_20  and  N_30
   10  A    between atoms: C_23  and  C_25
   11  A    between atoms: N_33  and  C_34
   12  A    between atoms: N_33  and  C_49
                            x       y       z     vdW  Elec       q    Type
                         _______ _______ _______ _____ _____    ______ ____

>  <TORSDO>
F 12

$$$$
=
 OpenBabel10222420153D

 52 57  0  0  1  0  0  0  0  0999 V2000
  189.0930  177.7200  141.3580 C   0  0  0  0  0  0  0  0  0  0  0  0
  188.0280  176.6730  137.9200 C   0  0  0  0  0  2  0  0  0  0  0  0
  191.6380  177.7490  144.2490 C   0  0  0  0  0  1  0  0  0  0  0  0
  190.5100  177.1500  137.9140 C   0  0  1  0  0  3  0  0  0  0  0  0
  189.1800  177.3350  137.1690 C   0  0  1  0  0  3  0  0  0  0  0  0
  190.2750  178.2450  142.1280 C   0  0  0  0  0  2  0  0  0  0  0  0
  190.4380  177.8360  139.2800 C   0  0  0  0  0  2  0  0  0  0  0  0
  187.9880  177.1400  139.3020 N   0  0  0  0  0  2  0  0  0  0  0  0
  188.0390  176.9960  143.4660 C   0  0  0  0  0  0  0  0  0  0  0  0
  190.3560  177.6500  143.5060 C   0  0  0  0  0  0  0  0  0  0  0  0
  189.1650  177.5220  140.0320 C   0  0  0  0  0  0  0  0  0  0  0  0
  187.7930  177.5420  142.0880 C   0  0  1  0  0  3  0  0  0  0  0  0
  189.3230  177.1180  144.0890 N   0  0  0  0  0  0  0  0  0  0  0  0
  187.1050  176.4220  144.0840 O   0  0  0  0  0  0  0  0  0  0  0  0
  191.8730  175.1160  137.3560 C   0  0  0  0  0  3  0  0  0  0  0  0
  190.8980  175.7010  138.0650 C   0  0  0  0  0  3  0  0  0  0  0  0
  192.6940  175.8270  136.3180 C   0  0  0  0  0  2  0  0  0  0  0  0
  193.8650  174.9760  135.8480 C   0  0  0  0  0  2  0  0  0  0  0  0
  195.1760  173.0260  137.4280 O   0  0  0  0  0  0  0  0  0  0  0  0
  195.6320  174.2010  137.4730 C   0  0  0  0  0  0  0  0  0  0  0  0
  195.0370  175.2260  136.6760 N   0  0  0  0  0  2  0  0  0  0  0  0
  197.8180  175.6010  141.8490 S   0  0  0  0  0  0  0  0  0  0  0  0
  196.5740  174.8800  139.6500 N   0  0  0  0  0  0  0  0  0  0  0  0
  198.1230  174.4480  137.9800 C   0  0  1  0  0  3  0  0  0  0  0  0
  199.0680  174.8870  139.2990 S   0  0  0  0  0  0  0  0  0  0  0  0
  196.7760  174.5000  138.3580 C   0  0  0  0  0  0  0  0  0  0  0  0
  198.6780  174.0830  136.6470 C   0  0  0  0  0  1  0  0  0  0  0  0
  197.7360  175.1250  140.2900 C   0  0  0  0  0  0  0  0  0  0  0  0
  189.2380  176.9190  135.7000 C   0  0  0  0  0  2  0  0  0  0  0  0
  187.9660  176.9000  135.1270 O   0  0  0  0  0  1  0  0  0  0  0  0
  187.0530  178.8750  142.1460 C   0  0  0  0  0  2  0  0  0  0  0  0
  185.7710  178.7340  142.8350 N   0  0  0  0  0  0  0  0  0  0  0  0
  184.6110  178.9750  141.9830 C   0  0  2  0  0  3  0  0  0  0  0  0
  185.0720  177.7150  142.2070 O   0  0  0  0  0  0  0  0  0  0  0  0
  184.9020  179.3560  140.5260 C   0  0  0  0  0  2  0  0  0  0  0  0
  182.6990  176.6040  139.1510 C   0  0  0  0  0  0  0  0  0  0  0  0
  184.7320  178.2990  138.2540 C   0  0  0  0  0  3  0  0  0  0  0  0
  181.7060  175.7950  139.6000 F   0  0  0  0  0  0  0  0  0  0  0  0
  183.2870  177.5200  140.0280 C   0  0  0  0  0  3  0  0  0  0  0  0
  184.1480  177.3790  137.3790 C   0  0  0  0  0  3  0  0  0  0  0  0
  184.3080  178.3630  139.5860 C   0  0  0  0  0  0  0  0  0  0  0  0
  183.1250  176.5260  137.8180 C   0  0  0  0  0  0  0  0  0  0  0  0
  182.5110  175.5660  136.9430 N   0  0  0  0  0  2  0  0  0  0  0  0
  184.3390  171.3120  135.6620 C   0  0  0  0  0  3  0  0  0  0  0  0
  185.5810  174.1500  137.2930 O   0  0  0  0  0  0  0  0  0  0  0  0
  185.0780  175.1530  135.1060 O   0  0  0  0  0  0  0  0  0  0  0  0
  182.1920  171.8990  136.8590 C   0  0  0  0  0  2  0  0  0  0  0  0
  183.0220  174.2860  136.5420 C   0  0  1  0  0  3  0  0  0  0  0  0
  183.4350  171.0610  136.8590 C   0  0  0  0  0  2  0  0  0  0  0  0
  184.6970  174.0730  136.0800 S   0  0  0  0  0  0  0  0  0  0  0  0
  182.4180  173.1660  136.7550 C   0  0  0  0  0  2  0  0  0  0  0  0
  184.9020  172.4870  135.2860 C   0  0  0  0  0  3  0  0  0  0  0  0
  1 12  1  0  0  0  0
  1  6  1  0  0  0  0
  2  8  1  0  0  0  0
  4 16  1  1  0  0  0
  4  7  1  0  0  0  0
  5 29  1  6  0  0  0
  5  4  1  0  0  0  0
  5  2  1  0  0  0  0
  6 10  1  0  0  0  0
  7 11  1  0  0  0  0
  8 11  1  0  0  0  0
  9 14  2  0  0  0  0
  9 13  1  0  0  0  0
 10 13  2  0  0  0  0
 10  3  1  0  0  0  0
 11  1  2  0  0  0  0
 12 31  1  1  0  0  0
 12  9  1  0  0  0  0
 15 16  2  0  0  0  0
 17 15  1  0  0  0  0
 18 17  1  0  0  0  0
 18 21  1  0  0  0  0
 19 20  2  0  0  0  0
 20 26  1  0  0  0  0
 21 20  1  0  0  0  0
 23 28  1  0  0  0  0
 24 27  1  6  0  0  0
 24 26  1  0  0  0  0
 24 25  1  0  0  0  0
 25 28  1  0  0  0  0
 26 23  2  0  0  0  0
 28 22  2  0  0  0  0
 30 29  1  0  0  0  0
 31 32  1  0  0  0  0
 33 35  1  6  0  0  0
 33 34  1  0  0  0  0
 33 32  1  0  0  0  0
 34 32  1  0  0  0  0
 36 38  1  0  0  0  0
 36 39  1  0  0  0  0
 37 41  1  0  0  0  0
 40 42  1  0  0  0  0
 40 37  2  0  0  0  0
 41 39  2  0  0  0  0
 41 35  1  0  0  0  0
 42 36  2  0  0  0  0
 43 42  1  0  0  0  0
 44 49  1  0  0  0  0
 46 50  2  0  0  0  0
 48 51  1  0  0  0  0
 48 43  1  1  0  0  0
 49 47  1  0  0  0  0
 50 48  1  0  0  0  0
 50 45  2  0  0  0  0
 51 47  1  0  0  0  0
 52 44  2  0  0  0  0
 52 50  1  0  0  0  0
M  END
>  <MODEL>
6

>  <REMARK>
 VINA RESULT:      -7.2      4.503     10.893
  Name = 
  12 active torsions:
  status: ('A' for Active; 'I' for Inactive)
    1  A    between atoms: N_6  and  C_19
    2  A    between atoms: C_8  and  C_21
    3  A    between atoms: C_11  and  C_47
    4  A    between atoms: C_12  and  C_15
    5  A    between atoms: C_15  and  C_45
    6  A    between atoms: C_18  and  C_29
    7  A    between atoms: C_19  and  C_41
    8  A    between atoms: C_20  and  C_21
    9  A    between atoms: C_20  and  N_30
   10  A    between atoms: C_23  and  C_25
   11  A    between atoms: N_33  and  C_34
   12  A    between atoms: N_33  and  C_49
                            x       y       z     vdW  Elec       q    Type
                         _______ _______ _______ _____ _____    ______ ____

>  <TORSDO>
F 12

$$$$
=
 OpenBabel10222420153D

 52 57  0  0  1  0  0  0  0  0999 V2000
  187.6610  177.8180  139.7460 C   0  0  0  0  0  0  0  0  0  0  0  0
  184.1870  179.0470  140.4330 C   0  0  0  0  0  2  0  0  0  0  0  0
  191.3330  177.2990  140.7870 C   0  0  0  0  0  1  0  0  0  0  0  0
  185.1690  178.0970  142.5590 C   0  0  1  0  0  3  0  0  0  0  0  0
  183.9280  178.1720  141.6570 C   0  0  1  0  0  3  0  0  0  0  0  0
  188.8050  177.0740  140.3810 C   0  0  0  0  0  2  0  0  0  0  0  0
  186.3230  177.4390  141.7980 C   0  0  0  0  0  2  0  0  0  0  0  0
  185.3850  178.5990  139.7320 N   0  0  0  0  0  2  0  0  0  0  0  0
  189.1940  178.7360  138.0490 C   0  0  0  0  0  0  0  0  0  0  0  0
  190.1360  177.6450  139.9770 C   0  0  0  0  0  0  0  0  0  0  0  0
  186.5040  177.9960  140.4040 C   0  0  0  0  0  0  0  0  0  0  0  0
  187.7990  178.2460  138.3140 C   0  0  1  0  0  3  0  0  0  0  0  0
  190.2810  178.3670  138.9070 N   0  0  0  0  0  0  0  0  0  0  0  0
  189.4150  179.4810  137.0590 O   0  0  0  0  0  0  0  0  0  0  0  0
  185.3620  179.8380  144.3570 C   0  0  0  0  0  3  0  0  0  0  0  0
  185.5840  179.4430  143.0960 C   0  0  0  0  0  3  0  0  0  0  0  0
  184.6680  178.9960  145.3890 C   0  0  0  0  0  2  0  0  0  0  0  0
  185.2990  179.1570  146.7650 C   0  0  0  0  0  2  0  0  0  0  0  0
  186.4710  176.8840  145.5500 O   0  0  0  0  0  0  0  0  0  0  0  0
  187.2530  177.7090  146.0960 C   0  0  0  0  0  0  0  0  0  0  0  0
  186.7300  178.8930  146.6990 N   0  0  0  0  0  2  0  0  0  0  0  0
  191.6530  176.1460  144.0730 S   0  0  0  0  0  0  0  0  0  0  0  0
  189.3250  176.9370  145.0010 N   0  0  0  0  0  0  0  0  0  0  0  0
  189.5520  177.6180  147.2060 C   0  0  1  0  0  3  0  0  0  0  0  0
  191.1060  177.1520  146.7680 S   0  0  0  0  0  0  0  0  0  0  0  0
  188.7030  177.4320  146.1070 C   0  0  0  0  0  0  0  0  0  0  0  0
  189.1870  178.1280  148.5570 C   0  0  0  0  0  1  0  0  0  0  0  0
  190.6420  176.7340  145.2130 C   0  0  0  0  0  0  0  0  0  0  0  0
  182.6550  178.5670  142.4020 C   0  0  0  0  0  2  0  0  0  0  0  0
  181.6330  178.9070  141.5140 O   0  0  0  0  0  1  0  0  0  0  0  0
  187.4380  177.0820  137.3960 C   0  0  0  0  0  2  0  0  0  0  0  0
  187.4980  177.4840  135.9910 N   0  0  0  0  0  0  0  0  0  0  0  0
  186.3480  177.0530  135.2030 C   0  0  2  0  0  3  0  0  0  0  0  0
  186.4040  178.2990  135.7460 O   0  0  0  0  0  0  0  0  0  0  0  0
  185.2790  176.2390  135.9420 C   0  0  0  0  0  2  0  0  0  0  0  0
  182.2700  178.0820  137.3090 C   0  0  0  0  0  0  0  0  0  0  0  0
  183.3210  177.3450  134.8260 C   0  0  0  0  0  3  0  0  0  0  0  0
  181.7790  178.4400  138.5220 F   0  0  0  0  0  0  0  0  0  0  0  0
  183.4640  177.3580  137.2390 C   0  0  0  0  0  3  0  0  0  0  0  0
  182.1240  178.0640  134.8960 C   0  0  0  0  0  3  0  0  0  0  0  0
  183.9880  176.9820  136.0010 C   0  0  0  0  0  0  0  0  0  0  0  0
  181.5900  178.4410  136.1370 C   0  0  0  0  0  0  0  0  0  0  0  0
  180.3580  179.1740  136.2410 N   0  0  0  0  0  2  0  0  0  0  0  0
  179.8550  183.9390  136.5820 C   0  0  0  0  0  3  0  0  0  0  0  0
  181.5620  181.4920  138.4140 O   0  0  0  0  0  0  0  0  0  0  0  0
  179.2590  180.7220  138.7960 O   0  0  0  0  0  0  0  0  0  0  0  0
  180.4310  182.4720  134.6060 C   0  0  0  0  0  2  0  0  0  0  0  0
  180.1810  180.5960  136.3110 C   0  0  1  0  0  3  0  0  0  0  0  0
  180.7990  183.6770  135.4180 C   0  0  0  0  0  2  0  0  0  0  0  0
  180.1730  181.4420  137.8440 S   0  0  0  0  0  0  0  0  0  0  0  0
  180.3070  181.3920  135.3040 C   0  0  0  0  0  2  0  0  0  0  0  0
  179.5600  183.1020  137.6070 C   0  0  0  0  0  3  0  0  0  0  0  0
  1  6  1  0  0  0  0
  1 11  2  0  0  0  0
  2  5  1  0  0  0  0
  4 16  1  6  0  0  0
  5 29  1  1  0  0  0
  5  4  1  0  0  0  0
  7  4  1  0  0  0  0
  8 11  1  0  0  0  0
  8  2  1  0  0  0  0
  9 12  1  0  0  0  0
  9 13  1  0  0  0  0
 10  6  1  0  0  0  0
 10  3  1  0  0  0  0
 11  7  1  0  0  0  0
 12 31  1  6  0  0  0
 12  1  1  0  0  0  0
 13 10  2  0  0  0  0
 14  9  2  0  0  0  0
 15 17  1  0  0  0  0
 16 15  2  0  0  0  0
 17 18  1  0  0  0  0
 19 20  2  0  0  0  0
 20 26  1  0  0  0  0
 20 21  1  0  0  0  0
 21 18  1  0  0  0  0
 22 28  2  0  0  0  0
 23 28  1  0  0  0  0
 23 26  2  0  0  0  0
 24 27  1  1  0  0  0
 25 24  1  0  0  0  0
 26 24  1  0  0  0  0
 28 25  1  0  0  0  0
 30 29  1  0  0  0  0
 32 31  1  0  0  0  0
 33 34  1  0  0  0  0
 33 35  1  1  0  0  0
 33 32  1  0  0  0  0
 34 32  1  0  0  0  0
 35 41  1  0  0  0  0
 36 38  1  0  0  0  0
 37 40  2  0  0  0  0
 37 41  1  0  0  0  0
 39 36  1  0  0  0  0
 40 42  1  0  0  0  0
 41 39  2  0  0  0  0
 42 43  1  0  0  0  0
 42 36  2  0  0  0  0
 44 52  2  0  0  0  0
 47 51  1  0  0  0  0
 47 49  1  0  0  0  0
 48 43  1  1  0  0  0
 48 50  1  0  0  0  0
 49 44  1  0  0  0  0
 50 45  2  0  0  0  0
 50 46  2  0  0  0  0
 51 48  1  0  0  0  0
 52 50  1  0  0  0  0
M  END
>  <MODEL>
7

>  <REMARK>
 VINA RESULT:      -6.7      4.970     10.523
  Name = 
  12 active torsions:
  status: ('A' for Active; 'I' for Inactive)
    1  A    between atoms: N_6  and  C_19
    2  A    between atoms: C_8  and  C_21
    3  A    between atoms: C_11  and  C_47
    4  A    between atoms: C_12  and  C_15
    5  A    between atoms: C_15  and  C_45
    6  A    between atoms: C_18  and  C_29
    7  A    between atoms: C_19  and  C_41
    8  A    between atoms: C_20  and  C_21
    9  A    between atoms: C_20  and  N_30
   10  A    between atoms: C_23  and  C_25
   11  A    between atoms: N_33  and  C_34
   12  A    between atoms: N_33  and  C_49
                            x       y       z     vdW  Elec       q    Type
                         _______ _______ _______ _____ _____    ______ ____

>  <TORSDO>
F 12

$$$$
=
 OpenBabel10222420153D

 52 57  0  0  1  0  0  0  0  0999 V2000
  188.0780  177.3750  138.1500 C   0  0  0  0  0  0  0  0  0  0  0  0
  189.1890  178.9440  141.3680 C   0  0  0  0  0  2  0  0  0  0  0  0
  188.8050  175.4250  134.9090 C   0  0  0  0  0  1  0  0  0  0  0  0
  190.4770  176.8010  140.9990 C   0  0  1  0  0  3  0  0  0  0  0  0
  189.7170  177.6660  142.0140 C   0  0  1  0  0  3  0  0  0  0  0  0
  188.2420  176.1340  137.3140 C   0  0  0  0  0  2  0  0  0  0  0  0
  189.5260  176.3560  139.8840 C   0  0  0  0  0  2  0  0  0  0  0  0
  188.4060  178.6260  140.1790 N   0  0  0  0  0  2  0  0  0  0  0  0
  187.2300  178.5930  136.1820 C   0  0  0  0  0  0  0  0  0  0  0  0
  188.2730  176.4490  135.8440 C   0  0  0  0  0  0  0  0  0  0  0  0
  188.6780  177.4860  139.3460 C   0  0  0  0  0  0  0  0  0  0  0  0
  187.1260  178.4330  137.6720 C   0  0  1  0  0  3  0  0  0  0  0  0
  187.7850  177.5550  135.3650 N   0  0  0  0  0  0  0  0  0  0  0  0
  186.8240  179.6540  135.6400 O   0  0  0  0  0  0  0  0  0  0  0  0
  192.2850  177.1210  139.2860 C   0  0  0  0  0  3  0  0  0  0  0  0
  191.6830  177.4980  140.4230 C   0  0  0  0  0  3  0  0  0  0  0  0
  191.8400  175.9550  138.4500 C   0  0  0  0  0  2  0  0  0  0  0  0
  192.4910  175.9670  137.0750 C   0  0  0  0  0  2  0  0  0  0  0  0
  193.9380  173.5430  136.8660 O   0  0  0  0  0  0  0  0  0  0  0  0
  194.6020  174.5870  137.1110 C   0  0  0  0  0  0  0  0  0  0  0  0
  193.9370  175.8480  137.1980 N   0  0  0  0  0  2  0  0  0  0  0  0
  198.9410  175.1830  139.7010 S   0  0  0  0  0  0  0  0  0  0  0  0
  196.6350  174.9160  138.4690 N   0  0  0  0  0  0  0  0  0  0  0  0
  196.9710  173.9810  136.3740 C   0  0  1  0  0  3  0  0  0  0  0  0
  198.5190  174.0810  137.0210 S   0  0  0  0  0  0  0  0  0  0  0  0
  196.0610  174.4850  137.3110 C   0  0  0  0  0  0  0  0  0  0  0  0
  196.6710  173.4460  135.0170 C   0  0  0  0  0  1  0  0  0  0  0  0
  197.9750  174.7570  138.4550 C   0  0  0  0  0  0  0  0  0  0  0  0
  190.5050  177.9390  143.2940 C   0  0  0  0  0  2  0  0  0  0  0  0
  190.5370  179.3030  143.5890 O   0  0  0  0  0  1  0  0  0  0  0  0
  185.7050  178.0680  138.0900 C   0  0  0  0  0  2  0  0  0  0  0  0
  184.8300  179.2390  138.0560 N   0  0  0  0  0  0  0  0  0  0  0  0
  183.7300  179.1850  139.0140 C   0  0  2  0  0  3  0  0  0  0  0  0
  184.8880  179.8370  139.3050 O   0  0  0  0  0  0  0  0  0  0  0  0
  183.6420  177.9230  139.8820 C   0  0  0  0  0  2  0  0  0  0  0  0
  183.4430  178.6580  143.5890 C   0  0  0  0  0  0  0  0  0  0  0  0
  185.4050  178.2340  141.6430 C   0  0  0  0  0  3  0  0  0  0  0  0
  182.4780  178.8510  144.5220 F   0  0  0  0  0  0  0  0  0  0  0  0
  183.0750  178.4170  142.2620 C   0  0  0  0  0  3  0  0  0  0  0  0
  185.7730  178.4810  142.9690 C   0  0  0  0  0  3  0  0  0  0  0  0
  184.0520  178.2120  141.2860 C   0  0  0  0  0  0  0  0  0  0  0  0
  184.7960  178.6910  143.9530 C   0  0  0  0  0  0  0  0  0  0  0  0
  185.1450  178.9550  145.3220 N   0  0  0  0  0  0  0  0  0  0  0  0
  189.1640  177.8210  147.6950 C   0  0  0  0  0  3  0  0  0  0  0  0
  185.7510  177.8370  148.4740 O   0  0  0  0  0  0  0  0  0  0  0  0
  186.0680  180.2430  148.0830 O   0  0  0  0  0  0  0  0  0  0  0  0
  188.3570  177.1570  145.3940 C   0  0  0  0  0  2  0  0  0  0  0  0
  186.3670  178.6280  145.9990 C   0  0  0  0  0  0  0  0  0  0  0  0
  188.9000  176.6910  146.7120 C   0  0  0  0  0  2  0  0  0  0  0  0
  186.5500  178.8650  147.7240 S   0  0  0  0  0  0  0  0  0  0  0  0
  187.2980  177.8890  145.4960 C   0  0  0  0  0  2  0  0  0  0  0  0
  188.2740  178.7280  148.1670 C   0  0  0  0  0  3  0  0  0  0  0  0
  1 11  2  0  0  0  0
  2  5  1  0  0  0  0
  3 10  1  0  0  0  0
  4 16  1  6  0  0  0
  4  5  1  0  0  0  0
  5 29  1  1  0  0  0
  6  1  1  0  0  0  0
  7  4  1  0  0  0  0
  8  2  1  0  0  0  0
  9 12  1  0  0  0  0
 10  6  1  0  0  0  0
 11  7  1  0  0  0  0
 11  8  1  0  0  0  0
 12 31  1  6  0  0  0
 12  1  1  0  0  0  0
 13 10  2  0  0  0  0
 13  9  1  0  0  0  0
 14  9  2  0  0  0  0
 15 16  2  0  0  0  0
 17 15  1  0  0  0  0
 18 21  1  0  0  0  0
 18 17  1  0  0  0  0
 19 20  2  0  0  0  0
 20 21  1  0  0  0  0
 20 26  1  0  0  0  0
 24 27  1  6  0  0  0
 24 25  1  0  0  0  0
 24 26  1  0  0  0  0
 25 28  1  0  0  0  0
 26 23  2  0  0  0  0
 28 23  1  0  0  0  0
 28 22  2  0  0  0  0
 29 30  1  0  0  0  0
 32 31  1  0  0  0  0
 32 33  1  0  0  0  0
 32 34  1  0  0  0  0
 33 34  1  0  0  0  0
 33 35  1  1  0  0  0
 35 41  1  0  0  0  0
 36 42  1  0  0  0  0
 36 38  1  0  0  0  0
 37 40  1  0  0  0  0
 39 36  2  0  0  0  0
 40 42  2  0  0  0  0
 41 37  2  0  0  0  0
 41 39  1  0  0  0  0
 42 43  1  0  0  0  0
 43 48  2  0  0  0  0
 44 52  2  0  0  0  0
 47 51  1  0  0  0  0
 47 49  1  0  0  0  0
 48 50  1  0  0  0  0
 49 44  1  0  0  0  0
 50 46  2  0  0  0  0
 50 52  1  0  0  0  0
 50 45  2  0  0  0  0
 51 48  1  0  0  0  0
M  END
>  <MODEL>
8

>  <REMARK>
 VINA RESULT:      -6.6      4.158     12.311
  Name = 
  12 active torsions:
  status: ('A' for Active; 'I' for Inactive)
    1  A    between atoms: N_6  and  C_19
    2  A    between atoms: C_8  and  C_21
    3  A    between atoms: C_11  and  C_47
    4  A    between atoms: C_12  and  C_15
    5  A    between atoms: C_15  and  C_45
    6  A    between atoms: C_18  and  C_29
    7  A    between atoms: C_19  and  C_41
    8  A    between atoms: C_20  and  C_21
    9  A    between atoms: C_20  and  N_30
   10  A    between atoms: C_23  and  C_25
   11  A    between atoms: N_33  and  C_34
   12  A    between atoms: N_33  and  C_49
                            x       y       z     vdW  Elec       q    Type
                         _______ _______ _______ _____ _____    ______ ____

>  <TORSDO>
F 12

$$$$
=
 OpenBabel10222420153D

 52 57  0  0  1  0  0  0  0  0999 V2000
  187.2110  175.2710  136.3100 C   0  0  0  0  0  0  0  0  0  0  0  0
  188.8520  172.3710  134.5940 C   0  0  0  0  0  2  0  0  0  0  0  0
  184.0860  177.0880  137.6400 C   0  0  0  0  0  1  0  0  0  0  0  0
  186.9470  171.5230  136.0220 C   0  0  1  0  0  3  0  0  0  0  0  0
  188.4020  171.3010  135.5850 C   0  0  1  0  0  3  0  0  0  0  0  0
  186.1630  175.6060  137.3380 C   0  0  0  0  0  2  0  0  0  0  0  0
  186.8250  172.8630  136.7520 C   0  0  0  0  0  2  0  0  0  0  0  0
  188.6080  173.7020  135.1380 N   0  0  0  0  0  2  0  0  0  0  0  0
  187.0920  177.5720  135.4340 C   0  0  0  0  0  0  0  0  0  0  0  0
  185.3830  176.8350  136.9630 C   0  0  0  0  0  0  0  0  0  0  0  0
  187.5200  173.9950  136.0290 C   0  0  0  0  0  0  0  0  0  0  0  0
  187.9910  176.3980  135.6980 C   0  0  1  0  0  3  0  0  0  0  0  0
  185.8420  177.7130  136.1210 N   0  0  0  0  0  0  0  0  0  0  0  0
  187.4390  178.4460  134.5980 O   0  0  0  0  0  0  0  0  0  0  0  0
  184.6620  171.2290  135.0250 C   0  0  0  0  0  3  0  0  0  0  0  0
  185.9740  171.4530  134.8730 C   0  0  0  0  0  3  0  0  0  0  0  0
  183.9980  171.0130  136.3560 C   0  0  0  0  0  2  0  0  0  0  0  0
  182.4810  171.0570  136.2420 C   0  0  0  0  0  2  0  0  0  0  0  0
  180.4490  171.6970  138.1060 O   0  0  0  0  0  0  0  0  0  0  0  0
  180.9420  172.6520  137.4470 C   0  0  0  0  0  0  0  0  0  0  0  0
  181.9930  172.4020  136.5120 N   0  0  0  0  0  2  0  0  0  0  0  0
  180.1230  176.9200  140.0930 S   0  0  0  0  0  0  0  0  0  0  0  0
  180.6210  174.6730  138.8240 N   0  0  0  0  0  0  0  0  0  0  0  0
  179.6750  174.7430  136.7090 C   0  0  1  0  0  3  0  0  0  0  0  0
  179.2730  176.2320  137.3760 S   0  0  0  0  0  0  0  0  0  0  0  0
  180.4180  174.0170  137.6480 C   0  0  0  0  0  0  0  0  0  0  0  0
  179.2720  174.3100  135.3410 C   0  0  0  0  0  1  0  0  0  0  0  0
  180.0530  175.8970  138.8220 C   0  0  0  0  0  0  0  0  0  0  0  0
  188.6810  169.8850  135.0860 C   0  0  0  0  0  2  0  0  0  0  0  0
  190.0260  169.7180  134.7550 O   0  0  0  0  0  1  0  0  0  0  0  0
  189.1440  176.7820  136.6220 C   0  0  0  0  0  2  0  0  0  0  0  0
  189.8260  175.5920  137.1300 N   0  0  0  0  0  0  0  0  0  0  0  0
  190.6390  175.8380  138.3170 C   0  0  2  0  0  3  0  0  0  0  0  0
  189.3660  175.3690  138.4180 O   0  0  0  0  0  0  0  0  0  0  0  0
  190.6750  177.2830  138.8330 C   0  0  0  0  0  2  0  0  0  0  0  0
  187.8860  178.2930  141.1810 C   0  0  0  0  0  0  0  0  0  0  0  0
  190.2380  176.7860  141.2560 C   0  0  0  0  0  3  0  0  0  0  0  0
  186.7410  179.0200  141.1250 F   0  0  0  0  0  0  0  0  0  0  0  0
  188.6790  178.1730  140.0360 C   0  0  0  0  0  3  0  0  0  0  0  0
  189.4490  176.9110  142.4020 C   0  0  0  0  0  3  0  0  0  0  0  0
  189.8580  177.4280  140.0720 C   0  0  0  0  0  0  0  0  0  0  0  0
  188.2640  177.6630  142.3740 C   0  0  0  0  0  0  0  0  0  0  0  0
  187.4360  177.8140  143.5390 N   0  0  0  0  0  0  0  0  0  0  0  0
  188.7250  178.2070  148.1500 C   0  0  0  0  0  3  0  0  0  0  0  0
  186.0140  176.7860  146.4490 O   0  0  0  0  0  0  0  0  0  0  0  0
  185.6660  179.1400  145.8290 O   0  0  0  0  0  0  0  0  0  0  0  0
  190.0360  177.4620  146.1220 C   0  0  0  0  0  2  0  0  0  0  0  0
  187.8530  177.9540  144.9050 C   0  0  0  0  0  0  0  0  0  0  0  0
  189.6250  177.1490  147.5300 C   0  0  0  0  0  2  0  0  0  0  0  0
  186.6910  178.1060  146.2060 S   0  0  0  0  0  0  0  0  0  0  0  0
  189.0440  177.6950  145.3290 C   0  0  0  0  0  2  0  0  0  0  0  0
  187.5230  178.6380  147.6920 C   0  0  0  0  0  3  0  0  0  0  0  0
  1  6  1  0  0  0  0
  2  8  1  0  0  0  0
  2  5  1  0  0  0  0
  4 16  1  6  0  0  0
  4  7  1  0  0  0  0
  5 29  1  6  0  0  0
  5  4  1  0  0  0  0
  8 11  1  0  0  0  0
  9 12  1  0  0  0  0
  9 13  1  0  0  0  0
 10  6  1  0  0  0  0
 10  3  1  0  0  0  0
 11  1  2  0  0  0  0
 11  7  1  0  0  0  0
 12  1  1  0  0  0  0
 12 31  1  1  0  0  0
 13 10  2  0  0  0  0
 14  9  2  0  0  0  0
 15 17  1  0  0  0  0
 16 15  2  0  0  0  0
 18 17  1  0  0  0  0
 18 21  1  0  0  0  0
 20 26  1  0  0  0  0
 20 19  2  0  0  0  0
 21 20  1  0  0  0  0
 24 27  1  1  0  0  0
 24 25  1  0  0  0  0
 24 26  1  0  0  0  0
 25 28  1  0  0  0  0
 26 23  2  0  0  0  0
 28 23  1  0  0  0  0
 28 22  2  0  0  0  0
 30 29  1  0  0  0  0
 31 32  1  0  0  0  0
 32 33  1  0  0  0  0
 32 34  1  0  0  0  0
 33 34  1  0  0  0  0
 33 35  1  1  0  0  0
 35 41  1  0  0  0  0
 36 42  1  0  0  0  0
 37 40  1  0  0  0  0
 38 36  1  0  0  0  0
 39 41  1  0  0  0  0
 39 36  2  0  0  0  0
 41 37  2  0  0  0  0
 42 40  2  0  0  0  0
 42 43  1  0  0  0  0
 43 48  2  0  0  0  0
 46 50  2  0  0  0  0
 47 49  1  0  0  0  0
 48 51  1  0  0  0  0
 48 50  1  0  0  0  0
 49 44  1  0  0  0  0
 50 45  2  0  0  0  0
 50 52  1  0  0  0  0
 51 47  1  0  0  0  0
 52 44  2  0  0  0  0
M  END
>  <MODEL>
9

>  <REMARK>
 VINA RESULT:      -6.5      4.836      9.727
  Name = 
  12 active torsions:
  status: ('A' for Active; 'I' for Inactive)
    1  A    between atoms: N_6  and  C_19
    2  A    between atoms: C_8  and  C_21
    3  A    between atoms: C_11  and  C_47
    4  A    between atoms: C_12  and  C_15
    5  A    between atoms: C_15  and  C_45
    6  A    between atoms: C_18  and  C_29
    7  A    between atoms: C_19  and  C_41
    8  A    between atoms: C_20  and  C_21
    9  A    between atoms: C_20  and  N_30
   10  A    between atoms: C_23  and  C_25
   11  A    between atoms: N_33  and  C_34
   12  A    between atoms: N_33  and  C_49
                            x       y       z     vdW  Elec       q    Type
                         _______ _______ _______ _____ _____    ______ ____

>  <TORSDO>
F 12

$$$$
