=
 OpenBabel10222420293D

 63 69  0  0  1  0  0  0  0  0999 V2000
  186.0840  177.8540  139.2400 C   0  0  2  0  0  3  0  0  0  0  0  0
  188.2780  176.8050  138.5030 C   0  0  0  0  0  2  0  0  0  0  0  0
  189.0130  178.6560  137.3440 C   0  0  0  0  0  2  0  0  0  0  0  0
  188.0570  179.1880  138.3960 C   0  0  0  0  0  2  0  0  0  0  0  0
  187.6300  177.9750  139.2210 C   0  0  1  0  0  0  0  0  0  0  0  0
  189.4370  177.3420  137.7930 N   0  0  0  0  0  0  0  0  0  0  0  0
  188.5500  176.8900  141.3560 N   0  0  0  0  0  2  0  0  0  0  0  0
  188.1910  178.0700  140.6230 C   0  0  0  0  0  0  0  0  0  0  0  0
  188.3280  179.1970  141.1710 O   0  0  0  0  0  0  0  0  0  0  0  0
  189.0300  176.9740  142.6210 O   0  0  0  0  0  0  0  0  0  0  0  0
  189.7020  175.7670  142.8380 C   0  0  0  0  0  1  0  0  0  0  0  0
  189.0580  175.2230  136.4570 C   0  0  0  0  0  1  0  0  0  0  0  0
  189.8350  176.5290  136.6310 C   0  0  2  0  0  3  0  0  0  0  0  0
  194.3460  172.6590  135.9700 C   0  0  0  0  0  2  0  0  0  0  0  0
  195.2370  175.1730  135.8980 O   0  0  0  0  0  1  0  0  0  0  0  0
  191.3490  176.3060  136.5840 C   0  0  1  0  0  3  0  0  0  0  0  0
  192.5060  174.0430  136.9720 C   0  0  2  0  0  3  0  0  0  0  0  0
  191.8900  176.3450  137.9410 N   0  0  1  0  0  0  0  0  0  0  0  0
  192.9060  172.6580  136.4680 C   0  0  0  0  0  2  0  0  0  0  0  0
  195.2060  173.1240  136.9870 O   0  0  0  0  0  0  0  0  0  0  0  0
  193.3320  176.3250  137.5790 C   0  0  2  0  0  3  0  0  0  0  0  0
  191.7080  174.9090  135.9540 C   0  0  0  0  0  2  0  0  0  0  0  0
  193.6390  174.8320  137.7190 C   0  0  2  0  0  3  0  0  0  0  0  0
  195.0210  174.5160  137.1170 C   0  0  2  0  0  3  0  0  0  0  0  0
  192.7960  177.3870  138.4270 C   0  0  2  0  0  3  0  0  0  0  0  0
  192.2240  177.1940  140.8520 O   0  0  0  0  0  1  0  0  0  0  0  0
  193.1860  177.1300  139.8510 C   0  0  0  0  0  0  0  0  0  0  0  0
  194.3770  176.8380  140.1510 O   0  0  0  0  0  0  0  0  0  0  0  0
  185.3950  178.1480  137.8870 C   0  0  1  0  0  3  0  0  0  0  0  0
  185.4170  176.8900  137.0590 C   0  0  0  0  0  3  0  0  0  0  0  0
  185.9030  176.8120  135.8650 N   0  0  0  0  0  0  0  0  0  0  0  0
  186.4810  177.9320  135.1730 C   0  0  0  0  0  1  0  0  0  0  0  0
  183.9670  178.6850  138.0380 C   0  0  0  0  0  2  0  0  0  0  0  0
  182.9460  177.8120  137.3280 C   0  0  0  0  0  2  0  0  0  0  0  0
  181.6070  178.3030  135.3050 C   0  0  0  0  0  1  0  0  0  0  0  0
  181.7980  178.6390  136.7750 C   0  0  1  0  0  3  0  0  0  0  0  0
  180.5080  177.0100  137.9720 O   0  0  0  0  0  1  0  0  0  0  0  0
  180.5130  178.3340  137.5270 C   0  0  0  0  0  2  0  0  0  0  0  0
  185.4380  178.5840  140.4250 C   0  0  0  0  0  2  0  0  0  0  0  0
  181.0830  179.4860  142.5550 C   0  0  0  0  0  3  0  0  0  0  0  0
  183.3540  178.1760  141.6380 C   0  0  0  0  0  0  0  0  0  0  0  0
  183.3230  178.6970  142.9040 C   0  0  0  0  0  0  0  0  0  0  0  0
  184.5540  178.4890  143.5670 N   0  0  0  0  0  0  0  0  0  0  0  0
  184.7060  177.6150  141.3380 C   0  0  2  0  0  3  0  0  0  0  0  0
  182.2050  179.3720  143.3950 C   0  0  0  0  0  3  0  0  0  0  0  0
  185.4010  177.6510  142.7190 C   0  0  0  0  0  2  0  0  0  0  0  0
  181.1110  178.9510  141.2510 C   0  0  0  0  0  3  0  0  0  0  0  0
  182.2600  178.2950  140.7770 C   0  0  0  0  0  3  0  0  0  0  0  0
  184.9880  179.1880  144.7690 C   0  0  0  0  0  2  0  0  0  0  0  0
  186.4440  178.8230  145.0790 C   0  0  0  0  0  2  0  0  0  0  0  0
  186.5260  177.6200  145.7920 O   0  0  0  0  0  0  0  0  0  0  0  0
  186.4700  177.9480  147.1580 C   0  0  2  0  0  3  0  0  0  0  0  0
  186.3700  179.4610  147.3440 C   0  0  0  0  0  1  0  0  0  0  0  0
  188.0860  178.3300  148.8810 O   0  0  0  0  0  1  0  0  0  0  0  0
  187.7250  177.4330  147.8670 C   0  0  2  0  0  3  0  0  0  0  0  0
  191.5250  177.7270  145.2640 C   0  0  0  0  0  3  0  0  0  0  0  0
  191.1440  176.0470  147.0870 C   0  0  0  0  0  0  0  0  0  0  0  0
  189.8750  176.2740  147.4700 C   0  0  0  0  0  3  0  0  0  0  0  0
  188.8800  177.2180  146.8780 C   0  0  2  0  0  3  0  0  0  0  0  0
  190.1710  178.3450  145.1560 C   0  0  0  0  0  2  0  0  0  0  0  0
  189.5290  178.5370  146.5100 C   0  0  0  0  0  2  0  0  0  0  0  0
  191.8680  176.7610  146.0650 N   0  0  0  0  0  0  0  0  0  0  0  0
  191.8250  175.0900  147.7650 F   0  0  0  0  0  0  0  0  0  0  0  0
  1 39  1  1  0  0  0
  2  5  1  0  0  0  0
  3  6  1  0  0  0  0
  3  4  1  0  0  0  0
  4  5  1  0  0  0  0
  5  1  1  0  0  0  0
  5  8  1  1  0  0  0
  6  2  1  0  0  0  0
  7 10  1  0  0  0  0
  8  9  2  0  0  0  0
  8  7  1  0  0  0  0
 10 11  1  0  0  0  0
 13 12  1  1  0  0  0
 13  6  1  0  0  0  0
 14 19  1  0  0  0  0
 14 20  1  0  0  0  0
 15 24  1  0  0  0  0
 16 13  1  1  0  0  0
 16 18  1  0  0  0  0
 17 22  1  6  0  0  0
 17 23  1  0  0  0  0
 18 25  1  0  0  0  0
 19 17  1  0  0  0  0
 20 24  1  0  0  0  0
 21 23  1  0  0  0  0
 21 18  1  0  0  0  0
 21 25  1  0  0  0  0
 22 16  1  0  0  0  0
 24 23  1  0  0  0  0
 25 27  1  0  0  0  0
 27 28  2  0  0  0  0
 27 26  1  0  0  0  0
 29 33  1  0  0  0  0
 29  1  1  0  0  0  0
 30 29  1  0  0  0  0
 31 30  2  0  0  0  0
 32 31  1  0  0  0  0
 34 33  1  0  0  0  0
 35 36  1  0  0  0  0
 36 34  1  0  0  0  0
 36 38  1  0  0  0  0
 38 37  1  0  0  0  0
 39 44  1  0  0  0  0
 40 45  1  0  0  0  0
 41 42  1  0  0  0  0
 42 45  2  0  0  0  0
 42 43  1  0  0  0  0
 43 49  1  0  0  0  0
 44 41  1  0  0  0  0
 44 46  1  0  0  0  0
 46 43  1  0  0  0  0
 47 40  2  0  0  0  0
 48 47  1  0  0  0  0
 48 41  2  0  0  0  0
 49 50  1  0  0  0  0
 50 51  1  0  0  0  0
 51 52  1  0  0  0  0
 52 53  1  0  0  0  0
 52 55  1  0  0  0  0
 55 54  1  0  0  0  0
 56 62  2  0  0  0  0
 57 58  2  0  0  0  0
 57 63  1  0  0  0  0
 59 58  1  0  0  0  0
 59 55  1  0  0  0  0
 60 56  1  0  0  0  0
 60 61  1  0  0  0  0
 61 59  1  0  0  0  0
 62 57  1  0  0  0  0
M  END
>  <MODEL>
1

>  <REMARK>
 VINA RESULT:      -6.5      0.000      0.000
  Name = 
  20 active torsions:
  status: ('A' for Active; 'I' for Inactive)
    1  A    between atoms: C_2  and  O_14
    2  A    between atoms: C_2  and  C_27
    3  A    between atoms: C_5  and  C_35
    4  A    between atoms: C_5  and  C_41
    5  A    between atoms: C_8  and  O_14
    6  A    between atoms: C_8  and  C_23
    7  A    between atoms: O_9  and  N_22
    8  A    between atoms: C_10  and  C_41
    9  A    between atoms: C_20  and  C_62
   10  A    between atoms: C_23  and  C_45
   11  A    between atoms: C_26  and  C_35
   12  A    between atoms: C_26  and  C_46
   13  A    between atoms: C_27  and  N_37
   14  A    between atoms: C_33  and  C_59
   15  A    between atoms: C_36  and  C_43
   16  A    between atoms: C_36  and  C_61
   17  A    between atoms: C_38  and  C_60
   18  A    between atoms: C_41  and  C_61
   19  A    between atoms: N_57  and  C_62
   20  A    between atoms: C_60  and  C_61
                            x       y       z     vdW  Elec       q    Type
                         _______ _______ _______ _____ _____    ______ ____

>  <TORSDO>
F 20

$$$$
=
 OpenBabel10222420293D

 63 69  0  0  1  0  0  0  0  0999 V2000
  182.5030  177.6270  139.2460 C   0  0  2  0  0  3  0  0  0  0  0  0
  184.0970  176.9570  137.3840 C   0  0  0  0  0  2  0  0  0  0  0  0
  183.0920  178.2610  135.7730 C   0  0  0  0  0  2  0  0  0  0  0  0
  182.7660  178.9280  137.0970 C   0  0  0  0  0  2  0  0  0  0  0  0
  183.4990  178.1150  138.1620 C   0  0  1  0  0  0  0  0  0  0  0  0
  184.2500  177.4160  136.0040 N   0  0  0  0  0  0  0  0  0  0  0  0
  185.8300  178.3110  139.2130 N   0  0  0  0  0  2  0  0  0  0  0  0
  184.6160  178.9330  138.7720 C   0  0  0  0  0  0  0  0  0  0  0  0
  184.4770  180.1780  138.9160 O   0  0  0  0  0  0  0  0  0  0  0  0
  186.8210  179.0410  139.7820 O   0  0  0  0  0  0  0  0  0  0  0  0
  186.8700  178.6180  141.1140 C   0  0  0  0  0  1  0  0  0  0  0  0
  183.1510  175.2810  135.1970 C   0  0  0  0  0  1  0  0  0  0  0  0
  184.2620  176.3170  135.0250 C   0  0  2  0  0  3  0  0  0  0  0  0
  187.7680  171.6760  136.4150 C   0  0  0  0  0  2  0  0  0  0  0  0
  188.9400  173.2350  134.5940 O   0  0  0  0  0  1  0  0  0  0  0  0
  185.6440  175.6640  134.9190 C   0  0  1  0  0  3  0  0  0  0  0  0
  186.5330  173.8600  136.5200 C   0  0  2  0  0  3  0  0  0  0  0  0
  186.5710  176.3370  135.8270 N   0  0  1  0  0  0  0  0  0  0  0  0
  186.5620  172.4070  136.9910 C   0  0  0  0  0  2  0  0  0  0  0  0
  188.9520  172.3670  136.7460 O   0  0  0  0  0  0  0  0  0  0  0  0
  187.8170  175.6700  135.3650 C   0  0  2  0  0  3  0  0  0  0  0  0
  185.5940  174.1400  135.3110 C   0  0  0  0  0  2  0  0  0  0  0  0
  187.9380  174.5480  136.4000 C   0  0  2  0  0  3  0  0  0  0  0  0
  189.0130  173.5370  135.9620 C   0  0  2  0  0  3  0  0  0  0  0  0
  187.7190  177.1270  135.3800 C   0  0  2  0  0  3  0  0  0  0  0  0
  188.3820  177.0370  137.7880 O   0  0  0  0  0  1  0  0  0  0  0  0
  188.4820  177.6650  136.5530 C   0  0  0  0  0  0  0  0  0  0  0  0
  189.2290  178.6750  136.4270 O   0  0  0  0  0  0  0  0  0  0  0  0
  181.1010  177.2460  138.7120 C   0  0  1  0  0  3  0  0  0  0  0  0
  180.7330  175.8950  139.2670 C   0  0  0  0  0  3  0  0  0  0  0  0
  180.5810  174.8300  138.5510 N   0  0  0  0  0  0  0  0  0  0  0  0
  180.7410  174.8100  137.1220 C   0  0  0  0  0  1  0  0  0  0  0  0
  180.0250  178.2880  139.0380 C   0  0  0  0  0  2  0  0  0  0  0  0
  179.6340  179.1100  137.8210 C   0  0  0  0  0  2  0  0  0  0  0  0
  180.3060  181.0980  139.1340 C   0  0  0  0  0  1  0  0  0  0  0  0
  179.2420  180.5250  138.2110 C   0  0  1  0  0  3  0  0  0  0  0  0
  180.2840  182.1710  136.8120 O   0  0  0  0  0  1  0  0  0  0  0  0
  179.1280  181.4040  136.9770 C   0  0  0  0  0  2  0  0  0  0  0  0
  182.4590  178.5390  140.4790 C   0  0  0  0  0  2  0  0  0  0  0  0
  179.3820  179.4330  144.2260 C   0  0  0  0  0  3  0  0  0  0  0  0
  181.2370  178.1980  142.5690 C   0  0  0  0  0  0  0  0  0  0  0  0
  181.6580  178.9860  143.6070 C   0  0  0  0  0  0  0  0  0  0  0  0
  183.0690  179.0650  143.6420 N   0  0  0  0  0  0  0  0  0  0  0  0
  182.4060  177.7300  141.7630 C   0  0  2  0  0  3  0  0  0  0  0  0
  180.7560  179.6320  144.4530 C   0  0  0  0  0  3  0  0  0  0  0  0
  183.6100  178.1510  142.6370 C   0  0  0  0  0  2  0  0  0  0  0  0
  178.9460  178.6230  143.1580 C   0  0  0  0  0  3  0  0  0  0  0  0
  179.8790  178.0020  142.3110 C   0  0  0  0  0  3  0  0  0  0  0  0
  183.8350  180.0600  144.3810 C   0  0  0  0  0  2  0  0  0  0  0  0
  185.3080  179.6410  144.4320 C   0  0  0  0  0  2  0  0  0  0  0  0
  185.7600  179.5340  145.7540 O   0  0  0  0  0  0  0  0  0  0  0  0
  185.8030  178.1630  146.0630 C   0  0  2  0  0  3  0  0  0  0  0  0
  184.5740  177.7560  146.8740 C   0  0  0  0  0  1  0  0  0  0  0  0
  187.2350  178.8270  147.8620 O   0  0  0  0  0  1  0  0  0  0  0  0
  187.0670  177.8530  146.8700 C   0  0  2  0  0  3  0  0  0  0  0  0
  191.0250  176.7540  144.7650 C   0  0  0  0  0  3  0  0  0  0  0  0
  188.7420  176.5720  143.7440 C   0  0  0  0  0  0  0  0  0  0  0  0
  187.9320  177.1050  144.6750 C   0  0  0  0  0  3  0  0  0  0  0  0
  188.3030  177.7630  145.9630 C   0  0  2  0  0  3  0  0  0  0  0  0
  190.7170  177.4910  146.0260 C   0  0  0  0  0  2  0  0  0  0  0  0
  189.4270  177.0170  146.6540 C   0  0  0  0  0  2  0  0  0  0  0  0
  190.1720  176.4190  143.8410 N   0  0  0  0  0  0  0  0  0  0  0  0
  188.1490  176.0780  142.6280 F   0  0  0  0  0  0  0  0  0  0  0  0
  1 39  1  1  0  0  0
  2  5  1  0  0  0  0
  3  6  1  0  0  0  0
  3  4  1  0  0  0  0
  4  5  1  0  0  0  0
  5  8  1  1  0  0  0
  5  1  1  0  0  0  0
  6  2  1  0  0  0  0
  7 10  1  0  0  0  0
  8  9  2  0  0  0  0
  8  7  1  0  0  0  0
 10 11  1  0  0  0  0
 13 12  1  1  0  0  0
 13  6  1  0  0  0  0
 14 20  1  0  0  0  0
 14 19  1  0  0  0  0
 15 24  1  0  0  0  0
 16 13  1  1  0  0  0
 16 22  1  0  0  0  0
 16 18  1  0  0  0  0
 17 22  1  6  0  0  0
 17 19  1  0  0  0  0
 21 25  1  0  0  0  0
 21 18  1  0  0  0  0
 21 23  1  0  0  0  0
 23 17  1  0  0  0  0
 24 23  1  0  0  0  0
 24 20  1  0  0  0  0
 25 18  1  0  0  0  0
 25 27  1  0  0  0  0
 27 26  1  0  0  0  0
 28 27  2  0  0  0  0
 29 33  1  0  0  0  0
 29  1  1  0  0  0  0
 29 30  1  0  0  0  0
 31 30  2  0  0  0  0
 32 31  1  0  0  0  0
 34 36  1  0  0  0  0
 34 33  1  0  0  0  0
 36 35  1  0  0  0  0
 37 38  1  0  0  0  0
 38 36  1  0  0  0  0
 39 44  1  0  0  0  0
 40 45  1  0  0  0  0
 41 42  1  0  0  0  0
 42 43  1  0  0  0  0
 42 45  2  0  0  0  0
 43 49  1  0  0  0  0
 44 41  1  0  0  0  0
 44 46  1  0  0  0  0
 46 43  1  0  0  0  0
 47 40  2  0  0  0  0
 48 41  2  0  0  0  0
 48 47  1  0  0  0  0
 49 50  1  0  0  0  0
 50 51  1  0  0  0  0
 51 52  1  0  0  0  0
 52 55  1  0  0  0  0
 52 53  1  0  0  0  0
 55 54  1  0  0  0  0
 56 60  1  0  0  0  0
 57 62  1  0  0  0  0
 57 58  2  0  0  0  0
 58 59  1  0  0  0  0
 59 61  1  0  0  0  0
 59 55  1  0  0  0  0
 60 61  1  0  0  0  0
 62 56  2  0  0  0  0
 63 57  1  0  0  0  0
M  END
>  <MODEL>
2

>  <REMARK>
 VINA RESULT:      -5.9      3.107      4.477
  Name = 
  20 active torsions:
  status: ('A' for Active; 'I' for Inactive)
    1  A    between atoms: C_2  and  O_14
    2  A    between atoms: C_2  and  C_27
    3  A    between atoms: C_5  and  C_35
    4  A    between atoms: C_5  and  C_41
    5  A    between atoms: C_8  and  O_14
    6  A    between atoms: C_8  and  C_23
    7  A    between atoms: O_9  and  N_22
    8  A    between atoms: C_10  and  C_41
    9  A    between atoms: C_20  and  C_62
   10  A    between atoms: C_23  and  C_45
   11  A    between atoms: C_26  and  C_35
   12  A    between atoms: C_26  and  C_46
   13  A    between atoms: C_27  and  N_37
   14  A    between atoms: C_33  and  C_59
   15  A    between atoms: C_36  and  C_43
   16  A    between atoms: C_36  and  C_61
   17  A    between atoms: C_38  and  C_60
   18  A    between atoms: C_41  and  C_61
   19  A    between atoms: N_57  and  C_62
   20  A    between atoms: C_60  and  C_61
                            x       y       z     vdW  Elec       q    Type
                         _______ _______ _______ _____ _____    ______ ____

>  <TORSDO>
F 20

$$$$
=
 OpenBabel10222420293D

 63 69  0  0  1  0  0  0  0  0999 V2000
  185.1250  177.0970  137.2360 C   0  0  2  0  0  3  0  0  0  0  0  0
  186.8490  177.5270  139.0520 C   0  0  0  0  0  2  0  0  0  0  0  0
  188.1430  178.9440  137.7770 C   0  0  0  0  0  2  0  0  0  0  0  0
  186.7440  179.0350  137.1940 C   0  0  0  0  0  2  0  0  0  0  0  0
  185.8650  178.1610  138.0860 C   0  0  1  0  0  0  0  0  0  0  0  0
  188.0000  178.4260  139.1250 N   0  0  0  0  0  0  0  0  0  0  0  0
  184.3400  178.5680  140.1090 N   0  0  0  0  0  2  0  0  0  0  0  0
  184.8890  179.0190  138.8630 C   0  0  0  0  0  0  0  0  0  0  0  0
  184.5340  180.1390  138.4050 O   0  0  0  0  0  0  0  0  0  0  0  0
  183.4480  179.3250  140.7930 O   0  0  0  0  0  0  0  0  0  0  0  0
  182.3860  178.4640  141.0870 C   0  0  0  0  0  1  0  0  0  0  0  0
  189.3120  176.2600  139.1760 C   0  0  0  0  0  1  0  0  0  0  0  0
  189.2430  177.7470  139.5270 C   0  0  2  0  0  3  0  0  0  0  0  0
  191.9030  175.7830  144.5100 C   0  0  0  0  0  2  0  0  0  0  0  0
  191.1830  178.3390  144.7660 O   0  0  0  0  0  1  0  0  0  0  0  0
  189.5840  178.0060  140.9970 C   0  0  1  0  0  3  0  0  0  0  0  0
  190.2140  176.1800  142.6950 C   0  0  2  0  0  3  0  0  0  0  0  0
  188.3970  177.7770  141.8200 N   0  0  1  0  0  0  0  0  0  0  0  0
  191.2400  175.2030  143.2670 C   0  0  0  0  0  2  0  0  0  0  0  0
  190.9200  176.1390  145.4570 O   0  0  0  0  0  0  0  0  0  0  0  0
  188.9440  178.2960  143.1010 C   0  0  2  0  0  3  0  0  0  0  0  0
  190.7230  177.0440  141.5040 C   0  0  0  0  0  2  0  0  0  0  0  0
  189.4020  176.9930  143.7630 C   0  0  2  0  0  3  0  0  0  0  0  0
  190.2680  177.3020  144.9980 C   0  0  2  0  0  3  0  0  0  0  0  0
  187.7010  178.8340  142.5550 C   0  0  2  0  0  3  0  0  0  0  0  0
  186.2130  178.7950  144.5620 O   0  0  0  0  0  1  0  0  0  0  0  0
  186.5390  178.2730  143.3170 C   0  0  0  0  0  0  0  0  0  0  0  0
  185.8410  177.3380  142.8330 O   0  0  0  0  0  0  0  0  0  0  0  0
  183.6180  176.9470  137.5540 C   0  0  1  0  0  3  0  0  0  0  0  0
  182.8310  177.5480  136.4200 C   0  0  0  0  0  3  0  0  0  0  0  0
  182.4120  176.8860  135.3920 N   0  0  0  0  0  0  0  0  0  0  0  0
  182.6570  175.4820  135.2040 C   0  0  0  0  0  1  0  0  0  0  0  0
  183.1950  175.4970  137.8130 C   0  0  0  0  0  2  0  0  0  0  0  0
  182.1490  175.3900  138.9100 C   0  0  0  0  0  2  0  0  0  0  0  0
  180.3950  173.8960  138.0030 C   0  0  0  0  0  1  0  0  0  0  0  0
  180.7440  175.3390  138.3330 C   0  0  1  0  0  3  0  0  0  0  0  0
  179.6040  177.2610  139.2020 O   0  0  0  0  0  1  0  0  0  0  0  0
  179.7380  175.8770  139.3370 C   0  0  0  0  0  2  0  0  0  0  0  0
  185.8700  175.7570  137.1660 C   0  0  0  0  0  2  0  0  0  0  0  0
  186.7050  171.1880  135.5120 C   0  0  0  0  0  3  0  0  0  0  0  0
  186.2480  173.9260  135.5900 C   0  0  0  0  0  0  0  0  0  0  0  0
  187.5290  173.4410  135.5800 C   0  0  0  0  0  0  0  0  0  0  0  0
  188.4680  174.4960  135.6450 N   0  0  0  0  0  0  0  0  0  0  0  0
  186.2540  175.4140  135.7370 C   0  0  2  0  0  3  0  0  0  0  0  0
  187.7970  172.0730  135.5540 C   0  0  0  0  0  3  0  0  0  0  0  0
  187.7490  175.7650  135.5530 C   0  0  0  0  0  2  0  0  0  0  0  0
  185.3850  171.6840  135.5230 C   0  0  0  0  0  3  0  0  0  0  0  0
  185.1470  173.0670  135.5710 C   0  0  0  0  0  3  0  0  0  0  0  0
  189.8750  174.3440  135.9890 C   0  0  0  0  0  2  0  0  0  0  0  0
  190.5650  175.7120  135.9510 C   0  0  0  0  0  2  0  0  0  0  0  0
  191.8580  175.6150  135.4180 O   0  0  0  0  0  0  0  0  0  0  0  0
  192.7290  175.3780  136.4970 C   0  0  2  0  0  3  0  0  0  0  0  0
  192.7200  176.5590  137.4650 C   0  0  0  0  0  1  0  0  0  0  0  0
  194.1870  175.4230  134.6000 O   0  0  0  0  0  1  0  0  0  0  0  0
  194.1520  175.1630  135.9760 C   0  0  2  0  0  3  0  0  0  0  0  0
  195.3020  171.1200  137.8840 C   0  0  0  0  0  3  0  0  0  0  0  0
  193.5600  171.4410  136.1080 C   0  0  0  0  0  0  0  0  0  0  0  0
  193.6630  172.7440  135.7920 C   0  0  0  0  0  3  0  0  0  0  0  0
  194.6550  173.7450  136.2860 C   0  0  2  0  0  3  0  0  0  0  0  0
  195.9330  172.4730  137.9140 C   0  0  0  0  0  2  0  0  0  0  0  0
  194.9110  173.5750  137.7700 C   0  0  0  0  0  2  0  0  0  0  0  0
  194.3370  170.7390  137.0990 N   0  0  0  0  0  0  0  0  0  0  0  0
  192.5930  170.7320  135.4730 F   0  0  0  0  0  0  0  0  0  0  0  0
  1 39  1  1  0  0  0
  1 29  1  0  0  0  0
  1  5  1  0  0  0  0
  2  6  1  0  0  0  0
  3  6  1  0  0  0  0
  4  3  1  0  0  0  0
  4  5  1  0  0  0  0
  5  8  1  1  0  0  0
  5  2  1  0  0  0  0
  6 13  1  0  0  0  0
  7 10  1  0  0  0  0
  8  7  1  0  0  0  0
  9  8  2  0  0  0  0
 10 11  1  0  0  0  0
 13 12  1  1  0  0  0
 14 20  1  0  0  0  0
 15 24  1  0  0  0  0
 16 13  1  6  0  0  0
 16 22  1  0  0  0  0
 16 18  1  0  0  0  0
 17 22  1  6  0  0  0
 17 19  1  0  0  0  0
 17 23  1  0  0  0  0
 18 25  1  0  0  0  0
 18 21  1  0  0  0  0
 19 14  1  0  0  0  0
 21 23  1  0  0  0  0
 23 24  1  0  0  0  0
 24 20  1  0  0  0  0
 25 21  1  0  0  0  0
 25 27  1  0  0  0  0
 27 26  1  0  0  0  0
 28 27  2  0  0  0  0
 29 33  1  0  0  0  0
 30 29  1  0  0  0  0
 31 30  2  0  0  0  0
 32 31  1  0  0  0  0
 33 34  1  0  0  0  0
 35 36  1  0  0  0  0
 36 34  1  0  0  0  0
 36 38  1  0  0  0  0
 37 38  1  0  0  0  0
 40 47  2  0  0  0  0
 40 45  1  0  0  0  0
 41 44  1  0  0  0  0
 42 41  1  0  0  0  0
 42 43  1  0  0  0  0
 43 49  1  0  0  0  0
 44 39  1  0  0  0  0
 45 42  2  0  0  0  0
 46 43  1  0  0  0  0
 46 44  1  0  0  0  0
 47 48  1  0  0  0  0
 48 41  2  0  0  0  0
 50 49  1  0  0  0  0
 51 50  1  0  0  0  0
 51 52  1  0  0  0  0
 52 53  1  0  0  0  0
 54 55  1  0  0  0  0
 55 59  1  0  0  0  0
 55 52  1  0  0  0  0
 56 60  1  0  0  0  0
 57 62  1  0  0  0  0
 58 57  2  0  0  0  0
 58 59  1  0  0  0  0
 59 61  1  0  0  0  0
 61 60  1  0  0  0  0
 62 56  2  0  0  0  0
 63 57  1  0  0  0  0
M  END
>  <MODEL>
3

>  <REMARK>
 VINA RESULT:      -5.3      3.047      8.286
  Name = 
  20 active torsions:
  status: ('A' for Active; 'I' for Inactive)
    1  A    between atoms: C_2  and  O_14
    2  A    between atoms: C_2  and  C_27
    3  A    between atoms: C_5  and  C_35
    4  A    between atoms: C_5  and  C_41
    5  A    between atoms: C_8  and  O_14
    6  A    between atoms: C_8  and  C_23
    7  A    between atoms: O_9  and  N_22
    8  A    between atoms: C_10  and  C_41
    9  A    between atoms: C_20  and  C_62
   10  A    between atoms: C_23  and  C_45
   11  A    between atoms: C_26  and  C_35
   12  A    between atoms: C_26  and  C_46
   13  A    between atoms: C_27  and  N_37
   14  A    between atoms: C_33  and  C_59
   15  A    between atoms: C_36  and  C_43
   16  A    between atoms: C_36  and  C_61
   17  A    between atoms: C_38  and  C_60
   18  A    between atoms: C_41  and  C_61
   19  A    between atoms: N_57  and  C_62
   20  A    between atoms: C_60  and  C_61
                            x       y       z     vdW  Elec       q    Type
                         _______ _______ _______ _____ _____    ______ ____

>  <TORSDO>
F 20

$$$$
=
 OpenBabel10222420293D

 63 69  0  0  1  0  0  0  0  0999 V2000
  186.7280  177.9690  142.5350 C   0  0  2  0  0  3  0  0  0  0  0  0
  185.1170  179.3520  141.1380 C   0  0  0  0  0  2  0  0  0  0  0  0
  183.6290  177.6310  140.7750 C   0  0  0  0  0  2  0  0  0  0  0  0
  184.3400  177.2870  142.0710 C   0  0  0  0  0  2  0  0  0  0  0  0
  185.2690  178.4650  142.3600 C   0  0  1  0  0  0  0  0  0  0  0  0
  183.8030  179.0580  140.5690 N   0  0  0  0  0  0  0  0  0  0  0  0
  183.7730  178.6810  144.4320 N   0  0  0  0  0  2  0  0  0  0  0  0
  184.7960  179.2190  143.5830 C   0  0  0  0  0  0  0  0  0  0  0  0
  185.2880  180.3470  143.8560 O   0  0  0  0  0  0  0  0  0  0  0  0
  183.3310  179.3670  145.5140 O   0  0  0  0  0  0  0  0  0  0  0  0
  184.1640  178.9700  146.5650 C   0  0  0  0  0  1  0  0  0  0  0  0
  184.1690  180.7680  138.7370 C   0  0  0  0  0  1  0  0  0  0  0  0
  183.7100  179.3640  139.1320 C   0  0  2  0  0  3  0  0  0  0  0  0
  180.5180  176.8030  134.7710 C   0  0  0  0  0  2  0  0  0  0  0  0
  178.9500  177.4700  136.8240 O   0  0  0  0  0  1  0  0  0  0  0  0
  182.3240  179.0330  138.5680 C   0  0  1  0  0  3  0  0  0  0  0  0
  181.8470  178.4620  136.1070 C   0  0  2  0  0  3  0  0  0  0  0  0
  181.7430  180.2340  137.9690 N   0  0  1  0  0  0  0  0  0  0  0  0
  181.8780  177.4650  134.9510 C   0  0  0  0  0  2  0  0  0  0  0  0
  179.5230  177.7880  134.5980 O   0  0  0  0  0  0  0  0  0  0  0  0
  180.3830  179.6900  137.7210 C   0  0  2  0  0  3  0  0  0  0  0  0
  182.4030  177.9220  137.4570 C   0  0  0  0  0  2  0  0  0  0  0  0
  180.5090  179.2680  136.2540 C   0  0  2  0  0  3  0  0  0  0  0  0
  179.2990  178.4100  135.8440 C   0  0  2  0  0  3  0  0  0  0  0  0
  180.5600  180.9150  138.4960 C   0  0  2  0  0  3  0  0  0  0  0  0
  179.6690  183.2360  138.2340 O   0  0  0  0  0  1  0  0  0  0  0  0
  180.2060  182.0980  137.6450 C   0  0  0  0  0  0  0  0  0  0  0  0
  180.4060  182.0780  136.3990 O   0  0  0  0  0  0  0  0  0  0  0  0
  187.3140  178.1680  143.9530 C   0  0  1  0  0  3  0  0  0  0  0  0
  186.8110  177.0560  144.8350 C   0  0  0  0  0  3  0  0  0  0  0  0
  186.7400  177.1230  146.1230 N   0  0  0  0  0  0  0  0  0  0  0  0
  187.1450  178.2780  146.8770 C   0  0  0  0  0  1  0  0  0  0  0  0
  188.8450  178.2380  143.9710 C   0  0  0  0  0  2  0  0  0  0  0  0
  189.4810  176.8770  144.1990 C   0  0  0  0  0  2  0  0  0  0  0  0
  191.6020  178.1210  144.4750 C   0  0  0  0  0  1  0  0  0  0  0  0
  190.7500  176.9900  145.0260 C   0  0  1  0  0  3  0  0  0  0  0  0
  191.1160  176.4240  147.3280 O   0  0  0  0  0  1  0  0  0  0  0  0
  190.4130  177.2820  146.4790 C   0  0  0  0  0  2  0  0  0  0  0  0
  187.6640  178.4450  141.4160 C   0  0  0  0  0  2  0  0  0  0  0  0
  192.1940  177.3920  139.7800 C   0  0  0  0  0  3  0  0  0  0  0  0
  189.4800  177.2120  140.3380 C   0  0  0  0  0  0  0  0  0  0  0  0
  189.9060  177.7500  139.1530 C   0  0  0  0  0  0  0  0  0  0  0  0
  188.8090  178.1800  138.3700 N   0  0  0  0  0  0  0  0  0  0  0  0
  187.9930  177.3170  140.4540 C   0  0  2  0  0  3  0  0  0  0  0  0
  191.2610  177.8680  138.8420 C   0  0  0  0  0  3  0  0  0  0  0  0
  187.5740  177.7680  139.0360 C   0  0  0  0  0  2  0  0  0  0  0  0
  191.7600  176.8380  141.0010 C   0  0  0  0  0  3  0  0  0  0  0  0
  190.3880  176.7520  141.2940 C   0  0  0  0  0  3  0  0  0  0  0  0
  188.8960  179.0850  137.2320 C   0  0  0  0  0  2  0  0  0  0  0  0
  189.0100  178.2730  135.9370 C   0  0  0  0  0  2  0  0  0  0  0  0
  187.7450  177.9260  135.4420 O   0  0  0  0  0  0  0  0  0  0  0  0
  187.6520  176.5240  135.5030 C   0  0  2  0  0  3  0  0  0  0  0  0
  188.8600  175.8740  134.8310 C   0  0  0  0  0  1  0  0  0  0  0  0
  185.4220  177.0880  134.8390 O   0  0  0  0  0  1  0  0  0  0  0  0
  186.3720  176.0590  134.8010 C   0  0  2  0  0  3  0  0  0  0  0  0
  184.9320  172.6920  137.6110 C   0  0  0  0  0  3  0  0  0  0  0  0
  183.4620  174.0320  136.0820 C   0  0  0  0  0  0  0  0  0  0  0  0
  184.3290  174.7940  135.3930 C   0  0  0  0  0  3  0  0  0  0  0  0
  185.8220  174.7720  135.4320 C   0  0  2  0  0  3  0  0  0  0  0  0
  186.2870  173.1280  137.1600 C   0  0  0  0  0  2  0  0  0  0  0  0
  186.3290  174.6060  136.8510 C   0  0  0  0  0  2  0  0  0  0  0  0
  183.7940  173.0800  137.1130 N   0  0  0  0  0  0  0  0  0  0  0  0
  182.1440  174.2170  135.8210 F   0  0  0  0  0  0  0  0  0  0  0  0
  1 39  1  6  0  0  0
  1 29  1  0  0  0  0
  2  5  1  0  0  0  0
  3  4  1  0  0  0  0
  4  5  1  0  0  0  0
  5  1  1  0  0  0  0
  5  8  1  1  0  0  0
  6  3  1  0  0  0  0
  6  2  1  0  0  0  0
  7 10  1  0  0  0  0
  8  9  2  0  0  0  0
  8  7  1  0  0  0  0
 10 11  1  0  0  0  0
 13 12  1  1  0  0  0
 13  6  1  0  0  0  0
 14 19  1  0  0  0  0
 16 13  1  6  0  0  0
 17 19  1  6  0  0  0
 17 23  1  0  0  0  0
 17 22  1  0  0  0  0
 18 25  1  0  0  0  0
 18 16  1  0  0  0  0
 20 14  1  0  0  0  0
 20 24  1  0  0  0  0
 21 18  1  0  0  0  0
 21 25  1  0  0  0  0
 22 16  1  0  0  0  0
 23 21  1  0  0  0  0
 24 23  1  0  0  0  0
 24 15  1  0  0  0  0
 27 26  1  0  0  0  0
 27 25  1  0  0  0  0
 28 27  2  0  0  0  0
 29 33  1  0  0  0  0
 29 30  1  0  0  0  0
 30 31  2  0  0  0  0
 31 32  1  0  0  0  0
 33 34  1  0  0  0  0
 34 36  1  0  0  0  0
 35 36  1  0  0  0  0
 36 38  1  0  0  0  0
 38 37  1  0  0  0  0
 40 47  1  0  0  0  0
 41 44  1  0  0  0  0
 41 48  1  0  0  0  0
 42 41  2  0  0  0  0
 43 46  1  0  0  0  0
 43 42  1  0  0  0  0
 44 39  1  0  0  0  0
 45 42  1  0  0  0  0
 45 40  2  0  0  0  0
 46 44  1  0  0  0  0
 47 48  2  0  0  0  0
 49 43  1  0  0  0  0
 50 49  1  0  0  0  0
 51 52  1  0  0  0  0
 51 50  1  0  0  0  0
 53 52  1  0  0  0  0
 55 54  1  0  0  0  0
 55 59  1  0  0  0  0
 55 52  1  0  0  0  0
 57 62  1  0  0  0  0
 58 59  1  0  0  0  0
 58 57  2  0  0  0  0
 59 61  1  0  0  0  0
 60 56  1  0  0  0  0
 61 60  1  0  0  0  0
 62 56  2  0  0  0  0
 63 57  1  0  0  0  0
M  END
>  <MODEL>
4

>  <REMARK>
 VINA RESULT:      -5.2      3.749     10.746
  Name = 
  20 active torsions:
  status: ('A' for Active; 'I' for Inactive)
    1  A    between atoms: C_2  and  O_14
    2  A    between atoms: C_2  and  C_27
    3  A    between atoms: C_5  and  C_35
    4  A    between atoms: C_5  and  C_41
    5  A    between atoms: C_8  and  O_14
    6  A    between atoms: C_8  and  C_23
    7  A    between atoms: O_9  and  N_22
    8  A    between atoms: C_10  and  C_41
    9  A    between atoms: C_20  and  C_62
   10  A    between atoms: C_23  and  C_45
   11  A    between atoms: C_26  and  C_35
   12  A    between atoms: C_26  and  C_46
   13  A    between atoms: C_27  and  N_37
   14  A    between atoms: C_33  and  C_59
   15  A    between atoms: C_36  and  C_43
   16  A    between atoms: C_36  and  C_61
   17  A    between atoms: C_38  and  C_60
   18  A    between atoms: C_41  and  C_61
   19  A    between atoms: N_57  and  C_62
   20  A    between atoms: C_60  and  C_61
                            x       y       z     vdW  Elec       q    Type
                         _______ _______ _______ _____ _____    ______ ____

>  <TORSDO>
F 20

$$$$
=
 OpenBabel10222420293D

 63 69  0  0  1  0  0  0  0  0999 V2000
  184.8910  178.8610  138.8970 C   0  0  2  0  0  3  0  0  0  0  0  0
  183.8470  177.5810  136.9660 C   0  0  0  0  0  2  0  0  0  0  0  0
  183.4390  175.6680  138.1820 C   0  0  0  0  0  2  0  0  0  0  0  0
  183.4660  176.7970  139.1970 C   0  0  0  0  0  2  0  0  0  0  0  0
  183.6540  178.0780  138.3870 C   0  0  1  0  0  0  0  0  0  0  0  0
  183.1930  176.2760  136.8880 N   0  0  0  0  0  0  0  0  0  0  0  0
  181.1120  178.3280  138.6280 N   0  0  0  0  0  2  0  0  0  0  0  0
  182.4030  178.9280  138.4500 C   0  0  0  0  0  0  0  0  0  0  0  0
  182.4860  180.1800  138.3260 O   0  0  0  0  0  0  0  0  0  0  0  0
  179.9900  179.0870  138.6610 O   0  0  0  0  0  0  0  0  0  0  0  0
  179.0520  178.3250  139.3650 C   0  0  0  0  0  1  0  0  0  0  0  0
  184.2620  176.1550  134.5940 C   0  0  0  0  0  1  0  0  0  0  0  0
  183.7400  175.4150  135.8260 C   0  0  2  0  0  3  0  0  0  0  0  0
  178.9350  172.1860  137.3250 C   0  0  0  0  0  2  0  0  0  0  0  0
  179.6280  171.7290  134.7890 O   0  0  0  0  0  1  0  0  0  0  0  0
  182.7710  174.2890  135.4510 C   0  0  1  0  0  3  0  0  0  0  0  0
  181.2970  173.0110  137.1260 C   0  0  2  0  0  3  0  0  0  0  0  0
  183.4180  172.9960  135.6710 N   0  0  1  0  0  0  0  0  0  0  0  0
  180.0580  172.9460  138.0170 C   0  0  0  0  0  2  0  0  0  0  0  0
  179.3840  170.9040  136.9440 O   0  0  0  0  0  0  0  0  0  0  0  0
  182.3750  172.1450  135.0410 C   0  0  2  0  0  3  0  0  0  0  0  0
  181.4640  174.3360  136.3270 C   0  0  0  0  0  2  0  0  0  0  0  0
  181.5720  171.7220  136.2740 C   0  0  2  0  0  3  0  0  0  0  0  0
  180.2540  171.0520  135.8440 C   0  0  2  0  0  3  0  0  0  0  0  0
  183.7640  172.0660  134.5950 C   0  0  2  0  0  3  0  0  0  0  0  0
  183.6720  169.6380  135.1800 O   0  0  0  0  0  0  0  0  0  0  0  0
  184.3940  170.8240  135.1490 C   0  0  0  0  0  0  0  0  0  0  0  0
  185.5830  170.8410  135.5760 O   0  0  0  0  0  1  0  0  0  0  0  0
  186.2530  178.2040  138.5680 C   0  0  1  0  0  3  0  0  0  0  0  0
  187.0290  179.1380  137.6770 C   0  0  0  0  0  3  0  0  0  0  0  0
  187.8200  178.7530  136.7310 N   0  0  0  0  0  0  0  0  0  0  0  0
  188.0630  177.3710  136.4180 C   0  0  0  0  0  1  0  0  0  0  0  0
  187.0630  177.8320  139.8160 C   0  0  0  0  0  2  0  0  0  0  0  0
  188.4820  178.3720  139.7630 C   0  0  0  0  0  2  0  0  0  0  0  0
  190.6700  177.5100  138.9880 C   0  0  0  0  0  1  0  0  0  0  0  0
  189.5040  177.2610  139.9320 C   0  0  1  0  0  3  0  0  0  0  0  0
  190.4450  178.4980  141.7590 O   0  0  0  0  0  1  0  0  0  0  0  0
  190.0210  177.2280  141.3610 C   0  0  0  0  0  2  0  0  0  0  0  0
  184.7640  179.3020  140.3610 C   0  0  0  0  0  2  0  0  0  0  0  0
  181.6000  179.5160  144.1360 C   0  0  0  0  0  3  0  0  0  0  0  0
  183.3010  178.5440  142.1680 C   0  0  0  0  0  0  0  0  0  0  0  0
  183.7770  178.7970  143.4270 C   0  0  0  0  0  0  0  0  0  0  0  0
  185.1630  178.5270  143.5070 N   0  0  0  0  0  0  0  0  0  0  0  0
  184.4160  178.1300  141.2620 C   0  0  2  0  0  3  0  0  0  0  0  0
  182.9560  179.2960  144.4380 C   0  0  0  0  0  3  0  0  0  0  0  0
  185.5920  177.9250  142.2450 C   0  0  0  0  0  2  0  0  0  0  0  0
  181.1070  179.2570  142.8410 C   0  0  0  0  0  3  0  0  0  0  0  0
  181.9640  178.7740  141.8380 C   0  0  0  0  0  3  0  0  0  0  0  0
  186.0470  178.9920  144.5670 C   0  0  0  0  0  2  0  0  0  0  0  0
  186.1560  177.9170  145.6550 C   0  0  0  0  0  2  0  0  0  0  0  0
  187.2950  177.1220  145.4710 O   0  0  0  0  0  0  0  0  0  0  0  0
  188.1550  177.3820  146.5520 C   0  0  2  0  0  3  0  0  0  0  0  0
  187.4190  178.1370  147.6570 C   0  0  0  0  0  1  0  0  0  0  0  0
  189.2020  178.4990  144.7130 O   0  0  0  0  0  1  0  0  0  0  0  0
  189.3480  178.2170  146.0770 C   0  0  2  0  0  3  0  0  0  0  0  0
  192.7470  175.4620  147.5460 C   0  0  0  0  0  3  0  0  0  0  0  0
  191.8990  175.5870  145.1890 C   0  0  0  0  0  0  0  0  0  0  0  0
  191.0080  176.5920  145.2230 C   0  0  0  0  0  3  0  0  0  0  0  0
  190.6790  177.5050  146.3590 C   0  0  2  0  0  3  0  0  0  0  0  0
  192.0410  176.6220  148.1660 C   0  0  0  0  0  2  0  0  0  0  0  0
  190.6200  176.7480  147.6700 C   0  0  0  0  0  2  0  0  0  0  0  0
  192.6710  175.0910  146.3010 N   0  0  0  0  0  0  0  0  0  0  0  0
  192.0450  174.9390  144.0060 F   0  0  0  0  0  0  0  0  0  0  0  0
  1 39  1  1  0  0  0
  2  5  1  0  0  0  0
  3  4  1  0  0  0  0
  5  8  1  1  0  0  0
  5  1  1  0  0  0  0
  5  4  1  0  0  0  0
  6  2  1  0  0  0  0
  6  3  1  0  0  0  0
  7 10  1  0  0  0  0
  8  7  1  0  0  0  0
  9  8  2  0  0  0  0
 10 11  1  0  0  0  0
 13 12  1  6  0  0  0
 13  6  1  0  0  0  0
 14 19  1  0  0  0  0
 15 24  1  0  0  0  0
 16 18  1  0  0  0  0
 16 13  1  1  0  0  0
 16 22  1  0  0  0  0
 17 22  1  6  0  0  0
 17 19  1  0  0  0  0
 20 14  1  0  0  0  0
 21 18  1  0  0  0  0
 21 23  1  0  0  0  0
 23 17  1  0  0  0  0
 24 23  1  0  0  0  0
 24 20  1  0  0  0  0
 25 21  1  0  0  0  0
 25 27  1  0  0  0  0
 25 18  1  0  0  0  0
 27 26  2  0  0  0  0
 27 28  1  0  0  0  0
 29  1  1  0  0  0  0
 29 33  1  0  0  0  0
 30 29  1  0  0  0  0
 31 30  2  0  0  0  0
 32 31  1  0  0  0  0
 34 33  1  0  0  0  0
 34 36  1  0  0  0  0
 35 36  1  0  0  0  0
 36 38  1  0  0  0  0
 38 37  1  0  0  0  0
 39 44  1  0  0  0  0
 40 45  1  0  0  0  0
 41 42  1  0  0  0  0
 42 43  1  0  0  0  0
 42 45  2  0  0  0  0
 43 49  1  0  0  0  0
 44 41  1  0  0  0  0
 44 46  1  0  0  0  0
 46 43  1  0  0  0  0
 47 40  2  0  0  0  0
 48 41  2  0  0  0  0
 48 47  1  0  0  0  0
 49 50  1  0  0  0  0
 51 50  1  0  0  0  0
 51 52  1  0  0  0  0
 52 53  1  0  0  0  0
 54 55  1  0  0  0  0
 55 59  1  0  0  0  0
 55 52  1  0  0  0  0
 56 60  1  0  0  0  0
 57 58  2  0  0  0  0
 57 62  1  0  0  0  0
 58 59  1  0  0  0  0
 59 61  1  0  0  0  0
 61 60  1  0  0  0  0
 62 56  2  0  0  0  0
 63 57  1  0  0  0  0
M  END
>  <MODEL>
5

>  <REMARK>
 VINA RESULT:      -5.2      3.447      7.541
  Name = 
  20 active torsions:
  status: ('A' for Active; 'I' for Inactive)
    1  A    between atoms: C_2  and  O_14
    2  A    between atoms: C_2  and  C_27
    3  A    between atoms: C_5  and  C_35
    4  A    between atoms: C_5  and  C_41
    5  A    between atoms: C_8  and  O_14
    6  A    between atoms: C_8  and  C_23
    7  A    between atoms: O_9  and  N_22
    8  A    between atoms: C_10  and  C_41
    9  A    between atoms: C_20  and  C_62
   10  A    between atoms: C_23  and  C_45
   11  A    between atoms: C_26  and  C_35
   12  A    between atoms: C_26  and  C_46
   13  A    between atoms: C_27  and  N_37
   14  A    between atoms: C_33  and  C_59
   15  A    between atoms: C_36  and  C_43
   16  A    between atoms: C_36  and  C_61
   17  A    between atoms: C_38  and  C_60
   18  A    between atoms: C_41  and  C_61
   19  A    between atoms: N_57  and  C_62
   20  A    between atoms: C_60  and  C_61
                            x       y       z     vdW  Elec       q    Type
                         _______ _______ _______ _____ _____    ______ ____

>  <TORSDO>
F 20

$$$$
=
 OpenBabel10222420293D

 63 69  0  0  1  0  0  0  0  0999 V2000
  186.9160  177.8890  139.9360 C   0  0  2  0  0  3  0  0  0  0  0  0
  184.5540  177.4960  139.0830 C   0  0  0  0  0  2  0  0  0  0  0  0
  183.8470  179.6610  139.4300 C   0  0  0  0  0  2  0  0  0  0  0  0
  185.3510  179.7490  139.2480 C   0  0  0  0  0  2  0  0  0  0  0  0
  185.8160  178.3280  138.9350 C   0  0  1  0  0  0  0  0  0  0  0  0
  183.4290  178.3990  138.8470 N   0  0  0  0  0  0  0  0  0  0  0  0
  185.9800  177.1090  136.6840 N   0  0  0  0  0  2  0  0  0  0  0  0
  186.3060  178.2380  137.5060 C   0  0  0  0  0  0  0  0  0  0  0  0
  187.0280  179.1550  137.0300 O   0  0  0  0  0  0  0  0  0  0  0  0
  186.4390  177.0170  135.4120 O   0  0  0  0  0  0  0  0  0  0  0  0
  185.6560  176.0260  134.8110 C   0  0  0  0  0  1  0  0  0  0  0  0
  182.3530  177.2790  140.8480 C   0  0  0  0  0  1  0  0  0  0  0  0
  182.1800  177.9510  139.4850 C   0  0  2  0  0  3  0  0  0  0  0  0
  181.7330  173.0100  136.1450 C   0  0  0  0  0  2  0  0  0  0  0  0
  179.3690  174.2280  136.3540 O   0  0  0  0  0  1  0  0  0  0  0  0
  181.3260  177.1070  138.5330 C   0  0  1  0  0  3  0  0  0  0  0  0
  182.2560  175.3430  136.9090 C   0  0  2  0  0  3  0  0  0  0  0  0
  181.3220  177.7220  137.2070 N   0  0  1  0  0  0  0  0  0  0  0  0
  182.8200  173.9470  136.6550 C   0  0  0  0  0  2  0  0  0  0  0  0
  181.1270  173.5570  134.9950 O   0  0  0  0  0  0  0  0  0  0  0  0
  180.2870  176.8520  136.5900 C   0  0  2  0  0  3  0  0  0  0  0  0
  181.8920  175.6440  138.3920 C   0  0  0  0  0  2  0  0  0  0  0  0
  181.1680  175.8180  135.8840 C   0  0  2  0  0  3  0  0  0  0  0  0
  180.3110  174.6350  135.3990 C   0  0  2  0  0  3  0  0  0  0  0  0
  180.1330  178.3050  136.5830 C   0  0  2  0  0  3  0  0  0  0  0  0
  181.6600  178.4960  134.6150 O   0  0  0  0  0  1  0  0  0  0  0  0
  180.4550  178.8320  135.2180 C   0  0  0  0  0  0  0  0  0  0  0  0
  179.6340  179.5670  134.6010 O   0  0  0  0  0  0  0  0  0  0  0  0
  186.8130  178.5380  141.3360 C   0  0  1  0  0  3  0  0  0  0  0  0
  185.7610  177.8030  142.1250 C   0  0  0  0  0  3  0  0  0  0  0  0
  184.9430  178.3680  142.9500 N   0  0  0  0  0  0  0  0  0  0  0  0
  184.9440  179.7790  143.2230 C   0  0  0  0  0  1  0  0  0  0  0  0
  188.1480  178.5670  142.0900 C   0  0  0  0  0  2  0  0  0  0  0  0
  188.1420  177.6570  143.3060 C   0  0  0  0  0  2  0  0  0  0  0  0
  190.1700  178.9500  143.8900 C   0  0  0  0  0  1  0  0  0  0  0  0
  189.5170  177.5790  143.9470 C   0  0  1  0  0  3  0  0  0  0  0  0
  188.8050  178.1420  146.1660 O   0  0  0  0  0  1  0  0  0  0  0  0
  189.4040  177.1410  145.3980 C   0  0  0  0  0  2  0  0  0  0  0  0
  188.3290  177.9430  139.3400 C   0  0  0  0  0  2  0  0  0  0  0  0
  193.1960  177.2410  139.6880 C   0  0  0  0  0  3  0  0  0  0  0  0
  190.4570  176.7860  139.6710 C   0  0  0  0  0  0  0  0  0  0  0  0
  191.1920  176.6110  138.5290 C   0  0  0  0  0  0  0  0  0  0  0  0
  190.3630  176.2270  137.4490 N   0  0  0  0  0  0  0  0  0  0  0  0
  189.0030  176.5830  139.3920 C   0  0  2  0  0  3  0  0  0  0  0  0
  192.5670  176.8410  138.4960 C   0  0  0  0  0  3  0  0  0  0  0  0
  189.0110  176.0040  137.9580 C   0  0  0  0  0  2  0  0  0  0  0  0
  192.4430  177.4220  140.8660 C   0  0  0  0  0  3  0  0  0  0  0  0
  191.0560  177.2020  140.8620 C   0  0  0  0  0  3  0  0  0  0  0  0
  190.7390  176.2840  136.0430 C   0  0  0  0  0  2  0  0  0  0  0  0
  191.2510  174.9120  135.5920 C   0  0  0  0  0  2  0  0  0  0  0  0
  192.6520  174.8610  135.6090 O   0  0  0  0  0  0  0  0  0  0  0  0
  193.0160  173.5200  135.3980 C   0  0  2  0  0  3  0  0  0  0  0  0
  191.7810  172.6620  135.1280 C   0  0  0  0  0  1  0  0  0  0  0  0
  193.2700  173.6360  137.7750 O   0  0  0  0  0  1  0  0  0  0  0  0
  193.7460  172.9810  136.6320 C   0  0  2  0  0  3  0  0  0  0  0  0
  198.2060  174.0880  137.0630 C   0  0  0  0  0  3  0  0  0  0  0  0
  197.2350  171.8070  137.4470 C   0  0  0  0  0  0  0  0  0  0  0  0
  195.9460  171.9450  137.0920 C   0  0  0  0  0  3  0  0  0  0  0  0
  195.2680  173.1350  136.4960 C   0  0  2  0  0  3  0  0  0  0  0  0
  197.0360  174.8010  136.4720 C   0  0  0  0  0  2  0  0  0  0  0  0
  195.7410  174.4180  137.1490 C   0  0  0  0  0  2  0  0  0  0  0  0
  198.2410  172.8390  137.4280 N   0  0  0  0  0  0  0  0  0  0  0  0
  197.6120  170.5940  137.9210 F   0  0  0  0  0  0  0  0  0  0  0  0
  1 39  1  6  0  0  0
  1 29  1  0  0  0  0
  4  3  1  0  0  0  0
  5  8  1  6  0  0  0
  5  2  1  0  0  0  0
  5  4  1  0  0  0  0
  5  1  1  0  0  0  0
  6  2  1  0  0  0  0
  6  3  1  0  0  0  0
  6 13  1  0  0  0  0
  7  8  1  0  0  0  0
  9  8  2  0  0  0  0
 10  7  1  0  0  0  0
 11 10  1  0  0  0  0
 13 12  1  1  0  0  0
 14 19  1  0  0  0  0
 16 13  1  1  0  0  0
 17 19  1  1  0  0  0
 17 22  1  0  0  0  0
 18 16  1  0  0  0  0
 20 24  1  0  0  0  0
 20 14  1  0  0  0  0
 21 18  1  0  0  0  0
 22 16  1  0  0  0  0
 23 21  1  0  0  0  0
 23 17  1  0  0  0  0
 24 23  1  0  0  0  0
 24 15  1  0  0  0  0
 25 21  1  0  0  0  0
 25 18  1  0  0  0  0
 26 27  1  0  0  0  0
 27 25  1  0  0  0  0
 28 27  2  0  0  0  0
 29 33  1  0  0  0  0
 29 30  1  0  0  0  0
 30 31  2  0  0  0  0
 31 32  1  0  0  0  0
 33 34  1  0  0  0  0
 34 36  1  0  0  0  0
 35 36  1  0  0  0  0
 36 38  1  0  0  0  0
 38 37  1  0  0  0  0
 39 44  1  0  0  0  0
 40 47  1  0  0  0  0
 41 48  1  0  0  0  0
 42 41  2  0  0  0  0
 43 46  1  0  0  0  0
 43 42  1  0  0  0  0
 44 41  1  0  0  0  0
 45 42  1  0  0  0  0
 45 40  2  0  0  0  0
 46 44  1  0  0  0  0
 48 47  2  0  0  0  0
 49 43  1  0  0  0  0
 50 51  1  0  0  0  0
 50 49  1  0  0  0  0
 52 51  1  0  0  0  0
 52 55  1  0  0  0  0
 53 52  1  0  0  0  0
 55 54  1  0  0  0  0
 56 62  2  0  0  0  0
 57 63  1  0  0  0  0
 58 57  2  0  0  0  0
 59 55  1  0  0  0  0
 59 58  1  0  0  0  0
 59 61  1  0  0  0  0
 60 56  1  0  0  0  0
 60 61  1  0  0  0  0
 62 57  1  0  0  0  0
M  END
>  <MODEL>
6

>  <REMARK>
 VINA RESULT:      -5.0      3.024     10.408
  Name = 
  20 active torsions:
  status: ('A' for Active; 'I' for Inactive)
    1  A    between atoms: C_2  and  O_14
    2  A    between atoms: C_2  and  C_27
    3  A    between atoms: C_5  and  C_35
    4  A    between atoms: C_5  and  C_41
    5  A    between atoms: C_8  and  O_14
    6  A    between atoms: C_8  and  C_23
    7  A    between atoms: O_9  and  N_22
    8  A    between atoms: C_10  and  C_41
    9  A    between atoms: C_20  and  C_62
   10  A    between atoms: C_23  and  C_45
   11  A    between atoms: C_26  and  C_35
   12  A    between atoms: C_26  and  C_46
   13  A    between atoms: C_27  and  N_37
   14  A    between atoms: C_33  and  C_59
   15  A    between atoms: C_36  and  C_43
   16  A    between atoms: C_36  and  C_61
   17  A    between atoms: C_38  and  C_60
   18  A    between atoms: C_41  and  C_61
   19  A    between atoms: N_57  and  C_62
   20  A    between atoms: C_60  and  C_61
                            x       y       z     vdW  Elec       q    Type
                         _______ _______ _______ _____ _____    ______ ____

>  <TORSDO>
F 20

$$$$
=
 OpenBabel10222420293D

 63 69  0  0  1  0  0  0  0  0999 V2000
  183.2810  177.8270  137.7090 C   0  0  2  0  0  3  0  0  0  0  0  0
  183.1760  178.4280  140.1760 C   0  0  0  0  0  2  0  0  0  0  0  0
  185.3970  179.0150  140.3410 C   0  0  0  0  0  2  0  0  0  0  0  0
  185.0290  179.2240  138.8830 C   0  0  0  0  0  2  0  0  0  0  0  0
  183.5360  178.9150  138.7840 C   0  0  1  0  0  0  0  0  0  0  0  0
  184.1540  179.0150  141.0900 N   0  0  0  0  0  0  0  0  0  0  0  0
  181.4590  180.1170  137.8770 N   0  0  0  0  0  2  0  0  0  0  0  0
  182.7580  180.1770  138.4830 C   0  0  0  0  0  0  0  0  0  0  0  0
  183.2600  181.3040  138.7470 O   0  0  0  0  0  0  0  0  0  0  0  0
  180.7720  181.2480  137.5850 O   0  0  0  0  0  0  0  0  0  0  0  0
  180.7320  181.3020  136.1880 C   0  0  0  0  0  1  0  0  0  0  0  0
  183.1650  178.3410  143.3230 C   0  0  0  0  0  1  0  0  0  0  0  0
  184.3260  178.2430  142.3310 C   0  0  2  0  0  3  0  0  0  0  0  0
  189.8940  176.3740  143.4540 C   0  0  0  0  0  2  0  0  0  0  0  0
  189.5970  178.9330  144.1490 O   0  0  0  0  0  1  0  0  0  0  0  0
  185.6750  178.5290  142.9980 C   0  0  1  0  0  3  0  0  0  0  0  0
  187.4140  176.7350  143.6040 C   0  0  2  0  0  3  0  0  0  0  0  0
  185.5620  178.3130  144.4390 N   0  0  1  0  0  0  0  0  0  0  0  0
  188.5220  175.7710  143.1840 C   0  0  0  0  0  2  0  0  0  0  0  0
  189.9980  176.7450  144.8110 O   0  0  0  0  0  0  0  0  0  0  0  0
  186.8910  178.8550  144.8240 C   0  0  2  0  0  3  0  0  0  0  0  0
  186.8040  177.5790  142.4480 C   0  0  0  0  0  2  0  0  0  0  0  0
  187.7130  177.5660  144.9020 C   0  0  2  0  0  3  0  0  0  0  0  0
  189.2120  177.8980  145.0130 C   0  0  2  0  0  3  0  0  0  0  0  0
  185.6720  179.3810  145.4340 C   0  0  2  0  0  3  0  0  0  0  0  0
  185.7400  179.6600  147.9160 O   0  0  0  0  0  1  0  0  0  0  0  0
  185.5330  178.8300  146.8210 C   0  0  0  0  0  0  0  0  0  0  0  0
  185.2130  177.6230  147.0060 O   0  0  0  0  0  0  0  0  0  0  0  0
  182.6230  176.5320  138.2420 C   0  0  1  0  0  3  0  0  0  0  0  0
  181.1280  176.6780  138.1300 C   0  0  0  0  0  3  0  0  0  0  0  0
  180.3230  176.7160  139.1390 N   0  0  0  0  0  0  0  0  0  0  0  0
  180.7620  176.6160  140.5050 C   0  0  0  0  0  1  0  0  0  0  0  0
  183.1100  175.2670  137.5260 C   0  0  0  0  0  2  0  0  0  0  0  0
  181.9720  174.5060  136.8660 C   0  0  0  0  0  2  0  0  0  0  0  0
  181.0890  172.2970  136.1800 C   0  0  0  0  0  1  0  0  0  0  0  0
  182.1680  173.0040  136.9840 C   0  0  1  0  0  3  0  0  0  0  0  0
  184.3830  172.2350  137.4910 O   0  0  0  0  0  1  0  0  0  0  0  0
  183.5320  172.6030  136.4460 C   0  0  0  0  0  2  0  0  0  0  0  0
  184.5000  177.5690  136.8130 C   0  0  0  0  0  2  0  0  0  0  0  0
  189.3710  178.0320  136.2080 C   0  0  0  0  0  3  0  0  0  0  0  0
  186.8950  177.2810  137.2150 C   0  0  0  0  0  0  0  0  0  0  0  0
  187.5330  176.4910  136.2960 C   0  0  0  0  0  0  0  0  0  0  0  0
  186.7510  175.3590  135.9720 N   0  0  0  0  0  0  0  0  0  0  0  0
  185.5420  176.7270  137.5280 C   0  0  2  0  0  3  0  0  0  0  0  0
  188.7720  176.8420  135.7590 C   0  0  0  0  0  3  0  0  0  0  0  0
  185.5780  175.3400  136.8460 C   0  0  0  0  0  2  0  0  0  0  0  0
  188.7170  178.8480  137.1530 C   0  0  0  0  0  3  0  0  0  0  0  0
  187.4590  178.4780  137.6600 C   0  0  0  0  0  3  0  0  0  0  0  0
  186.9550  174.5040  134.8110 C   0  0  0  0  0  2  0  0  0  0  0  0
  187.9520  173.3920  135.1600 C   0  0  0  0  0  2  0  0  0  0  0  0
  189.2690  173.7890  134.8940 O   0  0  0  0  0  0  0  0  0  0  0  0
  190.0920  173.1290  135.8230 C   0  0  2  0  0  3  0  0  0  0  0  0
  189.9270  173.7360  137.2150 C   0  0  0  0  0  1  0  0  0  0  0  0
  191.9530  172.0500  134.7750 O   0  0  0  0  0  1  0  0  0  0  0  0
  191.5560  173.2430  135.3920 C   0  0  2  0  0  3  0  0  0  0  0  0
  195.0680  174.1440  138.2500 C   0  0  0  0  0  3  0  0  0  0  0  0
  193.3250  175.7980  137.5290 C   0  0  0  0  0  0  0  0  0  0  0  0
  192.4640  175.0600  136.8070 C   0  0  0  0  0  3  0  0  0  0  0  0
  192.4670  173.5830  136.5810 C   0  0  2  0  0  3  0  0  0  0  0  0
  194.4970  172.8740  137.7120 C   0  0  0  0  0  2  0  0  0  0  0  0
  193.8730  173.0680  136.3500 C   0  0  0  0  0  2  0  0  0  0  0  0
  194.5290  175.3260  138.1660 N   0  0  0  0  0  0  0  0  0  0  0  0
  193.0660  177.1270  137.6180 F   0  0  0  0  0  0  0  0  0  0  0  0
  1 39  1  1  0  0  0
  1 29  1  0  0  0  0
  1  5  1  0  0  0  0
  2  6  1  0  0  0  0
  3  6  1  0  0  0  0
  4  3  1  0  0  0  0
  5  8  1  6  0  0  0
  5  4  1  0  0  0  0
  5  2  1  0  0  0  0
  6 13  1  0  0  0  0
  7  8  1  0  0  0  0
  8  9  2  0  0  0  0
 10  7  1  0  0  0  0
 11 10  1  0  0  0  0
 13 12  1  1  0  0  0
 14 20  1  0  0  0  0
 15 24  1  0  0  0  0
 16 13  1  6  0  0  0
 16 18  1  0  0  0  0
 17 22  1  6  0  0  0
 17 23  1  0  0  0  0
 18 21  1  0  0  0  0
 18 25  1  0  0  0  0
 19 14  1  0  0  0  0
 19 17  1  0  0  0  0
 20 24  1  0  0  0  0
 21 23  1  0  0  0  0
 21 25  1  0  0  0  0
 22 16  1  0  0  0  0
 23 24  1  0  0  0  0
 25 27  1  0  0  0  0
 27 28  2  0  0  0  0
 27 26  1  0  0  0  0
 30 29  1  0  0  0  0
 30 31  2  0  0  0  0
 31 32  1  0  0  0  0
 33 29  1  0  0  0  0
 34 36  1  0  0  0  0
 34 33  1  0  0  0  0
 35 36  1  0  0  0  0
 38 36  1  0  0  0  0
 38 37  1  0  0  0  0
 39 44  1  0  0  0  0
 40 47  1  0  0  0  0
 41 44  1  0  0  0  0
 41 48  1  0  0  0  0
 42 41  2  0  0  0  0
 43 42  1  0  0  0  0
 43 46  1  0  0  0  0
 45 40  2  0  0  0  0
 45 42  1  0  0  0  0
 46 44  1  0  0  0  0
 47 48  2  0  0  0  0
 49 50  1  0  0  0  0
 49 43  1  0  0  0  0
 51 50  1  0  0  0  0
 51 52  1  0  0  0  0
 52 53  1  0  0  0  0
 54 55  1  0  0  0  0
 55 52  1  0  0  0  0
 55 59  1  0  0  0  0
 57 63  1  0  0  0  0
 57 62  1  0  0  0  0
 58 57  2  0  0  0  0
 59 58  1  0  0  0  0
 60 56  1  0  0  0  0
 61 59  1  0  0  0  0
 61 60  1  0  0  0  0
 62 56  2  0  0  0  0
M  END
>  <MODEL>
7

>  <REMARK>
 VINA RESULT:      -4.7      2.986      8.942
  Name = 
  20 active torsions:
  status: ('A' for Active; 'I' for Inactive)
    1  A    between atoms: C_2  and  O_14
    2  A    between atoms: C_2  and  C_27
    3  A    between atoms: C_5  and  C_35
    4  A    between atoms: C_5  and  C_41
    5  A    between atoms: C_8  and  O_14
    6  A    between atoms: C_8  and  C_23
    7  A    between atoms: O_9  and  N_22
    8  A    between atoms: C_10  and  C_41
    9  A    between atoms: C_20  and  C_62
   10  A    between atoms: C_23  and  C_45
   11  A    between atoms: C_26  and  C_35
   12  A    between atoms: C_26  and  C_46
   13  A    between atoms: C_27  and  N_37
   14  A    between atoms: C_33  and  C_59
   15  A    between atoms: C_36  and  C_43
   16  A    between atoms: C_36  and  C_61
   17  A    between atoms: C_38  and  C_60
   18  A    between atoms: C_41  and  C_61
   19  A    between atoms: N_57  and  C_62
   20  A    between atoms: C_60  and  C_61
                            x       y       z     vdW  Elec       q    Type
                         _______ _______ _______ _____ _____    ______ ____

>  <TORSDO>
F 20

$$$$
=
 OpenBabel10222420293D

 63 69  0  0  1  0  0  0  0  0999 V2000
  189.7230  176.9460  137.8680 C   0  0  2  0  0  3  0  0  0  0  0  0
  189.9950  178.1010  140.1140 C   0  0  0  0  0  2  0  0  0  0  0  0
  189.6430  176.2010  141.3680 C   0  0  0  0  0  2  0  0  0  0  0  0
  190.1640  175.7130  140.0280 C   0  0  0  0  0  2  0  0  0  0  0  0
  190.4780  176.9730  139.2220 C   0  0  1  0  0  0  0  0  0  0  0  0
  190.0320  177.5950  141.4850 N   0  0  0  0  0  0  0  0  0  0  0  0
  192.5780  176.7520  137.7650 N   0  0  0  0  0  2  0  0  0  0  0  0
  191.9710  177.1060  139.0160 C   0  0  0  0  0  0  0  0  0  0  0  0
  192.7020  177.5140  139.9590 O   0  0  0  0  0  0  0  0  0  0  0  0
  193.9180  176.8490  137.5890 O   0  0  0  0  0  0  0  0  0  0  0  0
  194.2080  176.0040  136.5120 C   0  0  0  0  0  1  0  0  0  0  0  0
  188.7110  179.7060  141.9520 C   0  0  0  0  0  1  0  0  0  0  0  0
  189.1010  178.2920  142.3880 C   0  0  2  0  0  3  0  0  0  0  0  0
  192.4330  175.5480  146.5270 C   0  0  0  0  0  2  0  0  0  0  0  0
  191.5510  177.9000  147.4290 O   0  0  0  0  0  1  0  0  0  0  0  0
  189.5800  178.2520  143.8420 C   0  0  1  0  0  3  0  0  0  0  0  0
  190.5310  176.1670  145.0100 C   0  0  2  0  0  3  0  0  0  0  0  0
  188.5120  177.7300  144.6930 N   0  0  1  0  0  0  0  0  0  0  0  0
  191.6850  175.1960  145.2480 C   0  0  0  0  0  2  0  0  0  0  0  0
  191.5360  175.5860  147.6150 O   0  0  0  0  0  0  0  0  0  0  0  0
  189.1540  178.0040  146.0050 C   0  0  2  0  0  3  0  0  0  0  0  0
  190.8380  177.3200  144.0100 C   0  0  0  0  0  2  0  0  0  0  0  0
  189.7800  176.6390  146.3050 C   0  0  2  0  0  3  0  0  0  0  0  0
  190.7500  176.7510  147.4960 C   0  0  2  0  0  3  0  0  0  0  0  0
  187.8210  178.5230  145.7100 C   0  0  2  0  0  3  0  0  0  0  0  0
  186.0570  178.2500  147.4590 O   0  0  0  0  0  1  0  0  0  0  0  0
  186.7950  177.6930  146.4230 C   0  0  0  0  0  0  0  0  0  0  0  0
  186.5840  176.4960  146.0810 O   0  0  0  0  0  0  0  0  0  0  0  0
  188.5990  178.0010  137.7320 C   0  0  1  0  0  3  0  0  0  0  0  0
  188.7140  178.6460  136.3760 C   0  0  0  0  0  3  0  0  0  0  0  0
  187.9090  178.4200  135.3910 N   0  0  0  0  0  0  0  0  0  0  0  0
  186.7980  177.5110  135.4720 C   0  0  0  0  0  1  0  0  0  0  0  0
  187.1960  177.4230  137.9510 C   0  0  0  0  0  2  0  0  0  0  0  0
  186.3770  178.2540  138.9240 C   0  0  0  0  0  2  0  0  0  0  0  0
  184.2180  177.3060  138.1720 C   0  0  0  0  0  1  0  0  0  0  0  0
  185.0110  178.5900  138.3510 C   0  0  1  0  0  3  0  0  0  0  0  0
  184.5940  179.2500  140.6190 O   0  0  0  0  0  1  0  0  0  0  0  0
  184.2540  179.5150  139.2900 C   0  0  0  0  0  2  0  0  0  0  0  0
  189.2900  175.5350  137.4470 C   0  0  0  0  0  2  0  0  0  0  0  0
  188.0270  171.4230  135.0380 C   0  0  0  0  0  3  0  0  0  0  0  0
  188.5950  174.0800  135.6080 C   0  0  0  0  0  0  0  0  0  0  0  0
  189.5790  173.2510  135.1380 C   0  0  0  0  0  0  0  0  0  0  0  0
  190.8130  173.9340  135.0440 N   0  0  0  0  0  0  0  0  0  0  0  0
  189.1600  175.4250  135.9380 C   0  0  2  0  0  3  0  0  0  0  0  0
  189.3340  171.9080  134.8520 C   0  0  0  0  0  3  0  0  0  0  0  0
  190.5860  175.3470  135.3450 C   0  0  0  0  0  2  0  0  0  0  0  0
  187.0130  172.2730  135.5230 C   0  0  0  0  0  3  0  0  0  0  0  0
  187.2950  173.6170  135.8210 C   0  0  0  0  0  3  0  0  0  0  0  0
  192.1150  173.2960  134.9100 C   0  0  0  0  0  2  0  0  0  0  0  0
  192.3510  172.3530  136.0950 C   0  0  0  0  0  2  0  0  0  0  0  0
  193.5850  172.6070  136.7080 O   0  0  0  0  0  0  0  0  0  0  0  0
  194.4680  171.5970  136.2860 C   0  0  2  0  0  3  0  0  0  0  0  0
  193.7270  170.2730  136.1120 C   0  0  0  0  0  1  0  0  0  0  0  0
  195.0460  171.5320  138.6080 O   0  0  0  0  0  1  0  0  0  0  0  0
  195.5840  171.4190  137.3190 C   0  0  2  0  0  3  0  0  0  0  0  0
  198.2870  174.9240  136.0110 C   0  0  0  0  0  3  0  0  0  0  0  0
  197.3880  174.5740  138.3260 C   0  0  0  0  0  0  0  0  0  0  0  0
  196.7660  173.3850  138.2500 C   0  0  0  0  0  3  0  0  0  0  0  0
  196.7180  172.4320  137.1000 C   0  0  2  0  0  3  0  0  0  0  0  0
  197.9090  173.6360  135.3590 C   0  0  0  0  0  2  0  0  0  0  0  0
  196.5390  173.1680  135.7880 C   0  0  0  0  0  2  0  0  0  0  0  0
  198.0680  175.2520  137.2510 N   0  0  0  0  0  0  0  0  0  0  0  0
  197.3210  175.2250  139.5140 F   0  0  0  0  0  0  0  0  0  0  0  0
  1 39  1  1  0  0  0
  1  5  1  0  0  0  0
  2  6  1  0  0  0  0
  3  6  1  0  0  0  0
  4  3  1  0  0  0  0
  5  8  1  6  0  0  0
  5  4  1  0  0  0  0
  5  2  1  0  0  0  0
  6 13  1  0  0  0  0
  7  8  1  0  0  0  0
  8  9  2  0  0  0  0
 10  7  1  0  0  0  0
 11 10  1  0  0  0  0
 13 12  1  6  0  0  0
 14 20  1  0  0  0  0
 15 24  1  0  0  0  0
 16 13  1  6  0  0  0
 16 22  1  0  0  0  0
 16 18  1  0  0  0  0
 17 22  1  1  0  0  0
 17 19  1  0  0  0  0
 17 23  1  0  0  0  0
 18 25  1  0  0  0  0
 18 21  1  0  0  0  0
 19 14  1  0  0  0  0
 21 23  1  0  0  0  0
 23 24  1  0  0  0  0
 24 20  1  0  0  0  0
 25 21  1  0  0  0  0
 25 27  1  0  0  0  0
 27 26  1  0  0  0  0
 28 27  2  0  0  0  0
 29  1  1  0  0  0  0
 29 33  1  0  0  0  0
 30 29  1  0  0  0  0
 31 32  1  0  0  0  0
 31 30  2  0  0  0  0
 33 34  1  0  0  0  0
 35 36  1  0  0  0  0
 36 34  1  0  0  0  0
 36 38  1  0  0  0  0
 38 37  1  0  0  0  0
 40 47  1  0  0  0  0
 41 48  1  0  0  0  0
 41 44  1  0  0  0  0
 42 41  2  0  0  0  0
 43 42  1  0  0  0  0
 43 46  1  0  0  0  0
 44 39  1  0  0  0  0
 45 40  2  0  0  0  0
 45 42  1  0  0  0  0
 46 44  1  0  0  0  0
 47 48  2  0  0  0  0
 49 43  1  0  0  0  0
 49 50  1  0  0  0  0
 50 51  1  0  0  0  0
 52 51  1  0  0  0  0
 52 55  1  0  0  0  0
 53 52  1  0  0  0  0
 55 54  1  0  0  0  0
 56 62  2  0  0  0  0
 57 63  1  0  0  0  0
 58 57  2  0  0  0  0
 59 55  1  0  0  0  0
 59 58  1  0  0  0  0
 60 61  1  0  0  0  0
 60 56  1  0  0  0  0
 61 59  1  0  0  0  0
 62 57  1  0  0  0  0
M  END
>  <MODEL>
8

>  <REMARK>
 VINA RESULT:      -3.9      2.691      9.354
  Name = 
  20 active torsions:
  status: ('A' for Active; 'I' for Inactive)
    1  A    between atoms: C_2  and  O_14
    2  A    between atoms: C_2  and  C_27
    3  A    between atoms: C_5  and  C_35
    4  A    between atoms: C_5  and  C_41
    5  A    between atoms: C_8  and  O_14
    6  A    between atoms: C_8  and  C_23
    7  A    between atoms: O_9  and  N_22
    8  A    between atoms: C_10  and  C_41
    9  A    between atoms: C_20  and  C_62
   10  A    between atoms: C_23  and  C_45
   11  A    between atoms: C_26  and  C_35
   12  A    between atoms: C_26  and  C_46
   13  A    between atoms: C_27  and  N_37
   14  A    between atoms: C_33  and  C_59
   15  A    between atoms: C_36  and  C_43
   16  A    between atoms: C_36  and  C_61
   17  A    between atoms: C_38  and  C_60
   18  A    between atoms: C_41  and  C_61
   19  A    between atoms: N_57  and  C_62
   20  A    between atoms: C_60  and  C_61
                            x       y       z     vdW  Elec       q    Type
                         _______ _______ _______ _____ _____    ______ ____

>  <TORSDO>
F 20

$$$$
=
 OpenBabel10222420293D

 63 69  0  0  1  0  0  0  0  0999 V2000
  189.5260  177.2750  138.9360 C   0  0  2  0  0  3  0  0  0  0  0  0
  190.4710  178.2770  141.0710 C   0  0  0  0  0  2  0  0  0  0  0  0
  189.9800  176.4540  142.3900 C   0  0  0  0  0  2  0  0  0  0  0  0
  190.1130  175.9110  140.9790 C   0  0  0  0  0  2  0  0  0  0  0  0
  190.5200  177.1010  140.1130 C   0  0  1  0  0  0  0  0  0  0  0  0
  190.6690  177.7310  142.4130 N   0  0  0  0  0  0  0  0  0  0  0  0
  192.2200  176.1180  138.4630 N   0  0  0  0  0  2  0  0  0  0  0  0
  191.9380  176.9260  139.6130 C   0  0  0  0  0  0  0  0  0  0  0  0
  192.8930  177.4800  140.2230 O   0  0  0  0  0  0  0  0  0  0  0  0
  193.4920  175.9420  138.0290 O   0  0  0  0  0  0  0  0  0  0  0  0
  193.5230  176.4980  136.7460 C   0  0  0  0  0  1  0  0  0  0  0  0
  191.1180  179.1360  144.4730 C   0  0  0  0  0  1  0  0  0  0  0  0
  190.1020  178.5790  143.4750 C   0  0  2  0  0  3  0  0  0  0  0  0
  184.2150  178.5130  144.5230 C   0  0  0  0  0  2  0  0  0  0  0  0
  185.3570  176.2670  145.4010 O   0  0  0  0  0  1  0  0  0  0  0  0
  188.9220  177.8990  144.1760 C   0  0  1  0  0  3  0  0  0  0  0  0
  186.6660  179.0320  144.6690 C   0  0  2  0  0  3  0  0  0  0  0  0
  188.9340  178.2470  145.5970 N   0  0  1  0  0  0  0  0  0  0  0  0
  185.3020  179.5260  144.1920 C   0  0  0  0  0  2  0  0  0  0  0  0
  184.2250  178.2290  145.9040 O   0  0  0  0  0  0  0  0  0  0  0  0
  187.8650  177.3130  146.0360 C   0  0  2  0  0  3  0  0  0  0  0  0
  187.5450  178.3640  143.5710 C   0  0  0  0  0  2  0  0  0  0  0  0
  186.6510  178.2470  146.0280 C   0  0  2  0  0  3  0  0  0  0  0  0
  185.3540  177.4320  146.1820 C   0  0  2  0  0  3  0  0  0  0  0  0
  189.1810  177.2820  146.6690 C   0  0  2  0  0  3  0  0  0  0  0  0
  188.2020  177.4850  148.9590 O   0  0  0  0  0  1  0  0  0  0  0  0
  189.1050  177.9470  148.0100 C   0  0  0  0  0  0  0  0  0  0  0  0
  189.8650  178.9150  148.2930 O   0  0  0  0  0  0  0  0  0  0  0  0
  188.5760  178.4900  139.0650 C   0  0  1  0  0  3  0  0  0  0  0  0
  188.6950  179.3210  137.8150 C   0  0  0  0  0  3  0  0  0  0  0  0
  187.8340  179.3140  136.8520 N   0  0  0  0  0  0  0  0  0  0  0  0
  186.6500  178.4980  136.8560 C   0  0  0  0  0  1  0  0  0  0  0  0
  187.1190  178.0940  139.3290 C   0  0  0  0  0  2  0  0  0  0  0  0
  186.6060  178.6360  140.6520 C   0  0  0  0  0  2  0  0  0  0  0  0
  184.7910  179.3130  139.1120 C   0  0  0  0  0  1  0  0  0  0  0  0
  185.1390  179.0200  140.5620 C   0  0  1  0  0  3  0  0  0  0  0  0
  183.1860  177.6760  140.1970 O   0  0  0  0  0  1  0  0  0  0  0  0
  184.2610  177.8850  141.0640 C   0  0  0  0  0  2  0  0  0  0  0  0
  188.8060  175.9740  138.5580 C   0  0  0  0  0  2  0  0  0  0  0  0
  187.5470  171.9270  136.0400 C   0  0  0  0  0  3  0  0  0  0  0  0
  187.9540  174.5840  136.7360 C   0  0  0  0  0  0  0  0  0  0  0  0
  188.9180  173.8970  136.0490 C   0  0  0  0  0  0  0  0  0  0  0  0
  190.0510  174.7100  135.8190 N   0  0  0  0  0  0  0  0  0  0  0  0
  188.4380  175.9550  137.0850 C   0  0  2  0  0  3  0  0  0  0  0  0
  188.7550  172.5580  135.6920 C   0  0  0  0  0  3  0  0  0  0  0  0
  189.7480  176.0670  136.2700 C   0  0  0  0  0  2  0  0  0  0  0  0
  186.5530  172.6310  136.7490 C   0  0  0  0  0  3  0  0  0  0  0  0
  186.7550  173.9730  137.1120 C   0  0  0  0  0  3  0  0  0  0  0  0
  191.3670  174.2230  135.4280 C   0  0  0  0  0  2  0  0  0  0  0  0
  191.7480  173.0170  136.2950 C   0  0  0  0  0  2  0  0  0  0  0  0
  193.1150  173.0250  136.6030 O   0  0  0  0  0  0  0  0  0  0  0  0
  193.7510  172.1910  135.6660 C   0  0  2  0  0  3  0  0  0  0  0  0
  192.8290  171.0460  135.2510 C   0  0  0  0  0  1  0  0  0  0  0  0
  194.7710  171.1730  137.5780 O   0  0  0  0  0  1  0  0  0  0  0  0
  195.0320  171.6120  136.2730 C   0  0  2  0  0  3  0  0  0  0  0  0
  197.7600  175.2890  135.6870 C   0  0  0  0  0  3  0  0  0  0  0  0
  196.9030  174.4580  137.8920 C   0  0  0  0  0  0  0  0  0  0  0  0
  196.2620  173.3190  137.5770 C   0  0  0  0  0  3  0  0  0  0  0  0
  196.1760  172.6370  136.2510 C   0  0  2  0  0  3  0  0  0  0  0  0
  197.3500  174.1750  134.7820 C   0  0  0  0  0  2  0  0  0  0  0  0
  195.9810  173.6390  135.1320 C   0  0  0  0  0  2  0  0  0  0  0  0
  197.5710  175.3450  136.9720 N   0  0  0  0  0  0  0  0  0  0  0  0
  196.8690  174.8390  139.1940 F   0  0  0  0  0  0  0  0  0  0  0  0
  1 39  1  1  0  0  0
  1 29  1  0  0  0  0
  1  5  1  0  0  0  0
  2  6  1  0  0  0  0
  3  6  1  0  0  0  0
  4  3  1  0  0  0  0
  5  8  1  6  0  0  0
  5  4  1  0  0  0  0
  5  2  1  0  0  0  0
  6 13  1  0  0  0  0
  7  8  1  0  0  0  0
  8  9  2  0  0  0  0
 10  7  1  0  0  0  0
 11 10  1  0  0  0  0
 13 12  1  1  0  0  0
 14 20  1  0  0  0  0
 15 24  1  0  0  0  0
 16 13  1  6  0  0  0
 16 18  1  0  0  0  0
 17 22  1  6  0  0  0
 17 23  1  0  0  0  0
 18 21  1  0  0  0  0
 18 25  1  0  0  0  0
 19 14  1  0  0  0  0
 19 17  1  0  0  0  0
 20 24  1  0  0  0  0
 21 25  1  0  0  0  0
 22 16  1  0  0  0  0
 23 21  1  0  0  0  0
 23 24  1  0  0  0  0
 25 27  1  0  0  0  0
 27 28  2  0  0  0  0
 27 26  1  0  0  0  0
 29 33  1  0  0  0  0
 30 29  1  0  0  0  0
 31 32  1  0  0  0  0
 31 30  2  0  0  0  0
 33 34  1  0  0  0  0
 35 36  1  0  0  0  0
 36 34  1  0  0  0  0
 36 38  1  0  0  0  0
 37 38  1  0  0  0  0
 40 47  1  0  0  0  0
 41 44  1  0  0  0  0
 41 48  1  0  0  0  0
 42 41  2  0  0  0  0
 43 42  1  0  0  0  0
 43 46  1  0  0  0  0
 44 39  1  0  0  0  0
 45 40  2  0  0  0  0
 45 42  1  0  0  0  0
 46 44  1  0  0  0  0
 47 48  2  0  0  0  0
 49 43  1  0  0  0  0
 49 50  1  0  0  0  0
 50 51  1  0  0  0  0
 52 55  1  0  0  0  0
 52 51  1  0  0  0  0
 53 52  1  0  0  0  0
 55 54  1  0  0  0  0
 56 62  2  0  0  0  0
 57 63  1  0  0  0  0
 58 57  2  0  0  0  0
 59 55  1  0  0  0  0
 59 58  1  0  0  0  0
 60 61  1  0  0  0  0
 60 56  1  0  0  0  0
 61 59  1  0  0  0  0
 62 57  1  0  0  0  0
M  END
>  <MODEL>
9

>  <REMARK>
 VINA RESULT:      -3.9      2.570      9.611
  Name = 
  20 active torsions:
  status: ('A' for Active; 'I' for Inactive)
    1  A    between atoms: C_2  and  O_14
    2  A    between atoms: C_2  and  C_27
    3  A    between atoms: C_5  and  C_35
    4  A    between atoms: C_5  and  C_41
    5  A    between atoms: C_8  and  O_14
    6  A    between atoms: C_8  and  C_23
    7  A    between atoms: O_9  and  N_22
    8  A    between atoms: C_10  and  C_41
    9  A    between atoms: C_20  and  C_62
   10  A    between atoms: C_23  and  C_45
   11  A    between atoms: C_26  and  C_35
   12  A    between atoms: C_26  and  C_46
   13  A    between atoms: C_27  and  N_37
   14  A    between atoms: C_33  and  C_59
   15  A    between atoms: C_36  and  C_43
   16  A    between atoms: C_36  and  C_61
   17  A    between atoms: C_38  and  C_60
   18  A    between atoms: C_41  and  C_61
   19  A    between atoms: N_57  and  C_62
   20  A    between atoms: C_60  and  C_61
                            x       y       z     vdW  Elec       q    Type
                         _______ _______ _______ _____ _____    ______ ____

>  <TORSDO>
F 20

$$$$
