=
 OpenBabel10222416043D

 32 33  0  0  1  0  0  0  0  0999 V2000
  189.2340  177.8460  142.2940 C   0  0  1  0  0  3  0  0  0  0  0  0
  189.7140  177.0470  143.4730 C   0  0  1  0  0  3  0  0  0  0  0  0
  189.5430  176.9570  141.1030 C   0  0  2  0  0  3  0  0  0  0  0  0
  190.1160  175.7230  142.8630 C   0  0  0  0  0  2  0  0  0  0  0  0
  190.4140  175.9350  141.5100 O   0  0  0  0  0  0  0  0  0  0  0  0
  187.7970  178.0540  142.4000 N   0  0  0  0  0  2  0  0  0  0  0  0
  187.1110  178.1000  143.6550 C   0  0  0  0  0  0  0  0  0  0  0  0
  187.7470  177.9150  144.7290 O   0  0  0  0  0  0  0  0  0  0  0  0
  183.6460  178.8800  144.9500 C   0  0  0  0  0  3  0  0  0  0  0  0
  185.0230  178.6390  144.9130 C   0  0  0  0  0  3  0  0  0  0  0  0
  183.5270  178.5740  142.5510 C   0  0  0  0  0  3  0  0  0  0  0  0
  185.6620  178.3630  143.6940 C   0  0  0  0  0  0  0  0  0  0  0  0
  182.8980  178.8480  143.7700 C   0  0  0  0  0  0  0  0  0  0  0  0
  184.9030  178.3320  142.5140 C   0  0  0  0  0  3  0  0  0  0  0  0
  181.5620  179.0750  143.8070 F   0  0  0  0  0  0  0  0  0  0  0  0
  190.8420  177.6650  144.0190 O   0  0  0  0  0  0  0  0  0  0  0  0
  191.4730  176.6620  144.7580 C   0  0  0  0  0  2  0  0  0  0  0  0
  191.2590  176.9100  146.2400 C   0  0  0  0  0  2  0  0  0  0  0  0
  192.5350  176.4760  148.2810 O   0  0  0  0  0  0  0  0  0  0  0  0
  192.1780  176.0900  147.0120 N   0  0  0  0  0  0  0  0  0  0  0  0
  192.5060  174.9630  146.5920 O   0  0  0  0  0  0  0  0  0  0  0  0
  190.1560  177.7590  139.9620 C   0  0  0  0  0  2  0  0  0  0  0  0
  189.1600  178.3420  139.1730 O   0  0  0  0  0  0  0  0  0  0  0  0
  188.8640  177.3780  138.2050 C   0  0  0  0  0  2  0  0  0  0  0  0
  187.8250  177.9150  137.2350 C   0  0  0  0  0  2  0  0  0  0  0  0
  186.4250  177.6140  137.7360 C   0  0  0  0  0  2  0  0  0  0  0  0
  184.1610  180.0980  139.2960 N   0  0  0  0  0  2  0  0  0  0  0  0
  184.5030  178.9920  138.7230 C   0  0  0  0  0  0  0  0  0  0  0  0
  185.8830  178.7960  138.3870 N   0  0  0  0  0  2  0  0  0  0  0  0
  183.2450  176.9550  139.3800 O   0  0  0  0  0  1  0  0  0  0  0  0
  182.7610  178.0110  137.4130 O   0  0  0  0  0  0  0  0  0  0  0  0
  183.4620  177.9740  138.4580 C   0  0  0  0  0  0  0  0  0  0  0  0
  1  6  1  1  0  0  0
  1  2  1  0  0  0  0
  2 16  1  6  0  0  0
  3 22  1  6  0  0  0
  3  5  1  0  0  0  0
  3  1  1  0  0  0  0
  4  2  1  0  0  0  0
  5  4  1  0  0  0  0
  6  7  1  0  0  0  0
  7 12  1  0  0  0  0
  7  8  2  0  0  0  0
 10  9  1  0  0  0  0
 11 13  1  0  0  0  0
 12 10  2  0  0  0  0
 13 15  1  0  0  0  0
 13  9  2  0  0  0  0
 14 11  2  0  0  0  0
 14 12  1  0  0  0  0
 16 17  1  0  0  0  0
 17 18  1  0  0  0  0
 18 20  1  0  0  0  0
 20 19  2  0  0  0  0
 21 20  2  0  0  0  0
 23 22  1  0  0  0  0
 24 23  1  0  0  0  0
 25 26  1  0  0  0  0
 25 24  1  0  0  0  0
 26 29  1  0  0  0  0
 28 27  2  0  0  0  0
 29 28  1  0  0  0  0
 31 32  2  0  0  0  0
 32 28  1  0  0  0  0
 32 30  1  0  0  0  0
M  END
>  <MODEL>
1

>  <REMARK>
 VINA RESULT:      -7.4      0.000      0.000
  Name = 
  13 active torsions:
  status: ('A' for Active; 'I' for Inactive)
    1  A    between atoms: N_2  and  C_11
    2  A    between atoms: C_4  and  C_15
    3  A    between atoms: C_4  and  O_16
    4  A    between atoms: O_7  and  C_14
    5  A    between atoms: O_7  and  C_18
    6  A    between atoms: C_9  and  C_29
    7  A    between atoms: C_10  and  C_21
    8  A    between atoms: C_15  and  C_20
    9  A    between atoms: O_16  and  C_23
   10  A    between atoms: C_17  and  C_23
   11  A    between atoms: C_18  and  C_24
   12  A    between atoms: C_20  and  N_30
   13  A    between atoms: C_24  and  N_25
                            x       y       z     vdW  Elec       q    Type
                         _______ _______ _______ _____ _____    ______ ____

>  <TORSDO>
F 13

$$$$
=
 OpenBabel10222416043D

 32 33  0  0  1  0  0  0  0  0999 V2000
  188.6510  177.1860  140.4040 C   0  0  1  0  0  3  0  0  0  0  0  0
  188.0850  177.6930  139.1070 C   0  0  1  0  0  3  0  0  0  0  0  0
  190.0420  177.7920  140.4540 C   0  0  2  0  0  3  0  0  0  0  0  0
  189.1420  178.6530  138.6100 C   0  0  0  0  0  2  0  0  0  0  0  0
  190.3690  178.2910  139.1830 O   0  0  0  0  0  0  0  0  0  0  0  0
  187.8520  177.6860  141.5130 N   0  0  0  0  0  2  0  0  0  0  0  0
  187.7100  176.9760  142.7480 C   0  0  0  0  0  0  0  0  0  0  0  0
  188.2570  175.8490  142.8940 O   0  0  0  0  0  0  0  0  0  0  0  0
  186.6280  178.0070  146.2210 C   0  0  0  0  0  3  0  0  0  0  0  0
  187.3770  177.4580  145.1750 C   0  0  0  0  0  3  0  0  0  0  0  0
  184.9690  178.7710  144.6320 C   0  0  0  0  0  3  0  0  0  0  0  0
  186.9270  177.5620  143.8500 C   0  0  0  0  0  0  0  0  0  0  0  0
  185.4250  178.6630  145.9490 C   0  0  0  0  0  0  0  0  0  0  0  0
  185.7170  178.2230  143.5860 C   0  0  0  0  0  3  0  0  0  0  0  0
  184.6940  179.1890  146.9640 F   0  0  0  0  0  0  0  0  0  0  0  0
  187.9690  176.6290  138.2090 O   0  0  0  0  0  0  0  0  0  0  0  0
  187.2780  177.1600  137.1180 C   0  0  0  0  0  2  0  0  0  0  0  0
  186.1380  176.2330  136.7370 C   0  0  0  0  0  2  0  0  0  0  0  0
  183.9600  175.7590  137.7430 O   0  0  0  0  0  0  0  0  0  0  0  0
  184.9100  176.6800  137.3720 N   0  0  0  0  0  0  0  0  0  0  0  0
  184.7930  177.8690  137.7280 O   0  0  0  0  0  0  0  0  0  0  0  0
  191.0730  176.7660  140.9070 C   0  0  0  0  0  2  0  0  0  0  0  0
  191.1700  176.7420  142.3010 O   0  0  0  0  0  0  0  0  0  0  0  0
  191.4200  178.0680  142.6640 C   0  0  0  0  0  2  0  0  0  0  0  0
  191.1970  178.2520  144.1560 C   0  0  0  0  0  2  0  0  0  0  0  0
  190.9620  176.9120  144.8270 C   0  0  0  0  0  2  0  0  0  0  0  0
  192.2940  176.7650  148.2810 N   0  0  0  0  0  2  0  0  0  0  0  0
  191.4060  176.8820  147.3510 C   0  0  0  0  0  0  0  0  0  0  0  0
  191.8340  176.7940  145.9850 N   0  0  0  0  0  2  0  0  0  0  0  0
  189.5660  178.3330  148.1720 O   0  0  0  0  0  1  0  0  0  0  0  0
  189.1570  176.1400  147.6760 O   0  0  0  0  0  0  0  0  0  0  0  0
  189.9910  177.0810  147.7360 C   0  0  0  0  0  0  0  0  0  0  0  0
  1  3  1  0  0  0  0
  1  6  1  1  0  0  0
  2 16  1  6  0  0  0
  2  1  1  0  0  0  0
  3 22  1  6  0  0  0
  4  2  1  0  0  0  0
  4  5  1  0  0  0  0
  5  3  1  0  0  0  0
  6  7  1  0  0  0  0
  7  8  2  0  0  0  0
  7 12  1  0  0  0  0
 10  9  2  0  0  0  0
 11 13  2  0  0  0  0
 12 10  1  0  0  0  0
 13  9  1  0  0  0  0
 13 15  1  0  0  0  0
 14 12  2  0  0  0  0
 14 11  1  0  0  0  0
 17 16  1  0  0  0  0
 18 17  1  0  0  0  0
 18 20  1  0  0  0  0
 20 21  2  0  0  0  0
 20 19  2  0  0  0  0
 22 23  1  0  0  0  0
 23 24  1  0  0  0  0
 24 25  1  0  0  0  0
 25 26  1  0  0  0  0
 26 29  1  0  0  0  0
 28 32  1  0  0  0  0
 28 27  2  0  0  0  0
 29 28  1  0  0  0  0
 31 32  2  0  0  0  0
 32 30  1  0  0  0  0
M  END
>  <MODEL>
2

>  <REMARK>
 VINA RESULT:      -7.3      2.207      7.517
  Name = 
  13 active torsions:
  status: ('A' for Active; 'I' for Inactive)
    1  A    between atoms: N_2  and  C_11
    2  A    between atoms: C_4  and  C_15
    3  A    between atoms: C_4  and  O_16
    4  A    between atoms: O_7  and  C_14
    5  A    between atoms: O_7  and  C_18
    6  A    between atoms: C_9  and  C_29
    7  A    between atoms: C_10  and  C_21
    8  A    between atoms: C_15  and  C_20
    9  A    between atoms: O_16  and  C_23
   10  A    between atoms: C_17  and  C_23
   11  A    between atoms: C_18  and  C_24
   12  A    between atoms: C_20  and  N_30
   13  A    between atoms: C_24  and  N_25
                            x       y       z     vdW  Elec       q    Type
                         _______ _______ _______ _____ _____    ______ ____

>  <TORSDO>
F 13

$$$$
=
 OpenBabel10222416043D

 32 33  0  0  1  0  0  0  0  0999 V2000
  188.6510  177.1680  140.0940 C   0  0  1  0  0  3  0  0  0  0  0  0
  187.9070  177.5790  138.8540 C   0  0  1  0  0  3  0  0  0  0  0  0
  189.9690  177.9140  139.9900 C   0  0  2  0  0  3  0  0  0  0  0  0
  188.8040  178.6280  138.2350 C   0  0  0  0  0  2  0  0  0  0  0  0
  190.1130  178.4090  138.6850 O   0  0  0  0  0  0  0  0  0  0  0  0
  187.9200  177.6140  141.2710 N   0  0  0  0  0  2  0  0  0  0  0  0
  187.9930  176.9380  142.5300 C   0  0  0  0  0  0  0  0  0  0  0  0
  188.6810  175.8860  142.6430 O   0  0  0  0  0  0  0  0  0  0  0  0
  185.3510  178.6370  144.6350 C   0  0  0  0  0  3  0  0  0  0  0  0
  186.0360  178.1240  143.5280 C   0  0  0  0  0  3  0  0  0  0  0  0
  187.1170  177.8500  146.0920 C   0  0  0  0  0  3  0  0  0  0  0  0
  187.2660  177.4700  143.6970 C   0  0  0  0  0  0  0  0  0  0  0  0
  185.8910  178.5000  145.9160 C   0  0  0  0  0  0  0  0  0  0  0  0
  187.8020  177.3380  144.9870 C   0  0  0  0  0  3  0  0  0  0  0  0
  185.2310  179.0030  146.9880 F   0  0  0  0  0  0  0  0  0  0  0  0
  187.8130  176.4850  137.9900 O   0  0  0  0  0  0  0  0  0  0  0  0
  186.7930  176.8250  137.0990 C   0  0  0  0  0  2  0  0  0  0  0  0
  186.3520  175.5890  136.3360 C   0  0  0  0  0  2  0  0  0  0  0  0
  187.5440  173.5120  136.8370 O   0  0  0  0  0  0  0  0  0  0  0  0
  187.4860  174.6990  136.1470 N   0  0  0  0  0  0  0  0  0  0  0  0
  188.3130  174.9310  135.2430 O   0  0  0  0  0  0  0  0  0  0  0  0
  191.1420  177.0120  140.3520 C   0  0  0  0  0  2  0  0  0  0  0  0
  192.0640  177.6920  141.1530 O   0  0  0  0  0  0  0  0  0  0  0  0
  191.8110  177.2370  142.4500 C   0  0  0  0  0  2  0  0  0  0  0  0
  191.5260  178.4140  143.3690 C   0  0  0  0  0  2  0  0  0  0  0  0
  191.0500  177.9250  144.7240 C   0  0  0  0  0  2  0  0  0  0  0  0
  192.4790  174.9930  146.4810 N   0  0  0  0  0  2  0  0  0  0  0  0
  191.8810  176.1310  146.3530 C   0  0  0  0  0  0  0  0  0  0  0  0
  191.6950  176.6600  145.0340 N   0  0  0  0  0  2  0  0  0  0  0  0
  192.3120  177.2340  148.5350 O   0  0  0  0  0  1  0  0  0  0  0  0
  190.1740  177.0530  147.7500 O   0  0  0  0  0  0  0  0  0  0  0  0
  191.3990  176.8230  147.5690 C   0  0  0  0  0  0  0  0  0  0  0  0
  1  6  1  1  0  0  0
  2 16  1  6  0  0  0
  2  1  1  0  0  0  0
  3  1  1  0  0  0  0
  3 22  1  6  0  0  0
  4  5  1  0  0  0  0
  4  2  1  0  0  0  0
  5  3  1  0  0  0  0
  6  7  1  0  0  0  0
  7  8  2  0  0  0  0
  7 12  1  0  0  0  0
  9 13  1  0  0  0  0
 10 12  1  0  0  0  0
 10  9  2  0  0  0  0
 12 14  2  0  0  0  0
 13 11  2  0  0  0  0
 13 15  1  0  0  0  0
 14 11  1  0  0  0  0
 17 16  1  0  0  0  0
 18 17  1  0  0  0  0
 20 18  1  0  0  0  0
 20 19  2  0  0  0  0
 21 20  2  0  0  0  0
 22 23  1  0  0  0  0
 23 24  1  0  0  0  0
 24 25  1  0  0  0  0
 25 26  1  0  0  0  0
 26 29  1  0  0  0  0
 28 27  2  0  0  0  0
 28 32  1  0  0  0  0
 29 28  1  0  0  0  0
 32 31  2  0  0  0  0
 32 30  1  0  0  0  0
M  END
>  <MODEL>
3

>  <REMARK>
 VINA RESULT:      -7.1      2.613      7.655
  Name = 
  13 active torsions:
  status: ('A' for Active; 'I' for Inactive)
    1  A    between atoms: N_2  and  C_11
    2  A    between atoms: C_4  and  C_15
    3  A    between atoms: C_4  and  O_16
    4  A    between atoms: O_7  and  C_14
    5  A    between atoms: O_7  and  C_18
    6  A    between atoms: C_9  and  C_29
    7  A    between atoms: C_10  and  C_21
    8  A    between atoms: C_15  and  C_20
    9  A    between atoms: O_16  and  C_23
   10  A    between atoms: C_17  and  C_23
   11  A    between atoms: C_18  and  C_24
   12  A    between atoms: C_20  and  N_30
   13  A    between atoms: C_24  and  N_25
                            x       y       z     vdW  Elec       q    Type
                         _______ _______ _______ _____ _____    ______ ____

>  <TORSDO>
F 13

$$$$
=
 OpenBabel10222416043D

 32 33  0  0  1  0  0  0  0  0999 V2000
  188.6980  178.1090  142.1190 C   0  0  1  0  0  3  0  0  0  0  0  0
  189.6760  177.5640  143.1210 C   0  0  1  0  0  3  0  0  0  0  0  0
  188.7470  177.1060  140.9810 C   0  0  2  0  0  3  0  0  0  0  0  0
  190.0820  176.2320  142.5310 C   0  0  0  0  0  2  0  0  0  0  0  0
  189.8710  176.2820  141.1470 O   0  0  0  0  0  0  0  0  0  0  0  0
  187.3640  178.1330  142.7030 N   0  0  0  0  0  2  0  0  0  0  0  0
  186.2930  178.9100  142.1570 C   0  0  0  0  0  0  0  0  0  0  0  0
  186.4960  179.6470  141.1530 O   0  0  0  0  0  0  0  0  0  0  0  0
  183.5320  178.8620  144.7400 C   0  0  0  0  0  3  0  0  0  0  0  0
  184.8040  178.9290  144.1610 C   0  0  0  0  0  3  0  0  0  0  0  0
  182.5430  178.6380  142.5420 C   0  0  0  0  0  3  0  0  0  0  0  0
  184.9530  178.8500  142.7680 C   0  0  0  0  0  0  0  0  0  0  0  0
  182.4030  178.7170  143.9310 C   0  0  0  0  0  0  0  0  0  0  0  0
  183.8130  178.7040  141.9630 C   0  0  0  0  0  3  0  0  0  0  0  0
  181.1700  178.6460  144.4930 F   0  0  0  0  0  0  0  0  0  0  0  0
  190.7920  178.4030  143.1780 O   0  0  0  0  0  0  0  0  0  0  0  0
  191.6650  177.7720  144.0660 C   0  0  0  0  0  2  0  0  0  0  0  0
  190.9730  177.5700  145.4020 C   0  0  0  0  0  2  0  0  0  0  0  0
  191.9270  176.9000  147.5530 O   0  0  0  0  0  0  0  0  0  0  0  0
  191.7400  176.6420  146.2160 N   0  0  0  0  0  0  0  0  0  0  0  0
  192.0810  175.5390  145.7450 O   0  0  0  0  0  0  0  0  0  0  0  0
  188.7930  177.8080  139.6300 C   0  0  0  0  0  2  0  0  0  0  0  0
  190.0850  177.7750  139.0970 O   0  0  0  0  0  0  0  0  0  0  0  0
  189.9090  177.4150  137.7580 C   0  0  0  0  0  2  0  0  0  0  0  0
  190.0820  175.9140  137.5940 C   0  0  0  0  0  2  0  0  0  0  0  0
  191.4890  175.4970  137.9790 C   0  0  0  0  0  2  0  0  0  0  0  0
  194.5830  176.5830  136.2550 N   0  0  0  0  0  2  0  0  0  0  0  0
  193.8480  175.8900  137.0600 C   0  0  0  0  0  0  0  0  0  0  0  0
  192.4450  176.1790  137.1230 N   0  0  0  0  0  2  0  0  0  0  0  0
  195.2390  175.1570  138.9810 O   0  0  0  0  0  1  0  0  0  0  0  0
  194.3500  173.6070  137.5580 O   0  0  0  0  0  0  0  0  0  0  0  0
  194.4820  174.8210  137.8630 C   0  0  0  0  0  0  0  0  0  0  0  0
  1  6  1  1  0  0  0
  1  2  1  0  0  0  0
  2 16  1  6  0  0  0
  3 22  1  6  0  0  0
  3  5  1  0  0  0  0
  3  1  1  0  0  0  0
  4  2  1  0  0  0  0
  5  4  1  0  0  0  0
  7  6  1  0  0  0  0
  7 12  1  0  0  0  0
  8  7  2  0  0  0  0
 10  9  1  0  0  0  0
 11 13  1  0  0  0  0
 12 10  2  0  0  0  0
 13 15  1  0  0  0  0
 13  9  2  0  0  0  0
 14 11  2  0  0  0  0
 14 12  1  0  0  0  0
 16 17  1  0  0  0  0
 17 18  1  0  0  0  0
 18 20  1  0  0  0  0
 20 19  2  0  0  0  0
 21 20  2  0  0  0  0
 23 22  1  0  0  0  0
 24 23  1  0  0  0  0
 25 24  1  0  0  0  0
 25 26  1  0  0  0  0
 27 28  2  0  0  0  0
 28 29  1  0  0  0  0
 28 32  1  0  0  0  0
 29 26  1  0  0  0  0
 31 32  2  0  0  0  0
 32 30  1  0  0  0  0
M  END
>  <MODEL>
4

>  <REMARK>
 VINA RESULT:      -7.1      3.106      4.985
  Name = 
  13 active torsions:
  status: ('A' for Active; 'I' for Inactive)
    1  A    between atoms: N_2  and  C_11
    2  A    between atoms: C_4  and  C_15
    3  A    between atoms: C_4  and  O_16
    4  A    between atoms: O_7  and  C_14
    5  A    between atoms: O_7  and  C_18
    6  A    between atoms: C_9  and  C_29
    7  A    between atoms: C_10  and  C_21
    8  A    between atoms: C_15  and  C_20
    9  A    between atoms: O_16  and  C_23
   10  A    between atoms: C_17  and  C_23
   11  A    between atoms: C_18  and  C_24
   12  A    between atoms: C_20  and  N_30
   13  A    between atoms: C_24  and  N_25
                            x       y       z     vdW  Elec       q    Type
                         _______ _______ _______ _____ _____    ______ ____

>  <TORSDO>
F 13

$$$$
=
 OpenBabel10222416043D

 32 33  0  0  1  0  0  0  0  0999 V2000
  188.8440  177.2300  140.0240 C   0  0  1  0  0  3  0  0  0  0  0  0
  187.9820  178.1100  139.1620 C   0  0  1  0  0  3  0  0  0  0  0  0
  190.2600  177.6060  139.6250 C   0  0  2  0  0  3  0  0  0  0  0  0
  188.9800  179.0040  138.4610 C   0  0  0  0  0  2  0  0  0  0  0  0
  190.2170  178.3470  138.4340 O   0  0  0  0  0  0  0  0  0  0  0  0
  188.6210  177.5530  141.4260 N   0  0  0  0  0  2  0  0  0  0  0  0
  189.0720  176.7150  142.4950 C   0  0  0  0  0  0  0  0  0  0  0  0
  189.6530  175.6250  142.2400 O   0  0  0  0  0  0  0  0  0  0  0  0
  189.7460  177.7830  146.0590 C   0  0  0  0  0  3  0  0  0  0  0  0
  189.9510  177.4030  144.7280 C   0  0  0  0  0  3  0  0  0  0  0  0
  187.3520  177.6150  145.7390 C   0  0  0  0  0  3  0  0  0  0  0  0
  188.8570  177.1250  143.8940 C   0  0  0  0  0  0  0  0  0  0  0  0
  188.4480  177.8900  146.5640 C   0  0  0  0  0  0  0  0  0  0  0  0
  187.5560  177.2340  144.4100 C   0  0  0  0  0  3  0  0  0  0  0  0
  188.2490  178.2520  147.8550 F   0  0  0  0  0  0  0  0  0  0  0  0
  187.3230  177.3220  138.2150 O   0  0  0  0  0  0  0  0  0  0  0  0
  186.3880  178.1780  137.6300 C   0  0  0  0  0  2  0  0  0  0  0  0
  184.9860  177.7090  137.9720 C   0  0  0  0  0  2  0  0  0  0  0  0
  183.0340  178.4960  139.2180 O   0  0  0  0  0  0  0  0  0  0  0  0
  184.3000  178.7340  138.7420 N   0  0  0  0  0  0  0  0  0  0  0  0
  184.9190  179.7520  139.1090 O   0  0  0  0  0  0  0  0  0  0  0  0
  191.1300  176.3680  139.4540 C   0  0  0  0  0  2  0  0  0  0  0  0
  190.5840  175.5040  138.5000 O   0  0  0  0  0  0  0  0  0  0  0  0
  191.6890  174.9270  137.8690 C   0  0  0  0  0  2  0  0  0  0  0  0
  192.4970  175.9950  137.1500 C   0  0  0  0  0  2  0  0  0  0  0  0
  193.9700  175.6360  137.1510 C   0  0  0  0  0  2  0  0  0  0  0  0
  195.1990  172.5110  138.7180 N   0  0  0  0  0  2  0  0  0  0  0  0
  195.1780  173.7690  138.4250 C   0  0  0  0  0  0  0  0  0  0  0  0
  194.1290  174.2550  137.5770 N   0  0  0  0  0  2  0  0  0  0  0  0
  196.0080  175.2710  140.2200 O   0  0  0  0  0  1  0  0  0  0  0  0
  197.3090  174.8510  138.3890 O   0  0  0  0  0  0  0  0  0  0  0  0
  196.2230  174.6510  138.9920 C   0  0  0  0  0  0  0  0  0  0  0  0
  1  6  1  1  0  0  0
  2 16  1  6  0  0  0
  2  1  1  0  0  0  0
  3 22  1  6  0  0  0
  3  1  1  0  0  0  0
  4  2  1  0  0  0  0
  5  4  1  0  0  0  0
  5  3  1  0  0  0  0
  6  7  1  0  0  0  0
  7 12  1  0  0  0  0
  8  7  2  0  0  0  0
  9 13  1  0  0  0  0
 10  9  2  0  0  0  0
 11 13  2  0  0  0  0
 12 14  2  0  0  0  0
 12 10  1  0  0  0  0
 13 15  1  0  0  0  0
 14 11  1  0  0  0  0
 17 18  1  0  0  0  0
 17 16  1  0  0  0  0
 18 20  1  0  0  0  0
 20 21  2  0  0  0  0
 20 19  2  0  0  0  0
 23 22  1  0  0  0  0
 24 23  1  0  0  0  0
 25 26  1  0  0  0  0
 25 24  1  0  0  0  0
 26 29  1  0  0  0  0
 28 27  2  0  0  0  0
 28 32  1  0  0  0  0
 29 28  1  0  0  0  0
 31 32  2  0  0  0  0
 32 30  1  0  0  0  0
M  END
>  <MODEL>
5

>  <REMARK>
 VINA RESULT:      -7.1      4.106      8.082
  Name = 
  13 active torsions:
  status: ('A' for Active; 'I' for Inactive)
    1  A    between atoms: N_2  and  C_11
    2  A    between atoms: C_4  and  C_15
    3  A    between atoms: C_4  and  O_16
    4  A    between atoms: O_7  and  C_14
    5  A    between atoms: O_7  and  C_18
    6  A    between atoms: C_9  and  C_29
    7  A    between atoms: C_10  and  C_21
    8  A    between atoms: C_15  and  C_20
    9  A    between atoms: O_16  and  C_23
   10  A    between atoms: C_17  and  C_23
   11  A    between atoms: C_18  and  C_24
   12  A    between atoms: C_20  and  N_30
   13  A    between atoms: C_24  and  N_25
                            x       y       z     vdW  Elec       q    Type
                         _______ _______ _______ _____ _____    ______ ____

>  <TORSDO>
F 13

$$$$
=
 OpenBabel10222416043D

 32 33  0  0  1  0  0  0  0  0999 V2000
  182.9680  178.4780  141.0410 C   0  0  1  0  0  3  0  0  0  0  0  0
  183.4280  177.5530  139.9500 C   0  0  1  0  0  3  0  0  0  0  0  0
  181.4900  178.1620  141.1850 C   0  0  2  0  0  3  0  0  0  0  0  0
  182.2120  176.6970  139.6750 C   0  0  0  0  0  2  0  0  0  0  0  0
  181.0740  177.4080  140.0770 O   0  0  0  0  0  0  0  0  0  0  0  0
  183.6670  178.1590  142.2780 N   0  0  0  0  0  2  0  0  0  0  0  0
  184.8500  178.8460  142.6980 C   0  0  0  0  0  0  0  0  0  0  0  0
  185.3540  179.7410  141.9660 O   0  0  0  0  0  0  0  0  0  0  0  0
  185.5200  178.6360  146.4130 C   0  0  0  0  0  3  0  0  0  0  0  0
  184.9150  178.9500  145.1910 C   0  0  0  0  0  3  0  0  0  0  0  0
  187.2630  177.4320  145.2410 C   0  0  0  0  0  3  0  0  0  0  0  0
  185.4810  178.5070  143.9860 C   0  0  0  0  0  0  0  0  0  0  0  0
  186.6920  177.8770  146.4380 C   0  0  0  0  0  0  0  0  0  0  0  0
  186.6590  177.7450  144.0210 C   0  0  0  0  0  3  0  0  0  0  0  0
  187.2830  177.5780  147.6220 F   0  0  0  0  0  0  0  0  0  0  0  0
  183.7330  178.3010  138.8100 O   0  0  0  0  0  0  0  0  0  0  0  0
  185.1200  178.4560  138.8480 C   0  0  0  0  0  2  0  0  0  0  0  0
  185.7370  177.8250  137.6130 C   0  0  0  0  0  2  0  0  0  0  0  0
  187.5810  179.3180  137.0220 O   0  0  0  0  0  0  0  0  0  0  0  0
  187.1570  178.1290  137.5640 N   0  0  0  0  0  0  0  0  0  0  0  0
  187.9700  177.3950  138.1600 O   0  0  0  0  0  0  0  0  0  0  0  0
  180.6640  179.4360  141.3060 C   0  0  0  0  0  2  0  0  0  0  0  0
  180.7360  180.1890  140.1310 O   0  0  0  0  0  0  0  0  0  0  0  0
  179.5210  180.8760  140.0730 C   0  0  0  0  0  2  0  0  0  0  0  0
  179.6000  181.9910  139.0430 C   0  0  0  0  0  2  0  0  0  0  0  0
  180.9430  181.9700  138.3400 C   0  0  0  0  0  2  0  0  0  0  0  0
  180.5710  183.4190  134.9500 N   0  0  0  0  0  2  0  0  0  0  0  0
  180.7740  183.4080  136.2260 C   0  0  0  0  0  0  0  0  0  0  0  0
  180.7410  182.1490  136.9110 N   0  0  0  0  0  2  0  0  0  0  0  0
  182.2870  184.8910  137.5220 O   0  0  0  0  0  1  0  0  0  0  0  0
  180.1900  185.6060  136.9610 O   0  0  0  0  0  0  0  0  0  0  0  0
  181.0510  184.6880  136.9140 C   0  0  0  0  0  0  0  0  0  0  0  0
  1  3  1  0  0  0  0
  1  6  1  1  0  0  0
  2 16  1  6  0  0  0
  2  1  1  0  0  0  0
  3 22  1  6  0  0  0
  4  2  1  0  0  0  0
  4  5  1  0  0  0  0
  5  3  1  0  0  0  0
  6  7  1  0  0  0  0
  7 12  1  0  0  0  0
  8  7  2  0  0  0  0
  9 13  1  0  0  0  0
 10  9  2  0  0  0  0
 11 13  2  0  0  0  0
 12 14  2  0  0  0  0
 12 10  1  0  0  0  0
 13 15  1  0  0  0  0
 14 11  1  0  0  0  0
 16 17  1  0  0  0  0
 18 17  1  0  0  0  0
 19 20  2  0  0  0  0
 20 18  1  0  0  0  0
 20 21  2  0  0  0  0
 23 22  1  0  0  0  0
 24 23  1  0  0  0  0
 25 24  1  0  0  0  0
 26 25  1  0  0  0  0
 27 28  2  0  0  0  0
 28 29  1  0  0  0  0
 28 32  1  0  0  0  0
 29 26  1  0  0  0  0
 32 31  2  0  0  0  0
 32 30  1  0  0  0  0
M  END
>  <MODEL>
6

>  <REMARK>
 VINA RESULT:      -7.0      4.345      7.555
  Name = 
  13 active torsions:
  status: ('A' for Active; 'I' for Inactive)
    1  A    between atoms: N_2  and  C_11
    2  A    between atoms: C_4  and  C_15
    3  A    between atoms: C_4  and  O_16
    4  A    between atoms: O_7  and  C_14
    5  A    between atoms: O_7  and  C_18
    6  A    between atoms: C_9  and  C_29
    7  A    between atoms: C_10  and  C_21
    8  A    between atoms: C_15  and  C_20
    9  A    between atoms: O_16  and  C_23
   10  A    between atoms: C_17  and  C_23
   11  A    between atoms: C_18  and  C_24
   12  A    between atoms: C_20  and  N_30
   13  A    between atoms: C_24  and  N_25
                            x       y       z     vdW  Elec       q    Type
                         _______ _______ _______ _____ _____    ______ ____

>  <TORSDO>
F 13

$$$$
=
 OpenBabel10222416043D

 32 33  0  0  1  0  0  0  0  0999 V2000
  188.9020  177.8320  142.4590 C   0  0  1  0  0  3  0  0  0  0  0  0
  189.7450  177.1640  143.5090 C   0  0  1  0  0  3  0  0  0  0  0  0
  188.9920  176.8940  141.2690 C   0  0  2  0  0  3  0  0  0  0  0  0
  190.1170  175.8420  142.8750 C   0  0  0  0  0  2  0  0  0  0  0  0
  190.0400  175.9850  141.4830 O   0  0  0  0  0  0  0  0  0  0  0  0
  187.5240  177.9170  142.9220 N   0  0  0  0  0  2  0  0  0  0  0  0
  186.5300  178.7010  142.2550 C   0  0  0  0  0  0  0  0  0  0  0  0
  186.8420  179.3900  141.2460 O   0  0  0  0  0  0  0  0  0  0  0  0
  182.7490  178.6370  142.3120 C   0  0  0  0  0  3  0  0  0  0  0  0
  184.0680  178.6260  141.8450 C   0  0  0  0  0  3  0  0  0  0  0  0
  183.5580  178.8020  144.5890 C   0  0  0  0  0  3  0  0  0  0  0  0
  185.1400  178.7030  142.7470 C   0  0  0  0  0  0  0  0  0  0  0  0
  182.4950  178.7250  143.6830 C   0  0  0  0  0  0  0  0  0  0  0  0
  184.8750  178.7910  144.1220 C   0  0  0  0  0  3  0  0  0  0  0  0
  181.2170  178.7430  144.1360 F   0  0  0  0  0  0  0  0  0  0  0  0
  190.9030  177.9180  143.7170 O   0  0  0  0  0  0  0  0  0  0  0  0
  191.1770  177.7770  145.0790 C   0  0  0  0  0  2  0  0  0  0  0  0
  189.8890  177.9020  145.8730 C   0  0  0  0  0  2  0  0  0  0  0  0
  188.9910  177.2200  148.0430 O   0  0  0  0  0  0  0  0  0  0  0  0
  190.0200  177.1900  147.1340 N   0  0  0  0  0  0  0  0  0  0  0  0
  190.9860  176.4230  147.3160 O   0  0  0  0  0  0  0  0  0  0  0  0
  189.2100  177.6660  139.9750 C   0  0  0  0  0  2  0  0  0  0  0  0
  190.4860  177.4200  139.4580 O   0  0  0  0  0  0  0  0  0  0  0  0
  190.2850  177.2340  138.0880 C   0  0  0  0  0  2  0  0  0  0  0  0
  189.8470  175.8040  137.8150 C   0  0  0  0  0  2  0  0  0  0  0  0
  188.8250  175.7670  136.6940 C   0  0  0  0  0  2  0  0  0  0  0  0
  185.5290  177.1680  137.6440 N   0  0  0  0  0  2  0  0  0  0  0  0
  186.6940  177.1350  137.0870 C   0  0  0  0  0  0  0  0  0  0  0  0
  187.4950  175.9570  137.2500 N   0  0  0  0  0  2  0  0  0  0  0  0
  187.7360  179.3830  136.9330 O   0  0  0  0  0  1  0  0  0  0  0  0
  186.9910  178.3380  135.0430 O   0  0  0  0  0  0  0  0  0  0  0  0
  187.1380  178.3020  136.2930 C   0  0  0  0  0  0  0  0  0  0  0  0
  1  6  1  1  0  0  0
  1  2  1  0  0  0  0
  2 16  1  6  0  0  0
  3 22  1  6  0  0  0
  3  5  1  0  0  0  0
  3  1  1  0  0  0  0
  4  2  1  0  0  0  0
  5  4  1  0  0  0  0
  7 12  1  0  0  0  0
  7  6  1  0  0  0  0
  8  7  2  0  0  0  0
  9 13  1  0  0  0  0
 10  9  2  0  0  0  0
 10 12  1  0  0  0  0
 12 14  2  0  0  0  0
 13 15  1  0  0  0  0
 13 11  2  0  0  0  0
 14 11  1  0  0  0  0
 16 17  1  0  0  0  0
 17 18  1  0  0  0  0
 18 20  1  0  0  0  0
 20 21  2  0  0  0  0
 20 19  2  0  0  0  0
 23 22  1  0  0  0  0
 24 23  1  0  0  0  0
 25 24  1  0  0  0  0
 26 29  1  0  0  0  0
 26 25  1  0  0  0  0
 28 29  1  0  0  0  0
 28 27  2  0  0  0  0
 31 32  2  0  0  0  0
 32 30  1  0  0  0  0
 32 28  1  0  0  0  0
M  END
>  <MODEL>
7

>  <REMARK>
 VINA RESULT:      -7.0      2.004      2.557
  Name = 
  13 active torsions:
  status: ('A' for Active; 'I' for Inactive)
    1  A    between atoms: N_2  and  C_11
    2  A    between atoms: C_4  and  C_15
    3  A    between atoms: C_4  and  O_16
    4  A    between atoms: O_7  and  C_14
    5  A    between atoms: O_7  and  C_18
    6  A    between atoms: C_9  and  C_29
    7  A    between atoms: C_10  and  C_21
    8  A    between atoms: C_15  and  C_20
    9  A    between atoms: O_16  and  C_23
   10  A    between atoms: C_17  and  C_23
   11  A    between atoms: C_18  and  C_24
   12  A    between atoms: C_20  and  N_30
   13  A    between atoms: C_24  and  N_25
                            x       y       z     vdW  Elec       q    Type
                         _______ _______ _______ _____ _____    ______ ____

>  <TORSDO>
F 13

$$$$
=
 OpenBabel10222416043D

 32 33  0  0  1  0  0  0  0  0999 V2000
  187.9480  178.0570  142.7350 C   0  0  1  0  0  3  0  0  0  0  0  0
  188.6590  177.1990  143.7450 C   0  0  1  0  0  3  0  0  0  0  0  0
  188.2220  177.3630  141.4130 C   0  0  2  0  0  3  0  0  0  0  0  0
  189.1460  176.0230  142.9300 C   0  0  0  0  0  2  0  0  0  0  0  0
  189.2540  176.4290  141.5930 O   0  0  0  0  0  0  0  0  0  0  0  0
  186.5190  178.0520  143.0120 N   0  0  0  0  0  2  0  0  0  0  0  0
  185.6000  178.9340  142.3590 C   0  0  0  0  0  0  0  0  0  0  0  0
  186.0250  179.7890  141.5350 O   0  0  0  0  0  0  0  0  0  0  0  0
  181.8640  178.6130  141.8800 C   0  0  0  0  0  3  0  0  0  0  0  0
  183.2330  178.6900  141.6050 C   0  0  0  0  0  3  0  0  0  0  0  0
  182.3270  178.8420  144.2460 C   0  0  0  0  0  3  0  0  0  0  0  0
  184.1580  178.8430  142.6490 C   0  0  0  0  0  0  0  0  0  0  0  0
  181.4110  178.6890  143.2000 C   0  0  0  0  0  0  0  0  0  0  0  0
  183.6940  178.9190  143.9720 C   0  0  0  0  0  3  0  0  0  0  0  0
  180.0830  178.6210  143.4670 F   0  0  0  0  0  0  0  0  0  0  0  0
  189.7580  177.8980  144.2490 O   0  0  0  0  0  0  0  0  0  0  0  0
  190.6930  176.9100  144.5630 C   0  0  0  0  0  2  0  0  0  0  0  0
  191.4490  177.3040  145.8190 C   0  0  0  0  0  2  0  0  0  0  0  0
  191.8830  175.7760  147.6790 O   0  0  0  0  0  0  0  0  0  0  0  0
  190.9830  176.5060  146.9420 N   0  0  0  0  0  0  0  0  0  0  0  0
  189.8050  176.6170  147.3350 O   0  0  0  0  0  0  0  0  0  0  0  0
  188.5930  178.3680  140.3310 C   0  0  0  0  0  2  0  0  0  0  0  0
  188.3120  177.8550  139.0600 O   0  0  0  0  0  0  0  0  0  0  0  0
  189.3510  178.3240  138.2510 C   0  0  0  0  0  2  0  0  0  0  0  0
  189.8210  177.2230  137.3150 C   0  0  0  0  0  2  0  0  0  0  0  0
  190.5530  176.1440  138.0900 C   0  0  0  0  0  2  0  0  0  0  0  0
  193.7160  177.2490  139.6720 N   0  0  0  0  0  2  0  0  0  0  0  0
  192.9580  176.6490  138.8150 C   0  0  0  0  0  0  0  0  0  0  0  0
  191.5370  176.7630  138.9640 N   0  0  0  0  0  2  0  0  0  0  0  0
  193.6690  174.5040  137.7870 O   0  0  0  0  0  1  0  0  0  0  0  0
  194.0600  176.4760  136.7010 O   0  0  0  0  0  0  0  0  0  0  0  0
  193.5910  175.8910  137.7130 C   0  0  0  0  0  0  0  0  0  0  0  0
  1  6  1  1  0  0  0
  1  2  1  0  0  0  0
  2 16  1  6  0  0  0
  3 22  1  6  0  0  0
  3  5  1  0  0  0  0
  3  1  1  0  0  0  0
  4  2  1  0  0  0  0
  5  4  1  0  0  0  0
  7 12  1  0  0  0  0
  7  6  1  0  0  0  0
  8  7  2  0  0  0  0
  9 13  1  0  0  0  0
 10  9  2  0  0  0  0
 10 12  1  0  0  0  0
 12 14  2  0  0  0  0
 13 15  1  0  0  0  0
 13 11  2  0  0  0  0
 14 11  1  0  0  0  0
 16 17  1  0  0  0  0
 17 18  1  0  0  0  0
 18 20  1  0  0  0  0
 20 21  2  0  0  0  0
 20 19  2  0  0  0  0
 23 22  1  0  0  0  0
 24 23  1  0  0  0  0
 25 26  1  0  0  0  0
 25 24  1  0  0  0  0
 26 29  1  0  0  0  0
 28 29  1  0  0  0  0
 28 27  2  0  0  0  0
 31 32  2  0  0  0  0
 32 30  1  0  0  0  0
 32 28  1  0  0  0  0
M  END
>  <MODEL>
8

>  <REMARK>
 VINA RESULT:      -7.0      2.647      4.636
  Name = 
  13 active torsions:
  status: ('A' for Active; 'I' for Inactive)
    1  A    between atoms: N_2  and  C_11
    2  A    between atoms: C_4  and  C_15
    3  A    between atoms: C_4  and  O_16
    4  A    between atoms: O_7  and  C_14
    5  A    between atoms: O_7  and  C_18
    6  A    between atoms: C_9  and  C_29
    7  A    between atoms: C_10  and  C_21
    8  A    between atoms: C_15  and  C_20
    9  A    between atoms: O_16  and  C_23
   10  A    between atoms: C_17  and  C_23
   11  A    between atoms: C_18  and  C_24
   12  A    between atoms: C_20  and  N_30
   13  A    between atoms: C_24  and  N_25
                            x       y       z     vdW  Elec       q    Type
                         _______ _______ _______ _____ _____    ______ ____

>  <TORSDO>
F 13

$$$$
=
 OpenBabel10222416043D

 32 33  0  0  1  0  0  0  0  0999 V2000
  188.8730  177.8640  142.6370 C   0  0  1  0  0  3  0  0  0  0  0  0
  189.6810  177.2560  143.7490 C   0  0  1  0  0  3  0  0  0  0  0  0
  189.0420  176.8850  141.4890 C   0  0  2  0  0  3  0  0  0  0  0  0
  190.1140  175.9220  143.1840 C   0  0  0  0  0  2  0  0  0  0  0  0
  190.1000  176.0120  141.7850 O   0  0  0  0  0  0  0  0  0  0  0  0
  187.4730  177.9300  143.0310 N   0  0  0  0  0  2  0  0  0  0  0  0
  186.5090  178.7270  142.3360 C   0  0  0  0  0  0  0  0  0  0  0  0
  186.8670  179.4440  141.3620 O   0  0  0  0  0  0  0  0  0  0  0  0
  183.4200  178.7620  144.5160 C   0  0  0  0  0  3  0  0  0  0  0  0
  184.7610  178.7880  144.1170 C   0  0  0  0  0  3  0  0  0  0  0  0
  182.7340  178.5790  142.2020 C   0  0  0  0  0  3  0  0  0  0  0  0
  185.0960  178.7090  142.7570 C   0  0  0  0  0  0  0  0  0  0  0  0
  182.4080  178.6580  143.5590 C   0  0  0  0  0  0  0  0  0  0  0  0
  184.0730  178.6050  141.8020 C   0  0  0  0  0  3  0  0  0  0  0  0
  181.1080  178.6260  143.9460 F   0  0  0  0  0  0  0  0  0  0  0  0
  190.8090  178.0470  143.9830 O   0  0  0  0  0  0  0  0  0  0  0  0
  191.6320  177.2600  144.7910 C   0  0  0  0  0  2  0  0  0  0  0  0
  191.0120  177.1240  146.1690 C   0  0  0  0  0  2  0  0  0  0  0  0
  192.4190  175.1530  146.5130 O   0  0  0  0  0  0  0  0  0  0  0  0
  191.8680  176.3080  147.0140 N   0  0  0  0  0  0  0  0  0  0  0  0
  192.2350  176.7370  148.1250 O   0  0  0  0  0  0  0  0  0  0  0  0
  189.3020  177.6150  140.1770 C   0  0  0  0  0  2  0  0  0  0  0  0
  188.3260  177.2960  139.2290 O   0  0  0  0  0  0  0  0  0  0  0  0
  188.5900  178.1420  138.1490 C   0  0  0  0  0  2  0  0  0  0  0  0
  188.8480  177.3230  136.8950 C   0  0  0  0  0  2  0  0  0  0  0  0
  190.3380  177.1690  136.6580 C   0  0  0  0  0  2  0  0  0  0  0  0
  192.2250  174.1270  137.6140 N   0  0  0  0  0  2  0  0  0  0  0  0
  192.0130  175.3870  137.4220 C   0  0  0  0  0  0  0  0  0  0  0  0
  190.7290  175.7960  136.9320 N   0  0  0  0  0  2  0  0  0  0  0  0
  193.9720  176.7450  136.7270 O   0  0  0  0  0  0  0  0  0  0  0  0
  193.2410  176.8180  138.8900 O   0  0  0  0  0  1  0  0  0  0  0  0
  193.0950  176.3470  137.7320 C   0  0  0  0  0  0  0  0  0  0  0  0
  1  6  1  1  0  0  0
  1  2  1  0  0  0  0
  2 16  1  6  0  0  0
  3 22  1  6  0  0  0
  3  5  1  0  0  0  0
  3  1  1  0  0  0  0
  4  2  1  0  0  0  0
  5  4  1  0  0  0  0
  7 12  1  0  0  0  0
  7  6  1  0  0  0  0
  8  7  2  0  0  0  0
 10  9  1  0  0  0  0
 11 13  1  0  0  0  0
 12 10  2  0  0  0  0
 13 15  1  0  0  0  0
 13  9  2  0  0  0  0
 14 11  2  0  0  0  0
 14 12  1  0  0  0  0
 16 17  1  0  0  0  0
 17 18  1  0  0  0  0
 18 20  1  0  0  0  0
 19 20  2  0  0  0  0
 20 21  2  0  0  0  0
 23 22  1  0  0  0  0
 24 23  1  0  0  0  0
 25 24  1  0  0  0  0
 26 25  1  0  0  0  0
 26 29  1  0  0  0  0
 28 27  2  0  0  0  0
 28 32  1  0  0  0  0
 29 28  1  0  0  0  0
 30 32  2  0  0  0  0
 32 31  1  0  0  0  0
M  END
>  <MODEL>
9

>  <REMARK>
 VINA RESULT:      -6.9      2.495      4.319
  Name = 
  13 active torsions:
  status: ('A' for Active; 'I' for Inactive)
    1  A    between atoms: N_2  and  C_11
    2  A    between atoms: C_4  and  C_15
    3  A    between atoms: C_4  and  O_16
    4  A    between atoms: O_7  and  C_14
    5  A    between atoms: O_7  and  C_18
    6  A    between atoms: C_9  and  C_29
    7  A    between atoms: C_10  and  C_21
    8  A    between atoms: C_15  and  C_20
    9  A    between atoms: O_16  and  C_23
   10  A    between atoms: C_17  and  C_23
   11  A    between atoms: C_18  and  C_24
   12  A    between atoms: C_20  and  N_30
   13  A    between atoms: C_24  and  N_25
                            x       y       z     vdW  Elec       q    Type
                         _______ _______ _______ _____ _____    ______ ____

>  <TORSDO>
F 13

$$$$
