=
 OpenBabel10222416003D

 25 26  0  0  1  0  0  0  0  0999 V2000
  184.1700  178.9560  141.4890 C   0  0  0  0  0  3  0  0  0  0  0  0
  184.8370  179.0990  142.6320 C   0  0  0  0  0  3  0  0  0  0  0  0
  182.8530  178.2610  141.3780 C   0  0  1  0  0  3  0  0  0  0  0  0
  184.3450  178.6850  143.9580 C   0  0  0  0  0  3  0  0  0  0  0  0
  181.4120  177.3700  139.5120 C   0  0  0  0  0  0  0  0  0  0  0  0
  181.8870  179.0070  143.5390 C   0  0  0  0  0  3  0  0  0  0  0  0
  181.7800  178.9500  142.2090 C   0  0  0  0  0  0  0  0  0  0  0  0
  180.5490  180.1340  140.3690 C   0  0  0  0  0  2  0  0  0  0  0  0
  180.4330  179.3260  141.6550 C   0  0  0  0  0  2  0  0  0  0  0  0
  180.2800  177.9210  139.1780 N   0  0  0  0  0  0  0  0  0  0  0  0
  180.0010  179.3650  139.1560 C   0  0  2  0  0  3  0  0  0  0  0  0
  183.0680  178.6440  144.3480 C   0  0  0  0  0  3  0  0  0  0  0  0
  182.5000  178.1750  139.9670 N   0  0  0  0  0  2  0  0  0  0  0  0
  181.0170  179.2680  136.9930 O   0  0  0  0  0  0  0  0  0  0  0  0
  180.4660  179.9830  137.8720 C   0  0  0  0  0  0  0  0  0  0  0  0
  181.2750  182.1370  137.3740 N   0  0  0  0  0  0  0  0  0  0  0  0
  180.2880  181.3780  137.6250 N   0  0  0  0  0  0  0  0  0  0  0  0
  182.2290  184.5870  137.5480 O   0  0  0  0  0  0  0  0  0  0  0  0
  179.8160  184.2900  137.8390 O   0  0  0  0  0  0  0  0  0  0  0  0
  181.0240  183.8200  137.0800 S   0  0  0  0  0  0  0  0  0  0  0  0
  180.7950  184.0990  135.3400 C   0  0  0  0  0  1  0  0  0  0  0  0
  180.2240  175.2600  140.0210 C   0  0  0  0  0  1  0  0  0  0  0  0
  181.5360  175.8810  139.5690 C   0  0  1  0  0  3  0  0  0  0  0  0
  181.9590  175.3210  138.2180 C   0  0  0  0  0  2  0  0  0  0  0  0
  183.4050  175.3800  138.0870 N   0  0  0  0  0  1  0  0  0  0  0  0
  1  2  2  0  0  0  0
  2  4  1  0  0  0  0
  3  1  1  6  0  0  0
  3  7  1  0  0  0  0
  4 12  2  0  0  0  0
  5 23  1  0  0  0  0
  5 13  1  0  0  0  0
  6 12  1  0  0  0  0
  7  6  2  0  0  0  0
  8  9  1  0  0  0  0
  9  7  1  0  0  0  0
 10  5  2  0  0  0  0
 11 15  1  6  0  0  0
 11 10  1  0  0  0  0
 11  8  1  0  0  0  0
 13  3  1  0  0  0  0
 14 15  2  0  0  0  0
 16 17  2  0  0  0  0
 17 15  1  0  0  0  0
 20 16  1  0  0  0  0
 20 18  2  0  0  0  0
 20 19  2  0  0  0  0
 21 20  1  0  0  0  0
 23 22  1  6  0  0  0
 24 23  1  0  0  0  0
 25 24  1  0  0  0  0
M  END
>  <MODEL>
1

>  <REMARK>
 VINA RESULT:      -5.8      0.000      0.000
  Name = 
  5 active torsions:
  status: ('A' for Active; 'I' for Inactive)
    1  A    between atoms: C_1  and  C_22
    2  A    between atoms: N_3  and  S_17
    3  A    between atoms: C_9  and  C_22
    4  A    between atoms: C_11  and  N_18
    5  A    between atoms: C_11  and  C_23
                            x       y       z     vdW  Elec       q    Type
                         _______ _______ _______ _____ _____    ______ ____

>  <TORSDO>
F 5

$$$$
=
 OpenBabel10222416003D

 25 26  0  0  1  0  0  0  0  0999 V2000
  190.4000  179.2570  143.6290 C   0  0  0  0  0  3  0  0  0  0  0  0
  191.3530  178.9870  144.5180 C   0  0  0  0  0  3  0  0  0  0  0  0
  189.8790  178.2640  142.6440 C   0  0  1  0  0  3  0  0  0  0  0  0
  191.9650  177.6640  144.7290 C   0  0  0  0  0  3  0  0  0  0  0  0
  188.4620  178.3300  140.5610 C   0  0  0  0  0  0  0  0  0  0  0  0
  189.9830  176.2530  144.0960 C   0  0  0  0  0  3  0  0  0  0  0  0
  189.2440  177.0650  143.3340 C   0  0  0  0  0  0  0  0  0  0  0  0
  186.8250  177.6500  143.0060 C   0  0  0  0  0  2  0  0  0  0  0  0
  187.8760  176.5480  142.9820 C   0  0  0  0  0  2  0  0  0  0  0  0
  187.2510  177.8510  140.5230 N   0  0  0  0  0  0  0  0  0  0  0  0
  186.2600  177.9360  141.6050 C   0  0  2  0  0  3  0  0  0  0  0  0
  191.3710  176.4820  144.5440 C   0  0  0  0  0  3  0  0  0  0  0  0
  188.9560  178.9490  141.7490 N   0  0  0  0  0  2  0  0  0  0  0  0
  185.7000  180.0790  142.5070 O   0  0  0  0  0  0  0  0  0  0  0  0
  185.5390  179.2500  141.5730 C   0  0  0  0  0  0  0  0  0  0  0  0
  183.5640  178.9810  140.3200 N   0  0  0  0  0  0  0  0  0  0  0  0
  184.6710  179.5810  140.4890 N   0  0  0  0  0  0  0  0  0  0  0  0
  182.8530  178.5210  137.8250 O   0  0  0  0  0  0  0  0  0  0  0  0
  182.7790  180.8390  138.6130 O   0  0  0  0  0  0  0  0  0  0  0  0
  182.5380  179.4060  138.9980 S   0  0  0  0  0  0  0  0  0  0  0  0
  180.8370  179.1790  139.4590 C   0  0  0  0  0  1  0  0  0  0  0  0
  190.0690  176.7460  139.5460 C   0  0  0  0  0  1  0  0  0  0  0  0
  189.3970  178.1030  139.4160 C   0  0  1  0  0  3  0  0  0  0  0  0
  188.6630  178.2160  138.0870 C   0  0  0  0  0  2  0  0  0  0  0  0
  188.9360  179.5050  137.4760 N   0  0  0  0  0  1  0  0  0  0  0  0
  1  2  2  0  0  0  0
  2  4  1  0  0  0  0
  3  7  1  0  0  0  0
  3  1  1  1  0  0  0
  5 13  1  0  0  0  0
  6 12  1  0  0  0  0
  7  6  2  0  0  0  0
  9  8  1  0  0  0  0
  9  7  1  0  0  0  0
 10  5  2  0  0  0  0
 10 11  1  0  0  0  0
 11 15  1  1  0  0  0
 11  8  1  0  0  0  0
 12  4  2  0  0  0  0
 13  3  1  0  0  0  0
 15 14  2  0  0  0  0
 16 17  2  0  0  0  0
 17 15  1  0  0  0  0
 18 20  2  0  0  0  0
 19 20  2  0  0  0  0
 20 21  1  0  0  0  0
 20 16  1  0  0  0  0
 23 22  1  1  0  0  0
 23  5  1  0  0  0  0
 24 23  1  0  0  0  0
 25 24  1  0  0  0  0
M  END
>  <MODEL>
2

>  <REMARK>
 VINA RESULT:      -5.8      5.082      7.099
  Name = 
  5 active torsions:
  status: ('A' for Active; 'I' for Inactive)
    1  A    between atoms: C_1  and  C_22
    2  A    between atoms: N_3  and  S_17
    3  A    between atoms: C_9  and  C_22
    4  A    between atoms: C_11  and  N_18
    5  A    between atoms: C_11  and  C_23
                            x       y       z     vdW  Elec       q    Type
                         _______ _______ _______ _____ _____    ______ ____

>  <TORSDO>
F 5

$$$$
=
 OpenBabel10222416003D

 25 26  0  0  1  0  0  0  0  0999 V2000
  188.4860  175.8660  143.1780 C   0  0  0  0  0  3  0  0  0  0  0  0
  189.7480  175.4640  143.0540 C   0  0  0  0  0  3  0  0  0  0  0  0
  188.0900  177.2410  143.6060 C   0  0  1  0  0  3  0  0  0  0  0  0
  190.9330  176.3240  143.2240 C   0  0  0  0  0  3  0  0  0  0  0  0
  185.9770  178.3740  144.3810 C   0  0  0  0  0  0  0  0  0  0  0  0
  189.9070  178.4900  142.4670 C   0  0  0  0  0  3  0  0  0  0  0  0
  188.5960  178.3000  142.6370 C   0  0  0  0  0  0  0  0  0  0  0  0
  186.4520  178.7910  141.4270 C   0  0  0  0  0  2  0  0  0  0  0  0
  187.7100  179.3700  142.0600 C   0  0  0  0  0  2  0  0  0  0  0  0
  185.3480  179.2530  143.6530 N   0  0  0  0  0  0  0  0  0  0  0  0
  185.1830  179.1990  142.1940 C   0  0  2  0  0  3  0  0  0  0  0  0
  190.9980  177.6340  142.9710 C   0  0  0  0  0  3  0  0  0  0  0  0
  186.6430  177.2720  143.7650 N   0  0  0  0  0  2  0  0  0  0  0  0
  184.1510  177.4680  140.9060 O   0  0  0  0  0  0  0  0  0  0  0  0
  184.0220  178.3300  141.8150 C   0  0  0  0  0  0  0  0  0  0  0  0
  181.6850  178.6190  141.8230 N   0  0  0  0  0  0  0  0  0  0  0  0
  182.7630  178.4620  142.4760 N   0  0  0  0  0  0  0  0  0  0  0  0
  180.3970  178.5210  144.1190 O   0  0  0  0  0  0  0  0  0  0  0  0
  179.2010  177.7700  142.1190 O   0  0  0  0  0  0  0  0  0  0  0  0
  180.1800  178.7760  142.6540 S   0  0  0  0  0  0  0  0  0  0  0  0
  179.5420  180.4200  142.4380 C   0  0  0  0  0  1  0  0  0  0  0  0
  184.7890  178.5350  146.5450 C   0  0  0  0  0  1  0  0  0  0  0  0
  186.1400  178.5930  145.8510 C   0  0  1  0  0  3  0  0  0  0  0  0
  187.0960  177.5700  146.4480 C   0  0  0  0  0  2  0  0  0  0  0  0
  187.4740  177.9680  147.7930 N   0  0  0  0  0  1  0  0  0  0  0  0
  2  1  2  0  0  0  0
  2  4  1  0  0  0  0
  3  1  1  6  0  0  0
  3 13  1  0  0  0  0
  5 23  1  0  0  0  0
  6  7  2  0  0  0  0
  6 12  1  0  0  0  0
  7  3  1  0  0  0  0
  8  9  1  0  0  0  0
  8 11  1  0  0  0  0
  9  7  1  0  0  0  0
 10  5  2  0  0  0  0
 11 15  1  1  0  0  0
 11 10  1  0  0  0  0
 12  4  2  0  0  0  0
 13  5  1  0  0  0  0
 14 15  2  0  0  0  0
 15 17  1  0  0  0  0
 16 17  2  0  0  0  0
 16 20  1  0  0  0  0
 19 20  2  0  0  0  0
 20 18  2  0  0  0  0
 21 20  1  0  0  0  0
 23 24  1  0  0  0  0
 23 22  1  1  0  0  0
 24 25  1  0  0  0  0
M  END
>  <MODEL>
3

>  <REMARK>
 VINA RESULT:      -5.8      4.783      7.317
  Name = 
  5 active torsions:
  status: ('A' for Active; 'I' for Inactive)
    1  A    between atoms: C_1  and  C_22
    2  A    between atoms: N_3  and  S_17
    3  A    between atoms: C_9  and  C_22
    4  A    between atoms: C_11  and  N_18
    5  A    between atoms: C_11  and  C_23
                            x       y       z     vdW  Elec       q    Type
                         _______ _______ _______ _____ _____    ______ ____

>  <TORSDO>
F 5

$$$$
=
 OpenBabel10222416003D

 25 26  0  0  1  0  0  0  0  0999 V2000
  181.3670  181.6710  138.4110 C   0  0  0  0  0  3  0  0  0  0  0  0
  180.9120  182.2060  137.2810 C   0  0  0  0  0  3  0  0  0  0  0  0
  181.1230  180.2540  138.8160 C   0  0  1  0  0  3  0  0  0  0  0  0
  180.1910  181.4730  136.2260 C   0  0  0  0  0  3  0  0  0  0  0  0
  181.3650  178.8910  140.9210 C   0  0  0  0  0  0  0  0  0  0  0  0
  181.2640  179.2240  136.5620 C   0  0  0  0  0  3  0  0  0  0  0  0
  181.7180  179.2720  137.8170 C   0  0  0  0  0  0  0  0  0  0  0  0
  183.7590  178.5800  139.1060 C   0  0  0  0  0  2  0  0  0  0  0  0
  182.6020  178.1260  138.2260 C   0  0  0  0  0  2  0  0  0  0  0  0
  182.2710  177.9630  141.0540 N   0  0  0  0  0  0  0  0  0  0  0  0
  183.6450  178.0260  140.5360 C   0  0  2  0  0  3  0  0  0  0  0  0
  180.3440  180.1810  135.9180 C   0  0  0  0  0  3  0  0  0  0  0  0
  181.6430  180.0680  140.1640 N   0  0  0  0  0  2  0  0  0  0  0  0
  185.3960  179.5810  141.0230 O   0  0  0  0  0  0  0  0  0  0  0  0
  184.5410  178.7740  141.4770 C   0  0  0  0  0  0  0  0  0  0  0  0
  185.2650  179.1250  143.6890 N   0  0  0  0  0  0  0  0  0  0  0  0
  184.4370  178.5900  142.8890 N   0  0  0  0  0  0  0  0  0  0  0  0
  183.6590  178.6970  145.7330 O   0  0  0  0  0  0  0  0  0  0  0  0
  185.6390  180.0830  146.1230 O   0  0  0  0  0  0  0  0  0  0  0  0
  185.1100  178.8810  145.3910 S   0  0  0  0  0  0  0  0  0  0  0  0
  186.0120  177.4290  145.8760 C   0  0  0  0  0  1  0  0  0  0  0  0
  179.5530  177.2250  141.1820 C   0  0  0  0  0  1  0  0  0  0  0  0
  179.9770  178.6630  141.4300 C   0  0  1  0  0  3  0  0  0  0  0  0
  179.8790  179.0060  142.9090 C   0  0  0  0  0  2  0  0  0  0  0  0
  179.7030  177.7950  143.6910 N   0  0  0  0  0  1  0  0  0  0  0  0
  2  1  2  0  0  0  0
  3  1  1  6  0  0  0
  3 13  1  0  0  0  0
  4  2  1  0  0  0  0
  5 10  2  0  0  0  0
  5 23  1  0  0  0  0
  6  7  2  0  0  0  0
  7  9  1  0  0  0  0
  7  3  1  0  0  0  0
  8 11  1  0  0  0  0
  9  8  1  0  0  0  0
 11 10  1  0  0  0  0
 11 15  1  1  0  0  0
 12  4  2  0  0  0  0
 12  6  1  0  0  0  0
 13  5  1  0  0  0  0
 14 15  2  0  0  0  0
 15 17  1  0  0  0  0
 16 20  1  0  0  0  0
 17 16  2  0  0  0  0
 20 18  2  0  0  0  0
 20 21  1  0  0  0  0
 20 19  2  0  0  0  0
 23 22  1  1  0  0  0
 23 24  1  0  0  0  0
 24 25  1  0  0  0  0
M  END
>  <MODEL>
4

>  <REMARK>
 VINA RESULT:      -5.6      4.241      6.935
  Name = 
  5 active torsions:
  status: ('A' for Active; 'I' for Inactive)
    1  A    between atoms: C_1  and  C_22
    2  A    between atoms: N_3  and  S_17
    3  A    between atoms: C_9  and  C_22
    4  A    between atoms: C_11  and  N_18
    5  A    between atoms: C_11  and  C_23
                            x       y       z     vdW  Elec       q    Type
                         _______ _______ _______ _____ _____    ______ ____

>  <TORSDO>
F 5

$$$$
=
 OpenBabel10222416003D

 25 26  0  0  1  0  0  0  0  0999 V2000
  189.3710  175.6690  142.9250 C   0  0  0  0  0  3  0  0  0  0  0  0
  190.6220  175.2950  143.1830 C   0  0  0  0  0  3  0  0  0  0  0  0
  188.7440  176.9060  143.4800 C   0  0  1  0  0  3  0  0  0  0  0  0
  191.5970  176.0760  143.9640 C   0  0  0  0  0  3  0  0  0  0  0  0
  186.4120  177.8430  143.6650 C   0  0  0  0  0  0  0  0  0  0  0  0
  190.7450  178.3720  143.3970 C   0  0  0  0  0  3  0  0  0  0  0  0
  189.4780  178.1600  143.0300 C   0  0  0  0  0  0  0  0  0  0  0  0
  187.8750  178.9500  141.2670 C   0  0  0  0  0  2  0  0  0  0  0  0
  188.7760  179.3470  142.4280 C   0  0  0  0  0  2  0  0  0  0  0  0
  186.0170  178.8780  142.9780 N   0  0  0  0  0  0  0  0  0  0  0  0
  186.3890  179.1770  141.5880 C   0  0  2  0  0  3  0  0  0  0  0  0
  191.6470  177.4080  144.0570 C   0  0  0  0  0  3  0  0  0  0  0  0
  187.3370  176.9130  143.1020 N   0  0  0  0  0  2  0  0  0  0  0  0
  184.2860  178.2850  140.8790 O   0  0  0  0  0  0  0  0  0  0  0  0
  185.5100  178.4370  140.6250 C   0  0  0  0  0  0  0  0  0  0  0  0
  185.8730  178.4920  138.3000 N   0  0  0  0  0  0  0  0  0  0  0  0
  186.0420  177.9030  139.4120 N   0  0  0  0  0  0  0  0  0  0  0  0
  187.3540  178.8620  136.1520 O   0  0  0  0  0  0  0  0  0  0  0  0
  185.4110  177.3860  135.9450 O   0  0  0  0  0  0  0  0  0  0  0  0
  186.5290  177.8190  136.8510 S   0  0  0  0  0  0  0  0  0  0  0  0
  187.5620  176.4290  137.2490 C   0  0  0  0  0  1  0  0  0  0  0  0
  187.2270  177.9230  146.0010 C   0  0  0  0  0  1  0  0  0  0  0  0
  186.0220  177.7020  145.1020 C   0  0  1  0  0  3  0  0  0  0  0  0
  184.9010  178.6690  145.4560 C   0  0  0  0  0  2  0  0  0  0  0  0
  185.0050  179.0630  146.8510 N   0  0  0  0  0  1  0  0  0  0  0  0
  1  2  2  0  0  0  0
  2  4  1  0  0  0  0
  3  1  1  6  0  0  0
  4 12  2  0  0  0  0
  5 23  1  0  0  0  0
  6 12  1  0  0  0  0
  7  6  2  0  0  0  0
  7  3  1  0  0  0  0
  8 11  1  0  0  0  0
  8  9  1  0  0  0  0
  9  7  1  0  0  0  0
 10  5  2  0  0  0  0
 11 15  1  6  0  0  0
 11 10  1  0  0  0  0
 13  3  1  0  0  0  0
 13  5  1  0  0  0  0
 15 14  2  0  0  0  0
 16 17  2  0  0  0  0
 17 15  1  0  0  0  0
 18 20  2  0  0  0  0
 19 20  2  0  0  0  0
 20 21  1  0  0  0  0
 20 16  1  0  0  0  0
 23 24  1  0  0  0  0
 23 22  1  1  0  0  0
 24 25  1  0  0  0  0
M  END
>  <MODEL>
5

>  <REMARK>
 VINA RESULT:      -5.6      5.338      7.686
  Name = 
  5 active torsions:
  status: ('A' for Active; 'I' for Inactive)
    1  A    between atoms: C_1  and  C_22
    2  A    between atoms: N_3  and  S_17
    3  A    between atoms: C_9  and  C_22
    4  A    between atoms: C_11  and  N_18
    5  A    between atoms: C_11  and  C_23
                            x       y       z     vdW  Elec       q    Type
                         _______ _______ _______ _____ _____    ______ ____

>  <TORSDO>
F 5

$$$$
=
 OpenBabel10222416003D

 25 26  0  0  1  0  0  0  0  0999 V2000
  185.3930  173.4340  137.5590 C   0  0  0  0  0  3  0  0  0  0  0  0
  184.4890  172.4630  137.4530 C   0  0  0  0  0  3  0  0  0  0  0  0
  186.2710  173.8780  136.4350 C   0  0  1  0  0  3  0  0  0  0  0  0
  184.1520  171.7510  136.2080 C   0  0  0  0  0  3  0  0  0  0  0  0
  188.3380  175.2970  136.1850 C   0  0  0  0  0  0  0  0  0  0  0  0
  184.6270  173.6190  134.5940 C   0  0  0  0  0  3  0  0  0  0  0  0
  185.4590  174.4180  135.2660 C   0  0  0  0  0  0  0  0  0  0  0  0
  185.8240  176.8750  135.6280 C   0  0  0  0  0  2  0  0  0  0  0  0
  185.7480  175.7420  134.6140 C   0  0  0  0  0  2  0  0  0  0  0  0
  188.3190  176.4670  135.6120 N   0  0  0  0  0  0  0  0  0  0  0  0
  187.2420  177.4610  135.7280 C   0  0  2  0  0  3  0  0  0  0  0  0
  184.2140  172.2530  134.9710 C   0  0  0  0  0  3  0  0  0  0  0  0
  187.2220  174.8520  136.9550 N   0  0  0  0  0  2  0  0  0  0  0  0
  188.5480  178.6300  137.3570 O   0  0  0  0  0  0  0  0  0  0  0  0
  187.3990  178.2810  136.9740 C   0  0  0  0  0  0  0  0  0  0  0  0
  186.2150  178.5190  138.9940 N   0  0  0  0  0  0  0  0  0  0  0  0
  186.2590  178.6810  137.7350 N   0  0  0  0  0  0  0  0  0  0  0  0
  184.1620  180.1620  139.1730 O   0  0  0  0  0  0  0  0  0  0  0  0
  185.2310  179.4580  141.2600 O   0  0  0  0  0  0  0  0  0  0  0  0
  184.8200  179.0140  139.8840 S   0  0  0  0  0  0  0  0  0  0  0  0
  183.6710  177.6640  140.0000 C   0  0  0  0  0  1  0  0  0  0  0  0
  190.5050  175.0030  135.0270 C   0  0  0  0  0  1  0  0  0  0  0  0
  189.4620  174.3470  135.9170 C   0  0  1  0  0  3  0  0  0  0  0  0
  190.0880  173.8680  137.2190 C   0  0  0  0  0  2  0  0  0  0  0  0
  190.5810  175.0030  137.9800 N   0  0  0  0  0  1  0  0  0  0  0  0
  2  1  2  0  0  0  0
  3 13  1  0  0  0  0
  3  1  1  1  0  0  0
  4  2  1  0  0  0  0
  5 13  1  0  0  0  0
  6 12  1  0  0  0  0
  6  7  2  0  0  0  0
  7  3  1  0  0  0  0
  8 11  1  0  0  0  0
  9  7  1  0  0  0  0
  9  8  1  0  0  0  0
 10 11  1  0  0  0  0
 10  5  2  0  0  0  0
 11 15  1  1  0  0  0
 12  4  2  0  0  0  0
 15 14  2  0  0  0  0
 15 17  1  0  0  0  0
 16 20  1  0  0  0  0
 17 16  2  0  0  0  0
 18 20  2  0  0  0  0
 20 21  1  0  0  0  0
 20 19  2  0  0  0  0
 23 22  1  6  0  0  0
 23  5  1  0  0  0  0
 23 24  1  0  0  0  0
 24 25  1  0  0  0  0
M  END
>  <MODEL>
6

>  <REMARK>
 VINA RESULT:      -5.6      5.720      8.354
  Name = 
  5 active torsions:
  status: ('A' for Active; 'I' for Inactive)
    1  A    between atoms: C_1  and  C_22
    2  A    between atoms: N_3  and  S_17
    3  A    between atoms: C_9  and  C_22
    4  A    between atoms: C_11  and  N_18
    5  A    between atoms: C_11  and  C_23
                            x       y       z     vdW  Elec       q    Type
                         _______ _______ _______ _____ _____    ______ ____

>  <TORSDO>
F 5

$$$$
=
 OpenBabel10222416003D

 25 26  0  0  1  0  0  0  0  0999 V2000
  189.4530  175.6570  142.8870 C   0  0  0  0  0  3  0  0  0  0  0  0
  190.6780  175.2530  143.2170 C   0  0  0  0  0  3  0  0  0  0  0  0
  188.8130  176.8920  143.4290 C   0  0  1  0  0  3  0  0  0  0  0  0
  191.6120  175.9960  144.0800 C   0  0  0  0  0  3  0  0  0  0  0  0
  186.4910  177.8700  143.4830 C   0  0  0  0  0  0  0  0  0  0  0  0
  190.8410  178.3210  143.5140 C   0  0  0  0  0  3  0  0  0  0  0  0
  189.5980  178.1420  143.0590 C   0  0  0  0  0  0  0  0  0  0  0  0
  188.1300  179.0030  141.2130 C   0  0  0  0  0  2  0  0  0  0  0  0
  188.9580  179.3560  142.4410 C   0  0  0  0  0  2  0  0  0  0  0  0
  186.1610  178.9280  142.7960 N   0  0  0  0  0  0  0  0  0  0  0  0
  186.6300  179.2520  141.4410 C   0  0  2  0  0  3  0  0  0  0  0  0
  191.6790  177.3250  144.2080 C   0  0  0  0  0  3  0  0  0  0  0  0
  187.4340  176.9360  142.9590 N   0  0  0  0  0  2  0  0  0  0  0  0
  186.3190  178.2300  139.3010 O   0  0  0  0  0  0  0  0  0  0  0  0
  185.8040  178.5510  140.4050 C   0  0  0  0  0  0  0  0  0  0  0  0
  183.5040  179.0550  140.3790 N   0  0  0  0  0  0  0  0  0  0  0  0
  184.4340  178.2340  140.6530 N   0  0  0  0  0  0  0  0  0  0  0  0
  180.9610  179.6630  140.0530 O   0  0  0  0  0  0  0  0  0  0  0  0
  181.6140  178.6290  142.1750 O   0  0  0  0  0  0  0  0  0  0  0  0
  181.8580  178.6400  140.6920 S   0  0  0  0  0  0  0  0  0  0  0  0
  181.4990  177.0410  140.0050 C   0  0  0  0  0  1  0  0  0  0  0  0
  187.1510  177.8760  145.8680 C   0  0  0  0  0  1  0  0  0  0  0  0
  186.0040  177.7030  144.8870 C   0  0  1  0  0  3  0  0  0  0  0  0
  184.8820  178.6860  145.1910 C   0  0  0  0  0  2  0  0  0  0  0  0
  184.5370  178.6280  146.6010 N   0  0  0  0  0  1  0  0  0  0  0  0
  1  2  2  0  0  0  0
  2  4  1  0  0  0  0
  3  1  1  6  0  0  0
  4 12  2  0  0  0  0
  5 23  1  0  0  0  0
  6 12  1  0  0  0  0
  7  3  1  0  0  0  0
  7  6  2  0  0  0  0
  8 11  1  0  0  0  0
  8  9  1  0  0  0  0
  9  7  1  0  0  0  0
 10  5  2  0  0  0  0
 11 15  1  6  0  0  0
 11 10  1  0  0  0  0
 13  3  1  0  0  0  0
 13  5  1  0  0  0  0
 14 15  2  0  0  0  0
 15 17  1  0  0  0  0
 16 17  2  0  0  0  0
 16 20  1  0  0  0  0
 18 20  2  0  0  0  0
 20 19  2  0  0  0  0
 21 20  1  0  0  0  0
 23 24  1  0  0  0  0
 23 22  1  1  0  0  0
 24 25  1  0  0  0  0
M  END
>  <MODEL>
7

>  <REMARK>
 VINA RESULT:      -5.5      4.738      7.325
  Name = 
  5 active torsions:
  status: ('A' for Active; 'I' for Inactive)
    1  A    between atoms: C_1  and  C_22
    2  A    between atoms: N_3  and  S_17
    3  A    between atoms: C_9  and  C_22
    4  A    between atoms: C_11  and  N_18
    5  A    between atoms: C_11  and  C_23
                            x       y       z     vdW  Elec       q    Type
                         _______ _______ _______ _____ _____    ______ ____

>  <TORSDO>
F 5

$$$$
=
 OpenBabel10222416003D

 25 26  0  0  1  0  0  0  0  0999 V2000
  191.8730  176.1040  134.9650 C   0  0  0  0  0  3  0  0  0  0  0  0
  193.1010  175.6990  134.6490 C   0  0  0  0  0  3  0  0  0  0  0  0
  190.9910  175.3980  135.9410 C   0  0  1  0  0  3  0  0  0  0  0  0
  193.8060  174.5650  135.2730 C   0  0  0  0  0  3  0  0  0  0  0  0
  188.5540  175.4630  136.5770 C   0  0  0  0  0  0  0  0  0  0  0  0
  192.7490  174.7010  137.5490 C   0  0  0  0  0  3  0  0  0  0  0  0
  191.6080  175.3600  137.3320 C   0  0  0  0  0  0  0  0  0  0  0  0
  190.2380  177.1590  138.4240 C   0  0  0  0  0  2  0  0  0  0  0  0
  190.8590  175.7760  138.5690 C   0  0  0  0  0  2  0  0  0  0  0  0
  188.1410  175.9350  137.7190 N   0  0  0  0  0  0  0  0  0  0  0  0
  188.7010  177.1010  138.4190 C   0  0  2  0  0  3  0  0  0  0  0  0
  193.6500  174.1340  136.5280 C   0  0  0  0  0  3  0  0  0  0  0  0
  189.6840  176.0400  135.9240 N   0  0  0  0  0  2  0  0  0  0  0  0
  188.8570  179.2230  137.3260 O   0  0  0  0  0  0  0  0  0  0  0  0
  188.1160  178.3770  137.8930 C   0  0  0  0  0  0  0  0  0  0  0  0
  186.1370  178.6040  139.1480 N   0  0  0  0  0  0  0  0  0  0  0  0
  186.7190  178.6480  138.0200 N   0  0  0  0  0  0  0  0  0  0  0  0
  183.7180  178.1720  138.1990 O   0  0  0  0  0  0  0  0  0  0  0  0
  184.2070  180.4070  139.0710 O   0  0  0  0  0  0  0  0  0  0  0  0
  184.4470  178.9360  139.2670 S   0  0  0  0  0  0  0  0  0  0  0  0
  183.8450  178.4290  140.8600 C   0  0  0  0  0  1  0  0  0  0  0  0
  188.3610  173.0100  136.8370 C   0  0  0  0  0  1  0  0  0  0  0  0
  187.9450  174.2180  136.0150 C   0  0  1  0  0  3  0  0  0  0  0  0
  186.4290  174.3360  135.9570 C   0  0  0  0  0  2  0  0  0  0  0  0
  186.0440  175.3290  134.9700 N   0  0  0  0  0  1  0  0  0  0  0  0
  2  1  2  0  0  0  0
  2  4  1  0  0  0  0
  3  1  1  6  0  0  0
  3  7  1  0  0  0  0
  4 12  2  0  0  0  0
  5 10  2  0  0  0  0
  7  6  2  0  0  0  0
  7  9  1  0  0  0  0
  8  9  1  0  0  0  0
 10 11  1  0  0  0  0
 11 15  1  6  0  0  0
 11  8  1  0  0  0  0
 12  6  1  0  0  0  0
 13  3  1  0  0  0  0
 13  5  1  0  0  0  0
 14 15  2  0  0  0  0
 15 17  1  0  0  0  0
 16 20  1  0  0  0  0
 17 16  2  0  0  0  0
 18 20  2  0  0  0  0
 19 20  2  0  0  0  0
 20 21  1  0  0  0  0
 23  5  1  0  0  0  0
 23 22  1  1  0  0  0
 24 23  1  0  0  0  0
 25 24  1  0  0  0  0
M  END
>  <MODEL>
8

>  <REMARK>
 VINA RESULT:      -5.4      7.481      9.262
  Name = 
  5 active torsions:
  status: ('A' for Active; 'I' for Inactive)
    1  A    between atoms: C_1  and  C_22
    2  A    between atoms: N_3  and  S_17
    3  A    between atoms: C_9  and  C_22
    4  A    between atoms: C_11  and  N_18
    5  A    between atoms: C_11  and  C_23
                            x       y       z     vdW  Elec       q    Type
                         _______ _______ _______ _____ _____    ______ ____

>  <TORSDO>
F 5

$$$$
=
 OpenBabel10222416003D

 25 26  0  0  1  0  0  0  0  0999 V2000
  188.4610  178.1400  136.3110 C   0  0  0  0  0  3  0  0  0  0  0  0
  187.1940  178.3000  135.9360 C   0  0  0  0  0  3  0  0  0  0  0  0
  188.8880  177.2550  137.4350 C   0  0  1  0  0  3  0  0  0  0  0  0
  186.0440  177.5720  136.4990 C   0  0  0  0  0  3  0  0  0  0  0  0
  190.9860  176.9070  138.7870 C   0  0  0  0  0  0  0  0  0  0  0  0
  187.2350  175.4370  137.0870 C   0  0  0  0  0  3  0  0  0  0  0  0
  188.5160  175.8010  137.1800 C   0  0  0  0  0  0  0  0  0  0  0  0
  190.7740  174.9210  136.5220 C   0  0  0  0  0  2  0  0  0  0  0  0
  189.4990  174.6700  137.3160 C   0  0  0  0  0  2  0  0  0  0  0  0
  191.7150  175.8320  138.6830 N   0  0  0  0  0  0  0  0  0  0  0  0
  191.9950  175.1020  137.4380 C   0  0  2  0  0  3  0  0  0  0  0  0
  186.0650  176.3320  136.9990 C   0  0  0  0  0  3  0  0  0  0  0  0
  190.3180  177.4390  137.6440 N   0  0  0  0  0  2  0  0  0  0  0  0
  192.9280  176.3330  135.6120 O   0  0  0  0  0  0  0  0  0  0  0  0
  193.1380  175.7240  136.6950 C   0  0  0  0  0  0  0  0  0  0  0  0
  195.2250  174.6590  136.9240 N   0  0  0  0  0  0  0  0  0  0  0  0
  194.4710  175.6430  137.2010 N   0  0  0  0  0  0  0  0  0  0  0  0
  196.7960  174.8760  139.0290 O   0  0  0  0  0  0  0  0  0  0  0  0
  197.6840  175.6250  136.8730 O   0  0  0  0  0  0  0  0  0  0  0  0
  196.8320  174.5910  137.5540 S   0  0  0  0  0  0  0  0  0  0  0  0
  197.5130  172.9720  137.2900 C   0  0  0  0  0  1  0  0  0  0  0  0
  189.5920  176.7540  140.8270 C   0  0  0  0  0  1  0  0  0  0  0  0
  190.7160  177.5040  140.1320 C   0  0  1  0  0  3  0  0  0  0  0  0
  191.9750  177.5030  140.9870 C   0  0  0  0  0  2  0  0  0  0  0  0
  191.6260  177.3210  142.3850 N   0  0  0  0  0  1  0  0  0  0  0  0
  2  1  2  0  0  0  0
  2  4  1  0  0  0  0
  3  1  1  6  0  0  0
  3 13  1  0  0  0  0
  4 12  2  0  0  0  0
  5 23  1  0  0  0  0
  6  7  2  0  0  0  0
  7  9  1  0  0  0  0
  7  3  1  0  0  0  0
  8  9  1  0  0  0  0
  8 11  1  0  0  0  0
 10  5  2  0  0  0  0
 11 15  1  6  0  0  0
 11 10  1  0  0  0  0
 12  6  1  0  0  0  0
 13  5  1  0  0  0  0
 14 15  2  0  0  0  0
 15 17  1  0  0  0  0
 16 17  2  0  0  0  0
 16 20  1  0  0  0  0
 19 20  2  0  0  0  0
 20 18  2  0  0  0  0
 21 20  1  0  0  0  0
 23 22  1  1  0  0  0
 23 24  1  0  0  0  0
 24 25  1  0  0  0  0
M  END
>  <MODEL>
9

>  <REMARK>
 VINA RESULT:      -5.4     10.067     12.353
  Name = 
  5 active torsions:
  status: ('A' for Active; 'I' for Inactive)
    1  A    between atoms: C_1  and  C_22
    2  A    between atoms: N_3  and  S_17
    3  A    between atoms: C_9  and  C_22
    4  A    between atoms: C_11  and  N_18
    5  A    between atoms: C_11  and  C_23
                            x       y       z     vdW  Elec       q    Type
                         _______ _______ _______ _____ _____    ______ ____

>  <TORSDO>
F 5

$$$$
