=
 OpenBabel10222419193D

 35 37  0  0  1  0  0  0  0  0999 V2000
  185.4690  178.6130  142.2360 C   0  0  0  0  0  0  0  0  0  0  0  0
  185.7300  177.9290  144.5550 C   0  0  0  0  0  3  0  0  0  0  0  0
  184.9140  178.3550  143.5060 C   0  0  0  0  0  0  0  0  0  0  0  0
  184.9740  179.3460  140.0130 O   0  0  0  0  0  0  0  0  0  0  0  0
  187.6550  177.9980  143.1060 C   0  0  0  0  0  3  0  0  0  0  0  0
  182.6240  178.9380  142.5940 C   0  0  0  0  0  0  0  0  0  0  0  0
  181.1540  179.0760  142.7630 C   0  0  0  0  0  1  0  0  0  0  0  0
  187.0990  177.7490  144.3660 C   0  0  0  0  0  0  0  0  0  0  0  0
  186.8600  178.4290  142.0330 C   0  0  0  0  0  0  0  0  0  0  0  0
  183.1520  179.1800  141.4320 N   0  0  0  0  0  0  0  0  0  0  0  0
  184.5520  179.0660  141.1650 C   0  0  0  0  0  0  0  0  0  0  0  0
  183.4490  178.5410  143.7890 C   0  0  0  0  0  2  0  0  0  0  0  0
  187.4460  178.6720  140.7430 N   0  0  0  0  0  2  0  0  0  0  0  0
  188.4710  177.9120  140.0870 C   0  0  0  0  0  0  0  0  0  0  0  0
  190.4050  176.4500  138.7700 C   0  0  0  0  0  0  0  0  0  0  0  0
  189.2820  176.8560  138.1130 N   0  0  0  0  0  0  0  0  0  0  0  0
  190.5590  176.7830  140.1200 C   0  0  0  0  0  3  0  0  0  0  0  0
  189.5920  177.5040  140.7460 N   0  0  0  0  0  0  0  0  0  0  0  0
  188.3140  177.5770  138.7420 C   0  0  0  0  0  3  0  0  0  0  0  0
  193.5990  175.6560  136.7540 C   0  0  0  0  0  1  0  0  0  0  0  0
  191.3660  174.4220  137.9960 O   0  0  0  0  0  0  0  0  0  0  0  0
  192.5330  176.3660  137.4410 N   0  0  0  0  0  2  0  0  0  0  0  0
  191.4400  175.6820  138.0590 C   0  0  0  0  0  0  0  0  0  0  0  0
  187.8850  177.3180  145.4400 O   0  0  0  0  0  0  0  0  0  0  0  0
  187.5840  177.6510  146.7880 C   0  0  0  0  0  2  0  0  0  0  0  0
  188.8660  177.7100  147.5900 C   0  0  0  0  0  2  0  0  0  0  0  0
  189.7090  176.6310  147.2130 O   0  0  0  0  0  0  0  0  0  0  0  0
  191.7170  177.1550  148.1820 O   0  0  0  0  0  0  0  0  0  0  0  0
  191.0990  176.7550  147.1600 C   0  0  0  0  0  0  0  0  0  0  0  0
  192.3310  175.0910  146.0030 O   0  0  0  0  0  1  0  0  0  0  0  0
  191.8630  176.4050  145.9190 C   0  0  1  0  0  3  0  0  0  0  0  0
  190.9780  176.5660  144.6930 C   0  0  0  0  0  2  0  0  0  0  0  0
  190.6680  178.9150  144.4400 O   0  0  0  0  0  1  0  0  0  0  0  0
  191.2460  177.8720  144.0310 C   0  0  0  0  0  0  0  0  0  0  0  0
  192.1610  177.9490  142.9860 O   0  0  0  0  0  0  0  0  0  0  0  0
  1  3  1  0  0  0  0
  3 12  1  0  0  0  0
  3  2  2  0  0  0  0
  4 11  2  0  0  0  0
  5  8  2  0  0  0  0
  6  7  1  0  0  0  0
  6 12  1  0  0  0  0
  8  2  1  0  0  0  0
  8 24  1  0  0  0  0
  9  1  2  0  0  0  0
  9  5  1  0  0  0  0
 10  6  2  0  0  0  0
 11 10  1  0  0  0  0
 11  1  1  0  0  0  0
 13  9  1  0  0  0  0
 14 13  1  0  0  0  0
 14 18  2  0  0  0  0
 15 17  2  0  0  0  0
 16 19  2  0  0  0  0
 16 15  1  0  0  0  0
 17 18  1  0  0  0  0
 19 14  1  0  0  0  0
 20 22  1  0  0  0  0
 21 23  2  0  0  0  0
 22 23  1  0  0  0  0
 23 15  1  0  0  0  0
 24 25  1  0  0  0  0
 25 26  1  0  0  0  0
 27 26  1  0  0  0  0
 29 27  1  0  0  0  0
 29 28  2  0  0  0  0
 31 30  1  1  0  0  0
 31 29  1  0  0  0  0
 32 31  1  0  0  0  0
 34 33  1  0  0  0  0
 34 32  1  0  0  0  0
 35 34  2  0  0  0  0
M  END
>  <MODEL>
1

>  <REMARK>
 VINA RESULT:      -8.4      0.000      0.000
  Name = 
  11 active torsions:
  status: ('A' for Active; 'I' for Inactive)
    1  A    between atoms: C_5  and  N_22
    2  A    between atoms: C_7  and  C_18
    3  A    between atoms: O_12  and  C_32
    4  A    between atoms: O_12  and  C_34
    5  A    between atoms: C_14  and  C_28
    6  A    between atoms: C_16  and  C_32
    7  A    between atoms: C_16  and  O_33
    8  A    between atoms: C_17  and  O_33
    9  A    between atoms: C_18  and  C_24
   10  A    between atoms: N_22  and  C_23
   11  A    between atoms: C_24  and  C_34
                            x       y       z     vdW  Elec       q    Type
                         _______ _______ _______ _____ _____    ______ ____

>  <TORSDO>
F 11

$$$$
=
 OpenBabel10222419193D

 35 37  0  0  1  0  0  0  0  0999 V2000
  189.2470  177.3270  145.4320 C   0  0  0  0  0  0  0  0  0  0  0  0
  190.6510  177.1620  143.4530 C   0  0  0  0  0  3  0  0  0  0  0  0
  190.4860  177.0230  144.8320 C   0  0  0  0  0  0  0  0  0  0  0  0
  188.0740  177.4420  147.5150 O   0  0  0  0  0  0  0  0  0  0  0  0
  188.3660  177.8950  143.2390 C   0  0  0  0  0  3  0  0  0  0  0  0
  191.3970  176.3730  147.1040 C   0  0  0  0  0  0  0  0  0  0  0  0
  192.4890  175.8510  147.9670 C   0  0  0  0  0  1  0  0  0  0  0  0
  189.5990  177.5980  142.6500 C   0  0  0  0  0  0  0  0  0  0  0  0
  188.1710  177.7670  144.6220 C   0  0  0  0  0  0  0  0  0  0  0  0
  190.2520  176.6650  147.6440 N   0  0  0  0  0  0  0  0  0  0  0  0
  189.1370  177.1620  146.9000 C   0  0  0  0  0  0  0  0  0  0  0  0
  191.6700  176.5610  145.6370 C   0  0  0  0  0  2  0  0  0  0  0  0
  186.8940  178.0700  145.2100 N   0  0  0  0  0  2  0  0  0  0  0  0
  185.6530  178.3190  144.5340 C   0  0  0  0  0  0  0  0  0  0  0  0
  183.2400  178.8170  143.2930 C   0  0  0  0  0  0  0  0  0  0  0  0
  183.3910  179.0560  144.6260 N   0  0  0  0  0  0  0  0  0  0  0  0
  184.3240  178.3130  142.5670 C   0  0  0  0  0  3  0  0  0  0  0  0
  185.5020  178.0760  143.2020 N   0  0  0  0  0  0  0  0  0  0  0  0
  184.5710  178.8170  145.2600 C   0  0  0  0  0  3  0  0  0  0  0  0
  180.4040  178.7360  140.6750 C   0  0  0  0  0  1  0  0  0  0  0  0
  181.1030  179.8460  143.1910 O   0  0  0  0  0  0  0  0  0  0  0  0
  181.6700  178.5180  141.3570 N   0  0  0  0  0  2  0  0  0  0  0  0
  181.9540  179.0980  142.6330 C   0  0  0  0  0  0  0  0  0  0  0  0
  189.8010  177.7220  141.2710 O   0  0  0  0  0  0  0  0  0  0  0  0
  190.3620  176.6810  140.4850 C   0  0  0  0  0  2  0  0  0  0  0  0
  190.2380  177.0330  139.0180 C   0  0  0  0  0  2  0  0  0  0  0  0
  189.7000  178.3420  138.8910 O   0  0  0  0  0  0  0  0  0  0  0  0
  188.4720  179.2630  137.1920 O   0  0  0  0  0  0  0  0  0  0  0  0
  188.4820  178.5890  138.2550 C   0  0  0  0  0  0  0  0  0  0  0  0
  186.9710  178.5680  140.0840 O   0  0  0  0  0  1  0  0  0  0  0  0
  187.1960  178.0500  138.8060 C   0  0  1  0  0  3  0  0  0  0  0  0
  186.0390  178.4070  137.8860 C   0  0  0  0  0  2  0  0  0  0  0  0
  184.5740  179.8930  139.0370 O   0  0  0  0  0  1  0  0  0  0  0  0
  184.8190  178.7090  138.6840 C   0  0  0  0  0  0  0  0  0  0  0  0
  183.9290  177.6890  139.0070 O   0  0  0  0  0  0  0  0  0  0  0  0
  1 11  1  0  0  0  0
  2  3  2  0  0  0  0
  3  1  1  0  0  0  0
  3 12  1  0  0  0  0
  5  9  1  0  0  0  0
  6 10  2  0  0  0  0
  6  7  1  0  0  0  0
  8  5  2  0  0  0  0
  8  2  1  0  0  0  0
  9 13  1  0  0  0  0
  9  1  2  0  0  0  0
 11  4  2  0  0  0  0
 11 10  1  0  0  0  0
 12  6  1  0  0  0  0
 14 13  1  0  0  0  0
 14 19  1  0  0  0  0
 15 16  1  0  0  0  0
 16 19  2  0  0  0  0
 17 18  1  0  0  0  0
 17 15  2  0  0  0  0
 18 14  2  0  0  0  0
 20 22  1  0  0  0  0
 22 23  1  0  0  0  0
 23 21  2  0  0  0  0
 23 15  1  0  0  0  0
 24  8  1  0  0  0  0
 25 24  1  0  0  0  0
 26 25  1  0  0  0  0
 27 26  1  0  0  0  0
 28 29  2  0  0  0  0
 29 31  1  0  0  0  0
 29 27  1  0  0  0  0
 31 30  1  1  0  0  0
 32 34  1  0  0  0  0
 32 31  1  0  0  0  0
 34 35  2  0  0  0  0
 34 33  1  0  0  0  0
M  END
>  <MODEL>
2

>  <REMARK>
 VINA RESULT:      -8.4      2.917      8.484
  Name = 
  11 active torsions:
  status: ('A' for Active; 'I' for Inactive)
    1  A    between atoms: C_5  and  N_22
    2  A    between atoms: C_7  and  C_18
    3  A    between atoms: O_12  and  C_32
    4  A    between atoms: O_12  and  C_34
    5  A    between atoms: C_14  and  C_28
    6  A    between atoms: C_16  and  C_32
    7  A    between atoms: C_16  and  O_33
    8  A    between atoms: C_17  and  O_33
    9  A    between atoms: C_18  and  C_24
   10  A    between atoms: N_22  and  C_23
   11  A    between atoms: C_24  and  C_34
                            x       y       z     vdW  Elec       q    Type
                         _______ _______ _______ _____ _____    ______ ____

>  <TORSDO>
F 11

$$$$
=
 OpenBabel10222419193D

 35 37  0  0  1  0  0  0  0  0999 V2000
  189.8600  177.4110  144.9230 C   0  0  0  0  0  0  0  0  0  0  0  0
  187.8810  177.1650  146.3160 C   0  0  0  0  0  3  0  0  0  0  0  0
  189.2600  177.0370  146.1430 C   0  0  0  0  0  0  0  0  0  0  0  0
  191.9330  177.5300  143.7340 O   0  0  0  0  0  0  0  0  0  0  0  0
  187.6680  178.0430  144.0830 C   0  0  0  0  0  3  0  0  0  0  0  0
  191.5460  176.4300  147.0500 C   0  0  0  0  0  0  0  0  0  0  0  0
  192.4250  175.9550  148.1510 C   0  0  0  0  0  1  0  0  0  0  0  0
  187.0780  177.6650  145.2930 C   0  0  0  0  0  0  0  0  0  0  0  0
  189.0510  177.9240  143.8790 C   0  0  0  0  0  0  0  0  0  0  0  0
  192.0820  176.7710  145.9170 N   0  0  0  0  0  0  0  0  0  0  0  0
  191.3270  177.2480  144.8010 C   0  0  0  0  0  0  0  0  0  0  0  0
  190.0610  176.4760  147.2870 C   0  0  0  0  0  2  0  0  0  0  0  0
  189.6420  178.3260  142.6310 N   0  0  0  0  0  2  0  0  0  0  0  0
  189.2110  177.9840  141.3060 C   0  0  0  0  0  0  0  0  0  0  0  0
  188.3290  177.3710  138.7640 C   0  0  0  0  0  0  0  0  0  0  0  0
  187.6920  178.3230  139.5030 N   0  0  0  0  0  0  0  0  0  0  0  0
  189.4320  176.7090  139.3150 C   0  0  0  0  0  3  0  0  0  0  0  0
  189.8460  177.0300  140.5700 N   0  0  0  0  0  0  0  0  0  0  0  0
  188.1080  178.6420  140.7590 C   0  0  0  0  0  3  0  0  0  0  0  0
  188.1360  177.3260  134.9100 C   0  0  0  0  0  1  0  0  0  0  0  0
  186.8780  176.2880  137.2300 O   0  0  0  0  0  0  0  0  0  0  0  0
  188.5340  177.6260  136.2760 N   0  0  0  0  0  2  0  0  0  0  0  0
  187.8640  177.0580  137.4030 C   0  0  0  0  0  0  0  0  0  0  0  0
  185.7000  177.7820  145.5040 O   0  0  0  0  0  0  0  0  0  0  0  0
  185.0620  179.0350  145.7050 C   0  0  0  0  0  2  0  0  0  0  0  0
  183.6740  178.9960  145.1040 C   0  0  0  0  0  2  0  0  0  0  0  0
  183.7470  178.4950  143.7760 O   0  0  0  0  0  0  0  0  0  0  0  0
  181.7130  179.3570  143.1740 O   0  0  0  0  0  0  0  0  0  0  0  0
  182.7760  178.7850  142.8160 C   0  0  0  0  0  0  0  0  0  0  0  0
  181.9800  179.0230  140.5940 O   0  0  0  0  0  1  0  0  0  0  0  0
  182.9870  178.4450  141.3720 C   0  0  1  0  0  3  0  0  0  0  0  0
  184.3500  178.9350  140.9090 C   0  0  0  0  0  2  0  0  0  0  0  0
  184.3540  178.2190  138.6360 O   0  0  0  0  0  0  0  0  0  0  0  0
  184.3380  179.1880  139.4420 C   0  0  0  0  0  0  0  0  0  0  0  0
  184.2690  180.4910  138.9600 O   0  0  0  0  0  1  0  0  0  0  0  0
  1  3  1  0  0  0  0
  3  2  2  0  0  0  0
  3 12  1  0  0  0  0
  4 11  2  0  0  0  0
  5  8  2  0  0  0  0
  6 12  1  0  0  0  0
  6  7  1  0  0  0  0
  8 24  1  0  0  0  0
  8  2  1  0  0  0  0
  9  5  1  0  0  0  0
  9  1  2  0  0  0  0
 10  6  2  0  0  0  0
 11  1  1  0  0  0  0
 11 10  1  0  0  0  0
 13  9  1  0  0  0  0
 14 13  1  0  0  0  0
 15 17  2  0  0  0  0
 15 16  1  0  0  0  0
 16 19  2  0  0  0  0
 17 18  1  0  0  0  0
 18 14  2  0  0  0  0
 19 14  1  0  0  0  0
 20 22  1  0  0  0  0
 21 23  2  0  0  0  0
 22 23  1  0  0  0  0
 23 15  1  0  0  0  0
 24 25  1  0  0  0  0
 26 25  1  0  0  0  0
 27 26  1  0  0  0  0
 29 28  2  0  0  0  0
 29 27  1  0  0  0  0
 31 30  1  6  0  0  0
 31 29  1  0  0  0  0
 32 31  1  0  0  0  0
 33 34  2  0  0  0  0
 34 32  1  0  0  0  0
 35 34  1  0  0  0  0
M  END
>  <MODEL>
3

>  <REMARK>
 VINA RESULT:      -8.3      2.371      6.834
  Name = 
  11 active torsions:
  status: ('A' for Active; 'I' for Inactive)
    1  A    between atoms: C_5  and  N_22
    2  A    between atoms: C_7  and  C_18
    3  A    between atoms: O_12  and  C_32
    4  A    between atoms: O_12  and  C_34
    5  A    between atoms: C_14  and  C_28
    6  A    between atoms: C_16  and  C_32
    7  A    between atoms: C_16  and  O_33
    8  A    between atoms: C_17  and  O_33
    9  A    between atoms: C_18  and  C_24
   10  A    between atoms: N_22  and  C_23
   11  A    between atoms: C_24  and  C_34
                            x       y       z     vdW  Elec       q    Type
                         _______ _______ _______ _____ _____    ______ ____

>  <TORSDO>
F 11

$$$$
=
 OpenBabel10222419193D

 35 37  0  0  1  0  0  0  0  0999 V2000
  189.2880  177.2670  145.5400 C   0  0  0  0  0  0  0  0  0  0  0  0
  190.3760  176.6340  143.4590 C   0  0  0  0  0  3  0  0  0  0  0  0
  190.3950  176.7310  144.8510 C   0  0  0  0  0  0  0  0  0  0  0  0
  188.4380  177.8400  147.7020 O   0  0  0  0  0  0  0  0  0  0  0  0
  188.1630  177.5870  143.4090 C   0  0  0  0  0  3  0  0  0  0  0  0
  191.5530  176.3400  147.0700 C   0  0  0  0  0  0  0  0  0  0  0  0
  192.7030  175.8350  147.8660 C   0  0  0  0  0  1  0  0  0  0  0  0
  189.2670  177.0590  142.7300 C   0  0  0  0  0  0  0  0  0  0  0  0
  188.1550  177.6980  144.8070 C   0  0  0  0  0  0  0  0  0  0  0  0
  190.5290  176.8440  147.6890 N   0  0  0  0  0  0  0  0  0  0  0  0
  189.3720  177.3460  147.0170 C   0  0  0  0  0  0  0  0  0  0  0  0
  191.6330  176.2650  145.5690 C   0  0  0  0  0  2  0  0  0  0  0  0
  187.0080  178.2350  145.4900 N   0  0  0  0  0  2  0  0  0  0  0  0
  185.6840  178.4200  144.9690 C   0  0  0  0  0  0  0  0  0  0  0  0
  183.1160  178.7890  144.0300 C   0  0  0  0  0  0  0  0  0  0  0  0
  183.3980  178.9640  145.3520 N   0  0  0  0  0  0  0  0  0  0  0  0
  184.1460  178.4160  143.1600 C   0  0  0  0  0  3  0  0  0  0  0  0
  185.4030  178.2410  143.6480 N   0  0  0  0  0  0  0  0  0  0  0  0
  184.6560  178.7870  145.8390 C   0  0  0  0  0  3  0  0  0  0  0  0
  180.2130  179.8230  141.7060 C   0  0  0  0  0  1  0  0  0  0  0  0
  180.7550  178.6350  144.2250 O   0  0  0  0  0  0  0  0  0  0  0  0
  181.5420  179.6190  142.2600 N   0  0  0  0  0  2  0  0  0  0  0  0
  181.7470  179.0010  143.5320 C   0  0  0  0  0  0  0  0  0  0  0  0
  189.2820  176.9440  141.3360 O   0  0  0  0  0  0  0  0  0  0  0  0
  190.4850  176.8000  140.5950 C   0  0  0  0  0  2  0  0  0  0  0  0
  190.1580  176.6610  139.1240 C   0  0  0  0  0  2  0  0  0  0  0  0
  190.1070  177.9500  138.5280 O   0  0  0  0  0  0  0  0  0  0  0  0
  188.9360  179.6490  137.5360 O   0  0  0  0  0  0  0  0  0  0  0  0
  188.9050  178.5430  138.1370 C   0  0  0  0  0  0  0  0  0  0  0  0
  186.8590  178.6230  139.3340 O   0  0  0  0  0  1  0  0  0  0  0  0
  187.5890  177.8780  138.4030 C   0  0  1  0  0  3  0  0  0  0  0  0
  186.7990  177.7370  137.1120 C   0  0  0  0  0  2  0  0  0  0  0  0
  187.6590  175.6170  136.4470 O   0  0  0  0  0  1  0  0  0  0  0  0
  187.5130  176.8360  136.1650 C   0  0  0  0  0  0  0  0  0  0  0  0
  187.9840  177.3320  134.9530 O   0  0  0  0  0  0  0  0  0  0  0  0
  1 11  1  0  0  0  0
  2  3  2  0  0  0  0
  3  1  1  0  0  0  0
  3 12  1  0  0  0  0
  5  9  1  0  0  0  0
  6 10  2  0  0  0  0
  6  7  1  0  0  0  0
  8  5  2  0  0  0  0
  8  2  1  0  0  0  0
  9 13  1  0  0  0  0
  9  1  2  0  0  0  0
 11 10  1  0  0  0  0
 11  4  2  0  0  0  0
 12  6  1  0  0  0  0
 14 13  1  0  0  0  0
 14 19  1  0  0  0  0
 15 16  1  0  0  0  0
 16 19  2  0  0  0  0
 17 18  1  0  0  0  0
 17 15  2  0  0  0  0
 18 14  2  0  0  0  0
 20 22  1  0  0  0  0
 22 23  1  0  0  0  0
 23 15  1  0  0  0  0
 23 21  2  0  0  0  0
 24  8  1  0  0  0  0
 25 24  1  0  0  0  0
 26 25  1  0  0  0  0
 27 26  1  0  0  0  0
 28 29  2  0  0  0  0
 29 31  1  0  0  0  0
 29 27  1  0  0  0  0
 31 30  1  1  0  0  0
 32 31  1  0  0  0  0
 34 33  1  0  0  0  0
 34 32  1  0  0  0  0
 35 34  2  0  0  0  0
M  END
>  <MODEL>
4

>  <REMARK>
 VINA RESULT:      -8.3      3.059      8.725
  Name = 
  11 active torsions:
  status: ('A' for Active; 'I' for Inactive)
    1  A    between atoms: C_5  and  N_22
    2  A    between atoms: C_7  and  C_18
    3  A    between atoms: O_12  and  C_32
    4  A    between atoms: O_12  and  C_34
    5  A    between atoms: C_14  and  C_28
    6  A    between atoms: C_16  and  C_32
    7  A    between atoms: C_16  and  O_33
    8  A    between atoms: C_17  and  O_33
    9  A    between atoms: C_18  and  C_24
   10  A    between atoms: N_22  and  C_23
   11  A    between atoms: C_24  and  C_34
                            x       y       z     vdW  Elec       q    Type
                         _______ _______ _______ _____ _____    ______ ____

>  <TORSDO>
F 11

$$$$
=
 OpenBabel10222419193D

 35 37  0  0  1  0  0  0  0  0999 V2000
  189.3170  177.3110  145.4970 C   0  0  0  0  0  0  0  0  0  0  0  0
  190.5190  176.9330  143.4170 C   0  0  0  0  0  3  0  0  0  0  0  0
  190.4720  176.8840  144.8110 C   0  0  0  0  0  0  0  0  0  0  0  0
  188.3500  177.6300  147.6630 O   0  0  0  0  0  0  0  0  0  0  0  0
  188.2790  177.8190  143.3580 C   0  0  0  0  0  3  0  0  0  0  0  0
  191.5410  176.2980  147.0310 C   0  0  0  0  0  0  0  0  0  0  0  0
  192.6700  175.7470  147.8260 C   0  0  0  0  0  1  0  0  0  0  0  0
  189.4300  177.3990  142.6830 C   0  0  0  0  0  0  0  0  0  0  0  0
  188.2030  177.7830  144.7580 C   0  0  0  0  0  0  0  0  0  0  0  0
  190.4730  176.7030  147.6490 N   0  0  0  0  0  0  0  0  0  0  0  0
  189.3310  177.2380  146.9770 C   0  0  0  0  0  0  0  0  0  0  0  0
  191.6910  176.3830  145.5360 C   0  0  0  0  0  2  0  0  0  0  0  0
  187.0090  178.2110  145.4360 N   0  0  0  0  0  2  0  0  0  0  0  0
  185.7000  178.3900  144.8770 C   0  0  0  0  0  0  0  0  0  0  0  0
  183.1580  178.7480  143.8650 C   0  0  0  0  0  0  0  0  0  0  0  0
  183.4130  178.9780  145.1840 N   0  0  0  0  0  0  0  0  0  0  0  0
  184.2020  178.3250  143.0360 C   0  0  0  0  0  3  0  0  0  0  0  0
  185.4450  178.1550  143.5600 N   0  0  0  0  0  0  0  0  0  0  0  0
  184.6580  178.8070  145.7060 C   0  0  0  0  0  3  0  0  0  0  0  0
  180.3050  179.3570  141.3380 C   0  0  0  0  0  1  0  0  0  0  0  0
  180.8030  178.9320  144.0990 O   0  0  0  0  0  0  0  0  0  0  0  0
  181.6220  179.1790  141.9270 N   0  0  0  0  0  2  0  0  0  0  0  0
  181.8030  178.9550  143.3270 C   0  0  0  0  0  0  0  0  0  0  0  0
  189.5130  177.4300  141.2870 O   0  0  0  0  0  0  0  0  0  0  0  0
  188.5770  178.1330  140.4820 C   0  0  0  0  0  2  0  0  0  0  0  0
  188.5330  177.5150  139.1020 C   0  0  0  0  0  2  0  0  0  0  0  0
  189.7820  177.7150  138.4550 O   0  0  0  0  0  0  0  0  0  0  0  0
  190.0720  177.0270  136.2900 O   0  0  0  0  0  0  0  0  0  0  0  0
  190.2850  176.8160  137.5130 C   0  0  0  0  0  0  0  0  0  0  0  0
  190.2980  174.4700  137.8630 O   0  0  0  0  0  1  0  0  0  0  0  0
  191.0870  175.6210  137.9310 C   0  0  1  0  0  3  0  0  0  0  0  0
  192.3100  175.4690  137.0410 C   0  0  0  0  0  2  0  0  0  0  0  0
  193.5120  176.6640  138.7160 O   0  0  0  0  0  1  0  0  0  0  0  0
  193.3960  176.3820  137.4940 C   0  0  0  0  0  0  0  0  0  0  0  0
  194.3060  176.8920  136.5740 O   0  0  0  0  0  0  0  0  0  0  0  0
  1 11  1  0  0  0  0
  2  3  2  0  0  0  0
  3  1  1  0  0  0  0
  3 12  1  0  0  0  0
  5  9  1  0  0  0  0
  6 10  2  0  0  0  0
  6  7  1  0  0  0  0
  8  5  2  0  0  0  0
  8  2  1  0  0  0  0
  9 13  1  0  0  0  0
  9  1  2  0  0  0  0
 11 10  1  0  0  0  0
 11  4  2  0  0  0  0
 12  6  1  0  0  0  0
 14 13  1  0  0  0  0
 14 19  1  0  0  0  0
 15 16  1  0  0  0  0
 16 19  2  0  0  0  0
 17 18  1  0  0  0  0
 17 15  2  0  0  0  0
 18 14  2  0  0  0  0
 20 22  1  0  0  0  0
 22 23  1  0  0  0  0
 23 15  1  0  0  0  0
 23 21  2  0  0  0  0
 24  8  1  0  0  0  0
 25 24  1  0  0  0  0
 26 25  1  0  0  0  0
 27 26  1  0  0  0  0
 28 29  2  0  0  0  0
 29 31  1  0  0  0  0
 29 27  1  0  0  0  0
 31 30  1  6  0  0  0
 32 34  1  0  0  0  0
 32 31  1  0  0  0  0
 34 33  1  0  0  0  0
 35 34  2  0  0  0  0
M  END
>  <MODEL>
5

>  <REMARK>
 VINA RESULT:      -8.1      2.950      8.454
  Name = 
  11 active torsions:
  status: ('A' for Active; 'I' for Inactive)
    1  A    between atoms: C_5  and  N_22
    2  A    between atoms: C_7  and  C_18
    3  A    between atoms: O_12  and  C_32
    4  A    between atoms: O_12  and  C_34
    5  A    between atoms: C_14  and  C_28
    6  A    between atoms: C_16  and  C_32
    7  A    between atoms: C_16  and  O_33
    8  A    between atoms: C_17  and  O_33
    9  A    between atoms: C_18  and  C_24
   10  A    between atoms: N_22  and  C_23
   11  A    between atoms: C_24  and  C_34
                            x       y       z     vdW  Elec       q    Type
                         _______ _______ _______ _____ _____    ______ ____

>  <TORSDO>
F 11

$$$$
=
 OpenBabel10222419193D

 35 37  0  0  1  0  0  0  0  0999 V2000
  184.7920  178.8510  141.0570 C   0  0  0  0  0  0  0  0  0  0  0  0
  184.3610  178.2530  143.3750 C   0  0  0  0  0  3  0  0  0  0  0  0
  183.8870  178.5940  142.1070 C   0  0  0  0  0  0  0  0  0  0  0  0
  184.9670  179.4860  138.7570 O   0  0  0  0  0  0  0  0  0  0  0  0
  186.6320  178.4070  142.5830 C   0  0  0  0  0  3  0  0  0  0  0  0
  181.9610  178.9980  140.5120 C   0  0  0  0  0  0  0  0  0  0  0  0
  180.5050  179.0440  140.2150 C   0  0  0  0  0  1  0  0  0  0  0  0
  185.7290  178.1580  143.6220 C   0  0  0  0  0  0  0  0  0  0  0  0
  186.1850  178.7530  141.2990 C   0  0  0  0  0  0  0  0  0  0  0  0
  182.8080  179.2410  139.5570 N   0  0  0  0  0  0  0  0  0  0  0  0
  184.2260  179.2110  139.7360 C   0  0  0  0  0  0  0  0  0  0  0  0
  182.3970  178.6910  141.9190 C   0  0  0  0  0  2  0  0  0  0  0  0
  187.1260  178.9980  140.2390 N   0  0  0  0  0  2  0  0  0  0  0  0
  188.0660  178.0750  139.6710 C   0  0  0  0  0  0  0  0  0  0  0  0
  189.9130  176.3070  138.6340 C   0  0  0  0  0  0  0  0  0  0  0  0
  190.0750  176.8150  139.8880 N   0  0  0  0  0  0  0  0  0  0  0  0
  188.8000  176.6980  137.8820 C   0  0  0  0  0  3  0  0  0  0  0  0
  187.9060  177.5710  138.4160 N   0  0  0  0  0  0  0  0  0  0  0  0
  189.1780  177.6900  140.4210 C   0  0  0  0  0  3  0  0  0  0  0  0
  193.2880  174.8070  137.5120 C   0  0  0  0  0  1  0  0  0  0  0  0
  190.5210  174.2110  137.7000 O   0  0  0  0  0  0  0  0  0  0  0  0
  192.2730  175.7220  138.0110 N   0  0  0  0  0  2  0  0  0  0  0  0
  190.8940  175.3530  138.0910 C   0  0  0  0  0  0  0  0  0  0  0  0
  186.1670  177.8110  144.9050 O   0  0  0  0  0  0  0  0  0  0  0  0
  185.6860  178.4540  146.0760 C   0  0  0  0  0  2  0  0  0  0  0  0
  186.7110  178.3220  147.1810 C   0  0  0  0  0  2  0  0  0  0  0  0
  187.7590  177.4630  146.7540 O   0  0  0  0  0  0  0  0  0  0  0  0
  189.3310  178.0640  148.3060 O   0  0  0  0  0  0  0  0  0  0  0  0
  189.0870  177.6580  147.1390 C   0  0  0  0  0  0  0  0  0  0  0  0
  191.0640  176.4090  146.7460 O   0  0  0  0  0  1  0  0  0  0  0  0
  190.2180  177.3760  146.1980 C   0  0  1  0  0  3  0  0  0  0  0  0
  189.6810  176.9020  144.8570 C   0  0  0  0  0  2  0  0  0  0  0  0
  190.8540  175.7880  143.1070 O   0  0  0  0  0  0  0  0  0  0  0  0
  190.7880  176.7910  143.8670 C   0  0  0  0  0  0  0  0  0  0  0  0
  191.7270  177.8120  143.7540 O   0  0  0  0  0  1  0  0  0  0  0  0
  1  9  2  0  0  0  0
  1  3  1  0  0  0  0
  2  8  1  0  0  0  0
  3  2  2  0  0  0  0
  4 11  2  0  0  0  0
  5  8  2  0  0  0  0
  6 12  1  0  0  0  0
  7  6  1  0  0  0  0
  8 24  1  0  0  0  0
  9  5  1  0  0  0  0
 10 11  1  0  0  0  0
 10  6  2  0  0  0  0
 11  1  1  0  0  0  0
 12  3  1  0  0  0  0
 13  9  1  0  0  0  0
 14 13  1  0  0  0  0
 14 19  1  0  0  0  0
 15 16  1  0  0  0  0
 16 19  2  0  0  0  0
 17 18  1  0  0  0  0
 17 15  2  0  0  0  0
 18 14  2  0  0  0  0
 20 22  1  0  0  0  0
 21 23  2  0  0  0  0
 22 23  1  0  0  0  0
 23 15  1  0  0  0  0
 24 25  1  0  0  0  0
 25 26  1  0  0  0  0
 27 29  1  0  0  0  0
 27 26  1  0  0  0  0
 29 28  2  0  0  0  0
 31 30  1  1  0  0  0
 31 29  1  0  0  0  0
 32 31  1  0  0  0  0
 33 34  2  0  0  0  0
 34 32  1  0  0  0  0
 35 34  1  0  0  0  0
M  END
>  <MODEL>
6

>  <REMARK>
 VINA RESULT:      -8.0      1.326      1.839
  Name = 
  11 active torsions:
  status: ('A' for Active; 'I' for Inactive)
    1  A    between atoms: C_5  and  N_22
    2  A    between atoms: C_7  and  C_18
    3  A    between atoms: O_12  and  C_32
    4  A    between atoms: O_12  and  C_34
    5  A    between atoms: C_14  and  C_28
    6  A    between atoms: C_16  and  C_32
    7  A    between atoms: C_16  and  O_33
    8  A    between atoms: C_17  and  O_33
    9  A    between atoms: C_18  and  C_24
   10  A    between atoms: N_22  and  C_23
   11  A    between atoms: C_24  and  C_34
                            x       y       z     vdW  Elec       q    Type
                         _______ _______ _______ _____ _____    ______ ____

>  <TORSDO>
F 11

$$$$
=
 OpenBabel10222419193D

 35 37  0  0  1  0  0  0  0  0999 V2000
  188.9670  177.8890  140.2320 C   0  0  0  0  0  0  0  0  0  0  0  0
  189.4210  177.9650  142.6200 C   0  0  0  0  0  3  0  0  0  0  0  0
  188.5370  178.1300  141.5530 C   0  0  0  0  0  0  0  0  0  0  0  0
  188.2960  177.9210  137.9350 O   0  0  0  0  0  0  0  0  0  0  0  0
  191.1650  177.3090  141.0920 C   0  0  0  0  0  3  0  0  0  0  0  0
  186.2270  178.6810  140.6730 C   0  0  0  0  0  0  0  0  0  0  0  0
  184.8060  179.0570  140.8950 C   0  0  0  0  0  1  0  0  0  0  0  0
  190.7350  177.5560  142.4000 C   0  0  0  0  0  0  0  0  0  0  0  0
  190.3000  177.4690  139.9990 C   0  0  0  0  0  0  0  0  0  0  0  0
  186.6400  178.4620  139.4610 N   0  0  0  0  0  0  0  0  0  0  0  0
  187.9820  178.0860  139.1430 C   0  0  0  0  0  0  0  0  0  0  0  0
  187.1390  178.5880  141.8660 C   0  0  0  0  0  2  0  0  0  0  0  0
  190.7570  177.2030  138.6620 N   0  0  0  0  0  2  0  0  0  0  0  0
  191.7110  176.2180  138.2400 C   0  0  0  0  0  0  0  0  0  0  0  0
  193.5950  174.3710  137.4340 C   0  0  0  0  0  0  0  0  0  0  0  0
  193.9750  175.6290  137.7970 N   0  0  0  0  0  0  0  0  0  0  0  0
  192.2380  174.0340  137.4740 C   0  0  0  0  0  3  0  0  0  0  0  0
  191.3300  174.9620  137.8740 N   0  0  0  0  0  0  0  0  0  0  0  0
  193.0640  176.5570  138.1960 C   0  0  0  0  0  3  0  0  0  0  0  0
  196.4900  171.8270  137.6400 C   0  0  0  0  0  1  0  0  0  0  0  0
  194.6880  173.0290  135.8090 O   0  0  0  0  0  0  0  0  0  0  0  0
  195.4950  172.8270  137.9900 N   0  0  0  0  0  2  0  0  0  0  0  0
  194.6060  173.3850  137.0190 C   0  0  0  0  0  0  0  0  0  0  0  0
  191.5920  177.3970  143.4950 O   0  0  0  0  0  0  0  0  0  0  0  0
  191.4810  176.3080  144.3990 C   0  0  0  0  0  2  0  0  0  0  0  0
  191.4070  176.8340  145.8160 C   0  0  0  0  0  2  0  0  0  0  0  0
  190.3120  177.7330  145.9290 O   0  0  0  0  0  0  0  0  0  0  0  0
  189.0160  176.5010  147.3600 O   0  0  0  0  0  0  0  0  0  0  0  0
  189.0660  177.3310  146.4140 C   0  0  0  0  0  0  0  0  0  0  0  0
  187.1520  176.9070  145.0790 O   0  0  0  0  0  1  0  0  0  0  0  0
  187.7960  177.8840  145.8430 C   0  0  1  0  0  3  0  0  0  0  0  0
  186.8800  178.3610  146.9590 C   0  0  0  0  0  2  0  0  0  0  0  0
  184.4990  178.2690  146.9670 O   0  0  0  0  0  1  0  0  0  0  0  0
  185.5400  178.7140  146.4140 C   0  0  0  0  0  0  0  0  0  0  0  0
  185.4360  179.5640  145.3180 O   0  0  0  0  0  0  0  0  0  0  0  0
  1  3  1  0  0  0  0
  3 12  1  0  0  0  0
  3  2  2  0  0  0  0
  4 11  2  0  0  0  0
  5  8  2  0  0  0  0
  6  7  1  0  0  0  0
  6 12  1  0  0  0  0
  8  2  1  0  0  0  0
  8 24  1  0  0  0  0
  9  1  2  0  0  0  0
  9  5  1  0  0  0  0
 10  6  2  0  0  0  0
 11 10  1  0  0  0  0
 11  1  1  0  0  0  0
 13  9  1  0  0  0  0
 14 13  1  0  0  0  0
 15 17  2  0  0  0  0
 15 16  1  0  0  0  0
 16 19  2  0  0  0  0
 17 18  1  0  0  0  0
 18 14  2  0  0  0  0
 19 14  1  0  0  0  0
 20 22  1  0  0  0  0
 21 23  2  0  0  0  0
 23 15  1  0  0  0  0
 23 22  1  0  0  0  0
 24 25  1  0  0  0  0
 25 26  1  0  0  0  0
 26 27  1  0  0  0  0
 27 29  1  0  0  0  0
 29 28  2  0  0  0  0
 31 30  1  1  0  0  0
 31 29  1  0  0  0  0
 31 32  1  0  0  0  0
 34 32  1  0  0  0  0
 34 33  1  0  0  0  0
 35 34  2  0  0  0  0
M  END
>  <MODEL>
7

>  <REMARK>
 VINA RESULT:      -7.9      2.147      4.458
  Name = 
  11 active torsions:
  status: ('A' for Active; 'I' for Inactive)
    1  A    between atoms: C_5  and  N_22
    2  A    between atoms: C_7  and  C_18
    3  A    between atoms: O_12  and  C_32
    4  A    between atoms: O_12  and  C_34
    5  A    between atoms: C_14  and  C_28
    6  A    between atoms: C_16  and  C_32
    7  A    between atoms: C_16  and  O_33
    8  A    between atoms: C_17  and  O_33
    9  A    between atoms: C_18  and  C_24
   10  A    between atoms: N_22  and  C_23
   11  A    between atoms: C_24  and  C_34
                            x       y       z     vdW  Elec       q    Type
                         _______ _______ _______ _____ _____    ______ ____

>  <TORSDO>
F 11

$$$$
=
 OpenBabel10222419193D

 35 37  0  0  1  0  0  0  0  0999 V2000
  186.2880  178.2020  145.1620 C   0  0  0  0  0  0  0  0  0  0  0  0
  188.2380  177.4850  143.8970 C   0  0  0  0  0  3  0  0  0  0  0  0
  187.6400  177.8050  145.1170 C   0  0  0  0  0  0  0  0  0  0  0  0
  184.5230  178.9250  146.6070 O   0  0  0  0  0  0  0  0  0  0  0  0
  186.1680  177.9370  142.7480 C   0  0  0  0  0  3  0  0  0  0  0  0
  187.7600  178.0230  147.6380 C   0  0  0  0  0  0  0  0  0  0  0  0
  188.5020  177.9010  148.9200 C   0  0  0  0  0  1  0  0  0  0  0  0
  187.5120  177.5480  142.7090 C   0  0  0  0  0  0  0  0  0  0  0  0
  185.5410  178.2660  143.9590 C   0  0  0  0  0  0  0  0  0  0  0  0
  186.5150  178.3950  147.6610 N   0  0  0  0  0  0  0  0  0  0  0  0
  185.7130  178.5320  146.4860 C   0  0  0  0  0  0  0  0  0  0  0  0
  188.4900  177.7270  146.3560 C   0  0  0  0  0  2  0  0  0  0  0  0
  184.1570  178.6550  143.9820 N   0  0  0  0  0  2  0  0  0  0  0  0
  183.2460  178.7230  142.8750 C   0  0  0  0  0  0  0  0  0  0  0  0
  181.4440  178.8650  140.7900 C   0  0  0  0  0  0  0  0  0  0  0  0
  181.0310  179.0700  142.0730 N   0  0  0  0  0  0  0  0  0  0  0  0
  182.7930  178.5790  140.5490 C   0  0  0  0  0  3  0  0  0  0  0  0
  183.6600  178.5140  141.5940 N   0  0  0  0  0  0  0  0  0  0  0  0
  181.9010  179.0040  143.1170 C   0  0  0  0  0  3  0  0  0  0  0  0
  179.9000  178.4600  137.2760 C   0  0  0  0  0  1  0  0  0  0  0  0
  179.3540  179.4980  139.8600 O   0  0  0  0  0  0  0  0  0  0  0  0
  180.8250  178.4250  138.3980 N   0  0  0  0  0  2  0  0  0  0  0  0
  180.4820  178.9560  139.6810 C   0  0  0  0  0  0  0  0  0  0  0  0
  188.1440  177.2170  141.5060 O   0  0  0  0  0  0  0  0  0  0  0  0
  188.2810  178.1410  140.4360 C   0  0  0  0  0  2  0  0  0  0  0  0
  189.5500  177.8390  139.6690 C   0  0  0  0  0  2  0  0  0  0  0  0
  190.3240  176.8920  140.3900 O   0  0  0  0  0  0  0  0  0  0  0  0
  192.5270  177.4920  140.2160 O   0  0  0  0  0  0  0  0  0  0  0  0
  191.5530  177.2180  140.9660 C   0  0  0  0  0  0  0  0  0  0  0  0
  191.2360  178.4770  142.9510 O   0  0  0  0  0  1  0  0  0  0  0  0
  191.7250  177.2660  142.4540 C   0  0  1  0  0  3  0  0  0  0  0  0
  190.9970  176.1020  143.1070 C   0  0  0  0  0  2  0  0  0  0  0  0
  191.6340  176.3850  145.3850 O   0  0  0  0  0  1  0  0  0  0  0  0
  191.7060  175.6780  144.3450 C   0  0  0  0  0  0  0  0  0  0  0  0
  192.4160  174.4820  144.3660 O   0  0  0  0  0  0  0  0  0  0  0  0
  1 11  1  0  0  0  0
  2  3  2  0  0  0  0
  3  1  1  0  0  0  0
  3 12  1  0  0  0  0
  5  9  1  0  0  0  0
  6 10  2  0  0  0  0
  6  7  1  0  0  0  0
  8  5  2  0  0  0  0
  8  2  1  0  0  0  0
  9 13  1  0  0  0  0
  9  1  2  0  0  0  0
 11  4  2  0  0  0  0
 11 10  1  0  0  0  0
 12  6  1  0  0  0  0
 14 19  1  0  0  0  0
 14 13  1  0  0  0  0
 15 16  1  0  0  0  0
 16 19  2  0  0  0  0
 17 15  2  0  0  0  0
 17 18  1  0  0  0  0
 18 14  2  0  0  0  0
 20 22  1  0  0  0  0
 22 23  1  0  0  0  0
 23 21  2  0  0  0  0
 23 15  1  0  0  0  0
 24  8  1  0  0  0  0
 25 24  1  0  0  0  0
 26 27  1  0  0  0  0
 26 25  1  0  0  0  0
 27 29  1  0  0  0  0
 28 29  2  0  0  0  0
 29 31  1  0  0  0  0
 31 30  1  1  0  0  0
 31 32  1  0  0  0  0
 32 34  1  0  0  0  0
 34 35  2  0  0  0  0
 34 33  1  0  0  0  0
M  END
>  <MODEL>
8

>  <REMARK>
 VINA RESULT:      -7.8      3.109      7.008
  Name = 
  11 active torsions:
  status: ('A' for Active; 'I' for Inactive)
    1  A    between atoms: C_5  and  N_22
    2  A    between atoms: C_7  and  C_18
    3  A    between atoms: O_12  and  C_32
    4  A    between atoms: O_12  and  C_34
    5  A    between atoms: C_14  and  C_28
    6  A    between atoms: C_16  and  C_32
    7  A    between atoms: C_16  and  O_33
    8  A    between atoms: C_17  and  O_33
    9  A    between atoms: C_18  and  C_24
   10  A    between atoms: N_22  and  C_23
   11  A    between atoms: C_24  and  C_34
                            x       y       z     vdW  Elec       q    Type
                         _______ _______ _______ _____ _____    ______ ____

>  <TORSDO>
F 11

$$$$
=
 OpenBabel10222419193D

 35 37  0  0  1  0  0  0  0  0999 V2000
  186.9150  177.9620  145.1760 C   0  0  0  0  0  0  0  0  0  0  0  0
  188.9600  176.9570  144.3250 C   0  0  0  0  0  3  0  0  0  0  0  0
  188.2280  177.4920  145.3860 C   0  0  0  0  0  0  0  0  0  0  0  0
  185.0290  178.9900  146.2290 O   0  0  0  0  0  0  0  0  0  0  0  0
  187.1040  177.3340  142.8350 C   0  0  0  0  0  3  0  0  0  0  0  0
  188.0210  178.0890  147.8390 C   0  0  0  0  0  0  0  0  0  0  0  0
  188.5710  178.1290  149.2190 C   0  0  0  0  0  1  0  0  0  0  0  0
  188.4090  176.8740  143.0480 C   0  0  0  0  0  0  0  0  0  0  0  0
  186.3450  177.8780  143.8810 C   0  0  0  0  0  0  0  0  0  0  0  0
  186.8160  178.5260  147.6270 N   0  0  0  0  0  0  0  0  0  0  0  0
  186.1920  178.5220  146.3410 C   0  0  0  0  0  0  0  0  0  0  0  0
  188.8940  177.5610  146.7330 C   0  0  0  0  0  2  0  0  0  0  0  0
  185.0030  178.3380  143.6460 N   0  0  0  0  0  2  0  0  0  0  0  0
  184.3630  178.5690  142.3830 C   0  0  0  0  0  0  0  0  0  0  0  0
  183.1890  179.0440  139.9320 C   0  0  0  0  0  0  0  0  0  0  0  0
  184.4870  179.3960  140.1540 N   0  0  0  0  0  0  0  0  0  0  0  0
  182.4620  178.4440  140.9660 C   0  0  0  0  0  3  0  0  0  0  0  0
  183.0640  178.2210  142.1640 N   0  0  0  0  0  0  0  0  0  0  0  0
  185.0870  179.1730  141.3540 C   0  0  0  0  0  3  0  0  0  0  0  0
  181.6500  178.3640  136.4580 C   0  0  0  0  0  1  0  0  0  0  0  0
  182.2900  180.4640  138.2550 O   0  0  0  0  0  0  0  0  0  0  0  0
  182.2880  178.1840  137.7530 N   0  0  0  0  0  2  0  0  0  0  0  0
  182.5720  179.2860  138.6180 C   0  0  0  0  0  0  0  0  0  0  0  0
  189.1710  176.3290  142.0100 O   0  0  0  0  0  0  0  0  0  0  0  0
  190.5240  176.6970  141.7810 C   0  0  0  0  0  2  0  0  0  0  0  0
  190.6180  177.5010  140.5030 C   0  0  0  0  0  2  0  0  0  0  0  0
  191.3610  176.7690  139.5380 O   0  0  0  0  0  0  0  0  0  0  0  0
  190.5620  174.9830  138.3490 O   0  0  0  0  0  0  0  0  0  0  0  0
  190.7680  176.2240  138.3980 C   0  0  0  0  0  0  0  0  0  0  0  0
  190.7870  176.5230  136.0450 O   0  0  0  0  0  1  0  0  0  0  0  0
  190.3580  177.0910  137.2470 C   0  0  1  0  0  3  0  0  0  0  0  0
  188.8470  177.2660  137.2310 C   0  0  0  0  0  2  0  0  0  0  0  0
  188.8230  179.6490  137.2500 O   0  0  0  0  0  0  0  0  0  0  0  0
  188.4730  178.5820  137.8210 C   0  0  0  0  0  0  0  0  0  0  0  0
  187.7050  178.6330  138.9800 O   0  0  0  0  0  1  0  0  0  0  0  0
  1  3  1  0  0  0  0
  1 11  1  0  0  0  0
  2  3  2  0  0  0  0
  3 12  1  0  0  0  0
  4 11  2  0  0  0  0
  5  8  2  0  0  0  0
  5  9  1  0  0  0  0
  6  7  1  0  0  0  0
  8  2  1  0  0  0  0
  9  1  2  0  0  0  0
 10  6  2  0  0  0  0
 11 10  1  0  0  0  0
 12  6  1  0  0  0  0
 13  9  1  0  0  0  0
 14 13  1  0  0  0  0
 15 16  1  0  0  0  0
 15 17  2  0  0  0  0
 16 19  2  0  0  0  0
 17 18  1  0  0  0  0
 18 14  2  0  0  0  0
 19 14  1  0  0  0  0
 20 22  1  0  0  0  0
 21 23  2  0  0  0  0
 22 23  1  0  0  0  0
 23 15  1  0  0  0  0
 24  8  1  0  0  0  0
 25 24  1  0  0  0  0
 26 25  1  0  0  0  0
 27 26  1  0  0  0  0
 28 29  2  0  0  0  0
 29 27  1  0  0  0  0
 31 30  1  6  0  0  0
 31 29  1  0  0  0  0
 32 31  1  0  0  0  0
 32 34  1  0  0  0  0
 33 34  2  0  0  0  0
 34 35  1  0  0  0  0
M  END
>  <MODEL>
9

>  <REMARK>
 VINA RESULT:      -7.7      3.263      7.213
  Name = 
  11 active torsions:
  status: ('A' for Active; 'I' for Inactive)
    1  A    between atoms: C_5  and  N_22
    2  A    between atoms: C_7  and  C_18
    3  A    between atoms: O_12  and  C_32
    4  A    between atoms: O_12  and  C_34
    5  A    between atoms: C_14  and  C_28
    6  A    between atoms: C_16  and  C_32
    7  A    between atoms: C_16  and  O_33
    8  A    between atoms: C_17  and  O_33
    9  A    between atoms: C_18  and  C_24
   10  A    between atoms: N_22  and  C_23
   11  A    between atoms: C_24  and  C_34
                            x       y       z     vdW  Elec       q    Type
                         _______ _______ _______ _____ _____    ______ ____

>  <TORSDO>
F 11

$$$$
