=
 OpenBabel10222418413D

 41 44  0  0  1  0  0  0  0  0999 V2000
  189.2660  177.2490  144.7490 C   0  0  0  0  0  0  0  0  0  0  0  0
  186.3360  178.0710  144.5130 C   0  0  0  0  0  0  0  0  0  0  0  0
  187.0170  177.4160  143.5540 C   0  0  0  0  0  3  0  0  0  0  0  0
  188.8800  177.0160  146.1400 C   0  0  0  0  0  0  0  0  0  0  0  0
  189.7030  176.5350  146.9610 O   0  0  0  0  0  0  0  0  0  0  0  0
  190.3640  177.9720  144.4930 C   0  0  0  0  0  3  0  0  0  0  0  0
  184.5530  179.2610  145.5810 C   0  0  0  0  0  2  0  0  0  0  0  0
  188.3260  176.6840  143.7130 C   0  0  1  0  0  3  0  0  0  0  0  0
  185.5260  178.7810  146.6520 C   0  0  0  0  0  0  0  0  0  0  0  0
  186.7960  178.3870  145.9020 C   0  0  1  0  0  3  0  0  0  0  0  0
  185.8210  179.9110  147.6170 C   0  0  0  0  0  1  0  0  0  0  0  0
  184.9780  178.6310  144.2550 C   0  0  1  0  0  3  0  0  0  0  0  0
  184.8940  177.6180  147.4060 C   0  0  0  0  0  1  0  0  0  0  0  0
  187.5520  177.3220  146.5590 N   0  0  0  0  0  2  0  0  0  0  0  0
  185.0240  179.6980  143.1680 C   0  0  0  0  0  2  0  0  0  0  0  0
  185.2140  179.3330  140.6880 N   0  0  0  0  0  0  0  0  0  0  0  0
  183.5580  177.8140  140.3490 N   0  0  0  0  0  0  0  0  0  0  0  0
  185.0550  178.5250  138.3950 C   0  0  0  0  0  1  0  0  0  0  0  0
  184.5600  179.1490  141.9040 N   0  0  0  0  0  0  0  0  0  0  0  0
  184.6310  178.5870  139.8180 C   0  0  0  0  0  0  0  0  0  0  0  0
  183.5030  178.1650  141.7630 C   0  0  0  0  0  3  0  0  0  0  0  0
  188.9280  176.4530  142.4720 O   0  0  0  0  0  0  0  0  0  0  0  0
  188.1790  177.2030  141.5640 C   0  0  0  0  0  2  0  0  0  0  0  0
  188.9290  177.2960  140.2510 C   0  0  0  0  0  2  0  0  0  0  0  0
  188.5760  178.5970  139.5620 C   0  0  0  0  0  2  0  0  0  0  0  0
  189.3520  178.7150  138.2660 C   0  0  0  0  0  2  0  0  0  0  0  0
  188.4310  178.9950  137.1780 N   0  0  0  0  0  2  0  0  0  0  0  0
  188.5190  177.8910  136.2350 C   0  0  0  0  0  2  0  0  0  0  0  0
  189.8130  177.2410  136.3550 N   0  0  0  0  0  2  0  0  0  0  0  0
  189.6020  175.8370  136.0570 C   0  0  0  0  0  2  0  0  0  0  0  0
  192.2880  174.6190  137.4740 C   0  0  0  0  0  2  0  0  0  0  0  0
  191.0770  175.4650  137.8880 C   0  0  0  0  0  2  0  0  0  0  0  0
  192.1140  174.1520  136.1060 N   0  0  0  0  0  0  0  0  0  0  0  0
  191.0320  173.1660  136.0840 C   0  0  0  0  0  2  0  0  0  0  0  0
  193.3320  173.4520  135.7430 C   0  0  0  0  0  1  0  0  0  0  0  0
  189.8060  173.6090  136.9090 C   0  0  0  0  0  2  0  0  0  0  0  0
  189.8160  175.0400  137.2560 N   0  0  0  0  0  0  0  0  0  0  0  0
  190.8500  178.3300  143.1270 C   0  0  0  0  0  2  0  0  0  0  0  0
  191.9360  176.2710  143.3910 C   0  0  0  0  0  1  0  0  0  0  0  0
  192.1250  177.4470  141.3890 C   0  0  0  0  0  1  0  0  0  0  0  0
  192.0750  177.6060  142.8310 N   0  0  0  0  0  0  0  0  0  0  0  0
  1  4  1  0  0  0  0
  3  8  1  0  0  0  0
  3  2  2  0  0  0  0
  4 14  1  0  0  0  0
  4  5  2  0  0  0  0
  6  1  2  0  0  0  0
  7  9  1  0  0  0  0
  8 22  1  6  0  0  0
  8  1  1  0  0  0  0
  9 13  1  0  0  0  0
  9 11  1  0  0  0  0
 10  2  1  6  0  0  0
 10 14  1  0  0  0  0
 10  9  1  0  0  0  0
 12 15  1  6  0  0  0
 12  2  1  0  0  0  0
 12  7  1  0  0  0  0
 16 19  1  0  0  0  0
 17 21  2  0  0  0  0
 18 20  1  0  0  0  0
 19 15  1  0  0  0  0
 20 17  1  0  0  0  0
 20 16  2  0  0  0  0
 21 19  1  0  0  0  0
 23 22  1  0  0  0  0
 24 23  1  0  0  0  0
 25 24  1  0  0  0  0
 26 25  1  0  0  0  0
 27 26  1  0  0  0  0
 28 29  1  0  0  0  0
 28 27  1  0  0  0  0
 30 29  1  0  0  0  0
 30 37  1  0  0  0  0
 31 32  1  0  0  0  0
 33 31  1  0  0  0  0
 34 33  1  0  0  0  0
 34 36  1  0  0  0  0
 35 33  1  0  0  0  0
 36 37  1  0  0  0  0
 37 32  1  0  0  0  0
 38  6  1  0  0  0  0
 40 41  1  0  0  0  0
 41 38  1  0  0  0  0
 41 39  1  0  0  0  0
M  END
>  <MODEL>
1

>  <REMARK>
 VINA RESULT:      -7.0      0.000      0.000
  Name = 
  14 active torsions:
  status: ('A' for Active; 'I' for Inactive)
    1  A    between atoms: N_3  and  C_17
    2  A    between atoms: N_3  and  C_32
    3  A    between atoms: C_4  and  N_30
    4  A    between atoms: C_4  and  C_35
    5  A    between atoms: C_15  and  C_26
    6  A    between atoms: C_17  and  N_37
    7  A    between atoms: C_19  and  O_20
    8  A    between atoms: O_20  and  C_21
    9  A    between atoms: C_21  and  C_22
   10  A    between atoms: C_22  and  C_28
   11  A    between atoms: N_25  and  C_32
   12  A    between atoms: N_25  and  C_39
   13  A    between atoms: C_26  and  N_40
   14  A    between atoms: C_28  and  C_39
                            x       y       z     vdW  Elec       q    Type
                         _______ _______ _______ _____ _____    ______ ____

>  <TORSDO>
F 14

$$$$
=
 OpenBabel10222418413D

 41 44  0  0  1  0  0  0  0  0999 V2000
  189.2900  177.2480  144.6950 C   0  0  0  0  0  0  0  0  0  0  0  0
  186.3600  178.0680  144.4480 C   0  0  0  0  0  0  0  0  0  0  0  0
  187.0470  177.4200  143.4890 C   0  0  0  0  0  3  0  0  0  0  0  0
  188.8960  177.0050  146.0820 C   0  0  0  0  0  0  0  0  0  0  0  0
  189.7150  176.5190  146.9050 O   0  0  0  0  0  0  0  0  0  0  0  0
  190.3880  177.9750  144.4500 C   0  0  0  0  0  3  0  0  0  0  0  0
  184.5690  179.2470  145.5140 C   0  0  0  0  0  2  0  0  0  0  0  0
  188.3570  176.6900  143.6500 C   0  0  1  0  0  3  0  0  0  0  0  0
  185.5370  178.7620  146.5870 C   0  0  0  0  0  0  0  0  0  0  0  0
  186.8120  178.3750  145.8420 C   0  0  1  0  0  3  0  0  0  0  0  0
  185.8250  179.8850  147.5620 C   0  0  0  0  0  1  0  0  0  0  0  0
  185.0020  178.6280  144.1870 C   0  0  1  0  0  3  0  0  0  0  0  0
  184.9030  177.5930  147.3300 C   0  0  0  0  0  1  0  0  0  0  0  0
  187.5660  177.3060  146.4960 N   0  0  0  0  0  2  0  0  0  0  0  0
  185.0540  179.7020  143.1070 C   0  0  0  0  0  2  0  0  0  0  0  0
  185.3150  179.2950  140.6400 N   0  0  0  0  0  0  0  0  0  0  0  0
  183.6040  177.8490  140.2600 N   0  0  0  0  0  0  0  0  0  0  0  0
  185.2010  178.4640  138.3530 C   0  0  0  0  0  1  0  0  0  0  0  0
  184.6100  179.1580  141.8340 N   0  0  0  0  0  0  0  0  0  0  0  0
  184.7290  178.5650  139.7590 C   0  0  0  0  0  0  0  0  0  0  0  0
  183.5140  178.2220  141.6670 C   0  0  0  0  0  3  0  0  0  0  0  0
  188.9650  176.4680  142.4110 O   0  0  0  0  0  0  0  0  0  0  0  0
  188.2540  177.2650  141.5120 C   0  0  0  0  0  2  0  0  0  0  0  0
  188.9400  177.2340  140.1630 C   0  0  0  0  0  2  0  0  0  0  0  0
  188.7880  178.5830  139.4910 C   0  0  0  0  0  2  0  0  0  0  0  0
  189.1650  178.4700  138.0270 C   0  0  0  0  0  2  0  0  0  0  0  0
  188.7980  177.1520  137.5380 N   0  0  0  0  0  2  0  0  0  0  0  0
  189.9840  176.5650  136.9330 C   0  0  0  0  0  2  0  0  0  0  0  0
  190.0620  175.1540  137.2710 N   0  0  0  0  0  2  0  0  0  0  0  0
  191.4460  174.8850  137.6180 C   0  0  0  0  0  2  0  0  0  0  0  0
  193.8950  172.9550  136.6270 C   0  0  0  0  0  2  0  0  0  0  0  0
  192.5550  173.4550  136.0710 C   0  0  0  0  0  2  0  0  0  0  0  0
  194.1810  173.6230  137.8880 N   0  0  0  0  0  0  0  0  0  0  0  0
  194.4710  175.0320  137.6150 C   0  0  0  0  0  2  0  0  0  0  0  0
  195.4020  173.0340  138.4080 C   0  0  0  0  0  1  0  0  0  0  0  0
  193.4760  175.6620  136.6170 C   0  0  0  0  0  2  0  0  0  0  0  0
  192.2610  174.8570  136.4120 N   0  0  0  0  0  0  0  0  0  0  0  0
  190.8810  178.3430  143.0890 C   0  0  0  0  0  2  0  0  0  0  0  0
  191.9800  176.2950  143.3830 C   0  0  0  0  0  1  0  0  0  0  0  0
  192.1380  177.4280  141.3540 C   0  0  0  0  0  1  0  0  0  0  0  0
  192.1050  177.6180  142.7930 N   0  0  0  0  0  0  0  0  0  0  0  0
  1  4  1  0  0  0  0
  3  8  1  0  0  0  0
  3  2  2  0  0  0  0
  4 14  1  0  0  0  0
  4  5  2  0  0  0  0
  6  1  2  0  0  0  0
  7  9  1  0  0  0  0
  8 22  1  6  0  0  0
  8  1  1  0  0  0  0
  9 13  1  0  0  0  0
  9 11  1  0  0  0  0
 10  2  1  6  0  0  0
 10 14  1  0  0  0  0
 10  9  1  0  0  0  0
 12 15  1  6  0  0  0
 12  2  1  0  0  0  0
 12  7  1  0  0  0  0
 16 19  1  0  0  0  0
 17 21  2  0  0  0  0
 18 20  1  0  0  0  0
 19 15  1  0  0  0  0
 20 17  1  0  0  0  0
 20 16  2  0  0  0  0
 21 19  1  0  0  0  0
 23 22  1  0  0  0  0
 24 23  1  0  0  0  0
 25 24  1  0  0  0  0
 26 25  1  0  0  0  0
 27 26  1  0  0  0  0
 28 29  1  0  0  0  0
 28 27  1  0  0  0  0
 29 30  1  0  0  0  0
 31 33  1  0  0  0  0
 32 37  1  0  0  0  0
 32 31  1  0  0  0  0
 33 35  1  0  0  0  0
 34 33  1  0  0  0  0
 36 34  1  0  0  0  0
 37 36  1  0  0  0  0
 37 30  1  0  0  0  0
 38  6  1  0  0  0  0
 40 41  1  0  0  0  0
 41 38  1  0  0  0  0
 41 39  1  0  0  0  0
M  END
>  <MODEL>
2

>  <REMARK>
 VINA RESULT:      -6.7      0.924      1.542
  Name = 
  14 active torsions:
  status: ('A' for Active; 'I' for Inactive)
    1  A    between atoms: N_3  and  C_17
    2  A    between atoms: N_3  and  C_32
    3  A    between atoms: C_4  and  N_30
    4  A    between atoms: C_4  and  C_35
    5  A    between atoms: C_15  and  C_26
    6  A    between atoms: C_17  and  N_37
    7  A    between atoms: C_19  and  O_20
    8  A    between atoms: O_20  and  C_21
    9  A    between atoms: C_21  and  C_22
   10  A    between atoms: C_22  and  C_28
   11  A    between atoms: N_25  and  C_32
   12  A    between atoms: N_25  and  C_39
   13  A    between atoms: C_26  and  N_40
   14  A    between atoms: C_28  and  C_39
                            x       y       z     vdW  Elec       q    Type
                         _______ _______ _______ _____ _____    ______ ____

>  <TORSDO>
F 14

$$$$
=
 OpenBabel10222418413D

 41 44  0  0  1  0  0  0  0  0999 V2000
  189.2540  177.2470  144.6880 C   0  0  0  0  0  0  0  0  0  0  0  0
  186.3290  178.0730  144.4200 C   0  0  0  0  0  0  0  0  0  0  0  0
  187.0190  177.4170  143.4690 C   0  0  0  0  0  3  0  0  0  0  0  0
  188.8530  177.0140  146.0740 C   0  0  0  0  0  0  0  0  0  0  0  0
  189.6670  176.5320  146.9040 O   0  0  0  0  0  0  0  0  0  0  0  0
  190.3560  177.9690  144.4430 C   0  0  0  0  0  3  0  0  0  0  0  0
  184.5360  179.2650  145.4700 C   0  0  0  0  0  2  0  0  0  0  0  0
  188.3250  176.6840  143.6410 C   0  0  1  0  0  3  0  0  0  0  0  0
  185.4960  178.7840  146.5510 C   0  0  0  0  0  0  0  0  0  0  0  0
  186.7740  178.3880  145.8140 C   0  0  1  0  0  3  0  0  0  0  0  0
  185.7830  179.9130  147.5190 C   0  0  0  0  0  1  0  0  0  0  0  0
  184.9740  178.6350  144.1490 C   0  0  1  0  0  3  0  0  0  0  0  0
  184.8550  177.6210  147.2980 C   0  0  0  0  0  1  0  0  0  0  0  0
  187.5220  177.3220  146.4790 N   0  0  0  0  0  2  0  0  0  0  0  0
  185.0330  179.7020  143.0620 C   0  0  0  0  0  2  0  0  0  0  0  0
  185.3110  179.2930  140.5970 N   0  0  0  0  0  0  0  0  0  0  0  0
  183.6230  177.8200  140.2140 N   0  0  0  0  0  0  0  0  0  0  0  0
  185.2180  178.4550  138.3110 C   0  0  0  0  0  1  0  0  0  0  0  0
  184.6030  179.1480  141.7890 N   0  0  0  0  0  0  0  0  0  0  0  0
  184.7400  178.5510  139.7150 C   0  0  0  0  0  0  0  0  0  0  0  0
  183.5220  178.1950  141.6190 C   0  0  0  0  0  3  0  0  0  0  0  0
  188.9390  176.4530  142.4070 O   0  0  0  0  0  0  0  0  0  0  0  0
  188.3030  177.3220  141.5190 C   0  0  0  0  0  2  0  0  0  0  0  0
  188.8740  177.1260  140.1300 C   0  0  0  0  0  2  0  0  0  0  0  0
  188.9140  178.4580  139.4120 C   0  0  0  0  0  2  0  0  0  0  0  0
  189.0650  178.2300  137.9210 C   0  0  0  0  0  2  0  0  0  0  0  0
  188.4570  176.9600  137.5660 N   0  0  0  0  0  2  0  0  0  0  0  0
  188.3910  176.8970  136.1140 C   0  0  0  0  0  2  0  0  0  0  0  0
  187.1110  176.3460  135.7020 N   0  0  0  0  0  2  0  0  0  0  0  0
  186.7350  175.3680  136.7060 C   0  0  0  0  0  2  0  0  0  0  0  0
  184.6650  173.2200  135.3640 C   0  0  0  0  0  2  0  0  0  0  0  0
  186.0160  173.8560  135.0140 C   0  0  0  0  0  2  0  0  0  0  0  0
  184.2750  173.6090  136.7110 N   0  0  0  0  0  0  0  0  0  0  0  0
  185.1740  172.9550  137.6630 C   0  0  0  0  0  2  0  0  0  0  0  0
  182.9500  173.0630  136.9390 C   0  0  0  0  0  1  0  0  0  0  0  0
  186.6550  173.0350  137.2360 C   0  0  0  0  0  2  0  0  0  0  0  0
  186.9080  174.0240  136.1740 N   0  0  0  0  0  0  0  0  0  0  0  0
  190.8570  178.3270  143.0820 C   0  0  0  0  0  2  0  0  0  0  0  0
  191.9440  176.2690  143.3470 C   0  0  0  0  0  1  0  0  0  0  0  0
  192.1700  177.4650  141.3620 C   0  0  0  0  0  1  0  0  0  0  0  0
  192.0900  177.6100  142.8040 N   0  0  0  0  0  0  0  0  0  0  0  0
  1  4  1  0  0  0  0
  3  8  1  0  0  0  0
  3  2  2  0  0  0  0
  4 14  1  0  0  0  0
  4  5  2  0  0  0  0
  6  1  2  0  0  0  0
  7  9  1  0  0  0  0
  8 22  1  6  0  0  0
  8  1  1  0  0  0  0
  9 13  1  0  0  0  0
  9 11  1  0  0  0  0
 10  2  1  6  0  0  0
 10 14  1  0  0  0  0
 10  9  1  0  0  0  0
 12 15  1  6  0  0  0
 12  2  1  0  0  0  0
 12  7  1  0  0  0  0
 16 19  1  0  0  0  0
 17 21  2  0  0  0  0
 18 20  1  0  0  0  0
 19 15  1  0  0  0  0
 20 17  1  0  0  0  0
 20 16  2  0  0  0  0
 21 19  1  0  0  0  0
 23 22  1  0  0  0  0
 24 23  1  0  0  0  0
 25 24  1  0  0  0  0
 26 25  1  0  0  0  0
 27 26  1  0  0  0  0
 28 27  1  0  0  0  0
 29 28  1  0  0  0  0
 29 30  1  0  0  0  0
 31 33  1  0  0  0  0
 32 31  1  0  0  0  0
 32 37  1  0  0  0  0
 33 35  1  0  0  0  0
 33 34  1  0  0  0  0
 36 34  1  0  0  0  0
 37 30  1  0  0  0  0
 37 36  1  0  0  0  0
 38  6  1  0  0  0  0
 40 41  1  0  0  0  0
 41 38  1  0  0  0  0
 41 39  1  0  0  0  0
M  END
>  <MODEL>
3

>  <REMARK>
 VINA RESULT:      -6.7      2.100      2.938
  Name = 
  14 active torsions:
  status: ('A' for Active; 'I' for Inactive)
    1  A    between atoms: N_3  and  C_17
    2  A    between atoms: N_3  and  C_32
    3  A    between atoms: C_4  and  N_30
    4  A    between atoms: C_4  and  C_35
    5  A    between atoms: C_15  and  C_26
    6  A    between atoms: C_17  and  N_37
    7  A    between atoms: C_19  and  O_20
    8  A    between atoms: O_20  and  C_21
    9  A    between atoms: C_21  and  C_22
   10  A    between atoms: C_22  and  C_28
   11  A    between atoms: N_25  and  C_32
   12  A    between atoms: N_25  and  C_39
   13  A    between atoms: C_26  and  N_40
   14  A    between atoms: C_28  and  C_39
                            x       y       z     vdW  Elec       q    Type
                         _______ _______ _______ _____ _____    ______ ____

>  <TORSDO>
F 14

$$$$
=
 OpenBabel10222418413D

 41 44  0  0  1  0  0  0  0  0999 V2000
  180.9990  177.1360  139.7520 C   0  0  0  0  0  0  0  0  0  0  0  0
  183.5680  176.5640  138.2070 C   0  0  0  0  0  0  0  0  0  0  0  0
  183.5170  177.2630  139.3560 C   0  0  0  0  0  3  0  0  0  0  0  0
  180.6660  175.7860  139.3030 C   0  0  0  0  0  0  0  0  0  0  0  0
  179.5930  175.2360  139.6660 O   0  0  0  0  0  0  0  0  0  0  0  0
  180.1090  178.1200  139.5660 C   0  0  0  0  0  3  0  0  0  0  0  0
  184.4670  175.6030  136.2060 C   0  0  0  0  0  2  0  0  0  0  0  0
  182.3770  177.3010  140.3430 C   0  0  1  0  0  3  0  0  0  0  0  0
  183.1410  174.9180  136.5200 C   0  0  0  0  0  0  0  0  0  0  0  0
  182.4530  175.8140  137.5470 C   0  0  1  0  0  3  0  0  0  0  0  0
  182.3010  174.8300  135.2620 C   0  0  0  0  0  1  0  0  0  0  0  0
  184.8160  176.5000  137.3920 C   0  0  1  0  0  3  0  0  0  0  0  0
  183.4230  173.5170  137.0450 C   0  0  0  0  0  1  0  0  0  0  0  0
  181.5750  175.0830  138.4600 N   0  0  0  0  0  2  0  0  0  0  0  0
  185.2130  177.8850  136.8940 C   0  0  0  0  0  2  0  0  0  0  0  0
  187.0080  177.8440  138.6540 N   0  0  0  0  0  0  0  0  0  0  0  0
  188.7170  178.8530  137.5470 N   0  0  0  0  0  0  0  0  0  0  0  0
  189.0910  177.9430  139.9130 C   0  0  0  0  0  1  0  0  0  0  0  0
  186.5220  178.2500  137.4120 N   0  0  0  0  0  0  0  0  0  0  0  0
  188.2400  178.2040  138.7220 C   0  0  0  0  0  0  0  0  0  0  0  0
  187.5760  178.8800  136.6400 C   0  0  0  0  0  3  0  0  0  0  0  0
  182.4940  178.3940  141.2060 O   0  0  0  0  0  0  0  0  0  0  0  0
  183.8540  178.7090  141.2070 C   0  0  0  0  0  2  0  0  0  0  0  0
  184.4690  178.2730  142.5200 C   0  0  0  0  0  2  0  0  0  0  0  0
  183.6240  178.7920  143.6660 C   0  0  0  0  0  2  0  0  0  0  0  0
  184.5130  179.4720  144.6880 C   0  0  0  0  0  2  0  0  0  0  0  0
  184.2340  178.9280  146.0050 N   0  0  0  0  0  2  0  0  0  0  0  0
  185.4050  178.1720  146.4230 C   0  0  0  0  0  2  0  0  0  0  0  0
  186.5130  178.4410  145.5230 N   0  0  0  0  0  2  0  0  0  0  0  0
  187.7300  178.2120  146.2810 C   0  0  0  0  0  2  0  0  0  0  0  0
  190.8010  177.4100  145.4910 C   0  0  0  0  0  2  0  0  0  0  0  0
  189.7040  176.8900  146.4280 C   0  0  0  0  0  2  0  0  0  0  0  0
  190.2690  178.4790  144.6590 N   0  0  0  0  0  0  0  0  0  0  0  0
  189.3100  177.9020  143.7150 C   0  0  0  0  0  2  0  0  0  0  0  0
  191.3760  178.9930  143.8740 C   0  0  0  0  0  1  0  0  0  0  0  0
  188.3510  176.8940  144.3820 C   0  0  0  0  0  2  0  0  0  0  0  0
  188.3510  176.9670  145.8530 N   0  0  0  0  0  0  0  0  0  0  0  0
  180.3320  179.5520  139.9280 C   0  0  0  0  0  2  0  0  0  0  0  0
  179.9080  181.6980  139.0890 C   0  0  0  0  0  1  0  0  0  0  0  0
  181.7660  180.5000  138.3550 C   0  0  0  0  0  1  0  0  0  0  0  0
  180.3680  180.3670  138.7260 N   0  0  0  0  0  0  0  0  0  0  0  0
  1  8  1  0  0  0  0
  2  3  2  0  0  0  0
  3  8  1  0  0  0  0
  4  5  2  0  0  0  0
  4  1  1  0  0  0  0
  6  1  2  0  0  0  0
  6 38  1  0  0  0  0
  7  9  1  0  0  0  0
  7 12  1  0  0  0  0
  8 22  1  6  0  0  0
  9 13  1  0  0  0  0
  9 10  1  0  0  0  0
 10  2  1  1  0  0  0
 10 14  1  0  0  0  0
 11  9  1  0  0  0  0
 12 15  1  6  0  0  0
 12  2  1  0  0  0  0
 14  4  1  0  0  0  0
 15 19  1  0  0  0  0
 16 20  2  0  0  0  0
 17 20  1  0  0  0  0
 19 16  1  0  0  0  0
 20 18  1  0  0  0  0
 21 19  1  0  0  0  0
 21 17  2  0  0  0  0
 22 23  1  0  0  0  0
 23 24  1  0  0  0  0
 24 25  1  0  0  0  0
 25 26  1  0  0  0  0
 26 27  1  0  0  0  0
 27 28  1  0  0  0  0
 29 30  1  0  0  0  0
 29 28  1  0  0  0  0
 31 32  1  0  0  0  0
 33 31  1  0  0  0  0
 34 36  1  0  0  0  0
 34 33  1  0  0  0  0
 35 33  1  0  0  0  0
 36 37  1  0  0  0  0
 37 30  1  0  0  0  0
 37 32  1  0  0  0  0
 40 41  1  0  0  0  0
 41 39  1  0  0  0  0
 41 38  1  0  0  0  0
M  END
>  <MODEL>
4

>  <REMARK>
 VINA RESULT:      -6.6      3.407      9.117
  Name = 
  14 active torsions:
  status: ('A' for Active; 'I' for Inactive)
    1  A    between atoms: N_3  and  C_17
    2  A    between atoms: N_3  and  C_32
    3  A    between atoms: C_4  and  N_30
    4  A    between atoms: C_4  and  C_35
    5  A    between atoms: C_15  and  C_26
    6  A    between atoms: C_17  and  N_37
    7  A    between atoms: C_19  and  O_20
    8  A    between atoms: O_20  and  C_21
    9  A    between atoms: C_21  and  C_22
   10  A    between atoms: C_22  and  C_28
   11  A    between atoms: N_25  and  C_32
   12  A    between atoms: N_25  and  C_39
   13  A    between atoms: C_26  and  N_40
   14  A    between atoms: C_28  and  C_39
                            x       y       z     vdW  Elec       q    Type
                         _______ _______ _______ _____ _____    ______ ____

>  <TORSDO>
F 14

$$$$
=
 OpenBabel10222418413D

 41 44  0  0  1  0  0  0  0  0999 V2000
  184.2470  176.9450  136.9760 C   0  0  0  0  0  0  0  0  0  0  0  0
  183.8860  178.2970  139.6890 C   0  0  0  0  0  0  0  0  0  0  0  0
  185.0460  178.2680  139.0070 C   0  0  0  0  0  3  0  0  0  0  0  0
  182.8940  177.4560  136.7670 C   0  0  0  0  0  0  0  0  0  0  0  0
  182.3160  177.3030  135.6590 O   0  0  0  0  0  0  0  0  0  0  0  0
  184.5040  175.6590  136.7070 C   0  0  0  0  0  3  0  0  0  0  0  0
  182.3500  178.6810  141.4860 C   0  0  0  0  0  2  0  0  0  0  0  0
  185.2310  177.9350  137.5480 C   0  0  1  0  0  3  0  0  0  0  0  0
  181.5520  178.4400  140.2100 C   0  0  0  0  0  0  0  0  0  0  0  0
  182.5420  177.8330  139.2180 C   0  0  1  0  0  3  0  0  0  0  0  0
  180.4280  177.4630  140.4870 C   0  0  0  0  0  1  0  0  0  0  0  0
  183.8240  178.7840  141.0970 C   0  0  1  0  0  3  0  0  0  0  0  0
  180.9710  179.7660  139.7360 C   0  0  0  0  0  1  0  0  0  0  0  0
  182.2340  178.1470  137.8240 N   0  0  0  0  0  2  0  0  0  0  0  0
  184.6640  177.9040  142.0160 C   0  0  0  0  0  2  0  0  0  0  0  0
  185.4390  178.1670  144.3920 N   0  0  0  0  0  0  0  0  0  0  0  0
  183.7030  179.3330  145.2830 N   0  0  0  0  0  0  0  0  0  0  0  0
  185.7590  178.8100  146.7210 C   0  0  0  0  0  1  0  0  0  0  0  0
  184.4650  178.2900  143.4030 N   0  0  0  0  0  0  0  0  0  0  0  0
  184.9900  178.7450  145.4500 C   0  0  0  0  0  0  0  0  0  0  0  0
  183.3350  179.0520  143.9000 C   0  0  0  0  0  3  0  0  0  0  0  0
  186.5660  177.6300  137.2670 O   0  0  0  0  0  0  0  0  0  0  0  0
  187.2990  178.2530  138.2780 C   0  0  0  0  0  2  0  0  0  0  0  0
  188.7550  178.3290  137.8690 C   0  0  0  0  0  2  0  0  0  0  0  0
  189.6290  178.2390  139.1030 C   0  0  0  0  0  2  0  0  0  0  0  0
  189.8390  176.7850  139.4750 C   0  0  0  0  0  2  0  0  0  0  0  0
  189.9920  176.6760  140.9150 N   0  0  0  0  0  2  0  0  0  0  0  0
  188.9160  177.4380  141.5300 C   0  0  0  0  0  2  0  0  0  0  0  0
  188.2790  176.6440  142.5660 N   0  0  0  0  0  2  0  0  0  0  0  0
  189.2540  176.4860  143.6290 C   0  0  0  0  0  2  0  0  0  0  0  0
  191.7380  177.5020  145.5010 C   0  0  0  0  0  2  0  0  0  0  0  0
  191.1090  177.8830  144.1550 C   0  0  0  0  0  2  0  0  0  0  0  0
  190.9230  176.4860  146.1520 N   0  0  0  0  0  0  0  0  0  0  0  0
  189.6600  177.0980  146.5680 C   0  0  0  0  0  2  0  0  0  0  0  0
  191.6230  176.0980  147.3620 C   0  0  0  0  0  1  0  0  0  0  0  0
  189.0440  177.9960  145.4740 C   0  0  0  0  0  2  0  0  0  0  0  0
  189.6390  177.7930  144.1430 N   0  0  0  0  0  0  0  0  0  0  0  0
  185.8230  174.9890  136.9190 C   0  0  0  0  0  2  0  0  0  0  0  0
  184.4300  173.1110  137.0600 C   0  0  0  0  0  1  0  0  0  0  0  0
  186.7410  172.8700  137.2200 C   0  0  0  0  0  1  0  0  0  0  0  0
  185.6310  173.7230  137.6050 N   0  0  0  0  0  0  0  0  0  0  0  0
  1  8  1  0  0  0  0
  2 12  1  0  0  0  0
  3  2  2  0  0  0  0
  4  1  1  0  0  0  0
  4 14  1  0  0  0  0
  5  4  2  0  0  0  0
  6 38  1  0  0  0  0
  6  1  2  0  0  0  0
  8 22  1  1  0  0  0
  8  3  1  0  0  0  0
  9 11  1  0  0  0  0
  9  7  1  0  0  0  0
 10 14  1  6  0  0  0
 10  2  1  0  0  0  0
 10  9  1  0  0  0  0
 12  7  1  0  0  0  0
 12 15  1  1  0  0  0
 13  9  1  0  0  0  0
 15 19  1  0  0  0  0
 16 20  2  0  0  0  0
 17 20  1  0  0  0  0
 19 21  1  0  0  0  0
 19 16  1  0  0  0  0
 20 18  1  0  0  0  0
 21 17  2  0  0  0  0
 22 23  1  0  0  0  0
 24 23  1  0  0  0  0
 24 25  1  0  0  0  0
 25 26  1  0  0  0  0
 26 27  1  0  0  0  0
 27 28  1  0  0  0  0
 28 29  1  0  0  0  0
 29 30  1  0  0  0  0
 30 37  1  0  0  0  0
 31 33  1  0  0  0  0
 32 31  1  0  0  0  0
 33 34  1  0  0  0  0
 33 35  1  0  0  0  0
 36 34  1  0  0  0  0
 37 32  1  0  0  0  0
 37 36  1  0  0  0  0
 38 41  1  0  0  0  0
 39 41  1  0  0  0  0
 40 41  1  0  0  0  0
M  END
>  <MODEL>
5

>  <REMARK>
 VINA RESULT:      -6.5      3.185      7.596
  Name = 
  14 active torsions:
  status: ('A' for Active; 'I' for Inactive)
    1  A    between atoms: N_3  and  C_17
    2  A    between atoms: N_3  and  C_32
    3  A    between atoms: C_4  and  N_30
    4  A    between atoms: C_4  and  C_35
    5  A    between atoms: C_15  and  C_26
    6  A    between atoms: C_17  and  N_37
    7  A    between atoms: C_19  and  O_20
    8  A    between atoms: O_20  and  C_21
    9  A    between atoms: C_21  and  C_22
   10  A    between atoms: C_22  and  C_28
   11  A    between atoms: N_25  and  C_32
   12  A    between atoms: N_25  and  C_39
   13  A    between atoms: C_26  and  N_40
   14  A    between atoms: C_28  and  C_39
                            x       y       z     vdW  Elec       q    Type
                         _______ _______ _______ _____ _____    ______ ____

>  <TORSDO>
F 14

$$$$
=
 OpenBabel10222418413D

 41 44  0  0  1  0  0  0  0  0999 V2000
  183.8440  178.6780  141.8050 C   0  0  0  0  0  0  0  0  0  0  0  0
  186.4220  178.1850  143.3630 C   0  0  0  0  0  0  0  0  0  0  0  0
  186.3790  178.5490  142.0680 C   0  0  0  0  0  3  0  0  0  0  0  0
  183.4110  179.2290  143.0880 C   0  0  0  0  0  0  0  0  0  0  0  0
  182.2770  179.7610  143.2070 O   0  0  0  0  0  0  0  0  0  0  0  0
  183.0580  177.7910  141.1810 C   0  0  0  0  0  3  0  0  0  0  0  0
  187.3240  177.4570  145.4590 C   0  0  0  0  0  2  0  0  0  0  0  0
  185.2010  179.1330  141.3300 C   0  0  1  0  0  3  0  0  0  0  0  0
  185.9280  178.0200  145.7010 C   0  0  0  0  0  0  0  0  0  0  0  0
  185.2760  178.1000  144.3230 C   0  0  1  0  0  3  0  0  0  0  0  0
  185.1460  177.0780  146.5930 C   0  0  0  0  0  1  0  0  0  0  0  0
  187.6960  177.7540  144.0070 C   0  0  1  0  0  3  0  0  0  0  0  0
  186.0560  179.3780  146.3800 C   0  0  0  0  0  1  0  0  0  0  0  0
  184.2920  179.1750  144.2070 N   0  0  0  0  0  2  0  0  0  0  0  0
  188.2420  176.4930  143.3460 C   0  0  0  0  0  2  0  0  0  0  0  0
  189.8150  176.6760  141.3940 N   0  0  0  0  0  0  0  0  0  0  0  0
  191.6440  177.5750  142.4000 N   0  0  0  0  0  0  0  0  0  0  0  0
  191.6430  177.1880  139.8660 C   0  0  0  0  0  1  0  0  0  0  0  0
  189.5450  176.7570  142.7590 N   0  0  0  0  0  0  0  0  0  0  0  0
  191.0060  177.1260  141.2080 C   0  0  0  0  0  0  0  0  0  0  0  0
  190.6680  177.3510  143.4590 C   0  0  0  0  0  3  0  0  0  0  0  0
  185.3760  179.0380  139.9460 O   0  0  0  0  0  0  0  0  0  0  0  0
  186.6990  178.6270  139.7780 C   0  0  0  0  0  2  0  0  0  0  0  0
  186.9060  178.1770  138.3460 C   0  0  0  0  0  2  0  0  0  0  0  0
  188.1560  177.3270  138.2630 C   0  0  0  0  0  2  0  0  0  0  0  0
  189.0780  177.8770  137.1930 C   0  0  0  0  0  2  0  0  0  0  0  0
  189.8630  176.7930  136.6310 N   0  0  0  0  0  2  0  0  0  0  0  0
  189.4680  175.5680  137.3110 C   0  0  0  0  0  2  0  0  0  0  0  0
  190.0670  174.4210  136.6500 N   0  0  0  0  0  2  0  0  0  0  0  0
  191.4110  174.2890  137.1840 C   0  0  0  0  0  2  0  0  0  0  0  0
  194.3810  172.9610  136.8480 C   0  0  0  0  0  2  0  0  0  0  0  0
  193.0570  172.9750  136.0740 C   0  0  0  0  0  2  0  0  0  0  0  0
  194.3030  173.8860  137.9690 N   0  0  0  0  0  0  0  0  0  0  0  0
  194.2710  175.2520  137.4450 C   0  0  0  0  0  2  0  0  0  0  0  0
  195.5410  173.7480  138.7140 C   0  0  0  0  0  1  0  0  0  0  0  0
  193.3090  175.4090  136.2490 C   0  0  0  0  0  2  0  0  0  0  0  0
  192.3750  174.2800  136.0930 N   0  0  0  0  0  0  0  0  0  0  0  0
  183.3930  177.1110  139.8940 C   0  0  0  0  0  2  0  0  0  0  0  0
  181.0830  176.7200  139.8470 C   0  0  0  0  0  1  0  0  0  0  0  0
  182.0030  178.4580  138.5980 C   0  0  0  0  0  1  0  0  0  0  0  0
  182.2270  177.0890  139.0280 N   0  0  0  0  0  0  0  0  0  0  0  0
  1  4  1  0  0  0  0
  2 12  1  0  0  0  0
  3  2  2  0  0  0  0
  4  5  2  0  0  0  0
  4 14  1  0  0  0  0
  6  1  2  0  0  0  0
  7  9  1  0  0  0  0
  8 22  1  6  0  0  0
  8  1  1  0  0  0  0
  8  3  1  0  0  0  0
  9 13  1  0  0  0  0
  9 11  1  0  0  0  0
 10  2  1  6  0  0  0
 10  9  1  0  0  0  0
 12 15  1  6  0  0  0
 12  7  1  0  0  0  0
 14 10  1  0  0  0  0
 16 19  1  0  0  0  0
 17 21  2  0  0  0  0
 18 20  1  0  0  0  0
 19 15  1  0  0  0  0
 19 21  1  0  0  0  0
 20 16  2  0  0  0  0
 20 17  1  0  0  0  0
 23 22  1  0  0  0  0
 24 23  1  0  0  0  0
 25 24  1  0  0  0  0
 26 25  1  0  0  0  0
 27 26  1  0  0  0  0
 27 28  1  0  0  0  0
 29 30  1  0  0  0  0
 29 28  1  0  0  0  0
 31 33  1  0  0  0  0
 32 37  1  0  0  0  0
 32 31  1  0  0  0  0
 33 35  1  0  0  0  0
 34 33  1  0  0  0  0
 36 34  1  0  0  0  0
 37 36  1  0  0  0  0
 37 30  1  0  0  0  0
 38  6  1  0  0  0  0
 40 41  1  0  0  0  0
 41 39  1  0  0  0  0
 41 38  1  0  0  0  0
M  END
>  <MODEL>
6

>  <REMARK>
 VINA RESULT:      -6.3      2.255      5.397
  Name = 
  14 active torsions:
  status: ('A' for Active; 'I' for Inactive)
    1  A    between atoms: N_3  and  C_17
    2  A    between atoms: N_3  and  C_32
    3  A    between atoms: C_4  and  N_30
    4  A    between atoms: C_4  and  C_35
    5  A    between atoms: C_15  and  C_26
    6  A    between atoms: C_17  and  N_37
    7  A    between atoms: C_19  and  O_20
    8  A    between atoms: O_20  and  C_21
    9  A    between atoms: C_21  and  C_22
   10  A    between atoms: C_22  and  C_28
   11  A    between atoms: N_25  and  C_32
   12  A    between atoms: N_25  and  C_39
   13  A    between atoms: C_26  and  N_40
   14  A    between atoms: C_28  and  C_39
                            x       y       z     vdW  Elec       q    Type
                         _______ _______ _______ _____ _____    ______ ____

>  <TORSDO>
F 14

$$$$
=
 OpenBabel10222418413D

 41 44  0  0  1  0  0  0  0  0999 V2000
  183.8480  178.7250  141.9610 C   0  0  0  0  0  0  0  0  0  0  0  0
  186.3770  178.1690  143.5750 C   0  0  0  0  0  0  0  0  0  0  0  0
  186.3690  178.4750  142.2640 C   0  0  0  0  0  3  0  0  0  0  0  0
  183.4300  179.3560  143.2110 C   0  0  0  0  0  0  0  0  0  0  0  0
  182.3240  179.9520  143.2900 O   0  0  0  0  0  0  0  0  0  0  0  0
  183.0230  177.8540  141.3660 C   0  0  0  0  0  3  0  0  0  0  0  0
  187.2150  177.4900  145.7130 C   0  0  0  0  0  2  0  0  0  0  0  0
  185.2320  179.0860  141.4840 C   0  0  1  0  0  3  0  0  0  0  0  0
  185.8490  178.1360  145.9110 C   0  0  0  0  0  0  0  0  0  0  0  0
  185.2170  178.1870  144.5210 C   0  0  1  0  0  3  0  0  0  0  0  0
  185.0070  177.2780  146.8330 C   0  0  0  0  0  1  0  0  0  0  0  0
  187.6190  177.7000  144.2550 C   0  0  1  0  0  3  0  0  0  0  0  0
  186.0400  179.5140  146.5300 C   0  0  0  0  0  1  0  0  0  0  0  0
  184.2940  179.3060  144.3440 N   0  0  0  0  0  2  0  0  0  0  0  0
  188.1050  176.3840  143.6580 C   0  0  0  0  0  2  0  0  0  0  0  0
  189.7220  176.9090  141.8070 N   0  0  0  0  0  0  0  0  0  0  0  0
  191.6880  176.9250  142.9460 N   0  0  0  0  0  0  0  0  0  0  0  0
  191.6550  177.5160  140.4530 C   0  0  0  0  0  1  0  0  0  0  0  0
  189.4470  176.5390  143.1220 N   0  0  0  0  0  0  0  0  0  0  0  0
  190.9890  177.1090  141.7190 C   0  0  0  0  0  0  0  0  0  0  0  0
  190.6620  176.5560  143.9140 C   0  0  0  0  0  3  0  0  0  0  0  0
  185.4180  178.9190  140.1090 O   0  0  0  0  0  0  0  0  0  0  0  0
  186.7670  178.5950  139.9640 C   0  0  0  0  0  2  0  0  0  0  0  0
  187.0590  178.2990  138.5080 C   0  0  0  0  0  2  0  0  0  0  0  0
  188.5570  178.2290  138.2990 C   0  0  0  0  0  2  0  0  0  0  0  0
  188.8560  177.6590  136.9270 C   0  0  0  0  0  2  0  0  0  0  0  0
  187.6260  177.5920  136.1570 N   0  0  0  0  0  2  0  0  0  0  0  0
  187.5980  176.2990  135.4900 C   0  0  0  0  0  2  0  0  0  0  0  0
  186.2830  176.0690  134.9170 N   0  0  0  0  0  2  0  0  0  0  0  0
  185.8540  174.7590  135.3720 C   0  0  0  0  0  2  0  0  0  0  0  0
  184.6610  172.6090  137.5300 C   0  0  0  0  0  2  0  0  0  0  0  0
  185.9880  173.3350  137.2750 C   0  0  0  0  0  2  0  0  0  0  0  0
  183.6440  173.1160  136.6210 N   0  0  0  0  0  0  0  0  0  0  0  0
  183.3170  174.4900  137.0050 C   0  0  0  0  0  2  0  0  0  0  0  0
  182.4500  172.3200  136.8420 C   0  0  0  0  0  1  0  0  0  0  0  0
  184.5710  175.3370  137.3080 C   0  0  0  0  0  2  0  0  0  0  0  0
  185.8220  174.7280  136.8270 N   0  0  0  0  0  0  0  0  0  0  0  0
  183.3350  177.0990  140.1150 C   0  0  0  0  0  2  0  0  0  0  0  0
  181.0040  177.3120  140.0220 C   0  0  0  0  0  1  0  0  0  0  0  0
  182.3410  178.3650  138.4320 C   0  0  0  0  0  1  0  0  0  0  0  0
  182.2000  177.1480  139.2100 N   0  0  0  0  0  0  0  0  0  0  0  0
  1  4  1  0  0  0  0
  2 12  1  0  0  0  0
  3  2  2  0  0  0  0
  4  5  2  0  0  0  0
  4 14  1  0  0  0  0
  6  1  2  0  0  0  0
  7  9  1  0  0  0  0
  8 22  1  6  0  0  0
  8  1  1  0  0  0  0
  8  3  1  0  0  0  0
  9 13  1  0  0  0  0
  9 11  1  0  0  0  0
 10  2  1  6  0  0  0
 10  9  1  0  0  0  0
 12 15  1  6  0  0  0
 12  7  1  0  0  0  0
 14 10  1  0  0  0  0
 16 19  1  0  0  0  0
 17 21  2  0  0  0  0
 18 20  1  0  0  0  0
 19 15  1  0  0  0  0
 19 21  1  0  0  0  0
 20 16  2  0  0  0  0
 20 17  1  0  0  0  0
 23 22  1  0  0  0  0
 24 23  1  0  0  0  0
 25 24  1  0  0  0  0
 26 25  1  0  0  0  0
 27 26  1  0  0  0  0
 28 27  1  0  0  0  0
 29 30  1  0  0  0  0
 29 28  1  0  0  0  0
 30 37  1  0  0  0  0
 32 31  1  0  0  0  0
 33 35  1  0  0  0  0
 33 34  1  0  0  0  0
 33 31  1  0  0  0  0
 34 36  1  0  0  0  0
 37 32  1  0  0  0  0
 37 36  1  0  0  0  0
 38  6  1  0  0  0  0
 40 41  1  0  0  0  0
 41 39  1  0  0  0  0
 41 38  1  0  0  0  0
M  END
>  <MODEL>
7

>  <REMARK>
 VINA RESULT:      -6.3      3.005      6.065
  Name = 
  14 active torsions:
  status: ('A' for Active; 'I' for Inactive)
    1  A    between atoms: N_3  and  C_17
    2  A    between atoms: N_3  and  C_32
    3  A    between atoms: C_4  and  N_30
    4  A    between atoms: C_4  and  C_35
    5  A    between atoms: C_15  and  C_26
    6  A    between atoms: C_17  and  N_37
    7  A    between atoms: C_19  and  O_20
    8  A    between atoms: O_20  and  C_21
    9  A    between atoms: C_21  and  C_22
   10  A    between atoms: C_22  and  C_28
   11  A    between atoms: N_25  and  C_32
   12  A    between atoms: N_25  and  C_39
   13  A    between atoms: C_26  and  N_40
   14  A    between atoms: C_28  and  C_39
                            x       y       z     vdW  Elec       q    Type
                         _______ _______ _______ _____ _____    ______ ____

>  <TORSDO>
F 14

$$$$
=
 OpenBabel10222418413D

 41 44  0  0  1  0  0  0  0  0999 V2000
  190.0480  177.3010  140.6190 C   0  0  0  0  0  0  0  0  0  0  0  0
  188.9130  176.4350  137.9210 C   0  0  0  0  0  0  0  0  0  0  0  0
  188.3200  177.3230  138.7410 C   0  0  0  0  0  3  0  0  0  0  0  0
  191.3130  177.1880  139.8970 C   0  0  0  0  0  0  0  0  0  0  0  0
  192.3990  177.5000  140.4530 O   0  0  0  0  0  0  0  0  0  0  0  0
  189.9260  176.7040  141.8120 C   0  0  0  0  0  3  0  0  0  0  0  0
  189.2190  174.9570  136.0620 C   0  0  0  0  0  2  0  0  0  0  0  0
  188.9550  178.0510  139.8990 C   0  0  1  0  0  3  0  0  0  0  0  0
  190.5770  175.2150  136.7050 C   0  0  0  0  0  0  0  0  0  0  0  0
  190.2720  175.8250  138.0710 C   0  0  1  0  0  3  0  0  0  0  0  0
  191.3190  173.9050  136.8740 C   0  0  0  0  0  1  0  0  0  0  0  0
  188.2100  175.8940  136.7230 C   0  0  1  0  0  3  0  0  0  0  0  0
  191.3800  176.1440  135.8030 C   0  0  0  0  0  1  0  0  0  0  0  0
  191.3110  176.7380  138.5440 N   0  0  0  0  0  2  0  0  0  0  0  0
  186.9660  175.1120  137.1270 C   0  0  0  0  0  2  0  0  0  0  0  0
  184.8710  176.4320  137.5600 N   0  0  0  0  0  0  0  0  0  0  0  0
  184.2750  176.9980  135.4410 N   0  0  0  0  0  0  0  0  0  0  0  0
  182.9100  177.8730  137.4260 C   0  0  0  0  0  1  0  0  0  0  0  0
  185.7680  175.8110  136.6930 N   0  0  0  0  0  0  0  0  0  0  0  0
  184.0270  177.0850  136.8420 C   0  0  0  0  0  0  0  0  0  0  0  0
  185.4580  176.1550  135.3180 C   0  0  0  0  0  3  0  0  0  0  0  0
  187.9850  178.5880  140.7490 O   0  0  0  0  0  0  0  0  0  0  0  0
  186.8120  178.6040  139.9930 C   0  0  0  0  0  2  0  0  0  0  0  0
  185.6160  178.6000  140.9220 C   0  0  0  0  0  2  0  0  0  0  0  0
  186.0060  179.2260  142.2450 C   0  0  0  0  0  2  0  0  0  0  0  0
  185.1270  178.6740  143.3490 C   0  0  0  0  0  2  0  0  0  0  0  0
  183.7320  178.8440  142.9830 N   0  0  0  0  0  2  0  0  0  0  0  0
  182.9450  178.7500  144.2040 C   0  0  0  0  0  2  0  0  0  0  0  0
  181.5390  178.9570  143.9010 N   0  0  0  0  0  2  0  0  0  0  0  0
  181.4140  178.9220  142.4560 C   0  0  0  0  0  2  0  0  0  0  0  0
  179.6230  179.3420  139.7500 C   0  0  0  0  0  2  0  0  0  0  0  0
  180.0500  178.1770  140.6530 C   0  0  0  0  0  2  0  0  0  0  0  0
  180.0500  180.6010  140.3420 N   0  0  0  0  0  0  0  0  0  0  0  0
  179.2560  180.8430  141.5480 C   0  0  0  0  0  2  0  0  0  0  0  0
  179.7100  181.6470  139.3950 C   0  0  0  0  0  1  0  0  0  0  0  0
  179.1150  179.5860  142.4310 C   0  0  0  0  0  2  0  0  0  0  0  0
  180.0660  178.5160  142.0860 N   0  0  0  0  0  0  0  0  0  0  0  0
  188.6810  176.6930  142.6380 C   0  0  0  0  0  2  0  0  0  0  0  0
  190.4550  176.7800  144.1660 C   0  0  0  0  0  1  0  0  0  0  0  0
  188.3770  177.6690  144.7310 C   0  0  0  0  0  1  0  0  0  0  0  0
  189.0220  176.5640  144.0440 N   0  0  0  0  0  0  0  0  0  0  0  0
  1  6  2  0  0  0  0
  2  3  2  0  0  0  0
  3  8  1  0  0  0  0
  4  5  2  0  0  0  0
  4  1  1  0  0  0  0
  6 38  1  0  0  0  0
  7  9  1  0  0  0  0
  7 12  1  0  0  0  0
  8  1  1  0  0  0  0
  8 22  1  1  0  0  0
  9 11  1  0  0  0  0
  9 10  1  0  0  0  0
 10  2  1  6  0  0  0
 10 14  1  0  0  0  0
 12 15  1  1  0  0  0
 12  2  1  0  0  0  0
 13  9  1  0  0  0  0
 14  4  1  0  0  0  0
 17 20  1  0  0  0  0
 19 15  1  0  0  0  0
 19 16  1  0  0  0  0
 20 18  1  0  0  0  0
 20 16  2  0  0  0  0
 21 17  2  0  0  0  0
 21 19  1  0  0  0  0
 23 22  1  0  0  0  0
 23 24  1  0  0  0  0
 24 25  1  0  0  0  0
 25 26  1  0  0  0  0
 27 26  1  0  0  0  0
 27 28  1  0  0  0  0
 29 28  1  0  0  0  0
 30 29  1  0  0  0  0
 31 33  1  0  0  0  0
 31 32  1  0  0  0  0
 32 37  1  0  0  0  0
 33 34  1  0  0  0  0
 34 36  1  0  0  0  0
 35 33  1  0  0  0  0
 37 36  1  0  0  0  0
 37 30  1  0  0  0  0
 38 41  1  0  0  0  0
 41 39  1  0  0  0  0
 41 40  1  0  0  0  0
M  END
>  <MODEL>
8

>  <REMARK>
 VINA RESULT:      -6.3      2.873      8.772
  Name = 
  14 active torsions:
  status: ('A' for Active; 'I' for Inactive)
    1  A    between atoms: N_3  and  C_17
    2  A    between atoms: N_3  and  C_32
    3  A    between atoms: C_4  and  N_30
    4  A    between atoms: C_4  and  C_35
    5  A    between atoms: C_15  and  C_26
    6  A    between atoms: C_17  and  N_37
    7  A    between atoms: C_19  and  O_20
    8  A    between atoms: O_20  and  C_21
    9  A    between atoms: C_21  and  C_22
   10  A    between atoms: C_22  and  C_28
   11  A    between atoms: N_25  and  C_32
   12  A    between atoms: N_25  and  C_39
   13  A    between atoms: C_26  and  N_40
   14  A    between atoms: C_28  and  C_39
                            x       y       z     vdW  Elec       q    Type
                         _______ _______ _______ _____ _____    ______ ____

>  <TORSDO>
F 14

$$$$
=
 OpenBabel10222418413D

 41 44  0  0  1  0  0  0  0  0999 V2000
  181.7500  177.4780  139.0260 C   0  0  0  0  0  0  0  0  0  0  0  0
  182.8310  178.6250  141.6390 C   0  0  0  0  0  0  0  0  0  0  0  0
  183.5190  178.6010  140.4830 C   0  0  0  0  0  3  0  0  0  0  0  0
  180.5040  178.0600  139.5190 C   0  0  0  0  0  0  0  0  0  0  0  0
  179.4570  178.0210  138.8210 O   0  0  0  0  0  0  0  0  0  0  0  0
  181.7500  176.2070  138.6040 C   0  0  0  0  0  3  0  0  0  0  0  0
  182.3740  178.9300  143.9710 C   0  0  0  0  0  2  0  0  0  0  0  0
  182.9590  178.3770  139.1010 C   0  0  1  0  0  3  0  0  0  0  0  0
  181.0480  178.8250  143.2270 C   0  0  0  0  0  0  0  0  0  0  0  0
  181.3950  178.2570  141.8520 C   0  0  1  0  0  3  0  0  0  0  0  0
  180.1230  177.8770  143.9620 C   0  0  0  0  0  1  0  0  0  0  0  0
  183.4860  179.0010  142.9260 C   0  0  1  0  0  3  0  0  0  0  0  0
  180.4120  180.2080  143.1570 C   0  0  0  0  0  1  0  0  0  0  0  0
  180.4830  178.6930  140.7960 N   0  0  0  0  0  2  0  0  0  0  0  0
  184.5940  178.0170  143.2810 C   0  0  0  0  0  2  0  0  0  0  0  0
  186.1710  177.6090  145.1960 N   0  0  0  0  0  0  0  0  0  0  0  0
  185.6830  179.3780  146.5380 N   0  0  0  0  0  0  0  0  0  0  0  0
  187.5590  177.7600  147.1930 C   0  0  0  0  0  1  0  0  0  0  0  0
  185.1130  178.3010  144.6090 N   0  0  0  0  0  0  0  0  0  0  0  0
  186.4720  178.2180  146.2880 C   0  0  0  0  0  0  0  0  0  0  0  0
  184.7680  179.4630  145.4060 C   0  0  0  0  0  3  0  0  0  0  0  0
  183.9700  178.0390  138.1970 O   0  0  0  0  0  0  0  0  0  0  0  0
  185.1620  178.2660  138.8870 C   0  0  0  0  0  2  0  0  0  0  0  0
  186.2580  178.6050  137.8990 C   0  0  0  0  0  2  0  0  0  0  0  0
  186.9160  177.3280  137.4210 C   0  0  0  0  0  2  0  0  0  0  0  0
  188.3650  177.6010  137.0690 C   0  0  0  0  0  2  0  0  0  0  0  0
  188.9420  178.4870  138.0640 N   0  0  0  0  0  2  0  0  0  0  0  0
  189.8650  177.7010  138.8680 C   0  0  0  0  0  2  0  0  0  0  0  0
  189.2800  177.4310  140.1700 N   0  0  0  0  0  2  0  0  0  0  0  0
  190.2990  176.7550  140.9520 C   0  0  0  0  0  2  0  0  0  0  0  0
  189.4770  178.2470  143.7450 C   0  0  0  0  0  2  0  0  0  0  0  0
  188.8150  177.3050  142.7310 C   0  0  0  0  0  2  0  0  0  0  0  0
  190.8830  178.4160  143.4110 N   0  0  0  0  0  0  0  0  0  0  0  0
  191.5790  177.1540  143.6680 C   0  0  0  0  0  2  0  0  0  0  0  0
  191.4210  179.3920  144.3410 C   0  0  0  0  0  1  0  0  0  0  0  0
  190.8030  175.9280  143.1410 C   0  0  0  0  0  2  0  0  0  0  0  0
  189.7240  176.2750  142.2010 N   0  0  0  0  0  0  0  0  0  0  0  0
  182.9560  175.4680  138.1210 C   0  0  0  0  0  2  0  0  0  0  0  0
  181.1830  174.5530  136.8920 C   0  0  0  0  0  1  0  0  0  0  0  0
  182.9710  175.5650  135.7940 C   0  0  0  0  0  1  0  0  0  0  0  0
  182.6280  174.7170  136.9210 N   0  0  0  0  0  0  0  0  0  0  0  0
  1  8  1  0  0  0  0
  1  4  1  0  0  0  0
  2 10  1  0  0  0  0
  2 12  1  0  0  0  0
  3  2  2  0  0  0  0
  4 14  1  0  0  0  0
  5  4  2  0  0  0  0
  6  1  2  0  0  0  0
  8 22  1  6  0  0  0
  8  3  1  0  0  0  0
  9 11  1  0  0  0  0
  9  7  1  0  0  0  0
 10 14  1  6  0  0  0
 10  9  1  0  0  0  0
 12 15  1  1  0  0  0
 12  7  1  0  0  0  0
 13  9  1  0  0  0  0
 15 19  1  0  0  0  0
 16 20  2  0  0  0  0
 19 16  1  0  0  0  0
 19 21  1  0  0  0  0
 20 17  1  0  0  0  0
 20 18  1  0  0  0  0
 21 17  2  0  0  0  0
 22 23  1  0  0  0  0
 24 23  1  0  0  0  0
 25 24  1  0  0  0  0
 26 25  1  0  0  0  0
 26 27  1  0  0  0  0
 27 28  1  0  0  0  0
 28 29  1  0  0  0  0
 29 30  1  0  0  0  0
 30 37  1  0  0  0  0
 32 31  1  0  0  0  0
 33 34  1  0  0  0  0
 33 31  1  0  0  0  0
 33 35  1  0  0  0  0
 36 34  1  0  0  0  0
 37 32  1  0  0  0  0
 37 36  1  0  0  0  0
 38  6  1  0  0  0  0
 39 41  1  0  0  0  0
 40 41  1  0  0  0  0
 41 38  1  0  0  0  0
M  END
>  <MODEL>
9

>  <REMARK>
 VINA RESULT:      -6.3      3.191      7.247
  Name = 
  14 active torsions:
  status: ('A' for Active; 'I' for Inactive)
    1  A    between atoms: N_3  and  C_17
    2  A    between atoms: N_3  and  C_32
    3  A    between atoms: C_4  and  N_30
    4  A    between atoms: C_4  and  C_35
    5  A    between atoms: C_15  and  C_26
    6  A    between atoms: C_17  and  N_37
    7  A    between atoms: C_19  and  O_20
    8  A    between atoms: O_20  and  C_21
    9  A    between atoms: C_21  and  C_22
   10  A    between atoms: C_22  and  C_28
   11  A    between atoms: N_25  and  C_32
   12  A    between atoms: N_25  and  C_39
   13  A    between atoms: C_26  and  N_40
   14  A    between atoms: C_28  and  C_39
                            x       y       z     vdW  Elec       q    Type
                         _______ _______ _______ _____ _____    ______ ____

>  <TORSDO>
F 14

$$$$
