=
 OpenBabel10222416593D

 40 42  0  0  1  0  0  0  0  0999 V2000
  182.2360  178.5860  141.4440 C   0  0  0  0  0  2  0  0  0  0  0  0
  182.5200  176.4210  139.6900 N   0  0  0  0  0  2  0  0  0  0  0  0
  184.1370  178.3250  139.8070 N   0  0  0  0  0  0  0  0  0  0  0  0
  184.1200  175.7690  137.1180 C   0  0  0  0  0  3  0  0  0  0  0  0
  181.9510  174.8030  137.8260 C   0  0  2  0  0  3  0  0  0  0  0  0
  180.1980  175.8200  139.3850 C   0  0  0  0  0  0  0  0  0  0  0  0
  180.9530  173.7120  137.5480 C   0  0  0  0  0  2  0  0  0  0  0  0
  179.5790  174.4920  139.4730 C   0  0  0  0  0  3  0  0  0  0  0  0
  181.3470  179.2550  140.4060 C   0  0  0  0  0  2  0  0  0  0  0  0
  179.9440  179.1140  140.7930 N   0  0  0  0  0  0  0  0  0  0  0  0
  181.5160  175.9970  138.7000 C   0  0  1  0  0  3  0  0  0  0  0  0
  184.1520  176.5650  138.1350 C   0  0  0  0  0  3  0  0  0  0  0  0
  183.0410  174.8110  137.0840 N   0  0  0  0  0  0  0  0  0  0  0  0
  183.7200  177.0510  139.2510 C   0  0  0  0  0  0  0  0  0  0  0  0
  179.6940  176.8330  140.0430 C   0  0  0  0  0  0  0  0  0  0  0  0
  179.9640  173.5050  138.6640 C   0  0  0  0  0  3  0  0  0  0  0  0
  185.0490  179.2150  139.1480 C   0  0  0  0  0  3  0  0  0  0  0  0
  183.7400  178.7320  141.1610 C   0  0  2  0  0  3  0  0  0  0  0  0
  179.2220  177.8720  140.6850 C   0  0  0  0  0  3  0  0  0  0  0  0
  185.4950  178.9850  137.9910 O   0  0  0  0  0  0  0  0  0  0  0  0
  179.2550  180.3000  141.2920 C   0  0  2  0  0  3  0  0  0  0  0  0
  179.1520  180.9890  139.0090 O   0  0  0  0  0  1  0  0  0  0  0  0
  179.4020  181.4490  140.3050 C   0  0  0  0  0  2  0  0  0  0  0  0
  179.7710  180.6720  142.5350 O   0  0  0  0  0  0  0  0  0  0  0  0
  179.7190  179.0360  144.2700 C   0  0  0  0  0  1  0  0  0  0  0  0
  178.9310  180.0630  143.4710 C   0  0  0  0  0  2  0  0  0  0  0  0
  184.5420  177.9490  142.1900 C   0  0  0  0  0  2  0  0  0  0  0  0
  184.2260  178.4070  143.6050 C   0  0  0  0  0  2  0  0  0  0  0  0
  185.5070  178.5330  144.4000 C   0  0  0  0  0  2  0  0  0  0  0  0
  186.3940  177.3330  144.1380 C   0  0  0  0  0  2  0  0  0  0  0  0
  187.7480  177.5680  144.7280 C   0  0  0  0  0  0  0  0  0  0  0  0
  187.8350  177.8140  145.9960 N   0  0  0  0  0  0  0  0  0  0  0  0
  188.9320  177.4930  143.9270 N   0  0  0  0  0  0  0  0  0  0  0  0
  189.3200  176.3940  143.3690 C   0  0  0  0  0  3  0  0  0  0  0  0
  190.5550  176.3770  142.5480 C   0  0  0  0  0  1  0  0  0  0  0  0
  189.0730  178.0050  146.6280 N   0  0  0  0  0  2  0  0  0  0  0  0
  191.0920  176.5570  146.9640 C   0  0  0  0  0  0  0  0  0  0  0  0
  191.5950  175.5800  147.5740 O   0  0  0  0  0  1  0  0  0  0  0  0
  189.7530  176.9600  147.2740 N   0  0  0  0  0  2  0  0  0  0  0  0
  191.8380  177.2070  145.9860 O   0  0  0  0  0  0  0  0  0  0  0  0
  3 18  1  0  0  0  0
  4 12  1  0  0  0  0
  5  7  1  6  0  0  0
  5 11  1  0  0  0  0
  6  8  1  0  0  0  0
  6 15  2  0  0  0  0
  7 16  1  0  0  0  0
  9 10  1  0  0  0  0
  9  1  1  0  0  0  0
 10 21  1  0  0  0  0
 11  6  1  1  0  0  0
 11  2  1  0  0  0  0
 12 14  2  0  0  0  0
 13  4  2  0  0  0  0
 13  5  1  0  0  0  0
 14  2  1  0  0  0  0
 14  3  1  0  0  0  0
 15 19  2  0  0  0  0
 16  8  2  0  0  0  0
 17  3  1  0  0  0  0
 18  1  1  0  0  0  0
 18 27  1  1  0  0  0
 19 10  1  0  0  0  0
 20 17  2  0  0  0  0
 21 23  1  6  0  0  0
 21 24  1  0  0  0  0
 22 23  1  0  0  0  0
 24 26  1  0  0  0  0
 26 25  1  0  0  0  0
 27 28  1  0  0  0  0
 28 29  1  0  0  0  0
 30 29  1  0  0  0  0
 30 31  1  0  0  0  0
 31 32  2  0  0  0  0
 32 36  1  0  0  0  0
 33 31  1  0  0  0  0
 34 33  2  0  0  0  0
 35 34  1  0  0  0  0
 36 39  1  0  0  0  0
 37 39  1  0  0  0  0
 37 38  1  0  0  0  0
 40 37  2  0  0  0  0
M  END
>  <MODEL>
1

>  <REMARK>
 VINA RESULT:      -7.1      0.000      0.000
  Name = 
  12 active torsions:
  status: ('A' for Active; 'I' for Inactive)
    1  A    between atoms: C_4  and  N_20
    2  A    between atoms: C_4  and  C_36
    3  A    between atoms: C_4  and  O_37
    4  A    between atoms: C_6  and  N_11
    5  A    between atoms: C_6  and  C_26
    6  A    between atoms: N_8  and  N_18
    7  A    between atoms: N_8  and  N_22
    8  A    between atoms: C_13  and  C_25
    9  A    between atoms: C_13  and  C_33
   10  A    between atoms: C_25  and  C_26
   11  A    between atoms: C_33  and  C_34
   12  A    between atoms: O_37  and  C_40
                            x       y       z     vdW  Elec       q    Type
                         _______ _______ _______ _____ _____    ______ ____

>  <TORSDO>
F 12

$$$$
=
 OpenBabel10222416593D

 40 42  0  0  1  0  0  0  0  0999 V2000
  181.9430  178.6890  140.6460 C   0  0  0  0  0  2  0  0  0  0  0  0
  182.0930  176.2090  139.3540 N   0  0  0  0  0  2  0  0  0  0  0  0
  183.9170  177.9180  139.2790 N   0  0  0  0  0  0  0  0  0  0  0  0
  183.7940  174.9080  137.1140 C   0  0  0  0  0  3  0  0  0  0  0  0
  181.4750  174.3310  137.7700 C   0  0  2  0  0  3  0  0  0  0  0  0
  179.7450  175.8090  138.9370 C   0  0  0  0  0  0  0  0  0  0  0  0
  180.3750  173.3190  137.5990 C   0  0  0  0  0  2  0  0  0  0  0  0
  178.9630  174.5960  139.2050 C   0  0  0  0  0  3  0  0  0  0  0  0
  181.2240  179.2350  139.4220 C   0  0  0  0  0  2  0  0  0  0  0  0
  179.7890  179.3200  139.6880 N   0  0  0  0  0  0  0  0  0  0  0  0
  181.1240  175.7110  138.3640 C   0  0  1  0  0  3  0  0  0  0  0  0
  183.8450  175.8770  137.9660 C   0  0  0  0  0  3  0  0  0  0  0  0
  182.6110  174.0810  137.1490 N   0  0  0  0  0  0  0  0  0  0  0  0
  183.3910  176.6120  138.9270 C   0  0  0  0  0  0  0  0  0  0  0  0
  179.3200  176.9770  139.3470 C   0  0  0  0  0  0  0  0  0  0  0  0
  179.2860  173.4360  138.6320 C   0  0  0  0  0  3  0  0  0  0  0  0
  184.9800  178.5620  138.5620 C   0  0  0  0  0  3  0  0  0  0  0  0
  183.4700  178.6180  140.4910 C   0  0  2  0  0  3  0  0  0  0  0  0
  178.9310  178.1640  139.7390 C   0  0  0  0  0  3  0  0  0  0  0  0
  185.4810  178.0680  137.5160 O   0  0  0  0  0  0  0  0  0  0  0  0
  179.2150  180.6470  139.8920 C   0  0  2  0  0  3  0  0  0  0  0  0
  179.3230  182.8680  139.0250 O   0  0  0  0  0  1  0  0  0  0  0  0
  179.4630  181.5220  138.6730 C   0  0  0  0  0  2  0  0  0  0  0  0
  179.7680  181.2440  141.0270 O   0  0  0  0  0  0  0  0  0  0  0  0
  179.7440  180.1330  143.1380 C   0  0  0  0  0  1  0  0  0  0  0  0
  178.9310  180.8640  142.0790 C   0  0  0  0  0  2  0  0  0  0  0  0
  184.0900  177.9670  141.7190 C   0  0  0  0  0  2  0  0  0  0  0  0
  183.6350  178.6510  142.9980 C   0  0  0  0  0  2  0  0  0  0  0  0
  184.8310  179.2150  143.7320 C   0  0  0  0  0  2  0  0  0  0  0  0
  185.0470  178.4520  145.0240 C   0  0  0  0  0  2  0  0  0  0  0  0
  186.3990  177.8140  145.0120 C   0  0  0  0  0  0  0  0  0  0  0  0
  187.0000  177.6580  143.8770 N   0  0  0  0  0  0  0  0  0  0  0  0
  187.0410  177.4090  146.2270 N   0  0  0  0  0  0  0  0  0  0  0  0
  187.2550  178.2300  147.2010 C   0  0  0  0  0  3  0  0  0  0  0  0
  187.9230  177.7530  148.4370 C   0  0  0  0  0  1  0  0  0  0  0  0
  188.2860  177.1060  143.7900 N   0  0  0  0  0  2  0  0  0  0  0  0
  190.4660  178.2050  144.3630 C   0  0  0  0  0  0  0  0  0  0  0  0
  191.4090  178.9360  143.9680 O   0  0  0  0  0  0  0  0  0  0  0  0
  189.4120  177.8740  143.4510 N   0  0  0  0  0  2  0  0  0  0  0  0
  190.4560  177.7550  145.6790 O   0  0  0  0  0  1  0  0  0  0  0  0
  3 18  1  0  0  0  0
  4 13  2  0  0  0  0
  4 12  1  0  0  0  0
  5  7  1  6  0  0  0
  5 11  1  0  0  0  0
  6  8  1  0  0  0  0
  6 15  2  0  0  0  0
  7 16  1  0  0  0  0
  9 10  1  0  0  0  0
  9  1  1  0  0  0  0
 10 19  1  0  0  0  0
 10 21  1  0  0  0  0
 11  6  1  1  0  0  0
 11  2  1  0  0  0  0
 12 14  2  0  0  0  0
 13  5  1  0  0  0  0
 14  3  1  0  0  0  0
 14  2  1  0  0  0  0
 15 19  2  0  0  0  0
 16  8  2  0  0  0  0
 17  3  1  0  0  0  0
 18  1  1  0  0  0  0
 18 27  1  1  0  0  0
 20 17  2  0  0  0  0
 21 23  1  6  0  0  0
 21 24  1  0  0  0  0
 23 22  1  0  0  0  0
 24 26  1  0  0  0  0
 26 25  1  0  0  0  0
 27 28  1  0  0  0  0
 28 29  1  0  0  0  0
 29 30  1  0  0  0  0
 31 30  1  0  0  0  0
 31 33  1  0  0  0  0
 32 31  2  0  0  0  0
 33 34  2  0  0  0  0
 34 35  1  0  0  0  0
 36 32  1  0  0  0  0
 37 40  1  0  0  0  0
 38 37  2  0  0  0  0
 39 36  1  0  0  0  0
 39 37  1  0  0  0  0
M  END
>  <MODEL>
2

>  <REMARK>
 VINA RESULT:      -6.8      1.393      2.115
  Name = 
  12 active torsions:
  status: ('A' for Active; 'I' for Inactive)
    1  A    between atoms: C_4  and  N_20
    2  A    between atoms: C_4  and  C_36
    3  A    between atoms: C_4  and  O_37
    4  A    between atoms: C_6  and  N_11
    5  A    between atoms: C_6  and  C_26
    6  A    between atoms: N_8  and  N_18
    7  A    between atoms: N_8  and  N_22
    8  A    between atoms: C_13  and  C_25
    9  A    between atoms: C_13  and  C_33
   10  A    between atoms: C_25  and  C_26
   11  A    between atoms: C_33  and  C_34
   12  A    between atoms: O_37  and  C_40
                            x       y       z     vdW  Elec       q    Type
                         _______ _______ _______ _____ _____    ______ ____

>  <TORSDO>
F 12

$$$$
=
 OpenBabel10222416593D

 40 42  0  0  1  0  0  0  0  0999 V2000
  186.2240  177.8140  138.9660 C   0  0  0  0  0  2  0  0  0  0  0  0
  186.8130  175.4910  137.5150 N   0  0  0  0  0  2  0  0  0  0  0  0
  188.1820  177.5800  137.3940 N   0  0  0  0  0  0  0  0  0  0  0  0
  188.5430  174.7160  135.0650 C   0  0  0  0  0  3  0  0  0  0  0  0
  186.4920  173.5870  135.8760 C   0  0  2  0  0  3  0  0  0  0  0  0
  184.5900  174.5730  137.2730 C   0  0  0  0  0  0  0  0  0  0  0  0
  185.6420  172.3540  135.7360 C   0  0  0  0  0  2  0  0  0  0  0  0
  184.1350  173.2000  137.5300 C   0  0  0  0  0  3  0  0  0  0  0  0
  185.2850  178.2270  137.8420 C   0  0  0  0  0  2  0  0  0  0  0  0
  183.9020  177.9640  138.2320 N   0  0  0  0  0  0  0  0  0  0  0  0
  185.8930  174.8220  136.5820 C   0  0  1  0  0  3  0  0  0  0  0  0
  188.4530  175.6340  135.9680 C   0  0  0  0  0  3  0  0  0  0  0  0
  187.5910  173.6340  135.1480 N   0  0  0  0  0  0  0  0  0  0  0  0
  187.9370  176.2030  137.0070 C   0  0  0  0  0  0  0  0  0  0  0  0
  183.9500  175.5920  137.7880 C   0  0  0  0  0  0  0  0  0  0  0  0
  184.6580  172.1720  136.8620 C   0  0  0  0  0  3  0  0  0  0  0  0
  188.9950  178.4840  136.6310 C   0  0  0  0  0  3  0  0  0  0  0  0
  187.7050  178.1070  138.6800 C   0  0  2  0  0  3  0  0  0  0  0  0
  183.3390  176.6380  138.2830 C   0  0  0  0  0  3  0  0  0  0  0  0
  189.4940  178.1630  135.5180 O   0  0  0  0  0  0  0  0  0  0  0  0
  183.0610  179.1100  138.5650 C   0  0  2  0  0  3  0  0  0  0  0  0
  183.4710  178.9110  140.9070 O   0  0  0  0  0  1  0  0  0  0  0  0
  182.4540  178.9360  139.9480 C   0  0  0  0  0  2  0  0  0  0  0  0
  182.0470  179.2580  137.6150 O   0  0  0  0  0  0  0  0  0  0  0  0
  180.6910  181.0280  136.7680 C   0  0  0  0  0  1  0  0  0  0  0  0
  181.3720  180.4240  137.9870 C   0  0  0  0  0  2  0  0  0  0  0  0
  188.5720  177.5700  139.8090 C   0  0  0  0  0  2  0  0  0  0  0  0
  188.1860  178.1850  141.1440 C   0  0  0  0  0  2  0  0  0  0  0  0
  188.7340  177.3420  142.2740 C   0  0  0  0  0  2  0  0  0  0  0  0
  187.5910  176.7640  143.0850 C   0  0  0  0  0  2  0  0  0  0  0  0
  187.7230  177.1840  144.5140 C   0  0  0  0  0  0  0  0  0  0  0  0
  188.8650  177.0260  145.1010 N   0  0  0  0  0  0  0  0  0  0  0  0
  186.6280  177.7800  145.2190 N   0  0  0  0  0  0  0  0  0  0  0  0
  185.6070  178.2830  144.6090 C   0  0  0  0  0  3  0  0  0  0  0  0
  184.5010  178.8860  145.3920 C   0  0  0  0  0  1  0  0  0  0  0  0
  189.0780  177.4330  146.4270 N   0  0  0  0  0  2  0  0  0  0  0  0
  191.3540  176.5860  147.0490 C   0  0  0  0  0  0  0  0  0  0  0  0
  192.0410  175.9210  147.8660 O   0  0  0  0  0  1  0  0  0  0  0  0
  189.9520  176.7510  147.2890 N   0  0  0  0  0  2  0  0  0  0  0  0
  191.9660  177.1230  145.9210 O   0  0  0  0  0  0  0  0  0  0  0  0
  3 18  1  0  0  0  0
  4 13  2  0  0  0  0
  4 12  1  0  0  0  0
  5  7  1  6  0  0  0
  5 11  1  0  0  0  0
  6  8  1  0  0  0  0
  6 15  2  0  0  0  0
  7 16  1  0  0  0  0
  9 10  1  0  0  0  0
  9  1  1  0  0  0  0
 10 19  1  0  0  0  0
 10 21  1  0  0  0  0
 11  6  1  1  0  0  0
 11  2  1  0  0  0  0
 12 14  2  0  0  0  0
 13  5  1  0  0  0  0
 14  3  1  0  0  0  0
 14  2  1  0  0  0  0
 15 19  2  0  0  0  0
 16  8  2  0  0  0  0
 17  3  1  0  0  0  0
 18  1  1  0  0  0  0
 18 27  1  1  0  0  0
 20 17  2  0  0  0  0
 21 23  1  1  0  0  0
 23 22  1  0  0  0  0
 24 26  1  0  0  0  0
 24 21  1  0  0  0  0
 25 26  1  0  0  0  0
 27 28  1  0  0  0  0
 28 29  1  0  0  0  0
 29 30  1  0  0  0  0
 30 31  1  0  0  0  0
 31 32  2  0  0  0  0
 31 33  1  0  0  0  0
 32 36  1  0  0  0  0
 34 33  2  0  0  0  0
 34 35  1  0  0  0  0
 36 39  1  0  0  0  0
 37 39  1  0  0  0  0
 37 38  1  0  0  0  0
 40 37  2  0  0  0  0
M  END
>  <MODEL>
3

>  <REMARK>
 VINA RESULT:      -6.8      2.862      4.543
  Name = 
  12 active torsions:
  status: ('A' for Active; 'I' for Inactive)
    1  A    between atoms: C_4  and  N_20
    2  A    between atoms: C_4  and  C_36
    3  A    between atoms: C_4  and  O_37
    4  A    between atoms: C_6  and  N_11
    5  A    between atoms: C_6  and  C_26
    6  A    between atoms: N_8  and  N_18
    7  A    between atoms: N_8  and  N_22
    8  A    between atoms: C_13  and  C_25
    9  A    between atoms: C_13  and  C_33
   10  A    between atoms: C_25  and  C_26
   11  A    between atoms: C_33  and  C_34
   12  A    between atoms: O_37  and  C_40
                            x       y       z     vdW  Elec       q    Type
                         _______ _______ _______ _____ _____    ______ ____

>  <TORSDO>
F 12

$$$$
=
 OpenBabel10222416593D

 40 42  0  0  1  0  0  0  0  0999 V2000
  189.0310  177.5490  138.7700 C   0  0  0  0  0  2  0  0  0  0  0  0
  190.4040  176.2770  136.6870 N   0  0  0  0  0  2  0  0  0  0  0  0
  187.9960  175.8560  137.2140 N   0  0  0  0  0  0  0  0  0  0  0  0
  190.0130  173.7800  134.8940 C   0  0  0  0  0  3  0  0  0  0  0  0
  192.1530  174.8500  135.5380 C   0  0  2  0  0  3  0  0  0  0  0  0
  192.6470  176.2950  137.5890 C   0  0  0  0  0  0  0  0  0  0  0  0
  193.6300  174.8910  135.2540 C   0  0  0  0  0  2  0  0  0  0  0  0
  193.8930  176.7120  136.9330 C   0  0  0  0  0  3  0  0  0  0  0  0
  189.5450  176.4690  139.7110 C   0  0  0  0  0  2  0  0  0  0  0  0
  190.6610  176.9890  140.4990 N   0  0  0  0  0  0  0  0  0  0  0  0
  191.6340  175.4840  136.8450 C   0  0  1  0  0  3  0  0  0  0  0  0
  189.3290  174.5990  135.6220 C   0  0  0  0  0  3  0  0  0  0  0  0
  191.4300  174.0370  134.7930 N   0  0  0  0  0  0  0  0  0  0  0  0
  189.1740  175.6190  136.4000 C   0  0  0  0  0  0  0  0  0  0  0  0
  192.3300  176.7620  138.7700 C   0  0  0  0  0  0  0  0  0  0  0  0
  194.3180  176.1020  135.8260 C   0  0  0  0  0  3  0  0  0  0  0  0
  186.8840  174.9530  137.2790 C   0  0  0  0  0  3  0  0  0  0  0  0
  187.8130  177.1220  137.9380 C   0  0  2  0  0  3  0  0  0  0  0  0
  191.9750  177.2060  139.9490 C   0  0  0  0  0  3  0  0  0  0  0  0
  186.8880  173.8380  136.6890 O   0  0  0  0  0  0  0  0  0  0  0  0
  190.4190  177.2790  141.9090 C   0  0  2  0  0  3  0  0  0  0  0  0
  191.7740  178.1460  143.6720 O   0  0  0  0  0  1  0  0  0  0  0  0
  191.7070  177.1380  142.7050 C   0  0  0  0  0  2  0  0  0  0  0  0
  189.4470  176.4160  142.4200 O   0  0  0  0  0  0  0  0  0  0  0  0
  188.3160  176.9780  144.4440 C   0  0  0  0  0  1  0  0  0  0  0  0
  188.4660  177.2560  142.9560 C   0  0  0  0  0  2  0  0  0  0  0  0
  187.4360  178.2240  136.9590 C   0  0  0  0  0  2  0  0  0  0  0  0
  185.9660  178.5910  137.0760 C   0  0  0  0  0  2  0  0  0  0  0  0
  185.4460  178.1960  138.4410 C   0  0  0  0  0  2  0  0  0  0  0  0
  184.4750  179.2450  138.9440 C   0  0  0  0  0  2  0  0  0  0  0  0
  184.0200  178.8920  140.3230 C   0  0  0  0  0  0  0  0  0  0  0  0
  184.7550  179.2490  141.3270 N   0  0  0  0  0  0  0  0  0  0  0  0
  182.7850  178.2020  140.5460 N   0  0  0  0  0  0  0  0  0  0  0  0
  182.3150  177.3390  139.7070 C   0  0  0  0  0  3  0  0  0  0  0  0
  181.0310  176.6550  139.9920 C   0  0  0  0  0  1  0  0  0  0  0  0
  184.3740  178.9890  142.6520 N   0  0  0  0  0  0  0  0  0  0  0  0
  184.9410  179.0530  145.0940 C   0  0  0  0  0  0  0  0  0  0  0  0
  185.8500  179.0790  145.9610 O   0  0  0  0  0  1  0  0  0  0  0  0
  185.2990  178.9780  143.7090 N   0  0  0  0  0  0  0  0  0  0  0  0
  183.6110  179.1240  145.4970 O   0  0  0  0  0  0  0  0  0  0  0  0
  1  9  1  0  0  0  0
  3 17  1  0  0  0  0
  3 18  1  0  0  0  0
  4 12  1  0  0  0  0
  5  7  1  1  0  0  0
  5 11  1  0  0  0  0
  6 15  2  0  0  0  0
  7 16  1  0  0  0  0
  8  6  1  0  0  0  0
  9 10  1  0  0  0  0
 10 21  1  0  0  0  0
 11  2  1  6  0  0  0
 11  6  1  0  0  0  0
 12 14  2  0  0  0  0
 13  4  2  0  0  0  0
 13  5  1  0  0  0  0
 14  2  1  0  0  0  0
 14  3  1  0  0  0  0
 15 19  2  0  0  0  0
 16  8  2  0  0  0  0
 18 27  1  6  0  0  0
 18  1  1  0  0  0  0
 19 10  1  0  0  0  0
 20 17  2  0  0  0  0
 21 24  1  0  0  0  0
 21 23  1  1  0  0  0
 23 22  1  0  0  0  0
 24 26  1  0  0  0  0
 26 25  1  0  0  0  0
 27 28  1  0  0  0  0
 28 29  1  0  0  0  0
 29 30  1  0  0  0  0
 30 31  1  0  0  0  0
 31 33  1  0  0  0  0
 31 32  2  0  0  0  0
 32 36  1  0  0  0  0
 34 35  1  0  0  0  0
 34 33  2  0  0  0  0
 36 39  2  0  0  0  0
 37 40  2  0  0  0  0
 37 38  1  0  0  0  0
 39 37  1  0  0  0  0
M  END
>  <MODEL>
4

>  <REMARK>
 VINA RESULT:      -6.5      4.499      9.211
  Name = 
  12 active torsions:
  status: ('A' for Active; 'I' for Inactive)
    1  A    between atoms: C_4  and  N_20
    2  A    between atoms: C_4  and  C_36
    3  A    between atoms: C_4  and  O_37
    4  A    between atoms: C_6  and  N_11
    5  A    between atoms: C_6  and  C_26
    6  A    between atoms: N_8  and  N_18
    7  A    between atoms: N_8  and  N_22
    8  A    between atoms: C_13  and  C_25
    9  A    between atoms: C_13  and  C_33
   10  A    between atoms: C_25  and  C_26
   11  A    between atoms: C_33  and  C_34
   12  A    between atoms: O_37  and  C_40
                            x       y       z     vdW  Elec       q    Type
                         _______ _______ _______ _____ _____    ______ ____

>  <TORSDO>
F 12

$$$$
=
 OpenBabel10222416593D

 40 42  0  0  1  0  0  0  0  0999 V2000
  182.4400  177.4240  139.4780 C   0  0  0  0  0  2  0  0  0  0  0  0
  181.1830  179.8830  139.0110 N   0  0  0  0  0  2  0  0  0  0  0  0
  181.1710  178.7240  141.2270 N   0  0  0  0  0  0  0  0  0  0  0  0
  179.0360  181.6400  140.3910 C   0  0  0  0  0  3  0  0  0  0  0  0
  179.5950  181.5640  137.9780 C   0  0  2  0  0  3  0  0  0  0  0  0
  180.6670  179.6520  136.6610 C   0  0  0  0  0  0  0  0  0  0  0  0
  179.3860  182.2500  136.6560 C   0  0  0  0  0  2  0  0  0  0  0  0
  180.9130  180.6070  135.5730 C   0  0  0  0  0  3  0  0  0  0  0  0
  181.1780  176.7330  138.9800 C   0  0  0  0  0  2  0  0  0  0  0  0
  181.3790  176.2630  137.6110 N   0  0  0  0  0  0  0  0  0  0  0  0
  180.1570  180.1270  137.9840 C   0  0  1  0  0  3  0  0  0  0  0  0
  179.8790  180.7010  140.6650 C   0  0  0  0  0  3  0  0  0  0  0  0
  179.0280  182.1220  139.0300 N   0  0  0  0  0  0  0  0  0  0  0  0
  180.8110  179.8500  140.3850 C   0  0  0  0  0  0  0  0  0  0  0  0
  181.0440  178.4040  136.5470 C   0  0  0  0  0  0  0  0  0  0  0  0
  180.3680  181.8230  135.5960 C   0  0  0  0  0  3  0  0  0  0  0  0
  180.4950  178.4020  142.4510 C   0  0  0  0  0  3  0  0  0  0  0  0
  182.3540  177.9030  140.9350 C   0  0  2  0  0  3  0  0  0  0  0  0
  181.4050  177.1470  136.4740 C   0  0  0  0  0  3  0  0  0  0  0  0
  179.4770  179.0350  142.8430 O   0  0  0  0  0  0  0  0  0  0  0  0
  181.5420  174.8270  137.4040 C   0  0  2  0  0  3  0  0  0  0  0  0
  183.8190  174.5150  138.0470 O   0  0  0  0  0  1  0  0  0  0  0  0
  182.9590  174.5180  136.9450 C   0  0  0  0  0  2  0  0  0  0  0  0
  180.6240  174.3680  136.4560 O   0  0  0  0  0  0  0  0  0  0  0  0
  180.0170  172.7030  138.0540 C   0  0  0  0  0  1  0  0  0  0  0  0
  179.5510  173.8770  137.2040 C   0  0  0  0  0  2  0  0  0  0  0  0
  183.6150  178.6660  141.3090 C   0  0  0  0  0  2  0  0  0  0  0  0
  184.0230  178.3920  142.7470 C   0  0  0  0  0  2  0  0  0  0  0  0
  185.5240  178.5210  142.8880 C   0  0  0  0  0  2  0  0  0  0  0  0
  185.9330  178.2350  144.3190 C   0  0  0  0  0  2  0  0  0  0  0  0
  187.1730  177.4000  144.3320 C   0  0  0  0  0  0  0  0  0  0  0  0
  187.5480  176.8340  143.2310 N   0  0  0  0  0  0  0  0  0  0  0  0
  187.9560  177.2500  145.5220 N   0  0  0  0  0  0  0  0  0  0  0  0
  187.6140  177.7870  146.6450 C   0  0  0  0  0  3  0  0  0  0  0  0
  188.4640  177.5950  147.8460 C   0  0  0  0  0  1  0  0  0  0  0  0
  188.7220  176.0690  143.1550 N   0  0  0  0  0  2  0  0  0  0  0  0
  190.7670  177.3670  142.5050 C   0  0  0  0  0  0  0  0  0  0  0  0
  191.6290  177.5950  141.6190 O   0  0  0  0  0  0  0  0  0  0  0  0
  189.7610  176.3770  142.2620 N   0  0  0  0  0  2  0  0  0  0  0  0
  190.7940  178.0980  143.6890 O   0  0  0  0  0  1  0  0  0  0  0  0
  1 18  1  0  0  0  0
  2 14  1  0  0  0  0
  3 17  1  0  0  0  0
  4 12  1  0  0  0  0
  5  7  1  6  0  0  0
  5 11  1  0  0  0  0
  5 13  1  0  0  0  0
  8 16  2  0  0  0  0
  8  6  1  0  0  0  0
  9  1  1  0  0  0  0
 10  9  1  0  0  0  0
 11  6  1  6  0  0  0
 11  2  1  0  0  0  0
 13  4  2  0  0  0  0
 14 12  2  0  0  0  0
 14  3  1  0  0  0  0
 15  6  2  0  0  0  0
 16  7  1  0  0  0  0
 17 20  2  0  0  0  0
 18  3  1  0  0  0  0
 18 27  1  6  0  0  0
 19 15  2  0  0  0  0
 19 10  1  0  0  0  0
 21 23  1  6  0  0  0
 21 10  1  0  0  0  0
 23 22  1  0  0  0  0
 24 26  1  0  0  0  0
 24 21  1  0  0  0  0
 26 25  1  0  0  0  0
 27 28  1  0  0  0  0
 28 29  1  0  0  0  0
 29 30  1  0  0  0  0
 30 31  1  0  0  0  0
 31 33  1  0  0  0  0
 32 31  2  0  0  0  0
 33 34  2  0  0  0  0
 34 35  1  0  0  0  0
 36 32  1  0  0  0  0
 37 40  1  0  0  0  0
 38 37  2  0  0  0  0
 39 37  1  0  0  0  0
 39 36  1  0  0  0  0
M  END
>  <MODEL>
5

>  <REMARK>
 VINA RESULT:      -6.5      2.618      5.696
  Name = 
  12 active torsions:
  status: ('A' for Active; 'I' for Inactive)
    1  A    between atoms: C_4  and  N_20
    2  A    between atoms: C_4  and  C_36
    3  A    between atoms: C_4  and  O_37
    4  A    between atoms: C_6  and  N_11
    5  A    between atoms: C_6  and  C_26
    6  A    between atoms: N_8  and  N_18
    7  A    between atoms: N_8  and  N_22
    8  A    between atoms: C_13  and  C_25
    9  A    between atoms: C_13  and  C_33
   10  A    between atoms: C_25  and  C_26
   11  A    between atoms: C_33  and  C_34
   12  A    between atoms: O_37  and  C_40
                            x       y       z     vdW  Elec       q    Type
                         _______ _______ _______ _____ _____    ______ ____

>  <TORSDO>
F 12

$$$$
=
 OpenBabel10222416593D

 40 42  0  0  1  0  0  0  0  0999 V2000
  182.9840  179.2640  139.8490 C   0  0  0  0  0  2  0  0  0  0  0  0
  182.7500  176.6210  138.9540 N   0  0  0  0  0  2  0  0  0  0  0  0
  184.7220  178.0770  138.4590 N   0  0  0  0  0  0  0  0  0  0  0  0
  184.0760  174.8180  136.8110 C   0  0  0  0  0  3  0  0  0  0  0  0
  181.7880  174.6150  137.7410 C   0  0  2  0  0  3  0  0  0  0  0  0
  180.3440  176.4390  138.8030 C   0  0  0  0  0  0  0  0  0  0  0  0
  180.5800  173.7230  137.8240 C   0  0  0  0  0  2  0  0  0  0  0  0
  179.4730  175.3770  139.3230 C   0  0  0  0  0  3  0  0  0  0  0  0
  182.2050  179.7050  138.6180 C   0  0  0  0  0  2  0  0  0  0  0  0
  180.8200  179.9930  138.9880 N   0  0  0  0  0  0  0  0  0  0  0  0
  181.6410  176.0980  138.1390 C   0  0  1  0  0  3  0  0  0  0  0  0
  184.3110  175.8890  137.4930 C   0  0  0  0  0  3  0  0  0  0  0  0
  182.8250  174.1470  137.0750 N   0  0  0  0  0  0  0  0  0  0  0  0
  184.0330  176.8040  138.3620 C   0  0  0  0  0  0  0  0  0  0  0  0
  180.0830  177.6960  139.0580 C   0  0  0  0  0  0  0  0  0  0  0  0
  179.6170  174.1160  138.9130 C   0  0  0  0  0  3  0  0  0  0  0  0
  185.7670  178.4820  137.5630 C   0  0  0  0  0  3  0  0  0  0  0  0
  184.4730  178.9940  139.5790 C   0  0  2  0  0  3  0  0  0  0  0  0
  179.8580  178.9640  139.2910 C   0  0  0  0  0  3  0  0  0  0  0  0
  186.1070  177.7850  136.5690 O   0  0  0  0  0  0  0  0  0  0  0  0
  180.4070  181.3930  139.0280 C   0  0  2  0  0  3  0  0  0  0  0  0
  179.6120  181.5240  141.2750 O   0  0  0  0  0  1  0  0  0  0  0  0
  179.2000  181.5600  139.9390 C   0  0  0  0  0  2  0  0  0  0  0  0
  180.0980  181.8430  137.7420 O   0  0  0  0  0  0  0  0  0  0  0  0
  180.0490  184.2150  137.4930 C   0  0  0  0  0  1  0  0  0  0  0  0
  180.9120  182.9630  137.5480 C   0  0  0  0  0  2  0  0  0  0  0  0
  185.1430  178.4640  140.8380 C   0  0  0  0  0  2  0  0  0  0  0  0
  184.5350  179.0750  142.0900 C   0  0  0  0  0  2  0  0  0  0  0  0
  184.6520  178.1030  143.2430 C   0  0  0  0  0  2  0  0  0  0  0  0
  185.5200  178.7020  144.3330 C   0  0  0  0  0  2  0  0  0  0  0  0
  186.7530  177.8750  144.5070 C   0  0  0  0  0  0  0  0  0  0  0  0
  187.1000  177.0740  143.5520 N   0  0  0  0  0  0  0  0  0  0  0  0
  187.5590  177.9810  145.6860 N   0  0  0  0  0  0  0  0  0  0  0  0
  187.0750  177.8090  146.8710 C   0  0  0  0  0  3  0  0  0  0  0  0
  187.9590  177.9300  148.0560 C   0  0  0  0  0  1  0  0  0  0  0  0
  188.2660  176.2970  143.6250 N   0  0  0  0  0  2  0  0  0  0  0  0
  190.2080  177.4720  142.5610 C   0  0  0  0  0  0  0  0  0  0  0  0
  191.0580  177.4700  141.6340 O   0  0  0  0  0  0  0  0  0  0  0  0
  189.2850  176.3810  142.6630 N   0  0  0  0  0  2  0  0  0  0  0  0
  190.1670  178.5430  143.4470 O   0  0  0  0  0  1  0  0  0  0  0  0
  3 18  1  0  0  0  0
  4 13  2  0  0  0  0
  4 12  1  0  0  0  0
  5  7  1  6  0  0  0
  5 11  1  0  0  0  0
  6 15  2  0  0  0  0
  6  8  1  0  0  0  0
  7 16  1  0  0  0  0
  9 10  1  0  0  0  0
  9  1  1  0  0  0  0
 10 21  1  0  0  0  0
 10 19  1  0  0  0  0
 11  6  1  1  0  0  0
 11  2  1  0  0  0  0
 12 14  2  0  0  0  0
 13  5  1  0  0  0  0
 14  3  1  0  0  0  0
 14  2  1  0  0  0  0
 15 19  2  0  0  0  0
 16  8  2  0  0  0  0
 17  3  1  0  0  0  0
 18  1  1  0  0  0  0
 18 27  1  1  0  0  0
 20 17  2  0  0  0  0
 21 23  1  1  0  0  0
 23 22  1  0  0  0  0
 24 21  1  0  0  0  0
 25 26  1  0  0  0  0
 26 24  1  0  0  0  0
 27 28  1  0  0  0  0
 28 29  1  0  0  0  0
 29 30  1  0  0  0  0
 30 31  1  0  0  0  0
 31 33  1  0  0  0  0
 32 36  1  0  0  0  0
 32 31  2  0  0  0  0
 33 34  2  0  0  0  0
 34 35  1  0  0  0  0
 37 39  1  0  0  0  0
 37 40  1  0  0  0  0
 38 37  2  0  0  0  0
 39 36  1  0  0  0  0
M  END
>  <MODEL>
6

>  <REMARK>
 VINA RESULT:      -6.4      1.944      3.096
  Name = 
  12 active torsions:
  status: ('A' for Active; 'I' for Inactive)
    1  A    between atoms: C_4  and  N_20
    2  A    between atoms: C_4  and  C_36
    3  A    between atoms: C_4  and  O_37
    4  A    between atoms: C_6  and  N_11
    5  A    between atoms: C_6  and  C_26
    6  A    between atoms: N_8  and  N_18
    7  A    between atoms: N_8  and  N_22
    8  A    between atoms: C_13  and  C_25
    9  A    between atoms: C_13  and  C_33
   10  A    between atoms: C_25  and  C_26
   11  A    between atoms: C_33  and  C_34
   12  A    between atoms: O_37  and  C_40
                            x       y       z     vdW  Elec       q    Type
                         _______ _______ _______ _____ _____    ______ ____

>  <TORSDO>
F 12

$$$$
=
 OpenBabel10222416593D

 40 42  0  0  1  0  0  0  0  0999 V2000
  182.5370  179.1050  139.6160 C   0  0  0  0  0  2  0  0  0  0  0  0
  182.2960  176.4300  138.8210 N   0  0  0  0  0  2  0  0  0  0  0  0
  184.3550  177.8010  138.4520 N   0  0  0  0  0  0  0  0  0  0  0  0
  183.7540  174.4880  136.8950 C   0  0  0  0  0  3  0  0  0  0  0  0
  181.3830  174.4000  137.6120 C   0  0  2  0  0  3  0  0  0  0  0  0
  179.9100  176.3150  138.4510 C   0  0  0  0  0  0  0  0  0  0  0  0
  180.1430  173.5500  137.6190 C   0  0  0  0  0  2  0  0  0  0  0  0
  178.9590  175.3050  138.9320 C   0  0  0  0  0  3  0  0  0  0  0  0
  181.8920  179.5100  138.2990 C   0  0  0  0  0  2  0  0  0  0  0  0
  180.4890  179.8580  138.5220 N   0  0  0  0  0  0  0  0  0  0  0  0
  181.2510  175.9040  137.9290 C   0  0  1  0  0  3  0  0  0  0  0  0
  183.9610  175.5830  137.5490 C   0  0  0  0  0  3  0  0  0  0  0  0
  182.4610  173.8690  137.0680 N   0  0  0  0  0  0  0  0  0  0  0  0
  183.6340  176.5460  138.3460 C   0  0  0  0  0  0  0  0  0  0  0  0
  179.6700  177.5890  138.6240 C   0  0  0  0  0  0  0  0  0  0  0  0
  179.0960  174.0230  138.5940 C   0  0  0  0  0  3  0  0  0  0  0  0
  185.4920  178.1320  137.6420 C   0  0  0  0  0  3  0  0  0  0  0  0
  184.0340  178.7780  139.5010 C   0  0  2  0  0  3  0  0  0  0  0  0
  179.4690  178.8740  138.7780 C   0  0  0  0  0  3  0  0  0  0  0  0
  185.9000  177.3790  136.7160 O   0  0  0  0  0  0  0  0  0  0  0  0
  180.1230  181.2690  138.4610 C   0  0  2  0  0  3  0  0  0  0  0  0
  179.9240  181.2530  140.8400 O   0  0  0  0  0  1  0  0  0  0  0  0
  179.2740  181.6460  139.6660 C   0  0  0  0  0  2  0  0  0  0  0  0
  179.4220  181.5370  137.2830 O   0  0  0  0  0  0  0  0  0  0  0  0
  180.4480  181.4560  135.1310 C   0  0  0  0  0  1  0  0  0  0  0  0
  180.3400  182.1930  136.4590 C   0  0  0  0  0  2  0  0  0  0  0  0
  184.5650  178.2880  140.8400 C   0  0  0  0  0  2  0  0  0  0  0  0
  183.6110  178.6260  141.9730 C   0  0  0  0  0  2  0  0  0  0  0  0
  184.3580  178.6320  143.2880 C   0  0  0  0  0  2  0  0  0  0  0  0
  185.8340  178.3900  143.0420 C   0  0  0  0  0  2  0  0  0  0  0  0
  186.4540  177.7740  144.2550 C   0  0  0  0  0  0  0  0  0  0  0  0
  185.9630  178.0660  145.4160 N   0  0  0  0  0  0  0  0  0  0  0  0
  187.5450  176.8530  144.1460 N   0  0  0  0  0  0  0  0  0  0  0  0
  188.4690  176.9800  143.2530 C   0  0  0  0  0  3  0  0  0  0  0  0
  189.5770  175.9960  143.1890 C   0  0  0  0  0  1  0  0  0  0  0  0
  186.4650  177.4960  146.5960 N   0  0  0  0  0  2  0  0  0  0  0  0
  188.6980  177.8410  147.6810 C   0  0  0  0  0  0  0  0  0  0  0  0
  189.3740  178.5070  148.5060 O   0  0  0  0  0  1  0  0  0  0  0  0
  187.3280  178.1930  147.4560 N   0  0  0  0  0  2  0  0  0  0  0  0
  189.2880  176.7650  147.0270 O   0  0  0  0  0  0  0  0  0  0  0  0
  3 18  1  0  0  0  0
  4 13  2  0  0  0  0
  4 12  1  0  0  0  0
  5  7  1  6  0  0  0
  5 11  1  0  0  0  0
  6 15  2  0  0  0  0
  6  8  1  0  0  0  0
  7 16  1  0  0  0  0
  9 10  1  0  0  0  0
  9  1  1  0  0  0  0
 10 19  1  0  0  0  0
 11  6  1  1  0  0  0
 11  2  1  0  0  0  0
 12 14  2  0  0  0  0
 13  5  1  0  0  0  0
 14  3  1  0  0  0  0
 14  2  1  0  0  0  0
 15 19  2  0  0  0  0
 16  8  2  0  0  0  0
 17  3  1  0  0  0  0
 18  1  1  0  0  0  0
 18 27  1  1  0  0  0
 20 17  2  0  0  0  0
 21 10  1  0  0  0  0
 21 23  1  1  0  0  0
 23 22  1  0  0  0  0
 24 21  1  0  0  0  0
 25 26  1  0  0  0  0
 26 24  1  0  0  0  0
 27 28  1  0  0  0  0
 28 29  1  0  0  0  0
 30 29  1  0  0  0  0
 30 31  1  0  0  0  0
 31 32  2  0  0  0  0
 32 36  1  0  0  0  0
 33 31  1  0  0  0  0
 34 33  2  0  0  0  0
 35 34  1  0  0  0  0
 36 39  1  0  0  0  0
 37 38  1  0  0  0  0
 39 37  1  0  0  0  0
 40 37  2  0  0  0  0
M  END
>  <MODEL>
7

>  <REMARK>
 VINA RESULT:      -6.3      1.885      2.740
  Name = 
  12 active torsions:
  status: ('A' for Active; 'I' for Inactive)
    1  A    between atoms: C_4  and  N_20
    2  A    between atoms: C_4  and  C_36
    3  A    between atoms: C_4  and  O_37
    4  A    between atoms: C_6  and  N_11
    5  A    between atoms: C_6  and  C_26
    6  A    between atoms: N_8  and  N_18
    7  A    between atoms: N_8  and  N_22
    8  A    between atoms: C_13  and  C_25
    9  A    between atoms: C_13  and  C_33
   10  A    between atoms: C_25  and  C_26
   11  A    between atoms: C_33  and  C_34
   12  A    between atoms: O_37  and  C_40
                            x       y       z     vdW  Elec       q    Type
                         _______ _______ _______ _____ _____    ______ ____

>  <TORSDO>
F 12

$$$$
=
 OpenBabel10222416593D

 40 42  0  0  1  0  0  0  0  0999 V2000
  182.5300  177.5950  139.7590 C   0  0  0  0  0  2  0  0  0  0  0  0
  181.1810  180.0070  139.3040 N   0  0  0  0  0  2  0  0  0  0  0  0
  181.1690  178.8100  141.5000 N   0  0  0  0  0  0  0  0  0  0  0  0
  178.9310  181.6480  140.6630 C   0  0  0  0  0  3  0  0  0  0  0  0
  179.5450  181.6360  138.2620 C   0  0  2  0  0  3  0  0  0  0  0  0
  180.7270  179.7940  136.9390 C   0  0  0  0  0  0  0  0  0  0  0  0
  179.3370  182.3360  136.9470 C   0  0  0  0  0  2  0  0  0  0  0  0
  180.9560  180.7780  135.8720 C   0  0  0  0  0  3  0  0  0  0  0  0
  181.3110  176.8610  139.2220 C   0  0  0  0  0  2  0  0  0  0  0  0
  181.5620  176.4230  137.8500 N   0  0  0  0  0  0  0  0  0  0  0  0
  180.1680  180.2250  138.2580 C   0  0  1  0  0  3  0  0  0  0  0  0
  179.8070  180.7400  140.9410 C   0  0  0  0  0  3  0  0  0  0  0  0
  178.9320  182.1520  139.3100 N   0  0  0  0  0  0  0  0  0  0  0  0
  180.7800  179.9350  140.6690 C   0  0  0  0  0  0  0  0  0  0  0  0
  181.1590  178.5660  136.8130 C   0  0  0  0  0  0  0  0  0  0  0  0
  180.3590  181.9690  135.9030 C   0  0  0  0  0  3  0  0  0  0  0  0
  180.4800  178.4390  142.7020 C   0  0  0  0  0  3  0  0  0  0  0  0
  182.3920  178.0450  141.2220 C   0  0  2  0  0  3  0  0  0  0  0  0
  181.5740  177.3270  136.7280 C   0  0  0  0  0  3  0  0  0  0  0  0
  179.4290  179.0220  143.0820 O   0  0  0  0  0  0  0  0  0  0  0  0
  181.7900  174.9990  137.6230 C   0  0  2  0  0  3  0  0  0  0  0  0
  180.5010  172.9980  137.4600 O   0  0  0  0  0  1  0  0  0  0  0  0
  180.6370  174.1840  138.1880 C   0  0  0  0  0  2  0  0  0  0  0  0
  182.9900  174.6010  138.2190 O   0  0  0  0  0  0  0  0  0  0  0  0
  184.6670  173.0340  137.5670 C   0  0  0  0  0  1  0  0  0  0  0  0
  183.8130  174.2240  137.1540 C   0  0  0  0  0  2  0  0  0  0  0  0
  183.6110  178.8550  141.6370 C   0  0  0  0  0  2  0  0  0  0  0  0
  183.9630  178.6190  143.0960 C   0  0  0  0  0  2  0  0  0  0  0  0
  185.4180  178.9580  143.3340 C   0  0  0  0  0  2  0  0  0  0  0  0
  186.1230  177.7770  143.9690 C   0  0  0  0  0  2  0  0  0  0  0  0
  187.4990  177.6440  143.3980 C   0  0  0  0  0  0  0  0  0  0  0  0
  187.6910  177.9840  142.1640 N   0  0  0  0  0  0  0  0  0  0  0  0
  188.5950  177.1830  144.1960 N   0  0  0  0  0  0  0  0  0  0  0  0
  188.8960  177.7210  145.3310 C   0  0  0  0  0  3  0  0  0  0  0  0
  190.0420  177.2000  146.1150 C   0  0  0  0  0  1  0  0  0  0  0  0
  188.9610  177.9260  141.5700 N   0  0  0  0  0  0  0  0  0  0  0  0
  190.6000  176.7790  140.0590 C   0  0  0  0  0  0  0  0  0  0  0  0
  190.7710  175.9420  139.1370 O   0  0  0  0  0  0  0  0  0  0  0  0
  189.2800  176.9880  140.5750 N   0  0  0  0  0  0  0  0  0  0  0  0
  191.6890  177.5000  140.5370 O   0  0  0  0  0  1  0  0  0  0  0  0
  1 18  1  0  0  0  0
  2 14  1  0  0  0  0
  3 17  1  0  0  0  0
  4 12  1  0  0  0  0
  5  7  1  6  0  0  0
  5 13  1  0  0  0  0
  8 16  2  0  0  0  0
  8  6  1  0  0  0  0
  9  1  1  0  0  0  0
 10  9  1  0  0  0  0
 11  6  1  6  0  0  0
 11  5  1  0  0  0  0
 11  2  1  0  0  0  0
 13  4  2  0  0  0  0
 14 12  2  0  0  0  0
 14  3  1  0  0  0  0
 15  6  2  0  0  0  0
 16  7  1  0  0  0  0
 17 20  2  0  0  0  0
 18  3  1  0  0  0  0
 18 27  1  6  0  0  0
 19 15  2  0  0  0  0
 19 10  1  0  0  0  0
 21 10  1  0  0  0  0
 21 23  1  1  0  0  0
 21 24  1  0  0  0  0
 22 23  1  0  0  0  0
 26 25  1  0  0  0  0
 26 24  1  0  0  0  0
 27 28  1  0  0  0  0
 28 29  1  0  0  0  0
 29 30  1  0  0  0  0
 31 30  1  0  0  0  0
 31 33  1  0  0  0  0
 32 31  2  0  0  0  0
 33 34  2  0  0  0  0
 34 35  1  0  0  0  0
 36 32  1  0  0  0  0
 37 40  1  0  0  0  0
 37 39  1  0  0  0  0
 38 37  2  0  0  0  0
 39 36  2  0  0  0  0
M  END
>  <MODEL>
8

>  <REMARK>
 VINA RESULT:      -6.3      2.883      5.950
  Name = 
  12 active torsions:
  status: ('A' for Active; 'I' for Inactive)
    1  A    between atoms: C_4  and  N_20
    2  A    between atoms: C_4  and  C_36
    3  A    between atoms: C_4  and  O_37
    4  A    between atoms: C_6  and  N_11
    5  A    between atoms: C_6  and  C_26
    6  A    between atoms: N_8  and  N_18
    7  A    between atoms: N_8  and  N_22
    8  A    between atoms: C_13  and  C_25
    9  A    between atoms: C_13  and  C_33
   10  A    between atoms: C_25  and  C_26
   11  A    between atoms: C_33  and  C_34
   12  A    between atoms: O_37  and  C_40
                            x       y       z     vdW  Elec       q    Type
                         _______ _______ _______ _____ _____    ______ ____

>  <TORSDO>
F 12

$$$$
=
 OpenBabel10222416593D

 40 42  0  0  1  0  0  0  0  0999 V2000
  186.2350  177.5090  138.7080 C   0  0  0  0  0  2  0  0  0  0  0  0
  186.8390  175.1920  137.2550 N   0  0  0  0  0  2  0  0  0  0  0  0
  188.1770  177.3010  137.1120 N   0  0  0  0  0  0  0  0  0  0  0  0
  188.5510  174.4360  134.7850 C   0  0  0  0  0  3  0  0  0  0  0  0
  186.5260  173.2800  135.6240 C   0  0  2  0  0  3  0  0  0  0  0  0
  184.6270  174.2410  137.0420 C   0  0  0  0  0  0  0  0  0  0  0  0
  185.6920  172.0350  135.4960 C   0  0  0  0  0  2  0  0  0  0  0  0
  184.1950  172.8630  137.3070 C   0  0  0  0  0  3  0  0  0  0  0  0
  185.2770  177.9060  137.5950 C   0  0  0  0  0  2  0  0  0  0  0  0
  183.9010  177.6240  138.0030 N   0  0  0  0  0  0  0  0  0  0  0  0
  185.9180  174.5070  136.3340 C   0  0  1  0  0  3  0  0  0  0  0  0
  188.4580  175.3560  135.6870 C   0  0  0  0  0  3  0  0  0  0  0  0
  187.6150  173.3410  134.8820 N   0  0  0  0  0  0  0  0  0  0  0  0
  187.9470  175.9190  136.7320 C   0  0  0  0  0  0  0  0  0  0  0  0
  183.9790  175.2520  137.5620 C   0  0  0  0  0  0  0  0  0  0  0  0
  184.7240  171.8410  136.6340 C   0  0  0  0  0  3  0  0  0  0  0  0
  188.9670  178.2140  136.3380 C   0  0  0  0  0  3  0  0  0  0  0  0
  187.7080  177.8230  138.4030 C   0  0  2  0  0  3  0  0  0  0  0  0
  183.3590  176.2910  138.0630 C   0  0  0  0  0  3  0  0  0  0  0  0
  189.4560  177.8980  135.2190 O   0  0  0  0  0  0  0  0  0  0  0  0
  183.0490  178.7590  138.3430 C   0  0  2  0  0  3  0  0  0  0  0  0
  183.6890  181.0270  138.7210 O   0  0  0  0  0  1  0  0  0  0  0  0
  183.7990  179.7320  139.2390 C   0  0  0  0  0  2  0  0  0  0  0  0
  181.8900  178.3180  138.9860 O   0  0  0  0  0  0  0  0  0  0  0  0
  180.8980  178.1350  141.1480 C   0  0  0  0  0  1  0  0  0  0  0  0
  182.0840  178.6330  140.3340 C   0  0  0  0  0  2  0  0  0  0  0  0
  188.5960  177.3020  139.5220 C   0  0  0  0  0  2  0  0  0  0  0  0
  188.2060  177.9010  140.8640 C   0  0  0  0  0  2  0  0  0  0  0  0
  189.3150  177.6750  141.8680 C   0  0  0  0  0  2  0  0  0  0  0  0
  188.9340  176.5510  142.8100 C   0  0  0  0  0  2  0  0  0  0  0  0
  188.5740  177.1140  144.1470 C   0  0  0  0  0  0  0  0  0  0  0  0
  187.3650  177.5350  144.3360 N   0  0  0  0  0  0  0  0  0  0  0  0
  189.5270  177.1600  145.2150 N   0  0  0  0  0  0  0  0  0  0  0  0
  190.7190  176.6770  145.0980 C   0  0  0  0  0  3  0  0  0  0  0  0
  191.6640  176.7560  146.2390 C   0  0  0  0  0  1  0  0  0  0  0  0
  186.9430  178.0380  145.5750 N   0  0  0  0  0  2  0  0  0  0  0  0
  184.6390  178.9080  145.1020 C   0  0  0  0  0  0  0  0  0  0  0  0
  183.4530  179.0170  145.5060 O   0  0  0  0  0  1  0  0  0  0  0  0
  185.5840  178.1870  145.9000 N   0  0  0  0  0  2  0  0  0  0  0  0
  185.0100  179.5120  143.9050 O   0  0  0  0  0  0  0  0  0  0  0  0
  3 18  1  0  0  0  0
  4 13  2  0  0  0  0
  4 12  1  0  0  0  0
  5  7  1  6  0  0  0
  5 11  1  0  0  0  0
  6  8  1  0  0  0  0
  6 15  2  0  0  0  0
  7 16  1  0  0  0  0
  9 10  1  0  0  0  0
  9  1  1  0  0  0  0
 10 19  1  0  0  0  0
 10 21  1  0  0  0  0
 11  6  1  1  0  0  0
 11  2  1  0  0  0  0
 12 14  2  0  0  0  0
 13  5  1  0  0  0  0
 14  3  1  0  0  0  0
 14  2  1  0  0  0  0
 15 19  2  0  0  0  0
 16  8  2  0  0  0  0
 17  3  1  0  0  0  0
 18  1  1  0  0  0  0
 18 27  1  1  0  0  0
 20 17  2  0  0  0  0
 21 24  1  0  0  0  0
 21 23  1  1  0  0  0
 22 23  1  0  0  0  0
 24 26  1  0  0  0  0
 26 25  1  0  0  0  0
 27 28  1  0  0  0  0
 28 29  1  0  0  0  0
 29 30  1  0  0  0  0
 30 31  1  0  0  0  0
 31 32  2  0  0  0  0
 31 33  1  0  0  0  0
 32 36  1  0  0  0  0
 34 33  2  0  0  0  0
 34 35  1  0  0  0  0
 36 39  1  0  0  0  0
 37 38  1  0  0  0  0
 37 39  1  0  0  0  0
 40 37  2  0  0  0  0
M  END
>  <MODEL>
9

>  <REMARK>
 VINA RESULT:      -6.2      3.162      4.939
  Name = 
  12 active torsions:
  status: ('A' for Active; 'I' for Inactive)
    1  A    between atoms: C_4  and  N_20
    2  A    between atoms: C_4  and  C_36
    3  A    between atoms: C_4  and  O_37
    4  A    between atoms: C_6  and  N_11
    5  A    between atoms: C_6  and  C_26
    6  A    between atoms: N_8  and  N_18
    7  A    between atoms: N_8  and  N_22
    8  A    between atoms: C_13  and  C_25
    9  A    between atoms: C_13  and  C_33
   10  A    between atoms: C_25  and  C_26
   11  A    between atoms: C_33  and  C_34
   12  A    between atoms: O_37  and  C_40
                            x       y       z     vdW  Elec       q    Type
                         _______ _______ _______ _____ _____    ______ ____

>  <TORSDO>
F 12

$$$$
