=
 OpenBabel10222416323D

 57 61  0  0  1  0  0  0  0  0999 V2000
  186.9990  179.1920  141.2960 C   0  0  0  0  0  3  0  0  0  0  0  0
  188.2110  178.6470  141.1410 C   0  0  0  0  0  3  0  0  0  0  0  0
  188.4840  177.4850  140.2350 C   0  0  0  0  0  2  0  0  0  0  0  0
  188.9610  177.9290  138.8590 C   0  0  1  0  0  3  0  0  0  0  0  0
  190.2840  177.5210  138.6820 O   0  0  0  0  0  1  0  0  0  0  0  0
  188.1930  179.1720  136.3310 F   0  0  0  0  0  0  0  0  0  0  0  0
  187.1450  176.5280  135.1910 C   0  0  0  0  0  3  0  0  0  0  0  0
  186.4160  177.6160  135.9420 C   0  0  2  0  0  3  0  0  0  0  0  0
  188.2730  175.9830  135.6580 C   0  0  0  0  0  3  0  0  0  0  0  0
  188.0720  177.2850  137.8010 C   0  0  2  0  0  3  0  0  0  0  0  0
  188.8350  176.4160  136.9060 N   0  0  0  0  0  2  0  0  0  0  0  0
  187.3070  178.3290  136.9800 C   0  0  1  0  0  3  0  0  0  0  0  0
  185.0230  177.1510  136.4190 C   0  0  2  0  0  3  0  0  0  0  0  0
  184.6760  175.7300  135.9940 C   0  0  2  0  0  3  0  0  0  0  0  0
  184.0650  176.9310  135.2560 C   0  0  1  0  0  3  0  0  0  0  0  0
  181.7390  178.4960  134.6070 O   0  0  0  0  0  0  0  0  0  0  0  0
  182.3530  177.3900  135.7300 P   0  0  1  0  0  0  0  0  0  0  0  0
  181.4540  176.1720  135.7830 O   0  0  0  0  0  1  0  0  0  0  0  0
  182.3970  178.1690  137.3700 C   0  0  0  0  0  2  0  0  0  0  0  0
  180.9450  179.6360  138.6850 C   0  0  0  0  0  2  0  0  0  0  0  0
  181.5520  179.4260  137.3600 C   0  0  2  0  0  3  0  0  0  0  0  0
  180.2170  179.0820  137.6220 O   0  0  0  0  0  0  0  0  0  0  0  0
  183.7990  175.0680  137.0480 C   0  0  0  0  0  2  0  0  0  0  0  0
  183.7030  173.5670  136.7980 C   0  0  2  0  0  3  0  0  0  0  0  0
  182.3950  173.1120  137.0120 O   0  0  0  0  0  0  0  0  0  0  0  0
  182.0620  172.4200  135.8430 C   0  0  0  0  0  1  0  0  0  0  0  0
  184.6870  172.8050  137.6870 C   0  0  0  0  0  2  0  0  0  0  0  0
  186.0650  172.7620  137.1150 C   0  0  0  0  0  0  0  0  0  0  0  0
  187.0080  173.3560  137.6950 O   0  0  0  0  0  1  0  0  0  0  0  0
  186.2960  172.1010  135.9180 O   0  0  0  0  0  0  0  0  0  0  0  0
  185.5470  178.6570  140.3730 S   0  0  0  0  0  0  0  0  0  0  0  0
  184.3330  178.9240  141.7220 C   0  0  2  0  0  3  0  0  0  0  0  0
  185.5380  178.0030  145.8040 C   0  0  0  0  0  2  0  0  0  0  0  0
  184.5720  179.6930  144.2150 C   0  0  0  0  0  2  0  0  0  0  0  0
  185.4290  179.4880  145.4640 C   0  0  0  0  0  2  0  0  0  0  0  0
  186.2130  177.2570  144.6480 C   0  0  1  0  0  3  0  0  0  0  0  0
  184.8470  178.6910  143.1130 C   0  0  0  0  0  0  0  0  0  0  0  0
  185.5340  177.5590  143.3400 C   0  0  0  0  0  3  0  0  0  0  0  0
  187.6820  177.6450  144.5290 C   0  0  0  0  0  2  0  0  0  0  0  0
  188.5540  176.8350  145.4810 C   0  0  0  0  0  2  0  0  0  0  0  0
  189.8510  178.9130  145.1710 C   0  0  0  0  0  1  0  0  0  0  0  0
  189.8150  177.6040  145.9580 C   0  0  2  0  0  0  0  0  0  0  0  0
  192.3730  175.7070  147.4420 C   0  0  0  0  0  2  0  0  0  0  0  0
  190.8870  175.4130  145.6390 O   0  0  0  0  0  0  0  0  0  0  0  0
  191.8860  174.7640  146.3810 C   0  0  0  0  0  2  0  0  0  0  0  0
  191.1520  176.8020  145.6980 C   0  0  2  0  0  0  0  0  0  0  0  0
  192.1610  177.0430  146.8170 C   0  0  0  0  0  2  0  0  0  0  0  0
  191.8410  177.2520  144.3950 C   0  0  0  0  0  2  0  0  0  0  0  0
  191.7710  177.5790  141.9440 C   0  0  0  0  0  1  0  0  0  0  0  0
  190.6650  175.6120  142.9380 C   0  0  0  0  0  1  0  0  0  0  0  0
  190.9940  177.0760  143.1400 C   0  0  0  0  0  3  0  0  0  0  0  0
  189.6870  177.9900  147.3190 O   0  0  0  0  0  0  0  0  0  0  0  0
  187.8590  178.1590  148.8390 C   0  0  0  0  0  1  0  0  0  0  0  0
  188.6930  177.2400  147.9700 C   0  0  0  0  0  2  0  0  0  0  0  0
  182.8780  177.3530  140.6340 O   0  0  0  0  0  0  0  0  0  0  0  0
  181.8730  178.7830  142.1060 O   0  0  0  0  0  1  0  0  0  0  0  0
  182.9970  178.2960  141.4580 C   0  0  0  0  0  0  0  0  0  0  0  0
  2  1  2  0  0  0  0
  3  2  1  0  0  0  0
  4  5  1  6  0  0  0
  4  3  1  0  0  0  0
  7  9  2  0  0  0  0
  8  7  1  1  0  0  0
  8 12  1  0  0  0  0
  9 11  1  0  0  0  0
 10  4  1  1  0  0  0
 11 10  1  0  0  0  0
 12  6  1  6  0  0  0
 12 10  1  0  0  0  0
 13  8  1  6  0  0  0
 14 13  1  0  0  0  0
 14 23  1  1  0  0  0
 15 17  1  1  0  0  0
 15 14  1  0  0  0  0
 15 13  1  0  0  0  0
 17 16  2  6  0  0  0
 17 18  1  0  0  0  0
 17 19  1  0  0  0  0
 21 19  1  1  0  0  0
 21 22  1  0  0  0  0
 21 20  1  0  0  0  0
 22 20  1  0  0  0  0
 24 25  1  0  0  0  0
 24 23  1  1  0  0  0
 24 27  1  0  0  0  0
 26 25  1  0  0  0  0
 28 27  1  0  0  0  0
 28 29  1  0  0  0  0
 30 28  2  0  0  0  0
 31  1  1  0  0  0  0
 32 31  1  6  0  0  0
 32 37  1  0  0  0  0
 34 35  1  0  0  0  0
 35 33  1  0  0  0  0
 36 39  1  6  0  0  0
 36 33  1  0  0  0  0
 37 38  2  0  0  0  0
 37 34  1  0  0  0  0
 38 36  1  0  0  0  0
 39 40  1  0  0  0  0
 40 42  1  0  0  0  0
 42 41  1  6  0  0  0
 42 52  1  0  0  0  0
 44 46  1  0  0  0  0
 44 45  1  0  0  0  0
 45 43  1  0  0  0  0
 46 48  1  6  0  0  0
 46 42  1  0  0  0  0
 46 47  1  0  0  0  0
 47 43  1  0  0  0  0
 49 51  1  0  0  0  0
 50 51  1  0  0  0  0
 51 48  1  0  0  0  0
 52 54  1  0  0  0  0
 54 53  1  0  0  0  0
 55 57  2  0  0  0  0
 57 32  1  0  0  0  0
 57 56  1  0  0  0  0
M  END
>  <MODEL>
1

>  <REMARK>
 VINA RESULT:      -5.3      0.000      0.000
  Name = 
  24 active torsions:
  status: ('A' for Active; 'I' for Inactive)
    1  A    between atoms: C_1  and  C_29
    2  A    between atoms: C_5  and  C_18
    3  A    between atoms: C_5  and  C_34
    4  A    between atoms: C_7  and  C_15
    5  A    between atoms: C_7  and  C_27
    6  A    between atoms: S_11  and  C_13
    7  A    between atoms: S_11  and  C_52
    8  A    between atoms: C_15  and  C_55
    9  A    between atoms: C_16  and  O_38
   10  A    between atoms: P_17  and  C_44
   11  A    between atoms: P_17  and  C_57
   12  A    between atoms: C_18  and  C_41
   13  A    between atoms: O_19  and  C_30
   14  A    between atoms: C_23  and  C_25
   15  A    between atoms: C_28  and  C_39
   16  A    between atoms: C_29  and  C_30
   17  A    between atoms: C_30  and  C_39
   18  A    between atoms: C_31  and  C_52
   19  A    between atoms: C_37  and  C_42
   20  A    between atoms: O_38  and  C_55
   21  A    between atoms: C_42  and  C_54
   22  A    between atoms: C_46  and  C_57
   23  A    between atoms: C_48  and  C_52
   24  A    between atoms: C_54  and  C_55
                            x       y       z     vdW  Elec       q    Type
                         _______ _______ _______ _____ _____    ______ ____

>  <TORSDO>
F 24

$$$$
=
 OpenBabel10222416323D

 57 61  0  0  1  0  0  0  0  0999 V2000
  183.1330  177.6230  137.9830 C   0  0  0  0  0  3  0  0  0  0  0  0
  183.7820  176.7530  137.2000 C   0  0  0  0  0  3  0  0  0  0  0  0
  183.8400  175.2810  137.4720 C   0  0  0  0  0  2  0  0  0  0  0  0
  183.8090  174.4580  136.1920 C   0  0  1  0  0  3  0  0  0  0  0  0
  183.4980  175.2940  135.1190 O   0  0  0  0  0  1  0  0  0  0  0  0
  185.0750  172.5460  138.0010 F   0  0  0  0  0  0  0  0  0  0  0  0
  187.2120  171.7990  135.9350 C   0  0  0  0  0  2  0  0  0  0  0  0
  187.2410  172.8430  137.0270 C   0  0  2  0  0  3  0  0  0  0  0  0
  186.2080  171.7270  135.0560 C   0  0  0  0  0  3  0  0  0  0  0  0
  185.1820  173.8280  135.9810 C   0  0  2  0  0  3  0  0  0  0  0  0
  185.1120  172.6520  135.1160 N   0  0  0  0  0  0  0  0  0  0  0  0
  185.8540  173.4570  137.3070 C   0  0  1  0  0  3  0  0  0  0  0  0
  188.4170  173.8280  136.8490 C   0  0  2  0  0  3  0  0  0  0  0  0
  188.4920  174.4420  135.4570 C   0  0  2  0  0  3  0  0  0  0  0  0
  189.4500  173.3100  135.8570 C   0  0  1  0  0  3  0  0  0  0  0  0
  191.0800  174.5400  137.8850 O   0  0  0  0  0  1  0  0  0  0  0  0
  191.1410  173.8170  136.3570 P   0  0  1  0  0  0  0  0  0  0  0  0
  192.0790  172.6280  136.3970 O   0  0  0  0  0  0  0  0  0  0  0  0
  191.7620  175.0250  135.1520 C   0  0  0  0  0  2  0  0  0  0  0  0
  193.9090  175.6740  136.1310 C   0  0  0  0  0  2  0  0  0  0  0  0
  193.2690  174.9120  135.0470 C   0  0  2  0  0  3  0  0  0  0  0  0
  193.8100  176.1880  134.8310 O   0  0  0  0  0  0  0  0  0  0  0  0
  189.0470  175.8580  135.5390 C   0  0  0  0  0  2  0  0  0  0  0  0
  188.4020  176.6200  136.6910 C   0  0  2  0  0  3  0  0  0  0  0  0
  187.1350  177.0920  136.3230 O   0  0  0  0  0  0  0  0  0  0  0  0
  187.3170  178.4580  136.0870 C   0  0  0  0  0  1  0  0  0  0  0  0
  189.2940  177.7770  137.1430 C   0  0  0  0  0  2  0  0  0  0  0  0
  189.2380  178.0030  138.6180 C   0  0  0  0  0  0  0  0  0  0  0  0
  189.2780  177.0280  139.4080 O   0  0  0  0  0  1  0  0  0  0  0  0
  189.1000  179.2910  139.1150 O   0  0  0  0  0  0  0  0  0  0  0  0
  182.1710  177.1300  139.4240 S   0  0  0  0  0  0  0  0  0  0  0  0
  181.0480  178.5810  139.4300 C   0  0  2  0  0  3  0  0  0  0  0  0
  179.4470  179.6770  143.3290 C   0  0  0  0  0  2  0  0  0  0  0  0
  179.8450  180.3520  140.9410 C   0  0  0  0  0  2  0  0  0  0  0  0
  179.7520  180.8400  142.3860 C   0  0  0  0  0  2  0  0  0  0  0  0
  180.5780  178.6460  143.2580 C   0  0  1  0  0  3  0  0  0  0  0  0
  180.5950  179.0450  140.7840 C   0  0  0  0  0  0  0  0  0  0  0  0
  180.8600  178.2490  141.8340 C   0  0  0  0  0  3  0  0  0  0  0  0
  181.8610  179.1960  143.8680 C   0  0  0  0  0  2  0  0  0  0  0  0
  182.9410  178.1240  143.9610 C   0  0  0  0  0  2  0  0  0  0  0  0
  184.2000  180.2190  144.3110 C   0  0  0  0  0  1  0  0  0  0  0  0
  184.3450  178.6980  144.2870 C   0  0  2  0  0  0  0  0  0  0  0  0
  185.1580  178.7000  140.8690 C   0  0  0  0  0  2  0  0  0  0  0  0
  186.2050  179.4250  142.8490 O   0  0  0  0  0  0  0  0  0  0  0  0
  186.3480  179.4040  141.4530 C   0  0  0  0  0  2  0  0  0  0  0  0
  185.4330  178.2960  143.2120 C   0  0  2  0  0  0  0  0  0  0  0  0
  184.7760  177.7470  141.9490 C   0  0  0  0  0  2  0  0  0  0  0  0
  186.3610  177.1810  143.7330 C   0  0  0  0  0  2  0  0  0  0  0  0
  188.3640  177.5720  145.1290 C   0  0  0  0  0  1  0  0  0  0  0  0
  188.6110  176.4860  142.9290 C   0  0  0  0  0  1  0  0  0  0  0  0
  187.8430  177.5320  143.7100 C   0  0  0  0  0  3  0  0  0  0  0  0
  184.7450  178.3410  145.6020 O   0  0  0  0  0  0  0  0  0  0  0  0
  186.1220  178.8500  147.4790 C   0  0  0  0  0  1  0  0  0  0  0  0
  185.4850  179.3710  146.2070 C   0  0  0  0  0  2  0  0  0  0  0  0
  178.9320  177.7690  138.6360 O   0  0  0  0  0  1  0  0  0  0  0  0
  180.0500  179.1740  137.2240 O   0  0  0  0  0  0  0  0  0  0  0  0
  179.9430  178.4870  138.4220 C   0  0  0  0  0  0  0  0  0  0  0  0
  1 31  1  0  0  0  0
  2  3  1  0  0  0  0
  2  1  2  0  0  0  0
  4  5  1  6  0  0  0
  4  3  1  0  0  0  0
  8  7  1  6  0  0  0
  8 12  1  0  0  0  0
  9 11  2  0  0  0  0
  9  7  1  0  0  0  0
 10  4  1  1  0  0  0
 10 12  1  0  0  0  0
 11 10  1  0  0  0  0
 12  6  1  6  0  0  0
 13  8  1  6  0  0  0
 14 23  1  1  0  0  0
 14 15  1  0  0  0  0
 14 13  1  0  0  0  0
 15 17  1  1  0  0  0
 15 13  1  0  0  0  0
 17 18  2  1  0  0  0
 17 16  1  0  0  0  0
 19 17  1  0  0  0  0
 21 19  1  1  0  0  0
 21 20  1  0  0  0  0
 22 21  1  0  0  0  0
 22 20  1  0  0  0  0
 24 23  1  6  0  0  0
 24 27  1  0  0  0  0
 25 24  1  0  0  0  0
 26 25  1  0  0  0  0
 27 28  1  0  0  0  0
 28 30  2  0  0  0  0
 28 29  1  0  0  0  0
 31 32  1  0  0  0  0
 32 57  1  6  0  0  0
 32 37  1  0  0  0  0
 34 35  1  0  0  0  0
 35 33  1  0  0  0  0
 36 33  1  0  0  0  0
 36 39  1  6  0  0  0
 37 34  1  0  0  0  0
 37 38  2  0  0  0  0
 38 36  1  0  0  0  0
 39 40  1  0  0  0  0
 40 42  1  0  0  0  0
 42 41  1  6  0  0  0
 42 52  1  0  0  0  0
 43 45  1  0  0  0  0
 43 47  1  0  0  0  0
 44 46  1  0  0  0  0
 45 44  1  0  0  0  0
 46 48  1  1  0  0  0
 46 42  1  0  0  0  0
 47 46  1  0  0  0  0
 50 51  1  0  0  0  0
 51 48  1  0  0  0  0
 51 49  1  0  0  0  0
 52 54  1  0  0  0  0
 54 53  1  0  0  0  0
 56 57  2  0  0  0  0
 57 55  1  0  0  0  0
M  END
>  <MODEL>
2

>  <REMARK>
 VINA RESULT:      -5.1      3.107      6.930
  Name = 
  24 active torsions:
  status: ('A' for Active; 'I' for Inactive)
    1  A    between atoms: C_1  and  C_29
    2  A    between atoms: C_5  and  C_18
    3  A    between atoms: C_5  and  C_34
    4  A    between atoms: C_7  and  C_15
    5  A    between atoms: C_7  and  C_27
    6  A    between atoms: S_11  and  C_13
    7  A    between atoms: S_11  and  C_52
    8  A    between atoms: C_15  and  C_55
    9  A    between atoms: C_16  and  O_38
   10  A    between atoms: P_17  and  C_44
   11  A    between atoms: P_17  and  C_57
   12  A    between atoms: C_18  and  C_41
   13  A    between atoms: O_19  and  C_30
   14  A    between atoms: C_23  and  C_25
   15  A    between atoms: C_28  and  C_39
   16  A    between atoms: C_29  and  C_30
   17  A    between atoms: C_30  and  C_39
   18  A    between atoms: C_31  and  C_52
   19  A    between atoms: C_37  and  C_42
   20  A    between atoms: O_38  and  C_55
   21  A    between atoms: C_42  and  C_54
   22  A    between atoms: C_46  and  C_57
   23  A    between atoms: C_48  and  C_52
   24  A    between atoms: C_54  and  C_55
                            x       y       z     vdW  Elec       q    Type
                         _______ _______ _______ _____ _____    ______ ____

>  <TORSDO>
F 24

$$$$
=
 OpenBabel10222416323D

 57 61  0  0  1  0  0  0  0  0999 V2000
  181.8360  178.9060  142.1850 C   0  0  0  0  0  3  0  0  0  0  0  0
  182.4990  178.9750  143.3460 C   0  0  0  0  0  3  0  0  0  0  0  0
  183.9940  178.9810  143.4450 C   0  0  0  0  0  2  0  0  0  0  0  0
  184.4760  179.3080  144.8510 C   0  0  1  0  0  3  0  0  0  0  0  0
  183.4560  179.0250  145.7610 O   0  0  0  0  0  1  0  0  0  0  0  0
  186.0780  179.4920  147.2850 F   0  0  0  0  0  0  0  0  0  0  0  0
  187.5230  176.8540  146.6980 C   0  0  0  0  0  2  0  0  0  0  0  0
  187.9080  178.2710  146.3430 C   0  0  2  0  0  3  0  0  0  0  0  0
  186.3150  176.3600  146.4110 C   0  0  0  0  0  3  0  0  0  0  0  0
  185.7010  178.4540  145.1600 C   0  0  2  0  0  3  0  0  0  0  0  0
  185.3310  177.1670  145.7450 N   0  0  0  0  0  0  0  0  0  0  0  0
  186.6880  179.1780  146.0830 C   0  0  1  0  0  3  0  0  0  0  0  0
  189.0450  178.3130  145.2980 C   0  0  2  0  0  3  0  0  0  0  0  0
  188.6330  177.7880  143.9290 C   0  0  2  0  0  3  0  0  0  0  0  0
  189.4800  176.9180  144.8700 C   0  0  1  0  0  3  0  0  0  0  0  0
  191.5410  176.4350  142.9220 O   0  0  0  0  0  0  0  0  0  0  0  0
  191.2830  176.8740  144.5340 P   0  0  1  0  0  0  0  0  0  0  0  0
  191.9220  178.2210  144.8010 O   0  0  0  0  0  1  0  0  0  0  0  0
  192.0420  175.6300  145.6190 C   0  0  0  0  0  2  0  0  0  0  0  0
  192.0080  175.3640  148.0510 C   0  0  0  0  0  2  0  0  0  0  0  0
  192.3940  176.2620  146.9500 C   0  0  2  0  0  3  0  0  0  0  0  0
  191.2170  176.4630  147.6870 O   0  0  0  0  0  0  0  0  0  0  0  0
  189.3880  178.5300  142.8340 C   0  0  0  0  0  2  0  0  0  0  0  0
  188.6720  178.3830  141.4970 C   0  0  2  0  0  3  0  0  0  0  0  0
  187.3750  177.8880  141.6820 O   0  0  0  0  0  0  0  0  0  0  0  0
  186.5390  178.8500  141.1060 C   0  0  0  0  0  1  0  0  0  0  0  0
  189.4620  177.4740  140.5540 C   0  0  0  0  0  2  0  0  0  0  0  0
  189.2050  177.7740  139.1150 C   0  0  0  0  0  0  0  0  0  0  0  0
  189.0310  178.9600  138.7390 O   0  0  0  0  0  1  0  0  0  0  0  0
  189.1150  176.7370  138.1980 O   0  0  0  0  0  0  0  0  0  0  0  0
  182.6530  178.8950  140.5800 S   0  0  0  0  0  0  0  0  0  0  0  0
  181.1600  179.2810  139.5850 C   0  0  2  0  0  3  0  0  0  0  0  0
  181.1350  177.7880  135.4940 C   0  0  0  0  0  2  0  0  0  0  0  0
  179.7890  178.4960  137.4940 C   0  0  0  0  0  2  0  0  0  0  0  0
  179.8540  177.5530  136.2930 C   0  0  0  0  0  2  0  0  0  0  0  0
  182.3540  177.5030  136.3770 C   0  0  1  0  0  3  0  0  0  0  0  0
  181.1080  178.6520  138.2230 C   0  0  0  0  0  0  0  0  0  0  0  0
  182.2710  178.2590  137.6750 C   0  0  0  0  0  3  0  0  0  0  0  0
  182.4670  176.0160  136.6920 C   0  0  0  0  0  2  0  0  0  0  0  0
  183.1410  175.2530  135.5580 C   0  0  0  0  0  2  0  0  0  0  0  0
  183.9870  174.1160  137.5810 C   0  0  0  0  0  1  0  0  0  0  0  0
  184.0930  174.1330  136.0560 C   0  0  2  0  0  0  0  0  0  0  0  0
  187.4460  173.3750  136.7810 C   0  0  0  0  0  2  0  0  0  0  0  0
  186.0780  173.2990  134.8660 O   0  0  0  0  0  0  0  0  0  0  0  0
  187.3640  172.9880  135.3330 C   0  0  0  0  0  2  0  0  0  0  0  0
  185.5970  174.3820  135.6410 C   0  0  2  0  0  0  0  0  0  0  0  0
  186.4900  174.5150  136.8710 C   0  0  0  0  0  2  0  0  0  0  0  0
  185.7590  175.6940  134.8500 C   0  0  0  0  0  2  0  0  0  0  0  0
  186.8260  177.9120  134.6020 C   0  0  0  0  0  1  0  0  0  0  0  0
  185.9110  177.2430  136.7920 C   0  0  0  0  0  1  0  0  0  0  0  0
  186.6120  176.7490  135.5440 C   0  0  0  0  0  3  0  0  0  0  0  0
  183.6330  172.8560  135.6370 O   0  0  0  0  0  0  0  0  0  0  0  0
  183.9080  170.6450  136.4830 C   0  0  0  0  0  1  0  0  0  0  0  0
  183.3500  172.0300  136.7380 C   0  0  0  0  0  2  0  0  0  0  0  0
  179.8490  181.1580  140.3080 O   0  0  0  0  0  1  0  0  0  0  0  0
  181.4850  181.6190  138.7820 O   0  0  0  0  0  0  0  0  0  0  0  0
  180.7940  180.7340  139.5940 C   0  0  0  0  0  0  0  0  0  0  0  0
  1  2  2  0  0  0  0
  2  3  1  0  0  0  0
  3  4  1  0  0  0  0
  4  5  1  1  0  0  0
  8  7  1  6  0  0  0
  9  7  1  0  0  0  0
 10  4  1  1  0  0  0
 10 11  1  0  0  0  0
 10 12  1  0  0  0  0
 11  9  2  0  0  0  0
 12  8  1  0  0  0  0
 12  6  1  1  0  0  0
 13  8  1  1  0  0  0
 14 23  1  6  0  0  0
 14 15  1  0  0  0  0
 14 13  1  0  0  0  0
 15 17  1  6  0  0  0
 15 13  1  0  0  0  0
 17 16  2  6  0  0  0
 17 18  1  0  0  0  0
 17 19  1  0  0  0  0
 21 19  1  6  0  0  0
 21 22  1  0  0  0  0
 21 20  1  0  0  0  0
 22 20  1  0  0  0  0
 24 27  1  6  0  0  0
 24 25  1  0  0  0  0
 24 23  1  0  0  0  0
 26 25  1  0  0  0  0
 28 27  1  0  0  0  0
 29 28  1  0  0  0  0
 30 28  2  0  0  0  0
 31  1  1  0  0  0  0
 32 57  1  6  0  0  0
 32 31  1  0  0  0  0
 33 35  1  0  0  0  0
 33 36  1  0  0  0  0
 34 37  1  0  0  0  0
 35 34  1  0  0  0  0
 36 39  1  1  0  0  0
 36 38  1  0  0  0  0
 37 32  1  0  0  0  0
 38 37  2  0  0  0  0
 40 42  1  0  0  0  0
 40 39  1  0  0  0  0
 42 41  1  1  0  0  0
 43 47  1  0  0  0  0
 44 45  1  0  0  0  0
 44 46  1  0  0  0  0
 45 43  1  0  0  0  0
 46 48  1  6  0  0  0
 46 42  1  0  0  0  0
 46 47  1  0  0  0  0
 48 51  1  0  0  0  0
 49 51  1  0  0  0  0
 51 50  1  0  0  0  0
 52 42  1  0  0  0  0
 52 54  1  0  0  0  0
 53 54  1  0  0  0  0
 56 57  2  0  0  0  0
 57 55  1  0  0  0  0
M  END
>  <MODEL>
3

>  <REMARK>
 VINA RESULT:      -4.6      3.205     10.101
  Name = 
  24 active torsions:
  status: ('A' for Active; 'I' for Inactive)
    1  A    between atoms: C_1  and  C_29
    2  A    between atoms: C_5  and  C_18
    3  A    between atoms: C_5  and  C_34
    4  A    between atoms: C_7  and  C_15
    5  A    between atoms: C_7  and  C_27
    6  A    between atoms: S_11  and  C_13
    7  A    between atoms: S_11  and  C_52
    8  A    between atoms: C_15  and  C_55
    9  A    between atoms: C_16  and  O_38
   10  A    between atoms: P_17  and  C_44
   11  A    between atoms: P_17  and  C_57
   12  A    between atoms: C_18  and  C_41
   13  A    between atoms: O_19  and  C_30
   14  A    between atoms: C_23  and  C_25
   15  A    between atoms: C_28  and  C_39
   16  A    between atoms: C_29  and  C_30
   17  A    between atoms: C_30  and  C_39
   18  A    between atoms: C_31  and  C_52
   19  A    between atoms: C_37  and  C_42
   20  A    between atoms: O_38  and  C_55
   21  A    between atoms: C_42  and  C_54
   22  A    between atoms: C_46  and  C_57
   23  A    between atoms: C_48  and  C_52
   24  A    between atoms: C_54  and  C_55
                            x       y       z     vdW  Elec       q    Type
                         _______ _______ _______ _____ _____    ______ ____

>  <TORSDO>
F 24

$$$$
=
 OpenBabel10222416323D

 57 61  0  0  1  0  0  0  0  0999 V2000
  182.3110  178.9840  142.6540 C   0  0  0  0  0  3  0  0  0  0  0  0
  182.9280  179.1590  143.8290 C   0  0  0  0  0  3  0  0  0  0  0  0
  184.2240  178.5000  144.1870 C   0  0  0  0  0  2  0  0  0  0  0  0
  184.7430  178.9510  145.5450 C   0  0  1  0  0  3  0  0  0  0  0  0
  183.8030  178.6240  146.5240 O   0  0  0  0  0  1  0  0  0  0  0  0
  186.7090  179.7860  147.5360 F   0  0  0  0  0  0  0  0  0  0  0  0
  188.2220  177.1280  147.3580 C   0  0  0  0  0  2  0  0  0  0  0  0
  188.4410  178.4200  146.6070 C   0  0  2  0  0  3  0  0  0  0  0  0
  187.0220  176.5430  147.4200 C   0  0  0  0  0  3  0  0  0  0  0  0
  186.0600  178.2370  145.8290 C   0  0  2  0  0  3  0  0  0  0  0  0
  185.8860  177.1280  146.7650 N   0  0  0  0  0  0  0  0  0  0  0  0
  187.1320  179.1970  146.3560 C   0  0  1  0  0  3  0  0  0  0  0  0
  189.3820  178.2300  145.3970 C   0  0  2  0  0  3  0  0  0  0  0  0
  188.6800  177.6890  144.1590 C   0  0  2  0  0  3  0  0  0  0  0  0
  189.5460  176.7620  145.0260 C   0  0  1  0  0  3  0  0  0  0  0  0
  191.1660  175.4480  143.0440 O   0  0  0  0  0  0  0  0  0  0  0  0
  191.2440  176.4320  144.4170 P   0  0  1  0  0  0  0  0  0  0  0  0
  191.9640  177.7200  144.0760 O   0  0  0  0  0  1  0  0  0  0  0  0
  192.1650  175.5630  145.7190 C   0  0  0  0  0  2  0  0  0  0  0  0
  192.7530  175.6140  148.0940 C   0  0  0  0  0  2  0  0  0  0  0  0
  191.9110  176.2290  147.0550 C   0  0  2  0  0  3  0  0  0  0  0  0
  191.3990  175.2780  147.9510 O   0  0  0  0  0  0  0  0  0  0  0  0
  189.3370  178.2440  142.9010 C   0  0  0  0  0  2  0  0  0  0  0  0
  188.7140  177.6240  141.6550 C   0  0  2  0  0  3  0  0  0  0  0  0
  189.6250  176.7700  141.0200 O   0  0  0  0  0  0  0  0  0  0  0  0
  189.7220  177.2590  139.7130 C   0  0  0  0  0  1  0  0  0  0  0  0
  188.2360  178.7090  140.6890 C   0  0  0  0  0  2  0  0  0  0  0  0
  186.7500  178.8590  140.6830 C   0  0  0  0  0  0  0  0  0  0  0  0
  186.1540  179.2790  141.7060 O   0  0  0  0  0  1  0  0  0  0  0  0
  186.0230  178.4940  139.5600 O   0  0  0  0  0  0  0  0  0  0  0  0
  182.9980  177.9970  141.3130 S   0  0  0  0  0  0  0  0  0  0  0  0
  181.4110  177.6950  140.4420 C   0  0  2  0  0  3  0  0  0  0  0  0
  181.8110  176.8530  136.1890 C   0  0  0  0  0  2  0  0  0  0  0  0
  180.2930  176.9660  138.1880 C   0  0  0  0  0  2  0  0  0  0  0  0
  180.5880  176.2450  136.8730 C   0  0  0  0  0  2  0  0  0  0  0  0
  183.0390  176.6950  137.0910 C   0  0  1  0  0  3  0  0  0  0  0  0
  181.5300  177.2780  139.0050 C   0  0  0  0  0  0  0  0  0  0  0  0
  182.7630  177.2170  138.4750 C   0  0  0  0  0  3  0  0  0  0  0  0
  183.4540  175.2330  137.2020 C   0  0  0  0  0  2  0  0  0  0  0  0
  184.2000  174.7670  135.9570 C   0  0  0  0  0  2  0  0  0  0  0  0
  185.1900  173.3940  137.7540 C   0  0  0  0  0  1  0  0  0  0  0  0
  185.2500  173.6640  136.2520 C   0  0  2  0  0  0  0  0  0  0  0  0
  187.4650  176.3720  135.9310 C   0  0  0  0  0  2  0  0  0  0  0  0
  187.5020  174.2860  137.0220 O   0  0  0  0  0  0  0  0  0  0  0  0
  188.2380  175.4680  136.8460 C   0  0  0  0  0  2  0  0  0  0  0  0
  186.7180  174.0990  135.8590 C   0  0  2  0  0  0  0  0  0  0  0  0
  186.7090  175.4110  135.0790 C   0  0  0  0  0  2  0  0  0  0  0  0
  187.3930  173.0600  134.9420 C   0  0  0  0  0  2  0  0  0  0  0  0
  187.9110  170.6820  135.3820 C   0  0  0  0  0  1  0  0  0  0  0  0
  189.7540  172.3040  135.1580 C   0  0  0  0  0  1  0  0  0  0  0  0
  188.3390  172.1050  135.6600 C   0  0  0  0  0  3  0  0  0  0  0  0
  184.8810  172.4370  135.6370 O   0  0  0  0  0  0  0  0  0  0  0  0
  183.3540  170.6450  136.0090 C   0  0  0  0  0  1  0  0  0  0  0  0
  183.5250  172.1430  135.8640 C   0  0  0  0  0  2  0  0  0  0  0  0
  180.5680  179.9370  140.2710 O   0  0  0  0  0  0  0  0  0  0  0  0
  179.2340  178.4560  141.3890 O   0  0  0  0  0  1  0  0  0  0  0  0
  180.3860  178.7610  140.6810 C   0  0  0  0  0  0  0  0  0  0  0  0
  1  2  2  0  0  0  0
  2  3  1  0  0  0  0
  3  4  1  0  0  0  0
  4  5  1  1  0  0  0
  7  9  1  0  0  0  0
  8  7  1  6  0  0  0
 10  4  1  1  0  0  0
 10 12  1  0  0  0  0
 10 11  1  0  0  0  0
 11  9  2  0  0  0  0
 12  8  1  0  0  0  0
 12  6  1  1  0  0  0
 13  8  1  1  0  0  0
 14 23  1  6  0  0  0
 14 15  1  0  0  0  0
 14 13  1  0  0  0  0
 15 17  1  6  0  0  0
 15 13  1  0  0  0  0
 17 16  2  6  0  0  0
 17 19  1  0  0  0  0
 18 17  1  0  0  0  0
 21 19  1  6  0  0  0
 21 22  1  0  0  0  0
 21 20  1  0  0  0  0
 22 20  1  0  0  0  0
 24 27  1  6  0  0  0
 24 23  1  0  0  0  0
 25 24  1  0  0  0  0
 26 25  1  0  0  0  0
 28 27  1  0  0  0  0
 28 29  1  0  0  0  0
 30 28  2  0  0  0  0
 31  1  1  0  0  0  0
 32 57  1  6  0  0  0
 32 31  1  0  0  0  0
 33 35  1  0  0  0  0
 33 36  1  0  0  0  0
 34 37  1  0  0  0  0
 35 34  1  0  0  0  0
 36 39  1  1  0  0  0
 36 38  1  0  0  0  0
 37 32  1  0  0  0  0
 38 37  2  0  0  0  0
 40 42  1  0  0  0  0
 40 39  1  0  0  0  0
 42 41  1  1  0  0  0
 43 45  1  0  0  0  0
 45 44  1  0  0  0  0
 46 48  1  6  0  0  0
 46 42  1  0  0  0  0
 46 44  1  0  0  0  0
 47 46  1  0  0  0  0
 47 43  1  0  0  0  0
 48 51  1  0  0  0  0
 49 51  1  0  0  0  0
 50 51  1  0  0  0  0
 52 54  1  0  0  0  0
 52 42  1  0  0  0  0
 54 53  1  0  0  0  0
 55 57  2  0  0  0  0
 57 56  1  0  0  0  0
M  END
>  <MODEL>
4

>  <REMARK>
 VINA RESULT:      -4.5      3.307     10.119
  Name = 
  24 active torsions:
  status: ('A' for Active; 'I' for Inactive)
    1  A    between atoms: C_1  and  C_29
    2  A    between atoms: C_5  and  C_18
    3  A    between atoms: C_5  and  C_34
    4  A    between atoms: C_7  and  C_15
    5  A    between atoms: C_7  and  C_27
    6  A    between atoms: S_11  and  C_13
    7  A    between atoms: S_11  and  C_52
    8  A    between atoms: C_15  and  C_55
    9  A    between atoms: C_16  and  O_38
   10  A    between atoms: P_17  and  C_44
   11  A    between atoms: P_17  and  C_57
   12  A    between atoms: C_18  and  C_41
   13  A    between atoms: O_19  and  C_30
   14  A    between atoms: C_23  and  C_25
   15  A    between atoms: C_28  and  C_39
   16  A    between atoms: C_29  and  C_30
   17  A    between atoms: C_30  and  C_39
   18  A    between atoms: C_31  and  C_52
   19  A    between atoms: C_37  and  C_42
   20  A    between atoms: O_38  and  C_55
   21  A    between atoms: C_42  and  C_54
   22  A    between atoms: C_46  and  C_57
   23  A    between atoms: C_48  and  C_52
   24  A    between atoms: C_54  and  C_55
                            x       y       z     vdW  Elec       q    Type
                         _______ _______ _______ _____ _____    ______ ____

>  <TORSDO>
F 24

$$$$
=
 OpenBabel10222416323D

 57 61  0  0  1  0  0  0  0  0999 V2000
  188.1860  177.3130  138.3430 C   0  0  0  0  0  3  0  0  0  0  0  0
  188.7110  177.3490  139.5730 C   0  0  0  0  0  3  0  0  0  0  0  0
  190.1250  177.7540  139.8570 C   0  0  0  0  0  2  0  0  0  0  0  0
  190.7810  176.8610  140.9000 C   0  0  1  0  0  3  0  0  0  0  0  0
  192.1670  176.9930  140.8080 O   0  0  0  0  0  1  0  0  0  0  0  0
  191.2660  175.3900  143.3760 F   0  0  0  0  0  0  0  0  0  0  0  0
  190.4030  177.7620  145.1150 C   0  0  0  0  0  2  0  0  0  0  0  0
  189.5940  176.6000  144.5890 C   0  0  2  0  0  3  0  0  0  0  0  0
  191.1630  178.5120  144.3110 C   0  0  0  0  0  3  0  0  0  0  0  0
  190.3070  177.2940  142.2840 C   0  0  2  0  0  3  0  0  0  0  0  0
  191.2350  178.2380  142.9040 N   0  0  0  0  0  0  0  0  0  0  0  0
  190.0870  176.0980  143.2160 C   0  0  1  0  0  3  0  0  0  0  0  0
  188.0760  176.8400  144.7410 C   0  0  2  0  0  3  0  0  0  0  0  0
  187.5140  177.8360  143.7350 C   0  0  2  0  0  3  0  0  0  0  0  0
  187.7660  178.2620  145.1890 C   0  0  1  0  0  3  0  0  0  0  0  0
  185.2320  179.4940  145.7750 O   0  0  0  0  0  0  0  0  0  0  0  0
  186.3000  178.2890  146.2930 P   0  0  1  0  0  0  0  0  0  0  0  0
  185.5910  176.9510  146.2940 O   0  0  0  0  0  1  0  0  0  0  0  0
  186.8560  178.6710  147.9800 C   0  0  0  0  0  2  0  0  0  0  0  0
  188.8000  177.2360  148.3630 C   0  0  0  0  0  2  0  0  0  0  0  0
  188.3670  178.6070  148.0450 C   0  0  2  0  0  3  0  0  0  0  0  0
  188.7540  178.2380  149.3430 O   0  0  0  0  0  0  0  0  0  0  0  0
  186.0800  177.4670  143.3780 C   0  0  0  0  0  2  0  0  0  0  0  0
  185.6830  178.0920  142.0450 C   0  0  2  0  0  3  0  0  0  0  0  0
  186.8090  178.5930  141.3790 O   0  0  0  0  0  0  0  0  0  0  0  0
  186.8440  179.9520  141.7060 C   0  0  0  0  0  1  0  0  0  0  0  0
  184.6480  179.2000  142.2520 C   0  0  0  0  0  2  0  0  0  0  0  0
  183.3310  178.6750  142.7220 C   0  0  0  0  0  0  0  0  0  0  0  0
  183.1020  178.5540  143.9510 O   0  0  0  0  0  1  0  0  0  0  0  0
  182.3750  178.2810  141.7970 O   0  0  0  0  0  0  0  0  0  0  0  0
  189.0850  177.8250  136.8680 S   0  0  0  0  0  0  0  0  0  0  0  0
  189.5930  176.1430  136.3390 C   0  0  2  0  0  3  0  0  0  0  0  0
  186.5930  173.0020  136.0290 C   0  0  0  0  0  2  0  0  0  0  0  0
  188.1840  174.5310  134.8280 C   0  0  0  0  0  2  0  0  0  0  0  0
  186.8370  173.8140  134.7590 C   0  0  0  0  0  2  0  0  0  0  0  0
  186.5590  173.9390  137.2410 C   0  0  1  0  0  3  0  0  0  0  0  0
  188.4790  175.1500  136.1800 C   0  0  0  0  0  0  0  0  0  0  0  0
  187.7780  174.8200  137.2780 C   0  0  0  0  0  3  0  0  0  0  0  0
  185.3220  174.8290  137.2130 C   0  0  0  0  0  2  0  0  0  0  0  0
  184.0530  174.0310  137.4870 C   0  0  0  0  0  2  0  0  0  0  0  0
  183.2590  175.1010  135.4080 C   0  0  0  0  0  1  0  0  0  0  0  0
  182.8000  174.6150  136.7820 C   0  0  2  0  0  0  0  0  0  0  0  0
  180.0000  175.7120  138.5990 C   0  0  0  0  0  2  0  0  0  0  0  0
  182.3240  175.6350  138.9700 O   0  0  0  0  0  0  0  0  0  0  0  0
  181.1050  175.9660  139.5820 C   0  0  0  0  0  2  0  0  0  0  0  0
  182.1610  175.8230  137.5760 C   0  0  2  0  0  0  0  0  0  0  0  0
  180.6680  175.9400  137.2870 C   0  0  0  0  0  2  0  0  0  0  0  0
  182.7860  177.1700  137.1610 C   0  0  0  0  0  2  0  0  0  0  0  0
  184.8290  178.3220  137.9470 C   0  0  0  0  0  1  0  0  0  0  0  0
  182.6160  179.2280  138.5490 C   0  0  0  0  0  1  0  0  0  0  0  0
  183.4060  177.9590  138.3070 C   0  0  0  0  0  3  0  0  0  0  0  0
  181.8470  173.5950  136.5170 O   0  0  0  0  0  0  0  0  0  0  0  0
  181.6800  171.7070  135.0720 C   0  0  0  0  0  1  0  0  0  0  0  0
  182.4770  172.3900  136.1640 C   0  0  0  0  0  2  0  0  0  0  0  0
  191.7740  176.3390  137.3250 O   0  0  0  0  0  0  0  0  0  0  0  0
  190.7820  174.2880  137.5060 O   0  0  0  0  0  1  0  0  0  0  0  0
  190.7760  175.6100  137.0910 C   0  0  0  0  0  0  0  0  0  0  0  0
  1  2  2  0  0  0  0
  2  3  1  0  0  0  0
  3  4  1  0  0  0  0
  4  5  1  1  0  0  0
  8  7  1  6  0  0  0
  9  7  1  0  0  0  0
 10  4  1  6  0  0  0
 10 11  1  0  0  0  0
 10 12  1  0  0  0  0
 11  9  2  0  0  0  0
 12  6  1  1  0  0  0
 12  8  1  0  0  0  0
 13  8  1  6  0  0  0
 13 15  1  0  0  0  0
 14 23  1  1  0  0  0
 14 13  1  0  0  0  0
 14 15  1  0  0  0  0
 15 17  1  1  0  0  0
 17 16  2  6  0  0  0
 17 18  1  0  0  0  0
 17 19  1  0  0  0  0
 20 22  1  0  0  0  0
 21 19  1  1  0  0  0
 21 20  1  0  0  0  0
 21 22  1  0  0  0  0
 24 27  1  1  0  0  0
 24 23  1  0  0  0  0
 25 26  1  0  0  0  0
 25 24  1  0  0  0  0
 27 28  1  0  0  0  0
 28 29  1  0  0  0  0
 30 28  2  0  0  0  0
 31  1  1  0  0  0  0
 32 31  1  1  0  0  0
 32 57  1  0  0  0  0
 33 36  1  0  0  0  0
 34 37  1  0  0  0  0
 35 34  1  0  0  0  0
 35 33  1  0  0  0  0
 36 39  1  6  0  0  0
 36 38  1  0  0  0  0
 37 32  1  0  0  0  0
 37 38  2  0  0  0  0
 39 40  1  0  0  0  0
 42 41  1  6  0  0  0
 42 40  1  0  0  0  0
 42 46  1  0  0  0  0
 43 45  1  0  0  0  0
 44 45  1  0  0  0  0
 46 48  1  6  0  0  0
 46 44  1  0  0  0  0
 47 46  1  0  0  0  0
 47 43  1  0  0  0  0
 48 51  1  0  0  0  0
 49 51  1  0  0  0  0
 51 50  1  0  0  0  0
 52 42  1  0  0  0  0
 53 54  1  0  0  0  0
 54 52  1  0  0  0  0
 57 55  2  0  0  0  0
 57 56  1  0  0  0  0
M  END
>  <MODEL>
5

>  <REMARK>
 VINA RESULT:      -4.4      3.009     10.085
  Name = 
  24 active torsions:
  status: ('A' for Active; 'I' for Inactive)
    1  A    between atoms: C_1  and  C_29
    2  A    between atoms: C_5  and  C_18
    3  A    between atoms: C_5  and  C_34
    4  A    between atoms: C_7  and  C_15
    5  A    between atoms: C_7  and  C_27
    6  A    between atoms: S_11  and  C_13
    7  A    between atoms: S_11  and  C_52
    8  A    between atoms: C_15  and  C_55
    9  A    between atoms: C_16  and  O_38
   10  A    between atoms: P_17  and  C_44
   11  A    between atoms: P_17  and  C_57
   12  A    between atoms: C_18  and  C_41
   13  A    between atoms: O_19  and  C_30
   14  A    between atoms: C_23  and  C_25
   15  A    between atoms: C_28  and  C_39
   16  A    between atoms: C_29  and  C_30
   17  A    between atoms: C_30  and  C_39
   18  A    between atoms: C_31  and  C_52
   19  A    between atoms: C_37  and  C_42
   20  A    between atoms: O_38  and  C_55
   21  A    between atoms: C_42  and  C_54
   22  A    between atoms: C_46  and  C_57
   23  A    between atoms: C_48  and  C_52
   24  A    between atoms: C_54  and  C_55
                            x       y       z     vdW  Elec       q    Type
                         _______ _______ _______ _____ _____    ______ ____

>  <TORSDO>
F 24

$$$$
=
 OpenBabel10222416323D

 57 61  0  0  1  0  0  0  0  0999 V2000
  189.5170  177.8440  143.0680 C   0  0  0  0  0  3  0  0  0  0  0  0
  190.3700  177.1310  142.3220 C   0  0  0  0  0  3  0  0  0  0  0  0
  190.0970  176.7420  140.9010 C   0  0  0  0  0  2  0  0  0  0  0  0
  190.6720  177.7450  139.9110 C   0  0  1  0  0  3  0  0  0  0  0  0
  192.0400  177.5110  139.7650 O   0  0  0  0  0  1  0  0  0  0  0  0
  187.8290  177.1710  139.5710 F   0  0  0  0  0  0  0  0  0  0  0  0
  187.9160  177.8140  136.5760 C   0  0  0  0  0  3  0  0  0  0  0  0
  188.0920  176.4950  137.2900 C   0  0  2  0  0  3  0  0  0  0  0  0
  188.6140  178.9000  136.9210 C   0  0  0  0  0  3  0  0  0  0  0  0
  189.9680  177.5680  138.5700 C   0  0  2  0  0  3  0  0  0  0  0  0
  189.5680  178.8500  137.9930 N   0  0  0  0  0  2  0  0  0  0  0  0
  188.7480  176.6460  138.6780 C   0  0  1  0  0  3  0  0  0  0  0  0
  188.6740  175.4090  136.3580 C   0  0  2  0  0  3  0  0  0  0  0  0
  188.3050  173.9900  136.7710 C   0  0  2  0  0  3  0  0  0  0  0  0
  189.7070  174.5430  137.0660 C   0  0  1  0  0  3  0  0  0  0  0  0
  190.9060  172.3880  135.5840 O   0  0  0  0  0  1  0  0  0  0  0  0
  191.0390  174.0420  135.9080 P   0  0  1  0  0  0  0  0  0  0  0  0
  190.9570  174.8200  134.6110 O   0  0  0  0  0  0  0  0  0  0  0  0
  192.6420  174.3670  136.6970 C   0  0  0  0  0  2  0  0  0  0  0  0
  194.1700  176.2050  136.1720 C   0  0  0  0  0  2  0  0  0  0  0  0
  192.8750  175.8610  136.7820 C   0  0  2  0  0  3  0  0  0  0  0  0
  194.0170  176.1020  137.5620 O   0  0  0  0  0  0  0  0  0  0  0  0
  188.1740  173.1040  135.5380 C   0  0  0  0  0  2  0  0  0  0  0  0
  187.0470  172.0950  135.7230 C   0  0  2  0  0  3  0  0  0  0  0  0
  187.1620  171.0500  134.7970 O   0  0  0  0  0  0  0  0  0  0  0  0
  186.1360  170.1610  135.1320 C   0  0  0  0  0  1  0  0  0  0  0  0
  185.6830  172.7760  135.5950 C   0  0  0  0  0  2  0  0  0  0  0  0
  184.9430  172.8300  136.8910 C   0  0  0  0  0  0  0  0  0  0  0  0
  185.5450  173.1440  137.9480 O   0  0  0  0  0  1  0  0  0  0  0  0
  183.5990  172.4910  136.9350 O   0  0  0  0  0  0  0  0  0  0  0  0
  187.9640  178.5030  142.4390 S   0  0  0  0  0  0  0  0  0  0  0  0
  186.8930  177.8060  143.7550 C   0  0  2  0  0  3  0  0  0  0  0  0
  183.0140  179.7760  143.9550 C   0  0  0  0  0  2  0  0  0  0  0  0
  184.7350  178.3720  145.1300 C   0  0  0  0  0  2  0  0  0  0  0  0
  183.2430  178.6560  144.9690 C   0  0  0  0  0  2  0  0  0  0  0  0
  183.5570  179.3510  142.5870 C   0  0  1  0  0  3  0  0  0  0  0  0
  185.5020  178.3660  143.8230 C   0  0  0  0  0  0  0  0  0  0  0  0
  184.9810  178.8750  142.6940 C   0  0  0  0  0  3  0  0  0  0  0  0
  182.7180  178.2290  141.9870 C   0  0  0  0  0  2  0  0  0  0  0  0
  182.5950  178.3690  140.4750 C   0  0  0  0  0  2  0  0  0  0  0  0
  180.2440  178.3380  141.2300 C   0  0  0  0  0  1  0  0  0  0  0  0
  181.1230  178.3930  139.9810 C   0  0  2  0  0  0  0  0  0  0  0  0
  179.8630  175.1150  139.8680 C   0  0  0  0  0  2  0  0  0  0  0  0
  179.3870  177.1420  138.7680 O   0  0  0  0  0  0  0  0  0  0  0  0
  178.9620  175.8100  138.8890 C   0  0  0  0  0  2  0  0  0  0  0  0
  180.7760  177.1690  139.0440 C   0  0  2  0  0  0  0  0  0  0  0  0
  181.1510  175.8480  139.7070 C   0  0  0  0  0  2  0  0  0  0  0  0
  181.5640  177.2250  137.7210 C   0  0  0  0  0  2  0  0  0  0  0  0
  181.0890  178.2880  135.5390 C   0  0  0  0  0  1  0  0  0  0  0  0
  180.9130  175.8380  135.7590 C   0  0  0  0  0  1  0  0  0  0  0  0
  180.7000  177.1600  136.4670 C   0  0  0  0  0  3  0  0  0  0  0  0
  180.8170  179.6350  139.3640 O   0  0  0  0  0  0  0  0  0  0  0  0
  179.3950  181.5380  139.5510 C   0  0  0  0  0  1  0  0  0  0  0  0
  180.2620  180.5390  140.2870 C   0  0  0  0  0  2  0  0  0  0  0  0
  188.3350  176.7440  145.3540 O   0  0  0  0  0  0  0  0  0  0  0  0
  187.3270  178.6720  146.0520 O   0  0  0  0  0  1  0  0  0  0  0  0
  187.5710  177.7070  145.0880 C   0  0  0  0  0  0  0  0  0  0  0  0
  2  1  2  0  0  0  0
  3  2  1  0  0  0  0
  4  5  1  6  0  0  0
  4  3  1  0  0  0  0
  7  9  2  0  0  0  0
  8  7  1  6  0  0  0
  8 12  1  0  0  0  0
  9 11  1  0  0  0  0
 10 12  1  0  0  0  0
 10  4  1  1  0  0  0
 11 10  1  0  0  0  0
 12  6  1  1  0  0  0
 13 14  1  0  0  0  0
 13 15  1  0  0  0  0
 13  8  1  1  0  0  0
 14 23  1  6  0  0  0
 14 15  1  0  0  0  0
 15 17  1  6  0  0  0
 16 17  1  0  0  0  0
 17 18  2  6  0  0  0
 17 19  1  0  0  0  0
 20 21  1  0  0  0  0
 20 22  1  0  0  0  0
 21 19  1  6  0  0  0
 21 22  1  0  0  0  0
 24 23  1  6  0  0  0
 25 26  1  0  0  0  0
 25 24  1  0  0  0  0
 27 24  1  0  0  0  0
 27 28  1  0  0  0  0
 28 30  2  0  0  0  0
 28 29  1  0  0  0  0
 31  1  1  0  0  0  0
 32 31  1  6  0  0  0
 32 37  1  0  0  0  0
 32 57  1  0  0  0  0
 33 35  1  0  0  0  0
 35 34  1  0  0  0  0
 36 39  1  1  0  0  0
 36 38  1  0  0  0  0
 36 33  1  0  0  0  0
 37 34  1  0  0  0  0
 38 37  2  0  0  0  0
 40 39  1  0  0  0  0
 42 40  1  0  0  0  0
 42 41  1  1  0  0  0
 44 45  1  0  0  0  0
 44 46  1  0  0  0  0
 45 43  1  0  0  0  0
 46 48  1  6  0  0  0
 46 47  1  0  0  0  0
 46 42  1  0  0  0  0
 47 43  1  0  0  0  0
 49 51  1  0  0  0  0
 50 51  1  0  0  0  0
 51 48  1  0  0  0  0
 52 42  1  0  0  0  0
 52 54  1  0  0  0  0
 53 54  1  0  0  0  0
 57 55  2  0  0  0  0
 57 56  1  0  0  0  0
M  END
>  <MODEL>
6

>  <REMARK>
 VINA RESULT:      -4.3      2.863      8.101
  Name = 
  24 active torsions:
  status: ('A' for Active; 'I' for Inactive)
    1  A    between atoms: C_1  and  C_29
    2  A    between atoms: C_5  and  C_18
    3  A    between atoms: C_5  and  C_34
    4  A    between atoms: C_7  and  C_15
    5  A    between atoms: C_7  and  C_27
    6  A    between atoms: S_11  and  C_13
    7  A    between atoms: S_11  and  C_52
    8  A    between atoms: C_15  and  C_55
    9  A    between atoms: C_16  and  O_38
   10  A    between atoms: P_17  and  C_44
   11  A    between atoms: P_17  and  C_57
   12  A    between atoms: C_18  and  C_41
   13  A    between atoms: O_19  and  C_30
   14  A    between atoms: C_23  and  C_25
   15  A    between atoms: C_28  and  C_39
   16  A    between atoms: C_29  and  C_30
   17  A    between atoms: C_30  and  C_39
   18  A    between atoms: C_31  and  C_52
   19  A    between atoms: C_37  and  C_42
   20  A    between atoms: O_38  and  C_55
   21  A    between atoms: C_42  and  C_54
   22  A    between atoms: C_46  and  C_57
   23  A    between atoms: C_48  and  C_52
   24  A    between atoms: C_54  and  C_55
                            x       y       z     vdW  Elec       q    Type
                         _______ _______ _______ _____ _____    ______ ____

>  <TORSDO>
F 24

$$$$
=
 OpenBabel10222416323D

 57 61  0  0  1  0  0  0  0  0999 V2000
  186.7980  179.1090  141.5940 C   0  0  0  0  0  3  0  0  0  0  0  0
  187.9650  178.6650  141.1110 C   0  0  0  0  0  3  0  0  0  0  0  0
  188.0730  177.6680  139.9980 C   0  0  0  0  0  2  0  0  0  0  0  0
  188.8350  178.2210  138.8030 C   0  0  1  0  0  3  0  0  0  0  0  0
  190.1970  177.9680  138.9720 O   0  0  0  0  0  1  0  0  0  0  0  0
  187.3690  179.5370  136.6470 F   0  0  0  0  0  0  0  0  0  0  0  0
  187.7480  177.1590  134.7520 C   0  0  0  0  0  3  0  0  0  0  0  0
  186.6170  177.4690  135.7040 C   0  0  2  0  0  3  0  0  0  0  0  0
  189.0240  177.1600  135.1500 C   0  0  0  0  0  3  0  0  0  0  0  0
  188.3310  177.5330  137.5380 C   0  0  2  0  0  3  0  0  0  0  0  0
  189.3680  177.4590  136.5110 N   0  0  0  0  0  2  0  0  0  0  0  0
  187.0850  178.2200  136.9680 C   0  0  1  0  0  3  0  0  0  0  0  0
  185.6940  176.2490  135.9190 C   0  0  2  0  0  3  0  0  0  0  0  0
  184.9320  176.2870  137.2380 C   0  0  2  0  0  3  0  0  0  0  0  0
  186.1600  175.3780  137.0780 C   0  0  1  0  0  3  0  0  0  0  0  0
  184.8640  172.9720  137.9760 O   0  0  0  0  0  1  0  0  0  0  0  0
  185.8220  173.6080  136.7370 P   0  0  1  0  0  0  0  0  0  0  0  0
  185.1150  173.4320  135.4090 O   0  0  0  0  0  0  0  0  0  0  0  0
  187.4040  172.7170  136.6910 C   0  0  0  0  0  2  0  0  0  0  0  0
  189.6030  172.6470  135.6180 C   0  0  0  0  0  2  0  0  0  0  0  0
  188.3650  173.4320  135.7650 C   0  0  2  0  0  3  0  0  0  0  0  0
  189.5320  173.7540  136.4750 O   0  0  0  0  0  0  0  0  0  0  0  0
  183.5730  175.6200  137.0760 C   0  0  0  0  0  2  0  0  0  0  0  0
  182.4600  176.5570  137.5310 C   0  0  2  0  0  3  0  0  0  0  0  0
  181.2130  175.9250  137.4380 O   0  0  0  0  0  0  0  0  0  0  0  0
  181.5100  174.5870  137.1600 C   0  0  0  0  0  1  0  0  0  0  0  0
  182.4680  177.8480  136.7100 C   0  0  0  0  0  2  0  0  0  0  0  0
  181.7330  178.9600  137.3810 C   0  0  0  0  0  0  0  0  0  0  0  0
  182.2190  179.5150  138.3980 O   0  0  0  0  0  1  0  0  0  0  0  0
  180.4910  179.3540  136.9060 O   0  0  0  0  0  0  0  0  0  0  0  0
  185.2010  178.6320  140.9140 S   0  0  0  0  0  0  0  0  0  0  0  0
  184.2020  179.0940  142.3820 C   0  0  2  0  0  3  0  0  0  0  0  0
  185.5030  177.5030  146.2210 C   0  0  0  0  0  2  0  0  0  0  0  0
  184.4340  179.4040  144.9740 C   0  0  0  0  0  2  0  0  0  0  0  0
  185.3160  179.0170  146.1610 C   0  0  0  0  0  2  0  0  0  0  0  0
  186.2000  177.0170  144.9460 C   0  0  1  0  0  3  0  0  0  0  0  0
  184.7450  178.6360  143.7050 C   0  0  0  0  0  0  0  0  0  0  0  0
  185.4900  177.5180  143.7180 C   0  0  0  0  0  3  0  0  0  0  0  0
  187.6460  177.4950  144.8960 C   0  0  0  0  0  2  0  0  0  0  0  0
  188.4650  176.9220  146.0460 C   0  0  0  0  0  2  0  0  0  0  0  0
  189.7570  178.9160  145.3750 C   0  0  0  0  0  1  0  0  0  0  0  0
  189.7640  177.7220  146.3290 C   0  0  2  0  0  0  0  0  0  0  0  0
  192.2170  175.7130  147.8420 C   0  0  0  0  0  2  0  0  0  0  0  0
  190.7510  175.4910  146.0130 O   0  0  0  0  0  0  0  0  0  0  0  0
  191.7100  174.7970  146.7670 C   0  0  0  0  0  2  0  0  0  0  0  0
  191.0710  176.8670  146.0850 C   0  0  2  0  0  0  0  0  0  0  0  0
  192.0710  177.0600  147.2220 C   0  0  0  0  0  2  0  0  0  0  0  0
  191.7990  177.2970  144.7970 C   0  0  0  0  0  2  0  0  0  0  0  0
  191.6840  177.8090  142.3800 C   0  0  0  0  0  1  0  0  0  0  0  0
  190.8960  175.6200  143.1950 C   0  0  0  0  0  1  0  0  0  0  0  0
  190.9930  177.0960  143.5190 C   0  0  0  0  0  3  0  0  0  0  0  0
  189.7370  178.2860  147.6330 O   0  0  0  0  0  0  0  0  0  0  0  0
  188.1580  176.7530  148.5470 C   0  0  0  0  0  1  0  0  0  0  0  0
  188.4540  178.1970  148.1990 C   0  0  0  0  0  2  0  0  0  0  0  0
  182.3060  178.1300  141.2680 O   0  0  0  0  0  0  0  0  0  0  0  0
  181.8350  179.4330  143.0850 O   0  0  0  0  0  1  0  0  0  0  0  0
  182.7350  178.8440  142.2110 C   0  0  0  0  0  0  0  0  0  0  0  0
  2  1  2  0  0  0  0
  3  2  1  0  0  0  0
  4  5  1  1  0  0  0
  4  3  1  0  0  0  0
  7  9  2  0  0  0  0
  8  7  1  1  0  0  0
  8 12  1  0  0  0  0
  9 11  1  0  0  0  0
 10  4  1  1  0  0  0
 11 10  1  0  0  0  0
 12  6  1  6  0  0  0
 12 10  1  0  0  0  0
 13  8  1  1  0  0  0
 13 15  1  0  0  0  0
 13 14  1  0  0  0  0
 14 23  1  6  0  0  0
 15 17  1  6  0  0  0
 15 14  1  0  0  0  0
 17 18  2  6  0  0  0
 17 16  1  0  0  0  0
 19 17  1  0  0  0  0
 20 21  1  0  0  0  0
 20 22  1  0  0  0  0
 21 22  1  0  0  0  0
 21 19  1  1  0  0  0
 23 24  1  0  0  0  0
 24 27  1  6  0  0  0
 25 24  1  0  0  0  0
 26 25  1  0  0  0  0
 27 28  1  0  0  0  0
 28 29  1  0  0  0  0
 30 28  2  0  0  0  0
 31  1  1  0  0  0  0
 32 31  1  6  0  0  0
 32 37  1  0  0  0  0
 34 35  1  0  0  0  0
 35 33  1  0  0  0  0
 36 39  1  1  0  0  0
 36 33  1  0  0  0  0
 37 38  2  0  0  0  0
 37 34  1  0  0  0  0
 38 36  1  0  0  0  0
 39 40  1  0  0  0  0
 40 42  1  0  0  0  0
 42 41  1  6  0  0  0
 42 52  1  0  0  0  0
 44 46  1  0  0  0  0
 44 45  1  0  0  0  0
 45 43  1  0  0  0  0
 46 48  1  6  0  0  0
 46 42  1  0  0  0  0
 46 47  1  0  0  0  0
 47 43  1  0  0  0  0
 49 51  1  0  0  0  0
 50 51  1  0  0  0  0
 51 48  1  0  0  0  0
 52 54  1  0  0  0  0
 54 53  1  0  0  0  0
 55 57  2  0  0  0  0
 57 32  1  0  0  0  0
 57 56  1  0  0  0  0
M  END
>  <MODEL>
7

>  <REMARK>
 VINA RESULT:      -4.2      1.368      3.718
  Name = 
  24 active torsions:
  status: ('A' for Active; 'I' for Inactive)
    1  A    between atoms: C_1  and  C_29
    2  A    between atoms: C_5  and  C_18
    3  A    between atoms: C_5  and  C_34
    4  A    between atoms: C_7  and  C_15
    5  A    between atoms: C_7  and  C_27
    6  A    between atoms: S_11  and  C_13
    7  A    between atoms: S_11  and  C_52
    8  A    between atoms: C_15  and  C_55
    9  A    between atoms: C_16  and  O_38
   10  A    between atoms: P_17  and  C_44
   11  A    between atoms: P_17  and  C_57
   12  A    between atoms: C_18  and  C_41
   13  A    between atoms: O_19  and  C_30
   14  A    between atoms: C_23  and  C_25
   15  A    between atoms: C_28  and  C_39
   16  A    between atoms: C_29  and  C_30
   17  A    between atoms: C_30  and  C_39
   18  A    between atoms: C_31  and  C_52
   19  A    between atoms: C_37  and  C_42
   20  A    between atoms: O_38  and  C_55
   21  A    between atoms: C_42  and  C_54
   22  A    between atoms: C_46  and  C_57
   23  A    between atoms: C_48  and  C_52
   24  A    between atoms: C_54  and  C_55
                            x       y       z     vdW  Elec       q    Type
                         _______ _______ _______ _____ _____    ______ ____

>  <TORSDO>
F 24

$$$$
=
 OpenBabel10222416323D

 57 61  0  0  1  0  0  0  0  0999 V2000
  187.0250  177.4620  143.6340 C   0  0  0  0  0  3  0  0  0  0  0  0
  186.0950  177.8620  142.7580 C   0  0  0  0  0  3  0  0  0  0  0  0
  184.9250  178.7210  143.1290 C   0  0  0  0  0  2  0  0  0  0  0  0
  184.4850  179.6200  141.9830 C   0  0  1  0  0  3  0  0  0  0  0  0
  185.2710  179.3490  140.8620 O   0  0  0  0  0  1  0  0  0  0  0  0
  183.4170  177.0290  141.1620 F   0  0  0  0  0  0  0  0  0  0  0  0
  180.5230  177.9180  141.6340 C   0  0  0  0  0  3  0  0  0  0  0  0
  181.3590  177.9660  140.3770 C   0  0  2  0  0  3  0  0  0  0  0  0
  180.9610  178.4220  142.7920 C   0  0  0  0  0  3  0  0  0  0  0  0
  183.0190  179.3350  141.6720 C   0  0  2  0  0  3  0  0  0  0  0  0
  182.2560  179.0360  142.8810 N   0  0  0  0  0  2  0  0  0  0  0  0
  182.8580  178.1930  140.6620 C   0  0  1  0  0  3  0  0  0  0  0  0
  180.7130  178.8530  139.2900 C   0  0  2  0  0  3  0  0  0  0  0  0
  181.5140  178.9100  137.9960 C   0  0  2  0  0  3  0  0  0  0  0  0
  181.5540  180.0850  138.9850 C   0  0  1  0  0  3  0  0  0  0  0  0
  179.3600  181.0690  137.4040 O   0  0  0  0  0  0  0  0  0  0  0  0
  180.4820  181.5200  138.5860 P   0  0  1  0  0  0  0  0  0  0  0  0
  179.7510  182.0150  139.8160 O   0  0  0  0  0  1  0  0  0  0  0  0
  181.5260  182.8560  137.9360 C   0  0  0  0  0  2  0  0  0  0  0  0
  180.4840  184.1570  136.1450 C   0  0  0  0  0  2  0  0  0  0  0  0
  180.6670  184.0580  137.6020 C   0  0  2  0  0  3  0  0  0  0  0  0
  181.4150  184.9550  136.8250 O   0  0  0  0  0  0  0  0  0  0  0  0
  180.5750  179.0610  136.8060 C   0  0  0  0  0  2  0  0  0  0  0  0
  181.1330  178.3310  135.5890 C   0  0  2  0  0  3  0  0  0  0  0  0
  180.1390  178.1600  134.6170 O   0  0  0  0  0  0  0  0  0  0  0  0
  178.9930  177.8050  135.3350 C   0  0  0  0  0  1  0  0  0  0  0  0
  181.7260  176.9800  135.9920 C   0  0  0  0  0  2  0  0  0  0  0  0
  182.9210  176.6100  135.1770 C   0  0  0  0  0  0  0  0  0  0  0  0
  183.7020  177.5020  134.7630 O   0  0  0  0  0  0  0  0  0  0  0  0
  183.1450  175.2830  134.8420 O   0  0  0  0  0  1  0  0  0  0  0  0
  187.0400  177.9710  145.3610 S   0  0  0  0  0  0  0  0  0  0  0  0
  188.8600  177.9010  145.5830 C   0  0  2  0  0  3  0  0  0  0  0  0
  191.3440  176.8980  142.1490 C   0  0  0  0  0  2  0  0  0  0  0  0
  190.8250  178.5460  143.9740 C   0  0  0  0  0  2  0  0  0  0  0  0
  191.3110  178.3760  142.5350 C   0  0  0  0  0  2  0  0  0  0  0  0
  189.9310  176.3110  142.2360 C   0  0  1  0  0  3  0  0  0  0  0  0
  189.6560  177.6520  144.3350 C   0  0  0  0  0  0  0  0  0  0  0  0
  189.3060  176.6020  143.5730 C   0  0  0  0  0  3  0  0  0  0  0  0
  189.0310  176.8840  141.1480 C   0  0  0  0  0  2  0  0  0  0  0  0
  189.3640  176.2980  139.7810 C   0  0  0  0  0  2  0  0  0  0  0  0
  189.4020  178.7330  139.3680 C   0  0  0  0  0  1  0  0  0  0  0  0
  189.5050  177.3760  138.6730 C   0  0  2  0  0  0  0  0  0  0  0  0
  186.1290  178.0080  137.9330 C   0  0  0  0  0  2  0  0  0  0  0  0
  188.1970  178.5170  136.9290 O   0  0  0  0  0  0  0  0  0  0  0  0
  186.8150  178.7330  136.8130 C   0  0  0  0  0  2  0  0  0  0  0  0
  188.3760  177.2680  137.5710 C   0  0  2  0  0  0  0  0  0  0  0  0
  187.0430  176.8600  138.1920 C   0  0  0  0  0  2  0  0  0  0  0  0
  188.7080  176.1900  136.5210 C   0  0  0  0  0  2  0  0  0  0  0  0
  187.4210  175.3270  134.5940 C   0  0  0  0  0  1  0  0  0  0  0  0
  187.7150  173.9090  136.5900 C   0  0  0  0  0  1  0  0  0  0  0  0
  187.5220  175.3300  136.1020 C   0  0  0  0  0  3  0  0  0  0  0  0
  190.8050  177.3470  138.1020 O   0  0  0  0  0  0  0  0  0  0  0  0
  193.0230  177.0230  138.9120 C   0  0  0  0  0  1  0  0  0  0  0  0
  191.6350  176.4320  138.7720 C   0  0  0  0  0  2  0  0  0  0  0  0
  188.4750  176.7570  147.6590 O   0  0  0  0  0  1  0  0  0  0  0  0
  190.6080  176.6530  146.8480 O   0  0  0  0  0  0  0  0  0  0  0  0
  189.2890  177.0650  146.7510 C   0  0  0  0  0  0  0  0  0  0  0  0
  1 31  1  0  0  0  0
  2  3  1  0  0  0  0
  2  1  2  0  0  0  0
  4  5  1  6  0  0  0
  4  3  1  0  0  0  0
  7  9  2  0  0  0  0
  8 12  1  0  0  0  0
  8  7  1  1  0  0  0
  9 11  1  0  0  0  0
 10  4  1  1  0  0  0
 10 11  1  0  0  0  0
 12  6  1  1  0  0  0
 12 10  1  0  0  0  0
 13  8  1  1  0  0  0
 14 23  1  6  0  0  0
 14 15  1  0  0  0  0
 14 13  1  0  0  0  0
 15 17  1  6  0  0  0
 15 13  1  0  0  0  0
 17 16  2  6  0  0  0
 17 18  1  0  0  0  0
 19 17  1  0  0  0  0
 20 22  1  0  0  0  0
 20 21  1  0  0  0  0
 21 19  1  6  0  0  0
 22 21  1  0  0  0  0
 24 27  1  1  0  0  0
 24 23  1  0  0  0  0
 25 26  1  0  0  0  0
 25 24  1  0  0  0  0
 28 27  1  0  0  0  0
 29 28  2  0  0  0  0
 30 28  1  0  0  0  0
 32 31  1  6  0  0  0
 32 57  1  0  0  0  0
 33 36  1  0  0  0  0
 33 35  1  0  0  0  0
 34 37  1  0  0  0  0
 35 34  1  0  0  0  0
 36 39  1  6  0  0  0
 36 38  1  0  0  0  0
 37 32  1  0  0  0  0
 38 37  2  0  0  0  0
 40 39  1  0  0  0  0
 42 41  1  1  0  0  0
 42 40  1  0  0  0  0
 43 47  1  0  0  0  0
 44 46  1  0  0  0  0
 45 44  1  0  0  0  0
 45 43  1  0  0  0  0
 46 48  1  6  0  0  0
 46 47  1  0  0  0  0
 46 42  1  0  0  0  0
 49 51  1  0  0  0  0
 51 48  1  0  0  0  0
 51 50  1  0  0  0  0
 52 42  1  0  0  0  0
 52 54  1  0  0  0  0
 54 53  1  0  0  0  0
 57 56  2  0  0  0  0
 57 55  1  0  0  0  0
M  END
>  <MODEL>
8

>  <REMARK>
 VINA RESULT:      -4.2      2.821      7.085
  Name = 
  24 active torsions:
  status: ('A' for Active; 'I' for Inactive)
    1  A    between atoms: C_1  and  C_29
    2  A    between atoms: C_5  and  C_18
    3  A    between atoms: C_5  and  C_34
    4  A    between atoms: C_7  and  C_15
    5  A    between atoms: C_7  and  C_27
    6  A    between atoms: S_11  and  C_13
    7  A    between atoms: S_11  and  C_52
    8  A    between atoms: C_15  and  C_55
    9  A    between atoms: C_16  and  O_38
   10  A    between atoms: P_17  and  C_44
   11  A    between atoms: P_17  and  C_57
   12  A    between atoms: C_18  and  C_41
   13  A    between atoms: O_19  and  C_30
   14  A    between atoms: C_23  and  C_25
   15  A    between atoms: C_28  and  C_39
   16  A    between atoms: C_29  and  C_30
   17  A    between atoms: C_30  and  C_39
   18  A    between atoms: C_31  and  C_52
   19  A    between atoms: C_37  and  C_42
   20  A    between atoms: O_38  and  C_55
   21  A    between atoms: C_42  and  C_54
   22  A    between atoms: C_46  and  C_57
   23  A    between atoms: C_48  and  C_52
   24  A    between atoms: C_54  and  C_55
                            x       y       z     vdW  Elec       q    Type
                         _______ _______ _______ _____ _____    ______ ____

>  <TORSDO>
F 24

$$$$
=
 OpenBabel10222416323D

 57 61  0  0  1  0  0  0  0  0999 V2000
  189.6930  176.1030  143.4870 C   0  0  0  0  0  3  0  0  0  0  0  0
  190.7350  176.7220  142.9200 C   0  0  0  0  0  3  0  0  0  0  0  0
  190.6060  177.6750  141.7710 C   0  0  0  0  0  2  0  0  0  0  0  0
  189.7650  177.1010  140.6400 C   0  0  1  0  0  3  0  0  0  0  0  0
  189.0130  178.1270  140.0640 O   0  0  0  0  0  1  0  0  0  0  0  0
  190.1960  178.1560  137.9510 F   0  0  0  0  0  0  0  0  0  0  0  0
  192.6540  176.3830  137.5010 C   0  0  0  0  0  3  0  0  0  0  0  0
  191.2030  176.1320  137.1650 C   0  0  2  0  0  3  0  0  0  0  0  0
  193.0390  176.7600  138.7240 C   0  0  0  0  0  3  0  0  0  0  0  0
  190.6960  176.4900  139.5980 C   0  0  2  0  0  3  0  0  0  0  0  0
  192.0760  176.9390  139.7740 N   0  0  0  0  0  2  0  0  0  0  0  0
  190.2330  176.7890  138.1680 C   0  0  1  0  0  3  0  0  0  0  0  0
  190.9420  174.6530  136.8080 C   0  0  2  0  0  3  0  0  0  0  0  0
  191.7630  174.1580  135.6240 C   0  0  2  0  0  3  0  0  0  0  0  0
  190.2770  174.5020  135.4460 C   0  0  1  0  0  3  0  0  0  0  0  0
  189.8030  171.7890  134.6150 O   0  0  0  0  0  0  0  0  0  0  0  0
  189.1090  173.0870  135.4470 P   0  0  1  0  0  0  0  0  0  0  0  0
  188.7690  172.6600  136.8600 O   0  0  0  0  0  1  0  0  0  0  0  0
  187.5870  173.5950  134.5960 C   0  0  0  0  0  2  0  0  0  0  0  0
  186.1000  175.4900  135.0270 C   0  0  0  0  0  2  0  0  0  0  0  0
  186.6390  174.2390  135.5860 C   0  0  2  0  0  3  0  0  0  0  0  0
  187.1480  175.4920  135.9580 O   0  0  0  0  0  0  0  0  0  0  0  0
  192.0980  172.6820  135.8000 C   0  0  0  0  0  2  0  0  0  0  0  0
  193.5800  172.5040  136.1120 C   0  0  2  0  0  3  0  0  0  0  0  0
  194.3690  173.1010  135.1200 O   0  0  0  0  0  0  0  0  0  0  0  0
  195.1750  174.0150  135.8070 C   0  0  0  0  0  1  0  0  0  0  0  0
  193.9300  171.0210  136.2540 C   0  0  0  0  0  2  0  0  0  0  0  0
  195.1230  170.7930  137.1210 C   0  0  0  0  0  0  0  0  0  0  0  0
  195.2770  171.4640  138.1720 O   0  0  0  0  0  1  0  0  0  0  0  0
  196.0850  169.8670  136.7440 O   0  0  0  0  0  0  0  0  0  0  0  0
  187.9840  176.3970  143.0000 S   0  0  0  0  0  0  0  0  0  0  0  0
  187.3880  176.9400  144.6480 C   0  0  2  0  0  3  0  0  0  0  0  0
  184.1250  179.8240  144.6220 C   0  0  0  0  0  2  0  0  0  0  0  0
  185.3960  178.0810  145.9110 C   0  0  0  0  0  2  0  0  0  0  0  0
  184.0290  178.7240  145.6780 C   0  0  0  0  0  2  0  0  0  0  0  0
  184.5910  179.2240  143.2920 C   0  0  1  0  0  3  0  0  0  0  0  0
  186.1810  177.8320  144.6390 C   0  0  0  0  0  0  0  0  0  0  0  0
  185.8440  178.4110  143.4740 C   0  0  0  0  0  3  0  0  0  0  0  0
  183.5170  178.3250  142.6900 C   0  0  0  0  0  2  0  0  0  0  0  0
  182.4190  179.1390  142.0170 C   0  0  0  0  0  2  0  0  0  0  0  0
  181.2930  176.9430  141.9460 C   0  0  0  0  0  1  0  0  0  0  0  0
  181.4270  178.2690  141.1990 C   0  0  2  0  0  0  0  0  0  0  0  0
  180.4420  177.5780  137.8990 C   0  0  0  0  0  2  0  0  0  0  0  0
  181.8310  179.1660  138.9440 O   0  0  0  0  0  0  0  0  0  0  0  0
  181.2950  178.7970  137.7010 C   0  0  0  0  0  2  0  0  0  0  0  0
  181.9310  177.9910  139.7270 C   0  0  2  0  0  0  0  0  0  0  0  0
  181.0930  176.9060  139.0590 C   0  0  0  0  0  2  0  0  0  0  0  0
  183.3850  177.4810  139.7110 C   0  0  0  0  0  2  0  0  0  0  0  0
  185.5770  178.6240  139.7980 C   0  0  0  0  0  1  0  0  0  0  0  0
  184.7820  177.6830  137.6620 C   0  0  0  0  0  1  0  0  0  0  0  0
  184.3560  178.3690  138.9430 C   0  0  0  0  0  3  0  0  0  0  0  0
  180.1250  178.8380  141.2140 O   0  0  0  0  0  0  0  0  0  0  0  0
  180.0750  180.0140  143.2860 C   0  0  0  0  0  1  0  0  0  0  0  0
  179.5740  178.8160  142.5060 C   0  0  0  0  0  2  0  0  0  0  0  0
  188.8120  178.6270  145.5920 O   0  0  0  0  0  0  0  0  0  0  0  0
  189.1650  176.4970  146.3390 O   0  0  0  0  0  1  0  0  0  0  0  0
  188.4830  177.4130  145.5550 C   0  0  0  0  0  0  0  0  0  0  0  0
  2  1  2  0  0  0  0
  3  2  1  0  0  0  0
  4  5  1  6  0  0  0
  4  3  1  0  0  0  0
  7  9  2  0  0  0  0
  8  7  1  1  0  0  0
  8 12  1  0  0  0  0
  9 11  1  0  0  0  0
 10 11  1  0  0  0  0
 10  4  1  1  0  0  0
 12  6  1  6  0  0  0
 12 10  1  0  0  0  0
 13  8  1  6  0  0  0
 14 23  1  1  0  0  0
 14 13  1  0  0  0  0
 15 17  1  1  0  0  0
 15 14  1  0  0  0  0
 15 13  1  0  0  0  0
 17 16  2  6  0  0  0
 17 18  1  0  0  0  0
 19 17  1  0  0  0  0
 20 21  1  0  0  0  0
 20 22  1  0  0  0  0
 21 19  1  6  0  0  0
 21 22  1  0  0  0  0
 24 23  1  6  0  0  0
 24 27  1  0  0  0  0
 25 26  1  0  0  0  0
 25 24  1  0  0  0  0
 27 28  1  0  0  0  0
 28 29  1  0  0  0  0
 30 28  2  0  0  0  0
 31  1  1  0  0  0  0
 32 31  1  6  0  0  0
 32 57  1  0  0  0  0
 33 35  1  0  0  0  0
 35 34  1  0  0  0  0
 36 39  1  1  0  0  0
 36 38  1  0  0  0  0
 36 33  1  0  0  0  0
 37 32  1  0  0  0  0
 37 34  1  0  0  0  0
 38 37  2  0  0  0  0
 40 39  1  0  0  0  0
 42 52  1  0  0  0  0
 42 41  1  1  0  0  0
 42 40  1  0  0  0  0
 43 47  1  0  0  0  0
 44 46  1  0  0  0  0
 45 43  1  0  0  0  0
 45 44  1  0  0  0  0
 46 48  1  1  0  0  0
 46 42  1  0  0  0  0
 47 46  1  0  0  0  0
 50 51  1  0  0  0  0
 51 48  1  0  0  0  0
 51 49  1  0  0  0  0
 52 54  1  0  0  0  0
 54 53  1  0  0  0  0
 57 55  2  0  0  0  0
 57 56  1  0  0  0  0
M  END
>  <MODEL>
9

>  <REMARK>
 VINA RESULT:      -3.8      3.721      8.013
  Name = 
  24 active torsions:
  status: ('A' for Active; 'I' for Inactive)
    1  A    between atoms: C_1  and  C_29
    2  A    between atoms: C_5  and  C_18
    3  A    between atoms: C_5  and  C_34
    4  A    between atoms: C_7  and  C_15
    5  A    between atoms: C_7  and  C_27
    6  A    between atoms: S_11  and  C_13
    7  A    between atoms: S_11  and  C_52
    8  A    between atoms: C_15  and  C_55
    9  A    between atoms: C_16  and  O_38
   10  A    between atoms: P_17  and  C_44
   11  A    between atoms: P_17  and  C_57
   12  A    between atoms: C_18  and  C_41
   13  A    between atoms: O_19  and  C_30
   14  A    between atoms: C_23  and  C_25
   15  A    between atoms: C_28  and  C_39
   16  A    between atoms: C_29  and  C_30
   17  A    between atoms: C_30  and  C_39
   18  A    between atoms: C_31  and  C_52
   19  A    between atoms: C_37  and  C_42
   20  A    between atoms: O_38  and  C_55
   21  A    between atoms: C_42  and  C_54
   22  A    between atoms: C_46  and  C_57
   23  A    between atoms: C_48  and  C_52
   24  A    between atoms: C_54  and  C_55
                            x       y       z     vdW  Elec       q    Type
                         _______ _______ _______ _____ _____    ______ ____

>  <TORSDO>
F 24

$$$$
