=
 OpenBabel10222420553D

 56 68  0  0  1  0  0  0  0  0999 V2000
  186.4810  178.3980  137.4300 C   0  0  2  0  0  3  0  0  0  0  0  0
  188.0590  178.4470  139.5080 C   0  0  0  0  0  2  0  0  0  0  0  0
  190.1490  177.5200  137.6560 C   0  0  0  0  0  3  0  0  0  0  0  0
  189.4020  177.8840  140.0540 C   0  0  2  0  0  3  0  0  0  0  0  0
  187.8290  178.1010  138.0420 C   0  0  1  0  0  0  0  0  0  0  0  0
  190.1920  176.9850  139.0730 C   0  0  2  0  0  3  0  0  0  0  0  0
  185.4440  177.4990  138.0770 C   0  0  2  0  0  3  0  0  0  0  0  0
  186.8430  176.9780  137.8280 C   0  0  1  0  0  3  0  0  0  0  0  0
  189.0240  178.0300  137.1520 C   0  0  0  0  0  3  0  0  0  0  0  0
  188.4580  177.9230  142.5640 C   0  0  2  0  0  0  0  0  0  0  0  0
  189.9010  178.3150  142.3190 C   0  0  2  0  0  3  0  0  0  0  0  0
  187.8780  176.9420  141.6530 N   0  0  0  0  0  2  0  0  0  0  0  0
  188.2640  177.2940  143.9720 C   0  0  1  0  0  3  0  0  0  0  0  0
  189.2970  177.2430  141.4530 C   0  0  2  0  0  0  0  0  0  0  0  0
  190.7360  176.8490  144.1600 C   0  0  0  0  0  0  0  0  0  0  0  0
  189.3960  176.5340  144.4860 N   0  0  0  0  0  2  0  0  0  0  0  0
  190.9840  177.6950  143.1640 C   0  0  0  0  0  3  0  0  0  0  0  0
  187.7490  178.2240  144.9940 N   0  0  0  0  0  0  0  0  0  0  0  0
  188.2720  177.8200  146.2940 C   0  0  0  0  0  2  0  0  0  0  0  0
  186.2960  178.1810  145.0810 C   0  0  0  0  0  2  0  0  0  0  0  0
  185.9300  178.2840  146.5420 C   0  0  0  0  0  2  0  0  0  0  0  0
  187.1240  177.7450  147.2760 C   0  0  0  0  0  2  0  0  0  0  0  0
  191.8440  176.2410  144.9610 C   0  0  0  0  0  3  0  0  0  0  0  0
  192.0880  174.8000  144.5560 C   0  0  0  0  0  1  0  0  0  0  0  0
  191.5980  176.3290  146.4610 C   0  0  0  0  0  1  0  0  0  0  0  0
  184.4940  176.9630  137.0250 C   0  0  0  0  0  2  0  0  0  0  0  0
  182.2460  176.4640  136.5620 C   0  0  0  0  0  2  0  0  0  0  0  0
  183.2210  176.6230  137.6380 N   0  0  0  0  0  0  0  0  0  0  0  0
  180.9740  176.1990  139.2890 O   0  0  0  0  0  0  0  0  0  0  0  0
  182.7870  177.7870  138.4160 C   0  0  1  0  0  3  0  0  0  0  0  0
  180.3290  176.0590  138.0410 C   0  0  0  0  0  2  0  0  0  0  0  0
  181.3820  178.1620  137.9520 C   0  0  2  0  0  3  0  0  0  0  0  0
  181.5600  177.4820  139.2850 C   0  0  1  0  0  0  0  0  0  0  0  0
  180.9430  177.0440  137.0660 C   0  0  1  0  0  3  0  0  0  0  0  0
  182.1550  178.3280  141.4850 C   0  0  0  0  0  3  0  0  0  0  0  0
  181.9170  179.1260  142.6020 C   0  0  0  0  0  0  0  0  0  0  0  0
  180.8060  179.9050  142.6420 N   0  0  0  0  0  0  0  0  0  0  0  0
  179.9220  179.9180  141.6120 C   0  0  0  0  0  3  0  0  0  0  0  0
  179.3170  179.1170  139.5530 O   0  0  0  0  0  0  0  0  0  0  0  0
  183.0360  179.1130  143.9470 Cl  0  0  0  0  0  0  0  0  0  0  0  0
  181.2870  178.3480  140.4330 N   0  0  0  0  0  0  0  0  0  0  0  0
  180.1590  179.1250  140.4910 C   0  0  0  0  0  0  0  0  0  0  0  0
  191.6380  176.8380  139.5470 C   0  0  0  0  0  2  0  0  0  0  0  0
  192.6100  176.7340  138.3850 C   0  0  0  0  0  2  0  0  0  0  0  0
  192.7590  175.2810  137.9750 C   0  0  0  0  0  2  0  0  0  0  0  0
  194.6250  175.9560  136.6670 O   0  0  0  0  0  0  0  0  0  0  0  0
  194.7730  173.8120  137.5810 N   0  0  0  0  0  2  0  0  0  0  0  0
  194.0950  175.0500  137.3660 C   0  0  0  0  0  0  0  0  0  0  0  0
  196.6180  172.4140  137.7530 C   0  0  2  0  0  0  0  0  0  0  0  0
  196.9840  173.8330  138.1090 C   0  0  2  0  0  3  0  0  0  0  0  0
  197.8420  171.8930  137.2260 O   0  0  0  0  0  0  0  0  0  0  0  0
  196.0460  173.5940  137.0440 N   0  0  0  0  0  0  0  0  0  0  0  0
  196.7080  171.4910  136.5650 C   0  0  0  0  0  2  0  0  0  0  0  0
  198.2620  174.4360  137.5090 C   0  0  0  0  0  2  0  0  0  0  0  0
  198.6710  175.1320  135.3160 C   0  0  0  0  0  1  0  0  0  0  0  0
  197.9180  175.4410  136.5190 N   0  0  0  0  0  2  0  0  0  0  0  0
  1  8  1  0  0  0  0
  1  5  1  0  0  0  0
  1  7  1  0  0  0  0
  2  4  1  0  0  0  0
  3  6  1  0  0  0  0
  4 14  1  0  0  0  0
  5  2  1  0  0  0  0
  6 43  1  0  0  0  0
  6  4  1  0  0  0  0
  8  5  1  0  0  0  0
  8  7  1  0  0  0  0
  9  3  2  0  0  0  0
  9  5  1  0  0  0  0
 10 13  1  0  0  0  0
 11 10  1  0  0  0  0
 11 17  1  0  0  0  0
 12 10  1  0  0  0  0
 13 16  1  0  0  0  0
 13 18  1  0  0  0  0
 14 12  1  0  0  0  0
 14 11  1  0  0  0  0
 14 10  1  0  0  0  0
 15 16  1  0  0  0  0
 15 23  1  0  0  0  0
 17 15  2  0  0  0  0
 18 20  1  0  0  0  0
 18 19  1  0  0  0  0
 19 22  1  0  0  0  0
 20 21  1  0  0  0  0
 21 22  1  0  0  0  0
 23 25  1  0  0  0  0
 24 23  1  0  0  0  0
 26 28  1  0  0  0  0
 26  7  1  0  0  0  0
 27 34  1  0  0  0  0
 27 28  1  0  0  0  0
 28 30  1  0  0  0  0
 30 33  1  0  0  0  0
 31 29  1  0  0  0  0
 32 30  1  0  0  0  0
 32 33  1  0  0  0  0
 33 29  1  0  0  0  0
 33 41  1  0  0  0  0
 34 32  1  0  0  0  0
 34 31  1  0  0  0  0
 35 36  2  0  0  0  0
 36 37  1  0  0  0  0
 36 40  1  0  0  0  0
 38 37  2  0  0  0  0
 39 42  2  0  0  0  0
 41 42  1  0  0  0  0
 41 35  1  0  0  0  0
 42 38  1  0  0  0  0
 44 43  1  0  0  0  0
 45 44  1  0  0  0  0
 46 48  2  0  0  0  0
 48 47  1  0  0  0  0
 48 45  1  0  0  0  0
 49 50  1  0  0  0  0
 51 49  1  0  0  0  0
 52 47  1  0  0  0  0
 52 49  1  0  0  0  0
 52 50  1  0  0  0  0
 53 51  1  0  0  0  0
 53 49  1  0  0  0  0
 54 50  1  0  0  0  0
 55 56  1  0  0  0  0
 56 54  1  0  0  0  0
M  END
>  <MODEL>
1

>  <REMARK>
 VINA RESULT:      -8.4      0.000      0.000
  Name = 
  13 active torsions:
  status: ('A' for Active; 'I' for Inactive)
    1  A    between atoms: C_4  and  C_25
    2  A    between atoms: N_6  and  C_13
    3  A    between atoms: N_7  and  C_8
    4  A    between atoms: C_8  and  C_53
    5  A    between atoms: C_19  and  C_27
    6  A    between atoms: C_26  and  C_45
    7  A    between atoms: C_35  and  N_43
    8  A    between atoms: N_36  and  N_38
    9  A    between atoms: C_37  and  C_42
   10  A    between atoms: C_37  and  C_51
   11  A    between atoms: C_42  and  C_52
   12  A    between atoms: C_45  and  N_47
   13  A    between atoms: C_48  and  C_52
                            x       y       z     vdW  Elec       q    Type
                         _______ _______ _______ _____ _____    ______ ____

>  <TORSDO>
F 13

$$$$
=
 OpenBabel10222420553D

 56 68  0  0  1  0  0  0  0  0999 V2000
  188.3490  178.5690  139.6540 C   0  0  2  0  0  3  0  0  0  0  0  0
  186.0370  179.0510  140.7650 C   0  0  0  0  0  2  0  0  0  0  0  0
  187.3270  178.2190  143.2750 C   0  0  0  0  0  3  0  0  0  0  0  0
  185.1810  178.7350  142.0240 C   0  0  2  0  0  3  0  0  0  0  0  0
  187.4620  178.5230  140.8750 C   0  0  1  0  0  0  0  0  0  0  0  0
  185.8700  177.8490  143.0890 C   0  0  2  0  0  3  0  0  0  0  0  0
  187.7960  177.6150  138.6130 C   0  0  2  0  0  3  0  0  0  0  0  0
  187.7070  177.2610  140.0830 C   0  0  1  0  0  3  0  0  0  0  0  0
  188.0960  178.5170  142.2250 C   0  0  0  0  0  3  0  0  0  0  0  0
  182.9760  178.8130  140.4990 C   0  0  2  0  0  0  0  0  0  0  0  0
  182.9600  179.5100  141.8440 C   0  0  2  0  0  3  0  0  0  0  0  0
  183.8220  177.6300  140.3800 N   0  0  0  0  0  2  0  0  0  0  0  0
  181.5620  178.3070  140.0960 C   0  0  1  0  0  3  0  0  0  0  0  0
  183.7540  178.2390  141.7100 C   0  0  2  0  0  0  0  0  0  0  0  0
  180.7720  178.4880  142.4810 C   0  0  0  0  0  0  0  0  0  0  0  0
  180.7000  177.8990  141.1970 N   0  0  0  0  0  2  0  0  0  0  0  0
  181.8120  179.2590  142.7870 C   0  0  0  0  0  3  0  0  0  0  0  0
  180.8380  179.1900  139.1630 N   0  0  0  0  0  0  0  0  0  0  0  0
  181.8130  179.8790  138.3250 C   0  0  0  0  0  2  0  0  0  0  0  0
  180.0770  180.2130  139.8670 C   0  0  0  0  0  2  0  0  0  0  0  0
  180.2020  181.4920  139.0770 C   0  0  0  0  0  2  0  0  0  0  0  0
  181.5010  181.3590  138.3340 C   0  0  0  0  0  2  0  0  0  0  0  0
  179.6620  178.2510  143.4560 C   0  0  0  0  0  3  0  0  0  0  0  0
  179.1060  179.5600  143.9840 C   0  0  0  0  0  1  0  0  0  0  0  0
  180.0800  177.3550  144.6130 C   0  0  0  0  0  1  0  0  0  0  0  0
  188.9270  176.8460  137.9610 C   0  0  0  0  0  2  0  0  0  0  0  0
  189.0130  176.0470  135.7530 C   0  0  0  0  0  2  0  0  0  0  0  0
  188.3860  175.8450  137.0570 N   0  0  0  0  0  0  0  0  0  0  0  0
  186.9080  173.8830  135.6700 O   0  0  0  0  0  0  0  0  0  0  0  0
  186.9620  176.1440  136.8770 C   0  0  1  0  0  3  0  0  0  0  0  0
  187.7310  174.3000  134.6020 C   0  0  0  0  0  2  0  0  0  0  0  0
  186.6950  176.2650  135.3790 C   0  0  2  0  0  3  0  0  0  0  0  0
  186.2260  175.0360  136.1130 C   0  0  1  0  0  0  0  0  0  0  0  0
  187.9440  175.7970  134.7120 C   0  0  1  0  0  3  0  0  0  0  0  0
  183.9930  175.7570  135.4770 C   0  0  0  0  0  3  0  0  0  0  0  0
  182.6060  175.7100  135.5910 C   0  0  0  0  0  0  0  0  0  0  0  0
  182.0390  174.8640  136.4890 N   0  0  0  0  0  0  0  0  0  0  0  0
  182.8000  174.0660  137.2780 C   0  0  0  0  0  3  0  0  0  0  0  0
  184.8920  173.3870  137.9230 O   0  0  0  0  0  0  0  0  0  0  0  0
  181.6050  176.7420  134.5940 Cl  0  0  0  0  0  0  0  0  0  0  0  0
  184.7710  174.9440  136.2480 N   0  0  0  0  0  0  0  0  0  0  0  0
  184.1890  174.1070  137.1640 C   0  0  0  0  0  0  0  0  0  0  0  0
  185.1180  177.9490  144.4170 C   0  0  0  0  0  2  0  0  0  0  0  0
  185.9060  178.7220  145.4600 C   0  0  0  0  0  2  0  0  0  0  0  0
  186.3940  177.7710  146.5370 C   0  0  0  0  0  2  0  0  0  0  0  0
  188.3630  177.8980  147.8620 O   0  0  0  0  0  0  0  0  0  0  0  0
  188.7080  177.9850  145.5550 N   0  0  0  0  0  2  0  0  0  0  0  0
  187.8670  177.8900  146.7040 C   0  0  0  0  0  0  0  0  0  0  0  0
  190.6800  177.8870  144.3330 C   0  0  2  0  0  0  0  0  0  0  0  0
  190.6150  176.7660  145.3400 C   0  0  2  0  0  3  0  0  0  0  0  0
  192.0850  178.1250  144.2110 O   0  0  0  0  0  0  0  0  0  0  0  0
  190.0980  178.0620  145.6940 N   0  0  0  0  0  0  0  0  0  0  0  0
  191.3030  179.2530  144.2040 C   0  0  0  0  0  2  0  0  0  0  0  0
  191.8520  176.4800  146.2030 C   0  0  0  0  0  2  0  0  0  0  0  0
  192.6530  175.7330  148.2680 C   0  0  0  0  0  1  0  0  0  0  0  0
  191.4470  175.9210  147.4800 N   0  0  0  0  0  2  0  0  0  0  0  0
  1  8  1  0  0  0  0
  1  5  1  0  0  0  0
  2  5  1  0  0  0  0
  2  4  1  0  0  0  0
  4  6  1  0  0  0  0
  5  9  1  0  0  0  0
  6  3  1  0  0  0  0
  6 43  1  0  0  0  0
  7  1  1  0  0  0  0
  7  8  1  0  0  0  0
  8  5  1  0  0  0  0
  9  3  2  0  0  0  0
 10 14  1  0  0  0  0
 10 11  1  0  0  0  0
 11 17  1  0  0  0  0
 12 10  1  0  0  0  0
 12 14  1  0  0  0  0
 13 10  1  0  0  0  0
 13 16  1  0  0  0  0
 14 11  1  0  0  0  0
 14  4  1  0  0  0  0
 15 17  2  0  0  0  0
 15 23  1  0  0  0  0
 16 15  1  0  0  0  0
 18 20  1  0  0  0  0
 18 13  1  0  0  0  0
 19 22  1  0  0  0  0
 19 18  1  0  0  0  0
 21 20  1  0  0  0  0
 22 21  1  0  0  0  0
 23 24  1  0  0  0  0
 23 25  1  0  0  0  0
 26  7  1  0  0  0  0
 27 28  1  0  0  0  0
 28 26  1  0  0  0  0
 29 33  1  0  0  0  0
 30 28  1  0  0  0  0
 31 34  1  0  0  0  0
 31 29  1  0  0  0  0
 32 33  1  0  0  0  0
 32 30  1  0  0  0  0
 33 41  1  0  0  0  0
 33 30  1  0  0  0  0
 34 32  1  0  0  0  0
 34 27  1  0  0  0  0
 35 36  2  0  0  0  0
 35 41  1  0  0  0  0
 36 37  1  0  0  0  0
 37 38  2  0  0  0  0
 40 36  1  0  0  0  0
 41 42  1  0  0  0  0
 42 38  1  0  0  0  0
 42 39  2  0  0  0  0
 43 44  1  0  0  0  0
 44 45  1  0  0  0  0
 45 48  1  0  0  0  0
 47 52  1  0  0  0  0
 47 48  1  0  0  0  0
 48 46  2  0  0  0  0
 49 50  1  0  0  0  0
 49 52  1  0  0  0  0
 50 52  1  0  0  0  0
 50 54  1  0  0  0  0
 51 49  1  0  0  0  0
 53 51  1  0  0  0  0
 53 49  1  0  0  0  0
 54 56  1  0  0  0  0
 56 55  1  0  0  0  0
M  END
>  <MODEL>
2

>  <REMARK>
 VINA RESULT:      -7.5      4.580      8.731
  Name = 
  13 active torsions:
  status: ('A' for Active; 'I' for Inactive)
    1  A    between atoms: C_4  and  C_25
    2  A    between atoms: N_6  and  C_13
    3  A    between atoms: N_7  and  C_8
    4  A    between atoms: C_8  and  C_53
    5  A    between atoms: C_19  and  C_27
    6  A    between atoms: C_26  and  C_45
    7  A    between atoms: C_35  and  N_43
    8  A    between atoms: N_36  and  N_38
    9  A    between atoms: C_37  and  C_42
   10  A    between atoms: C_37  and  C_51
   11  A    between atoms: C_42  and  C_52
   12  A    between atoms: C_45  and  N_47
   13  A    between atoms: C_48  and  C_52
                            x       y       z     vdW  Elec       q    Type
                         _______ _______ _______ _____ _____    ______ ____

>  <TORSDO>
F 13

$$$$
=
 OpenBabel10222420553D

 56 68  0  0  1  0  0  0  0  0999 V2000
  189.6470  176.9160  140.1570 C   0  0  2  0  0  3  0  0  0  0  0  0
  187.4150  176.8900  138.8050 C   0  0  0  0  0  2  0  0  0  0  0  0
  189.0810  177.5790  136.4800 C   0  0  0  0  0  3  0  0  0  0  0  0
  186.7600  177.3990  137.4900 C   0  0  2  0  0  3  0  0  0  0  0  0
  188.9120  177.1640  138.8610 C   0  0  1  0  0  0  0  0  0  0  0  0
  187.6960  178.1900  136.5460 C   0  0  2  0  0  3  0  0  0  0  0  0
  189.1590  177.9130  141.1920 C   0  0  2  0  0  3  0  0  0  0  0  0
  189.2860  178.3320  139.7430 C   0  0  1  0  0  3  0  0  0  0  0  0
  189.6750  177.1110  137.5800 C   0  0  0  0  0  3  0  0  0  0  0  0
  184.5370  177.8120  138.9320 C   0  0  2  0  0  0  0  0  0  0  0  0
  184.4480  176.9720  137.6750 C   0  0  2  0  0  3  0  0  0  0  0  0
  185.5420  178.8690  138.9480 N   0  0  0  0  0  2  0  0  0  0  0  0
  183.2030  178.5550  139.2230 C   0  0  1  0  0  3  0  0  0  0  0  0
  185.4140  178.1250  137.6940 C   0  0  2  0  0  0  0  0  0  0  0  0
  182.4430  178.2100  136.8460 C   0  0  0  0  0  0  0  0  0  0  0  0
  182.4310  178.9500  138.0530 N   0  0  0  0  0  2  0  0  0  0  0  0
  183.3670  177.2700  136.6670 C   0  0  0  0  0  3  0  0  0  0  0  0
  182.3400  177.8990  140.2230 N   0  0  0  0  0  0  0  0  0  0  0  0
  182.2410  176.4820  139.8910 C   0  0  0  0  0  2  0  0  0  0  0  0
  180.9880  178.4400  140.2090 C   0  0  0  0  0  2  0  0  0  0  0  0
  180.0380  177.2840  140.4070 C   0  0  0  0  0  2  0  0  0  0  0  0
  180.7820  176.0840  139.8950 C   0  0  0  0  0  2  0  0  0  0  0  0
  181.3990  178.4860  135.8100 C   0  0  0  0  0  3  0  0  0  0  0  0
  180.7750  179.8540  136.0110 C   0  0  0  0  0  1  0  0  0  0  0  0
  180.3160  177.4170  135.7710 C   0  0  0  0  0  1  0  0  0  0  0  0
  190.3310  178.4460  141.9910 C   0  0  0  0  0  2  0  0  0  0  0  0
  190.7670  176.9830  143.7770 C   0  0  0  0  0  2  0  0  0  0  0  0
  190.1000  178.2290  143.4100 N   0  0  0  0  0  0  0  0  0  0  0  0
  189.2100  178.1530  146.0850 O   0  0  0  0  0  0  0  0  0  0  0  0
  188.6640  177.9910  143.5860 C   0  0  1  0  0  3  0  0  0  0  0  0
  190.0010  176.9850  146.1090 C   0  0  0  0  0  2  0  0  0  0  0  0
  188.4960  176.6670  144.3270 C   0  0  2  0  0  3  0  0  0  0  0  0
  188.2560  177.9600  145.0640 C   0  0  1  0  0  0  0  0  0  0  0  0
  189.8680  176.2830  144.7710 C   0  0  1  0  0  3  0  0  0  0  0  0
  185.9530  178.3540  144.3910 C   0  0  0  0  0  3  0  0  0  0  0  0
  184.6120  178.5980  144.6780 C   0  0  0  0  0  0  0  0  0  0  0  0
  184.2140  178.6960  145.9720 N   0  0  0  0  0  0  0  0  0  0  0  0
  185.1000  178.5630  146.9910 C   0  0  0  0  0  3  0  0  0  0  0  0
  187.2660  178.2250  147.6570 O   0  0  0  0  0  0  0  0  0  0  0  0
  183.4540  178.7870  143.3800 Cl  0  0  0  0  0  0  0  0  0  0  0  0
  186.8520  178.1960  145.4050 N   0  0  0  0  0  0  0  0  0  0  0  0
  186.4430  178.3150  146.7080 C   0  0  0  0  0  0  0  0  0  0  0  0
  187.0810  178.2750  135.1490 C   0  0  0  0  0  2  0  0  0  0  0  0
  186.3620  176.9930  134.7660 C   0  0  0  0  0  2  0  0  0  0  0  0
  187.3740  175.8750  134.5940 C   0  0  0  0  0  2  0  0  0  0  0  0
  187.7530  174.0970  136.1260 O   0  0  0  0  0  0  0  0  0  0  0  0
  185.6140  174.1680  135.1910 N   0  0  0  0  0  2  0  0  0  0  0  0
  186.9420  174.6680  135.3470 C   0  0  0  0  0  0  0  0  0  0  0  0
  184.7880  172.0140  134.9260 C   0  0  2  0  0  0  0  0  0  0  0  0
  183.7820  172.8930  135.6260 C   0  0  2  0  0  3  0  0  0  0  0  0
  184.4970  170.7160  135.4530 O   0  0  0  0  0  0  0  0  0  0  0  0
  185.1820  173.0540  135.9190 N   0  0  0  0  0  0  0  0  0  0  0  0
  185.8310  170.9880  135.2850 C   0  0  0  0  0  2  0  0  0  0  0  0
  183.0790  172.3530  136.8800 C   0  0  0  0  0  2  0  0  0  0  0  0
  181.3350  173.2830  135.6320 C   0  0  0  0  0  1  0  0  0  0  0  0
  181.6440  172.3050  136.6610 N   0  0  0  0  0  2  0  0  0  0  0  0
  1  7  1  0  0  0  0
  2  5  1  0  0  0  0
  3  6  1  0  0  0  0
  3  9  2  0  0  0  0
  4 14  1  0  0  0  0
  4  2  1  0  0  0  0
  5  8  1  0  0  0  0
  5  1  1  0  0  0  0
  6  4  1  0  0  0  0
  7 26  1  0  0  0  0
  8  1  1  0  0  0  0
  8  7  1  0  0  0  0
  9  5  1  0  0  0  0
 10 12  1  0  0  0  0
 10 13  1  0  0  0  0
 11 14  1  0  0  0  0
 11 10  1  0  0  0  0
 13 18  1  0  0  0  0
 14 10  1  0  0  0  0
 14 12  1  0  0  0  0
 15 16  1  0  0  0  0
 16 13  1  0  0  0  0
 17 15  2  0  0  0  0
 17 11  1  0  0  0  0
 19 22  1  0  0  0  0
 19 18  1  0  0  0  0
 20 18  1  0  0  0  0
 20 21  1  0  0  0  0
 22 21  1  0  0  0  0
 23 24  1  0  0  0  0
 23 15  1  0  0  0  0
 25 23  1  0  0  0  0
 26 28  1  0  0  0  0
 27 34  1  0  0  0  0
 28 30  1  0  0  0  0
 28 27  1  0  0  0  0
 29 31  1  0  0  0  0
 30 32  1  0  0  0  0
 30 33  1  0  0  0  0
 32 34  1  0  0  0  0
 32 33  1  0  0  0  0
 33 41  1  0  0  0  0
 33 29  1  0  0  0  0
 34 31  1  0  0  0  0
 35 36  2  0  0  0  0
 35 41  1  0  0  0  0
 36 37  1  0  0  0  0
 37 38  2  0  0  0  0
 40 36  1  0  0  0  0
 41 42  1  0  0  0  0
 42 38  1  0  0  0  0
 42 39  2  0  0  0  0
 43  6  1  0  0  0  0
 44 43  1  0  0  0  0
 45 44  1  0  0  0  0
 45 48  1  0  0  0  0
 47 48  1  0  0  0  0
 47 52  1  0  0  0  0
 48 46  2  0  0  0  0
 49 53  1  0  0  0  0
 49 51  1  0  0  0  0
 49 50  1  0  0  0  0
 49 52  1  0  0  0  0
 50 52  1  0  0  0  0
 50 54  1  0  0  0  0
 53 51  1  0  0  0  0
 55 56  1  0  0  0  0
 56 54  1  0  0  0  0
M  END
>  <MODEL>
3

>  <REMARK>
 VINA RESULT:      -7.3      4.524      9.268
  Name = 
  13 active torsions:
  status: ('A' for Active; 'I' for Inactive)
    1  A    between atoms: C_4  and  C_25
    2  A    between atoms: N_6  and  C_13
    3  A    between atoms: N_7  and  C_8
    4  A    between atoms: C_8  and  C_53
    5  A    between atoms: C_19  and  C_27
    6  A    between atoms: C_26  and  C_45
    7  A    between atoms: C_35  and  N_43
    8  A    between atoms: N_36  and  N_38
    9  A    between atoms: C_37  and  C_42
   10  A    between atoms: C_37  and  C_51
   11  A    between atoms: C_42  and  C_52
   12  A    between atoms: C_45  and  N_47
   13  A    between atoms: C_48  and  C_52
                            x       y       z     vdW  Elec       q    Type
                         _______ _______ _______ _____ _____    ______ ____

>  <TORSDO>
F 13

$$$$
=
 OpenBabel10222420553D

 56 68  0  0  1  0  0  0  0  0999 V2000
  184.1960  179.3290  140.5170 C   0  0  2  0  0  3  0  0  0  0  0  0
  185.9570  178.4100  138.8240 C   0  0  0  0  0  2  0  0  0  0  0  0
  183.6380  177.6130  137.1970 C   0  0  0  0  0  3  0  0  0  0  0  0
  186.1290  177.4230  137.6350 C   0  0  2  0  0  3  0  0  0  0  0  0
  184.5020  178.5680  139.2490 C   0  0  1  0  0  0  0  0  0  0  0  0
  184.8410  176.6940  137.1840 C   0  0  2  0  0  3  0  0  0  0  0  0
  184.7300  178.5410  141.6980 C   0  0  2  0  0  3  0  0  0  0  0  0
  184.1480  177.8110  140.5060 C   0  0  1  0  0  3  0  0  0  0  0  0
  183.4570  178.4910  138.1870 C   0  0  0  0  0  3  0  0  0  0  0  0
  188.7680  176.9440  137.6380 C   0  0  2  0  0  0  0  0  0  0  0  0
  187.9510  176.5240  136.4340 C   0  0  2  0  0  3  0  0  0  0  0  0
  188.0920  176.9330  138.9310 N   0  0  0  0  0  2  0  0  0  0  0  0
  190.0000  176.0180  137.8490 C   0  0  1  0  0  3  0  0  0  0  0  0
  187.3100  176.4430  137.7930 C   0  0  2  0  0  0  0  0  0  0  0  0
  188.9670  174.2430  136.3890 C   0  0  0  0  0  0  0  0  0  0  0  0
  189.8210  174.6290  137.4510 N   0  0  0  0  0  2  0  0  0  0  0  0
  188.1050  175.1260  135.8930 C   0  0  0  0  0  3  0  0  0  0  0  0
  191.2680  176.5550  137.3220 N   0  0  0  0  0  0  0  0  0  0  0  0
  191.7770  175.6360  136.3110 C   0  0  0  0  0  2  0  0  0  0  0  0
  192.2840  176.6600  138.3610 C   0  0  0  0  0  2  0  0  0  0  0  0
  193.6000  176.2540  137.7440 C   0  0  0  0  0  2  0  0  0  0  0  0
  193.2290  175.3400  136.6120 C   0  0  0  0  0  2  0  0  0  0  0  0
  189.0740  172.8580  135.8330 C   0  0  0  0  0  3  0  0  0  0  0  0
  190.1920  172.7620  134.8130 C   0  0  0  0  0  1  0  0  0  0  0  0
  187.7670  172.3690  135.2270 C   0  0  0  0  0  1  0  0  0  0  0  0
  183.7270  178.5650  142.8340 C   0  0  0  0  0  2  0  0  0  0  0  0
  183.9410  179.0510  145.1220 C   0  0  0  0  0  2  0  0  0  0  0  0
  184.3660  178.1360  144.0660 N   0  0  0  0  0  0  0  0  0  0  0  0
  185.9780  177.0540  146.1130 O   0  0  0  0  0  0  0  0  0  0  0  0
  185.8090  178.3420  143.9030 C   0  0  1  0  0  3  0  0  0  0  0  0
  185.3300  178.0470  146.8780 C   0  0  0  0  0  2  0  0  0  0  0  0
  186.2930  179.2020  145.0680 C   0  0  2  0  0  3  0  0  0  0  0  0
  186.6190  177.7300  145.0530 C   0  0  1  0  0  0  0  0  0  0  0  0
  185.1420  179.2780  146.0130 C   0  0  1  0  0  3  0  0  0  0  0  0
  188.4410  177.1020  143.5720 C   0  0  0  0  0  3  0  0  0  0  0  0
  189.7790  176.8000  143.3270 C   0  0  0  0  0  0  0  0  0  0  0  0
  190.6670  176.8250  144.3530 N   0  0  0  0  0  0  0  0  0  0  0  0
  190.2740  177.1360  145.6140 C   0  0  0  0  0  3  0  0  0  0  0  0
  188.5730  177.6990  147.0420 O   0  0  0  0  0  0  0  0  0  0  0  0
  190.3050  176.3820  141.7120 Cl  0  0  0  0  0  0  0  0  0  0  0  0
  188.0360  177.4380  144.8300 N   0  0  0  0  0  0  0  0  0  0  0  0
  188.9370  177.4430  145.8630 C   0  0  0  0  0  0  0  0  0  0  0  0
  185.0410  176.0910  135.7940 C   0  0  0  0  0  2  0  0  0  0  0  0
  183.8590  175.2360  135.3700 C   0  0  0  0  0  2  0  0  0  0  0  0
  184.1880  173.7700  135.5840 C   0  0  0  0  0  2  0  0  0  0  0  0
  183.0900  171.8390  136.4280 O   0  0  0  0  0  0  0  0  0  0  0  0
  182.0370  173.8700  136.8990 N   0  0  0  0  0  2  0  0  0  0  0  0
  183.0860  173.0950  136.3180 C   0  0  0  0  0  0  0  0  0  0  0  0
  179.9970  172.7940  136.6320 C   0  0  2  0  0  0  0  0  0  0  0  0
  179.8360  174.0600  137.4370 C   0  0  2  0  0  3  0  0  0  0  0  0
  178.9500  171.9610  137.1380 O   0  0  0  0  0  0  0  0  0  0  0  0
  181.0120  173.2510  137.6230 N   0  0  0  0  0  0  0  0  0  0  0  0
  180.1310  171.3130  136.8750 C   0  0  0  0  0  2  0  0  0  0  0  0
  179.0000  174.0130  138.7240 C   0  0  0  0  0  2  0  0  0  0  0  0
  179.0740  174.6980  140.9570 C   0  0  0  0  0  1  0  0  0  0  0  0
  179.3720  175.1120  139.5970 N   0  0  0  0  0  2  0  0  0  0  0  0
  1  7  1  0  0  0  0
  2  5  1  0  0  0  0
  3  9  2  0  0  0  0
  4 14  1  0  0  0  0
  4  2  1  0  0  0  0
  5  8  1  0  0  0  0
  5  1  1  0  0  0  0
  6  3  1  0  0  0  0
  6  4  1  0  0  0  0
  7 26  1  0  0  0  0
  8  1  1  0  0  0  0
  8  7  1  0  0  0  0
  9  5  1  0  0  0  0
 10 14  1  0  0  0  0
 10 13  1  0  0  0  0
 10 12  1  0  0  0  0
 11 10  1  0  0  0  0
 11 14  1  0  0  0  0
 14 12  1  0  0  0  0
 15 16  1  0  0  0  0
 16 13  1  0  0  0  0
 17 15  2  0  0  0  0
 17 11  1  0  0  0  0
 18 13  1  0  0  0  0
 18 20  1  0  0  0  0
 19 22  1  0  0  0  0
 19 18  1  0  0  0  0
 21 20  1  0  0  0  0
 22 21  1  0  0  0  0
 23 15  1  0  0  0  0
 24 23  1  0  0  0  0
 25 23  1  0  0  0  0
 26 28  1  0  0  0  0
 27 34  1  0  0  0  0
 28 27  1  0  0  0  0
 29 31  1  0  0  0  0
 30 28  1  0  0  0  0
 30 33  1  0  0  0  0
 30 32  1  0  0  0  0
 32 34  1  0  0  0  0
 33 32  1  0  0  0  0
 33 29  1  0  0  0  0
 34 31  1  0  0  0  0
 35 41  1  0  0  0  0
 36 35  2  0  0  0  0
 36 37  1  0  0  0  0
 37 38  2  0  0  0  0
 38 42  1  0  0  0  0
 40 36  1  0  0  0  0
 41 33  1  0  0  0  0
 41 42  1  0  0  0  0
 42 39  2  0  0  0  0
 43  6  1  0  0  0  0
 44 45  1  0  0  0  0
 44 43  1  0  0  0  0
 45 48  1  0  0  0  0
 47 52  1  0  0  0  0
 48 46  2  0  0  0  0
 48 47  1  0  0  0  0
 49 53  1  0  0  0  0
 49 51  1  0  0  0  0
 49 50  1  0  0  0  0
 49 52  1  0  0  0  0
 50 52  1  0  0  0  0
 50 54  1  0  0  0  0
 53 51  1  0  0  0  0
 54 56  1  0  0  0  0
 56 55  1  0  0  0  0
M  END
>  <MODEL>
4

>  <REMARK>
 VINA RESULT:      -7.1      4.046     10.388
  Name = 
  13 active torsions:
  status: ('A' for Active; 'I' for Inactive)
    1  A    between atoms: C_4  and  C_25
    2  A    between atoms: N_6  and  C_13
    3  A    between atoms: N_7  and  C_8
    4  A    between atoms: C_8  and  C_53
    5  A    between atoms: C_19  and  C_27
    6  A    between atoms: C_26  and  C_45
    7  A    between atoms: C_35  and  N_43
    8  A    between atoms: N_36  and  N_38
    9  A    between atoms: C_37  and  C_42
   10  A    between atoms: C_37  and  C_51
   11  A    between atoms: C_42  and  C_52
   12  A    between atoms: C_45  and  N_47
   13  A    between atoms: C_48  and  C_52
                            x       y       z     vdW  Elec       q    Type
                         _______ _______ _______ _____ _____    ______ ____

>  <TORSDO>
F 13

$$$$
=
 OpenBabel10222420553D

 56 68  0  0  1  0  0  0  0  0999 V2000
  189.8050  176.7650  139.4950 C   0  0  2  0  0  3  0  0  0  0  0  0
  187.3140  177.0940  138.7900 C   0  0  0  0  0  2  0  0  0  0  0  0
  188.3970  177.8560  136.1630 C   0  0  0  0  0  3  0  0  0  0  0  0
  186.4100  177.7980  137.7390 C   0  0  2  0  0  3  0  0  0  0  0  0
  188.7970  177.2160  138.4650 C   0  0  1  0  0  0  0  0  0  0  0  0
  187.1600  178.5890  136.6410 C   0  0  2  0  0  3  0  0  0  0  0  0
  189.7230  177.6920  140.6940 C   0  0  2  0  0  3  0  0  0  0  0  0
  189.5220  178.2450  139.2990 C   0  0  1  0  0  3  0  0  0  0  0  0
  189.1930  177.2220  137.0260 C   0  0  0  0  0  3  0  0  0  0  0  0
  184.6420  178.2230  139.7110 C   0  0  2  0  0  0  0  0  0  0  0  0
  184.1590  177.6010  138.4170 C   0  0  2  0  0  3  0  0  0  0  0  0
  185.7650  179.1490  139.6180 N   0  0  0  0  0  2  0  0  0  0  0  0
  183.5250  179.0520  140.4040 C   0  0  1  0  0  3  0  0  0  0  0  0
  185.2580  178.6250  138.3480 C   0  0  2  0  0  0  0  0  0  0  0  0
  182.2160  179.1630  138.2540 C   0  0  0  0  0  0  0  0  0  0  0  0
  182.5770  179.7040  139.5110 N   0  0  0  0  0  2  0  0  0  0  0  0
  182.9350  178.1660  137.7430 C   0  0  0  0  0  3  0  0  0  0  0  0
  182.8210  178.3470  141.4910 N   0  0  0  0  0  0  0  0  0  0  0  0
  181.4250  178.7660  141.4890 C   0  0  0  0  0  2  0  0  0  0  0  0
  183.3710  178.6820  142.7980 C   0  0  0  0  0  2  0  0  0  0  0  0
  182.2120  178.7970  143.7570 C   0  0  0  0  0  2  0  0  0  0  0  0
  181.0360  179.1620  142.8970 C   0  0  0  0  0  2  0  0  0  0  0  0
  181.0180  179.7070  137.5410 C   0  0  0  0  0  3  0  0  0  0  0  0
  180.7660  178.9610  136.2450 C   0  0  0  0  0  1  0  0  0  0  0  0
  181.1240  181.2010  137.2750 C   0  0  0  0  0  1  0  0  0  0  0  0
  191.1170  178.0230  141.1890 C   0  0  0  0  0  2  0  0  0  0  0  0
  191.8990  176.4680  142.7670 C   0  0  0  0  0  2  0  0  0  0  0  0
  191.2120  177.7480  142.6130 N   0  0  0  0  0  0  0  0  0  0  0  0
  190.9650  177.5750  145.4170 O   0  0  0  0  0  0  0  0  0  0  0  0
  189.8490  177.5430  143.1100 C   0  0  1  0  0  3  0  0  0  0  0  0
  191.6950  176.3850  145.2110 C   0  0  0  0  0  2  0  0  0  0  0  0
  189.8070  176.1920  143.8190 C   0  0  2  0  0  3  0  0  0  0  0  0
  189.7930  177.4560  144.6410 C   0  0  1  0  0  0  0  0  0  0  0  0
  191.2280  175.7500  143.9160 C   0  0  1  0  0  3  0  0  0  0  0  0
  188.4940  177.7740  146.6710 C   0  0  0  0  0  3  0  0  0  0  0  0
  187.2940  178.0010  147.3400 C   0  0  0  0  0  0  0  0  0  0  0  0
  186.1480  178.1430  146.6260 N   0  0  0  0  0  0  0  0  0  0  0  0
  186.1510  178.0640  145.2720 C   0  0  0  0  0  3  0  0  0  0  0  0
  187.3420  177.7380  143.3420 O   0  0  0  0  0  0  0  0  0  0  0  0
  187.2640  178.0910  149.0870 Cl  0  0  0  0  0  0  0  0  0  0  0  0
  188.5160  177.7150  145.3080 N   0  0  0  0  0  0  0  0  0  0  0  0
  187.3510  177.8420  144.5980 C   0  0  0  0  0  0  0  0  0  0  0  0
  186.2210  178.8760  135.4700 C   0  0  0  0  0  2  0  0  0  0  0  0
  186.0120  177.6530  134.5940 C   0  0  0  0  0  2  0  0  0  0  0  0
  184.5540  177.2350  134.6430 C   0  0  0  0  0  2  0  0  0  0  0  0
  183.3030  175.2620  135.0780 O   0  0  0  0  0  0  0  0  0  0  0  0
  185.6120  175.0580  135.3570 N   0  0  0  0  0  2  0  0  0  0  0  0
  184.4390  175.8060  135.0370 C   0  0  0  0  0  0  0  0  0  0  0  0
  185.0890  173.6400  137.1190 C   0  0  2  0  0  0  0  0  0  0  0  0
  186.5270  173.4670  136.6980 C   0  0  2  0  0  3  0  0  0  0  0  0
  184.7450  172.3440  137.6180 O   0  0  0  0  0  0  0  0  0  0  0  0
  185.5230  173.7030  135.6940 N   0  0  0  0  0  0  0  0  0  0  0  0
  183.7600  172.9680  136.8940 C   0  0  0  0  0  2  0  0  0  0  0  0
  187.0750  172.0440  136.5170 C   0  0  0  0  0  2  0  0  0  0  0  0
  188.4320  171.9570  134.6160 C   0  0  0  0  0  1  0  0  0  0  0  0
  187.0900  171.6950  135.1080 N   0  0  0  0  0  2  0  0  0  0  0  0
  1  7  1  0  0  0  0
  3  6  1  0  0  0  0
  3  9  2  0  0  0  0
  4 14  1  0  0  0  0
  4  2  1  0  0  0  0
  5  2  1  0  0  0  0
  5  8  1  0  0  0  0
  5  1  1  0  0  0  0
  6  4  1  0  0  0  0
  7 26  1  0  0  0  0
  8  1  1  0  0  0  0
  8  7  1  0  0  0  0
  9  5  1  0  0  0  0
 10 13  1  0  0  0  0
 11 10  1  0  0  0  0
 12 10  1  0  0  0  0
 13 18  1  0  0  0  0
 14 11  1  0  0  0  0
 14 12  1  0  0  0  0
 14 10  1  0  0  0  0
 15 16  1  0  0  0  0
 16 13  1  0  0  0  0
 17 15  2  0  0  0  0
 17 11  1  0  0  0  0
 18 20  1  0  0  0  0
 19 18  1  0  0  0  0
 19 22  1  0  0  0  0
 20 21  1  0  0  0  0
 22 21  1  0  0  0  0
 23 15  1  0  0  0  0
 24 23  1  0  0  0  0
 25 23  1  0  0  0  0
 26 28  1  0  0  0  0
 27 34  1  0  0  0  0
 28 27  1  0  0  0  0
 28 30  1  0  0  0  0
 30 32  1  0  0  0  0
 30 33  1  0  0  0  0
 31 29  1  0  0  0  0
 32 34  1  0  0  0  0
 32 33  1  0  0  0  0
 33 41  1  0  0  0  0
 33 29  1  0  0  0  0
 34 31  1  0  0  0  0
 35 36  2  0  0  0  0
 36 40  1  0  0  0  0
 37 36  1  0  0  0  0
 38 37  2  0  0  0  0
 39 42  2  0  0  0  0
 41 35  1  0  0  0  0
 42 38  1  0  0  0  0
 42 41  1  0  0  0  0
 43  6  1  0  0  0  0
 44 45  1  0  0  0  0
 44 43  1  0  0  0  0
 45 48  1  0  0  0  0
 47 52  1  0  0  0  0
 48 46  2  0  0  0  0
 48 47  1  0  0  0  0
 49 51  1  0  0  0  0
 50 49  1  0  0  0  0
 52 50  1  0  0  0  0
 52 49  1  0  0  0  0
 53 49  1  0  0  0  0
 53 51  1  0  0  0  0
 54 50  1  0  0  0  0
 55 56  1  0  0  0  0
 56 54  1  0  0  0  0
M  END
>  <MODEL>
5

>  <REMARK>
 VINA RESULT:      -7.0      4.405      8.944
  Name = 
  13 active torsions:
  status: ('A' for Active; 'I' for Inactive)
    1  A    between atoms: C_4  and  C_25
    2  A    between atoms: N_6  and  C_13
    3  A    between atoms: N_7  and  C_8
    4  A    between atoms: C_8  and  C_53
    5  A    between atoms: C_19  and  C_27
    6  A    between atoms: C_26  and  C_45
    7  A    between atoms: C_35  and  N_43
    8  A    between atoms: N_36  and  N_38
    9  A    between atoms: C_37  and  C_42
   10  A    between atoms: C_37  and  C_51
   11  A    between atoms: C_42  and  C_52
   12  A    between atoms: C_45  and  N_47
   13  A    between atoms: C_48  and  C_52
                            x       y       z     vdW  Elec       q    Type
                         _______ _______ _______ _____ _____    ______ ____

>  <TORSDO>
F 13

$$$$
=
 OpenBabel10222420553D

 56 68  0  0  1  0  0  0  0  0999 V2000
  188.8140  178.3040  139.1760 C   0  0  2  0  0  3  0  0  0  0  0  0
  186.2490  178.7700  139.3160 C   0  0  0  0  0  2  0  0  0  0  0  0
  186.6440  178.7910  142.2320 C   0  0  0  0  0  3  0  0  0  0  0  0
  185.0300  178.6910  140.2770 C   0  0  2  0  0  3  0  0  0  0  0  0
  187.5690  178.4690  140.0160 C   0  0  1  0  0  0  0  0  0  0  0  0
  185.3460  178.2080  141.7120 C   0  0  2  0  0  3  0  0  0  0  0  0
  188.6710  177.0480  138.3360 C   0  0  2  0  0  3  0  0  0  0  0  0
  188.1040  177.0840  139.7390 C   0  0  1  0  0  3  0  0  0  0  0  0
  187.7120  178.8960  141.4380 C   0  0  0  0  0  3  0  0  0  0  0  0
  183.2230  178.3870  138.3180 C   0  0  2  0  0  0  0  0  0  0  0  0
  182.8020  179.0740  139.6010 C   0  0  2  0  0  3  0  0  0  0  0  0
  184.2600  177.3670  138.4260 N   0  0  0  0  0  2  0  0  0  0  0  0
  182.0330  177.6470  137.6450 C   0  0  1  0  0  3  0  0  0  0  0  0
  183.8070  177.9580  139.6880 C   0  0  2  0  0  0  0  0  0  0  0  0
  180.7290  177.6950  139.8000 C   0  0  0  0  0  0  0  0  0  0  0  0
  181.0350  177.0990  138.5530 N   0  0  0  0  0  2  0  0  0  0  0  0
  181.5360  178.6330  140.2890 C   0  0  0  0  0  3  0  0  0  0  0  0
  181.3900  178.3910  136.5460 N   0  0  0  0  0  0  0  0  0  0  0  0
  181.2970  179.7950  136.9290 C   0  0  0  0  0  2  0  0  0  0  0  0
  180.0340  177.9210  136.2960 C   0  0  0  0  0  2  0  0  0  0  0  0
  179.1860  179.1330  135.9960 C   0  0  0  0  0  2  0  0  0  0  0  0
  179.8800  180.2690  136.6930 C   0  0  0  0  0  2  0  0  0  0  0  0
  179.4910  177.2730  140.5270 C   0  0  0  0  0  3  0  0  0  0  0  0
  179.4550  177.8500  141.9290 C   0  0  0  0  0  1  0  0  0  0  0  0
  179.3280  175.7610  140.5770 C   0  0  0  0  0  1  0  0  0  0  0  0
  189.9780  176.2820  138.3230 C   0  0  0  0  0  2  0  0  0  0  0  0
  190.7570  175.7090  136.1810 C   0  0  0  0  0  2  0  0  0  0  0  0
  189.9350  175.2520  137.2980 N   0  0  0  0  0  0  0  0  0  0  0  0
  189.3740  173.0960  135.5680 O   0  0  0  0  0  0  0  0  0  0  0  0
  188.5590  175.1930  136.7970 C   0  0  1  0  0  3  0  0  0  0  0  0
  190.2710  173.7910  134.7300 C   0  0  0  0  0  2  0  0  0  0  0  0
  188.6060  175.3620  135.2800 C   0  0  2  0  0  3  0  0  0  0  0  0
  188.3300  173.9990  135.8610 C   0  0  1  0  0  0  0  0  0  0  0  0
  190.0500  175.2800  134.9150 C   0  0  1  0  0  3  0  0  0  0  0  0
  186.0080  174.4410  135.2910 C   0  0  0  0  0  3  0  0  0  0  0  0
  184.6900  174.0350  135.1000 C   0  0  0  0  0  0  0  0  0  0  0  0
  184.3580  172.7330  135.2930 N   0  0  0  0  0  0  0  0  0  0  0  0
  185.2880  171.8210  135.6720 C   0  0  0  0  0  3  0  0  0  0  0  0
  187.4620  171.3770  136.2430 O   0  0  0  0  0  0  0  0  0  0  0  0
  183.4710  175.1970  134.6260 Cl  0  0  0  0  0  0  0  0  0  0  0  0
  186.9590  173.5310  135.6500 N   0  0  0  0  0  0  0  0  0  0  0  0
  186.6100  172.2220  135.8600 C   0  0  0  0  0  0  0  0  0  0  0  0
  184.1890  178.5580  142.6480 C   0  0  0  0  0  2  0  0  0  0  0  0
  184.6290  179.4700  143.7800 C   0  0  0  0  0  2  0  0  0  0  0  0
  184.5180  178.7330  145.1010 C   0  0  0  0  0  2  0  0  0  0  0  0
  185.9010  179.1380  146.9910 O   0  0  0  0  0  0  0  0  0  0  0  0
  186.9930  178.2460  145.1300 N   0  0  0  0  0  2  0  0  0  0  0  0
  185.8290  178.7250  145.8020 C   0  0  0  0  0  0  0  0  0  0  0  0
  189.1050  177.2900  144.9970 C   0  0  2  0  0  0  0  0  0  0  0  0
  188.3920  176.8470  146.2510 C   0  0  2  0  0  3  0  0  0  0  0  0
  190.4820  177.2480  145.3830 O   0  0  0  0  0  0  0  0  0  0  0  0
  188.2270  178.2000  145.7880 N   0  0  0  0  0  0  0  0  0  0  0  0
  190.1350  178.3110  144.5870 C   0  0  0  0  0  2  0  0  0  0  0  0
  189.1570  176.8760  147.5820 C   0  0  0  0  0  2  0  0  0  0  0  0
  187.9560  177.8960  149.3080 C   0  0  0  0  0  1  0  0  0  0  0  0
  188.9290  178.1400  148.2570 N   0  0  0  0  0  2  0  0  0  0  0  0
  1  8  1  0  0  0  0
  1  5  1  0  0  0  0
  2  5  1  0  0  0  0
  2  4  1  0  0  0  0
  4  6  1  0  0  0  0
  5  9  1  0  0  0  0
  6  3  1  0  0  0  0
  6 43  1  0  0  0  0
  7  1  1  0  0  0  0
  7  8  1  0  0  0  0
  8  5  1  0  0  0  0
  9  3  2  0  0  0  0
 10 12  1  0  0  0  0
 10 11  1  0  0  0  0
 10 14  1  0  0  0  0
 11 14  1  0  0  0  0
 11 17  1  0  0  0  0
 12 14  1  0  0  0  0
 13 10  1  0  0  0  0
 13 16  1  0  0  0  0
 14  4  1  0  0  0  0
 15 17  2  0  0  0  0
 15 23  1  0  0  0  0
 16 15  1  0  0  0  0
 18 19  1  0  0  0  0
 18 13  1  0  0  0  0
 20 18  1  0  0  0  0
 21 20  1  0  0  0  0
 21 22  1  0  0  0  0
 22 19  1  0  0  0  0
 23 25  1  0  0  0  0
 23 24  1  0  0  0  0
 26  7  1  0  0  0  0
 27 28  1  0  0  0  0
 28 26  1  0  0  0  0
 29 33  1  0  0  0  0
 30 28  1  0  0  0  0
 31 34  1  0  0  0  0
 31 29  1  0  0  0  0
 32 33  1  0  0  0  0
 32 30  1  0  0  0  0
 33 30  1  0  0  0  0
 34 32  1  0  0  0  0
 34 27  1  0  0  0  0
 35 41  1  0  0  0  0
 36 35  2  0  0  0  0
 36 37  1  0  0  0  0
 37 38  2  0  0  0  0
 38 42  1  0  0  0  0
 40 36  1  0  0  0  0
 41 42  1  0  0  0  0
 41 33  1  0  0  0  0
 42 39  2  0  0  0  0
 43 44  1  0  0  0  0
 44 45  1  0  0  0  0
 45 48  1  0  0  0  0
 47 52  1  0  0  0  0
 47 48  1  0  0  0  0
 48 46  2  0  0  0  0
 49 51  1  0  0  0  0
 49 52  1  0  0  0  0
 49 50  1  0  0  0  0
 50 54  1  0  0  0  0
 52 50  1  0  0  0  0
 53 49  1  0  0  0  0
 53 51  1  0  0  0  0
 54 56  1  0  0  0  0
 56 55  1  0  0  0  0
M  END
>  <MODEL>
6

>  <REMARK>
 VINA RESULT:      -6.9      4.183     10.055
  Name = 
  13 active torsions:
  status: ('A' for Active; 'I' for Inactive)
    1  A    between atoms: C_4  and  C_25
    2  A    between atoms: N_6  and  C_13
    3  A    between atoms: N_7  and  C_8
    4  A    between atoms: C_8  and  C_53
    5  A    between atoms: C_19  and  C_27
    6  A    between atoms: C_26  and  C_45
    7  A    between atoms: C_35  and  N_43
    8  A    between atoms: N_36  and  N_38
    9  A    between atoms: C_37  and  C_42
   10  A    between atoms: C_37  and  C_51
   11  A    between atoms: C_42  and  C_52
   12  A    between atoms: C_45  and  N_47
   13  A    between atoms: C_48  and  C_52
                            x       y       z     vdW  Elec       q    Type
                         _______ _______ _______ _____ _____    ______ ____

>  <TORSDO>
F 13

$$$$
=
 OpenBabel10222420553D

 56 68  0  0  1  0  0  0  0  0999 V2000
  185.0540  179.4740  142.7550 C   0  0  2  0  0  3  0  0  0  0  0  0
  186.2730  178.8850  140.5230 C   0  0  0  0  0  2  0  0  0  0  0  0
  183.5790  178.7900  139.3430 C   0  0  0  0  0  3  0  0  0  0  0  0
  186.0480  178.2470  139.1230 C   0  0  2  0  0  3  0  0  0  0  0  0
  184.9760  179.0620  141.3040 C   0  0  1  0  0  0  0  0  0  0  0  0
  184.5990  177.7970  138.8240 C   0  0  2  0  0  3  0  0  0  0  0  0
  185.6860  178.3460  143.5480 C   0  0  2  0  0  3  0  0  0  0  0  0
  184.7700  178.0280  142.3850 C   0  0  1  0  0  3  0  0  0  0  0  0
  183.7400  179.3780  140.5310 C   0  0  0  0  0  3  0  0  0  0  0  0
  188.5440  177.5260  138.4590 C   0  0  2  0  0  0  0  0  0  0  0  0
  187.4860  177.5830  137.3760 C   0  0  2  0  0  3  0  0  0  0  0  0
  188.0930  177.1870  139.8040 N   0  0  0  0  0  2  0  0  0  0  0  0
  189.6330  176.4610  138.1450 C   0  0  1  0  0  3  0  0  0  0  0  0
  187.0710  177.1520  138.7560 C   0  0  2  0  0  0  0  0  0  0  0  0
  188.1120  175.3350  136.4820 C   0  0  0  0  0  0  0  0  0  0  0  0
  189.1760  175.2870  137.4140 N   0  0  0  0  0  2  0  0  0  0  0  0
  187.3300  176.4110  136.4410 C   0  0  0  0  0  3  0  0  0  0  0  0
  190.8670  177.0030  137.5480 N   0  0  0  0  0  0  0  0  0  0  0  0
  191.0770  176.3620  136.2550 C   0  0  0  0  0  2  0  0  0  0  0  0
  192.0360  176.7160  138.3670 C   0  0  0  0  0  2  0  0  0  0  0  0
  193.1700  176.3780  137.4310 C   0  0  0  0  0  2  0  0  0  0  0  0
  192.5020  175.8580  136.1900 C   0  0  0  0  0  2  0  0  0  0  0  0
  187.9080  174.1850  135.5470 C   0  0  0  0  0  3  0  0  0  0  0  0
  186.5100  174.1980  134.9590 C   0  0  0  0  0  1  0  0  0  0  0  0
  188.1880  172.8410  136.2030 C   0  0  0  0  0  1  0  0  0  0  0  0
  184.9480  178.1570  144.8580 C   0  0  0  0  0  2  0  0  0  0  0  0
  185.7500  178.6180  147.0170 C   0  0  0  0  0  2  0  0  0  0  0  0
  185.8720  177.7050  145.8840 N   0  0  0  0  0  0  0  0  0  0  0  0
  187.9300  176.5710  147.4460 O   0  0  0  0  0  0  0  0  0  0  0  0
  187.2280  177.8840  145.3590 C   0  0  1  0  0  3  0  0  0  0  0  0
  187.5210  177.5700  148.3560 C   0  0  0  0  0  2  0  0  0  0  0  0
  188.0130  178.7230  146.3640 C   0  0  2  0  0  3  0  0  0  0  0  0
  188.2920  177.2450  146.2610 C   0  0  1  0  0  0  0  0  0  0  0  0
  187.1440  178.8120  147.5730 C   0  0  1  0  0  3  0  0  0  0  0  0
  189.6980  176.8060  144.3270 C   0  0  0  0  0  2  0  0  0  0  0  0
  190.9220  176.4870  143.7420 C   0  0  0  0  0  0  0  0  0  0  0  0
  192.0050  176.2790  144.5330 N   0  0  0  0  0  0  0  0  0  0  0  0
  191.9160  176.3750  145.8840 C   0  0  0  0  0  2  0  0  0  0  0  0
  190.6110  176.7540  147.7280 O   0  0  0  0  0  0  0  0  0  0  0  0
  191.0560  176.3440  142.0040 Cl  0  0  0  0  0  0  0  0  0  0  0  0
  189.5990  176.9280  145.6810 N   0  0  0  0  0  0  0  0  0  0  0  0
  190.6950  176.6980  146.4720 C   0  0  0  0  0  0  0  0  0  0  0  0
  184.4180  177.5790  137.3220 C   0  0  0  0  0  2  0  0  0  0  0  0
  182.9900  177.8420  136.8770 C   0  0  0  0  0  2  0  0  0  0  0  0
  182.5780  176.8050  135.8490 C   0  0  0  0  0  2  0  0  0  0  0  0
  181.4500  175.4680  137.4580 O   0  0  0  0  0  0  0  0  0  0  0  0
  182.9380  174.3180  136.0750 N   0  0  0  0  0  2  0  0  0  0  0  0
  182.2830  175.5080  136.5140 C   0  0  0  0  0  0  0  0  0  0  0  0
  183.0400  172.0300  135.6890 C   0  0  2  0  0  0  0  0  0  0  0  0
  181.6120  172.4820  135.8650 C   0  0  2  0  0  3  0  0  0  0  0  0
  183.0080  170.6820  136.1670 O   0  0  0  0  0  0  0  0  0  0  0  0
  182.6440  173.0840  136.6670 N   0  0  0  0  0  0  0  0  0  0  0  0
  184.1300  171.3930  136.5120 C   0  0  0  0  0  2  0  0  0  0  0  0
  180.6900  171.6690  136.7840 C   0  0  0  0  0  2  0  0  0  0  0  0
  178.9560  172.9480  137.6910 C   0  0  0  0  0  1  0  0  0  0  0  0
  180.3060  172.4680  137.9340 N   0  0  0  0  0  2  0  0  0  0  0  0
  1  7  1  0  0  0  0
  2  5  1  0  0  0  0
  3  9  2  0  0  0  0
  4  2  1  0  0  0  0
  5  8  1  0  0  0  0
  5  1  1  0  0  0  0
  6  4  1  0  0  0  0
  6  3  1  0  0  0  0
  7 26  1  0  0  0  0
  8  1  1  0  0  0  0
  8  7  1  0  0  0  0
  9  5  1  0  0  0  0
 10 14  1  0  0  0  0
 10 12  1  0  0  0  0
 11 10  1  0  0  0  0
 11 14  1  0  0  0  0
 13 10  1  0  0  0  0
 14  4  1  0  0  0  0
 14 12  1  0  0  0  0
 15 16  1  0  0  0  0
 16 13  1  0  0  0  0
 17 15  2  0  0  0  0
 17 11  1  0  0  0  0
 18 13  1  0  0  0  0
 18 20  1  0  0  0  0
 19 18  1  0  0  0  0
 21 20  1  0  0  0  0
 22 19  1  0  0  0  0
 22 21  1  0  0  0  0
 23 25  1  0  0  0  0
 23 15  1  0  0  0  0
 24 23  1  0  0  0  0
 26 28  1  0  0  0  0
 27 34  1  0  0  0  0
 28 27  1  0  0  0  0
 29 31  1  0  0  0  0
 30 28  1  0  0  0  0
 30 33  1  0  0  0  0
 30 32  1  0  0  0  0
 32 34  1  0  0  0  0
 33 32  1  0  0  0  0
 33 29  1  0  0  0  0
 34 31  1  0  0  0  0
 35 41  1  0  0  0  0
 36 35  1  0  0  0  0
 36 37  2  0  0  0  0
 37 38  1  0  0  0  0
 38 42  1  0  0  0  0
 40 36  1  0  0  0  0
 41 33  1  0  0  0  0
 41 42  1  0  0  0  0
 42 39  2  0  0  0  0
 43  6  1  0  0  0  0
 44 43  1  0  0  0  0
 45 48  1  0  0  0  0
 45 44  1  0  0  0  0
 47 48  1  0  0  0  0
 47 52  1  0  0  0  0
 48 46  2  0  0  0  0
 49 50  1  0  0  0  0
 49 51  1  0  0  0  0
 49 53  1  0  0  0  0
 49 52  1  0  0  0  0
 50 52  1  0  0  0  0
 50 54  1  0  0  0  0
 51 53  1  0  0  0  0
 54 56  1  0  0  0  0
 55 56  1  0  0  0  0
M  END
>  <MODEL>
7

>  <REMARK>
 VINA RESULT:      -6.8      4.040     10.489
  Name = 
  13 active torsions:
  status: ('A' for Active; 'I' for Inactive)
    1  A    between atoms: C_4  and  C_25
    2  A    between atoms: N_6  and  C_13
    3  A    between atoms: N_7  and  C_8
    4  A    between atoms: C_8  and  C_53
    5  A    between atoms: C_19  and  C_27
    6  A    between atoms: C_26  and  C_45
    7  A    between atoms: C_35  and  N_43
    8  A    between atoms: N_36  and  N_38
    9  A    between atoms: C_37  and  C_42
   10  A    between atoms: C_37  and  C_51
   11  A    between atoms: C_42  and  C_52
   12  A    between atoms: C_45  and  N_47
   13  A    between atoms: C_48  and  C_52
                            x       y       z     vdW  Elec       q    Type
                         _______ _______ _______ _____ _____    ______ ____

>  <TORSDO>
F 13

$$$$
=
 OpenBabel10222420553D

 56 68  0  0  1  0  0  0  0  0999 V2000
  188.0020  178.1070  137.1910 C   0  0  2  0  0  3  0  0  0  0  0  0
  185.6470  178.8500  138.0340 C   0  0  0  0  0  2  0  0  0  0  0  0
  186.7720  178.5540  140.7360 C   0  0  0  0  0  3  0  0  0  0  0  0
  184.7140  178.8230  139.2770 C   0  0  2  0  0  3  0  0  0  0  0  0
  187.0480  178.3360  138.3390 C   0  0  1  0  0  0  0  0  0  0  0  0
  185.3180  178.1760  140.5460 C   0  0  2  0  0  3  0  0  0  0  0  0
  187.4810  176.9600  136.3460 C   0  0  2  0  0  3  0  0  0  0  0  0
  187.3020  176.9300  137.8490 C   0  0  1  0  0  3  0  0  0  0  0  0
  187.6060  178.6090  139.6950 C   0  0  0  0  0  3  0  0  0  0  0  0
  182.3910  179.0010  137.9490 C   0  0  2  0  0  0  0  0  0  0  0  0
  182.4490  179.4740  139.3860 C   0  0  2  0  0  3  0  0  0  0  0  0
  183.2840  177.9080  137.5780 N   0  0  0  0  0  2  0  0  0  0  0  0
  180.9760  178.4770  137.5720 C   0  0  1  0  0  3  0  0  0  0  0  0
  183.2940  178.2940  138.9910 C   0  0  2  0  0  0  0  0  0  0  0  0
  180.3750  178.2290  140.0060 C   0  0  0  0  0  0  0  0  0  0  0  0
  180.2290  177.8460  138.6510 N   0  0  0  0  0  2  0  0  0  0  0  0
  181.3960  179.0060  140.3570 C   0  0  0  0  0  3  0  0  0  0  0  0
  180.1350  179.4480  136.8490 N   0  0  0  0  0  0  0  0  0  0  0  0
  180.5240  179.4440  135.4440 C   0  0  0  0  0  2  0  0  0  0  0  0
  180.3270  180.8040  137.3460 C   0  0  0  0  0  2  0  0  0  0  0  0
  180.3070  181.7280  136.1530 C   0  0  0  0  0  2  0  0  0  0  0  0
  180.7450  180.8720  134.9980 C   0  0  0  0  0  2  0  0  0  0  0  0
  179.3610  177.7710  141.0080 C   0  0  0  0  0  3  0  0  0  0  0  0
  179.7220  178.2380  142.4050 C   0  0  0  0  0  1  0  0  0  0  0  0
  179.1650  176.2620  140.9930 C   0  0  0  0  0  1  0  0  0  0  0  0
  188.6250  176.0520  135.9410 C   0  0  0  0  0  2  0  0  0  0  0  0
  189.0640  173.8350  135.2990 C   0  0  0  0  0  2  0  0  0  0  0  0
  188.2720  174.6670  136.2010 N   0  0  0  0  0  0  0  0  0  0  0  0
  187.1120  172.1990  136.9220 O   0  0  0  0  0  0  0  0  0  0  0  0
  186.8730  174.4910  135.7980 C   0  0  1  0  0  3  0  0  0  0  0  0
  188.0520  171.7090  135.9910 C   0  0  0  0  0  2  0  0  0  0  0  0
  186.8130  173.3260  134.8130 C   0  0  2  0  0  3  0  0  0  0  0  0
  186.3130  173.1260  136.2200 C   0  0  1  0  0  0  0  0  0  0  0  0
  188.1680  172.7020  134.8520 C   0  0  1  0  0  3  0  0  0  0  0  0
  184.1540  173.8760  137.0500 C   0  0  0  0  0  3  0  0  0  0  0  0
  182.7730  173.7460  137.1780 C   0  0  0  0  0  0  0  0  0  0  0  0
  182.1420  172.7010  136.5840 N   0  0  0  0  0  0  0  0  0  0  0  0
  182.8350  171.7780  135.8700 C   0  0  0  0  0  3  0  0  0  0  0  0
  184.8580  171.0290  135.0980 O   0  0  0  0  0  0  0  0  0  0  0  0
  181.8610  174.9160  138.1070 Cl  0  0  0  0  0  0  0  0  0  0  0  0
  184.8600  172.9690  136.3160 N   0  0  0  0  0  0  0  0  0  0  0  0
  184.2170  171.9070  135.7360 C   0  0  0  0  0  0  0  0  0  0  0  0
  184.4970  178.5690  141.7750 C   0  0  0  0  0  2  0  0  0  0  0  0
  185.3160  179.3660  142.7750 C   0  0  0  0  0  2  0  0  0  0  0  0
  185.1160  178.7960  144.1660 C   0  0  0  0  0  2  0  0  0  0  0  0
  186.1590  177.1490  145.5250 O   0  0  0  0  0  0  0  0  0  0  0  0
  187.4670  177.9690  143.7730 N   0  0  0  0  0  2  0  0  0  0  0  0
  186.2630  177.9260  144.5380 C   0  0  0  0  0  0  0  0  0  0  0  0
  189.5790  177.9820  144.7360 C   0  0  2  0  0  0  0  0  0  0  0  0
  189.6520  177.5720  143.2870 C   0  0  2  0  0  3  0  0  0  0  0  0
  190.6900  177.2930  145.3180 O   0  0  0  0  0  0  0  0  0  0  0  0
  188.5420  177.1300  144.0890 N   0  0  0  0  0  0  0  0  0  0  0  0
  189.5580  177.3290  146.0940 C   0  0  0  0  0  2  0  0  0  0  0  0
  190.5000  176.3480  142.9100 C   0  0  0  0  0  2  0  0  0  0  0  0
  191.6590  177.4870  141.2290 C   0  0  0  0  0  1  0  0  0  0  0  0
  190.7800  176.3590  141.4860 N   0  0  0  0  0  2  0  0  0  0  0  0
  1  8  1  0  0  0  0
  1  5  1  0  0  0  0
  2  5  1  0  0  0  0
  2  4  1  0  0  0  0
  4  6  1  0  0  0  0
  5  9  1  0  0  0  0
  6  3  1  0  0  0  0
  6 43  1  0  0  0  0
  7  1  1  0  0  0  0
  7  8  1  0  0  0  0
  8  5  1  0  0  0  0
  9  3  2  0  0  0  0
 10 14  1  0  0  0  0
 10 11  1  0  0  0  0
 11 17  1  0  0  0  0
 12 10  1  0  0  0  0
 12 14  1  0  0  0  0
 13 10  1  0  0  0  0
 13 16  1  0  0  0  0
 14  4  1  0  0  0  0
 14 11  1  0  0  0  0
 15 17  2  0  0  0  0
 15 23  1  0  0  0  0
 16 15  1  0  0  0  0
 18 20  1  0  0  0  0
 18 13  1  0  0  0  0
 19 18  1  0  0  0  0
 21 20  1  0  0  0  0
 22 19  1  0  0  0  0
 22 21  1  0  0  0  0
 23 24  1  0  0  0  0
 25 23  1  0  0  0  0
 26 28  1  0  0  0  0
 26  7  1  0  0  0  0
 27 28  1  0  0  0  0
 30 28  1  0  0  0  0
 30 33  1  0  0  0  0
 31 29  1  0  0  0  0
 32 34  1  0  0  0  0
 32 30  1  0  0  0  0
 32 33  1  0  0  0  0
 33 41  1  0  0  0  0
 33 29  1  0  0  0  0
 34 27  1  0  0  0  0
 34 31  1  0  0  0  0
 35 36  2  0  0  0  0
 36 40  1  0  0  0  0
 37 36  1  0  0  0  0
 38 37  2  0  0  0  0
 39 42  2  0  0  0  0
 41 35  1  0  0  0  0
 42 38  1  0  0  0  0
 42 41  1  0  0  0  0
 43 44  1  0  0  0  0
 44 45  1  0  0  0  0
 45 48  1  0  0  0  0
 47 52  1  0  0  0  0
 47 48  1  0  0  0  0
 48 46  2  0  0  0  0
 49 51  1  0  0  0  0
 49 53  1  0  0  0  0
 50 52  1  0  0  0  0
 50 49  1  0  0  0  0
 51 53  1  0  0  0  0
 52 49  1  0  0  0  0
 54 50  1  0  0  0  0
 55 56  1  0  0  0  0
 56 54  1  0  0  0  0
M  END
>  <MODEL>
8

>  <REMARK>
 VINA RESULT:      -6.8      4.405      9.145
  Name = 
  13 active torsions:
  status: ('A' for Active; 'I' for Inactive)
    1  A    between atoms: C_4  and  C_25
    2  A    between atoms: N_6  and  C_13
    3  A    between atoms: N_7  and  C_8
    4  A    between atoms: C_8  and  C_53
    5  A    between atoms: C_19  and  C_27
    6  A    between atoms: C_26  and  C_45
    7  A    between atoms: C_35  and  N_43
    8  A    between atoms: N_36  and  N_38
    9  A    between atoms: C_37  and  C_42
   10  A    between atoms: C_37  and  C_51
   11  A    between atoms: C_42  and  C_52
   12  A    between atoms: C_45  and  N_47
   13  A    between atoms: C_48  and  C_52
                            x       y       z     vdW  Elec       q    Type
                         _______ _______ _______ _____ _____    ______ ____

>  <TORSDO>
F 13

$$$$
=
 OpenBabel10222420553D

 56 68  0  0  1  0  0  0  0  0999 V2000
  191.0360  176.6940  141.3650 C   0  0  2  0  0  3  0  0  0  0  0  0
  189.4580  176.2780  139.3280 C   0  0  0  0  0  2  0  0  0  0  0  0
  191.8950  176.4820  137.6900 C   0  0  0  0  0  3  0  0  0  0  0  0
  189.3590  176.4510  137.7860 C   0  0  2  0  0  3  0  0  0  0  0  0
  190.8430  176.6130  139.8690 C   0  0  1  0  0  0  0  0  0  0  0  0
  190.6160  177.0410  137.1020 C   0  0  2  0  0  3  0  0  0  0  0  0
  190.2530  177.8810  141.8940 C   0  0  2  0  0  3  0  0  0  0  0  0
  190.9240  177.9640  140.5390 C   0  0  1  0  0  3  0  0  0  0  0  0
  192.0190  176.2980  139.0070 C   0  0  0  0  0  3  0  0  0  0  0  0
  186.9460  177.4920  138.3200 C   0  0  2  0  0  0  0  0  0  0  0  0
  187.0260  176.1310  137.6610 C   0  0  2  0  0  3  0  0  0  0  0  0
  188.0220  178.4320  138.0220 N   0  0  0  0  0  2  0  0  0  0  0  0
  185.6540  178.2550  137.9110 C   0  0  1  0  0  3  0  0  0  0  0  0
  188.0710  177.1540  137.3090 C   0  0  2  0  0  0  0  0  0  0  0  0
  185.3400  176.7410  135.9220 C   0  0  0  0  0  0  0  0  0  0  0  0
  185.1630  177.9890  136.5660 N   0  0  0  0  0  2  0  0  0  0  0  0
  186.1910  175.8570  136.4360 C   0  0  0  0  0  3  0  0  0  0  0  0
  184.5590  178.1760  138.8950 N   0  0  0  0  0  0  0  0  0  0  0  0
  183.4750  177.3890  138.3200 C   0  0  0  0  0  2  0  0  0  0  0  0
  184.0180  179.4920  139.2080 C   0  0  0  0  0  2  0  0  0  0  0  0
  182.5210  179.3440  139.3350 C   0  0  0  0  0  2  0  0  0  0  0  0
  182.1790  178.1520  138.4880 C   0  0  0  0  0  2  0  0  0  0  0  0
  184.5460  176.4350  134.6910 C   0  0  0  0  0  3  0  0  0  0  0  0
  183.3080  177.3080  134.6080 C   0  0  0  0  0  1  0  0  0  0  0  0
  184.1600  174.9670  134.5940 C   0  0  0  0  0  1  0  0  0  0  0  0
  191.0750  178.6240  142.9280 C   0  0  0  0  0  2  0  0  0  0  0  0
  191.1370  177.1650  144.7680 C   0  0  0  0  0  2  0  0  0  0  0  0
  190.5290  178.3890  144.2540 N   0  0  0  0  0  0  0  0  0  0  0  0
  189.0460  178.2620  146.6500 O   0  0  0  0  0  0  0  0  0  0  0  0
  189.1010  178.1000  144.0920 C   0  0  1  0  0  3  0  0  0  0  0  0
  189.8510  177.1220  146.8580 C   0  0  0  0  0  2  0  0  0  0  0  0
  188.8130  176.7650  144.7760 C   0  0  2  0  0  3  0  0  0  0  0  0
  188.3620  178.0430  145.4350 C   0  0  1  0  0  0  0  0  0  0  0  0
  190.0570  176.4270  145.5260 C   0  0  1  0  0  3  0  0  0  0  0  0
  186.2520  178.2540  144.2460 C   0  0  0  0  0  3  0  0  0  0  0  0
  184.8730  178.4440  144.2120 C   0  0  0  0  0  0  0  0  0  0  0  0
  184.1950  178.6230  145.3740 N   0  0  0  0  0  0  0  0  0  0  0  0
  184.8380  178.6210  146.5690 C   0  0  0  0  0  3  0  0  0  0  0  0
  186.8140  178.4570  147.7170 O   0  0  0  0  0  0  0  0  0  0  0  0
  184.0250  178.4660  142.6820 Cl  0  0  0  0  0  0  0  0  0  0  0  0
  186.9090  178.2270  145.4400 N   0  0  0  0  0  0  0  0  0  0  0  0
  186.2180  178.4260  146.6070 C   0  0  0  0  0  0  0  0  0  0  0  0
  190.5610  176.7830  135.5960 C   0  0  0  0  0  2  0  0  0  0  0  0
  190.3390  175.3150  135.2780 C   0  0  0  0  0  2  0  0  0  0  0  0
  191.6030  174.7280  134.6770 C   0  0  0  0  0  2  0  0  0  0  0  0
  191.7310  172.9010  136.1920 O   0  0  0  0  0  0  0  0  0  0  0  0
  193.6540  174.2190  136.0560 N   0  0  0  0  0  2  0  0  0  0  0  0
  192.3150  173.8950  135.6820 C   0  0  0  0  0  0  0  0  0  0  0  0
  195.6380  174.1170  137.2560 C   0  0  2  0  0  0  0  0  0  0  0  0
  195.5300  172.9580  136.2970 C   0  0  2  0  0  3  0  0  0  0  0  0
  196.4260  173.5750  138.3200 O   0  0  0  0  0  0  0  0  0  0  0  0
  194.3490  173.4240  136.9740 N   0  0  0  0  0  0  0  0  0  0  0  0
  195.4010  174.3960  138.7170 C   0  0  0  0  0  2  0  0  0  0  0  0
  195.8610  171.5470  136.8050 C   0  0  0  0  0  2  0  0  0  0  0  0
  194.8880  169.6360  137.7350 C   0  0  0  0  0  1  0  0  0  0  0  0
  194.6640  170.7250  136.8000 N   0  0  0  0  0  2  0  0  0  0  0  0
  1  7  1  0  0  0  0
  2  5  1  0  0  0  0
  3  9  2  0  0  0  0
  4  2  1  0  0  0  0
  5  8  1  0  0  0  0
  5  1  1  0  0  0  0
  6  3  1  0  0  0  0
  6  4  1  0  0  0  0
  7 26  1  0  0  0  0
  8  1  1  0  0  0  0
  8  7  1  0  0  0  0
  9  5  1  0  0  0  0
 11 10  1  0  0  0  0
 12 10  1  0  0  0  0
 13 10  1  0  0  0  0
 13 18  1  0  0  0  0
 14 11  1  0  0  0  0
 14  4  1  0  0  0  0
 14 12  1  0  0  0  0
 14 10  1  0  0  0  0
 15 17  2  0  0  0  0
 15 16  1  0  0  0  0
 16 13  1  0  0  0  0
 17 11  1  0  0  0  0
 18 20  1  0  0  0  0
 19 22  1  0  0  0  0
 19 18  1  0  0  0  0
 20 21  1  0  0  0  0
 22 21  1  0  0  0  0
 23 15  1  0  0  0  0
 24 23  1  0  0  0  0
 25 23  1  0  0  0  0
 26 28  1  0  0  0  0
 27 34  1  0  0  0  0
 28 27  1  0  0  0  0
 29 31  1  0  0  0  0
 30 28  1  0  0  0  0
 30 32  1  0  0  0  0
 30 33  1  0  0  0  0
 32 33  1  0  0  0  0
 32 34  1  0  0  0  0
 33 41  1  0  0  0  0
 33 29  1  0  0  0  0
 34 31  1  0  0  0  0
 35 41  1  0  0  0  0
 36 35  2  0  0  0  0
 36 37  1  0  0  0  0
 37 38  2  0  0  0  0
 38 42  1  0  0  0  0
 40 36  1  0  0  0  0
 41 42  1  0  0  0  0
 42 39  2  0  0  0  0
 43  6  1  0  0  0  0
 44 43  1  0  0  0  0
 45 44  1  0  0  0  0
 45 48  1  0  0  0  0
 47 52  1  0  0  0  0
 48 47  1  0  0  0  0
 48 46  2  0  0  0  0
 49 51  1  0  0  0  0
 49 53  1  0  0  0  0
 50 54  1  0  0  0  0
 50 52  1  0  0  0  0
 50 49  1  0  0  0  0
 51 53  1  0  0  0  0
 52 49  1  0  0  0  0
 56 54  1  0  0  0  0
 56 55  1  0  0  0  0
M  END
>  <MODEL>
9

>  <REMARK>
 VINA RESULT:      -6.8      2.877      7.354
  Name = 
  13 active torsions:
  status: ('A' for Active; 'I' for Inactive)
    1  A    between atoms: C_4  and  C_25
    2  A    between atoms: N_6  and  C_13
    3  A    between atoms: N_7  and  C_8
    4  A    between atoms: C_8  and  C_53
    5  A    between atoms: C_19  and  C_27
    6  A    between atoms: C_26  and  C_45
    7  A    between atoms: C_35  and  N_43
    8  A    between atoms: N_36  and  N_38
    9  A    between atoms: C_37  and  C_42
   10  A    between atoms: C_37  and  C_51
   11  A    between atoms: C_42  and  C_52
   12  A    between atoms: C_45  and  N_47
   13  A    between atoms: C_48  and  C_52
                            x       y       z     vdW  Elec       q    Type
                         _______ _______ _______ _____ _____    ______ ____

>  <TORSDO>
F 13

$$$$
