=
 OpenBabel10222418023D

 58 69  0  0  1  0  0  0  0  0999 V2000
  190.0850  172.1370  134.5950 C   0  0  0  0  0  3  0  0  0  0  0  0
  188.7370  178.3840  136.4780 C   0  0  0  0  0  2  0  0  0  0  0  0
  190.0150  176.4420  136.9640 C   0  0  0  0  0  2  0  0  0  0  0  0
  187.1740  176.2100  137.4890 O   0  0  0  0  0  0  0  0  0  0  0  0
  196.0150  170.4140  136.6400 O   0  0  0  0  0  0  0  0  0  0  0  0
  191.9180  172.7570  136.0710 C   0  0  0  0  0  0  0  0  0  0  0  0
  189.9050  174.1180  135.9850 C   0  0  0  0  0  0  0  0  0  0  0  0
  187.8900  175.0220  137.2170 C   0  0  1  0  0  3  0  0  0  0  0  0
  186.8990  174.0070  136.6720 C   0  0  2  0  0  3  0  0  0  0  0  0
  187.9580  176.9820  138.3710 C   0  0  2  0  0  3  0  0  0  0  0  0
  191.1860  173.8670  136.5050 C   0  0  0  0  0  3  0  0  0  0  0  0
  185.7100  172.7410  134.8970 C   0  0  0  0  0  2  0  0  0  0  0  0
  186.9240  173.4430  135.4340 C   0  0  2  0  0  3  0  0  0  0  0  0
  195.2780  172.4470  137.7850 C   0  0  2  0  0  3  0  0  0  0  0  0
  193.3850  170.5260  135.1420 C   0  0  0  0  0  3  0  0  0  0  0  0
  189.3460  173.2320  135.0600 C   0  0  0  0  0  0  0  0  0  0  0  0
  184.5110  174.5390  137.1350 C   0  0  0  0  0  2  0  0  0  0  0  0
  195.1610  171.3260  136.7990 C   0  0  0  0  0  0  0  0  0  0  0  0
  187.4420  178.3530  138.5790 N   0  0  0  0  0  0  0  0  0  0  0  0
  184.5480  173.7110  134.7280 C   0  0  0  0  0  2  0  0  0  0  0  0
  193.9010  171.3950  136.1080 C   0  0  0  0  0  0  0  0  0  0  0  0
  183.7410  173.8270  136.0200 C   0  0  2  0  0  3  0  0  0  0  0  0
  193.9560  173.2300  137.6150 C   0  0  0  0  0  2  0  0  0  0  0  0
  189.1650  177.4990  137.6480 C   0  0  2  0  0  0  0  0  0  0  0  0
  193.1970  172.4790  136.5670 C   0  0  0  0  0  0  0  0  0  0  0  0
  188.0450  173.4210  134.5950 O   0  0  0  0  0  0  0  0  0  0  0  0
  192.1040  170.7860  134.6310 C   0  0  0  0  0  3  0  0  0  0  0  0
  191.3680  171.8930  135.0890 C   0  0  0  0  0  0  0  0  0  0  0  0
  188.6220  178.8990  137.8770 C   0  0  1  0  0  3  0  0  0  0  0  0
  185.7300  173.7420  137.5800 C   0  0  0  0  0  2  0  0  0  0  0  0
  189.1240  175.3450  136.3390 C   0  0  1  0  0  3  0  0  0  0  0  0
  182.3920  174.5020  135.7530 C   0  0  1  0  0  3  0  0  0  0  0  0
  181.6950  173.8210  134.7520 O   0  0  0  0  0  1  0  0  0  0  0  0
  179.2640  175.7590  140.5750 N   0  0  0  0  0  0  0  0  0  0  0  0
  179.0120  174.4120  140.5990 C   0  0  0  0  0  3  0  0  0  0  0  0
  180.9370  173.5880  137.5890 N   0  0  0  0  0  0  0  0  0  0  0  0
  180.3250  174.1700  138.6290 C   0  0  0  0  0  0  0  0  0  0  0  0
  179.5480  173.5660  139.6090 C   0  0  0  0  0  3  0  0  0  0  0  0
  180.5650  175.5050  138.6250 C   0  0  0  0  0  0  0  0  0  0  0  0
  180.0340  176.3340  139.6050 C   0  0  0  0  0  3  0  0  0  0  0  0
  181.3400  175.8410  137.5870 N   0  0  0  0  0  2  0  0  0  0  0  0
  181.5410  174.6430  136.9790 C   0  0  0  0  0  0  0  0  0  0  0  0
  186.2210  178.6420  137.8180 C   0  0  0  0  0  2  0  0  0  0  0  0
  183.7510  178.6360  138.2060 C   0  0  0  0  0  3  0  0  0  0  0  0
  184.1330  178.8790  140.9650 C   0  0  0  0  0  3  0  0  0  0  0  0
  182.6460  178.7060  139.0590 C   0  0  0  0  0  3  0  0  0  0  0  0
  185.0480  178.6910  138.7300 C   0  0  0  0  0  0  0  0  0  0  0  0
  185.2370  178.8140  140.1120 C   0  0  0  0  0  3  0  0  0  0  0  0
  182.8370  178.8270  140.4390 C   0  0  0  0  0  3  0  0  0  0  0  0
  196.4820  173.3500  137.4740 C   0  0  1  0  0  3  0  0  0  0  0  0
  197.3070  172.8340  136.4460 O   0  0  0  0  0  0  0  0  0  0  0  0
  198.3730  173.7260  136.2190 C   0  0  0  0  0  1  0  0  0  0  0  0
  196.0610  174.7230  137.1930 N   0  0  0  0  0  2  0  0  0  0  0  0
  195.9630  176.0560  135.3090 C   0  0  0  0  0  2  0  0  0  0  0  0
  195.5690  174.7500  135.8770 N   0  0  0  0  0  0  0  0  0  0  0  0
  193.6070  175.6140  134.5940 C   0  0  0  0  0  1  0  0  0  0  0  0
  194.1430  176.5980  136.9710 C   0  0  0  0  0  1  0  0  0  0  0  0
  194.5880  175.8470  135.7220 C   0  0  0  0  0  0  0  0  0  0  0  0
  1 16  2  0  0  0  0
  1 28  1  0  0  0  0
  3 24  1  0  0  0  0
  5 18  2  0  0  0  0
  6 11  1  0  0  0  0
  6 25  1  0  0  0  0
  7 31  1  0  0  0  0
  7 11  2  0  0  0  0
  8  4  1  6  0  0  0
  9  8  1  0  0  0  0
  9 30  1  6  0  0  0
 10  4  1  6  0  0  0
 10 19  1  0  0  0  0
 13 12  1  1  0  0  0
 13  9  1  0  0  0  0
 14 50  1  6  0  0  0
 15 21  1  0  0  0  0
 16  7  1  0  0  0  0
 17 30  1  0  0  0  0
 18 14  1  0  0  0  0
 20 12  1  0  0  0  0
 20 22  1  0  0  0  0
 21 25  2  0  0  0  0
 21 18  1  0  0  0  0
 22 32  1  6  0  0  0
 22 17  1  0  0  0  0
 23 14  1  0  0  0  0
 24  2  1  6  0  0  0
 24 29  1  0  0  0  0
 24 10  1  0  0  0  0
 25 23  1  0  0  0  0
 26 16  1  0  0  0  0
 26 13  1  0  0  0  0
 27 28  1  0  0  0  0
 27 15  2  0  0  0  0
 28  6  2  0  0  0  0
 29  2  1  6  0  0  0
 29 19  1  0  0  0  0
 31  3  1  1  0  0  0
 31  8  1  0  0  0  0
 32 33  1  6  0  0  0
 32 42  1  0  0  0  0
 34 35  1  0  0  0  0
 36 37  1  0  0  0  0
 37 38  1  0  0  0  0
 38 35  2  0  0  0  0
 39 37  2  0  0  0  0
 39 40  1  0  0  0  0
 40 34  2  0  0  0  0
 41 39  1  0  0  0  0
 42 41  1  0  0  0  0
 42 36  2  0  0  0  0
 43 19  1  0  0  0  0
 43 47  1  0  0  0  0
 44 47  2  0  0  0  0
 44 46  1  0  0  0  0
 46 49  2  0  0  0  0
 47 48  1  0  0  0  0
 48 45  2  0  0  0  0
 49 45  1  0  0  0  0
 50 51  1  6  0  0  0
 52 51  1  0  0  0  0
 53 50  1  0  0  0  0
 54 58  1  0  0  0  0
 54 55  1  0  0  0  0
 55 53  1  0  0  0  0
 56 58  1  0  0  0  0
 58 55  1  0  0  0  0
 58 57  1  0  0  0  0
M  END
>  <MODEL>
1

>  <REMARK>
 VINA RESULT:      -6.9      0.000      0.000
  Name = 
  8 active torsions:
  status: ('A' for Active; 'I' for Inactive)
    1  A    between atoms: C_5  and  N_34
    2  A    between atoms: C_5  and  C_36
    3  A    between atoms: O_8  and  C_37
    4  A    between atoms: C_21  and  C_40
    5  A    between atoms: C_21  and  C_58
    6  A    between atoms: N_26  and  N_54
    7  A    between atoms: C_27  and  C_37
    8  A    between atoms: C_37  and  N_54
                            x       y       z     vdW  Elec       q    Type
                         _______ _______ _______ _____ _____    ______ ____

>  <TORSDO>
F 8

$$$$
=
 OpenBabel10222418023D

 58 69  0  0  1  0  0  0  0  0999 V2000
  183.6750  176.3700  136.5140 C   0  0  0  0  0  3  0  0  0  0  0  0
  187.1770  177.4370  142.0810 C   0  0  0  0  0  2  0  0  0  0  0  0
  185.7880  178.4420  140.4380 C   0  0  0  0  0  2  0  0  0  0  0  0
  188.4340  177.6910  139.5220 O   0  0  0  0  0  0  0  0  0  0  0  0
  178.9310  180.7870  135.9740 O   0  0  0  0  0  0  0  0  0  0  0  0
  182.8460  178.4870  137.3810 C   0  0  0  0  0  0  0  0  0  0  0  0
  184.9030  177.5300  138.2560 C   0  0  0  0  0  0  0  0  0  0  0  0
  187.4020  177.7640  138.5590 C   0  0  1  0  0  3  0  0  0  0  0  0
  187.7900  176.8530  137.4050 C   0  0  2  0  0  3  0  0  0  0  0  0
  188.3090  178.8190  140.3590 C   0  0  2  0  0  3  0  0  0  0  0  0
  183.9400  178.5530  138.2490 C   0  0  0  0  0  3  0  0  0  0  0  0
  187.7730  174.7490  136.0860 C   0  0  0  0  0  2  0  0  0  0  0  0
  187.1100  175.7510  136.9870 C   0  0  2  0  0  3  0  0  0  0  0  0
  180.5540  181.4860  137.6660 C   0  0  2  0  0  3  0  0  0  0  0  0
  180.6260  178.3000  135.6400 C   0  0  0  0  0  3  0  0  0  0  0  0
  184.7850  176.4610  137.3640 C   0  0  0  0  0  0  0  0  0  0  0  0
  190.2010  176.2360  137.3390 C   0  0  0  0  0  2  0  0  0  0  0  0
  179.9670  180.5540  136.6510 C   0  0  0  0  0  0  0  0  0  0  0  0
  189.1840  178.7730  141.5520 N   0  0  0  0  0  0  0  0  0  0  0  0
  188.9550  174.0870  136.7830 C   0  0  0  0  0  2  0  0  0  0  0  0
  180.7940  179.3870  136.5020 C   0  0  0  0  0  0  0  0  0  0  0  0
  190.2310  174.9030  136.5860 C   0  0  2  0  0  3  0  0  0  0  0  0
  181.8300  180.7550  138.1450 C   0  0  0  0  0  2  0  0  0  0  0  0
  187.0770  178.6830  141.2030 C   0  0  2  0  0  0  0  0  0  0  0  0
  181.8690  179.4890  137.3500 C   0  0  0  0  0  0  0  0  0  0  0  0
  185.7720  175.4780  137.3010 O   0  0  0  0  0  0  0  0  0  0  0  0
  181.5950  177.2840  135.6540 C   0  0  0  0  0  3  0  0  0  0  0  0
  182.7020  177.3700  136.5180 C   0  0  0  0  0  0  0  0  0  0  0  0
  187.9920  178.6450  142.4160 C   0  0  1  0  0  3  0  0  0  0  0  0
  189.1280  177.1700  136.7960 C   0  0  0  0  0  2  0  0  0  0  0  0
  186.0350  177.5020  139.2350 C   0  0  1  0  0  3  0  0  0  0  0  0
  191.4630  174.0750  136.9640 C   0  0  1  0  0  3  0  0  0  0  0  0
  191.3520  172.7770  136.4580 O   0  0  0  0  0  1  0  0  0  0  0  0
  196.8720  175.9750  135.6370 N   0  0  0  0  0  0  0  0  0  0  0  0
  196.2140  177.0370  135.0730 C   0  0  0  0  0  3  0  0  0  0  0  0
  192.8260  175.8810  135.8660 N   0  0  0  0  0  0  0  0  0  0  0  0
  194.1460  176.0490  135.7150 C   0  0  0  0  0  0  0  0  0  0  0  0
  194.8080  177.1040  135.0990 C   0  0  0  0  0  3  0  0  0  0  0  0
  194.8160  175.0080  136.2700 C   0  0  0  0  0  0  0  0  0  0  0  0
  196.2040  174.9480  136.2420 C   0  0  0  0  0  3  0  0  0  0  0  0
  193.9600  174.1270  136.8020 N   0  0  0  0  0  2  0  0  0  0  0  0
  192.7560  174.6970  136.5300 C   0  0  0  0  0  0  0  0  0  0  0  0
  190.0010  177.5570  141.6330 C   0  0  0  0  0  2  0  0  0  0  0  0
  191.3260  176.2770  143.3230 C   0  0  0  0  0  3  0  0  0  0  0  0
  190.6060  178.0860  145.3300 C   0  0  0  0  0  3  0  0  0  0  0  0
  191.7820  176.0860  144.6300 C   0  0  0  0  0  3  0  0  0  0  0  0
  190.5060  177.3710  143.0190 C   0  0  0  0  0  0  0  0  0  0  0  0
  190.1460  178.2740  144.0260 C   0  0  0  0  0  3  0  0  0  0  0  0
  191.4230  176.9900  145.6340 C   0  0  0  0  0  3  0  0  0  0  0  0
  179.5930  181.7170  138.8430 C   0  0  1  0  0  3  0  0  0  0  0  0
  180.0950  181.2190  140.0700 O   0  0  0  0  0  0  0  0  0  0  0  0
  179.0460  181.1620  141.0070 C   0  0  0  0  0  1  0  0  0  0  0  0
  179.2050  183.1240  138.9480 N   0  0  0  0  0  2  0  0  0  0  0  0
  180.6180  184.4570  137.6980 C   0  0  0  0  0  2  0  0  0  0  0  0
  179.3520  183.6950  137.6720 N   0  0  0  0  0  0  0  0  0  0  0  0
  178.9310  185.8580  136.4930 C   0  0  0  0  0  1  0  0  0  0  0  0
  179.0250  185.8050  139.1180 C   0  0  0  0  0  1  0  0  0  0  0  0
  179.3570  185.1720  137.7720 C   0  0  0  0  0  0  0  0  0  0  0  0
  1 28  2  0  0  0  0
  1 16  1  0  0  0  0
  5 18  2  0  0  0  0
  6 11  2  0  0  0  0
  7 31  1  0  0  0  0
  8 31  1  0  0  0  0
  8  4  1  1  0  0  0
  9 30  1  1  0  0  0
  9  8  1  0  0  0  0
 10  4  1  6  0  0  0
 10 24  1  0  0  0  0
 10 19  1  0  0  0  0
 11  7  1  0  0  0  0
 12 20  1  0  0  0  0
 13 12  1  6  0  0  0
 13 26  1  0  0  0  0
 13  9  1  0  0  0  0
 14 23  1  0  0  0  0
 14 50  1  1  0  0  0
 15 27  2  0  0  0  0
 15 21  1  0  0  0  0
 16  7  2  0  0  0  0
 18 14  1  0  0  0  0
 19 43  1  0  0  0  0
 19 29  1  0  0  0  0
 21 18  1  0  0  0  0
 21 25  2  0  0  0  0
 22 20  1  0  0  0  0
 22 32  1  1  0  0  0
 22 17  1  0  0  0  0
 24  3  1  6  0  0  0
 24  2  1  0  0  0  0
 24 29  1  0  0  0  0
 25  6  1  0  0  0  0
 25 23  1  0  0  0  0
 26 16  1  0  0  0  0
 27 28  1  0  0  0  0
 28  6  1  0  0  0  0
 29  2  1  6  0  0  0
 30 17  1  0  0  0  0
 31  3  1  1  0  0  0
 32 33  1  6  0  0  0
 34 40  1  0  0  0  0
 35 38  1  0  0  0  0
 35 34  2  0  0  0  0
 36 42  2  0  0  0  0
 37 36  1  0  0  0  0
 37 39  1  0  0  0  0
 38 37  2  0  0  0  0
 39 41  1  0  0  0  0
 40 39  2  0  0  0  0
 42 41  1  0  0  0  0
 42 32  1  0  0  0  0
 43 47  1  0  0  0  0
 44 46  1  0  0  0  0
 45 49  1  0  0  0  0
 46 49  2  0  0  0  0
 47 44  2  0  0  0  0
 47 48  1  0  0  0  0
 48 45  2  0  0  0  0
 50 53  1  1  0  0  0
 50 51  1  0  0  0  0
 51 52  1  0  0  0  0
 54 58  1  0  0  0  0
 55 54  1  0  0  0  0
 55 58  1  0  0  0  0
 55 53  1  0  0  0  0
 56 58  1  0  0  0  0
 58 57  1  0  0  0  0
M  END
>  <MODEL>
2

>  <REMARK>
 VINA RESULT:      -6.8      4.200     12.244
  Name = 
  8 active torsions:
  status: ('A' for Active; 'I' for Inactive)
    1  A    between atoms: C_5  and  N_34
    2  A    between atoms: C_5  and  C_36
    3  A    between atoms: O_8  and  C_37
    4  A    between atoms: C_21  and  C_40
    5  A    between atoms: C_21  and  C_58
    6  A    between atoms: N_26  and  N_54
    7  A    between atoms: C_27  and  C_37
    8  A    between atoms: C_37  and  N_54
                            x       y       z     vdW  Elec       q    Type
                         _______ _______ _______ _____ _____    ______ ____

>  <TORSDO>
F 8

$$$$
=
 OpenBabel10222418023D

 58 69  0  0  1  0  0  0  0  0999 V2000
  183.9600  176.5430  136.5340 C   0  0  0  0  0  3  0  0  0  0  0  0
  187.4290  177.3090  142.1700 C   0  0  0  0  0  2  0  0  0  0  0  0
  186.0480  178.4010  140.5750 C   0  0  0  0  0  2  0  0  0  0  0  0
  188.7000  177.7020  139.6350 O   0  0  0  0  0  0  0  0  0  0  0  0
  179.2150  180.9800  136.2060 O   0  0  0  0  0  0  0  0  0  0  0  0
  183.1240  178.6090  137.5090 C   0  0  0  0  0  0  0  0  0  0  0  0
  185.1760  177.6080  138.3430 C   0  0  0  0  0  0  0  0  0  0  0  0
  187.6740  177.8260  138.6710 C   0  0  1  0  0  3  0  0  0  0  0  0
  188.0690  176.9790  137.4730 C   0  0  2  0  0  3  0  0  0  0  0  0
  188.5700  178.7820  140.5320 C   0  0  2  0  0  3  0  0  0  0  0  0
  184.2130  178.6300  138.3860 C   0  0  0  0  0  3  0  0  0  0  0  0
  188.0610  174.9500  136.0420 C   0  0  0  0  0  2  0  0  0  0  0  0
  187.3920  175.9010  136.9910 C   0  0  2  0  0  3  0  0  0  0  0  0
  180.8280  181.5880  137.9420 C   0  0  2  0  0  3  0  0  0  0  0  0
  180.9140  178.5160  135.7480 C   0  0  0  0  0  3  0  0  0  0  0  0
  185.0640  176.5890  137.3940 C   0  0  0  0  0  0  0  0  0  0  0  0
  190.4810  176.3680  137.3870 C   0  0  0  0  0  2  0  0  0  0  0  0
  180.2480  180.7120  136.8760 C   0  0  0  0  0  0  0  0  0  0  0  0
  189.4380  178.6730  141.7250 N   0  0  0  0  0  0  0  0  0  0  0  0
  189.2400  174.2510  136.7080 C   0  0  0  0  0  2  0  0  0  0  0  0
  181.0770  179.5540  136.6690 C   0  0  0  0  0  0  0  0  0  0  0  0
  190.5160  175.0770  136.5630 C   0  0  2  0  0  3  0  0  0  0  0  0
  182.1020  180.8330  138.3890 C   0  0  0  0  0  2  0  0  0  0  0  0
  187.3330  178.6010  141.3600 C   0  0  2  0  0  0  0  0  0  0  0  0
  182.1470  179.6110  137.5260 C   0  0  0  0  0  0  0  0  0  0  0  0
  186.0530  175.6110  137.2830 O   0  0  0  0  0  0  0  0  0  0  0  0
  181.8830  177.5010  135.7130 C   0  0  0  0  0  3  0  0  0  0  0  0
  182.9860  177.5410  136.5860 C   0  0  0  0  0  0  0  0  0  0  0  0
  188.2410  178.4970  142.5740 C   0  0  1  0  0  3  0  0  0  0  0  0
  189.4100  177.3290  136.8890 C   0  0  0  0  0  2  0  0  0  0  0  0
  186.3030  177.5270  139.3250 C   0  0  1  0  0  3  0  0  0  0  0  0
  191.7460  174.2300  136.9030 C   0  0  1  0  0  3  0  0  0  0  0  0
  191.6210  172.9490  136.3600 O   0  0  0  0  0  1  0  0  0  0  0  0
  197.1480  176.2220  135.6850 N   0  0  0  0  0  0  0  0  0  0  0  0
  196.4870  177.1590  134.9350 C   0  0  0  0  0  3  0  0  0  0  0  0
  193.1050  175.9400  135.6540 N   0  0  0  0  0  0  0  0  0  0  0  0
  194.4230  176.1580  135.5700 C   0  0  0  0  0  0  0  0  0  0  0  0
  195.0810  177.1520  134.8570 C   0  0  0  0  0  3  0  0  0  0  0  0
  195.0960  175.2420  136.3100 C   0  0  0  0  0  0  0  0  0  0  0  0
  196.4840  175.2540  136.3830 C   0  0  0  0  0  3  0  0  0  0  0  0
  194.2440  174.3970  136.9030 N   0  0  0  0  0  2  0  0  0  0  0  0
  193.0390  174.8560  136.4730 C   0  0  0  0  0  0  0  0  0  0  0  0
  190.2560  177.4550  141.7450 C   0  0  0  0  0  2  0  0  0  0  0  0
  191.0490  175.9200  143.5520 C   0  0  0  0  0  3  0  0  0  0  0  0
  191.5350  178.0880  145.2490 C   0  0  0  0  0  3  0  0  0  0  0  0
  191.5370  175.6990  144.8430 C   0  0  0  0  0  3  0  0  0  0  0  0
  190.8000  177.2250  143.1100 C   0  0  0  0  0  0  0  0  0  0  0  0
  191.0420  178.3090  143.9610 C   0  0  0  0  0  3  0  0  0  0  0  0
  191.7810  176.7830  145.6920 C   0  0  0  0  0  3  0  0  0  0  0  0
  179.8610  181.7540  139.1250 C   0  0  1  0  0  3  0  0  0  0  0  0
  178.9300  182.8050  138.9320 O   0  0  0  0  0  0  0  0  0  0  0  0
  179.5670  183.8650  138.2600 C   0  0  0  0  0  1  0  0  0  0  0  0
  179.1940  180.4940  139.4520 N   0  0  0  0  0  2  0  0  0  0  0  0
  180.6180  179.6700  141.0740 C   0  0  0  0  0  2  0  0  0  0  0  0
  179.3050  180.3090  140.8410 N   0  0  0  0  0  0  0  0  0  0  0  0
  178.9590  178.5290  142.5600 C   0  0  0  0  0  1  0  0  0  0  0  0
  179.1980  177.8640  140.0300 C   0  0  0  0  0  1  0  0  0  0  0  0
  179.4130  178.8670  141.1570 C   0  0  0  0  0  0  0  0  0  0  0  0
  1 28  2  0  0  0  0
  1 16  1  0  0  0  0
  5 18  2  0  0  0  0
  6 25  1  0  0  0  0
  6 11  2  0  0  0  0
  7 11  1  0  0  0  0
  7 31  1  0  0  0  0
  8 31  1  0  0  0  0
  8  4  1  1  0  0  0
  9 30  1  1  0  0  0
  9  8  1  0  0  0  0
 10  4  1  6  0  0  0
 10 24  1  0  0  0  0
 10 19  1  0  0  0  0
 12 20  1  0  0  0  0
 13 12  1  6  0  0  0
 13 26  1  0  0  0  0
 13  9  1  0  0  0  0
 14 23  1  0  0  0  0
 14 50  1  1  0  0  0
 15 21  1  0  0  0  0
 16  7  2  0  0  0  0
 18 14  1  0  0  0  0
 19 43  1  0  0  0  0
 19 29  1  0  0  0  0
 21 18  1  0  0  0  0
 21 25  2  0  0  0  0
 22 20  1  0  0  0  0
 22 32  1  1  0  0  0
 22 17  1  0  0  0  0
 24  3  1  6  0  0  0
 24  2  1  0  0  0  0
 24 29  1  0  0  0  0
 25 23  1  0  0  0  0
 26 16  1  0  0  0  0
 27 15  2  0  0  0  0
 27 28  1  0  0  0  0
 28  6  1  0  0  0  0
 29  2  1  6  0  0  0
 30 17  1  0  0  0  0
 31  3  1  1  0  0  0
 32 33  1  6  0  0  0
 34 40  1  0  0  0  0
 35 34  2  0  0  0  0
 36 42  2  0  0  0  0
 37 36  1  0  0  0  0
 37 39  1  0  0  0  0
 38 35  1  0  0  0  0
 38 37  2  0  0  0  0
 39 40  2  0  0  0  0
 39 41  1  0  0  0  0
 42 32  1  0  0  0  0
 42 41  1  0  0  0  0
 43 47  1  0  0  0  0
 44 46  1  0  0  0  0
 45 49  1  0  0  0  0
 46 49  2  0  0  0  0
 47 44  2  0  0  0  0
 47 48  1  0  0  0  0
 48 45  2  0  0  0  0
 50 51  1  6  0  0  0
 50 53  1  0  0  0  0
 52 51  1  0  0  0  0
 53 55  1  0  0  0  0
 54 58  1  0  0  0  0
 55 54  1  0  0  0  0
 55 58  1  0  0  0  0
 57 58  1  0  0  0  0
 58 56  1  0  0  0  0
M  END
>  <MODEL>
3

>  <REMARK>
 VINA RESULT:      -6.7      3.746     12.167
  Name = 
  8 active torsions:
  status: ('A' for Active; 'I' for Inactive)
    1  A    between atoms: C_5  and  N_34
    2  A    between atoms: C_5  and  C_36
    3  A    between atoms: O_8  and  C_37
    4  A    between atoms: C_21  and  C_40
    5  A    between atoms: C_21  and  C_58
    6  A    between atoms: N_26  and  N_54
    7  A    between atoms: C_27  and  C_37
    8  A    between atoms: C_37  and  N_54
                            x       y       z     vdW  Elec       q    Type
                         _______ _______ _______ _____ _____    ______ ____

>  <TORSDO>
F 8

$$$$
=
 OpenBabel10222418023D

 58 69  0  0  1  0  0  0  0  0999 V2000
  189.8860  177.3810  137.6560 C   0  0  0  0  0  3  0  0  0  0  0  0
  192.2310  179.2580  143.6030 C   0  0  0  0  0  2  0  0  0  0  0  0
  192.3380  177.5960  141.9090 C   0  0  0  0  0  2  0  0  0  0  0  0
  189.8710  177.6470  143.4320 O   0  0  0  0  0  0  0  0  0  0  0  0
  194.1950  173.5330  134.6650 O   0  0  0  0  0  0  0  0  0  0  0  0
  191.9120  176.0700  137.9740 C   0  0  0  0  0  0  0  0  0  0  0  0
  190.9200  177.2610  139.8470 C   0  0  0  0  0  0  0  0  0  0  0  0
  189.8220  177.1200  142.1210 C   0  0  1  0  0  3  0  0  0  0  0  0
  188.3950  177.2730  141.6210 C   0  0  2  0  0  3  0  0  0  0  0  0
  191.0300  177.1330  144.0500 C   0  0  2  0  0  3  0  0  0  0  0  0
  191.9230  176.4260  139.3260 C   0  0  0  0  0  3  0  0  0  0  0  0
  186.5430  178.3690  140.3830 C   0  0  0  0  0  2  0  0  0  0  0  0
  187.9920  178.0170  140.5550 C   0  0  2  0  0  3  0  0  0  0  0  0
  194.7610  173.7620  137.0340 C   0  0  2  0  0  3  0  0  0  0  0  0
  191.8800  175.4040  135.2270 C   0  0  0  0  0  3  0  0  0  0  0  0
  189.8870  177.7050  139.0180 C   0  0  0  0  0  0  0  0  0  0  0  0
  186.7080  177.6660  143.4090 C   0  0  0  0  0  2  0  0  0  0  0  0
  193.9710  174.0450  135.7940 C   0  0  0  0  0  0  0  0  0  0  0  0
  191.3380  177.7640  145.3530 N   0  0  0  0  0  0  0  0  0  0  0  0
  186.0550  179.2500  141.5270 C   0  0  0  0  0  2  0  0  0  0  0  0
  192.8720  174.9260  136.0870 C   0  0  0  0  0  0  0  0  0  0  0  0
  185.5680  178.4020  142.7000 C   0  0  2  0  0  3  0  0  0  0  0  0
  194.0400  174.5840  138.1280 C   0  0  0  0  0  2  0  0  0  0  0  0
  192.2470  177.7410  143.4180 C   0  0  2  0  0  0  0  0  0  0  0  0
  192.8960  175.2410  137.4230 C   0  0  0  0  0  0  0  0  0  0  0  0
  188.8400  178.4670  139.5360 O   0  0  0  0  0  0  0  0  0  0  0  0
  190.8830  176.2350  135.7580 C   0  0  0  0  0  3  0  0  0  0  0  0
  190.8920  176.5710  137.1240 C   0  0  0  0  0  0  0  0  0  0  0  0
  192.5490  178.3750  144.7660 C   0  0  1  0  0  3  0  0  0  0  0  0
  187.3630  176.6300  142.5050 C   0  0  0  0  0  2  0  0  0  0  0  0
  190.9430  177.7530  141.2610 C   0  0  1  0  0  3  0  0  0  0  0  0
  184.7580  179.2550  143.6810 C   0  0  1  0  0  3  0  0  0  0  0  0
  185.1550  180.5930  143.6070 O   0  0  0  0  0  1  0  0  0  0  0  0
  178.9450  178.3550  143.5180 N   0  0  0  0  0  0  0  0  0  0  0  0
  179.0030  179.0700  142.3500 C   0  0  0  0  0  3  0  0  0  0  0  0
  182.6200  179.6670  142.4210 N   0  0  0  0  0  0  0  0  0  0  0  0
  181.3520  179.3020  142.6530 C   0  0  0  0  0  0  0  0  0  0  0  0
  180.2310  179.5700  141.8770 C   0  0  0  0  0  3  0  0  0  0  0  0
  181.2740  178.5900  143.8050 C   0  0  0  0  0  0  0  0  0  0  0  0
  180.0590  178.0990  144.2660 C   0  0  0  0  0  3  0  0  0  0  0  0
  182.4840  178.4650  144.3640 N   0  0  0  0  0  2  0  0  0  0  0  0
  183.2750  179.1390  143.4890 C   0  0  0  0  0  0  0  0  0  0  0  0
  190.3810  178.8070  145.7400 C   0  0  0  0  0  2  0  0  0  0  0  0
  188.1110  177.8330  146.1250 C   0  0  0  0  0  3  0  0  0  0  0  0
  188.6110  177.6250  148.8680 C   0  0  0  0  0  3  0  0  0  0  0  0
  187.1270  177.3230  146.9760 C   0  0  0  0  0  3  0  0  0  0  0  0
  189.3450  178.2410  146.6440 C   0  0  0  0  0  0  0  0  0  0  0  0
  189.5930  178.1380  148.0180 C   0  0  0  0  0  3  0  0  0  0  0  0
  187.3760  177.2190  148.3480 C   0  0  0  0  0  3  0  0  0  0  0  0
  196.2210  174.2230  136.8910 C   0  0  1  0  0  3  0  0  0  0  0  0
  196.6600  175.0080  137.9840 O   0  0  0  0  0  0  0  0  0  0  0  0
  197.9420  174.5750  138.3750 C   0  0  0  0  0  1  0  0  0  0  0  0
  197.1150  173.0930  136.6400 N   0  0  0  0  0  2  0  0  0  0  0  0
  197.1850  170.8310  137.1030 C   0  0  0  0  0  2  0  0  0  0  0  0
  196.3260  171.9310  136.6150 N   0  0  0  0  0  0  0  0  0  0  0  0
  195.8900  169.9540  135.1490 C   0  0  0  0  0  1  0  0  0  0  0  0
  198.0740  171.3730  134.8040 C   0  0  0  0  0  1  0  0  0  0  0  0
  196.9080  170.9390  135.6830 C   0  0  0  0  0  0  0  0  0  0  0  0
  1 16  1  0  0  0  0
  5 18  2  0  0  0  0
  6 11  2  0  0  0  0
  7 31  1  0  0  0  0
  8  4  1  1  0  0  0
  9  8  1  0  0  0  0
  9 30  1  1  0  0  0
 10  4  1  6  0  0  0
 10 19  1  0  0  0  0
 11  7  1  0  0  0  0
 12 20  1  0  0  0  0
 13 12  1  6  0  0  0
 13  9  1  0  0  0  0
 14 50  1  6  0  0  0
 14 23  1  0  0  0  0
 15 27  2  0  0  0  0
 15 21  1  0  0  0  0
 16 26  1  0  0  0  0
 16  7  2  0  0  0  0
 18 21  1  0  0  0  0
 18 14  1  0  0  0  0
 19 43  1  0  0  0  0
 20 22  1  0  0  0  0
 21 25  2  0  0  0  0
 22 17  1  0  0  0  0
 22 32  1  1  0  0  0
 24  3  1  6  0  0  0
 24  2  1  0  0  0  0
 24 10  1  0  0  0  0
 24 29  1  0  0  0  0
 25  6  1  0  0  0  0
 25 23  1  0  0  0  0
 26 13  1  0  0  0  0
 27 28  1  0  0  0  0
 28  1  2  0  0  0  0
 28  6  1  0  0  0  0
 29  2  1  6  0  0  0
 29 19  1  0  0  0  0
 30 17  1  0  0  0  0
 31  3  1  1  0  0  0
 31  8  1  0  0  0  0
 32 33  1  6  0  0  0
 34 40  1  0  0  0  0
 35 34  2  0  0  0  0
 36 37  1  0  0  0  0
 36 42  2  0  0  0  0
 37 39  1  0  0  0  0
 38 35  1  0  0  0  0
 38 37  2  0  0  0  0
 39 40  2  0  0  0  0
 39 41  1  0  0  0  0
 42 32  1  0  0  0  0
 42 41  1  0  0  0  0
 43 47  1  0  0  0  0
 44 47  2  0  0  0  0
 44 46  1  0  0  0  0
 46 49  2  0  0  0  0
 47 48  1  0  0  0  0
 48 45  2  0  0  0  0
 49 45  1  0  0  0  0
 50 53  1  1  0  0  0
 50 51  1  0  0  0  0
 51 52  1  0  0  0  0
 55 53  1  0  0  0  0
 55 54  1  0  0  0  0
 56 58  1  0  0  0  0
 57 58  1  0  0  0  0
 58 55  1  0  0  0  0
 58 54  1  0  0  0  0
M  END
>  <MODEL>
4

>  <REMARK>
 VINA RESULT:      -6.0      4.547      6.523
  Name = 
  8 active torsions:
  status: ('A' for Active; 'I' for Inactive)
    1  A    between atoms: C_5  and  N_34
    2  A    between atoms: C_5  and  C_36
    3  A    between atoms: O_8  and  C_37
    4  A    between atoms: C_21  and  C_40
    5  A    between atoms: C_21  and  C_58
    6  A    between atoms: N_26  and  N_54
    7  A    between atoms: C_27  and  C_37
    8  A    between atoms: C_37  and  N_54
                            x       y       z     vdW  Elec       q    Type
                         _______ _______ _______ _____ _____    ______ ____

>  <TORSDO>
F 8

$$$$
=
 OpenBabel10222418023D

 58 69  0  0  1  0  0  0  0  0999 V2000
  189.1190  176.8230  138.3220 C   0  0  0  0  0  3  0  0  0  0  0  0
  184.8280  171.8890  137.0490 C   0  0  0  0  0  2  0  0  0  0  0  0
  186.9110  172.8550  136.4440 C   0  0  0  0  0  2  0  0  0  0  0  0
  184.5740  174.3980  135.6960 O   0  0  0  0  0  0  0  0  0  0  0  0
  195.1250  175.0850  136.5260 O   0  0  0  0  0  0  0  0  0  0  0  0
  190.4020  175.1870  137.0570 C   0  0  0  0  0  0  0  0  0  0  0  0
  187.9770  175.0320  137.1500 C   0  0  0  0  0  0  0  0  0  0  0  0
  185.7880  175.0970  135.8860 C   0  0  1  0  0  3  0  0  0  0  0  0
  185.4380  176.5320  136.2440 C   0  0  2  0  0  3  0  0  0  0  0  0
  184.8690  173.2310  134.9630 C   0  0  2  0  0  3  0  0  0  0  0  0
  189.2150  174.5420  136.6980 C   0  0  0  0  0  3  0  0  0  0  0  0
  185.0350  178.4410  137.7790 C   0  0  0  0  0  2  0  0  0  0  0  0
  185.7350  177.1650  137.4110 C   0  0  2  0  0  3  0  0  0  0  0  0
  193.4740  173.5580  135.5620 C   0  0  2  0  0  3  0  0  0  0  0  0
  192.7860  176.4920  137.8360 C   0  0  0  0  0  3  0  0  0  0  0  0
  187.9340  176.1900  137.9300 C   0  0  0  0  0  0  0  0  0  0  0  0
  183.1090  177.2020  135.6740 C   0  0  0  0  0  2  0  0  0  0  0  0
  193.9290  174.7060  136.4080 C   0  0  0  0  0  0  0  0  0  0  0  0
  183.7360  172.2840  134.8710 N   0  0  0  0  0  0  0  0  0  0  0  0
  183.5420  178.2090  137.9720 C   0  0  0  0  0  2  0  0  0  0  0  0
  192.8010  175.3640  137.0110 C   0  0  0  0  0  0  0  0  0  0  0  0
  182.7930  178.3420  136.6470 C   0  0  2  0  0  3  0  0  0  0  0  0
  191.9360  173.5650  135.7230 C   0  0  0  0  0  2  0  0  0  0  0  0
  185.6500  172.2820  135.8220 C   0  0  2  0  0  0  0  0  0  0  0  0
  191.6500  174.7240  136.6250 C   0  0  0  0  0  0  0  0  0  0  0  0
  186.7110  176.7360  138.3200 O   0  0  0  0  0  0  0  0  0  0  0  0
  191.5440  176.9740  138.2800 C   0  0  0  0  0  3  0  0  0  0  0  0
  190.3540  176.3300  137.8970 C   0  0  0  0  0  0  0  0  0  0  0  0
  184.4780  171.3210  135.7110 C   0  0  1  0  0  3  0  0  0  0  0  0
  184.5650  177.2210  135.2310 C   0  0  0  0  0  2  0  0  0  0  0  0
  186.6880  174.3220  136.8800 C   0  0  1  0  0  3  0  0  0  0  0  0
  181.2860  178.4680  136.8900 C   0  0  1  0  0  3  0  0  0  0  0  0
  180.5840  178.3180  135.6920 O   0  0  0  0  0  1  0  0  0  0  0  0
  179.2510  175.2980  141.4100 N   0  0  0  0  0  0  0  0  0  0  0  0
  179.3910  174.2370  140.5540 C   0  0  0  0  0  3  0  0  0  0  0  0
  180.6460  176.1780  137.7080 N   0  0  0  0  0  0  0  0  0  0  0  0
  180.1810  175.7370  138.8840 C   0  0  0  0  0  0  0  0  0  0  0  0
  179.8700  174.4320  139.2450 C   0  0  0  0  0  3  0  0  0  0  0  0
  180.0380  176.7730  139.7480 C   0  0  0  0  0  0  0  0  0  0  0  0
  179.5660  176.5740  141.0390 C   0  0  0  0  0  3  0  0  0  0  0  0
  180.4050  177.9230  139.1680 N   0  0  0  0  0  2  0  0  0  0  0  0
  180.7660  177.5150  137.9240 C   0  0  0  0  0  0  0  0  0  0  0  0
  182.5300  172.7430  135.5710 C   0  0  0  0  0  2  0  0  0  0  0  0
  180.0960  172.4380  135.0880 C   0  0  0  0  0  3  0  0  0  0  0  0
  180.4610  169.6900  134.7290 C   0  0  0  0  0  3  0  0  0  0  0  0
  179.0030  171.6240  134.7810 C   0  0  0  0  0  3  0  0  0  0  0  0
  181.3730  171.8790  135.2190 C   0  0  0  0  0  0  0  0  0  0  0  0
  181.5530  170.5020  135.0400 C   0  0  0  0  0  3  0  0  0  0  0  0
  179.1850  170.2500  134.6010 C   0  0  0  0  0  3  0  0  0  0  0  0
  194.0590  172.2250  136.0560 C   0  0  1  0  0  3  0  0  0  0  0  0
  193.1480  171.1470  135.9420 O   0  0  0  0  0  0  0  0  0  0  0  0
  193.5350  170.3300  134.8630 C   0  0  0  0  0  1  0  0  0  0  0  0
  195.3350  171.9270  135.4040 N   0  0  0  0  0  2  0  0  0  0  0  0
  197.5510  172.4670  135.7670 C   0  0  0  0  0  2  0  0  0  0  0  0
  196.3260  171.9360  136.4000 N   0  0  0  0  0  0  0  0  0  0  0  0
  198.2340  170.5350  137.2020 C   0  0  0  0  0  1  0  0  0  0  0  0
  197.2690  170.1590  134.7870 C   0  0  0  0  0  1  0  0  0  0  0  0
  197.4420  171.0420  136.0170 C   0  0  0  0  0  0  0  0  0  0  0  0
  6 28  1  0  0  0  0
  7 16  2  0  0  0  0
  8  4  1  1  0  0  0
  8  9  1  0  0  0  0
  8 31  1  0  0  0  0
  9 30  1  1  0  0  0
  9 13  1  0  0  0  0
 10  4  1  1  0  0  0
 10 24  1  0  0  0  0
 11  6  2  0  0  0  0
 11  7  1  0  0  0  0
 12 20  1  0  0  0  0
 13 12  1  6  0  0  0
 13 26  1  0  0  0  0
 14 23  1  0  0  0  0
 14 50  1  1  0  0  0
 14 18  1  0  0  0  0
 15 27  2  0  0  0  0
 16 26  1  0  0  0  0
 16  1  1  0  0  0  0
 17 22  1  0  0  0  0
 18  5  2  0  0  0  0
 18 21  1  0  0  0  0
 19 10  1  0  0  0  0
 19 43  1  0  0  0  0
 19 29  1  0  0  0  0
 21 15  1  0  0  0  0
 22 32  1  1  0  0  0
 22 20  1  0  0  0  0
 23 25  1  0  0  0  0
 24  3  1  6  0  0  0
 24  2  1  0  0  0  0
 25 21  2  0  0  0  0
 25  6  1  0  0  0  0
 28 27  1  0  0  0  0
 28  1  2  0  0  0  0
 29 24  1  0  0  0  0
 29  2  1  1  0  0  0
 30 17  1  0  0  0  0
 31  3  1  6  0  0  0
 31  7  1  0  0  0  0
 32 33  1  6  0  0  0
 32 42  1  0  0  0  0
 35 34  2  0  0  0  0
 36 42  2  0  0  0  0
 36 37  1  0  0  0  0
 37 38  2  0  0  0  0
 37 39  1  0  0  0  0
 38 35  1  0  0  0  0
 39 40  2  0  0  0  0
 40 34  1  0  0  0  0
 41 39  1  0  0  0  0
 42 41  1  0  0  0  0
 44 47  1  0  0  0  0
 45 48  1  0  0  0  0
 46 44  2  0  0  0  0
 47 43  1  0  0  0  0
 48 47  2  0  0  0  0
 49 45  2  0  0  0  0
 49 46  1  0  0  0  0
 50 53  1  6  0  0  0
 51 50  1  0  0  0  0
 52 51  1  0  0  0  0
 53 55  1  0  0  0  0
 54 58  1  0  0  0  0
 54 55  1  0  0  0  0
 57 58  1  0  0  0  0
 58 55  1  0  0  0  0
 58 56  1  0  0  0  0
M  END
>  <MODEL>
5

>  <REMARK>
 VINA RESULT:      -5.8      2.360      5.476
  Name = 
  8 active torsions:
  status: ('A' for Active; 'I' for Inactive)
    1  A    between atoms: C_5  and  N_34
    2  A    between atoms: C_5  and  C_36
    3  A    between atoms: O_8  and  C_37
    4  A    between atoms: C_21  and  C_40
    5  A    between atoms: C_21  and  C_58
    6  A    between atoms: N_26  and  N_54
    7  A    between atoms: C_27  and  C_37
    8  A    between atoms: C_37  and  N_54
                            x       y       z     vdW  Elec       q    Type
                         _______ _______ _______ _____ _____    ______ ____

>  <TORSDO>
F 8

$$$$
=
 OpenBabel10222418023D

 58 69  0  0  1  0  0  0  0  0999 V2000
  189.1710  176.9860  138.5590 C   0  0  0  0  0  3  0  0  0  0  0  0
  184.8620  172.0930  137.1850 C   0  0  0  0  0  2  0  0  0  0  0  0
  186.9540  173.0590  136.6060 C   0  0  0  0  0  2  0  0  0  0  0  0
  184.6290  174.6250  135.8700 O   0  0  0  0  0  0  0  0  0  0  0  0
  195.1780  175.2450  136.7700 O   0  0  0  0  0  0  0  0  0  0  0  0
  190.4520  175.3630  137.2760 C   0  0  0  0  0  0  0  0  0  0  0  0
  188.0270  175.2190  137.3520 C   0  0  0  0  0  0  0  0  0  0  0  0
  185.8450  175.3140  136.0770 C   0  0  1  0  0  3  0  0  0  0  0  0
  185.5000  176.7450  136.4550 C   0  0  2  0  0  3  0  0  0  0  0  0
  184.9220  173.4680  135.1200 C   0  0  2  0  0  3  0  0  0  0  0  0
  189.2640  174.7300  136.9000 C   0  0  0  0  0  3  0  0  0  0  0  0
  185.0970  178.6320  138.0180 C   0  0  0  0  0  2  0  0  0  0  0  0
  185.7930  177.3590  137.6340 C   0  0  2  0  0  3  0  0  0  0  0  0
  193.5250  173.7420  135.7730 C   0  0  2  0  0  3  0  0  0  0  0  0
  192.8380  176.6440  138.0890 C   0  0  0  0  0  3  0  0  0  0  0  0
  187.9840  176.3650  138.1500 C   0  0  0  0  0  0  0  0  0  0  0  0
  183.1780  177.4360  135.8830 C   0  0  0  0  0  2  0  0  0  0  0  0
  193.9810  174.8740  136.6390 C   0  0  0  0  0  0  0  0  0  0  0  0
  183.7850  172.5280  135.0070 N   0  0  0  0  0  0  0  0  0  0  0  0
  183.6020  178.4050  138.1990 C   0  0  0  0  0  2  0  0  0  0  0  0
  192.8530  175.5290  137.2460 C   0  0  0  0  0  0  0  0  0  0  0  0
  182.8620  178.5620  136.8720 C   0  0  2  0  0  3  0  0  0  0  0  0
  191.9860  173.7550  135.9260 C   0  0  0  0  0  2  0  0  0  0  0  0
  185.6930  172.5010  135.9690 C   0  0  2  0  0  0  0  0  0  0  0  0
  191.7010  174.9010  136.8440 C   0  0  0  0  0  0  0  0  0  0  0  0
  186.7620  176.9110  138.5420 O   0  0  0  0  0  0  0  0  0  0  0  0
  191.5970  177.1250  138.5330 C   0  0  0  0  0  3  0  0  0  0  0  0
  190.4050  176.4930  138.1330 C   0  0  0  0  0  0  0  0  0  0  0  0
  184.5170  171.5480  135.8360 C   0  0  1  0  0  3  0  0  0  0  0  0
  184.6370  177.4540  135.4490 C   0  0  0  0  0  2  0  0  0  0  0  0
  186.7350  174.5190  137.0640 C   0  0  1  0  0  3  0  0  0  0  0  0
  181.3540  178.6920  137.1090 C   0  0  1  0  0  3  0  0  0  0  0  0
  181.0070  178.1550  138.3510 O   0  0  0  0  0  1  0  0  0  0  0  0
  179.1970  184.1610  137.3500 N   0  0  0  0  0  0  0  0  0  0  0  0
  179.4190  184.1640  135.9970 C   0  0  0  0  0  3  0  0  0  0  0  0
  180.7840  180.7660  135.8060 N   0  0  0  0  0  0  0  0  0  0  0  0
  180.2610  181.9440  136.1690 C   0  0  0  0  0  0  0  0  0  0  0  0
  179.9650  183.0340  135.3600 C   0  0  0  0  0  3  0  0  0  0  0  0
  180.0310  181.9610  137.5060 C   0  0  0  0  0  0  0  0  0  0  0  0
  179.4910  183.0790  138.1290 C   0  0  0  0  0  3  0  0  0  0  0  0
  180.3930  180.7980  138.0610 N   0  0  0  0  0  2  0  0  0  0  0  0
  180.8500  180.0990  136.9880 C   0  0  0  0  0  0  0  0  0  0  0  0
  182.5780  172.9820  135.7070 C   0  0  0  0  0  2  0  0  0  0  0  0
  180.1760  172.7590  135.0480 C   0  0  0  0  0  3  0  0  0  0  0  0
  180.4360  169.9820  134.8540 C   0  0  0  0  0  3  0  0  0  0  0  0
  179.0720  171.9790  134.6950 C   0  0  0  0  0  3  0  0  0  0  0  0
  181.4110  172.1520  135.3070 C   0  0  0  0  0  0  0  0  0  0  0  0
  181.5380  170.7610  135.2110 C   0  0  0  0  0  3  0  0  0  0  0  0
  179.2010  170.5910  134.5980 C   0  0  0  0  0  3  0  0  0  0  0  0
  194.1010  172.3990  136.2490 C   0  0  1  0  0  3  0  0  0  0  0  0
  193.1830  171.3280  136.1190 O   0  0  0  0  0  0  0  0  0  0  0  0
  193.5720  170.5190  135.0340 C   0  0  0  0  0  1  0  0  0  0  0  0
  195.3760  172.1020  135.5960 N   0  0  0  0  0  2  0  0  0  0  0  0
  197.5380  172.7360  136.1060 C   0  0  0  0  0  2  0  0  0  0  0  0
  196.3510  172.0090  136.6030 N   0  0  0  0  0  0  0  0  0  0  0  0
  198.3540  170.6370  137.1950 C   0  0  0  0  0  1  0  0  0  0  0  0
  197.4520  170.6230  134.7280 C   0  0  0  0  0  1  0  0  0  0  0  0
  197.5400  171.2850  136.0980 C   0  0  0  0  0  0  0  0  0  0  0  0
  6 28  1  0  0  0  0
  7 16  2  0  0  0  0
  8  4  1  1  0  0  0
  8  9  1  0  0  0  0
  8 31  1  0  0  0  0
  9 30  1  1  0  0  0
  9 13  1  0  0  0  0
 10  4  1  1  0  0  0
 10 24  1  0  0  0  0
 11  6  2  0  0  0  0
 11  7  1  0  0  0  0
 12 20  1  0  0  0  0
 13 12  1  6  0  0  0
 13 26  1  0  0  0  0
 14 23  1  0  0  0  0
 14 50  1  1  0  0  0
 14 18  1  0  0  0  0
 15 27  2  0  0  0  0
 16 26  1  0  0  0  0
 16  1  1  0  0  0  0
 17 22  1  0  0  0  0
 18  5  2  0  0  0  0
 18 21  1  0  0  0  0
 19 10  1  0  0  0  0
 19 43  1  0  0  0  0
 19 29  1  0  0  0  0
 21 15  1  0  0  0  0
 22 32  1  1  0  0  0
 22 20  1  0  0  0  0
 23 25  1  0  0  0  0
 24  3  1  6  0  0  0
 24  2  1  0  0  0  0
 25 21  2  0  0  0  0
 25  6  1  0  0  0  0
 28 27  1  0  0  0  0
 28  1  2  0  0  0  0
 29 24  1  0  0  0  0
 29  2  1  1  0  0  0
 30 17  1  0  0  0  0
 31  3  1  6  0  0  0
 31  7  1  0  0  0  0
 32 33  1  1  0  0  0
 34 40  1  0  0  0  0
 35 34  2  0  0  0  0
 36 37  1  0  0  0  0
 36 42  2  0  0  0  0
 37 39  1  0  0  0  0
 38 35  1  0  0  0  0
 38 37  2  0  0  0  0
 39 41  1  0  0  0  0
 39 40  2  0  0  0  0
 42 32  1  0  0  0  0
 42 41  1  0  0  0  0
 44 47  1  0  0  0  0
 45 48  1  0  0  0  0
 46 44  2  0  0  0  0
 47 43  1  0  0  0  0
 48 47  2  0  0  0  0
 49 46  1  0  0  0  0
 49 45  2  0  0  0  0
 50 53  1  6  0  0  0
 51 50  1  0  0  0  0
 52 51  1  0  0  0  0
 53 55  1  0  0  0  0
 54 55  1  0  0  0  0
 57 58  1  0  0  0  0
 58 54  1  0  0  0  0
 58 55  1  0  0  0  0
 58 56  1  0  0  0  0
M  END
>  <MODEL>
6

>  <REMARK>
 VINA RESULT:      -5.6      3.208      6.238
  Name = 
  8 active torsions:
  status: ('A' for Active; 'I' for Inactive)
    1  A    between atoms: C_5  and  N_34
    2  A    between atoms: C_5  and  C_36
    3  A    between atoms: O_8  and  C_37
    4  A    between atoms: C_21  and  C_40
    5  A    between atoms: C_21  and  C_58
    6  A    between atoms: N_26  and  N_54
    7  A    between atoms: C_27  and  C_37
    8  A    between atoms: C_37  and  N_54
                            x       y       z     vdW  Elec       q    Type
                         _______ _______ _______ _____ _____    ______ ____

>  <TORSDO>
F 8

$$$$
=
 OpenBabel10222418023D

 58 69  0  0  1  0  0  0  0  0999 V2000
  187.7440  178.6500  141.0310 C   0  0  0  0  0  3  0  0  0  0  0  0
  181.3580  179.7650  142.5650 C   0  0  0  0  0  2  0  0  0  0  0  0
  183.3240  178.5810  143.1770 C   0  0  0  0  0  2  0  0  0  0  0  0
  182.0520  177.6770  140.7340 O   0  0  0  0  0  0  0  0  0  0  0  0
  191.0190  176.7550  146.3230 O   0  0  0  0  0  0  0  0  0  0  0  0
  187.5030  177.8650  143.3220 C   0  0  0  0  0  0  0  0  0  0  0  0
  185.5330  178.3380  141.9780 C   0  0  0  0  0  0  0  0  0  0  0  0
  183.4390  177.4440  140.8770 C   0  0  1  0  0  3  0  0  0  0  0  0
  184.0290  177.3290  139.4810 C   0  0  2  0  0  3  0  0  0  0  0  0
  181.4430  177.3580  141.9650 C   0  0  2  0  0  3  0  0  0  0  0  0
  186.1120  177.9170  143.1870 C   0  0  0  0  0  3  0  0  0  0  0  0
  185.1940  178.1500  137.4480 C   0  0  0  0  0  2  0  0  0  0  0  0
  184.9620  178.1530  138.9310 C   0  0  2  0  0  3  0  0  0  0  0  0
  188.6090  176.6150  146.7200 C   0  0  2  0  0  3  0  0  0  0  0  0
  190.3190  177.8080  143.5710 C   0  0  0  0  0  3  0  0  0  0  0  0
  186.3510  178.6680  140.8950 C   0  0  0  0  0  0  0  0  0  0  0  0
  182.3600  176.8900  137.6860 C   0  0  0  0  0  2  0  0  0  0  0  0
  189.8370  176.9420  145.9280 C   0  0  0  0  0  0  0  0  0  0  0  0
  180.0200  177.7570  142.0440 N   0  0  0  0  0  0  0  0  0  0  0  0
  183.9510  178.6150  136.6990 C   0  0  0  0  0  2  0  0  0  0  0  0
  189.4800  177.4300  144.6230 C   0  0  0  0  0  0  0  0  0  0  0  0
  183.0140  177.4430  136.4160 C   0  0  2  0  0  3  0  0  0  0  0  0
  187.4460  176.9750  145.7640 C   0  0  0  0  0  2  0  0  0  0  0  0
  181.8300  178.3760  142.9960 C   0  0  2  0  0  0  0  0  0  0  0  0
  188.1120  177.4510  144.5120 C   0  0  0  0  0  0  0  0  0  0  0  0
  185.7930  179.0100  139.6640 O   0  0  0  0  0  0  0  0  0  0  0  0
  189.7290  178.2250  142.3680 C   0  0  0  0  0  3  0  0  0  0  0  0
  188.3290  178.2560  142.2360 C   0  0  0  0  0  0  0  0  0  0  0  0
  180.3640  178.7670  143.0670 C   0  0  1  0  0  3  0  0  0  0  0  0
  183.3830  176.2710  138.6280 C   0  0  0  0  0  2  0  0  0  0  0  0
  184.0550  178.5100  141.8160 C   0  0  1  0  0  3  0  0  0  0  0  0
  181.9640  177.8330  135.3710 C   0  0  1  0  0  3  0  0  0  0  0  0
  181.0180  176.8160  135.2270 O   0  0  0  0  0  1  0  0  0  0  0  0
  179.1690  182.9940  135.7910 N   0  0  0  0  0  0  0  0  0  0  0  0
  179.5780  182.9550  137.0990 C   0  0  0  0  0  3  0  0  0  0  0  0
  181.3170  179.7350  136.8840 N   0  0  0  0  0  0  0  0  0  0  0  0
  180.6240  180.8610  136.6710 C   0  0  0  0  0  0  0  0  0  0  0  0
  180.3310  181.8690  137.5820 C   0  0  0  0  0  3  0  0  0  0  0  0
  180.2120  180.9190  135.3800 C   0  0  0  0  0  0  0  0  0  0  0  0
  179.4700  181.9950  134.9100 C   0  0  0  0  0  3  0  0  0  0  0  0
  180.6210  179.8370  134.7060 N   0  0  0  0  0  2  0  0  0  0  0  0
  181.2890  179.1390  135.6620 C   0  0  0  0  0  0  0  0  0  0  0  0
  179.5270  178.4140  140.8280 C   0  0  0  0  0  2  0  0  0  0  0  0
  179.3100  176.0430  140.0650 C   0  0  0  0  0  3  0  0  0  0  0  0
  178.9320  176.8760  137.4230 C   0  0  0  0  0  3  0  0  0  0  0  0
  179.1280  175.0950  139.0550 C   0  0  0  0  0  3  0  0  0  0  0  0
  179.3070  177.4080  139.7550 C   0  0  0  0  0  0  0  0  0  0  0  0
  179.1190  177.8230  138.4310 C   0  0  0  0  0  3  0  0  0  0  0  0
  178.9390  175.5110  137.7330 C   0  0  0  0  0  3  0  0  0  0  0  0
  188.5260  177.4530  148.0050 C   0  0  1  0  0  3  0  0  0  0  0  0
  189.5130  178.4670  148.0670 O   0  0  0  0  0  0  0  0  0  0  0  0
  190.3390  178.2360  149.1830 C   0  0  0  0  0  1  0  0  0  0  0  0
  187.1810  177.9940  148.2060 N   0  0  0  0  0  2  0  0  0  0  0  0
  186.0780  180.0170  148.0550 C   0  0  0  0  0  2  0  0  0  0  0  0
  187.0630  179.1350  147.3950 N   0  0  0  0  0  0  0  0  0  0  0  0
  185.5840  180.0550  145.6030 C   0  0  0  0  0  1  0  0  0  0  0  0
  184.7140  178.1040  147.1330 C   0  0  0  0  0  1  0  0  0  0  0  0
  185.6780  179.2580  146.8850 C   0  0  0  0  0  0  0  0  0  0  0  0
  1 28  1  0  0  0  0
  6 25  1  0  0  0  0
  7 11  2  0  0  0  0
  8  4  1  6  0  0  0
  8 31  1  0  0  0  0
  9 30  1  6  0  0  0
  9  8  1  0  0  0  0
 10  4  1  6  0  0  0
 10 19  1  0  0  0  0
 10 24  1  0  0  0  0
 11  6  1  0  0  0  0
 13 12  1  1  0  0  0
 13  9  1  0  0  0  0
 13 26  1  0  0  0  0
 14 50  1  1  0  0  0
 15 21  1  0  0  0  0
 16  1  2  0  0  0  0
 16  7  1  0  0  0  0
 17 30  1  0  0  0  0
 18  5  2  0  0  0  0
 18 14  1  0  0  0  0
 19 29  1  0  0  0  0
 20 12  1  0  0  0  0
 21 18  1  0  0  0  0
 22 32  1  6  0  0  0
 22 20  1  0  0  0  0
 22 17  1  0  0  0  0
 23 14  1  0  0  0  0
 24  2  1  6  0  0  0
 24 29  1  0  0  0  0
 24  3  1  0  0  0  0
 25 21  2  0  0  0  0
 25 23  1  0  0  0  0
 26 16  1  0  0  0  0
 27 15  2  0  0  0  0
 28 27  1  0  0  0  0
 28  6  2  0  0  0  0
 29  2  1  6  0  0  0
 31  7  1  0  0  0  0
 31  3  1  1  0  0  0
 32 33  1  1  0  0  0
 32 42  1  0  0  0  0
 34 35  1  0  0  0  0
 35 38  2  0  0  0  0
 37 36  1  0  0  0  0
 37 38  1  0  0  0  0
 39 37  2  0  0  0  0
 40 39  1  0  0  0  0
 40 34  2  0  0  0  0
 41 39  1  0  0  0  0
 41 42  1  0  0  0  0
 42 36  2  0  0  0  0
 43 19  1  0  0  0  0
 45 49  2  0  0  0  0
 45 48  1  0  0  0  0
 46 44  2  0  0  0  0
 47 44  1  0  0  0  0
 47 43  1  0  0  0  0
 48 47  2  0  0  0  0
 49 46  1  0  0  0  0
 50 51  1  6  0  0  0
 50 53  1  0  0  0  0
 51 52  1  0  0  0  0
 55 54  1  0  0  0  0
 55 53  1  0  0  0  0
 56 58  1  0  0  0  0
 58 57  1  0  0  0  0
 58 55  1  0  0  0  0
 58 54  1  0  0  0  0
M  END
>  <MODEL>
7

>  <REMARK>
 VINA RESULT:      -4.9      6.934      9.454
  Name = 
  8 active torsions:
  status: ('A' for Active; 'I' for Inactive)
    1  A    between atoms: C_5  and  N_34
    2  A    between atoms: C_5  and  C_36
    3  A    between atoms: O_8  and  C_37
    4  A    between atoms: C_21  and  C_40
    5  A    between atoms: C_21  and  C_58
    6  A    between atoms: N_26  and  N_54
    7  A    between atoms: C_27  and  C_37
    8  A    between atoms: C_37  and  N_54
                            x       y       z     vdW  Elec       q    Type
                         _______ _______ _______ _____ _____    ______ ____

>  <TORSDO>
F 8

$$$$
=
 OpenBabel10222418023D

 58 69  0  0  1  0  0  0  0  0999 V2000
  188.9110  176.9050  138.4190 C   0  0  0  0  0  3  0  0  0  0  0  0
  184.7120  172.0170  136.7270 C   0  0  0  0  0  2  0  0  0  0  0  0
  186.7420  173.1150  136.1650 C   0  0  0  0  0  2  0  0  0  0  0  0
  184.3350  174.6590  135.6900 O   0  0  0  0  0  0  0  0  0  0  0  0
  194.8870  175.5850  136.2150 O   0  0  0  0  0  0  0  0  0  0  0  0
  190.1880  175.4710  136.9250 C   0  0  0  0  0  0  0  0  0  0  0  0
  187.7740  175.2280  137.0850 C   0  0  0  0  0  0  0  0  0  0  0  0
  185.5350  175.3690  135.9180 C   0  0  1  0  0  3  0  0  0  0  0  0
  185.1600  176.7400  136.4550 C   0  0  2  0  0  3  0  0  0  0  0  0
  184.6340  173.5950  134.8140 C   0  0  2  0  0  3  0  0  0  0  0  0
  189.0060  174.8350  136.5340 C   0  0  0  0  0  3  0  0  0  0  0  0
  184.7640  178.4430  138.2190 C   0  0  0  0  0  2  0  0  0  0  0  0
  185.4850  177.2420  137.6770 C   0  0  2  0  0  3  0  0  0  0  0  0
  193.2430  174.1290  135.1370 C   0  0  2  0  0  3  0  0  0  0  0  0
  192.5630  176.7530  137.7660 C   0  0  0  0  0  3  0  0  0  0  0  0
  187.7290  176.2850  137.9980 C   0  0  0  0  0  0  0  0  0  0  0  0
  182.7920  177.3960  136.0520 C   0  0  0  0  0  2  0  0  0  0  0  0
  193.6990  175.1840  136.0970 C   0  0  0  0  0  0  0  0  0  0  0  0
  183.5240  172.6300  134.6520 N   0  0  0  0  0  0  0  0  0  0  0  0
  183.2870  178.1410  138.4360 C   0  0  0  0  0  2  0  0  0  0  0  0
  192.5780  175.7310  136.8140 C   0  0  0  0  0  0  0  0  0  0  0  0
  182.4830  178.4040  137.1640 C   0  0  2  0  0  3  0  0  0  0  0  0
  191.7120  174.0680  135.3540 C   0  0  0  0  0  2  0  0  0  0  0  0
  185.4740  172.5780  135.5260 C   0  0  2  0  0  0  0  0  0  0  0  0
  191.4300  175.1030  136.3960 C   0  0  0  0  0  0  0  0  0  0  0  0
  186.5070  176.7410  138.4930 O   0  0  0  0  0  0  0  0  0  0  0  0
  191.3270  177.1390  138.3090 C   0  0  0  0  0  3  0  0  0  0  0  0
  190.1410  176.5060  137.8950 C   0  0  0  0  0  0  0  0  0  0  0  0
  184.3260  171.5990  135.3440 C   0  0  1  0  0  3  0  0  0  0  0  0
  184.2290  177.5150  135.5630 C   0  0  0  0  0  2  0  0  0  0  0  0
  186.4950  174.5130  136.7790 C   0  0  1  0  0  3  0  0  0  0  0  0
  180.9840  178.4520  137.4750 C   0  0  1  0  0  3  0  0  0  0  0  0
  180.3570  177.2830  137.0360 O   0  0  0  0  0  1  0  0  0  0  0  0
  179.6990  180.1130  142.9710 N   0  0  0  0  0  0  0  0  0  0  0  0
  180.0310  178.8230  143.2950 C   0  0  0  0  0  3  0  0  0  0  0  0
  180.8250  177.7420  139.8830 N   0  0  0  0  0  0  0  0  0  0  0  0
  180.4780  178.4010  140.9960 C   0  0  0  0  0  0  0  0  0  0  0  0
  180.4380  177.9170  142.2970 C   0  0  0  0  0  3  0  0  0  0  0  0
  180.1480  179.6820  140.6970 C   0  0  0  0  0  0  0  0  0  0  0  0
  179.7480  180.5720  141.6860 C   0  0  0  0  0  3  0  0  0  0  0  0
  180.2700  179.9060  139.3820 N   0  0  0  0  0  2  0  0  0  0  0  0
  180.6820  178.6950  138.9230 C   0  0  0  0  0  0  0  0  0  0  0  0
  182.3350  172.9640  135.4440 C   0  0  0  0  0  2  0  0  0  0  0  0
  180.1840  171.9110  136.1600 C   0  0  0  0  0  3  0  0  0  0  0  0
  180.7390  169.6280  134.6460 C   0  0  0  0  0  3  0  0  0  0  0  0
  179.2820  170.8440  136.1520 C   0  0  0  0  0  3  0  0  0  0  0  0
  181.3660  171.8370  135.4130 C   0  0  0  0  0  0  0  0  0  0  0  0
  181.6420  170.6920  134.6570 C   0  0  0  0  0  3  0  0  0  0  0  0
  179.5590  169.7020  135.3950 C   0  0  0  0  0  3  0  0  0  0  0  0
  193.8840  172.7670  135.4490 C   0  0  1  0  0  3  0  0  0  0  0  0
  193.3320  171.7100  134.6850 O   0  0  0  0  0  0  0  0  0  0  0  0
  192.6650  170.8200  135.5480 C   0  0  0  0  0  1  0  0  0  0  0  0
  195.3410  172.8220  135.3250 N   0  0  0  0  0  2  0  0  0  0  0  0
  196.5240  172.7110  137.3060 C   0  0  0  0  0  2  0  0  0  0  0  0
  195.8750  171.9070  136.2490 N   0  0  0  0  0  0  0  0  0  0  0  0
  198.0450  170.7930  136.7890 C   0  0  0  0  0  1  0  0  0  0  0  0
  198.0300  172.9540  135.2950 C   0  0  0  0  0  1  0  0  0  0  0  0
  197.3470  172.0470  136.3130 C   0  0  0  0  0  0  0  0  0  0  0  0
  6 28  1  0  0  0  0
  7 16  2  0  0  0  0
  8  4  1  1  0  0  0
  8  9  1  0  0  0  0
  8 31  1  0  0  0  0
  9 30  1  1  0  0  0
  9 13  1  0  0  0  0
 10 24  1  0  0  0  0
 10  4  1  1  0  0  0
 11  6  2  0  0  0  0
 11  7  1  0  0  0  0
 12 20  1  0  0  0  0
 13 12  1  6  0  0  0
 13 26  1  0  0  0  0
 14 23  1  0  0  0  0
 14 50  1  1  0  0  0
 14 18  1  0  0  0  0
 15 27  2  0  0  0  0
 16  1  1  0  0  0  0
 16 26  1  0  0  0  0
 17 22  1  0  0  0  0
 18  5  2  0  0  0  0
 18 21  1  0  0  0  0
 19 10  1  0  0  0  0
 19 29  1  0  0  0  0
 19 43  1  0  0  0  0
 21 15  1  0  0  0  0
 22 32  1  1  0  0  0
 22 20  1  0  0  0  0
 23 25  1  0  0  0  0
 24  3  1  6  0  0  0
 24  2  1  0  0  0  0
 25 21  2  0  0  0  0
 25  6  1  0  0  0  0
 28 27  1  0  0  0  0
 28  1  2  0  0  0  0
 29 24  1  0  0  0  0
 29  2  1  1  0  0  0
 30 17  1  0  0  0  0
 31  3  1  6  0  0  0
 31  7  1  0  0  0  0
 32 33  1  1  0  0  0
 32 42  1  0  0  0  0
 34 35  1  0  0  0  0
 36 37  1  0  0  0  0
 37 38  1  0  0  0  0
 38 35  2  0  0  0  0
 39 37  2  0  0  0  0
 39 40  1  0  0  0  0
 40 34  2  0  0  0  0
 41 39  1  0  0  0  0
 42 41  1  0  0  0  0
 42 36  2  0  0  0  0
 45 48  2  0  0  0  0
 45 49  1  0  0  0  0
 46 44  1  0  0  0  0
 47 43  1  0  0  0  0
 47 44  2  0  0  0  0
 48 47  1  0  0  0  0
 49 46  2  0  0  0  0
 50 51  1  6  0  0  0
 51 52  1  0  0  0  0
 53 50  1  0  0  0  0
 53 55  1  0  0  0  0
 55 58  1  0  0  0  0
 55 54  1  0  0  0  0
 57 58  1  0  0  0  0
 58 56  1  0  0  0  0
 58 54  1  0  0  0  0
M  END
>  <MODEL>
8

>  <REMARK>
 VINA RESULT:      -4.8      2.598      5.769
  Name = 
  8 active torsions:
  status: ('A' for Active; 'I' for Inactive)
    1  A    between atoms: C_5  and  N_34
    2  A    between atoms: C_5  and  C_36
    3  A    between atoms: O_8  and  C_37
    4  A    between atoms: C_21  and  C_40
    5  A    between atoms: C_21  and  C_58
    6  A    between atoms: N_26  and  N_54
    7  A    between atoms: C_27  and  C_37
    8  A    between atoms: C_37  and  N_54
                            x       y       z     vdW  Elec       q    Type
                         _______ _______ _______ _____ _____    ______ ____

>  <TORSDO>
F 8

$$$$
=
 OpenBabel10222418023D

 58 69  0  0  1  0  0  0  0  0999 V2000
  186.0630  176.2380  136.6910 C   0  0  0  0  0  3  0  0  0  0  0  0
  188.7070  176.4660  142.8020 C   0  0  0  0  0  2  0  0  0  0  0  0
  187.2960  177.5860  141.2520 C   0  0  0  0  0  2  0  0  0  0  0  0
  190.1170  177.5980  140.5830 O   0  0  0  0  0  0  0  0  0  0  0  0
  180.5520  179.6890  136.5070 O   0  0  0  0  0  0  0  0  0  0  0  0
  184.7190  177.8700  137.8950 C   0  0  0  0  0  0  0  0  0  0  0  0
  186.8400  177.1180  138.8140 C   0  0  0  0  0  0  0  0  0  0  0  0
  189.1900  177.7240  139.5230 C   0  0  1  0  0  3  0  0  0  0  0  0
  189.8730  177.2290  138.2580 C   0  0  2  0  0  3  0  0  0  0  0  0
  189.6730  178.4290  141.6320 C   0  0  2  0  0  3  0  0  0  0  0  0
  185.6850  177.9120  138.9050 C   0  0  0  0  0  3  0  0  0  0  0  0
  190.4350  175.5690  136.4990 C   0  0  0  0  0  2  0  0  0  0  0  0
  189.4890  176.1650  137.5010 C   0  0  2  0  0  3  0  0  0  0  0  0
  181.8180  180.2180  138.5320 C   0  0  2  0  0  3  0  0  0  0  0  0
  182.7670  177.7300  135.8550 C   0  0  0  0  0  3  0  0  0  0  0  0
  187.0400  176.3120  137.6910 C   0  0  0  0  0  0  0  0  0  0  0  0
  192.3550  177.1070  138.4020 C   0  0  0  0  0  2  0  0  0  0  0  0
  181.5450  179.4860  137.2550 C   0  0  0  0  0  0  0  0  0  0  0  0
  190.4200  178.2410  142.8950 N   0  0  0  0  0  0  0  0  0  0  0  0
  191.6600  174.9800  137.1870 C   0  0  0  0  0  2  0  0  0  0  0  0
  182.6140  178.5700  136.9610 C   0  0  0  0  0  0  0  0  0  0  0  0
  192.7430  176.0410  137.3730 C   0  0  2  0  0  3  0  0  0  0  0  0
  183.1700  179.6370  139.0090 C   0  0  0  0  0  2  0  0  0  0  0  0
  188.4250  177.8560  142.2320 C   0  0  2  0  0  0  0  0  0  0  0  0
  183.5560  178.6480  137.9560 C   0  0  0  0  0  0  0  0  0  0  0  0
  188.2180  175.5780  137.5450 O   0  0  0  0  0  0  0  0  0  0  0  0
  183.9250  176.9420  135.7730 C   0  0  0  0  0  3  0  0  0  0  0  0
  184.9010  177.0060  136.7840 C   0  0  0  0  0  0  0  0  0  0  0  0
  189.2070  177.6770  143.5230 C   0  0  1  0  0  3  0  0  0  0  0  0
  191.1630  177.9330  137.9410 C   0  0  0  0  0  2  0  0  0  0  0  0
  187.8530  177.0490  139.9140 C   0  0  1  0  0  3  0  0  0  0  0  0
  194.0830  175.3860  137.7230 C   0  0  1  0  0  3  0  0  0  0  0  0
  194.3030  175.4320  139.1020 O   0  0  0  0  0  1  0  0  0  0  0  0
  194.2360  170.1010  135.1400 N   0  0  0  0  0  0  0  0  0  0  0  0
  194.7440  169.6790  136.3410 C   0  0  0  0  0  3  0  0  0  0  0  0
  194.6800  172.9570  137.9820 N   0  0  0  0  0  0  0  0  0  0  0  0
  194.5900  171.9120  137.1490 C   0  0  0  0  0  0  0  0  0  0  0  0
  194.9360  170.5900  137.3970 C   0  0  0  0  0  3  0  0  0  0  0  0
  194.0860  172.3090  135.9540 C   0  0  0  0  0  0  0  0  0  0  0  0
  193.8980  171.4060  134.9160 C   0  0  0  0  0  3  0  0  0  0  0  0
  193.8290  173.6230  135.9650 N   0  0  0  0  0  2  0  0  0  0  0  0
  194.2090  173.9800  137.2200 C   0  0  0  0  0  0  0  0  0  0  0  0
  191.4690  177.2180  142.8100 C   0  0  0  0  0  2  0  0  0  0  0  0
  192.0480  175.2420  144.2280 C   0  0  0  0  0  3  0  0  0  0  0  0
  191.6810  176.7440  146.5570 C   0  0  0  0  0  3  0  0  0  0  0  0
  192.2270  174.6440  145.4780 C   0  0  0  0  0  3  0  0  0  0  0  0
  191.6830  176.5910  144.1410 C   0  0  0  0  0  0  0  0  0  0  0  0
  191.4980  177.3400  145.3090 C   0  0  0  0  0  3  0  0  0  0  0  0
  192.0440  175.3950  146.6430 C   0  0  0  0  0  3  0  0  0  0  0  0
  180.7230  179.9560  139.5780 C   0  0  1  0  0  3  0  0  0  0  0  0
  179.9680  181.1140  139.8870 O   0  0  0  0  0  0  0  0  0  0  0  0
  180.1690  182.0760  138.8790 C   0  0  0  0  0  1  0  0  0  0  0  0
  179.8640  178.8390  139.1850 N   0  0  0  0  0  2  0  0  0  0  0  0
  180.9600  177.5150  140.7290 C   0  0  0  0  0  2  0  0  0  0  0  0
  179.6430  178.0570  140.3320 N   0  0  0  0  0  0  0  0  0  0  0  0
  179.2910  175.6660  140.9680 C   0  0  0  0  0  1  0  0  0  0  0  0
  180.3460  176.2480  138.6340 C   0  0  0  0  0  1  0  0  0  0  0  0
  180.0060  176.6470  140.0650 C   0  0  0  0  0  0  0  0  0  0  0  0
  1 28  2  0  0  0  0
  1 16  1  0  0  0  0
  5 18  2  0  0  0  0
  6 25  1  0  0  0  0
  6 11  2  0  0  0  0
  7 11  1  0  0  0  0
  7 31  1  0  0  0  0
  8 31  1  0  0  0  0
  8  4  1  1  0  0  0
  9 30  1  1  0  0  0
  9  8  1  0  0  0  0
 10  4  1  6  0  0  0
 10 24  1  0  0  0  0
 10 19  1  0  0  0  0
 12 20  1  0  0  0  0
 13 12  1  6  0  0  0
 13 26  1  0  0  0  0
 13  9  1  0  0  0  0
 14 23  1  0  0  0  0
 14 50  1  1  0  0  0
 15 21  1  0  0  0  0
 16  7  2  0  0  0  0
 18 14  1  0  0  0  0
 19 29  1  0  0  0  0
 20 22  1  0  0  0  0
 21 18  1  0  0  0  0
 21 25  2  0  0  0  0
 22 32  1  1  0  0  0
 22 17  1  0  0  0  0
 24  3  1  6  0  0  0
 24  2  1  0  0  0  0
 24 29  1  0  0  0  0
 25 23  1  0  0  0  0
 26 16  1  0  0  0  0
 27 15  2  0  0  0  0
 27 28  1  0  0  0  0
 28  6  1  0  0  0  0
 29  2  1  6  0  0  0
 30 17  1  0  0  0  0
 31  3  1  1  0  0  0
 32 33  1  1  0  0  0
 34 35  1  0  0  0  0
 35 38  2  0  0  0  0
 37 38  1  0  0  0  0
 37 36  1  0  0  0  0
 39 41  1  0  0  0  0
 39 37  2  0  0  0  0
 40 34  2  0  0  0  0
 40 39  1  0  0  0  0
 41 42  1  0  0  0  0
 42 32  1  0  0  0  0
 42 36  2  0  0  0  0
 43 19  1  0  0  0  0
 43 47  1  0  0  0  0
 44 46  1  0  0  0  0
 45 49  1  0  0  0  0
 46 49  2  0  0  0  0
 47 44  2  0  0  0  0
 47 48  1  0  0  0  0
 48 45  2  0  0  0  0
 50 53  1  6  0  0  0
 50 51  1  0  0  0  0
 52 51  1  0  0  0  0
 53 55  1  0  0  0  0
 55 54  1  0  0  0  0
 57 58  1  0  0  0  0
 58 55  1  0  0  0  0
 58 54  1  0  0  0  0
 58 56  1  0  0  0  0
M  END
>  <MODEL>
9

>  <REMARK>
 VINA RESULT:      -4.7      3.858     11.750
  Name = 
  8 active torsions:
  status: ('A' for Active; 'I' for Inactive)
    1  A    between atoms: C_5  and  N_34
    2  A    between atoms: C_5  and  C_36
    3  A    between atoms: O_8  and  C_37
    4  A    between atoms: C_21  and  C_40
    5  A    between atoms: C_21  and  C_58
    6  A    between atoms: N_26  and  N_54
    7  A    between atoms: C_27  and  C_37
    8  A    between atoms: C_37  and  N_54
                            x       y       z     vdW  Elec       q    Type
                         _______ _______ _______ _____ _____    ______ ____

>  <TORSDO>
F 8

$$$$
