=
 OpenBabel10222415173D

 43 49  0  0  1  0  0  0  0  0999 V2000
  179.8280  183.3130  136.0790 C   0  0  0  0  0  2  0  0  0  0  0  0
  181.9440  178.8000  140.3580 C   0  0  1  0  0  3  0  0  0  0  0  0
  180.0680  180.3020  140.1150 C   0  0  0  0  0  0  0  0  0  0  0  0
  181.3750  179.9370  139.5810 C   0  0  0  0  0  0  0  0  0  0  0  0
  180.7700  181.0290  136.4500 C   0  0  0  0  0  3  0  0  0  0  0  0
  180.0280  181.8600  135.7080 C   0  0  0  0  0  0  0  0  0  0  0  0
  180.9290  178.5190  141.4710 C   0  0  2  0  0  3  0  0  0  0  0  0
  180.6980  183.7960  137.2570 C   0  0  0  0  0  2  0  0  0  0  0  0
  181.5440  181.5370  137.6290 C   0  0  1  0  0  3  0  0  0  0  0  0
  179.5570  182.3510  138.8440 N   0  0  0  0  0  2  0  0  0  0  0  0
  180.8700  182.7120  138.3200 C   0  0  2  0  0  3  0  0  0  0  0  0
  179.2640  181.3160  139.7860 C   0  0  0  0  0  3  0  0  0  0  0  0
  182.0280  180.4600  138.5410 C   0  0  0  0  0  3  0  0  0  0  0  0
  179.3700  181.3580  134.5940 O   0  0  0  0  0  1  0  0  0  0  0  0
  179.6790  179.3580  141.1860 C   0  0  0  0  0  2  0  0  0  0  0  0
  181.5190  178.8800  142.8360 C   0  0  2  0  0  3  0  0  0  0  0  0
  180.9050  180.0250  143.3510 O   0  0  0  0  0  1  0  0  0  0  0  0
  182.9630  179.0880  142.7490 N   0  0  0  0  0  2  0  0  0  0  0  0
  185.2680  178.9210  143.6380 C   0  0  0  0  0  3  0  0  0  0  0  0
  185.5950  178.6780  146.0110 C   0  0  0  0  0  0  0  0  0  0  0  0
  183.3900  178.8390  145.1430 C   0  0  0  0  0  3  0  0  0  0  0  0
  184.2460  178.7030  146.1910 N   0  0  0  0  0  0  0  0  0  0  0  0
  186.1310  178.7810  144.7260 C   0  0  0  0  0  3  0  0  0  0  0  0
  183.8830  178.9510  143.8400 C   0  0  0  0  0  0  0  0  0  0  0  0
  186.4960  178.4950  147.1800 C   0  0  0  0  0  2  0  0  0  0  0  0
  189.1190  178.2100  148.5010 C   0  0  0  0  0  2  0  0  0  0  0  0
  188.1410  177.1070  148.1730 C   0  0  1  0  0  3  0  0  0  0  0  0
  187.3910  177.3710  146.9360 N   0  0  0  0  0  0  0  0  0  0  0  0
  188.7760  177.8580  147.0680 C   0  0  1  0  0  0  0  0  0  0  0  0
  191.0850  177.3090  146.7090 O   0  0  0  0  0  1  0  0  0  0  0  0
  189.5970  176.9020  144.9080 C   0  0  0  0  0  1  0  0  0  0  0  0
  189.7790  176.9100  146.4140 C   0  0  2  0  0  3  0  0  0  0  0  0
  182.0580  177.6160  139.5150 N   0  0  0  0  0  2  0  0  0  0  0  0
  185.4720  177.7660  137.9710 C   0  0  0  0  0  0  0  0  0  0  0  0
  183.0030  176.4900  137.5690 C   0  0  0  0  0  3  0  0  0  0  0  0
  184.0680  176.2400  136.7010 C   0  0  0  0  0  3  0  0  0  0  0  0
  185.2960  176.8750  136.9000 C   0  0  0  0  0  3  0  0  0  0  0  0
  184.3980  178.0080  138.8350 C   0  0  0  0  0  3  0  0  0  0  0  0
  183.1610  177.3750  138.6380 C   0  0  0  0  0  0  0  0  0  0  0  0
  186.6840  178.4360  138.2180 O   0  0  0  0  0  0  0  0  0  0  0  0
  187.7570  178.0030  139.0140 C   0  0  0  0  0  3  0  0  0  0  0  0
  189.0610  177.8540  141.0010 N   0  0  0  0  0  1  0  0  0  0  0  0
  187.9390  178.3500  140.2820 C   0  0  0  0  0  3  0  0  0  0  0  0
  1  8  1  0  0  0  0
  2 33  1  6  0  0  0
  2  7  1  0  0  0  0
  3 15  1  0  0  0  0
  4  3  1  0  0  0  0
  4  2  1  0  0  0  0
  6  1  1  0  0  0  0
  6  5  2  0  0  0  0
  7 16  1  1  0  0  0
  9  5  1  6  0  0  0
  9 11  1  0  0  0  0
  9 13  1  0  0  0  0
 10 12  1  0  0  0  0
 11  8  1  6  0  0  0
 11 10  1  0  0  0  0
 12  3  2  0  0  0  0
 13  4  2  0  0  0  0
 14  6  1  0  0  0  0
 15  7  1  0  0  0  0
 16 17  1  6  0  0  0
 18 16  1  0  0  0  0
 18 24  1  0  0  0  0
 19 24  2  0  0  0  0
 19 23  1  0  0  0  0
 20 22  1  0  0  0  0
 20 25  1  0  0  0  0
 21 22  2  0  0  0  0
 23 20  2  0  0  0  0
 24 21  1  0  0  0  0
 27 26  1  1  0  0  0
 28 29  1  0  0  0  0
 28 25  1  0  0  0  0
 28 27  1  0  0  0  0
 29 32  1  6  0  0  0
 29 27  1  0  0  0  0
 29 26  1  0  0  0  0
 32 31  1  6  0  0  0
 32 30  1  0  0  0  0
 34 40  1  0  0  0  0
 34 38  1  0  0  0  0
 35 39  1  0  0  0  0
 36 37  1  0  0  0  0
 36 35  2  0  0  0  0
 37 34  2  0  0  0  0
 39 38  2  0  0  0  0
 39 33  1  0  0  0  0
 40 41  1  0  0  0  0
 41 43  2  0  0  0  0
 43 42  1  0  0  0  0
M  END
>  <MODEL>
1

>  <REMARK>
 VINA RESULT:      -8.4      0.000      0.000
  Name = 
  10 active torsions:
  status: ('A' for Active; 'I' for Inactive)
    1  A    between atoms: C_3  and  N_15
    2  A    between atoms: C_3  and  C_21
    3  A    between atoms: C_7  and  O_14
    4  A    between atoms: C_8  and  C_40
    5  A    between atoms: N_9  and  C_12
    6  A    between atoms: N_9  and  C_41
    7  A    between atoms: C_11  and  O_14
    8  A    between atoms: N_15  and  C_36
    9  A    between atoms: C_22  and  C_43
   10  A    between atoms: N_28  and  C_43
                            x       y       z     vdW  Elec       q    Type
                         _______ _______ _______ _____ _____    ______ ____

>  <TORSDO>
F 10

$$$$
=
 OpenBabel10222415173D

 43 49  0  0  1  0  0  0  0  0999 V2000
  179.5220  182.7290  136.3410 C   0  0  0  0  0  2  0  0  0  0  0  0
  182.8340  178.6280  140.2610 C   0  0  1  0  0  3  0  0  0  0  0  0
  180.7160  179.7900  140.2580 C   0  0  0  0  0  0  0  0  0  0  0  0
  181.9990  179.6550  139.5760 C   0  0  0  0  0  0  0  0  0  0  0  0
  180.8710  180.6380  136.5560 C   0  0  0  0  0  3  0  0  0  0  0  0
  179.9220  181.3330  135.9180 C   0  0  0  0  0  0  0  0  0  0  0  0
  182.0120  178.1750  141.4720 C   0  0  2  0  0  3  0  0  0  0  0  0
  180.4240  183.3500  137.4270 C   0  0  0  0  0  2  0  0  0  0  0  0
  181.6750  181.2660  137.6540 C   0  0  1  0  0  3  0  0  0  0  0  0
  179.7280  181.7260  139.0970 N   0  0  0  0  0  2  0  0  0  0  0  0
  180.8940  182.3070  138.4400 C   0  0  2  0  0  3  0  0  0  0  0  0
  179.7210  180.6540  140.0420 C   0  0  0  0  0  3  0  0  0  0  0  0
  182.4330  180.2850  138.4830 C   0  0  0  0  0  3  0  0  0  0  0  0
  179.2380  180.7300  134.8720 O   0  0  0  0  0  1  0  0  0  0  0  0
  180.6140  178.7900  141.3440 C   0  0  0  0  0  2  0  0  0  0  0  0
  182.6810  178.6270  142.7710 C   0  0  2  0  0  3  0  0  0  0  0  0
  181.8410  179.4840  143.4860 O   0  0  0  0  0  1  0  0  0  0  0  0
  183.9570  179.2890  142.5060 N   0  0  0  0  0  2  0  0  0  0  0  0
  185.5740  178.1880  144.0250 C   0  0  0  0  0  3  0  0  0  0  0  0
  187.7790  177.6660  143.2110 C   0  0  0  0  0  0  0  0  0  0  0  0
  186.2170  178.7240  141.7670 C   0  0  0  0  0  3  0  0  0  0  0  0
  187.4510  178.2010  142.0040 N   0  0  0  0  0  0  0  0  0  0  0  0
  186.8440  177.6560  144.2490 C   0  0  0  0  0  3  0  0  0  0  0  0
  185.2490  178.7280  142.7740 C   0  0  0  0  0  0  0  0  0  0  0  0
  189.1490  177.1350  143.4400 C   0  0  0  0  0  2  0  0  0  0  0  0
  191.7380  176.3110  144.5880 C   0  0  0  0  0  2  0  0  0  0  0  0
  191.1790  177.7120  144.5190 C   0  0  1  0  0  3  0  0  0  0  0  0
  189.7140  177.7380  144.6400 N   0  0  0  0  0  0  0  0  0  0  0  0
  190.4870  176.7010  145.3470 C   0  0  1  0  0  0  0  0  0  0  0  0
  191.3710  176.0210  147.4720 O   0  0  0  0  0  1  0  0  0  0  0  0
  189.4420  177.4000  147.5090 C   0  0  0  0  0  1  0  0  0  0  0  0
  190.7470  177.0770  146.8040 C   0  0  2  0  0  3  0  0  0  0  0  0
  183.0520  177.4840  139.3840 N   0  0  0  0  0  2  0  0  0  0  0  0
  186.1450  178.0920  137.3520 C   0  0  0  0  0  0  0  0  0  0  0  0
  183.6280  176.8730  137.0950 C   0  0  0  0  0  3  0  0  0  0  0  0
  184.5220  176.8640  136.0210 C   0  0  0  0  0  3  0  0  0  0  0  0
  185.7730  177.4710  136.1490 C   0  0  0  0  0  3  0  0  0  0  0  0
  185.2420  178.0930  138.4210 C   0  0  0  0  0  3  0  0  0  0  0  0
  183.9820  177.4870  138.2970 C   0  0  0  0  0  0  0  0  0  0  0  0
  187.3890  178.7200  137.5370 O   0  0  0  0  0  0  0  0  0  0  0  0
  188.3880  178.3900  138.4690 C   0  0  0  0  0  3  0  0  0  0  0  0
  189.9830  176.9740  139.5280 N   0  0  0  0  0  1  0  0  0  0  0  0
  188.9810  177.2050  138.5460 C   0  0  0  0  0  3  0  0  0  0  0  0
  1  8  1  0  0  0  0
  2 33  1  6  0  0  0
  2  7  1  0  0  0  0
  3 15  1  0  0  0  0
  4  3  1  0  0  0  0
  4  2  1  0  0  0  0
  6  1  1  0  0  0  0
  6  5  2  0  0  0  0
  7 16  1  1  0  0  0
  9  5  1  1  0  0  0
  9 11  1  0  0  0  0
  9 13  1  0  0  0  0
 10 12  1  0  0  0  0
 11  8  1  6  0  0  0
 11 10  1  0  0  0  0
 12  3  2  0  0  0  0
 13  4  2  0  0  0  0
 14  6  1  0  0  0  0
 15  7  1  0  0  0  0
 16 17  1  6  0  0  0
 18 16  1  0  0  0  0
 18 24  1  0  0  0  0
 19 23  1  0  0  0  0
 20 25  1  0  0  0  0
 20 23  2  0  0  0  0
 21 22  2  0  0  0  0
 21 24  1  0  0  0  0
 22 20  1  0  0  0  0
 24 19  2  0  0  0  0
 25 28  1  0  0  0  0
 26 29  1  0  0  0  0
 27 26  1  6  0  0  0
 27 28  1  0  0  0  0
 27 29  1  0  0  0  0
 28 29  1  0  0  0  0
 29 32  1  1  0  0  0
 32 30  1  0  0  0  0
 32 31  1  1  0  0  0
 34 40  1  0  0  0  0
 34 38  1  0  0  0  0
 35 39  1  0  0  0  0
 36 37  1  0  0  0  0
 36 35  2  0  0  0  0
 37 34  2  0  0  0  0
 39 38  2  0  0  0  0
 39 33  1  0  0  0  0
 40 41  1  0  0  0  0
 41 43  2  0  0  0  0
 43 42  1  0  0  0  0
M  END
>  <MODEL>
2

>  <REMARK>
 VINA RESULT:      -8.2      1.392      2.137
  Name = 
  10 active torsions:
  status: ('A' for Active; 'I' for Inactive)
    1  A    between atoms: C_3  and  N_15
    2  A    between atoms: C_3  and  C_21
    3  A    between atoms: C_7  and  O_14
    4  A    between atoms: C_8  and  C_40
    5  A    between atoms: N_9  and  C_12
    6  A    between atoms: N_9  and  C_41
    7  A    between atoms: C_11  and  O_14
    8  A    between atoms: N_15  and  C_36
    9  A    between atoms: C_22  and  C_43
   10  A    between atoms: N_28  and  C_43
                            x       y       z     vdW  Elec       q    Type
                         _______ _______ _______ _____ _____    ______ ____

>  <TORSDO>
F 10

$$$$
=
 OpenBabel10222415173D

 43 49  0  0  1  0  0  0  0  0999 V2000
  189.9690  178.3250  144.9140 C   0  0  0  0  0  2  0  0  0  0  0  0
  190.1800  176.3880  138.6410 C   0  0  1  0  0  3  0  0  0  0  0  0
  188.9170  177.9350  140.0000 C   0  0  0  0  0  0  0  0  0  0  0  0
  189.8950  176.8530  140.0280 C   0  0  0  0  0  0  0  0  0  0  0  0
  191.3630  177.8090  142.9070 C   0  0  0  0  0  3  0  0  0  0  0  0
  191.1940  178.4950  144.0440 C   0  0  0  0  0  0  0  0  0  0  0  0
  189.2550  177.2090  137.7370 C   0  0  2  0  0  3  0  0  0  0  0  0
  189.0410  177.1690  144.4910 C   0  0  0  0  0  2  0  0  0  0  0  0
  190.3930  176.7400  142.5050 C   0  0  1  0  0  3  0  0  0  0  0  0
  188.4490  178.2550  142.3980 N   0  0  0  0  0  2  0  0  0  0  0  0
  188.9730  177.0200  142.9720 C   0  0  2  0  0  3  0  0  0  0  0  0
  188.3130  178.5660  141.0100 C   0  0  0  0  0  3  0  0  0  0  0  0
  190.5190  176.3180  141.0800 C   0  0  0  0  0  3  0  0  0  0  0  0
  192.1450  179.4400  144.4050 O   0  0  0  0  0  1  0  0  0  0  0  0
  188.6030  178.2960  138.5990 C   0  0  0  0  0  2  0  0  0  0  0  0
  188.1880  176.3110  137.1090 C   0  0  2  0  0  3  0  0  0  0  0  0
  188.7340  175.5440  136.0760 O   0  0  0  0  0  1  0  0  0  0  0  0
  187.0650  177.0970  136.6020 N   0  0  0  0  0  2  0  0  0  0  0  0
  185.1260  178.0120  137.8420 C   0  0  0  0  0  3  0  0  0  0  0  0
  183.0880  176.7340  137.9380 C   0  0  0  0  0  0  0  0  0  0  0  0
  184.9570  175.8700  136.7530 C   0  0  0  0  0  3  0  0  0  0  0  0
  183.6740  175.7580  137.1920 N   0  0  0  0  0  0  0  0  0  0  0  0
  183.8090  177.8790  138.2820 C   0  0  0  0  0  3  0  0  0  0  0  0
  185.7130  177.0020  137.0690 C   0  0  0  0  0  0  0  0  0  0  0  0
  181.6940  176.5590  138.4260 C   0  0  0  0  0  2  0  0  0  0  0  0
  179.2460  177.4800  139.7900 C   0  0  0  0  0  2  0  0  0  0  0  0
  180.2810  176.5210  140.3280 C   0  0  1  0  0  3  0  0  0  0  0  0
  181.6360  176.8360  139.8550 N   0  0  0  0  0  0  0  0  0  0  0  0
  180.6670  177.9260  140.0660 C   0  0  1  0  0  0  0  0  0  0  0  0
  180.3310  179.8900  141.4030 O   0  0  0  0  0  1  0  0  0  0  0  0
  182.3140  178.6520  141.8010 C   0  0  0  0  0  1  0  0  0  0  0  0
  180.8440  178.5910  141.4290 C   0  0  2  0  0  3  0  0  0  0  0  0
  191.5640  176.6760  138.2830 N   0  0  0  0  0  2  0  0  0  0  0  0
  194.7090  174.6690  137.8950 C   0  0  0  0  0  0  0  0  0  0  0  0
  192.0710  174.7110  136.9310 C   0  0  0  0  0  3  0  0  0  0  0  0
  192.9590  173.7250  136.4940 C   0  0  0  0  0  3  0  0  0  0  0  0
  194.2710  173.7060  136.9720 C   0  0  0  0  0  3  0  0  0  0  0  0
  193.8090  175.6500  138.3270 C   0  0  0  0  0  3  0  0  0  0  0  0
  192.4910  175.6770  137.8470 C   0  0  0  0  0  0  0  0  0  0  0  0
  196.0180  174.7000  138.4070 O   0  0  0  0  0  0  0  0  0  0  0  0
  196.4110  174.8040  139.7520 C   0  0  0  0  0  3  0  0  0  0  0  0
  197.9160  175.2510  141.5430 N   0  0  0  0  0  1  0  0  0  0  0  0
  197.6200  175.1760  140.1540 C   0  0  0  0  0  3  0  0  0  0  0  0
  2 33  1  6  0  0  0
  2  4  1  0  0  0  0
  3  4  1  0  0  0  0
  3 12  2  0  0  0  0
  4 13  2  0  0  0  0
  5  6  2  0  0  0  0
  6 14  1  0  0  0  0
  6  1  1  0  0  0  0
  7 16  1  1  0  0  0
  7 15  1  0  0  0  0
  7  2  1  0  0  0  0
  8  1  1  0  0  0  0
  9 13  1  6  0  0  0
  9  5  1  0  0  0  0
  9 11  1  0  0  0  0
 10 11  1  0  0  0  0
 11  8  1  1  0  0  0
 12 10  1  0  0  0  0
 15  3  1  0  0  0  0
 16 17  1  6  0  0  0
 18 24  1  0  0  0  0
 18 16  1  0  0  0  0
 19 23  1  0  0  0  0
 20 23  2  0  0  0  0
 20 25  1  0  0  0  0
 21 24  1  0  0  0  0
 21 22  2  0  0  0  0
 22 20  1  0  0  0  0
 24 19  2  0  0  0  0
 25 28  1  0  0  0  0
 26 29  1  0  0  0  0
 27 26  1  6  0  0  0
 28 29  1  0  0  0  0
 28 27  1  0  0  0  0
 29 27  1  0  0  0  0
 29 32  1  1  0  0  0
 30 32  1  0  0  0  0
 32 31  1  6  0  0  0
 34 38  1  0  0  0  0
 34 40  1  0  0  0  0
 35 39  1  0  0  0  0
 36 35  2  0  0  0  0
 36 37  1  0  0  0  0
 37 34  2  0  0  0  0
 39 33  1  0  0  0  0
 39 38  2  0  0  0  0
 40 41  1  0  0  0  0
 41 43  2  0  0  0  0
 43 42  1  0  0  0  0
M  END
>  <MODEL>
3

>  <REMARK>
 VINA RESULT:      -8.0      4.339     10.289
  Name = 
  10 active torsions:
  status: ('A' for Active; 'I' for Inactive)
    1  A    between atoms: C_3  and  N_15
    2  A    between atoms: C_3  and  C_21
    3  A    between atoms: C_7  and  O_14
    4  A    between atoms: C_8  and  C_40
    5  A    between atoms: N_9  and  C_12
    6  A    between atoms: N_9  and  C_41
    7  A    between atoms: C_11  and  O_14
    8  A    between atoms: N_15  and  C_36
    9  A    between atoms: C_22  and  C_43
   10  A    between atoms: N_28  and  C_43
                            x       y       z     vdW  Elec       q    Type
                         _______ _______ _______ _____ _____    ______ ____

>  <TORSDO>
F 10

$$$$
=
 OpenBabel10222415173D

 43 49  0  0  1  0  0  0  0  0999 V2000
  190.5360  176.4570  146.9760 C   0  0  0  0  0  2  0  0  0  0  0  0
  188.9230  179.0210  141.1480 C   0  0  1  0  0  3  0  0  0  0  0  0
  189.3190  176.8370  142.0990 C   0  0  0  0  0  0  0  0  0  0  0  0
  189.4070  178.2720  142.3420 C   0  0  0  0  0  0  0  0  0  0  0  0
  189.1150  178.0600  145.6930 C   0  0  0  0  0  3  0  0  0  0  0  0
  189.2740  177.2610  146.7540 C   0  0  0  0  0  0  0  0  0  0  0  0
  188.5900  177.9510  140.1030 C   0  0  2  0  0  3  0  0  0  0  0  0
  191.6820  176.7840  145.9970 C   0  0  0  0  0  2  0  0  0  0  0  0
  190.2400  178.2910  144.7300 C   0  0  1  0  0  3  0  0  0  0  0  0
  190.4510  175.9190  144.0870 N   0  0  0  0  0  2  0  0  0  0  0  0
  191.1600  177.0890  144.5930 C   0  0  2  0  0  3  0  0  0  0  0  0
  189.7350  175.8170  142.8540 C   0  0  0  0  0  3  0  0  0  0  0  0
  189.8120  178.9100  143.4420 C   0  0  0  0  0  3  0  0  0  0  0  0
  188.2240  177.1170  147.6500 O   0  0  0  0  0  1  0  0  0  0  0  0
  188.6790  176.5840  140.7890 C   0  0  0  0  0  2  0  0  0  0  0  0
  189.5680  178.0270  138.9290 C   0  0  2  0  0  3  0  0  0  0  0  0
  188.9300  178.5160  137.7860 O   0  0  0  0  0  1  0  0  0  0  0  0
  190.1600  176.7210  138.6470 N   0  0  0  0  0  2  0  0  0  0  0  0
  191.3300  176.0550  136.5690 C   0  0  0  0  0  3  0  0  0  0  0  0
  193.7370  176.1030  136.5120 C   0  0  0  0  0  0  0  0  0  0  0  0
  192.5990  176.7380  138.4990 C   0  0  0  0  0  3  0  0  0  0  0  0
  193.7500  176.5320  137.8040 N   0  0  0  0  0  0  0  0  0  0  0  0
  192.5220  175.8510  135.8720 C   0  0  0  0  0  3  0  0  0  0  0  0
  191.3610  176.5040  137.8960 C   0  0  0  0  0  0  0  0  0  0  0  0
  195.0180  175.8590  135.7980 C   0  0  0  0  0  2  0  0  0  0  0  0
  195.6220  172.9720  135.7620 C   0  0  0  0  0  2  0  0  0  0  0  0
  196.5940  174.1020  136.0050 C   0  0  1  0  0  3  0  0  0  0  0  0
  195.9730  175.2360  136.7040 N   0  0  0  0  0  0  0  0  0  0  0  0
  195.5080  173.8650  136.9800 C   0  0  1  0  0  0  0  0  0  0  0  0
  195.3790  172.2450  138.7460 O   0  0  0  0  0  1  0  0  0  0  0  0
  196.3220  174.3510  139.2930 C   0  0  0  0  0  1  0  0  0  0  0  0
  196.1620  173.2810  138.2300 C   0  0  2  0  0  3  0  0  0  0  0  0
  187.7080  179.7590  141.4690 N   0  0  0  0  0  2  0  0  0  0  0  0
  184.5200  178.3470  142.8530 C   0  0  0  0  0  0  0  0  0  0  0  0
  185.7660  178.7730  140.3720 C   0  0  0  0  0  3  0  0  0  0  0  0
  184.5020  178.1810  140.4260 C   0  0  0  0  0  3  0  0  0  0  0  0
  183.8830  177.9680  141.6600 C   0  0  0  0  0  3  0  0  0  0  0  0
  185.7860  178.9410  142.7850 C   0  0  0  0  0  3  0  0  0  0  0  0
  186.4140  179.1540  141.5480 C   0  0  0  0  0  0  0  0  0  0  0  0
  183.9460  178.1550  144.1220 O   0  0  0  0  0  0  0  0  0  0  0  0
  184.2690  178.8170  145.3190 C   0  0  0  0  0  3  0  0  0  0  0  0
  185.4880  179.1870  147.3310 N   0  0  0  0  0  1  0  0  0  0  0  0
  185.2430  178.4460  146.1420 C   0  0  0  0  0  3  0  0  0  0  0  0
  2 33  1  1  0  0  0
  2  4  1  0  0  0  0
  3  4  1  0  0  0  0
  3 12  2  0  0  0  0
  4 13  2  0  0  0  0
  5  6  2  0  0  0  0
  6  1  1  0  0  0  0
  6 14  1  0  0  0  0
  7 16  1  6  0  0  0
  7 15  1  0  0  0  0
  7  2  1  0  0  0  0
  8  1  1  0  0  0  0
  9 13  1  6  0  0  0
  9  5  1  0  0  0  0
 10 11  1  0  0  0  0
 11  9  1  0  0  0  0
 11  8  1  1  0  0  0
 12 10  1  0  0  0  0
 15  3  1  0  0  0  0
 16 17  1  6  0  0  0
 18 16  1  0  0  0  0
 19 24  1  0  0  0  0
 20 22  2  0  0  0  0
 22 21  1  0  0  0  0
 23 20  1  0  0  0  0
 23 19  2  0  0  0  0
 24 21  2  0  0  0  0
 24 18  1  0  0  0  0
 25 20  1  0  0  0  0
 25 28  1  0  0  0  0
 26 29  1  0  0  0  0
 27 26  1  6  0  0  0
 27 28  1  0  0  0  0
 27 29  1  0  0  0  0
 28 29  1  0  0  0  0
 29 32  1  1  0  0  0
 32 30  1  0  0  0  0
 32 31  1  1  0  0  0
 33 39  1  0  0  0  0
 34 40  1  0  0  0  0
 35 36  2  0  0  0  0
 35 39  1  0  0  0  0
 36 37  1  0  0  0  0
 37 34  2  0  0  0  0
 38 34  1  0  0  0  0
 39 38  2  0  0  0  0
 40 41  1  0  0  0  0
 41 43  2  0  0  0  0
 43 42  1  0  0  0  0
M  END
>  <MODEL>
4

>  <REMARK>
 VINA RESULT:      -7.9      4.862     10.807
  Name = 
  10 active torsions:
  status: ('A' for Active; 'I' for Inactive)
    1  A    between atoms: C_3  and  N_15
    2  A    between atoms: C_3  and  C_21
    3  A    between atoms: C_7  and  O_14
    4  A    between atoms: C_8  and  C_40
    5  A    between atoms: N_9  and  C_12
    6  A    between atoms: N_9  and  C_41
    7  A    between atoms: C_11  and  O_14
    8  A    between atoms: N_15  and  C_36
    9  A    between atoms: C_22  and  C_43
   10  A    between atoms: N_28  and  C_43
                            x       y       z     vdW  Elec       q    Type
                         _______ _______ _______ _____ _____    ______ ____

>  <TORSDO>
F 10

$$$$
=
 OpenBabel10222415173D

 43 49  0  0  1  0  0  0  0  0999 V2000
  190.6910  176.3580  147.0070 C   0  0  0  0  0  2  0  0  0  0  0  0
  188.7520  178.9680  141.2980 C   0  0  1  0  0  3  0  0  0  0  0  0
  189.3910  176.8020  142.1570 C   0  0  0  0  0  0  0  0  0  0  0  0
  189.3260  178.2280  142.4580 C   0  0  0  0  0  0  0  0  0  0  0  0
  189.0920  177.8490  145.7990 C   0  0  0  0  0  3  0  0  0  0  0  0
  189.3480  177.0300  146.8250 C   0  0  0  0  0  0  0  0  0  0  0  0
  188.5250  177.9110  140.2120 C   0  0  2  0  0  3  0  0  0  0  0  0
  191.7850  176.8460  146.0350 C   0  0  0  0  0  2  0  0  0  0  0  0
  190.1760  178.2400  144.8400 C   0  0  1  0  0  3  0  0  0  0  0  0
  190.6350  175.9320  144.0980 N   0  0  0  0  0  2  0  0  0  0  0  0
  191.2190  177.1500  144.6480 C   0  0  2  0  0  3  0  0  0  0  0  0
  189.9220  175.8030  142.8660 C   0  0  0  0  0  3  0  0  0  0  0  0
  189.6710  178.8600  143.5810 C   0  0  0  0  0  3  0  0  0  0  0  0
  188.3280  176.7370  147.7200 O   0  0  0  0  0  1  0  0  0  0  0  0
  188.7680  176.5350  140.8410 C   0  0  0  0  0  2  0  0  0  0  0  0
  189.4780  178.1400  139.0370 C   0  0  2  0  0  3  0  0  0  0  0  0
  188.9180  179.0280  138.1140 O   0  0  0  0  0  1  0  0  0  0  0  0
  189.8140  176.8810  138.3750 N   0  0  0  0  0  2  0  0  0  0  0  0
  191.0850  176.1850  136.3670 C   0  0  0  0  0  3  0  0  0  0  0  0
  193.4890  176.0920  136.4760 C   0  0  0  0  0  0  0  0  0  0  0  0
  192.2540  176.7560  138.3940 C   0  0  0  0  0  3  0  0  0  0  0  0
  193.4370  176.4960  137.7750 N   0  0  0  0  0  0  0  0  0  0  0  0
  192.3090  175.9230  135.7490 C   0  0  0  0  0  3  0  0  0  0  0  0
  191.0500  176.6070  137.7020 C   0  0  0  0  0  0  0  0  0  0  0  0
  194.8000  175.7850  135.8460 C   0  0  0  0  0  2  0  0  0  0  0  0
  196.0440  173.1110  135.7630 C   0  0  0  0  0  2  0  0  0  0  0  0
  196.6880  174.4000  136.2130 C   0  0  1  0  0  3  0  0  0  0  0  0
  195.7320  175.3100  136.8600 N   0  0  0  0  0  0  0  0  0  0  0  0
  195.5560  173.8530  136.9910 C   0  0  1  0  0  0  0  0  0  0  0  0
  195.4150  172.2100  138.7350 O   0  0  0  0  0  1  0  0  0  0  0  0
  196.0900  174.3920  139.3730 C   0  0  0  0  0  1  0  0  0  0  0  0
  196.1390  173.3220  138.2980 C   0  0  2  0  0  3  0  0  0  0  0  0
  187.4680  179.5570  141.6570 N   0  0  0  0  0  2  0  0  0  0  0  0
  184.5000  178.3210  139.7250 C   0  0  0  0  0  0  0  0  0  0  0  0
  185.4430  178.3990  142.3690 C   0  0  0  0  0  3  0  0  0  0  0  0
  184.2110  177.8050  142.0840 C   0  0  0  0  0  3  0  0  0  0  0  0
  183.7410  177.7680  140.7690 C   0  0  0  0  0  3  0  0  0  0  0  0
  185.7330  178.9110  140.0230 C   0  0  0  0  0  3  0  0  0  0  0  0
  186.2080  178.9550  141.3430 C   0  0  0  0  0  0  0  0  0  0  0  0
  184.0760  178.3140  138.3840 O   0  0  0  0  0  0  0  0  0  0  0  0
  182.9630  177.6530  137.8390 C   0  0  0  0  0  3  0  0  0  0  0  0
  181.7930  175.8250  136.8570 N   0  0  0  0  0  1  0  0  0  0  0  0
  182.9780  176.4030  137.3910 C   0  0  0  0  0  3  0  0  0  0  0  0
  2 33  1  1  0  0  0
  2  4  1  0  0  0  0
  3  4  1  0  0  0  0
  3 12  2  0  0  0  0
  4 13  2  0  0  0  0
  5  6  2  0  0  0  0
  6  1  1  0  0  0  0
  6 14  1  0  0  0  0
  7 16  1  6  0  0  0
  7 15  1  0  0  0  0
  7  2  1  0  0  0  0
  8  1  1  0  0  0  0
  9 13  1  6  0  0  0
  9  5  1  0  0  0  0
 10 11  1  0  0  0  0
 11  9  1  0  0  0  0
 11  8  1  1  0  0  0
 12 10  1  0  0  0  0
 15  3  1  0  0  0  0
 16 17  1  6  0  0  0
 18 16  1  0  0  0  0
 19 24  1  0  0  0  0
 20 22  2  0  0  0  0
 22 21  1  0  0  0  0
 23 19  2  0  0  0  0
 23 20  1  0  0  0  0
 24 18  1  0  0  0  0
 24 21  2  0  0  0  0
 25 20  1  0  0  0  0
 25 28  1  0  0  0  0
 26 29  1  0  0  0  0
 27 26  1  6  0  0  0
 27 28  1  0  0  0  0
 27 29  1  0  0  0  0
 28 29  1  0  0  0  0
 29 32  1  1  0  0  0
 32 30  1  0  0  0  0
 32 31  1  1  0  0  0
 34 38  2  0  0  0  0
 34 37  1  0  0  0  0
 36 35  1  0  0  0  0
 37 36  2  0  0  0  0
 38 39  1  0  0  0  0
 39 33  1  0  0  0  0
 39 35  2  0  0  0  0
 40 34  1  0  0  0  0
 41 40  1  0  0  0  0
 42 43  1  0  0  0  0
 43 41  2  0  0  0  0
M  END
>  <MODEL>
5

>  <REMARK>
 VINA RESULT:      -7.6      4.815     10.714
  Name = 
  10 active torsions:
  status: ('A' for Active; 'I' for Inactive)
    1  A    between atoms: C_3  and  N_15
    2  A    between atoms: C_3  and  C_21
    3  A    between atoms: C_7  and  O_14
    4  A    between atoms: C_8  and  C_40
    5  A    between atoms: N_9  and  C_12
    6  A    between atoms: N_9  and  C_41
    7  A    between atoms: C_11  and  O_14
    8  A    between atoms: N_15  and  C_36
    9  A    between atoms: C_22  and  C_43
   10  A    between atoms: N_28  and  C_43
                            x       y       z     vdW  Elec       q    Type
                         _______ _______ _______ _____ _____    ______ ____

>  <TORSDO>
F 10

$$$$
=
 OpenBabel10222415173D

 43 49  0  0  1  0  0  0  0  0999 V2000
  194.9050  173.4110  136.4000 C   0  0  0  0  0  2  0  0  0  0  0  0
  188.6130  175.2890  136.6120 C   0  0  1  0  0  3  0  0  0  0  0  0
  190.7220  176.1640  135.8210 C   0  0  0  0  0  0  0  0  0  0  0  0
  190.0910  175.0970  136.5910 C   0  0  0  0  0  0  0  0  0  0  0  0
  192.5070  172.8140  136.0340 C   0  0  0  0  0  3  0  0  0  0  0  0
  193.7950  172.6430  135.7150 C   0  0  0  0  0  0  0  0  0  0  0  0
  188.3620  176.5980  135.8560 C   0  0  2  0  0  3  0  0  0  0  0  0
  194.4480  174.2460  137.6130 C   0  0  0  0  0  2  0  0  0  0  0  0
  192.1100  173.6930  137.1810 C   0  0  1  0  0  3  0  0  0  0  0  0
  193.1140  175.7370  136.2320 N   0  0  0  0  0  2  0  0  0  0  0  0
  193.0650  174.8570  137.3940 C   0  0  2  0  0  3  0  0  0  0  0  0
  192.0160  176.4300  135.6340 C   0  0  0  0  0  3  0  0  0  0  0  0
  190.6630  174.0520  137.1920 C   0  0  0  0  0  3  0  0  0  0  0  0
  194.1220  171.7790  134.6790 O   0  0  0  0  0  1  0  0  0  0  0  0
  189.6860  177.0320  135.2180 C   0  0  0  0  0  2  0  0  0  0  0  0
  187.8480  177.6760  136.8130 C   0  0  2  0  0  3  0  0  0  0  0  0
  187.2440  178.7180  136.1040 O   0  0  0  0  0  1  0  0  0  0  0  0
  188.9280  178.2030  137.6450 N   0  0  0  0  0  2  0  0  0  0  0  0
  188.1470  178.1250  139.9940 C   0  0  0  0  0  3  0  0  0  0  0  0
  189.6160  177.2510  141.6890 C   0  0  0  0  0  0  0  0  0  0  0  0
  190.3510  177.3340  139.4310 C   0  0  0  0  0  3  0  0  0  0  0  0
  190.5670  177.0330  140.7400 N   0  0  0  0  0  0  0  0  0  0  0  0
  188.3870  177.8090  141.3310 C   0  0  0  0  0  3  0  0  0  0  0  0
  189.1330  177.8880  139.0280 C   0  0  0  0  0  0  0  0  0  0  0  0
  189.9040  176.9380  143.1140 C   0  0  0  0  0  2  0  0  0  0  0  0
  190.3700  177.1680  146.0180 C   0  0  0  0  0  2  0  0  0  0  0  0
  190.0090  178.2820  145.0640 C   0  0  1  0  0  3  0  0  0  0  0  0
  189.1330  177.8250  143.9750 N   0  0  0  0  0  0  0  0  0  0  0  0
  189.0350  177.1950  145.3040 C   0  0  1  0  0  0  0  0  0  0  0  0
  187.7660  177.0940  147.3390 O   0  0  0  0  0  1  0  0  0  0  0  0
  186.5950  177.7350  145.3790 C   0  0  0  0  0  1  0  0  0  0  0  0
  187.9070  177.7960  146.1390 C   0  0  2  0  0  3  0  0  0  0  0  0
  187.9500  174.2010  135.9020 N   0  0  0  0  0  2  0  0  0  0  0  0
  184.5370  173.8610  137.4200 C   0  0  0  0  0  0  0  0  0  0  0  0
  186.3810  172.3350  135.9510 C   0  0  0  0  0  3  0  0  0  0  0  0
  185.1570  171.7780  136.3290 C   0  0  0  0  0  3  0  0  0  0  0  0
  184.2410  172.5360  137.0610 C   0  0  0  0  0  3  0  0  0  0  0  0
  185.7650  174.4090  137.0340 C   0  0  0  0  0  3  0  0  0  0  0  0
  186.6920  173.6510  136.3020 C   0  0  0  0  0  0  0  0  0  0  0  0
  183.6550  174.6700  138.1570 O   0  0  0  0  0  0  0  0  0  0  0  0
  183.4760  176.0600  138.0560 C   0  0  0  0  0  3  0  0  0  0  0  0
  182.2540  178.1020  138.1520 N   0  0  0  0  0  1  0  0  0  0  0  0
  182.3280  176.6880  138.2810 C   0  0  0  0  0  3  0  0  0  0  0  0
  1  8  1  0  0  0  0
  2 33  1  6  0  0  0
  3  4  1  0  0  0  0
  4  2  1  0  0  0  0
  4 13  2  0  0  0  0
  6  5  2  0  0  0  0
  6  1  1  0  0  0  0
  7  2  1  0  0  0  0
  7 16  1  1  0  0  0
  9  5  1  6  0  0  0
  9 13  1  0  0  0  0
  9 11  1  0  0  0  0
 10 11  1  0  0  0  0
 11  8  1  6  0  0  0
 12  3  2  0  0  0  0
 12 10  1  0  0  0  0
 14  6  1  0  0  0  0
 15  3  1  0  0  0  0
 15  7  1  0  0  0  0
 16 17  1  6  0  0  0
 16 18  1  0  0  0  0
 18 24  1  0  0  0  0
 19 23  1  0  0  0  0
 20 25  1  0  0  0  0
 21 22  2  0  0  0  0
 22 20  1  0  0  0  0
 23 20  2  0  0  0  0
 24 21  1  0  0  0  0
 24 19  2  0  0  0  0
 25 28  1  0  0  0  0
 27 29  1  0  0  0  0
 27 26  1  6  0  0  0
 28 27  1  0  0  0  0
 28 29  1  0  0  0  0
 29 26  1  0  0  0  0
 29 32  1  1  0  0  0
 32 31  1  6  0  0  0
 32 30  1  0  0  0  0
 33 39  1  0  0  0  0
 34 40  1  0  0  0  0
 35 39  2  0  0  0  0
 35 36  1  0  0  0  0
 36 37  2  0  0  0  0
 37 34  1  0  0  0  0
 38 34  2  0  0  0  0
 39 38  1  0  0  0  0
 41 40  1  0  0  0  0
 41 43  2  0  0  0  0
 42 43  1  0  0  0  0
M  END
>  <MODEL>
6

>  <REMARK>
 VINA RESULT:      -7.5      4.517      9.458
  Name = 
  10 active torsions:
  status: ('A' for Active; 'I' for Inactive)
    1  A    between atoms: C_3  and  N_15
    2  A    between atoms: C_3  and  C_21
    3  A    between atoms: C_7  and  O_14
    4  A    between atoms: C_8  and  C_40
    5  A    between atoms: N_9  and  C_12
    6  A    between atoms: N_9  and  C_41
    7  A    between atoms: C_11  and  O_14
    8  A    between atoms: N_15  and  C_36
    9  A    between atoms: C_22  and  C_43
   10  A    between atoms: N_28  and  C_43
                            x       y       z     vdW  Elec       q    Type
                         _______ _______ _______ _____ _____    ______ ____

>  <TORSDO>
F 10

$$$$
=
 OpenBabel10222415173D

 43 49  0  0  1  0  0  0  0  0999 V2000
  189.8700  178.2560  144.7860 C   0  0  0  0  0  2  0  0  0  0  0  0
  190.1650  176.5130  138.4600 C   0  0  1  0  0  3  0  0  0  0  0  0
  188.8760  178.0090  139.8510 C   0  0  0  0  0  0  0  0  0  0  0  0
  189.8610  176.9330  139.8570 C   0  0  0  0  0  0  0  0  0  0  0  0
  191.2900  177.8120  142.7800 C   0  0  0  0  0  3  0  0  0  0  0  0
  191.1040  178.4620  143.9350 C   0  0  0  0  0  0  0  0  0  0  0  0
  189.2430  177.3550  137.5710 C   0  0  2  0  0  3  0  0  0  0  0  0
  188.9560  177.1070  144.3180 C   0  0  0  0  0  2  0  0  0  0  0  0
  190.3330  176.7480  142.3350 C   0  0  1  0  0  3  0  0  0  0  0  0
  188.3790  178.2520  142.2520 N   0  0  0  0  0  2  0  0  0  0  0  0
  188.9060  177.0040  142.7940 C   0  0  2  0  0  3  0  0  0  0  0  0
  188.2560  178.6040  140.8720 C   0  0  0  0  0  3  0  0  0  0  0  0
  190.4770  176.3710  140.8990 C   0  0  0  0  0  3  0  0  0  0  0  0
  192.0430  179.4010  144.3360 O   0  0  0  0  0  1  0  0  0  0  0  0
  188.5740  178.4100  138.4580 C   0  0  0  0  0  2  0  0  0  0  0  0
  188.1900  176.4680  136.9040 C   0  0  2  0  0  3  0  0  0  0  0  0
  188.6670  175.9620  135.6920 O   0  0  0  0  0  1  0  0  0  0  0  0
  186.9460  177.2020  136.6790 N   0  0  0  0  0  2  0  0  0  0  0  0
  185.0790  175.5970  136.9510 C   0  0  0  0  0  3  0  0  0  0  0  0
  183.1810  176.2230  138.2930 C   0  0  0  0  0  0  0  0  0  0  0  0
  184.9790  177.7520  138.0220 C   0  0  0  0  0  3  0  0  0  0  0  0
  183.7620  177.4300  138.5360 N   0  0  0  0  0  0  0  0  0  0  0  0
  183.8300  175.2850  137.4880 C   0  0  0  0  0  3  0  0  0  0  0  0
  185.6670  176.8410  137.2160 C   0  0  0  0  0  0  0  0  0  0  0  0
  181.8340  175.9220  138.8470 C   0  0  0  0  0  2  0  0  0  0  0  0
  179.6070  174.0640  139.3820 C   0  0  0  0  0  2  0  0  0  0  0  0
  179.6400  175.1730  138.3580 C   0  0  1  0  0  3  0  0  0  0  0  0
  180.9830  175.3780  137.7970 N   0  0  0  0  0  0  0  0  0  0  0  0
  180.5640  174.0270  138.2090 C   0  0  1  0  0  0  0  0  0  0  0  0
  179.9960  171.8510  137.3710 O   0  0  0  0  0  1  0  0  0  0  0  0
  180.9690  173.3690  135.8310 C   0  0  0  0  0  1  0  0  0  0  0  0
  180.0520  173.2040  137.0280 C   0  0  2  0  0  3  0  0  0  0  0  0
  191.5500  176.8220  138.1260 N   0  0  0  0  0  2  0  0  0  0  0  0
  194.5720  175.3710  136.4430 C   0  0  0  0  0  0  0  0  0  0  0  0
  192.0100  174.5810  137.2800 C   0  0  0  0  0  3  0  0  0  0  0  0
  192.8570  173.6600  136.6580 C   0  0  0  0  0  3  0  0  0  0  0  0
  194.1300  174.0530  136.2410 C   0  0  0  0  0  3  0  0  0  0  0  0
  193.7150  176.2840  137.0680 C   0  0  0  0  0  3  0  0  0  0  0  0
  192.4330  175.8960  137.4860 C   0  0  0  0  0  0  0  0  0  0  0  0
  195.8410  175.8230  136.0410 O   0  0  0  0  0  0  0  0  0  0  0  0
  197.0640  175.1360  136.1280 C   0  0  0  0  0  3  0  0  0  0  0  0
  198.8570  174.0350  137.2430 N   0  0  0  0  0  1  0  0  0  0  0  0
  197.6140  174.7240  137.2650 C   0  0  0  0  0  3  0  0  0  0  0  0
  2 33  1  6  0  0  0
  2  4  1  0  0  0  0
  3  4  1  0  0  0  0
  3 12  2  0  0  0  0
  4 13  2  0  0  0  0
  5  6  2  0  0  0  0
  6 14  1  0  0  0  0
  6  1  1  0  0  0  0
  7 16  1  1  0  0  0
  7 15  1  0  0  0  0
  7  2  1  0  0  0  0
  8  1  1  0  0  0  0
  9 13  1  6  0  0  0
  9  5  1  0  0  0  0
  9 11  1  0  0  0  0
 10 11  1  0  0  0  0
 11  8  1  1  0  0  0
 12 10  1  0  0  0  0
 15  3  1  0  0  0  0
 16 17  1  6  0  0  0
 18 16  1  0  0  0  0
 18 24  1  0  0  0  0
 19 24  2  0  0  0  0
 19 23  1  0  0  0  0
 20 22  1  0  0  0  0
 20 25  1  0  0  0  0
 21 22  2  0  0  0  0
 23 20  2  0  0  0  0
 24 21  1  0  0  0  0
 27 26  1  1  0  0  0
 28 29  1  0  0  0  0
 28 27  1  0  0  0  0
 28 25  1  0  0  0  0
 29 32  1  6  0  0  0
 29 27  1  0  0  0  0
 29 26  1  0  0  0  0
 32 31  1  6  0  0  0
 32 30  1  0  0  0  0
 34 38  1  0  0  0  0
 35 39  1  0  0  0  0
 36 35  2  0  0  0  0
 37 34  2  0  0  0  0
 37 36  1  0  0  0  0
 38 39  2  0  0  0  0
 39 33  1  0  0  0  0
 40 41  1  0  0  0  0
 40 34  1  0  0  0  0
 41 43  2  0  0  0  0
 42 43  1  0  0  0  0
M  END
>  <MODEL>
7

>  <REMARK>
 VINA RESULT:      -7.5      4.922     10.769
  Name = 
  10 active torsions:
  status: ('A' for Active; 'I' for Inactive)
    1  A    between atoms: C_3  and  N_15
    2  A    between atoms: C_3  and  C_21
    3  A    between atoms: C_7  and  O_14
    4  A    between atoms: C_8  and  C_40
    5  A    between atoms: N_9  and  C_12
    6  A    between atoms: N_9  and  C_41
    7  A    between atoms: C_11  and  O_14
    8  A    between atoms: N_15  and  C_36
    9  A    between atoms: C_22  and  C_43
   10  A    between atoms: N_28  and  C_43
                            x       y       z     vdW  Elec       q    Type
                         _______ _______ _______ _____ _____    ______ ____

>  <TORSDO>
F 10

$$$$
=
 OpenBabel10222415173D

 43 49  0  0  1  0  0  0  0  0999 V2000
  189.9030  178.0850  144.8200 C   0  0  0  0  0  2  0  0  0  0  0  0
  190.0530  176.7010  138.4000 C   0  0  1  0  0  3  0  0  0  0  0  0
  188.7690  178.0830  139.9090 C   0  0  0  0  0  0  0  0  0  0  0  0
  189.7810  177.0360  139.8270 C   0  0  0  0  0  0  0  0  0  0  0  0
  191.2740  177.7900  142.7530 C   0  0  0  0  0  3  0  0  0  0  0  0
  191.1050  178.3700  143.9470 C   0  0  0  0  0  0  0  0  0  0  0  0
  189.0840  177.5650  137.5860 C   0  0  2  0  0  3  0  0  0  0  0  0
  189.0050  176.9390  144.3140 C   0  0  0  0  0  2  0  0  0  0  0  0
  190.3310  176.7270  142.2760 C   0  0  1  0  0  3  0  0  0  0  0  0
  188.3380  178.1800  142.3330 N   0  0  0  0  0  2  0  0  0  0  0  0
  188.9120  176.9190  142.7890 C   0  0  2  0  0  3  0  0  0  0  0  0
  188.1640  178.6040  140.9790 C   0  0  0  0  0  3  0  0  0  0  0  0
  190.4420  176.4340  140.8180 C   0  0  0  0  0  3  0  0  0  0  0  0
  192.0320  179.3120  144.3720 O   0  0  0  0  0  1  0  0  0  0  0  0
  188.4150  178.5510  138.5500 C   0  0  0  0  0  2  0  0  0  0  0  0
  188.0350  176.6880  136.9010 C   0  0  2  0  0  3  0  0  0  0  0  0
  188.5060  176.2260  135.6690 O   0  0  0  0  0  1  0  0  0  0  0  0
  186.7800  177.4150  136.7110 N   0  0  0  0  0  2  0  0  0  0  0  0
  184.8750  175.8380  136.8200 C   0  0  0  0  0  3  0  0  0  0  0  0
  183.0380  176.3190  138.3020 C   0  0  0  0  0  0  0  0  0  0  0  0
  184.8740  177.8230  138.1840 C   0  0  0  0  0  3  0  0  0  0  0  0
  183.6640  177.4640  138.6910 N   0  0  0  0  0  0  0  0  0  0  0  0
  183.6330  175.4860  137.3520 C   0  0  0  0  0  3  0  0  0  0  0  0
  185.5080  177.0160  137.2360 C   0  0  0  0  0  0  0  0  0  0  0  0
  181.7010  175.9790  138.8550 C   0  0  0  0  0  2  0  0  0  0  0  0
  178.9710  176.9220  139.4580 C   0  0  0  0  0  2  0  0  0  0  0  0
  180.0420  176.5400  140.4520 C   0  0  1  0  0  3  0  0  0  0  0  0
  181.3930  176.8620  139.9720 N   0  0  0  0  0  0  0  0  0  0  0  0
  180.2570  177.7140  139.5770 C   0  0  1  0  0  0  0  0  0  0  0  0
  180.1380  180.1080  139.6860 O   0  0  0  0  0  1  0  0  0  0  0  0
  181.2910  179.0140  141.4460 C   0  0  0  0  0  1  0  0  0  0  0  0
  180.1340  178.9500  140.4660 C   0  0  2  0  0  3  0  0  0  0  0  0
  191.4200  177.0650  138.0450 N   0  0  0  0  0  2  0  0  0  0  0  0
  194.2280  174.7370  137.1730 C   0  0  0  0  0  0  0  0  0  0  0  0
  192.0600  176.0240  135.9350 C   0  0  0  0  0  3  0  0  0  0  0  0
  192.9010  175.1970  135.1870 C   0  0  0  0  0  3  0  0  0  0  0  0
  193.9800  174.5580  135.8020 C   0  0  0  0  0  3  0  0  0  0  0  0
  193.3780  175.5670  137.9120 C   0  0  0  0  0  3  0  0  0  0  0  0
  192.2940  176.2150  137.2980 C   0  0  0  0  0  0  0  0  0  0  0  0
  195.2990  174.1210  137.8430 O   0  0  0  0  0  0  0  0  0  0  0  0
  195.3340  172.8340  138.4050 C   0  0  0  0  0  3  0  0  0  0  0  0
  195.4310  170.4540  138.3690 N   0  0  0  0  0  1  0  0  0  0  0  0
  195.3990  171.7090  137.7020 C   0  0  0  0  0  3  0  0  0  0  0  0
  2 33  1  6  0  0  0
  2  4  1  0  0  0  0
  3 12  2  0  0  0  0
  4  3  1  0  0  0  0
  4 13  2  0  0  0  0
  5  6  2  0  0  0  0
  6 14  1  0  0  0  0
  6  1  1  0  0  0  0
  7 16  1  1  0  0  0
  7  2  1  0  0  0  0
  7 15  1  0  0  0  0
  8  1  1  0  0  0  0
  9 13  1  6  0  0  0
  9  5  1  0  0  0  0
  9 11  1  0  0  0  0
 10 11  1  0  0  0  0
 11  8  1  1  0  0  0
 12 10  1  0  0  0  0
 15  3  1  0  0  0  0
 16 17  1  6  0  0  0
 18 16  1  0  0  0  0
 18 24  1  0  0  0  0
 19 24  2  0  0  0  0
 19 23  1  0  0  0  0
 20 22  1  0  0  0  0
 20 25  1  0  0  0  0
 21 22  2  0  0  0  0
 23 20  2  0  0  0  0
 24 21  1  0  0  0  0
 25 28  1  0  0  0  0
 26 29  1  0  0  0  0
 27 26  1  6  0  0  0
 28 27  1  0  0  0  0
 29 28  1  0  0  0  0
 29 27  1  0  0  0  0
 29 32  1  1  0  0  0
 30 32  1  0  0  0  0
 32 31  1  1  0  0  0
 34 40  1  0  0  0  0
 34 38  1  0  0  0  0
 35 39  1  0  0  0  0
 36 37  1  0  0  0  0
 36 35  2  0  0  0  0
 37 34  2  0  0  0  0
 39 38  2  0  0  0  0
 39 33  1  0  0  0  0
 40 41  1  0  0  0  0
 43 42  1  0  0  0  0
 43 41  2  0  0  0  0
M  END
>  <MODEL>
8

>  <REMARK>
 VINA RESULT:      -7.2      4.364     10.289
  Name = 
  10 active torsions:
  status: ('A' for Active; 'I' for Inactive)
    1  A    between atoms: C_3  and  N_15
    2  A    between atoms: C_3  and  C_21
    3  A    between atoms: C_7  and  O_14
    4  A    between atoms: C_8  and  C_40
    5  A    between atoms: N_9  and  C_12
    6  A    between atoms: N_9  and  C_41
    7  A    between atoms: C_11  and  O_14
    8  A    between atoms: N_15  and  C_36
    9  A    between atoms: C_22  and  C_43
   10  A    between atoms: N_28  and  C_43
                            x       y       z     vdW  Elec       q    Type
                         _______ _______ _______ _____ _____    ______ ____

>  <TORSDO>
F 10

$$$$
=
 OpenBabel10222415173D

 43 49  0  0  1  0  0  0  0  0999 V2000
  190.6120  176.3720  147.0700 C   0  0  0  0  0  2  0  0  0  0  0  0
  188.8260  179.0020  141.3210 C   0  0  1  0  0  3  0  0  0  0  0  0
  189.2990  176.8110  142.2230 C   0  0  0  0  0  0  0  0  0  0  0  0
  189.3510  178.2440  142.4920 C   0  0  0  0  0  0  0  0  0  0  0  0
  189.1240  177.9590  145.8430 C   0  0  0  0  0  3  0  0  0  0  0  0
  189.3250  177.1450  146.8850 C   0  0  0  0  0  0  0  0  0  0  0  0
  188.5040  177.9430  140.2610 C   0  0  2  0  0  3  0  0  0  0  0  0
  191.7310  176.7500  146.0780 C   0  0  0  0  0  2  0  0  0  0  0  0
  190.2250  178.2410  144.8650 C   0  0  1  0  0  3  0  0  0  0  0  0
  190.4910  175.8880  144.1720 N   0  0  0  0  0  2  0  0  0  0  0  0
  191.1760  177.0670  144.6890 C   0  0  2  0  0  3  0  0  0  0  0  0
  189.7570  175.7890  142.9500 C   0  0  0  0  0  3  0  0  0  0  0  0
  189.7580  178.8720  143.5970 C   0  0  0  0  0  3  0  0  0  0  0  0
  188.2940  176.9540  147.7960 O   0  0  0  0  0  1  0  0  0  0  0  0
  188.6430  176.5660  140.9190 C   0  0  0  0  0  2  0  0  0  0  0  0
  189.4590  178.0700  139.0730 C   0  0  2  0  0  3  0  0  0  0  0  0
  189.1320  179.1820  138.2930 O   0  0  0  0  0  1  0  0  0  0  0  0
  189.4410  176.8630  138.2480 N   0  0  0  0  0  2  0  0  0  0  0  0
  191.8760  176.4230  138.3450 C   0  0  0  0  0  3  0  0  0  0  0  0
  192.7510  174.4390  137.2980 C   0  0  0  0  0  0  0  0  0  0  0  0
  190.4180  174.8770  137.2120 C   0  0  0  0  0  3  0  0  0  0  0  0
  191.4920  174.1010  136.9060 N   0  0  0  0  0  0  0  0  0  0  0  0
  192.9660  175.6130  138.0220 C   0  0  0  0  0  3  0  0  0  0  0  0
  190.5860  176.0570  137.9410 C   0  0  0  0  0  0  0  0  0  0  0  0
  193.9030  173.5810  136.9140 C   0  0  0  0  0  2  0  0  0  0  0  0
  196.8270  173.3410  136.6020 C   0  0  0  0  0  2  0  0  0  0  0  0
  195.7930  173.3560  135.5020 C   0  0  1  0  0  3  0  0  0  0  0  0
  194.6410  174.2090  135.8260 N   0  0  0  0  0  0  0  0  0  0  0  0
  195.9790  174.5660  136.3320 C   0  0  1  0  0  0  0  0  0  0  0  0
  197.6780  176.2510  136.1580 O   0  0  0  0  0  1  0  0  0  0  0  0
  195.6640  176.6370  134.9670 C   0  0  0  0  0  1  0  0  0  0  0  0
  196.6660  175.6030  135.4460 C   0  0  2  0  0  3  0  0  0  0  0  0
  187.5960  179.6990  141.6780 N   0  0  0  0  0  2  0  0  0  0  0  0
  184.2580  178.3980  140.5680 C   0  0  0  0  0  0  0  0  0  0  0  0
  185.8430  178.5060  142.8840 C   0  0  0  0  0  3  0  0  0  0  0  0
  184.5910  177.8880  142.9230 C   0  0  0  0  0  3  0  0  0  0  0  0
  183.8020  177.8350  141.7720 C   0  0  0  0  0  3  0  0  0  0  0  0
  185.5140  179.0130  140.5410 C   0  0  0  0  0  3  0  0  0  0  0  0
  186.3100  179.0720  141.6950 C   0  0  0  0  0  0  0  0  0  0  0  0
  183.5060  178.3770  139.3800 O   0  0  0  0  0  0  0  0  0  0  0  0
  182.2690  178.9970  139.1360 C   0  0  0  0  0  3  0  0  0  0  0  0
  180.0210  179.6160  139.6210 N   0  0  0  0  0  1  0  0  0  0  0  0
  181.2310  178.9520  139.9630 C   0  0  0  0  0  3  0  0  0  0  0  0
  2 33  1  1  0  0  0
  2  4  1  0  0  0  0
  3  4  1  0  0  0  0
  3 12  2  0  0  0  0
  4 13  2  0  0  0  0
  5  6  2  0  0  0  0
  6  1  1  0  0  0  0
  6 14  1  0  0  0  0
  7 16  1  6  0  0  0
  7 15  1  0  0  0  0
  7  2  1  0  0  0  0
  8  1  1  0  0  0  0
  9 13  1  6  0  0  0
  9  5  1  0  0  0  0
 10 11  1  0  0  0  0
 11  9  1  0  0  0  0
 11  8  1  1  0  0  0
 12 10  1  0  0  0  0
 15  3  1  0  0  0  0
 16 17  1  6  0  0  0
 18 16  1  0  0  0  0
 20 23  2  0  0  0  0
 21 24  1  0  0  0  0
 22 21  2  0  0  0  0
 22 20  1  0  0  0  0
 23 19  1  0  0  0  0
 24 18  1  0  0  0  0
 24 19  2  0  0  0  0
 25 20  1  0  0  0  0
 27 28  1  0  0  0  0
 27 29  1  0  0  0  0
 27 26  1  1  0  0  0
 28 29  1  0  0  0  0
 28 25  1  0  0  0  0
 29 32  1  6  0  0  0
 29 26  1  0  0  0  0
 32 31  1  1  0  0  0
 32 30  1  0  0  0  0
 33 39  1  0  0  0  0
 34 37  1  0  0  0  0
 35 36  1  0  0  0  0
 37 36  2  0  0  0  0
 38 34  2  0  0  0  0
 38 39  1  0  0  0  0
 39 35  2  0  0  0  0
 40 34  1  0  0  0  0
 41 40  1  0  0  0  0
 41 43  2  0  0  0  0
 42 43  1  0  0  0  0
M  END
>  <MODEL>
9

>  <REMARK>
 VINA RESULT:      -7.1      4.912     10.883
  Name = 
  10 active torsions:
  status: ('A' for Active; 'I' for Inactive)
    1  A    between atoms: C_3  and  N_15
    2  A    between atoms: C_3  and  C_21
    3  A    between atoms: C_7  and  O_14
    4  A    between atoms: C_8  and  C_40
    5  A    between atoms: N_9  and  C_12
    6  A    between atoms: N_9  and  C_41
    7  A    between atoms: C_11  and  O_14
    8  A    between atoms: N_15  and  C_36
    9  A    between atoms: C_22  and  C_43
   10  A    between atoms: N_28  and  C_43
                            x       y       z     vdW  Elec       q    Type
                         _______ _______ _______ _____ _____    ______ ____

>  <TORSDO>
F 10

$$$$
