=
 OpenBabel10222417443D

 52 56  0  0  1  0  0  0  0  0999 V2000
  186.7410  177.1340  143.7630 O   0  0  0  0  0  0  0  0  0  0  0  0
  188.0430  177.2930  144.2860 C   0  0  0  0  0  2  0  0  0  0  0  0
  188.9370  177.6540  143.1620 C   0  0  0  0  0  0  0  0  0  0  0  0
  186.8010  177.4990  142.3990 C   0  0  2  0  0  3  0  0  0  0  0  0
  188.2200  177.7690  142.0720 C   0  0  0  0  0  0  0  0  0  0  0  0
  188.5890  179.2710  140.2490 O   0  0  0  0  0  0  0  0  0  0  0  0
  189.2760  177.0610  139.9150 N   0  0  0  0  0  2  0  0  0  0  0  0
  188.7030  178.0990  140.7140 C   0  0  0  0  0  0  0  0  0  0  0  0
  189.7370  177.2910  138.5560 C   0  0  0  0  0  2  0  0  0  0  0  0
  189.1270  174.8910  137.1540 O   0  0  0  0  0  0  0  0  0  0  0  0
  190.7060  176.2660  138.1960 N   0  0  0  0  0  2  0  0  0  0  0  0
  190.3260  175.0710  137.5110 C   0  0  0  0  0  0  0  0  0  0  0  0
  192.7430  174.6760  137.2640 C   0  0  0  0  0  2  0  0  0  0  0  0
  191.3680  174.0540  137.1710 C   0  0  2  0  0  3  0  0  0  0  0  0
  191.1760  173.5210  135.7550 C   0  0  0  0  0  2  0  0  0  0  0  0
  192.8010  173.2030  134.9950 S   0  0  0  0  0  0  0  0  0  0  0  0
  193.6730  173.7740  136.4850 C   0  0  1  0  0  3  0  0  0  0  0  0
  197.3810  174.6860  136.3510 C   0  0  0  0  0  3  0  0  0  0  0  0
  194.9490  175.6130  135.3450 C   0  0  0  0  0  3  0  0  0  0  0  0
  194.9680  174.4580  136.1450 C   0  0  0  0  0  0  0  0  0  0  0  0
  196.1300  176.2940  135.0480 C   0  0  0  0  0  3  0  0  0  0  0  0
  197.3460  175.8330  135.5560 C   0  0  0  0  0  3  0  0  0  0  0  0
  196.2040  173.9740  136.6420 C   0  0  0  0  0  0  0  0  0  0  0  0
  195.5220  172.9270  138.6780 F   0  0  0  0  0  0  0  0  0  0  0  0
  196.2670  172.7340  137.5190 C   0  0  0  0  0  0  0  0  0  0  0  0
  197.5850  172.5500  137.8960 F   0  0  0  0  0  0  0  0  0  0  0  0
  195.3510  170.6390  137.7660 C   0  0  0  0  0  1  0  0  0  0  0  0
  195.8520  171.5660  136.8350 O   0  0  0  0  0  0  0  0  0  0  0  0
  190.4190  177.8680  143.2680 C   0  0  0  0  0  2  0  0  0  0  0  0
  190.8100  178.1400  144.6410 N   0  0  0  0  0  2  0  0  0  0  0  0
  191.4630  176.9390  145.1390 C   0  0  0  0  0  2  0  0  0  0  0  0
  191.3610  176.8520  146.6650 C   0  0  2  0  0  3  0  0  0  0  0  0
  192.1950  175.6980  147.2070 C   0  0  0  0  0  2  0  0  0  0  0  0
  192.8550  176.0950  148.3580 F   0  0  0  0  0  0  0  0  0  0  0  0
  189.9140  176.7250  147.1330 C   0  0  0  0  0  2  0  0  0  0  0  0
  189.4090  178.0240  147.7440 C   0  0  0  0  0  2  0  0  0  0  0  0
  187.5970  177.2610  149.2770 O   0  0  0  0  0  1  0  0  0  0  0  0
  187.9690  177.9120  148.1090 C   0  0  0  0  0  0  0  0  0  0  0  0
  187.0910  178.4260  147.3670 O   0  0  0  0  0  0  0  0  0  0  0  0
  186.0070  178.7000  142.1790 N   0  0  0  0  0  2  0  0  0  0  0  0
  184.7040  178.7730  141.5710 C   0  0  0  0  0  0  0  0  0  0  0  0
  182.2960  178.9840  141.7940 C   0  0  0  0  0  0  0  0  0  0  0  0
  182.4330  178.8780  144.6060 O   0  0  0  0  0  0  0  0  0  0  0  0
  184.5140  178.7550  140.1720 C   0  0  0  0  0  0  0  0  0  0  0  0
  181.0630  179.1900  142.6260 C   0  0  0  0  0  2  0  0  0  0  0  0
  183.6200  178.9590  143.8770 C   0  0  0  0  0  0  0  0  0  0  0  0
  182.1870  178.9610  140.4440 N   0  0  0  0  0  0  0  0  0  0  0  0
  183.5650  178.9040  142.3910 C   0  0  0  0  0  0  0  0  0  0  0  0
  185.6050  178.6200  139.2670 N   0  0  0  0  0  1  0  0  0  0  0  0
  184.7080  179.1070  144.4920 O   0  0  0  0  0  0  0  0  0  0  0  0
  181.2100  178.4950  143.9770 C   0  0  0  0  0  2  0  0  0  0  0  0
  183.2580  178.8470  139.6630 N   0  0  0  0  0  0  0  0  0  0  0  0
  1  2  1  0  0  0  0
  3 29  1  0  0  0  0
  3  2  1  0  0  0  0
  4 40  1  1  0  0  0
  4  1  1  0  0  0  0
  5  4  1  0  0  0  0
  5  3  2  0  0  0  0
  6  8  2  0  0  0  0
  7  8  1  0  0  0  0
  8  5  1  0  0  0  0
  9  7  1  0  0  0  0
 10 12  2  0  0  0  0
 11  9  1  0  0  0  0
 12 11  1  0  0  0  0
 14 13  1  0  0  0  0
 14 12  1  6  0  0  0
 15 14  1  0  0  0  0
 16 15  1  0  0  0  0
 16 17  1  0  0  0  0
 17 20  1  6  0  0  0
 17 13  1  0  0  0  0
 18 23  1  0  0  0  0
 19 20  1  0  0  0  0
 20 23  2  0  0  0  0
 21 19  2  0  0  0  0
 21 22  1  0  0  0  0
 22 18  2  0  0  0  0
 23 25  1  0  0  0  0
 25 26  1  0  0  0  0
 25 24  1  0  0  0  0
 28 25  1  0  0  0  0
 28 27  1  0  0  0  0
 29 30  1  0  0  0  0
 30 31  1  0  0  0  0
 32 31  1  6  0  0  0
 32 35  1  0  0  0  0
 32 33  1  0  0  0  0
 33 34  1  0  0  0  0
 35 36  1  0  0  0  0
 36 38  1  0  0  0  0
 38 37  1  0  0  0  0
 39 38  2  0  0  0  0
 41 40  1  0  0  0  0
 41 48  1  0  0  0  0
 42 48  2  0  0  0  0
 42 45  1  0  0  0  0
 44 41  2  0  0  0  0
 45 51  1  0  0  0  0
 46 50  2  0  0  0  0
 46 43  1  0  0  0  0
 47 42  1  0  0  0  0
 48 46  1  0  0  0  0
 49 44  1  0  0  0  0
 51 43  1  0  0  0  0
 52 44  1  0  0  0  0
 52 47  2  0  0  0  0
M  END
>  <MODEL>
1

>  <REMARK>
 VINA RESULT:      -7.9      0.000      0.000
  Name = 
  17 active torsions:
  status: ('A' for Active; 'I' for Inactive)
    1  A    between atoms: C_2  and  N_42
    2  A    between atoms: C_4  and  O_28
    3  A    between atoms: C_4  and  C_48
    4  A    between atoms: C_8  and  C_32
    5  A    between atoms: C_9  and  C_32
    6  A    between atoms: C_9  and  N_39
    7  A    between atoms: C_10  and  N_39
    8  A    between atoms: C_10  and  C_44
    9  A    between atoms: N_12  and  C_33
   10  A    between atoms: C_16  and  C_25
   11  A    between atoms: C_20  and  C_52
   12  A    between atoms: C_23  and  C_31
   13  A    between atoms: C_23  and  C_34
   14  A    between atoms: C_32  and  C_34
   15  A    between atoms: C_33  and  N_37
   16  A    between atoms: N_42  and  C_45
   17  A    between atoms: C_43  and  C_47
                            x       y       z     vdW  Elec       q    Type
                         _______ _______ _______ _____ _____    ______ ____

>  <TORSDO>
F 17

$$$$
=
 OpenBabel10222417443D

 52 56  0  0  1  0  0  0  0  0999 V2000
  191.2390  177.0080  141.2710 O   0  0  0  0  0  0  0  0  0  0  0  0
  190.0710  177.2080  142.0380 C   0  0  0  0  0  2  0  0  0  0  0  0
  189.0150  177.7040  141.1260 C   0  0  0  0  0  0  0  0  0  0  0  0
  190.8900  177.2520  139.9240 C   0  0  2  0  0  3  0  0  0  0  0  0
  189.4890  177.7330  139.9060 C   0  0  0  0  0  0  0  0  0  0  0  0
  189.0190  179.3090  138.1710 O   0  0  0  0  0  0  0  0  0  0  0  0
  187.8070  177.3110  138.1000 N   0  0  0  0  0  2  0  0  0  0  0  0
  188.7860  178.1750  138.6830 C   0  0  0  0  0  0  0  0  0  0  0  0
  187.0410  177.6860  136.9240 C   0  0  0  0  0  2  0  0  0  0  0  0
  184.6470  176.2040  136.5120 O   0  0  0  0  0  0  0  0  0  0  0  0
  185.7120  178.1180  137.3310 N   0  0  0  0  0  2  0  0  0  0  0  0
  184.5460  177.3330  137.0700 C   0  0  0  0  0  0  0  0  0  0  0  0
  182.6360  176.9140  138.5660 C   0  0  0  0  0  2  0  0  0  0  0  0
  183.2090  177.8340  137.5110 C   0  0  2  0  0  3  0  0  0  0  0  0
  182.2290  177.8920  136.3420 C   0  0  0  0  0  2  0  0  0  0  0  0
  180.5580  177.4580  136.9220 S   0  0  0  0  0  0  0  0  0  0  0  0
  181.1520  177.1980  138.6200 C   0  0  1  0  0  3  0  0  0  0  0  0
  179.1740  175.2270  141.2290 C   0  0  0  0  0  3  0  0  0  0  0  0
  180.2820  174.8420  138.6970 C   0  0  0  0  0  3  0  0  0  0  0  0
  180.3940  176.1000  139.3140 C   0  0  0  0  0  0  0  0  0  0  0  0
  179.6220  173.7910  139.3340 C   0  0  0  0  0  3  0  0  0  0  0  0
  179.0720  173.9830  140.6030 C   0  0  0  0  0  3  0  0  0  0  0  0
  179.8160  176.3040  140.5910 C   0  0  0  0  0  0  0  0  0  0  0  0
  179.4220  178.6570  140.4830 F   0  0  0  0  0  0  0  0  0  0  0  0
  179.9230  177.6460  141.2970 C   0  0  0  0  0  0  0  0  0  0  0  0
  181.2660  177.9060  141.5080 F   0  0  0  0  0  0  0  0  0  0  0  0
  179.9920  178.4900  143.4360 C   0  0  0  0  0  1  0  0  0  0  0  0
  179.2850  177.6460  142.5610 O   0  0  0  0  0  0  0  0  0  0  0  0
  187.6250  178.0910  141.5400 C   0  0  0  0  0  2  0  0  0  0  0  0
  187.4380  177.9170  142.9710 N   0  0  0  0  0  2  0  0  0  0  0  0
  186.0060  177.9820  143.2200 C   0  0  0  0  0  2  0  0  0  0  0  0
  185.7080  177.9210  144.7210 C   0  0  2  0  0  3  0  0  0  0  0  0
  184.5700  178.8640  145.0940 C   0  0  0  0  0  2  0  0  0  0  0  0
  183.5360  178.7380  144.1810 F   0  0  0  0  0  0  0  0  0  0  0  0
  186.9450  178.2270  145.5600 C   0  0  0  0  0  2  0  0  0  0  0  0
  186.7540  177.8040  147.0100 C   0  0  0  0  0  2  0  0  0  0  0  0
  189.0620  176.8600  147.0090 O   0  0  0  0  0  0  0  0  0  0  0  0
  188.0680  177.5690  147.6700 C   0  0  0  0  0  0  0  0  0  0  0  0
  188.2850  178.0320  148.8210 O   0  0  0  0  0  1  0  0  0  0  0  0
  190.9970  176.0160  139.1600 N   0  0  0  0  0  2  0  0  0  0  0  0
  192.0090  175.6860  138.1900 C   0  0  0  0  0  0  0  0  0  0  0  0
  192.6850  174.4840  136.1920 C   0  0  0  0  0  0  0  0  0  0  0  0
  190.2190  173.1290  136.0370 O   0  0  0  0  0  0  0  0  0  0  0  0
  193.3040  176.2470  138.2200 C   0  0  0  0  0  0  0  0  0  0  0  0
  192.3760  173.5930  135.0230 C   0  0  0  0  0  2  0  0  0  0  0  0
  190.3680  174.1490  136.9760 C   0  0  0  0  0  0  0  0  0  0  0  0
  193.9070  175.0600  136.2810 N   0  0  0  0  0  0  0  0  0  0  0  0
  191.6980  174.7960  137.1420 C   0  0  0  0  0  0  0  0  0  0  0  0
  193.7090  177.1500  139.2440 N   0  0  0  0  0  1  0  0  0  0  0  0
  189.3660  174.5220  137.6400 O   0  0  0  0  0  0  0  0  0  0  0  0
  191.3570  172.5280  135.4200 C   0  0  0  0  0  2  0  0  0  0  0  0
  194.2060  175.9070  137.2620 N   0  0  0  0  0  0  0  0  0  0  0  0
  1  2  1  0  0  0  0
  3 29  1  0  0  0  0
  3  2  1  0  0  0  0
  4 40  1  6  0  0  0
  4  1  1  0  0  0  0
  5  4  1  0  0  0  0
  5  3  2  0  0  0  0
  6  8  2  0  0  0  0
  7  8  1  0  0  0  0
  8  5  1  0  0  0  0
  9 11  1  0  0  0  0
  9  7  1  0  0  0  0
 10 12  2  0  0  0  0
 12 11  1  0  0  0  0
 13 17  1  0  0  0  0
 14 12  1  6  0  0  0
 14 13  1  0  0  0  0
 15 16  1  0  0  0  0
 15 14  1  0  0  0  0
 16 17  1  0  0  0  0
 17 20  1  6  0  0  0
 19 20  2  0  0  0  0
 19 21  1  0  0  0  0
 20 23  1  0  0  0  0
 21 22  2  0  0  0  0
 22 18  1  0  0  0  0
 23 18  2  0  0  0  0
 23 25  1  0  0  0  0
 24 25  1  0  0  0  0
 25 26  1  0  0  0  0
 25 28  1  0  0  0  0
 28 27  1  0  0  0  0
 29 30  1  0  0  0  0
 30 31  1  0  0  0  0
 32 31  1  6  0  0  0
 32 33  1  0  0  0  0
 32 35  1  0  0  0  0
 34 33  1  0  0  0  0
 35 36  1  0  0  0  0
 36 38  1  0  0  0  0
 37 38  2  0  0  0  0
 38 39  1  0  0  0  0
 41 44  1  0  0  0  0
 41 40  1  0  0  0  0
 42 47  2  0  0  0  0
 42 48  1  0  0  0  0
 43 46  1  0  0  0  0
 44 49  1  0  0  0  0
 45 51  1  0  0  0  0
 45 42  1  0  0  0  0
 46 48  1  0  0  0  0
 46 50  2  0  0  0  0
 47 52  1  0  0  0  0
 48 41  2  0  0  0  0
 51 43  1  0  0  0  0
 52 44  2  0  0  0  0
M  END
>  <MODEL>
2

>  <REMARK>
 VINA RESULT:      -7.8      4.744     10.846
  Name = 
  17 active torsions:
  status: ('A' for Active; 'I' for Inactive)
    1  A    between atoms: C_2  and  N_42
    2  A    between atoms: C_4  and  O_28
    3  A    between atoms: C_4  and  C_48
    4  A    between atoms: C_8  and  C_32
    5  A    between atoms: C_9  and  C_32
    6  A    between atoms: C_9  and  N_39
    7  A    between atoms: C_10  and  N_39
    8  A    between atoms: C_10  and  C_44
    9  A    between atoms: N_12  and  C_33
   10  A    between atoms: C_16  and  C_25
   11  A    between atoms: C_20  and  C_52
   12  A    between atoms: C_23  and  C_31
   13  A    between atoms: C_23  and  C_34
   14  A    between atoms: C_32  and  C_34
   15  A    between atoms: C_33  and  N_37
   16  A    between atoms: N_42  and  C_45
   17  A    between atoms: C_43  and  C_47
                            x       y       z     vdW  Elec       q    Type
                         _______ _______ _______ _____ _____    ______ ____

>  <TORSDO>
F 17

$$$$
=
 OpenBabel10222417443D

 52 56  0  0  1  0  0  0  0  0999 V2000
  189.2280  178.1270  141.6530 O   0  0  0  0  0  0  0  0  0  0  0  0
  188.7910  177.8210  142.9590 C   0  0  0  0  0  2  0  0  0  0  0  0
  187.3330  178.0750  143.0160 C   0  0  0  0  0  0  0  0  0  0  0  0
  188.0750  178.4410  140.8990 C   0  0  2  0  0  3  0  0  0  0  0  0
  186.9200  178.4370  141.8260 C   0  0  0  0  0  0  0  0  0  0  0  0
  185.3290  179.7360  140.6040 O   0  0  0  0  0  0  0  0  0  0  0  0
  184.4470  178.1020  142.0240 N   0  0  0  0  0  2  0  0  0  0  0  0
  185.5440  178.8020  141.4300 C   0  0  0  0  0  0  0  0  0  0  0  0
  183.0630  178.4260  141.7220 C   0  0  0  0  0  2  0  0  0  0  0  0
  182.2390  179.6010  139.2660 O   0  0  0  0  0  0  0  0  0  0  0  0
  182.6400  177.6840  140.5440 N   0  0  0  0  0  2  0  0  0  0  0  0
  182.2140  178.3410  139.3470 C   0  0  0  0  0  0  0  0  0  0  0  0
  182.1950  176.0800  138.3730 C   0  0  0  0  0  2  0  0  0  0  0  0
  181.7880  177.5220  138.1710 C   0  0  2  0  0  3  0  0  0  0  0  0
  182.4350  178.0280  136.8850 C   0  0  0  0  0  2  0  0  0  0  0  0
  182.8140  176.6190  135.7950 S   0  0  0  0  0  0  0  0  0  0  0  0
  182.1610  175.4320  137.0070 C   0  0  1  0  0  3  0  0  0  0  0  0
  183.0500  171.7440  136.5440 C   0  0  0  0  0  3  0  0  0  0  0  0
  184.2320  174.0910  137.4830 C   0  0  0  0  0  3  0  0  0  0  0  0
  182.9200  174.1340  136.9810 C   0  0  0  0  0  0  0  0  0  0  0  0
  184.9460  172.8930  137.5110 C   0  0  0  0  0  3  0  0  0  0  0  0
  184.3520  171.7180  137.0470 C   0  0  0  0  0  3  0  0  0  0  0  0
  182.3240  172.9470  136.4870 C   0  0  0  0  0  0  0  0  0  0  0  0
  180.6160  171.7240  135.3480 F   0  0  0  0  0  0  0  0  0  0  0  0
  180.9030  172.9480  135.9450 C   0  0  0  0  0  0  0  0  0  0  0  0
  180.8270  173.9190  134.9620 F   0  0  0  0  0  0  0  0  0  0  0  0
  178.9310  172.2950  136.9310 C   0  0  0  0  0  1  0  0  0  0  0  0
  179.9450  173.2680  136.9370 O   0  0  0  0  0  0  0  0  0  0  0  0
  186.4740  177.9220  144.2370 C   0  0  0  0  0  2  0  0  0  0  0  0
  187.1750  178.3700  145.4280 N   0  0  0  0  0  2  0  0  0  0  0  0
  186.7950  177.4680  146.5060 C   0  0  0  0  0  2  0  0  0  0  0  0
  188.0150  177.0670  147.3400 C   0  0  2  0  0  3  0  0  0  0  0  0
  188.0260  177.7900  148.6810 C   0  0  0  0  0  2  0  0  0  0  0  0
  188.6880  179.0000  148.5580 F   0  0  0  0  0  0  0  0  0  0  0  0
  189.3230  177.3160  146.5940 C   0  0  0  0  0  2  0  0  0  0  0  0
  190.5130  176.7350  147.3450 C   0  0  0  0  0  2  0  0  0  0  0  0
  192.4240  175.3440  146.5520 O   0  0  0  0  0  1  0  0  0  0  0  0
  191.6540  176.4910  146.4190 C   0  0  0  0  0  0  0  0  0  0  0  0
  191.9060  177.3170  145.5030 O   0  0  0  0  0  0  0  0  0  0  0  0
  187.8790  177.4350  139.8630 N   0  0  0  0  0  2  0  0  0  0  0  0
  188.2590  177.5370  138.4790 C   0  0  0  0  0  0  0  0  0  0  0  0
  189.8480  177.0780  136.7020 C   0  0  0  0  0  0  0  0  0  0  0  0
  191.7140  175.9760  138.5020 O   0  0  0  0  0  0  0  0  0  0  0  0
  187.4330  178.1400  137.5050 C   0  0  0  0  0  0  0  0  0  0  0  0
  191.1140  176.4470  136.1970 C   0  0  0  0  0  2  0  0  0  0  0  0
  190.4410  176.3020  138.9690 C   0  0  0  0  0  0  0  0  0  0  0  0
  189.0080  177.6710  135.8210 N   0  0  0  0  0  0  0  0  0  0  0  0
  189.4850  176.9850  138.0560 C   0  0  0  0  0  0  0  0  0  0  0  0
  186.1810  178.7290  137.8410 N   0  0  0  0  0  1  0  0  0  0  0  0
  190.1180  175.9820  140.1420 O   0  0  0  0  0  0  0  0  0  0  0  0
  192.2010  176.5030  137.2680 C   0  0  0  0  0  2  0  0  0  0  0  0
  187.8450  178.1860  136.2110 N   0  0  0  0  0  0  0  0  0  0  0  0
  1  2  1  0  0  0  0
  2  3  1  0  0  0  0
  3 29  1  0  0  0  0
  4 40  1  6  0  0  0
  4  1  1  0  0  0  0
  4  5  1  0  0  0  0
  5  3  2  0  0  0  0
  6  8  2  0  0  0  0
  8  5  1  0  0  0  0
  8  7  1  0  0  0  0
  9  7  1  0  0  0  0
 10 12  2  0  0  0  0
 11  9  1  0  0  0  0
 12 11  1  0  0  0  0
 14 13  1  0  0  0  0
 14 12  1  1  0  0  0
 15 14  1  0  0  0  0
 16 15  1  0  0  0  0
 16 17  1  0  0  0  0
 17 20  1  1  0  0  0
 17 13  1  0  0  0  0
 18 22  1  0  0  0  0
 19 21  1  0  0  0  0
 20 19  2  0  0  0  0
 22 21  2  0  0  0  0
 23 18  2  0  0  0  0
 23 20  1  0  0  0  0
 24 25  1  0  0  0  0
 25 23  1  0  0  0  0
 25 28  1  0  0  0  0
 26 25  1  0  0  0  0
 27 28  1  0  0  0  0
 29 30  1  0  0  0  0
 30 31  1  0  0  0  0
 32 31  1  6  0  0  0
 32 33  1  0  0  0  0
 34 33  1  0  0  0  0
 35 32  1  0  0  0  0
 35 36  1  0  0  0  0
 38 37  1  0  0  0  0
 38 36  1  0  0  0  0
 39 38  2  0  0  0  0
 41 40  1  0  0  0  0
 42 48  2  0  0  0  0
 43 46  1  0  0  0  0
 44 49  1  0  0  0  0
 44 41  2  0  0  0  0
 45 42  1  0  0  0  0
 45 51  1  0  0  0  0
 46 50  2  0  0  0  0
 47 52  2  0  0  0  0
 47 42  1  0  0  0  0
 48 41  1  0  0  0  0
 48 46  1  0  0  0  0
 51 43  1  0  0  0  0
 52 44  1  0  0  0  0
M  END
>  <MODEL>
3

>  <REMARK>
 VINA RESULT:      -7.8      5.157      9.103
  Name = 
  17 active torsions:
  status: ('A' for Active; 'I' for Inactive)
    1  A    between atoms: C_2  and  N_42
    2  A    between atoms: C_4  and  O_28
    3  A    between atoms: C_4  and  C_48
    4  A    between atoms: C_8  and  C_32
    5  A    between atoms: C_9  and  C_32
    6  A    between atoms: C_9  and  N_39
    7  A    between atoms: C_10  and  N_39
    8  A    between atoms: C_10  and  C_44
    9  A    between atoms: N_12  and  C_33
   10  A    between atoms: C_16  and  C_25
   11  A    between atoms: C_20  and  C_52
   12  A    between atoms: C_23  and  C_31
   13  A    between atoms: C_23  and  C_34
   14  A    between atoms: C_32  and  C_34
   15  A    between atoms: C_33  and  N_37
   16  A    between atoms: N_42  and  C_45
   17  A    between atoms: C_43  and  C_47
                            x       y       z     vdW  Elec       q    Type
                         _______ _______ _______ _____ _____    ______ ____

>  <TORSDO>
F 17

$$$$
=
 OpenBabel10222417443D

 52 56  0  0  1  0  0  0  0  0999 V2000
  184.9970  179.4490  144.4540 O   0  0  0  0  0  0  0  0  0  0  0  0
  183.6360  179.2750  144.7850 C   0  0  0  0  0  2  0  0  0  0  0  0
  182.9060  178.9620  143.5350 C   0  0  0  0  0  0  0  0  0  0  0  0
  185.1270  179.1380  143.0810 C   0  0  2  0  0  3  0  0  0  0  0  0
  183.7680  178.8860  142.5500 C   0  0  0  0  0  0  0  0  0  0  0  0
  182.8940  177.5430  140.7760 O   0  0  0  0  0  0  0  0  0  0  0  0
  183.8980  179.5570  140.1420 N   0  0  0  0  0  2  0  0  0  0  0  0
  183.4770  178.6100  141.1270 C   0  0  0  0  0  0  0  0  0  0  0  0
  183.6890  179.3440  138.7200 C   0  0  0  0  0  2  0  0  0  0  0  0
  183.0820  177.5440  136.6010 O   0  0  0  0  0  0  0  0  0  0  0  0
  184.5620  178.2740  138.2590 N   0  0  0  0  0  2  0  0  0  0  0  0
  184.1830  177.3880  137.2030 C   0  0  0  0  0  0  0  0  0  0  0  0
  186.4090  176.4010  137.5660 C   0  0  0  0  0  2  0  0  0  0  0  0
  185.1230  176.3060  136.7770 C   0  0  2  0  0  3  0  0  0  0  0  0
  185.4600  176.4220  135.2930 C   0  0  0  0  0  2  0  0  0  0  0  0
  187.1930  175.9330  135.0190 S   0  0  0  0  0  0  0  0  0  0  0  0
  187.4430  175.6170  136.7920 C   0  0  1  0  0  3  0  0  0  0  0  0
  191.1640  175.3330  137.6180 C   0  0  0  0  0  3  0  0  0  0  0  0
  189.1180  177.2260  137.7510 C   0  0  0  0  0  3  0  0  0  0  0  0
  188.8440  175.9510  137.2260 C   0  0  0  0  0  0  0  0  0  0  0  0
  190.3970  177.5520  138.2010 C   0  0  0  0  0  3  0  0  0  0  0  0
  191.4190  176.6020  138.1400 C   0  0  0  0  0  3  0  0  0  0  0  0
  189.8850  174.9940  137.1390 C   0  0  0  0  0  0  0  0  0  0  0  0
  190.8030  172.8540  136.6060 F   0  0  0  0  0  0  0  0  0  0  0  0
  189.6290  173.6010  136.5860 C   0  0  0  0  0  0  0  0  0  0  0  0
  189.2430  173.7370  135.2640 F   0  0  0  0  0  0  0  0  0  0  0  0
  187.8840  172.1200  136.3590 C   0  0  0  0  0  1  0  0  0  0  0  0
  188.5860  172.9310  137.2680 O   0  0  0  0  0  0  0  0  0  0  0  0
  181.4250  178.7480  143.4260 C   0  0  0  0  0  2  0  0  0  0  0  0
  180.7720  179.9070  142.8410 N   0  0  0  0  0  2  0  0  0  0  0  0
  179.4740  179.4600  142.3560 C   0  0  0  0  0  2  0  0  0  0  0  0
  179.3840  179.5920  140.8330 C   0  0  2  0  0  3  0  0  0  0  0  0
  179.4880  178.2310  140.1560 C   0  0  0  0  0  2  0  0  0  0  0  0
  180.3830  178.2960  139.1010 F   0  0  0  0  0  0  0  0  0  0  0  0
  180.4440  180.5400  140.2790 C   0  0  0  0  0  2  0  0  0  0  0  0
  179.8570  181.4910  139.2460 C   0  0  0  0  0  2  0  0  0  0  0  0
  180.8090  180.7240  137.0720 O   0  0  0  0  0  0  0  0  0  0  0  0
  180.7880  181.6620  138.0960 C   0  0  0  0  0  0  0  0  0  0  0  0
  181.5420  182.6690  138.0430 O   0  0  0  0  0  1  0  0  0  0  0  0
  185.9460  177.9430  142.9270 N   0  0  0  0  0  2  0  0  0  0  0  0
  187.3770  177.8920  142.7800 C   0  0  0  0  0  0  0  0  0  0  0  0
  189.5690  177.4750  143.7380 C   0  0  0  0  0  0  0  0  0  0  0  0
  188.4930  177.0710  146.3100 O   0  0  0  0  0  0  0  0  0  0  0  0
  188.0280  178.1530  141.5540 C   0  0  0  0  0  0  0  0  0  0  0  0
  190.4480  177.0330  144.8720 C   0  0  0  0  0  2  0  0  0  0  0  0
  187.6210  177.2100  145.2300 C   0  0  0  0  0  0  0  0  0  0  0  0
  190.1260  177.7380  142.5320 N   0  0  0  0  0  0  0  0  0  0  0  0
  188.1730  177.5320  143.8870 C   0  0  0  0  0  0  0  0  0  0  0  0
  187.3060  178.5290  140.3850 N   0  0  0  0  0  1  0  0  0  0  0  0
  186.3890  177.0270  145.4110 O   0  0  0  0  0  0  0  0  0  0  0  0
  189.8570  177.4770  146.2080 C   0  0  0  0  0  2  0  0  0  0  0  0
  189.3820  178.0690  141.4800 N   0  0  0  0  0  0  0  0  0  0  0  0
  1  2  1  0  0  0  0
  3  2  1  0  0  0  0
  4 40  1  1  0  0  0
  4  1  1  0  0  0  0
  5  4  1  0  0  0  0
  5  3  2  0  0  0  0
  6  8  2  0  0  0  0
  7  8  1  0  0  0  0
  8  5  1  0  0  0  0
  9  7  1  0  0  0  0
 10 12  2  0  0  0  0
 11  9  1  0  0  0  0
 12 11  1  0  0  0  0
 14 12  1  1  0  0  0
 14 13  1  0  0  0  0
 15 14  1  0  0  0  0
 16 15  1  0  0  0  0
 16 17  1  0  0  0  0
 17 20  1  1  0  0  0
 17 13  1  0  0  0  0
 18 22  1  0  0  0  0
 19 21  1  0  0  0  0
 20 19  2  0  0  0  0
 22 21  2  0  0  0  0
 23 20  1  0  0  0  0
 23 18  2  0  0  0  0
 25 24  1  0  0  0  0
 25 23  1  0  0  0  0
 25 28  1  0  0  0  0
 26 25  1  0  0  0  0
 27 28  1  0  0  0  0
 29  3  1  0  0  0  0
 30 29  1  0  0  0  0
 31 30  1  0  0  0  0
 32 33  1  6  0  0  0
 32 31  1  0  0  0  0
 34 33  1  0  0  0  0
 35 32  1  0  0  0  0
 36 35  1  0  0  0  0
 37 38  2  0  0  0  0
 38 36  1  0  0  0  0
 39 38  1  0  0  0  0
 41 40  1  0  0  0  0
 41 48  1  0  0  0  0
 42 48  2  0  0  0  0
 42 45  1  0  0  0  0
 44 41  2  0  0  0  0
 45 51  1  0  0  0  0
 46 50  2  0  0  0  0
 46 43  1  0  0  0  0
 47 42  1  0  0  0  0
 48 46  1  0  0  0  0
 49 44  1  0  0  0  0
 51 43  1  0  0  0  0
 52 44  1  0  0  0  0
 52 47  2  0  0  0  0
M  END
>  <MODEL>
4

>  <REMARK>
 VINA RESULT:      -7.7      3.851      8.084
  Name = 
  17 active torsions:
  status: ('A' for Active; 'I' for Inactive)
    1  A    between atoms: C_2  and  N_42
    2  A    between atoms: C_4  and  O_28
    3  A    between atoms: C_4  and  C_48
    4  A    between atoms: C_8  and  C_32
    5  A    between atoms: C_9  and  C_32
    6  A    between atoms: C_9  and  N_39
    7  A    between atoms: C_10  and  N_39
    8  A    between atoms: C_10  and  C_44
    9  A    between atoms: N_12  and  C_33
   10  A    between atoms: C_16  and  C_25
   11  A    between atoms: C_20  and  C_52
   12  A    between atoms: C_23  and  C_31
   13  A    between atoms: C_23  and  C_34
   14  A    between atoms: C_32  and  C_34
   15  A    between atoms: C_33  and  N_37
   16  A    between atoms: N_42  and  C_45
   17  A    between atoms: C_43  and  C_47
                            x       y       z     vdW  Elec       q    Type
                         _______ _______ _______ _____ _____    ______ ____

>  <TORSDO>
F 17

$$$$
=
 OpenBabel10222417443D

 52 56  0  0  1  0  0  0  0  0999 V2000
  190.9400  177.8750  140.4760 O   0  0  0  0  0  0  0  0  0  0  0  0
  191.3630  177.3780  141.7280 C   0  0  0  0  0  2  0  0  0  0  0  0
  190.1610  177.2270  142.5800 C   0  0  0  0  0  0  0  0  0  0  0  0
  189.5280  177.9140  140.5070 C   0  0  2  0  0  3  0  0  0  0  0  0
  189.1010  177.5400  141.8750 C   0  0  0  0  0  0  0  0  0  0  0  0
  187.2330  176.6010  143.0350 O   0  0  0  0  0  0  0  0  0  0  0  0
  186.8460  178.6250  141.9310 N   0  0  0  0  0  2  0  0  0  0  0  0
  187.6950  177.5460  142.3300 C   0  0  0  0  0  0  0  0  0  0  0  0
  185.4410  178.6870  142.2990 C   0  0  0  0  0  2  0  0  0  0  0  0
  182.6000  178.8030  142.2080 O   0  0  0  0  0  0  0  0  0  0  0  0
  184.6270  178.2790  141.1650 N   0  0  0  0  0  2  0  0  0  0  0  0
  183.1990  178.3420  141.1960 C   0  0  0  0  0  0  0  0  0  0  0  0
  182.6400  176.4310  139.7460 C   0  0  0  0  0  2  0  0  0  0  0  0
  182.4180  177.9060  139.9980 C   0  0  2  0  0  3  0  0  0  0  0  0
  182.8450  178.6760  138.7510 C   0  0  0  0  0  2  0  0  0  0  0  0
  182.7730  177.5780  137.2990 S   0  0  0  0  0  0  0  0  0  0  0  0
  182.2240  176.1750  138.3160 C   0  0  1  0  0  3  0  0  0  0  0  0
  182.4360  172.5980  136.9870 C   0  0  0  0  0  3  0  0  0  0  0  0
  184.1500  174.6680  137.7380 C   0  0  0  0  0  3  0  0  0  0  0  0
  182.7600  174.8680  137.7990 C   0  0  0  0  0  0  0  0  0  0  0  0
  184.6770  173.4520  137.3030 C   0  0  0  0  0  3  0  0  0  0  0  0
  183.8190  172.4150  136.9330 C   0  0  0  0  0  3  0  0  0  0  0  0
  181.8870  173.8250  137.4010 C   0  0  0  0  0  0  0  0  0  0  0  0
  179.9630  174.1310  138.7830 F   0  0  0  0  0  0  0  0  0  0  0  0
  180.3780  173.9970  137.4610 C   0  0  0  0  0  0  0  0  0  0  0  0
  179.8020  172.8450  136.9570 F   0  0  0  0  0  0  0  0  0  0  0  0
  179.0240  175.8550  137.4240 C   0  0  0  0  0  1  0  0  0  0  0  0
  179.9240  175.0810  136.6720 O   0  0  0  0  0  0  0  0  0  0  0  0
  190.1640  176.7700  144.0090 C   0  0  0  0  0  2  0  0  0  0  0  0
  189.6730  177.8150  144.8920 N   0  0  0  0  0  2  0  0  0  0  0  0
  188.9670  177.1510  145.9780 C   0  0  0  0  0  2  0  0  0  0  0  0
  188.6740  178.1300  147.1190 C   0  0  2  0  0  3  0  0  0  0  0  0
  189.6940  177.9880  148.2410 C   0  0  0  0  0  2  0  0  0  0  0  0
  190.7690  177.2300  147.8070 F   0  0  0  0  0  0  0  0  0  0  0  0
  187.2590  177.9610  147.6660 C   0  0  0  0  0  2  0  0  0  0  0  0
  186.3200  179.0310  147.1270 C   0  0  0  0  0  2  0  0  0  0  0  0
  184.1130  179.0750  145.9690 O   0  0  0  0  0  1  0  0  0  0  0  0
  185.3270  178.4390  146.1890 C   0  0  0  0  0  0  0  0  0  0  0  0
  185.5980  177.3700  145.5800 O   0  0  0  0  0  0  0  0  0  0  0  0
  188.9910  176.9610  139.5450 N   0  0  0  0  0  2  0  0  0  0  0  0
  188.7720  177.1840  138.1400 C   0  0  0  0  0  0  0  0  0  0  0  0
  189.4020  176.7790  135.8300 C   0  0  0  0  0  0  0  0  0  0  0  0
  191.6730  175.2960  136.5920 O   0  0  0  0  0  0  0  0  0  0  0  0
  187.7100  177.9750  137.6500 C   0  0  0  0  0  0  0  0  0  0  0  0
  190.2430  176.0870  134.7960 C   0  0  0  0  0  2  0  0  0  0  0  0
  190.7670  175.6900  137.5760 C   0  0  0  0  0  0  0  0  0  0  0  0
  188.3620  177.5490  135.4300 N   0  0  0  0  0  0  0  0  0  0  0  0
  189.6230  176.5660  137.2010 C   0  0  0  0  0  0  0  0  0  0  0  0
  186.8040  178.6420  138.5230 N   0  0  0  0  0  1  0  0  0  0  0  0
  190.9190  175.2700  138.7520 O   0  0  0  0  0  0  0  0  0  0  0  0
  191.6720  175.9110  135.3040 C   0  0  0  0  0  2  0  0  0  0  0  0
  187.5500  178.1290  136.3090 N   0  0  0  0  0  0  0  0  0  0  0  0
  1  4  1  0  0  0  0
  1  2  1  0  0  0  0
  2  3  1  0  0  0  0
  3 29  1  0  0  0  0
  4 40  1  6  0  0  0
  4  5  1  0  0  0  0
  5  8  1  0  0  0  0
  5  3  2  0  0  0  0
  7  9  1  0  0  0  0
  7  8  1  0  0  0  0
  8  6  2  0  0  0  0
 11 12  1  0  0  0  0
 11  9  1  0  0  0  0
 12 10  2  0  0  0  0
 13 14  1  0  0  0  0
 14 12  1  1  0  0  0
 15 14  1  0  0  0  0
 16 17  1  0  0  0  0
 16 15  1  0  0  0  0
 17 20  1  6  0  0  0
 17 13  1  0  0  0  0
 18 23  1  0  0  0  0
 19 20  1  0  0  0  0
 21 19  2  0  0  0  0
 22 18  2  0  0  0  0
 22 21  1  0  0  0  0
 23 25  1  0  0  0  0
 23 20  2  0  0  0  0
 25 24  1  0  0  0  0
 26 25  1  0  0  0  0
 28 27  1  0  0  0  0
 28 25  1  0  0  0  0
 29 30  1  0  0  0  0
 30 31  1  0  0  0  0
 32 31  1  6  0  0  0
 32 35  1  0  0  0  0
 32 33  1  0  0  0  0
 34 33  1  0  0  0  0
 36 35  1  0  0  0  0
 37 38  1  0  0  0  0
 38 36  1  0  0  0  0
 39 38  2  0  0  0  0
 41 40  1  0  0  0  0
 42 48  1  0  0  0  0
 43 46  1  0  0  0  0
 44 41  1  0  0  0  0
 44 49  1  0  0  0  0
 45 51  1  0  0  0  0
 45 42  1  0  0  0  0
 46 50  2  0  0  0  0
 47 42  2  0  0  0  0
 47 52  1  0  0  0  0
 48 46  1  0  0  0  0
 48 41  2  0  0  0  0
 51 43  1  0  0  0  0
 52 44  2  0  0  0  0
M  END
>  <MODEL>
5

>  <REMARK>
 VINA RESULT:      -7.7      4.763      9.269
  Name = 
  17 active torsions:
  status: ('A' for Active; 'I' for Inactive)
    1  A    between atoms: C_2  and  N_42
    2  A    between atoms: C_4  and  O_28
    3  A    between atoms: C_4  and  C_48
    4  A    between atoms: C_8  and  C_32
    5  A    between atoms: C_9  and  C_32
    6  A    between atoms: C_9  and  N_39
    7  A    between atoms: C_10  and  N_39
    8  A    between atoms: C_10  and  C_44
    9  A    between atoms: N_12  and  C_33
   10  A    between atoms: C_16  and  C_25
   11  A    between atoms: C_20  and  C_52
   12  A    between atoms: C_23  and  C_31
   13  A    between atoms: C_23  and  C_34
   14  A    between atoms: C_32  and  C_34
   15  A    between atoms: C_33  and  N_37
   16  A    between atoms: N_42  and  C_45
   17  A    between atoms: C_43  and  C_47
                            x       y       z     vdW  Elec       q    Type
                         _______ _______ _______ _____ _____    ______ ____

>  <TORSDO>
F 17

$$$$
=
 OpenBabel10222417443D

 52 56  0  0  1  0  0  0  0  0999 V2000
  180.5860  178.3760  141.9090 O   0  0  0  0  0  0  0  0  0  0  0  0
  181.8580  178.6160  142.4720 C   0  0  0  0  0  2  0  0  0  0  0  0
  182.8710  178.3230  141.4320 C   0  0  0  0  0  0  0  0  0  0  0  0
  180.7930  178.0660  140.5460 C   0  0  2  0  0  3  0  0  0  0  0  0
  182.2560  178.0020  140.3210 C   0  0  0  0  0  0  0  0  0  0  0  0
  183.3710  178.4940  138.2640 O   0  0  0  0  0  0  0  0  0  0  0  0
  182.8770  176.2420  138.6520 N   0  0  0  0  0  2  0  0  0  0  0  0
  182.8750  177.6200  139.0340 C   0  0  0  0  0  0  0  0  0  0  0  0
  183.4270  175.7870  137.3860 C   0  0  0  0  0  2  0  0  0  0  0  0
  184.8240  176.8670  135.1550 O   0  0  0  0  0  0  0  0  0  0  0  0
  184.8540  176.0650  137.3520 N   0  0  0  0  0  2  0  0  0  0  0  0
  185.4970  176.5870  136.1870 C   0  0  0  0  0  0  0  0  0  0  0  0
  187.5170  176.5660  137.5950 C   0  0  0  0  0  2  0  0  0  0  0  0
  186.9690  176.8500  136.2140 C   0  0  2  0  0  3  0  0  0  0  0  0
  187.2760  178.3030  135.8650 C   0  0  0  0  0  2  0  0  0  0  0  0
  188.7000  178.8800  136.8430 S   0  0  0  0  0  0  0  0  0  0  0  0
  188.8510  177.2720  137.6770 C   0  0  1  0  0  3  0  0  0  0  0  0
  190.9530  177.0380  140.8600 C   0  0  0  0  0  3  0  0  0  0  0  0
  188.4800  178.0370  140.0420 C   0  0  0  0  0  3  0  0  0  0  0  0
  189.3210  177.4230  139.0980 C   0  0  0  0  0  0  0  0  0  0  0  0
  188.8700  178.1530  141.3760 C   0  0  0  0  0  3  0  0  0  0  0  0
  190.1050  177.6480  141.7860 C   0  0  0  0  0  3  0  0  0  0  0  0
  190.5860  176.9320  139.5070 C   0  0  0  0  0  0  0  0  0  0  0  0
  192.8400  176.3680  138.9520 F   0  0  0  0  0  0  0  0  0  0  0  0
  191.5220  176.2530  138.5190 C   0  0  0  0  0  0  0  0  0  0  0  0
  191.4190  176.9210  137.3130 F   0  0  0  0  0  0  0  0  0  0  0  0
  191.9140  174.4150  137.1940 C   0  0  0  0  0  1  0  0  0  0  0  0
  191.1770  174.8990  138.2890 O   0  0  0  0  0  0  0  0  0  0  0  0
  184.3570  178.4020  141.6240 C   0  0  0  0  0  2  0  0  0  0  0  0
  184.6880  179.0960  142.8580 N   0  0  0  0  0  2  0  0  0  0  0  0
  185.9570  178.5530  143.3190 C   0  0  0  0  0  2  0  0  0  0  0  0
  185.8680  178.1250  144.7870 C   0  0  2  0  0  3  0  0  0  0  0  0
  185.0580  179.1240  145.6030 C   0  0  0  0  0  2  0  0  0  0  0  0
  183.7990  178.6090  145.8630 F   0  0  0  0  0  0  0  0  0  0  0  0
  187.2480  177.9290  145.4080 C   0  0  0  0  0  2  0  0  0  0  0  0
  187.1480  177.4830  146.8600 C   0  0  0  0  0  2  0  0  0  0  0  0
  189.5120  176.7140  147.0560 O   0  0  0  0  0  0  0  0  0  0  0  0
  188.4840  177.5230  147.5180 C   0  0  0  0  0  0  0  0  0  0  0  0
  188.6850  178.3080  148.4830 O   0  0  0  0  0  1  0  0  0  0  0  0
  180.2110  179.1110  139.7130 N   0  0  0  0  0  2  0  0  0  0  0  0
  179.9530  179.0420  138.2990 C   0  0  0  0  0  0  0  0  0  0  0  0
  180.0940  180.0450  136.0920 C   0  0  0  0  0  0  0  0  0  0  0  0
  181.1470  182.4450  137.1260 O   0  0  0  0  0  0  0  0  0  0  0  0
  179.3580  177.9180  137.6860 C   0  0  0  0  0  0  0  0  0  0  0  0
  180.5470  181.1390  135.1690 C   0  0  0  0  0  2  0  0  0  0  0  0
  180.9950  181.3540  137.9810 C   0  0  0  0  0  0  0  0  0  0  0  0
  179.5190  178.9350  135.5710 N   0  0  0  0  0  0  0  0  0  0  0  0
  180.3390  180.1190  137.4730 C   0  0  0  0  0  0  0  0  0  0  0  0
  178.9320  176.7880  138.4410 N   0  0  0  0  0  1  0  0  0  0  0  0
  181.4440  181.4280  139.1540 O   0  0  0  0  0  0  0  0  0  0  0  0
  180.4700  182.4930  135.8700 C   0  0  0  0  0  2  0  0  0  0  0  0
  179.1610  177.9120  136.3420 N   0  0  0  0  0  0  0  0  0  0  0  0
  1  2  1  0  0  0  0
  3 29  1  0  0  0  0
  3  2  1  0  0  0  0
  4 40  1  6  0  0  0
  4  1  1  0  0  0  0
  5  4  1  0  0  0  0
  5  3  2  0  0  0  0
  6  8  2  0  0  0  0
  7  8  1  0  0  0  0
  8  5  1  0  0  0  0
  9  7  1  0  0  0  0
 10 12  2  0  0  0  0
 11  9  1  0  0  0  0
 12 11  1  0  0  0  0
 13 17  1  0  0  0  0
 14 12  1  1  0  0  0
 14 13  1  0  0  0  0
 15 14  1  0  0  0  0
 15 16  1  0  0  0  0
 16 17  1  0  0  0  0
 17 20  1  1  0  0  0
 18 22  1  0  0  0  0
 19 21  1  0  0  0  0
 20 23  1  0  0  0  0
 20 19  2  0  0  0  0
 21 22  2  0  0  0  0
 23 18  2  0  0  0  0
 25 24  1  0  0  0  0
 25 23  1  0  0  0  0
 26 25  1  0  0  0  0
 27 28  1  0  0  0  0
 28 25  1  0  0  0  0
 29 30  1  0  0  0  0
 30 31  1  0  0  0  0
 32 31  1  6  0  0  0
 32 35  1  0  0  0  0
 32 33  1  0  0  0  0
 33 34  1  0  0  0  0
 35 36  1  0  0  0  0
 36 38  1  0  0  0  0
 37 38  2  0  0  0  0
 38 39  1  0  0  0  0
 41 40  1  0  0  0  0
 42 48  1  0  0  0  0
 43 46  1  0  0  0  0
 44 41  1  0  0  0  0
 44 49  1  0  0  0  0
 45 51  1  0  0  0  0
 45 42  1  0  0  0  0
 46 50  2  0  0  0  0
 47 42  2  0  0  0  0
 47 52  1  0  0  0  0
 48 46  1  0  0  0  0
 48 41  2  0  0  0  0
 51 43  1  0  0  0  0
 52 44  2  0  0  0  0
M  END
>  <MODEL>
6

>  <REMARK>
 VINA RESULT:      -7.5      4.032      6.464
  Name = 
  17 active torsions:
  status: ('A' for Active; 'I' for Inactive)
    1  A    between atoms: C_2  and  N_42
    2  A    between atoms: C_4  and  O_28
    3  A    between atoms: C_4  and  C_48
    4  A    between atoms: C_8  and  C_32
    5  A    between atoms: C_9  and  C_32
    6  A    between atoms: C_9  and  N_39
    7  A    between atoms: C_10  and  N_39
    8  A    between atoms: C_10  and  C_44
    9  A    between atoms: N_12  and  C_33
   10  A    between atoms: C_16  and  C_25
   11  A    between atoms: C_20  and  C_52
   12  A    between atoms: C_23  and  C_31
   13  A    between atoms: C_23  and  C_34
   14  A    between atoms: C_32  and  C_34
   15  A    between atoms: C_33  and  N_37
   16  A    between atoms: N_42  and  C_45
   17  A    between atoms: C_43  and  C_47
                            x       y       z     vdW  Elec       q    Type
                         _______ _______ _______ _____ _____    ______ ____

>  <TORSDO>
F 17

$$$$
=
 OpenBabel10222417443D

 52 56  0  0  1  0  0  0  0  0999 V2000
  185.3060  175.0560  135.3340 O   0  0  0  0  0  0  0  0  0  0  0  0
  186.3850  174.2260  134.9600 C   0  0  0  0  0  2  0  0  0  0  0  0
  187.6380  174.9370  135.3040 C   0  0  0  0  0  0  0  0  0  0  0  0
  185.8610  176.1770  135.9900 C   0  0  2  0  0  3  0  0  0  0  0  0
  187.3340  176.0660  135.8950 C   0  0  0  0  0  0  0  0  0  0  0  0
  188.7770  177.9510  135.6070 O   0  0  0  0  0  0  0  0  0  0  0  0
  188.6310  177.0910  137.7760 N   0  0  0  0  0  2  0  0  0  0  0  0
  188.2720  177.0950  136.3920 C   0  0  0  0  0  0  0  0  0  0  0  0
  189.5770  178.0400  138.3380 C   0  0  0  0  0  2  0  0  0  0  0  0
  191.1370  176.0760  139.6800 O   0  0  0  0  0  0  0  0  0  0  0  0
  189.6350  177.8660  139.7810 N   0  0  0  0  0  2  0  0  0  0  0  0
  190.4240  176.8400  140.3890 C   0  0  0  0  0  0  0  0  0  0  0  0
  189.0260  176.7280  142.4130 C   0  0  0  0  0  2  0  0  0  0  0  0
  190.4400  176.7110  141.8790 C   0  0  2  0  0  3  0  0  0  0  0  0
  191.2110  177.8600  142.5230 C   0  0  0  0  0  2  0  0  0  0  0  0
  190.4210  178.3200  144.0980 S   0  0  0  0  0  0  0  0  0  0  0  0
  189.1290  177.0590  143.8840 C   0  0  1  0  0  3  0  0  0  0  0  0
  186.3190  177.8940  146.3360 C   0  0  0  0  0  3  0  0  0  0  0  0
  186.7750  177.8830  143.5830 C   0  0  0  0  0  3  0  0  0  0  0  0
  187.8120  177.5070  144.4550 C   0  0  0  0  0  0  0  0  0  0  0  0
  185.5280  178.2630  144.0810 C   0  0  0  0  0  3  0  0  0  0  0  0
  185.2990  178.2630  145.4580 C   0  0  0  0  0  3  0  0  0  0  0  0
  187.5890  177.5290  145.8540 C   0  0  0  0  0  0  0  0  0  0  0  0
  189.6250  176.3250  146.1880 F   0  0  0  0  0  0  0  0  0  0  0  0
  188.6810  177.1210  146.8300 C   0  0  0  0  0  0  0  0  0  0  0  0
  188.0950  176.3560  147.8230 F   0  0  0  0  0  0  0  0  0  0  0  0
  188.8410  178.3260  148.7820 C   0  0  0  0  0  1  0  0  0  0  0  0
  189.2930  178.2340  147.4550 O   0  0  0  0  0  0  0  0  0  0  0  0
  189.0240  174.4300  135.0310 C   0  0  0  0  0  2  0  0  0  0  0  0
  189.5820  173.7800  136.2050 N   0  0  0  0  0  2  0  0  0  0  0  0
  190.9620  173.4450  135.8850 C   0  0  0  0  0  2  0  0  0  0  0  0
  191.9370  174.3030  136.6970 C   0  0  2  0  0  3  0  0  0  0  0  0
  192.2260  175.6230  135.9920 C   0  0  0  0  0  2  0  0  0  0  0  0
  192.6330  176.5710  136.9160 F   0  0  0  0  0  0  0  0  0  0  0  0
  193.2390  173.5640  136.9920 C   0  0  0  0  0  2  0  0  0  0  0  0
  194.3490  173.9890  136.0410 C   0  0  0  0  0  2  0  0  0  0  0  0
  195.8000  176.0160  136.0720 O   0  0  0  0  0  0  0  0  0  0  0  0
  195.3140  174.8930  136.7260 C   0  0  0  0  0  0  0  0  0  0  0  0
  195.6730  174.6480  137.9090 O   0  0  0  0  0  1  0  0  0  0  0  0
  185.4550  176.1750  137.3890 N   0  0  0  0  0  2  0  0  0  0  0  0
  184.4250  176.9820  137.9890 C   0  0  0  0  0  0  0  0  0  0  0  0
  182.1790  177.1850  138.8880 C   0  0  0  0  0  0  0  0  0  0  0  0
  181.5260  174.5440  138.1580 O   0  0  0  0  0  0  0  0  0  0  0  0
  184.6190  178.3400  138.3250 C   0  0  0  0  0  0  0  0  0  0  0  0
  180.8610  176.5870  139.2890 C   0  0  0  0  0  2  0  0  0  0  0  0
  182.8450  174.9740  138.0160 C   0  0  0  0  0  0  0  0  0  0  0  0
  182.4340  178.4820  139.1840 N   0  0  0  0  0  0  0  0  0  0  0  0
  183.1780  176.3970  138.2940 C   0  0  0  0  0  0  0  0  0  0  0  0
  185.8430  179.0150  138.0500 N   0  0  0  0  0  1  0  0  0  0  0  0
  183.7290  174.1410  137.6860 O   0  0  0  0  0  0  0  0  0  0  0  0
  180.4610  175.4810  138.3150 C   0  0  0  0  0  2  0  0  0  0  0  0
  183.6100  179.0380  138.9080 N   0  0  0  0  0  0  0  0  0  0  0  0
  1  4  1  0  0  0  0
  2  3  1  0  0  0  0
  2  1  1  0  0  0  0
  3  5  2  0  0  0  0
  4 40  1  1  0  0  0
  5  4  1  0  0  0  0
  5  8  1  0  0  0  0
  6  8  2  0  0  0  0
  7  9  1  0  0  0  0
  8  7  1  0  0  0  0
  9 11  1  0  0  0  0
 10 12  2  0  0  0  0
 11 12  1  0  0  0  0
 13 17  1  0  0  0  0
 14 12  1  6  0  0  0
 14 13  1  0  0  0  0
 14 15  1  0  0  0  0
 15 16  1  0  0  0  0
 17 16  1  0  0  0  0
 17 20  1  6  0  0  0
 19 21  2  0  0  0  0
 19 20  1  0  0  0  0
 20 23  2  0  0  0  0
 21 22  1  0  0  0  0
 22 18  2  0  0  0  0
 23 18  1  0  0  0  0
 23 25  1  0  0  0  0
 24 25  1  0  0  0  0
 25 28  1  0  0  0  0
 25 26  1  0  0  0  0
 28 27  1  0  0  0  0
 29  3  1  0  0  0  0
 29 30  1  0  0  0  0
 31 30  1  0  0  0  0
 32 31  1  6  0  0  0
 32 35  1  0  0  0  0
 33 32  1  0  0  0  0
 33 34  1  0  0  0  0
 36 38  1  0  0  0  0
 36 35  1  0  0  0  0
 37 38  2  0  0  0  0
 38 39  1  0  0  0  0
 40 41  1  0  0  0  0
 41 48  2  0  0  0  0
 41 44  1  0  0  0  0
 42 47  2  0  0  0  0
 42 45  1  0  0  0  0
 43 51  1  0  0  0  0
 44 52  2  0  0  0  0
 46 43  1  0  0  0  0
 46 48  1  0  0  0  0
 48 42  1  0  0  0  0
 49 44  1  0  0  0  0
 50 46  2  0  0  0  0
 51 45  1  0  0  0  0
 52 47  1  0  0  0  0
M  END
>  <MODEL>
7

>  <REMARK>
 VINA RESULT:      -7.5      3.377      9.452
  Name = 
  17 active torsions:
  status: ('A' for Active; 'I' for Inactive)
    1  A    between atoms: C_2  and  N_42
    2  A    between atoms: C_4  and  O_28
    3  A    between atoms: C_4  and  C_48
    4  A    between atoms: C_8  and  C_32
    5  A    between atoms: C_9  and  C_32
    6  A    between atoms: C_9  and  N_39
    7  A    between atoms: C_10  and  N_39
    8  A    between atoms: C_10  and  C_44
    9  A    between atoms: N_12  and  C_33
   10  A    between atoms: C_16  and  C_25
   11  A    between atoms: C_20  and  C_52
   12  A    between atoms: C_23  and  C_31
   13  A    between atoms: C_23  and  C_34
   14  A    between atoms: C_32  and  C_34
   15  A    between atoms: C_33  and  N_37
   16  A    between atoms: N_42  and  C_45
   17  A    between atoms: C_43  and  C_47
                            x       y       z     vdW  Elec       q    Type
                         _______ _______ _______ _____ _____    ______ ____

>  <TORSDO>
F 17

$$$$
=
 OpenBabel10222417443D

 52 56  0  0  1  0  0  0  0  0999 V2000
  182.8230  179.7160  139.0170 O   0  0  0  0  0  0  0  0  0  0  0  0
  182.2430  179.1620  137.8550 C   0  0  0  0  0  2  0  0  0  0  0  0
  183.2370  178.2440  137.2520 C   0  0  0  0  0  0  0  0  0  0  0  0
  184.0710  179.0780  139.1950 C   0  0  2  0  0  3  0  0  0  0  0  0
  184.2940  178.1980  138.0250 C   0  0  0  0  0  0  0  0  0  0  0  0
  185.4970  176.2800  137.2580 O   0  0  0  0  0  0  0  0  0  0  0  0
  186.7770  177.9700  138.2420 N   0  0  0  0  0  2  0  0  0  0  0  0
  185.5320  177.4220  137.8020 C   0  0  0  0  0  0  0  0  0  0  0  0
  188.0350  177.2560  138.0990 C   0  0  0  0  0  2  0  0  0  0  0  0
  190.3280  175.6820  138.7020 O   0  0  0  0  0  0  0  0  0  0  0  0
  188.7440  177.2690  139.3700 N   0  0  0  0  0  2  0  0  0  0  0  0
  189.8780  176.4320  139.6140 C   0  0  0  0  0  0  0  0  0  0  0  0
  189.5510  176.3040  142.0510 C   0  0  0  0  0  2  0  0  0  0  0  0
  190.5620  176.4900  140.9420 C   0  0  2  0  0  3  0  0  0  0  0  0
  191.2570  177.8330  141.1450 C   0  0  0  0  0  2  0  0  0  0  0  0
  191.1410  178.3230  142.8960 S   0  0  0  0  0  0  0  0  0  0  0  0
  190.2020  176.8240  143.3120 C   0  0  1  0  0  3  0  0  0  0  0  0
  188.5900  177.2770  146.7480 C   0  0  0  0  0  3  0  0  0  0  0  0
  187.8460  177.2790  144.0590 C   0  0  0  0  0  3  0  0  0  0  0  0
  189.1950  177.0810  144.4000 C   0  0  0  0  0  0  0  0  0  0  0  0
  186.8820  177.4770  145.0470 C   0  0  0  0  0  3  0  0  0  0  0  0
  187.2540  177.4700  146.3930 C   0  0  0  0  0  3  0  0  0  0  0  0
  189.5790  177.0980  145.7640 C   0  0  0  0  0  0  0  0  0  0  0  0
  191.7950  177.9860  145.8350 F   0  0  0  0  0  0  0  0  0  0  0  0
  191.0260  176.8780  146.1760 C   0  0  0  0  0  0  0  0  0  0  0  0
  191.5090  175.7980  145.4600 F   0  0  0  0  0  0  0  0  0  0  0  0
  192.3310  175.8250  147.7500 C   0  0  0  0  0  1  0  0  0  0  0  0
  191.1560  176.5710  147.5520 O   0  0  0  0  0  0  0  0  0  0  0  0
  183.0470  177.4800  135.9750 C   0  0  0  0  0  2  0  0  0  0  0  0
  181.7920  176.7470  135.9860 N   0  0  0  0  0  2  0  0  0  0  0  0
  181.9810  175.6010  136.8630 C   0  0  0  0  0  2  0  0  0  0  0  0
  181.5790  174.3010  136.1600 C   0  0  2  0  0  3  0  0  0  0  0  0
  180.4350  174.5370  135.1820 C   0  0  0  0  0  2  0  0  0  0  0  0
  179.2590  174.7640  135.8780 F   0  0  0  0  0  0  0  0  0  0  0  0
  181.2060  173.2060  137.1560 C   0  0  0  0  0  2  0  0  0  0  0  0
  181.2640  171.8260  136.5160 C   0  0  0  0  0  2  0  0  0  0  0  0
  179.7400  169.9390  135.9390 O   0  0  0  0  0  0  0  0  0  0  0  0
  179.9220  171.1810  136.5320 C   0  0  0  0  0  0  0  0  0  0  0  0
  178.9560  171.7540  137.1020 O   0  0  0  0  0  1  0  0  0  0  0  0
  184.0430  178.2800  140.4140 N   0  0  0  0  0  2  0  0  0  0  0  0
  183.7140  178.7390  141.7380 C   0  0  0  0  0  0  0  0  0  0  0  0
  182.0920  178.9870  143.5280 C   0  0  0  0  0  0  0  0  0  0  0  0
  180.0130  177.9390  141.9410 O   0  0  0  0  0  0  0  0  0  0  0  0
  184.6600  179.3500  142.5900 C   0  0  0  0  0  0  0  0  0  0  0  0
  180.7330  178.7420  144.1170 C   0  0  0  0  0  2  0  0  0  0  0  0
  181.3180  177.8970  141.4520 C   0  0  0  0  0  0  0  0  0  0  0  0
  183.0490  179.5650  144.2910 N   0  0  0  0  0  0  0  0  0  0  0  0
  182.4070  178.5460  142.2320 C   0  0  0  0  0  0  0  0  0  0  0  0
  186.0010  179.5910  142.1750 N   0  0  0  0  0  1  0  0  0  0  0  0
  181.5510  177.2840  140.3780 O   0  0  0  0  0  0  0  0  0  0  0  0
  179.6640  178.7960  143.0280 C   0  0  0  0  0  2  0  0  0  0  0  0
  184.2870  179.7430  143.8360 N   0  0  0  0  0  0  0  0  0  0  0  0
  1  4  1  0  0  0  0
  2  1  1  0  0  0  0
  3  2  1  0  0  0  0
  3  5  2  0  0  0  0
  4 40  1  1  0  0  0
  5  4  1  0  0  0  0
  6  8  2  0  0  0  0
  8  5  1  0  0  0  0
  8  7  1  0  0  0  0
  9  7  1  0  0  0  0
  9 11  1  0  0  0  0
 10 12  2  0  0  0  0
 11 12  1  0  0  0  0
 13 17  1  0  0  0  0
 14 12  1  6  0  0  0
 14 15  1  0  0  0  0
 14 13  1  0  0  0  0
 15 16  1  0  0  0  0
 16 17  1  0  0  0  0
 17 20  1  1  0  0  0
 19 20  2  0  0  0  0
 19 21  1  0  0  0  0
 20 23  1  0  0  0  0
 21 22  2  0  0  0  0
 22 18  1  0  0  0  0
 23 25  1  0  0  0  0
 23 18  2  0  0  0  0
 24 25  1  0  0  0  0
 25 28  1  0  0  0  0
 26 25  1  0  0  0  0
 28 27  1  0  0  0  0
 29 30  1  0  0  0  0
 29  3  1  0  0  0  0
 30 31  1  0  0  0  0
 32 33  1  6  0  0  0
 32 31  1  0  0  0  0
 32 35  1  0  0  0  0
 33 34  1  0  0  0  0
 36 38  1  0  0  0  0
 36 35  1  0  0  0  0
 37 38  2  0  0  0  0
 38 39  1  0  0  0  0
 40 41  1  0  0  0  0
 41 48  2  0  0  0  0
 41 44  1  0  0  0  0
 42 45  1  0  0  0  0
 42 47  2  0  0  0  0
 43 51  1  0  0  0  0
 44 52  2  0  0  0  0
 46 43  1  0  0  0  0
 46 48  1  0  0  0  0
 48 42  1  0  0  0  0
 49 44  1  0  0  0  0
 50 46  2  0  0  0  0
 51 45  1  0  0  0  0
 52 47  1  0  0  0  0
M  END
>  <MODEL>
8

>  <REMARK>
 VINA RESULT:      -7.5      4.823      9.542
  Name = 
  17 active torsions:
  status: ('A' for Active; 'I' for Inactive)
    1  A    between atoms: C_2  and  N_42
    2  A    between atoms: C_4  and  O_28
    3  A    between atoms: C_4  and  C_48
    4  A    between atoms: C_8  and  C_32
    5  A    between atoms: C_9  and  C_32
    6  A    between atoms: C_9  and  N_39
    7  A    between atoms: C_10  and  N_39
    8  A    between atoms: C_10  and  C_44
    9  A    between atoms: N_12  and  C_33
   10  A    between atoms: C_16  and  C_25
   11  A    between atoms: C_20  and  C_52
   12  A    between atoms: C_23  and  C_31
   13  A    between atoms: C_23  and  C_34
   14  A    between atoms: C_32  and  C_34
   15  A    between atoms: C_33  and  N_37
   16  A    between atoms: N_42  and  C_45
   17  A    between atoms: C_43  and  C_47
                            x       y       z     vdW  Elec       q    Type
                         _______ _______ _______ _____ _____    ______ ____

>  <TORSDO>
F 17

$$$$
=
 OpenBabel10222417443D

 52 56  0  0  1  0  0  0  0  0999 V2000
  190.4080  177.2920  141.3690 O   0  0  0  0  0  0  0  0  0  0  0  0
  189.0780  177.5840  141.7400 C   0  0  0  0  0  2  0  0  0  0  0  0
  188.3680  178.0550  140.5290 C   0  0  0  0  0  0  0  0  0  0  0  0
  190.4880  177.4570  139.9680 C   0  0  2  0  0  3  0  0  0  0  0  0
  189.1830  177.9860  139.5060 C   0  0  0  0  0  0  0  0  0  0  0  0
  189.0510  179.5640  137.7160 O   0  0  0  0  0  0  0  0  0  0  0  0
  188.4120  177.3740  137.2050 N   0  0  0  0  0  2  0  0  0  0  0  0
  188.8980  178.3700  138.1080 C   0  0  0  0  0  0  0  0  0  0  0  0
  188.0670  177.6760  135.8260 C   0  0  0  0  0  2  0  0  0  0  0  0
  186.0730  175.6820  135.4500 O   0  0  0  0  0  0  0  0  0  0  0  0
  186.6380  177.9340  135.7300 N   0  0  0  0  0  2  0  0  0  0  0  0
  185.6910  176.8840  135.5170 C   0  0  0  0  0  0  0  0  0  0  0  0
  183.6690  177.4330  136.8090 C   0  0  0  0  0  2  0  0  0  0  0  0
  184.2360  177.2140  135.4250 C   0  0  2  0  0  3  0  0  0  0  0  0
  183.4560  176.0840  134.7590 C   0  0  0  0  0  2  0  0  0  0  0  0
  181.8120  175.9380  135.5290 S   0  0  0  0  0  0  0  0  0  0  0  0
  182.1690  177.2980  136.6820 C   0  0  1  0  0  3  0  0  0  0  0  0
  180.3410  177.9250  139.9790 C   0  0  0  0  0  3  0  0  0  0  0  0
  181.5280  175.8090  138.6010 C   0  0  0  0  0  3  0  0  0  0  0  0
  181.5070  177.0860  138.0160 C   0  0  0  0  0  0  0  0  0  0  0  0
  180.9600  175.5900  139.8570 C   0  0  0  0  0  3  0  0  0  0  0  0
  180.3710  176.6510  140.5480 C   0  0  0  0  0  3  0  0  0  0  0  0
  180.8890  178.1590  138.7050 C   0  0  0  0  0  0  0  0  0  0  0  0
  179.7750  180.2710  138.6270 F   0  0  0  0  0  0  0  0  0  0  0  0
  180.8530  179.5580  138.1110 C   0  0  0  0  0  0  0  0  0  0  0  0
  180.6550  179.4320  136.7470 F   0  0  0  0  0  0  0  0  0  0  0  0
  181.8020  181.6400  138.3430 C   0  0  0  0  0  1  0  0  0  0  0  0
  182.0670  180.2600  138.3030 O   0  0  0  0  0  0  0  0  0  0  0  0
  186.9410  178.5180  140.4880 C   0  0  0  0  0  2  0  0  0  0  0  0
  186.4740  178.8920  141.8120 N   0  0  0  0  0  2  0  0  0  0  0  0
  185.0280  178.7270  141.8110 C   0  0  0  0  0  2  0  0  0  0  0  0
  184.5120  178.4070  143.2180 C   0  0  2  0  0  3  0  0  0  0  0  0
  183.0930  178.9250  143.4140 C   0  0  0  0  0  2  0  0  0  0  0  0
  182.5330  178.3490  144.5420 F   0  0  0  0  0  0  0  0  0  0  0  0
  185.4330  178.9610  144.3020 C   0  0  0  0  0  2  0  0  0  0  0  0
  185.9070  177.8640  145.2450 C   0  0  0  0  0  2  0  0  0  0  0  0
  187.4290  177.9270  147.2190 O   0  0  0  0  0  1  0  0  0  0  0  0
  186.3220  178.4370  146.5550 C   0  0  0  0  0  0  0  0  0  0  0  0
  185.6790  179.4010  147.0510 O   0  0  0  0  0  0  0  0  0  0  0  0
  190.7490  176.1700  139.3370 N   0  0  0  0  0  2  0  0  0  0  0  0
  191.7920  175.8690  138.3920 C   0  0  0  0  0  0  0  0  0  0  0  0
  192.5470  174.6910  136.4080 C   0  0  0  0  0  0  0  0  0  0  0  0
  190.1200  173.2760  136.1870 O   0  0  0  0  0  0  0  0  0  0  0  0
  193.0730  176.4620  138.4550 C   0  0  0  0  0  0  0  0  0  0  0  0
  192.2900  173.7970  135.2290 C   0  0  0  0  0  2  0  0  0  0  0  0
  190.2200  174.2970  137.1330 C   0  0  0  0  0  0  0  0  0  0  0  0
  193.7520  175.2960  136.5290 N   0  0  0  0  0  0  0  0  0  0  0  0
  191.5290  174.9750  137.3340 C   0  0  0  0  0  0  0  0  0  0  0  0
  193.4300  177.3710  139.4920 N   0  0  0  0  0  1  0  0  0  0  0  0
  189.1930  174.6420  137.7730 O   0  0  0  0  0  0  0  0  0  0  0  0
  191.2880  172.7050  135.5980 C   0  0  0  0  0  2  0  0  0  0  0  0
  194.0060  176.1470  137.5190 N   0  0  0  0  0  0  0  0  0  0  0  0
  1  2  1  0  0  0  0
  3  2  1  0  0  0  0
  4 40  1  6  0  0  0
  4  1  1  0  0  0  0
  5  4  1  0  0  0  0
  5  3  2  0  0  0  0
  6  8  2  0  0  0  0
  7  8  1  0  0  0  0
  8  5  1  0  0  0  0
  9  7  1  0  0  0  0
 10 12  2  0  0  0  0
 11  9  1  0  0  0  0
 12 11  1  0  0  0  0
 14 12  1  1  0  0  0
 14 13  1  0  0  0  0
 15 14  1  0  0  0  0
 15 16  1  0  0  0  0
 16 17  1  0  0  0  0
 17 13  1  0  0  0  0
 17 20  1  1  0  0  0
 18 22  1  0  0  0  0
 19 21  1  0  0  0  0
 20 19  2  0  0  0  0
 20 23  1  0  0  0  0
 21 22  2  0  0  0  0
 23 18  2  0  0  0  0
 25 28  1  0  0  0  0
 25 24  1  0  0  0  0
 25 23  1  0  0  0  0
 26 25  1  0  0  0  0
 28 27  1  0  0  0  0
 29  3  1  0  0  0  0
 29 30  1  0  0  0  0
 31 30  1  0  0  0  0
 32 31  1  6  0  0  0
 32 33  1  0  0  0  0
 32 35  1  0  0  0  0
 33 34  1  0  0  0  0
 35 36  1  0  0  0  0
 36 38  1  0  0  0  0
 38 39  2  0  0  0  0
 38 37  1  0  0  0  0
 41 44  1  0  0  0  0
 41 40  1  0  0  0  0
 42 47  2  0  0  0  0
 42 48  1  0  0  0  0
 43 46  1  0  0  0  0
 44 49  1  0  0  0  0
 45 51  1  0  0  0  0
 45 42  1  0  0  0  0
 46 48  1  0  0  0  0
 46 50  2  0  0  0  0
 47 52  1  0  0  0  0
 48 41  2  0  0  0  0
 51 43  1  0  0  0  0
 52 44  2  0  0  0  0
M  END
>  <MODEL>
9

>  <REMARK>
 VINA RESULT:      -7.4      4.908     10.472
  Name = 
  17 active torsions:
  status: ('A' for Active; 'I' for Inactive)
    1  A    between atoms: C_2  and  N_42
    2  A    between atoms: C_4  and  O_28
    3  A    between atoms: C_4  and  C_48
    4  A    between atoms: C_8  and  C_32
    5  A    between atoms: C_9  and  C_32
    6  A    between atoms: C_9  and  N_39
    7  A    between atoms: C_10  and  N_39
    8  A    between atoms: C_10  and  C_44
    9  A    between atoms: N_12  and  C_33
   10  A    between atoms: C_16  and  C_25
   11  A    between atoms: C_20  and  C_52
   12  A    between atoms: C_23  and  C_31
   13  A    between atoms: C_23  and  C_34
   14  A    between atoms: C_32  and  C_34
   15  A    between atoms: C_33  and  N_37
   16  A    between atoms: N_42  and  C_45
   17  A    between atoms: C_43  and  C_47
                            x       y       z     vdW  Elec       q    Type
                         _______ _______ _______ _____ _____    ______ ____

>  <TORSDO>
F 17

$$$$
