=
 OpenBabel10222420443D

 39 43  0  0  1  0  0  0  0  0999 V2000
  185.9330  177.2250  136.8500 O   0  0  0  0  0  0  0  0  0  0  0  0
  188.2070  178.3130  140.4370 O   0  0  0  0  0  0  0  0  0  0  0  0
  183.6170  177.5420  137.6040 C   0  0  0  0  0  3  0  0  0  0  0  0
  186.1170  177.9120  139.0200 C   0  0  2  0  0  3  0  0  0  0  0  0
  187.5410  178.2050  139.3740 C   0  0  0  0  0  0  0  0  0  0  0  0
  184.5500  176.9780  136.8010 C   0  0  0  0  0  3  0  0  0  0  0  0
  187.8630  178.1870  137.9310 N   0  0  0  0  0  0  0  0  0  0  0  0
  186.4400  178.2480  137.6820 C   0  0  1  0  0  3  0  0  0  0  0  0
  183.7620  178.5160  138.7480 C   0  0  0  0  0  0  0  0  0  0  0  0
  184.9410  178.7620  139.3800 C   0  0  0  0  0  0  0  0  0  0  0  0
  181.9750  180.2330  138.3940 C   0  0  0  0  0  3  0  0  0  0  0  0
  180.8080  180.8240  138.7630 N   0  0  0  0  0  0  0  0  0  0  0  0
  180.1470  180.4370  139.8540 N   0  0  0  0  0  0  0  0  0  0  0  0
  181.8020  178.7960  140.3120 C   0  0  0  0  0  3  0  0  0  0  0  0
  180.6120  179.4340  140.6440 C   0  0  0  0  0  3  0  0  0  0  0  0
  182.5100  179.2000  139.1730 C   0  0  0  0  0  0  0  0  0  0  0  0
  189.0780  178.2960  137.1400 C   0  0  0  0  0  2  0  0  0  0  0  0
  189.6970  176.9230  136.9160 C   0  0  0  0  0  2  0  0  0  0  0  0
  191.0500  177.5430  138.9590 N   0  0  0  0  0  2  0  0  0  0  0  0
  190.5660  176.5350  138.0670 C   0  0  0  0  0  0  0  0  0  0  0  0
  190.7870  175.2830  138.3050 N   0  0  0  0  0  2  0  0  0  0  0  0
  193.2020  177.2850  140.0670 C   0  0  0  0  0  1  0  0  0  0  0  0
  191.6940  177.2320  140.2260 C   0  0  0  0  0  2  0  0  0  0  0  0
  185.0250  179.7790  140.3400 O   0  0  0  0  0  0  0  0  0  0  0  0
  185.7460  179.6450  141.4600 O   0  0  0  0  0  0  0  0  0  0  0  0
  184.8180  179.2640  142.4310 C   0  0  2  0  0  3  0  0  0  0  0  0
  184.9580  180.0810  143.5520 O   0  0  0  0  0  1  0  0  0  0  0  0
  185.0540  177.8200  142.8370 C   0  0  0  0  0  2  0  0  0  0  0  0
  186.8180  177.6580  144.8370 C   0  0  0  0  0  0  0  0  0  0  0  0
  186.0250  177.7370  143.9310 C   0  0  0  0  0  0  0  0  0  0  0  0
  187.7580  177.5600  145.9200 C   0  0  0  0  0  0  0  0  0  0  0  0
  191.8660  176.6850  146.2120 N   0  0  0  0  0  0  0  0  0  0  0  0
  189.6750  177.2500  147.1540 C   0  0  0  0  0  0  0  0  0  0  0  0
  189.1700  177.2560  145.8140 C   0  0  0  0  0  0  0  0  0  0  0  0
  188.6920  177.5210  148.0030 C   0  0  0  0  0  3  0  0  0  0  0  0
  191.1130  176.9650  147.4520 C   0  0  0  0  0  3  0  0  0  0  0  0
  189.9350  176.9970  144.7590 C   0  0  0  0  0  3  0  0  0  0  0  0
  191.3640  176.6960  145.0040 C   0  0  0  0  0  3  0  0  0  0  0  0
  187.4590  177.7170  147.2060 C   0  0  0  0  0  2  0  0  0  0  0  0
  3  9  1  0  0  0  0
  4  5  1  1  0  0  0
  4 10  1  0  0  0  0
  5  2  2  0  0  0  0
  6  1  1  0  0  0  0
  6  3  2  0  0  0  0
  7  5  1  0  0  0  0
  8  1  1  6  0  0  0
  8  7  1  0  0  0  0
  8  4  1  0  0  0  0
  9 16  1  0  0  0  0
  9 10  2  0  0  0  0
 10 24  1  0  0  0  0
 11 12  2  0  0  0  0
 11 16  1  0  0  0  0
 12 13  1  0  0  0  0
 13 15  2  0  0  0  0
 14 15  1  0  0  0  0
 16 14  2  0  0  0  0
 17  7  1  0  0  0  0
 18 17  1  0  0  0  0
 18 20  1  0  0  0  0
 19 23  1  0  0  0  0
 20 21  2  0  0  0  0
 20 19  1  0  0  0  0
 22 23  1  0  0  0  0
 24 25  1  0  0  0  0
 25 26  1  0  0  0  0
 26 28  1  0  0  0  0
 26 27  1  1  0  0  0
 28 30  1  0  0  0  0
 29 31  1  0  0  0  0
 30 29  3  0  0  0  0
 31 39  1  0  0  0  0
 32 36  2  0  0  0  0
 33 36  1  0  0  0  0
 33 35  2  0  0  0  0
 34 31  2  0  0  0  0
 34 33  1  0  0  0  0
 37 38  2  0  0  0  0
 37 34  1  0  0  0  0
 38 32  1  0  0  0  0
 39 35  1  0  0  0  0
M  END
>  <MODEL>
1

>  <REMARK>
 VINA RESULT:      -8.9      0.000      0.000
  Name = 
  11 active torsions:
  status: ('A' for Active; 'I' for Inactive)
    1  A    between atoms: C_1  and  C_5
    2  A    between atoms: N_7  and  C_26
    3  A    between atoms: C_8  and  C_15
    4  A    between atoms: C_8  and  O_17
    5  A    between atoms: C_10  and  C_38
    6  A    between atoms: C_15  and  C_19
    7  A    between atoms: O_17  and  O_37
    8  A    between atoms: C_24  and  N_30
    9  A    between atoms: C_24  and  C_38
   10  A    between atoms: C_32  and  C_34
   11  A    between atoms: C_35  and  O_37
                            x       y       z     vdW  Elec       q    Type
                         _______ _______ _______ _____ _____    ______ ____

>  <TORSDO>
F 11

$$$$
=
 OpenBabel10222420443D

 39 43  0  0  1  0  0  0  0  0999 V2000
  182.9350  176.3620  138.4220 O   0  0  0  0  0  0  0  0  0  0  0  0
  184.2290  180.4960  139.0920 O   0  0  0  0  0  0  0  0  0  0  0  0
  184.6650  175.5330  136.8870 C   0  0  0  0  0  3  0  0  0  0  0  0
  184.3330  178.1390  138.1070 C   0  0  2  0  0  3  0  0  0  0  0  0
  184.0000  179.2590  139.0420 C   0  0  0  0  0  0  0  0  0  0  0  0
  183.4200  175.5050  137.4180 C   0  0  0  0  0  3  0  0  0  0  0  0
  183.1730  178.3120  139.8200 N   0  0  0  0  0  0  0  0  0  0  0  0
  183.8150  177.2500  139.0800 C   0  0  1  0  0  3  0  0  0  0  0  0
  185.8310  176.4520  137.1610 C   0  0  0  0  0  0  0  0  0  0  0  0
  185.7110  177.6480  137.7990 C   0  0  0  0  0  0  0  0  0  0  0  0
  187.6510  176.4370  135.4420 C   0  0  0  0  0  3  0  0  0  0  0  0
  188.8780  176.0380  135.0170 N   0  0  0  0  0  0  0  0  0  0  0  0
  189.6340  175.2180  135.7480 N   0  0  0  0  0  0  0  0  0  0  0  0
  187.9600  175.1260  137.4310 C   0  0  0  0  0  3  0  0  0  0  0  0
  189.2090  174.7470  136.9500 C   0  0  0  0  0  3  0  0  0  0  0  0
  187.1530  175.9790  136.6680 C   0  0  0  0  0  0  0  0  0  0  0  0
  182.2910  178.4130  140.9710 C   0  0  0  0  0  2  0  0  0  0  0  0
  180.8800  177.9700  140.6050 C   0  0  0  0  0  2  0  0  0  0  0  0
  180.5660  180.4190  140.0710 N   0  0  0  0  0  2  0  0  0  0  0  0
  180.1410  179.0640  139.9070 C   0  0  0  0  0  0  0  0  0  0  0  0
  179.1910  178.7650  139.0820 N   0  0  0  0  0  2  0  0  0  0  0  0
  181.1230  181.9470  138.2590 C   0  0  0  0  0  1  0  0  0  0  0  0
  180.0600  181.5090  139.2500 C   0  0  0  0  0  2  0  0  0  0  0  0
  186.8550  178.3810  138.1380 O   0  0  0  0  0  0  0  0  0  0  0  0
  187.2190  178.5880  139.4090 O   0  0  0  0  0  0  0  0  0  0  0  0
  188.6140  178.5320  139.3890 C   0  0  2  0  0  3  0  0  0  0  0  0
  189.0520  178.3550  138.0780 O   0  0  0  0  0  1  0  0  0  0  0  0
  189.0990  177.3690  140.2350 C   0  0  0  0  0  2  0  0  0  0  0  0
  188.1130  177.5230  142.7140 C   0  0  0  0  0  0  0  0  0  0  0  0
  188.5650  177.4540  141.5970 C   0  0  0  0  0  0  0  0  0  0  0  0
  187.5680  177.6040  144.0410 C   0  0  0  0  0  0  0  0  0  0  0  0
  183.9150  178.9090  145.6760 N   0  0  0  0  0  0  0  0  0  0  0  0
  186.1810  177.9890  145.8360 C   0  0  0  0  0  0  0  0  0  0  0  0
  186.2510  178.0790  144.4080 C   0  0  0  0  0  0  0  0  0  0  0  0
  187.3240  177.5100  146.3090 C   0  0  0  0  0  3  0  0  0  0  0  0
  184.9590  178.4020  146.5920 C   0  0  0  0  0  3  0  0  0  0  0  0
  185.2490  178.5460  143.6700 C   0  0  0  0  0  3  0  0  0  0  0  0
  184.0220  178.9800  144.3740 C   0  0  0  0  0  3  0  0  0  0  0  0
  188.2160  177.2660  145.1520 C   0  0  0  0  0  2  0  0  0  0  0  0
  3  9  1  0  0  0  0
  3  6  2  0  0  0  0
  4 10  1  1  0  0  0
  4  5  1  0  0  0  0
  4  8  1  0  0  0  0
  5  2  2  0  0  0  0
  5  7  1  0  0  0  0
  6  1  1  0  0  0  0
  7 17  1  0  0  0  0
  8  1  1  6  0  0  0
  8  7  1  0  0  0  0
  9 10  2  0  0  0  0
 10 24  1  0  0  0  0
 11 16  1  0  0  0  0
 12 11  2  0  0  0  0
 12 13  1  0  0  0  0
 13 15  2  0  0  0  0
 15 14  1  0  0  0  0
 16  9  1  0  0  0  0
 16 14  2  0  0  0  0
 18 17  1  0  0  0  0
 20 19  1  0  0  0  0
 20 18  1  0  0  0  0
 21 20  2  0  0  0  0
 22 23  1  0  0  0  0
 23 19  1  0  0  0  0
 24 25  1  0  0  0  0
 26 27  1  6  0  0  0
 26 25  1  0  0  0  0
 26 28  1  0  0  0  0
 28 30  1  0  0  0  0
 29 31  1  0  0  0  0
 30 29  3  0  0  0  0
 31 34  2  0  0  0  0
 31 39  1  0  0  0  0
 32 36  2  0  0  0  0
 33 35  2  0  0  0  0
 33 36  1  0  0  0  0
 34 33  1  0  0  0  0
 37 38  2  0  0  0  0
 37 34  1  0  0  0  0
 38 32  1  0  0  0  0
 39 35  1  0  0  0  0
M  END
>  <MODEL>
2

>  <REMARK>
 VINA RESULT:      -8.6      2.528      6.872
  Name = 
  11 active torsions:
  status: ('A' for Active; 'I' for Inactive)
    1  A    between atoms: C_1  and  C_5
    2  A    between atoms: N_7  and  C_26
    3  A    between atoms: C_8  and  C_15
    4  A    between atoms: C_8  and  O_17
    5  A    between atoms: C_10  and  C_38
    6  A    between atoms: C_15  and  C_19
    7  A    between atoms: O_17  and  O_37
    8  A    between atoms: C_24  and  N_30
    9  A    between atoms: C_24  and  C_38
   10  A    between atoms: C_32  and  C_34
   11  A    between atoms: C_35  and  O_37
                            x       y       z     vdW  Elec       q    Type
                         _______ _______ _______ _____ _____    ______ ____

>  <TORSDO>
F 11

$$$$
=
 OpenBabel10222420443D

 39 43  0  0  1  0  0  0  0  0999 V2000
  183.3830  176.2970  137.3130 O   0  0  0  0  0  0  0  0  0  0  0  0
  184.0820  180.1450  139.2920 O   0  0  0  0  0  0  0  0  0  0  0  0
  185.4280  176.0350  135.9770 C   0  0  0  0  0  3  0  0  0  0  0  0
  184.6100  178.1700  137.7560 C   0  0  2  0  0  3  0  0  0  0  0  0
  184.0030  178.9610  138.8720 C   0  0  0  0  0  0  0  0  0  0  0  0
  184.1220  175.7860  136.2300 C   0  0  0  0  0  3  0  0  0  0  0  0
  183.1650  177.7870  139.1970 N   0  0  0  0  0  0  0  0  0  0  0  0
  184.0360  177.0150  138.3400 C   0  0  1  0  0  3  0  0  0  0  0  0
  186.4230  176.9080  136.7040 C   0  0  0  0  0  0  0  0  0  0  0  0
  186.0660  177.8680  137.6010 C   0  0  0  0  0  0  0  0  0  0  0  0
  188.4760  177.4330  135.3720 C   0  0  0  0  0  3  0  0  0  0  0  0
  189.7940  177.2440  135.1000 N   0  0  0  0  0  0  0  0  0  0  0  0
  190.5200  176.3490  135.7690 N   0  0  0  0  0  0  0  0  0  0  0  0
  188.6290  175.7400  137.0700 C   0  0  0  0  0  3  0  0  0  0  0  0
  189.9740  175.5870  136.7530 C   0  0  0  0  0  3  0  0  0  0  0  0
  187.8530  176.6710  136.3680 C   0  0  0  0  0  0  0  0  0  0  0  0
  182.0950  177.5070  140.1410 C   0  0  0  0  0  2  0  0  0  0  0  0
  181.1670  178.7080  140.2690 C   0  0  0  0  0  2  0  0  0  0  0  0
  182.0440  178.6740  142.6390 N   0  0  0  0  0  2  0  0  0  0  0  0
  181.1290  179.2050  141.6770 C   0  0  0  0  0  0  0  0  0  0  0  0
  180.3380  180.1800  141.9870 N   0  0  0  0  0  2  0  0  0  0  0  0
  183.6940  179.1670  144.3600 C   0  0  0  0  0  1  0  0  0  0  0  0
  182.2350  179.2640  143.9550 C   0  0  0  0  0  2  0  0  0  0  0  0
  187.0480  178.5420  138.3360 O   0  0  0  0  0  0  0  0  0  0  0  0
  187.1940  178.3730  139.6560 O   0  0  0  0  0  0  0  0  0  0  0  0
  188.5580  178.5600  139.8860 C   0  0  2  0  0  3  0  0  0  0  0  0
  189.1730  178.9830  138.7090 O   0  0  0  0  0  1  0  0  0  0  0  0
  189.1920  177.2560  140.3370 C   0  0  0  0  0  2  0  0  0  0  0  0
  189.4670  177.2070  142.9940 C   0  0  0  0  0  0  0  0  0  0  0  0
  189.3390  177.2230  141.7950 C   0  0  0  0  0  0  0  0  0  0  0  0
  189.6230  177.1930  144.4230 C   0  0  0  0  0  0  0  0  0  0  0  0
  187.1050  178.0270  147.6920 N   0  0  0  0  0  0  0  0  0  0  0  0
  189.2420  177.3720  146.6850 C   0  0  0  0  0  0  0  0  0  0  0  0
  188.6080  177.5040  145.4070 C   0  0  1  0  0  3  0  0  0  0  0  0
  190.5100  177.0180  146.5190 C   0  0  0  0  0  3  0  0  0  0  0  0
  188.5020  177.6240  147.9600 C   0  0  0  0  0  3  0  0  0  0  0  0
  187.3370  177.8690  145.2720 C   0  0  0  0  0  3  0  0  0  0  0  0
  186.5660  178.1410  146.5060 C   0  0  0  0  0  3  0  0  0  0  0  0
  190.7530  176.9060  145.0630 C   0  0  0  0  0  3  0  0  0  0  0  0
  3  6  2  0  0  0  0
  3  9  1  0  0  0  0
  4 10  1  1  0  0  0
  4  8  1  0  0  0  0
  4  5  1  0  0  0  0
  5  7  1  0  0  0  0
  5  2  2  0  0  0  0
  6  1  1  0  0  0  0
  7 17  1  0  0  0  0
  8  1  1  6  0  0  0
  8  7  1  0  0  0  0
  9 10  2  0  0  0  0
 10 24  1  0  0  0  0
 11 16  1  0  0  0  0
 12 11  2  0  0  0  0
 12 13  1  0  0  0  0
 13 15  2  0  0  0  0
 15 14  1  0  0  0  0
 16  9  1  0  0  0  0
 16 14  2  0  0  0  0
 17 18  1  0  0  0  0
 18 20  1  0  0  0  0
 19 23  1  0  0  0  0
 20 21  2  0  0  0  0
 20 19  1  0  0  0  0
 23 22  1  0  0  0  0
 24 25  1  0  0  0  0
 25 26  1  0  0  0  0
 26 27  1  6  0  0  0
 26 28  1  0  0  0  0
 28 30  1  0  0  0  0
 29 31  1  0  0  0  0
 30 29  3  0  0  0  0
 31 39  2  0  0  0  0
 31 34  1  0  0  0  0
 32 36  2  0  0  0  0
 33 36  1  0  0  0  0
 34 37  1  6  0  0  0
 34 33  1  0  0  0  0
 35 33  2  0  0  0  0
 37 38  2  0  0  0  0
 38 32  1  0  0  0  0
 39 35  1  0  0  0  0
M  END
>  <MODEL>
3

>  <REMARK>
 VINA RESULT:      -8.5      2.141      6.379
  Name = 
  11 active torsions:
  status: ('A' for Active; 'I' for Inactive)
    1  A    between atoms: C_1  and  C_5
    2  A    between atoms: N_7  and  C_26
    3  A    between atoms: C_8  and  C_15
    4  A    between atoms: C_8  and  O_17
    5  A    between atoms: C_10  and  C_38
    6  A    between atoms: C_15  and  C_19
    7  A    between atoms: O_17  and  O_37
    8  A    between atoms: C_24  and  N_30
    9  A    between atoms: C_24  and  C_38
   10  A    between atoms: C_32  and  C_34
   11  A    between atoms: C_35  and  O_37
                            x       y       z     vdW  Elec       q    Type
                         _______ _______ _______ _____ _____    ______ ____

>  <TORSDO>
F 11

$$$$
=
 OpenBabel10222420443D

 39 43  0  0  1  0  0  0  0  0999 V2000
  187.5450  178.6180  137.9610 O   0  0  0  0  0  0  0  0  0  0  0  0
  188.4670  178.9230  142.2360 O   0  0  0  0  0  0  0  0  0  0  0  0
  189.6710  177.7990  137.0420 C   0  0  0  0  0  3  0  0  0  0  0  0
  188.9280  178.4340  139.7690 C   0  0  2  0  0  3  0  0  0  0  0  0
  188.1740  178.6340  141.0460 C   0  0  0  0  0  0  0  0  0  0  0  0
  188.4860  178.4450  136.9300 C   0  0  0  0  0  3  0  0  0  0  0  0
  186.9170  178.4710  140.2850 N   0  0  0  0  0  0  0  0  0  0  0  0
  187.7210  177.9590  139.1990 C   0  0  1  0  0  3  0  0  0  0  0  0
  190.3250  177.1410  138.2330 C   0  0  0  0  0  0  0  0  0  0  0  0
  189.9430  177.3670  139.5190 C   0  0  0  0  0  0  0  0  0  0  0  0
  192.7750  176.6420  138.1000 C   0  0  0  0  0  3  0  0  0  0  0  0
  193.7980  175.7830  137.8570 N   0  0  0  0  0  0  0  0  0  0  0  0
  193.5750  174.5320  137.4540 N   0  0  0  0  0  0  0  0  0  0  0  0
  191.2290  174.9010  137.5070 C   0  0  0  0  0  3  0  0  0  0  0  0
  192.3130  174.0610  137.2720 C   0  0  0  0  0  3  0  0  0  0  0  0
  191.4510  176.2200  137.9200 C   0  0  0  0  0  0  0  0  0  0  0  0
  185.4990  178.5670  140.5950 C   0  0  0  0  0  2  0  0  0  0  0  0
  184.7740  179.3850  139.5350 C   0  0  0  0  0  2  0  0  0  0  0  0
  182.3970  178.8260  138.8860 N   0  0  0  0  0  2  0  0  0  0  0  0
  183.7950  178.5430  138.7860 C   0  0  0  0  0  0  0  0  0  0  0  0
  184.2270  177.6310  137.9770 N   0  0  0  0  0  2  0  0  0  0  0  0
  180.5340  177.2600  138.8090 C   0  0  0  0  0  1  0  0  0  0  0  0
  181.4050  178.2160  138.0150 C   0  0  0  0  0  2  0  0  0  0  0  0
  190.5050  176.6170  140.5600 O   0  0  0  0  0  0  0  0  0  0  0  0
  191.0170  177.1890  141.6560 O   0  0  0  0  0  0  0  0  0  0  0  0
  191.2440  176.1270  142.5340 C   0  0  2  0  0  3  0  0  0  0  0  0
  190.0660  175.4000  142.6980 O   0  0  0  0  0  1  0  0  0  0  0  0
  191.6940  176.6540  143.8840 C   0  0  0  0  0  2  0  0  0  0  0  0
  189.5970  177.3480  145.3880 C   0  0  0  0  0  0  0  0  0  0  0  0
  190.5420  177.0400  144.7040 C   0  0  0  0  0  0  0  0  0  0  0  0
  188.4720  177.7090  146.2060 C   0  0  0  0  0  0  0  0  0  0  0  0
  184.4190  178.5760  145.4640 N   0  0  0  0  0  0  0  0  0  0  0  0
  186.3680  178.3010  146.9250 C   0  0  0  0  0  0  0  0  0  0  0  0
  187.1180  177.9570  145.7550 C   0  0  0  0  0  0  0  0  0  0  0  0
  187.1610  178.2700  147.9890 C   0  0  0  0  0  3  0  0  0  0  0  0
  184.9120  178.6340  146.8570 C   0  0  0  0  0  3  0  0  0  0  0  0
  186.5780  177.9260  144.5410 C   0  0  0  0  0  3  0  0  0  0  0  0
  185.1420  178.2620  144.4200 C   0  0  0  0  0  3  0  0  0  0  0  0
  188.5140  177.8920  147.5220 C   0  0  0  0  0  2  0  0  0  0  0  0
  3  9  1  0  0  0  0
  4 10  1  1  0  0  0
  4  5  1  0  0  0  0
  5  2  2  0  0  0  0
  6  3  2  0  0  0  0
  6  1  1  0  0  0  0
  7 17  1  0  0  0  0
  7  5  1  0  0  0  0
  8  1  1  6  0  0  0
  8  4  1  0  0  0  0
  8  7  1  0  0  0  0
  9 10  2  0  0  0  0
 10 24  1  0  0  0  0
 12 11  2  0  0  0  0
 13 12  1  0  0  0  0
 14 16  2  0  0  0  0
 15 13  2  0  0  0  0
 15 14  1  0  0  0  0
 16 11  1  0  0  0  0
 16  9  1  0  0  0  0
 18 17  1  0  0  0  0
 20 19  1  0  0  0  0
 20 18  1  0  0  0  0
 21 20  2  0  0  0  0
 23 22  1  0  0  0  0
 23 19  1  0  0  0  0
 24 25  1  0  0  0  0
 25 26  1  0  0  0  0
 26 27  1  1  0  0  0
 26 28  1  0  0  0  0
 28 30  1  0  0  0  0
 29 31  1  0  0  0  0
 30 29  3  0  0  0  0
 31 39  1  0  0  0  0
 32 36  2  0  0  0  0
 33 35  2  0  0  0  0
 34 31  2  0  0  0  0
 34 33  1  0  0  0  0
 36 33  1  0  0  0  0
 37 34  1  0  0  0  0
 38 37  2  0  0  0  0
 38 32  1  0  0  0  0
 39 35  1  0  0  0  0
M  END
>  <MODEL>
4

>  <REMARK>
 VINA RESULT:      -8.4      2.353      7.200
  Name = 
  11 active torsions:
  status: ('A' for Active; 'I' for Inactive)
    1  A    between atoms: C_1  and  C_5
    2  A    between atoms: N_7  and  C_26
    3  A    between atoms: C_8  and  C_15
    4  A    between atoms: C_8  and  O_17
    5  A    between atoms: C_10  and  C_38
    6  A    between atoms: C_15  and  C_19
    7  A    between atoms: O_17  and  O_37
    8  A    between atoms: C_24  and  N_30
    9  A    between atoms: C_24  and  C_38
   10  A    between atoms: C_32  and  C_34
   11  A    between atoms: C_35  and  O_37
                            x       y       z     vdW  Elec       q    Type
                         _______ _______ _______ _____ _____    ______ ____

>  <TORSDO>
F 11

$$$$
=
 OpenBabel10222420443D

 39 43  0  0  1  0  0  0  0  0999 V2000
  185.8150  178.2600  145.1750 O   0  0  0  0  0  0  0  0  0  0  0  0
  187.0650  178.6290  140.9890 O   0  0  0  0  0  0  0  0  0  0  0  0
  183.4760  179.0040  145.0720 C   0  0  0  0  0  3  0  0  0  0  0  0
  185.4650  178.7750  142.9780 C   0  0  2  0  0  3  0  0  0  0  0  0
  186.6210  178.3430  142.1320 C   0  0  0  0  0  0  0  0  0  0  0  0
  184.6420  178.8010  145.7300 C   0  0  0  0  0  3  0  0  0  0  0  0
  187.0980  177.5260  143.2680 N   0  0  0  0  0  0  0  0  0  0  0  0
  185.7970  177.7240  143.8670 C   0  0  1  0  0  3  0  0  0  0  0  0
  183.1060  178.7650  143.6280 C   0  0  0  0  0  0  0  0  0  0  0  0
  184.0220  178.5800  142.6390 C   0  0  0  0  0  0  0  0  0  0  0  0
  180.7940  177.8880  144.0170 C   0  0  0  0  0  3  0  0  0  0  0  0
  179.4580  177.9180  143.7740 N   0  0  0  0  0  0  0  0  0  0  0  0
  178.9310  178.7690  142.8940 N   0  0  0  0  0  0  0  0  0  0  0  0
  181.0820  179.6550  142.4150 C   0  0  0  0  0  3  0  0  0  0  0  0
  179.7070  179.6440  142.2030 C   0  0  0  0  0  3  0  0  0  0  0  0
  181.6490  178.7590  143.3300 C   0  0  0  0  0  0  0  0  0  0  0  0
  188.2690  176.7060  143.5350 C   0  0  0  0  0  2  0  0  0  0  0  0
  189.3880  177.5490  144.1330 C   0  0  0  0  0  2  0  0  0  0  0  0
  190.9990  176.8660  145.9560 N   0  0  0  0  0  2  0  0  0  0  0  0
  189.6590  177.1520  145.5460 C   0  0  0  0  0  0  0  0  0  0  0  0
  188.6950  177.1680  146.4090 N   0  0  0  0  0  2  0  0  0  0  0  0
  192.4290  175.6180  147.4800 C   0  0  0  0  0  1  0  0  0  0  0  0
  191.3810  176.7080  147.3500 C   0  0  0  0  0  2  0  0  0  0  0  0
  183.6030  178.2260  141.3500 O   0  0  0  0  0  0  0  0  0  0  0  0
  183.1590  179.1320  140.4710 O   0  0  0  0  0  0  0  0  0  0  0  0
  184.2160  179.2990  139.5740 C   0  0  2  0  0  3  0  0  0  0  0  0
  184.1620  180.5790  139.0260 O   0  0  0  0  0  1  0  0  0  0  0  0
  184.1150  178.2770  138.4560 C   0  0  0  0  0  2  0  0  0  0  0  0
  186.5430  177.5820  137.5830 C   0  0  0  0  0  0  0  0  0  0  0  0
  185.4460  177.9000  137.9710 C   0  0  0  0  0  0  0  0  0  0  0  0
  187.8520  177.2000  137.1270 C   0  0  0  0  0  0  0  0  0  0  0  0
  191.5700  176.5410  138.9870 N   0  0  0  0  0  0  0  0  0  0  0  0
  190.0850  176.6540  137.0400 C   0  0  0  0  0  0  0  0  0  0  0  0
  189.0300  177.0040  137.9440 C   0  0  0  0  0  0  0  0  0  0  0  0
  189.6190  176.6320  135.7980 C   0  0  0  0  0  3  0  0  0  0  0  0
  191.4740  176.3780  137.5210 C   0  0  0  0  0  2  0  0  0  0  0  0
  189.2180  177.1200  139.2550 C   0  0  0  0  0  3  0  0  0  0  0  0
  190.5800  176.8680  139.7770 C   0  0  0  0  0  3  0  0  0  0  0  0
  188.1830  176.9870  135.8570 C   0  0  0  0  0  3  0  0  0  0  0  0
  1  6  1  0  0  0  0
  2  5  2  0  0  0  0
  3  6  2  0  0  0  0
  4  5  1  6  0  0  0
  4  8  1  0  0  0  0
  5  7  1  0  0  0  0
  7 17  1  0  0  0  0
  7  8  1  0  0  0  0
  8  1  1  1  0  0  0
  9  3  1  0  0  0  0
 10  4  1  0  0  0  0
 10  9  2  0  0  0  0
 12 11  1  0  0  0  0
 13 12  2  0  0  0  0
 14 16  1  0  0  0  0
 15 14  2  0  0  0  0
 15 13  1  0  0  0  0
 16  9  1  0  0  0  0
 16 11  2  0  0  0  0
 17 18  1  0  0  0  0
 18 20  1  0  0  0  0
 19 23  1  0  0  0  0
 20 19  1  0  0  0  0
 20 21  2  0  0  0  0
 23 22  1  0  0  0  0
 24 10  1  0  0  0  0
 25 24  1  0  0  0  0
 26 27  1  6  0  0  0
 26 25  1  0  0  0  0
 28 26  1  0  0  0  0
 29 30  3  0  0  0  0
 30 28  1  0  0  0  0
 31 29  1  0  0  0  0
 31 34  1  0  0  0  0
 32 38  2  0  0  0  0
 33 36  1  0  0  0  0
 33 34  1  0  0  0  0
 34 37  2  0  0  0  0
 35 39  1  0  0  0  0
 35 33  2  0  0  0  0
 36 32  1  0  0  0  0
 37 38  1  0  0  0  0
 39 31  2  0  0  0  0
M  END
>  <MODEL>
5

>  <REMARK>
 VINA RESULT:      -8.4      2.152      6.658
  Name = 
  11 active torsions:
  status: ('A' for Active; 'I' for Inactive)
    1  A    between atoms: C_1  and  C_5
    2  A    between atoms: N_7  and  C_26
    3  A    between atoms: C_8  and  C_15
    4  A    between atoms: C_8  and  O_17
    5  A    between atoms: C_10  and  C_38
    6  A    between atoms: C_15  and  C_19
    7  A    between atoms: O_17  and  O_37
    8  A    between atoms: C_24  and  N_30
    9  A    between atoms: C_24  and  C_38
   10  A    between atoms: C_32  and  C_34
   11  A    between atoms: C_35  and  O_37
                            x       y       z     vdW  Elec       q    Type
                         _______ _______ _______ _____ _____    ______ ____

>  <TORSDO>
F 11

$$$$
=
 OpenBabel10222420443D

 39 43  0  0  1  0  0  0  0  0999 V2000
  190.7200  177.5110  140.5020 O   0  0  0  0  0  0  0  0  0  0  0  0
  186.6610  178.9760  141.2780 O   0  0  0  0  0  0  0  0  0  0  0  0
  191.6810  177.4640  142.7620 C   0  0  0  0  0  3  0  0  0  0  0  0
  189.0430  178.2530  141.8630 C   0  0  2  0  0  3  0  0  0  0  0  0
  187.7530  178.3700  141.1140 C   0  0  0  0  0  0  0  0  0  0  0  0
  191.7890  177.5400  141.4140 C   0  0  0  0  0  3  0  0  0  0  0  0
  188.3560  177.5700  140.0260 N   0  0  0  0  0  0  0  0  0  0  0  0
  189.4110  177.2310  140.9540 C   0  0  1  0  0  3  0  0  0  0  0  0
  190.4630  177.3680  143.6480 C   0  0  0  0  0  0  0  0  0  0  0  0
  189.2030  177.6620  143.2270 C   0  0  0  0  0  0  0  0  0  0  0  0
  191.7210  176.0040  145.3280 C   0  0  0  0  0  3  0  0  0  0  0  0
  191.9820  175.6520  146.6140 N   0  0  0  0  0  0  0  0  0  0  0  0
  191.3060  176.1860  147.6310 N   0  0  0  0  0  0  0  0  0  0  0  0
  190.0230  177.5030  146.1280 C   0  0  0  0  0  3  0  0  0  0  0  0
  190.3290  177.1080  147.4260 C   0  0  0  0  0  3  0  0  0  0  0  0
  190.7190  176.9420  145.0500 C   0  0  0  0  0  0  0  0  0  0  0  0
  187.9370  177.1410  138.7020 C   0  0  0  0  0  2  0  0  0  0  0  0
  188.3760  178.1490  137.6480 C   0  0  0  0  0  2  0  0  0  0  0  0
  190.4470  176.7370  137.3300 N   0  0  0  0  0  2  0  0  0  0  0  0
  189.4330  177.5720  136.7650 C   0  0  0  0  0  0  0  0  0  0  0  0
  189.3620  177.7510  135.4860 N   0  0  0  0  0  2  0  0  0  0  0  0
  192.7680  176.0490  137.0770 C   0  0  0  0  0  1  0  0  0  0  0  0
  191.3620  175.9490  136.5180 C   0  0  0  0  0  2  0  0  0  0  0  0
  188.1070  177.4180  144.0640 O   0  0  0  0  0  0  0  0  0  0  0  0
  187.2120  178.3670  144.3630 O   0  0  0  0  0  0  0  0  0  0  0  0
  186.8230  178.0830  145.6730 C   0  0  2  0  0  3  0  0  0  0  0  0
  186.3540  176.7720  145.7440 O   0  0  0  0  0  1  0  0  0  0  0  0
  185.7170  179.0290  146.1040 C   0  0  0  0  0  2  0  0  0  0  0  0
  183.6190  178.8760  144.4560 C   0  0  0  0  0  0  0  0  0  0  0  0
  184.5710  178.9430  145.1950 C   0  0  0  0  0  0  0  0  0  0  0  0
  182.4820  178.7980  143.5810 C   0  0  0  0  0  0  0  0  0  0  0  0
  181.9580  178.3650  139.4260 N   0  0  0  0  0  0  0  0  0  0  0  0
  181.1380  178.6300  141.7210 C   0  0  0  0  0  0  0  0  0  0  0  0
  182.5070  178.6280  142.1430 C   0  0  0  0  0  0  0  0  0  0  0  0
  180.3460  178.7830  142.7740 C   0  0  0  0  0  3  0  0  0  0  0  0
  180.7590  178.4820  140.2820 C   0  0  0  0  0  3  0  0  0  0  0  0
  183.5200  178.5100  141.2910 C   0  0  0  0  0  3  0  0  0  0  0  0
  183.1950  178.3730  139.8530 C   0  0  0  0  0  3  0  0  0  0  0  0
  181.2140  178.8940  143.9690 C   0  0  0  0  0  2  0  0  0  0  0  0
  1  6  1  0  0  0  0
  3  9  1  0  0  0  0
  4  5  1  6  0  0  0
  4 10  1  0  0  0  0
  5  2  2  0  0  0  0
  6  3  2  0  0  0  0
  7  8  1  0  0  0  0
  7  5  1  0  0  0  0
  8  1  1  6  0  0  0
  8  4  1  0  0  0  0
  9 16  1  0  0  0  0
 10  9  2  0  0  0  0
 10 24  1  0  0  0  0
 11 12  1  0  0  0  0
 12 13  2  0  0  0  0
 14 15  2  0  0  0  0
 15 13  1  0  0  0  0
 16 11  2  0  0  0  0
 16 14  1  0  0  0  0
 17  7  1  0  0  0  0
 18 17  1  0  0  0  0
 20 19  1  0  0  0  0
 20 18  1  0  0  0  0
 21 20  2  0  0  0  0
 23 22  1  0  0  0  0
 23 19  1  0  0  0  0
 24 25  1  0  0  0  0
 25 26  1  0  0  0  0
 26 27  1  6  0  0  0
 26 28  1  0  0  0  0
 29 30  3  0  0  0  0
 30 28  1  0  0  0  0
 31 39  1  0  0  0  0
 31 29  1  0  0  0  0
 32 38  1  0  0  0  0
 32 36  2  0  0  0  0
 33 34  1  0  0  0  0
 33 35  2  0  0  0  0
 34 31  2  0  0  0  0
 35 39  1  0  0  0  0
 36 33  1  0  0  0  0
 37 34  1  0  0  0  0
 38 37  2  0  0  0  0
M  END
>  <MODEL>
6

>  <REMARK>
 VINA RESULT:      -8.2      2.110      7.612
  Name = 
  11 active torsions:
  status: ('A' for Active; 'I' for Inactive)
    1  A    between atoms: C_1  and  C_5
    2  A    between atoms: N_7  and  C_26
    3  A    between atoms: C_8  and  C_15
    4  A    between atoms: C_8  and  O_17
    5  A    between atoms: C_10  and  C_38
    6  A    between atoms: C_15  and  C_19
    7  A    between atoms: O_17  and  O_37
    8  A    between atoms: C_24  and  N_30
    9  A    between atoms: C_24  and  C_38
   10  A    between atoms: C_32  and  C_34
   11  A    between atoms: C_35  and  O_37
                            x       y       z     vdW  Elec       q    Type
                         _______ _______ _______ _____ _____    ______ ____

>  <TORSDO>
F 11

$$$$
=
 OpenBabel10222420443D

 39 43  0  0  1  0  0  0  0  0999 V2000
  191.0100  177.4520  140.5540 O   0  0  0  0  0  0  0  0  0  0  0  0
  186.8790  178.8100  141.1160 O   0  0  0  0  0  0  0  0  0  0  0  0
  191.8610  177.4560  142.8590 C   0  0  0  0  0  3  0  0  0  0  0  0
  189.2490  178.1610  141.8240 C   0  0  2  0  0  3  0  0  0  0  0  0
  187.9940  178.2340  141.0120 C   0  0  0  0  0  0  0  0  0  0  0  0
  192.0330  177.5210  141.5170 C   0  0  0  0  0  3  0  0  0  0  0  0
  188.6710  177.4390  139.9640 N   0  0  0  0  0  0  0  0  0  0  0  0
  189.6890  177.1400  140.9460 C   0  0  1  0  0  3  0  0  0  0  0  0
  190.6040  177.3350  143.6860 C   0  0  0  0  0  0  0  0  0  0  0  0
  189.3580  177.5890  143.2000 C   0  0  0  0  0  0  0  0  0  0  0  0
  191.8000  176.0050  145.4380 C   0  0  0  0  0  3  0  0  0  0  0  0
  192.0080  175.6730  146.7380 N   0  0  0  0  0  0  0  0  0  0  0  0
  191.2860  176.2170  147.7180 N   0  0  0  0  0  0  0  0  0  0  0  0
  190.0580  177.5030  146.1430 C   0  0  0  0  0  3  0  0  0  0  0  0
  190.3120  177.1280  147.4580 C   0  0  0  0  0  3  0  0  0  0  0  0
  190.8030  176.9310  145.1040 C   0  0  0  0  0  0  0  0  0  0  0  0
  188.3290  176.9850  138.6260 C   0  0  0  0  0  2  0  0  0  0  0  0
  187.9220  178.1610  137.7490 C   0  0  0  0  0  2  0  0  0  0  0  0
  185.9030  177.0980  136.6630 N   0  0  0  0  0  2  0  0  0  0  0  0
  186.4550  178.1390  137.4730 C   0  0  0  0  0  0  0  0  0  0  0  0
  185.6850  179.0030  138.0510 N   0  0  0  0  0  2  0  0  0  0  0  0
  184.1020  175.5550  137.2120 C   0  0  0  0  0  1  0  0  0  0  0  0
  184.4720  176.8660  136.5440 C   0  0  0  0  0  2  0  0  0  0  0  0
  188.2310  177.3230  143.9870 O   0  0  0  0  0  0  0  0  0  0  0  0
  187.3000  178.2520  144.2380 O   0  0  0  0  0  0  0  0  0  0  0  0
  186.9280  178.0260  145.5640 C   0  0  2  0  0  3  0  0  0  0  0  0
  186.3730  176.7530  145.6810 O   0  0  0  0  0  1  0  0  0  0  0  0
  185.9000  179.0560  145.9980 C   0  0  0  0  0  2  0  0  0  0  0  0
  183.7320  178.9380  144.4420 C   0  0  0  0  0  0  0  0  0  0  0  0
  184.7060  178.9930  145.1510 C   0  0  0  0  0  0  0  0  0  0  0  0
  182.5740  178.8700  143.5940 C   0  0  0  0  0  0  0  0  0  0  0  0
  181.9270  178.0520  139.5150 N   0  0  0  0  0  0  0  0  0  0  0  0
  181.1820  178.6280  141.7780 C   0  0  0  0  0  0  0  0  0  0  0  0
  182.5540  178.5490  142.1820 C   0  0  0  0  0  0  0  0  0  0  0  0
  180.4280  178.9600  142.8180 C   0  0  0  0  0  3  0  0  0  0  0  0
  180.7600  178.3640  140.3670 C   0  0  0  0  0  3  0  0  0  0  0  0
  183.5340  178.2530  141.3350 C   0  0  0  0  0  3  0  0  0  0  0  0
  183.1680  177.9950  139.9240 C   0  0  0  0  0  3  0  0  0  0  0  0
  181.3270  179.1180  143.9840 C   0  0  0  0  0  2  0  0  0  0  0  0
  1  6  1  0  0  0  0
  3  9  1  0  0  0  0
  4  5  1  6  0  0  0
  4 10  1  0  0  0  0
  5  2  2  0  0  0  0
  6  3  2  0  0  0  0
  7  8  1  0  0  0  0
  7  5  1  0  0  0  0
  8  1  1  6  0  0  0
  8  4  1  0  0  0  0
  9 16  1  0  0  0  0
 10  9  2  0  0  0  0
 10 24  1  0  0  0  0
 11 12  1  0  0  0  0
 12 13  2  0  0  0  0
 14 15  2  0  0  0  0
 15 13  1  0  0  0  0
 16 11  2  0  0  0  0
 16 14  1  0  0  0  0
 17  7  1  0  0  0  0
 18 17  1  0  0  0  0
 19 20  1  0  0  0  0
 20 18  1  0  0  0  0
 20 21  2  0  0  0  0
 23 19  1  0  0  0  0
 23 22  1  0  0  0  0
 24 25  1  0  0  0  0
 25 26  1  0  0  0  0
 26 27  1  6  0  0  0
 26 28  1  0  0  0  0
 29 30  3  0  0  0  0
 30 28  1  0  0  0  0
 31 39  1  0  0  0  0
 31 29  1  0  0  0  0
 32 38  1  0  0  0  0
 32 36  2  0  0  0  0
 33 34  1  0  0  0  0
 33 35  2  0  0  0  0
 34 31  2  0  0  0  0
 35 39  1  0  0  0  0
 36 33  1  0  0  0  0
 37 34  1  0  0  0  0
 38 37  2  0  0  0  0
M  END
>  <MODEL>
7

>  <REMARK>
 VINA RESULT:      -8.2      2.098      7.968
  Name = 
  11 active torsions:
  status: ('A' for Active; 'I' for Inactive)
    1  A    between atoms: C_1  and  C_5
    2  A    between atoms: N_7  and  C_26
    3  A    between atoms: C_8  and  C_15
    4  A    between atoms: C_8  and  O_17
    5  A    between atoms: C_10  and  C_38
    6  A    between atoms: C_15  and  C_19
    7  A    between atoms: O_17  and  O_37
    8  A    between atoms: C_24  and  N_30
    9  A    between atoms: C_24  and  C_38
   10  A    between atoms: C_32  and  C_34
   11  A    between atoms: C_35  and  O_37
                            x       y       z     vdW  Elec       q    Type
                         _______ _______ _______ _____ _____    ______ ____

>  <TORSDO>
F 11

$$$$
=
 OpenBabel10222420443D

 39 43  0  0  1  0  0  0  0  0999 V2000
  188.4510  176.7220  135.4760 O   0  0  0  0  0  0  0  0  0  0  0  0
  188.6090  179.1230  139.1400 O   0  0  0  0  0  0  0  0  0  0  0  0
  190.7750  175.9540  135.2740 C   0  0  0  0  0  3  0  0  0  0  0  0
  189.5240  177.6380  137.2710 C   0  0  2  0  0  3  0  0  0  0  0  0
  188.5510  178.2710  138.2150 C   0  0  0  0  0  0  0  0  0  0  0  0
  189.5640  176.2580  134.7520 C   0  0  0  0  0  3  0  0  0  0  0  0
  187.4630  177.5600  137.5110 N   0  0  0  0  0  0  0  0  0  0  0  0
  188.4870  176.7520  136.8880 C   0  0  1  0  0  3  0  0  0  0  0  0
  191.2880  176.0450  136.6910 C   0  0  0  0  0  0  0  0  0  0  0  0
  190.6750  176.7700  137.6660 C   0  0  0  0  0  0  0  0  0  0  0  0
  193.6400  175.9500  137.5430 C   0  0  0  0  0  3  0  0  0  0  0  0
  194.7670  175.2520  137.8380 N   0  0  0  0  0  0  0  0  0  0  0  0
  194.8550  173.9430  137.6030 N   0  0  0  0  0  0  0  0  0  0  0  0
  192.6440  173.9180  136.7370 C   0  0  0  0  0  3  0  0  0  0  0  0
  193.8210  173.2500  137.0580 C   0  0  0  0  0  3  0  0  0  0  0  0
  192.5430  175.2950  136.9710 C   0  0  0  0  0  0  0  0  0  0  0  0
  186.0120  177.5400  137.5980 C   0  0  0  0  0  2  0  0  0  0  0  0
  185.5360  178.3660  138.7860 C   0  0  0  0  0  2  0  0  0  0  0  0
  183.3130  179.5680  138.7610 N   0  0  0  0  0  2  0  0  0  0  0  0
  184.0460  178.3470  138.8870 C   0  0  0  0  0  0  0  0  0  0  0  0
  183.4290  177.2140  138.9860 N   0  0  0  0  0  2  0  0  0  0  0  0
  181.4030  181.0420  138.4380 C   0  0  0  0  0  1  0  0  0  0  0  0
  181.8670  179.6070  138.6090 C   0  0  0  0  0  2  0  0  0  0  0  0
  191.1320  176.6960  138.9880 O   0  0  0  0  0  0  0  0  0  0  0  0
  190.4820  176.0030  139.9300 O   0  0  0  0  0  0  0  0  0  0  0  0
  190.4810  176.8410  141.0460 C   0  0  2  0  0  3  0  0  0  0  0  0
  191.7060  177.5020  141.1300 O   0  0  0  0  0  1  0  0  0  0  0  0
  190.2700  176.0260  142.3090 C   0  0  0  0  0  2  0  0  0  0  0  0
  188.2650  177.0200  143.7690 C   0  0  0  0  0  0  0  0  0  0  0  0
  189.1740  176.5780  143.1100 C   0  0  0  0  0  0  0  0  0  0  0  0
  187.1790  177.5410  144.5520 C   0  0  0  0  0  0  0  0  0  0  0  0
  183.3410  179.0360  143.6820 N   0  0  0  0  0  0  0  0  0  0  0  0
  185.1660  178.4430  145.2070 C   0  0  0  0  0  0  0  0  0  0  0  0
  185.8980  178.0020  144.0580 C   0  0  0  0  0  0  0  0  0  0  0  0
  185.9040  178.2770  146.2970 C   0  0  0  0  0  3  0  0  0  0  0  0
  183.7830  179.0000  145.0920 C   0  0  0  0  0  3  0  0  0  0  0  0
  185.4070  178.0700  142.8250 C   0  0  0  0  0  3  0  0  0  0  0  0
  184.0450  178.6260  142.6590 C   0  0  0  0  0  3  0  0  0  0  0  0
  187.1990  177.6990  145.8720 C   0  0  0  0  0  2  0  0  0  0  0  0
  3  9  1  0  0  0  0
  4 10  1  1  0  0  0
  4  5  1  0  0  0  0
  5  2  2  0  0  0  0
  6  3  2  0  0  0  0
  6  1  1  0  0  0  0
  7 17  1  0  0  0  0
  7  5  1  0  0  0  0
  8  1  1  6  0  0  0
  8  4  1  0  0  0  0
  8  7  1  0  0  0  0
  9 16  1  0  0  0  0
  9 10  2  0  0  0  0
 10 24  1  0  0  0  0
 11 12  1  0  0  0  0
 13 12  2  0  0  0  0
 14 16  1  0  0  0  0
 14 15  2  0  0  0  0
 15 13  1  0  0  0  0
 16 11  2  0  0  0  0
 17 18  1  0  0  0  0
 18 20  1  0  0  0  0
 19 20  1  0  0  0  0
 20 21  2  0  0  0  0
 22 23  1  0  0  0  0
 23 19  1  0  0  0  0
 24 25  1  0  0  0  0
 25 26  1  0  0  0  0
 26 27  1  1  0  0  0
 26 28  1  0  0  0  0
 28 30  1  0  0  0  0
 29 31  1  0  0  0  0
 30 29  3  0  0  0  0
 31 39  1  0  0  0  0
 32 36  2  0  0  0  0
 33 35  2  0  0  0  0
 34 31  2  0  0  0  0
 34 33  1  0  0  0  0
 36 33  1  0  0  0  0
 37 34  1  0  0  0  0
 38 37  2  0  0  0  0
 38 32  1  0  0  0  0
 39 35  1  0  0  0  0
M  END
>  <MODEL>
8

>  <REMARK>
 VINA RESULT:      -8.2      2.733      7.783
  Name = 
  11 active torsions:
  status: ('A' for Active; 'I' for Inactive)
    1  A    between atoms: C_1  and  C_5
    2  A    between atoms: N_7  and  C_26
    3  A    between atoms: C_8  and  C_15
    4  A    between atoms: C_8  and  O_17
    5  A    between atoms: C_10  and  C_38
    6  A    between atoms: C_15  and  C_19
    7  A    between atoms: O_17  and  O_37
    8  A    between atoms: C_24  and  N_30
    9  A    between atoms: C_24  and  C_38
   10  A    between atoms: C_32  and  C_34
   11  A    between atoms: C_35  and  O_37
                            x       y       z     vdW  Elec       q    Type
                         _______ _______ _______ _____ _____    ______ ____

>  <TORSDO>
F 11

$$$$
=
 OpenBabel10222420443D

 39 43  0  0  1  0  0  0  0  0999 V2000
  182.9700  176.5050  137.8030 O   0  0  0  0  0  0  0  0  0  0  0  0
  184.2050  180.5080  139.0940 O   0  0  0  0  0  0  0  0  0  0  0  0
  184.8340  175.8450  136.3450 C   0  0  0  0  0  3  0  0  0  0  0  0
  184.3960  178.2880  137.8400 C   0  0  2  0  0  3  0  0  0  0  0  0
  183.9790  179.2900  138.8700 C   0  0  0  0  0  0  0  0  0  0  0  0
  183.5440  175.7700  136.7500 C   0  0  0  0  0  3  0  0  0  0  0  0
  183.0810  178.2670  139.4470 N   0  0  0  0  0  0  0  0  0  0  0  0
  183.7870  177.2940  138.6440 C   0  0  1  0  0  3  0  0  0  0  0  0
  185.9720  176.7080  136.8370 C   0  0  0  0  0  0  0  0  0  0  0  0
  185.7950  177.8190  137.6030 C   0  0  0  0  0  0  0  0  0  0  0  0
  188.0200  175.3010  137.1420 C   0  0  0  0  0  3  0  0  0  0  0  0
  189.2430  174.8820  136.7260 N   0  0  0  0  0  0  0  0  0  0  0  0
  189.8110  175.3770  135.6260 N   0  0  0  0  0  0  0  0  0  0  0  0
  187.9350  176.7860  135.2550 C   0  0  0  0  0  3  0  0  0  0  0  0
  189.1900  176.3220  134.8730 C   0  0  0  0  0  3  0  0  0  0  0  0
  187.3330  176.2800  136.4140 C   0  0  0  0  0  0  0  0  0  0  0  0
  182.0940  178.2380  140.5140 C   0  0  0  0  0  2  0  0  0  0  0  0
  180.7010  178.5130  139.9640 C   0  0  0  0  0  2  0  0  0  0  0  0
  180.1840  180.5620  138.5790 N   0  0  0  0  0  2  0  0  0  0  0  0
  180.4480  179.9800  139.8590 C   0  0  0  0  0  0  0  0  0  0  0  0
  180.3700  180.6920  140.9360 N   0  0  0  0  0  2  0  0  0  0  0  0
  180.7800  182.7920  137.8070 C   0  0  0  0  0  1  0  0  0  0  0  0
  179.6960  181.9230  138.4170 C   0  0  0  0  0  2  0  0  0  0  0  0
  186.9040  178.4890  138.1340 O   0  0  0  0  0  0  0  0  0  0  0  0
  187.1850  178.4780  139.4430 O   0  0  0  0  0  0  0  0  0  0  0  0
  188.5740  178.6050  139.5050 C   0  0  2  0  0  3  0  0  0  0  0  0
  189.1050  178.5290  138.2190 O   0  0  0  0  0  1  0  0  0  0  0  0
  189.1610  177.4910  140.3520 C   0  0  0  0  0  2  0  0  0  0  0  0
  188.1990  177.5900  142.8430 C   0  0  0  0  0  0  0  0  0  0  0  0
  188.6330  177.5380  141.7180 C   0  0  0  0  0  0  0  0  0  0  0  0
  187.6820  177.6580  144.1820 C   0  0  0  0  0  0  0  0  0  0  0  0
  189.3400  177.2320  148.0280 N   0  0  0  0  0  0  0  0  0  0  0  0
  187.4860  177.6270  146.4740 C   0  0  0  0  0  0  0  0  0  0  0  0
  188.4340  177.4950  145.4080 C   0  0  1  0  0  3  0  0  0  0  0  0
  186.2780  177.8490  145.9720 C   0  0  0  0  0  3  0  0  0  0  0  0
  187.8940  177.5110  147.9090 C   0  0  0  0  0  3  0  0  0  0  0  0
  189.7230  177.2490  145.6220 C   0  0  0  0  0  3  0  0  0  0  0  0
  190.1720  177.1130  147.0260 C   0  0  0  0  0  3  0  0  0  0  0  0
  186.4070  177.8650  144.4970 C   0  0  0  0  0  3  0  0  0  0  0  0
  3  6  2  0  0  0  0
  3  9  1  0  0  0  0
  4 10  1  1  0  0  0
  4  8  1  0  0  0  0
  4  5  1  0  0  0  0
  5  2  2  0  0  0  0
  5  7  1  0  0  0  0
  6  1  1  0  0  0  0
  7 17  1  0  0  0  0
  8  1  1  6  0  0  0
  8  7  1  0  0  0  0
  9 10  2  0  0  0  0
 10 24  1  0  0  0  0
 12 11  1  0  0  0  0
 13 12  2  0  0  0  0
 14 16  1  0  0  0  0
 15 14  2  0  0  0  0
 15 13  1  0  0  0  0
 16  9  1  0  0  0  0
 16 11  2  0  0  0  0
 18 17  1  0  0  0  0
 19 20  1  0  0  0  0
 20 18  1  0  0  0  0
 20 21  2  0  0  0  0
 22 23  1  0  0  0  0
 23 19  1  0  0  0  0
 24 25  1  0  0  0  0
 25 26  1  0  0  0  0
 26 27  1  6  0  0  0
 26 28  1  0  0  0  0
 28 30  1  0  0  0  0
 29 31  1  0  0  0  0
 30 29  3  0  0  0  0
 31 39  2  0  0  0  0
 31 34  1  0  0  0  0
 33 36  1  0  0  0  0
 34 37  1  6  0  0  0
 34 33  1  0  0  0  0
 35 33  2  0  0  0  0
 36 32  2  0  0  0  0
 37 38  2  0  0  0  0
 38 32  1  0  0  0  0
 39 35  1  0  0  0  0
M  END
>  <MODEL>
9

>  <REMARK>
 VINA RESULT:      -8.1      2.051      6.659
  Name = 
  11 active torsions:
  status: ('A' for Active; 'I' for Inactive)
    1  A    between atoms: C_1  and  C_5
    2  A    between atoms: N_7  and  C_26
    3  A    between atoms: C_8  and  C_15
    4  A    between atoms: C_8  and  O_17
    5  A    between atoms: C_10  and  C_38
    6  A    between atoms: C_15  and  C_19
    7  A    between atoms: O_17  and  O_37
    8  A    between atoms: C_24  and  N_30
    9  A    between atoms: C_24  and  C_38
   10  A    between atoms: C_32  and  C_34
   11  A    between atoms: C_35  and  O_37
                            x       y       z     vdW  Elec       q    Type
                         _______ _______ _______ _____ _____    ______ ____

>  <TORSDO>
F 11

$$$$
