=
 OpenBabel10222419533D

 37 40  0  0  1  0  0  0  0  0999 V2000
  190.1660  178.5030  143.4660 C   0  0  0  0  0  0  0  0  0  0  0  0
  189.4940  177.8820  144.5590 N   0  0  0  0  0  0  0  0  0  0  0  0
  189.2080  177.7220  146.0170 C   0  0  1  0  0  3  0  0  0  0  0  0
  190.9620  179.4530  143.6850 O   0  0  0  0  0  0  0  0  0  0  0  0
  188.5130  176.9190  145.1360 C   0  0  1  0  0  3  0  0  0  0  0  0
  190.8390  177.4990  141.3260 O   0  0  0  0  0  0  0  0  0  0  0  0
  188.7090  178.1210  141.4180 C   0  0  0  0  0  3  0  0  0  0  0  0
  188.2280  177.4110  139.2420 O   0  0  0  0  0  0  0  0  0  0  0  0
  190.3320  177.1940  140.1710 N   0  0  0  0  0  0  0  0  0  0  0  0
  189.9220  178.0460  142.0930 C   0  0  0  0  0  0  0  0  0  0  0  0
  189.0340  177.5580  140.2000 C   0  0  0  0  0  0  0  0  0  0  0  0
  191.1500  175.0340  137.2290 C   0  0  0  0  0  3  0  0  0  0  0  0
  192.4770  175.3940  136.9800 C   0  0  0  0  0  0  0  0  0  0  0  0
  193.3490  174.6570  135.6530 Cl  0  0  0  0  0  0  0  0  0  0  0  0
  193.1080  176.3400  137.7910 C   0  0  0  0  0  3  0  0  0  0  0  0
  192.4090  176.9320  138.8470 C   0  0  0  0  0  3  0  0  0  0  0  0
  191.0740  176.5810  139.1020 C   0  0  0  0  0  0  0  0  0  0  0  0
  190.4520  175.6260  138.2850 C   0  0  0  0  0  3  0  0  0  0  0  0
  190.0600  176.1030  147.5550 O   0  0  0  0  0  0  0  0  0  0  0  0
  191.6650  177.1510  146.2440 N   0  0  0  0  0  1  0  0  0  0  0  0
  190.3170  176.9580  146.6670 C   0  0  0  0  0  0  0  0  0  0  0  0
  187.1110  177.4640  144.9340 C   0  0  0  0  0  2  0  0  0  0  0  0
  186.6690  178.2650  146.1450 C   0  0  0  0  0  2  0  0  0  0  0  0
  185.5310  179.2010  145.7770 C   0  0  1  0  0  3  0  0  0  0  0  0
  184.5920  178.4880  144.9240 C   0  0  1  0  0  3  0  0  0  0  0  0
  184.2740  178.6920  146.3450 N   0  0  0  0  0  2  0  0  0  0  0  0
  183.8110  179.4750  144.0830 C   0  0  0  0  0  2  0  0  0  0  0  0
  183.7170  178.9600  142.6510 C   0  0  0  0  0  2  0  0  0  0  0  0
  182.2820  178.6340  142.2410 C   0  0  1  0  0  3  0  0  0  0  0  0
  181.2630  179.2820  143.1710 C   0  0  0  0  0  2  0  0  0  0  0  0
  180.6770  178.3140  143.9890 O   0  0  0  0  0  0  0  0  0  0  0  0
  179.5430  178.0210  143.3890 O   0  0  0  0  0  1  0  0  0  0  0  0
  181.9710  179.1280  140.5150 S   0  0  0  0  0  0  0  0  0  0  0  0
  183.1650  177.9620  139.8620 C   0  0  0  0  0  0  0  0  0  0  0  0
  183.0030  176.7660  140.0370 O   0  0  0  0  0  0  0  0  0  0  0  0
  184.4010  179.9130  139.1660 N   0  0  0  0  0  1  0  0  0  0  0  0
  184.3720  178.4600  139.1370 C   0  0  0  0  0  2  0  0  0  0  0  0
  1  4  2  0  0  0  0
  1  2  1  0  0  0  0
  2  5  1  0  0  0  0
  2  3  1  0  0  0  0
  3 21  1  1  0  0  0
  5 22  1  6  0  0  0
  5  3  1  0  0  0  0
  6 10  1  0  0  0  0
  7 10  2  0  0  0  0
  8 11  2  0  0  0  0
  9 11  1  0  0  0  0
  9  6  1  0  0  0  0
 10  1  1  0  0  0  0
 11  7  1  0  0  0  0
 12 18  1  0  0  0  0
 13 12  2  0  0  0  0
 13 15  1  0  0  0  0
 14 13  1  0  0  0  0
 15 16  2  0  0  0  0
 16 17  1  0  0  0  0
 17  9  1  0  0  0  0
 18 17  2  0  0  0  0
 20 21  1  0  0  0  0
 21 19  2  0  0  0  0
 22 23  1  0  0  0  0
 24 23  1  1  0  0  0
 24 26  1  0  0  0  0
 25 27  1  6  0  0  0
 25 24  1  0  0  0  0
 25 26  1  0  0  0  0
 28 27  1  0  0  0  0
 29 28  1  1  0  0  0
 29 30  1  0  0  0  0
 30 31  1  0  0  0  0
 32 31  1  0  0  0  0
 33 29  1  0  0  0  0
 34 35  2  0  0  0  0
 34 33  1  0  0  0  0
 37 36  1  0  0  0  0
 37 34  1  0  0  0  0
M  END
>  <MODEL>
1

>  <REMARK>
 VINA RESULT:      -8.0      0.000      0.000
  Name = 
  14 active torsions:
  status: ('A' for Active; 'I' for Inactive)
    1  A    between atoms: C_2  and  O_7
    2  A    between atoms: C_2  and  C_25
    3  A    between atoms: C_3  and  C_29
    4  A    between atoms: C_5  and  S_18
    5  A    between atoms: C_5  and  C_37
    6  A    between atoms: C_6  and  C_14
    7  A    between atoms: C_6  and  C_25
    8  A    between atoms: C_8  and  C_13
    9  A    between atoms: C_13  and  C_33
   10  A    between atoms: C_14  and  C_22
   11  A    between atoms: S_18  and  C_25
   12  A    between atoms: C_23  and  C_31
   13  A    between atoms: N_27  and  C_30
   14  A    between atoms: C_33  and  C_34
                            x       y       z     vdW  Elec       q    Type
                         _______ _______ _______ _____ _____    ______ ____

>  <TORSDO>
F 14

$$$$
=
 OpenBabel10222419533D

 37 40  0  0  1  0  0  0  0  0999 V2000
  190.2110  178.3750  143.3620 C   0  0  0  0  0  0  0  0  0  0  0  0
  189.2860  177.8660  144.3190 N   0  0  0  0  0  0  0  0  0  0  0  0
  188.6910  177.8220  145.6890 C   0  0  1  0  0  3  0  0  0  0  0  0
  191.0020  179.2970  143.6920 O   0  0  0  0  0  0  0  0  0  0  0  0
  188.1460  176.9950  144.7270 C   0  0  1  0  0  3  0  0  0  0  0  0
  189.3950  178.1990  141.0510 O   0  0  0  0  0  0  0  0  0  0  0  0
  191.1290  176.8920  141.5130 C   0  0  0  0  0  3  0  0  0  0  0  0
  191.2460  175.9910  139.3580 O   0  0  0  0  0  0  0  0  0  0  0  0
  189.6590  177.5620  139.9510 N   0  0  0  0  0  0  0  0  0  0  0  0
  190.2330  177.8380  141.9970 C   0  0  0  0  0  0  0  0  0  0  0  0
  190.7140  176.7600  140.2030 C   0  0  0  0  0  0  0  0  0  0  0  0
  188.3760  179.0800  136.7840 C   0  0  0  0  0  3  0  0  0  0  0  0
  187.5350  178.0700  136.3110 C   0  0  0  0  0  0  0  0  0  0  0  0
  186.6750  178.2810  134.8010 Cl  0  0  0  0  0  0  0  0  0  0  0  0
  187.3800  176.8900  137.0440 C   0  0  0  0  0  3  0  0  0  0  0  0
  188.0720  176.7200  138.2470 C   0  0  0  0  0  3  0  0  0  0  0  0
  188.9240  177.7280  138.7270 C   0  0  0  0  0  0  0  0  0  0  0  0
  189.0670  178.9090  137.9860 C   0  0  0  0  0  3  0  0  0  0  0  0
  189.1030  176.4230  147.5830 O   0  0  0  0  0  0  0  0  0  0  0  0
  190.9850  176.9690  146.3380 N   0  0  0  0  0  1  0  0  0  0  0  0
  189.5870  177.0490  146.6040 C   0  0  0  0  0  0  0  0  0  0  0  0
  186.8560  177.5950  144.1990 C   0  0  0  0  0  2  0  0  0  0  0  0
  185.9080  177.9130  145.3410 C   0  0  0  0  0  2  0  0  0  0  0  0
  184.9700  179.0430  144.9550 C   0  0  1  0  0  3  0  0  0  0  0  0
  183.6990  178.4760  144.5290 C   0  0  1  0  0  3  0  0  0  0  0  0
  183.8210  179.0620  145.8710 N   0  0  0  0  0  2  0  0  0  0  0  0
  182.9840  179.4470  143.6140 C   0  0  0  0  0  2  0  0  0  0  0  0
  182.2390  178.6720  142.5330 C   0  0  0  0  0  2  0  0  0  0  0  0
  182.7260  179.0170  141.1270 C   0  0  1  0  0  3  0  0  0  0  0  0
  184.1340  178.4950  140.8670 C   0  0  0  0  0  2  0  0  0  0  0  0
  184.9900  179.5540  140.5610 O   0  0  0  0  0  0  0  0  0  0  0  0
  184.5790  179.9770  139.3850 O   0  0  0  0  0  1  0  0  0  0  0  0
  181.5710  178.3870  139.8660 S   0  0  0  0  0  0  0  0  0  0  0  0
  180.6850  179.9400  139.7590 C   0  0  0  0  0  0  0  0  0  0  0  0
  181.1560  180.8650  139.1190 O   0  0  0  0  0  0  0  0  0  0  0  0
  179.5740  180.9810  141.6290 N   0  0  0  0  0  1  0  0  0  0  0  0
  179.3890  180.1090  140.4810 C   0  0  0  0  0  2  0  0  0  0  0  0
  1  4  2  0  0  0  0
  1  2  1  0  0  0  0
  2  5  1  0  0  0  0
  2  3  1  0  0  0  0
  3 21  1  1  0  0  0
  5 22  1  6  0  0  0
  5  3  1  0  0  0  0
  6 10  1  0  0  0  0
  7 10  2  0  0  0  0
  8 11  2  0  0  0  0
  9 11  1  0  0  0  0
  9  6  1  0  0  0  0
 10  1  1  0  0  0  0
 11  7  1  0  0  0  0
 12 18  1  0  0  0  0
 13 12  2  0  0  0  0
 13 15  1  0  0  0  0
 14 13  1  0  0  0  0
 15 16  2  0  0  0  0
 16 17  1  0  0  0  0
 17  9  1  0  0  0  0
 18 17  2  0  0  0  0
 20 21  1  0  0  0  0
 21 19  2  0  0  0  0
 22 23  1  0  0  0  0
 24 23  1  1  0  0  0
 24 26  1  0  0  0  0
 25 27  1  6  0  0  0
 25 24  1  0  0  0  0
 25 26  1  0  0  0  0
 28 27  1  0  0  0  0
 29 30  1  6  0  0  0
 29 28  1  0  0  0  0
 31 30  1  0  0  0  0
 32 31  1  0  0  0  0
 33 29  1  0  0  0  0
 34 33  1  0  0  0  0
 34 37  1  0  0  0  0
 35 34  2  0  0  0  0
 37 36  1  0  0  0  0
M  END
>  <MODEL>
2

>  <REMARK>
 VINA RESULT:      -7.9      2.561      3.319
  Name = 
  14 active torsions:
  status: ('A' for Active; 'I' for Inactive)
    1  A    between atoms: C_2  and  O_7
    2  A    between atoms: C_2  and  C_25
    3  A    between atoms: C_3  and  C_29
    4  A    between atoms: C_5  and  S_18
    5  A    between atoms: C_5  and  C_37
    6  A    between atoms: C_6  and  C_14
    7  A    between atoms: C_6  and  C_25
    8  A    between atoms: C_8  and  C_13
    9  A    between atoms: C_13  and  C_33
   10  A    between atoms: C_14  and  C_22
   11  A    between atoms: S_18  and  C_25
   12  A    between atoms: C_23  and  C_31
   13  A    between atoms: N_27  and  C_30
   14  A    between atoms: C_33  and  C_34
                            x       y       z     vdW  Elec       q    Type
                         _______ _______ _______ _____ _____    ______ ____

>  <TORSDO>
F 14

$$$$
=
 OpenBabel10222419533D

 37 40  0  0  1  0  0  0  0  0999 V2000
  190.0780  178.4930  143.3600 C   0  0  0  0  0  0  0  0  0  0  0  0
  189.2050  177.9760  144.3600 N   0  0  0  0  0  0  0  0  0  0  0  0
  188.6370  177.9650  145.7430 C   0  0  1  0  0  3  0  0  0  0  0  0
  190.8130  179.4800  143.6270 O   0  0  0  0  0  0  0  0  0  0  0  0
  188.1300  177.0570  144.8350 C   0  0  1  0  0  3  0  0  0  0  0  0
  189.3120  178.2380  141.0390 O   0  0  0  0  0  0  0  0  0  0  0  0
  190.9770  176.8840  141.6100 C   0  0  0  0  0  3  0  0  0  0  0  0
  191.1080  175.8740  139.5040 O   0  0  0  0  0  0  0  0  0  0  0  0
  189.5760  177.5370  139.9790 N   0  0  0  0  0  0  0  0  0  0  0  0
  190.1110  177.8900  142.0230 C   0  0  0  0  0  0  0  0  0  0  0  0
  190.5890  176.7050  140.2970 C   0  0  0  0  0  0  0  0  0  0  0  0
  187.3750  176.7430  137.0620 C   0  0  0  0  0  3  0  0  0  0  0  0
  187.4710  177.9190  136.3120 C   0  0  0  0  0  0  0  0  0  0  0  0
  186.5880  178.0730  134.8090 Cl  0  0  0  0  0  0  0  0  0  0  0  0
  188.2730  178.9700  136.7620 C   0  0  0  0  0  3  0  0  0  0  0  0
  188.9740  178.8480  137.9660 C   0  0  0  0  0  3  0  0  0  0  0  0
  188.8790  177.6730  138.7280 C   0  0  0  0  0  0  0  0  0  0  0  0
  188.0760  176.6230  138.2640 C   0  0  0  0  0  3  0  0  0  0  0  0
  190.4500  176.4860  146.2320 O   0  0  0  0  0  0  0  0  0  0  0  0
  189.5920  177.6270  148.0640 N   0  0  0  0  0  1  0  0  0  0  0  0
  189.5970  177.2990  146.6770 C   0  0  0  0  0  0  0  0  0  0  0  0
  186.7950  177.5460  144.3040 C   0  0  0  0  0  2  0  0  0  0  0  0
  186.0260  178.2810  145.3880 C   0  0  0  0  0  2  0  0  0  0  0  0
  184.9670  179.1780  144.7720 C   0  0  1  0  0  3  0  0  0  0  0  0
  183.8610  178.3530  144.3080 C   0  0  1  0  0  3  0  0  0  0  0  0
  183.7340  179.0990  145.5690 N   0  0  0  0  0  2  0  0  0  0  0  0
  183.1070  179.0750  143.2130 C   0  0  0  0  0  2  0  0  0  0  0  0
  183.6820  178.6830  141.8560 C   0  0  0  0  0  2  0  0  0  0  0  0
  182.5970  178.4610  140.8040 C   0  0  1  0  0  3  0  0  0  0  0  0
  181.2000  178.6850  141.3700 C   0  0  0  0  0  2  0  0  0  0  0  0
  180.6350  179.8330  140.8110 O   0  0  0  0  0  0  0  0  0  0  0  0
  180.1710  180.5050  141.8430 O   0  0  0  0  0  1  0  0  0  0  0  0
  182.8730  179.5250  139.3510 S   0  0  0  0  0  0  0  0  0  0  0  0
  184.2560  178.5450  138.7710 C   0  0  0  0  0  0  0  0  0  0  0  0
  185.3950  178.9530  138.9230 O   0  0  0  0  0  0  0  0  0  0  0  0
  183.2220  177.4740  136.8730 N   0  0  0  0  0  1  0  0  0  0  0  0
  184.0090  177.2470  138.0740 C   0  0  0  0  0  2  0  0  0  0  0  0
  1  4  2  0  0  0  0
  1  2  1  0  0  0  0
  2  5  1  0  0  0  0
  2  3  1  0  0  0  0
  3 21  1  1  0  0  0
  5 22  1  6  0  0  0
  5  3  1  0  0  0  0
  6 10  1  0  0  0  0
  7 10  2  0  0  0  0
  8 11  2  0  0  0  0
  9 11  1  0  0  0  0
  9  6  1  0  0  0  0
 10  1  1  0  0  0  0
 11  7  1  0  0  0  0
 12 18  1  0  0  0  0
 13 15  1  0  0  0  0
 13 12  2  0  0  0  0
 14 13  1  0  0  0  0
 15 16  2  0  0  0  0
 16 17  1  0  0  0  0
 17  9  1  0  0  0  0
 18 17  2  0  0  0  0
 19 21  2  0  0  0  0
 21 20  1  0  0  0  0
 22 23  1  0  0  0  0
 24 23  1  1  0  0  0
 24 26  1  0  0  0  0
 25 27  1  6  0  0  0
 25 24  1  0  0  0  0
 25 26  1  0  0  0  0
 28 27  1  0  0  0  0
 29 30  1  1  0  0  0
 29 28  1  0  0  0  0
 31 30  1  0  0  0  0
 31 32  1  0  0  0  0
 33 29  1  0  0  0  0
 34 35  2  0  0  0  0
 34 33  1  0  0  0  0
 36 37  1  0  0  0  0
 37 34  1  0  0  0  0
M  END
>  <MODEL>
3

>  <REMARK>
 VINA RESULT:      -7.7      2.323      2.699
  Name = 
  14 active torsions:
  status: ('A' for Active; 'I' for Inactive)
    1  A    between atoms: C_2  and  O_7
    2  A    between atoms: C_2  and  C_25
    3  A    between atoms: C_3  and  C_29
    4  A    between atoms: C_5  and  S_18
    5  A    between atoms: C_5  and  C_37
    6  A    between atoms: C_6  and  C_14
    7  A    between atoms: C_6  and  C_25
    8  A    between atoms: C_8  and  C_13
    9  A    between atoms: C_13  and  C_33
   10  A    between atoms: C_14  and  C_22
   11  A    between atoms: S_18  and  C_25
   12  A    between atoms: C_23  and  C_31
   13  A    between atoms: N_27  and  C_30
   14  A    between atoms: C_33  and  C_34
                            x       y       z     vdW  Elec       q    Type
                         _______ _______ _______ _____ _____    ______ ____

>  <TORSDO>
F 14

$$$$
=
 OpenBabel10222419533D

 37 40  0  0  1  0  0  0  0  0999 V2000
  187.0290  178.4690  137.9670 C   0  0  0  0  0  0  0  0  0  0  0  0
  188.0610  178.1240  138.8870 N   0  0  0  0  0  0  0  0  0  0  0  0
  189.4960  178.0540  139.2980 C   0  0  1  0  0  3  0  0  0  0  0  0
  187.3250  179.0470  136.8890 O   0  0  0  0  0  0  0  0  0  0  0  0
  188.5500  177.5870  140.1900 C   0  0  1  0  0  3  0  0  0  0  0  0
  184.9670  178.6940  139.2870 O   0  0  0  0  0  0  0  0  0  0  0  0
  184.8100  177.2940  137.5700 C   0  0  0  0  0  3  0  0  0  0  0  0
  182.5710  176.7600  137.9880 O   0  0  0  0  0  0  0  0  0  0  0  0
  183.7510  178.2430  139.3100 N   0  0  0  0  0  0  0  0  0  0  0  0
  185.6280  178.1650  138.2810 C   0  0  0  0  0  0  0  0  0  0  0  0
  183.6250  177.3890  138.2730 C   0  0  0  0  0  0  0  0  0  0  0  0
  180.5420  179.4480  140.8060 C   0  0  0  0  0  3  0  0  0  0  0  0
  180.8130  179.3380  142.1720 C   0  0  0  0  0  0  0  0  0  0  0  0
  179.5900  179.7770  143.3450 Cl  0  0  0  0  0  0  0  0  0  0  0  0
  182.0600  178.8780  142.6020 C   0  0  0  0  0  3  0  0  0  0  0  0
  183.0340  178.5220  141.6640 C   0  0  0  0  0  3  0  0  0  0  0  0
  182.7690  178.6240  140.2890 C   0  0  0  0  0  0  0  0  0  0  0  0
  181.5160  179.0920  139.8700 C   0  0  0  0  0  3  0  0  0  0  0  0
  190.5170  175.8930  139.2410 O   0  0  0  0  0  0  0  0  0  0  0  0
  190.3600  176.9600  137.1840 N   0  0  0  0  0  1  0  0  0  0  0  0
  190.1670  176.9170  138.5960 C   0  0  0  0  0  0  0  0  0  0  0  0
  188.3040  178.6230  141.2720 C   0  0  0  0  0  2  0  0  0  0  0  0
  186.9140  178.4580  141.8620 C   0  0  0  0  0  2  0  0  0  0  0  0
  186.9680  177.6050  143.1170 C   0  0  1  0  0  3  0  0  0  0  0  0
  186.6880  178.4470  144.2710 C   0  0  1  0  0  3  0  0  0  0  0  0
  185.6370  177.5660  143.7410 N   0  0  0  0  0  2  0  0  0  0  0  0
  187.2880  177.8290  145.5150 C   0  0  0  0  0  2  0  0  0  0  0  0
  188.6200  177.1740  145.1650 C   0  0  0  0  0  2  0  0  0  0  0  0
  189.7460  177.6070  146.1020 C   0  0  1  0  0  3  0  0  0  0  0  0
  189.5200  177.1210  147.5290 C   0  0  0  0  0  2  0  0  0  0  0  0
  189.3110  178.2090  148.3780 O   0  0  0  0  0  0  0  0  0  0  0  0
  188.1090  178.0100  148.8740 O   0  0  0  0  0  1  0  0  0  0  0  0
  191.3620  177.0350  145.4840 S   0  0  0  0  0  0  0  0  0  0  0  0
  191.2520  178.0200  143.9920 C   0  0  0  0  0  0  0  0  0  0  0  0
  191.0150  179.2150  144.0700 O   0  0  0  0  0  0  0  0  0  0  0  0
  190.7350  176.0870  142.6450 N   0  0  0  0  0  1  0  0  0  0  0  0
  191.4160  177.3710  142.6570 C   0  0  0  0  0  2  0  0  0  0  0  0
  1 10  1  0  0  0  0
  1  2  1  0  0  0  0
  2  3  1  0  0  0  0
  2  5  1  0  0  0  0
  3 21  1  6  0  0  0
  3  5  1  0  0  0  0
  4  1  2  0  0  0  0
  5 22  1  1  0  0  0
  6  9  1  0  0  0  0
  7 11  1  0  0  0  0
  7 10  2  0  0  0  0
  8 11  2  0  0  0  0
  9 17  1  0  0  0  0
 10  6  1  0  0  0  0
 11  9  1  0  0  0  0
 12 13  1  0  0  0  0
 13 15  2  0  0  0  0
 13 14  1  0  0  0  0
 16 15  1  0  0  0  0
 17 16  2  0  0  0  0
 18 17  1  0  0  0  0
 18 12  2  0  0  0  0
 20 21  1  0  0  0  0
 21 19  2  0  0  0  0
 22 23  1  0  0  0  0
 24 23  1  6  0  0  0
 24 26  1  0  0  0  0
 24 25  1  0  0  0  0
 25 27  1  1  0  0  0
 26 25  1  0  0  0  0
 28 27  1  0  0  0  0
 29 28  1  6  0  0  0
 29 30  1  0  0  0  0
 30 31  1  0  0  0  0
 31 32  1  0  0  0  0
 33 29  1  0  0  0  0
 34 35  2  0  0  0  0
 34 33  1  0  0  0  0
 36 37  1  0  0  0  0
 37 34  1  0  0  0  0
M  END
>  <MODEL>
4

>  <REMARK>
 VINA RESULT:      -7.7      4.043      8.292
  Name = 
  14 active torsions:
  status: ('A' for Active; 'I' for Inactive)
    1  A    between atoms: C_2  and  O_7
    2  A    between atoms: C_2  and  C_25
    3  A    between atoms: C_3  and  C_29
    4  A    between atoms: C_5  and  S_18
    5  A    between atoms: C_5  and  C_37
    6  A    between atoms: C_6  and  C_14
    7  A    between atoms: C_6  and  C_25
    8  A    between atoms: C_8  and  C_13
    9  A    between atoms: C_13  and  C_33
   10  A    between atoms: C_14  and  C_22
   11  A    between atoms: S_18  and  C_25
   12  A    between atoms: C_23  and  C_31
   13  A    between atoms: N_27  and  C_30
   14  A    between atoms: C_33  and  C_34
                            x       y       z     vdW  Elec       q    Type
                         _______ _______ _______ _____ _____    ______ ____

>  <TORSDO>
F 14

$$$$
=
 OpenBabel10222419533D

 37 40  0  0  1  0  0  0  0  0999 V2000
  182.4240  178.9250  142.8360 C   0  0  0  0  0  0  0  0  0  0  0  0
  182.6160  178.4940  141.4920 N   0  0  0  0  0  0  0  0  0  0  0  0
  182.1460  178.2930  140.0870 C   0  0  1  0  0  3  0  0  0  0  0  0
  181.3330  179.4600  143.1670 O   0  0  0  0  0  0  0  0  0  0  0  0
  183.4440  177.9300  140.3870 C   0  0  1  0  0  3  0  0  0  0  0  0
  184.6900  178.2910  143.5450 O   0  0  0  0  0  0  0  0  0  0  0  0
  183.4040  179.0760  145.1760 C   0  0  0  0  0  3  0  0  0  0  0  0
  185.0560  178.8580  146.8180 O   0  0  0  0  0  0  0  0  0  0  0  0
  185.4230  178.2650  144.6150 N   0  0  0  0  0  0  0  0  0  0  0  0
  183.4950  178.7610  143.8250 C   0  0  0  0  0  0  0  0  0  0  0  0
  184.6660  178.7400  145.6250 C   0  0  0  0  0  0  0  0  0  0  0  0
  188.6510  176.7150  143.5350 C   0  0  0  0  0  3  0  0  0  0  0  0
  189.4500  176.9200  144.6640 C   0  0  0  0  0  0  0  0  0  0  0  0
  191.1130  176.3760  144.6690 Cl  0  0  0  0  0  0  0  0  0  0  0  0
  188.9200  177.5590  145.7870 C   0  0  0  0  0  3  0  0  0  0  0  0
  187.5930  177.9980  145.7800 C   0  0  0  0  0  3  0  0  0  0  0  0
  186.7840  177.8020  144.6490 C   0  0  0  0  0  0  0  0  0  0  0  0
  187.3250  177.1550  143.5290 C   0  0  0  0  0  3  0  0  0  0  0  0
  181.7300  175.9810  139.6450 O   0  0  0  0  0  0  0  0  0  0  0  0
  179.9010  177.1740  140.4370 N   0  0  0  0  0  1  0  0  0  0  0  0
  181.2620  177.0880  140.0200 C   0  0  0  0  0  0  0  0  0  0  0  0
  184.4060  178.9960  139.8970 C   0  0  0  0  0  2  0  0  0  0  0  0
  185.6480  178.3610  139.2970 C   0  0  0  0  0  2  0  0  0  0  0  0
  185.5630  178.3580  137.7810 C   0  0  1  0  0  3  0  0  0  0  0  0
  185.8530  177.0160  137.2960 C   0  0  1  0  0  3  0  0  0  0  0  0
  184.4600  177.4840  137.3530 N   0  0  0  0  0  2  0  0  0  0  0  0
  186.3520  177.0840  135.8680 C   0  0  0  0  0  2  0  0  0  0  0  0
  187.8540  177.3410  135.8670 C   0  0  0  0  0  2  0  0  0  0  0  0
  188.6070  176.4060  136.8130 C   0  0  1  0  0  3  0  0  0  0  0  0
  188.8620  175.0420  136.1830 C   0  0  0  0  0  2  0  0  0  0  0  0
  188.6490  174.0320  137.1220 O   0  0  0  0  0  0  0  0  0  0  0  0
  189.8400  173.5080  137.3160 O   0  0  0  0  0  1  0  0  0  0  0  0
  190.1740  177.1580  137.3590 S   0  0  0  0  0  0  0  0  0  0  0  0
  189.3770  178.1370  138.6300 C   0  0  0  0  0  0  0  0  0  0  0  0
  189.0240  179.2780  138.3840 O   0  0  0  0  0  0  0  0  0  0  0  0
  190.3830  176.8670  140.4170 N   0  0  0  0  0  1  0  0  0  0  0  0
  189.1800  177.5660  139.9960 C   0  0  0  0  0  2  0  0  0  0  0  0
  1  4  2  0  0  0  0
  1 10  1  0  0  0  0
  2  1  1  0  0  0  0
  3 21  1  1  0  0  0
  3  5  1  0  0  0  0
  3  2  1  0  0  0  0
  5 22  1  6  0  0  0
  5  2  1  0  0  0  0
  6 10  1  0  0  0  0
  6  9  1  0  0  0  0
  7 11  1  0  0  0  0
  9 17  1  0  0  0  0
  9 11  1  0  0  0  0
 10  7  2  0  0  0  0
 11  8  2  0  0  0  0
 12 13  1  0  0  0  0
 13 14  1  0  0  0  0
 13 15  2  0  0  0  0
 16 15  1  0  0  0  0
 17 16  2  0  0  0  0
 18 12  2  0  0  0  0
 18 17  1  0  0  0  0
 19 21  2  0  0  0  0
 21 20  1  0  0  0  0
 23 22  1  0  0  0  0
 24 23  1  1  0  0  0
 25 27  1  6  0  0  0
 25 26  1  0  0  0  0
 25 24  1  0  0  0  0
 26 24  1  0  0  0  0
 28 27  1  0  0  0  0
 29 28  1  6  0  0  0
 29 33  1  0  0  0  0
 30 29  1  0  0  0  0
 30 31  1  0  0  0  0
 31 32  1  0  0  0  0
 33 34  1  0  0  0  0
 34 37  1  0  0  0  0
 35 34  2  0  0  0  0
 37 36  1  0  0  0  0
M  END
>  <MODEL>
5

>  <REMARK>
 VINA RESULT:      -7.6      3.356      8.530
  Name = 
  14 active torsions:
  status: ('A' for Active; 'I' for Inactive)
    1  A    between atoms: C_2  and  O_7
    2  A    between atoms: C_2  and  C_25
    3  A    between atoms: C_3  and  C_29
    4  A    between atoms: C_5  and  S_18
    5  A    between atoms: C_5  and  C_37
    6  A    between atoms: C_6  and  C_14
    7  A    between atoms: C_6  and  C_25
    8  A    between atoms: C_8  and  C_13
    9  A    between atoms: C_13  and  C_33
   10  A    between atoms: C_14  and  C_22
   11  A    between atoms: S_18  and  C_25
   12  A    between atoms: C_23  and  C_31
   13  A    between atoms: N_27  and  C_30
   14  A    between atoms: C_33  and  C_34
                            x       y       z     vdW  Elec       q    Type
                         _______ _______ _______ _____ _____    ______ ____

>  <TORSDO>
F 14

$$$$
=
 OpenBabel10222419533D

 37 40  0  0  1  0  0  0  0  0999 V2000
  187.7370  177.3470  144.7270 C   0  0  0  0  0  0  0  0  0  0  0  0
  188.9070  177.4500  143.9210 N   0  0  0  0  0  0  0  0  0  0  0  0
  190.3540  177.1900  143.6500 C   0  0  1  0  0  3  0  0  0  0  0  0
  187.7840  176.7090  145.8110 O   0  0  0  0  0  0  0  0  0  0  0  0
  189.6330  177.8680  142.6870 C   0  0  1  0  0  3  0  0  0  0  0  0
  186.0540  177.9690  143.0470 O   0  0  0  0  0  0  0  0  0  0  0  0
  185.5750  178.6270  145.1130 C   0  0  0  0  0  3  0  0  0  0  0  0
  183.5510  179.6320  144.5080 O   0  0  0  0  0  0  0  0  0  0  0  0
  184.9160  178.5850  142.9650 N   0  0  0  0  0  0  0  0  0  0  0  0
  186.4810  177.9670  144.2900 C   0  0  0  0  0  0  0  0  0  0  0  0
  184.5970  178.9950  144.2100 C   0  0  0  0  0  0  0  0  0  0  0  0
  184.1610  179.3420  139.3810 C   0  0  0  0  0  3  0  0  0  0  0  0
  182.7890  179.0840  139.3250 C   0  0  0  0  0  0  0  0  0  0  0  0
  181.9230  179.2770  137.8160 Cl  0  0  0  0  0  0  0  0  0  0  0  0
  182.1080  178.6720  140.4730 C   0  0  0  0  0  3  0  0  0  0  0  0
  182.8020  178.5120  141.6760 C   0  0  0  0  0  3  0  0  0  0  0  0
  184.1820  178.7640  141.7410 C   0  0  0  0  0  0  0  0  0  0  0  0
  184.8530  179.1820  140.5840 C   0  0  0  0  0  3  0  0  0  0  0  0
  191.8070  177.7320  145.4690 O   0  0  0  0  0  0  0  0  0  0  0  0
  191.3530  179.4880  144.0190 N   0  0  0  0  0  1  0  0  0  0  0  0
  191.1940  178.1370  144.4470 C   0  0  0  0  0  0  0  0  0  0  0  0
  189.2650  176.9240  141.5560 C   0  0  0  0  0  2  0  0  0  0  0  0
  190.1940  177.1220  140.3720 C   0  0  0  0  0  2  0  0  0  0  0  0
  189.6060  178.1260  139.3970 C   0  0  1  0  0  3  0  0  0  0  0  0
  188.5180  177.4920  138.6660 C   0  0  1  0  0  3  0  0  0  0  0  0
  188.2130  178.4140  139.7700 N   0  0  0  0  0  2  0  0  0  0  0  0
  188.3090  178.1980  137.3440 C   0  0  0  0  0  2  0  0  0  0  0  0
  189.3540  177.7200  136.3420 C   0  0  0  0  0  2  0  0  0  0  0  0
  189.4200  176.1960  136.2500 C   0  0  1  0  0  3  0  0  0  0  0  0
  188.3190  175.6300  135.3620 C   0  0  0  0  0  2  0  0  0  0  0  0
  187.3040  175.0810  136.1470 O   0  0  0  0  0  0  0  0  0  0  0  0
  187.9350  174.3070  137.0040 O   0  0  0  0  0  1  0  0  0  0  0  0
  191.0560  175.6500  135.6610 S   0  0  0  0  0  0  0  0  0  0  0  0
  191.7260  175.5380  137.3190 C   0  0  0  0  0  0  0  0  0  0  0  0
  191.2910  174.7020  138.0930 O   0  0  0  0  0  0  0  0  0  0  0  0
  193.9850  175.7540  138.1350 N   0  0  0  0  0  1  0  0  0  0  0  0
  192.7890  176.4900  137.7590 C   0  0  0  0  0  2  0  0  0  0  0  0
  1  4  2  0  0  0  0
  2  1  1  0  0  0  0
  3  2  1  0  0  0  0
  3 21  1  1  0  0  0
  5 22  1  6  0  0  0
  5  3  1  0  0  0  0
  5  2  1  0  0  0  0
  6 10  1  0  0  0  0
  9  6  1  0  0  0  0
  9 11  1  0  0  0  0
 10  1  1  0  0  0  0
 10  7  2  0  0  0  0
 11  8  2  0  0  0  0
 11  7  1  0  0  0  0
 12 18  1  0  0  0  0
 13 12  2  0  0  0  0
 13 15  1  0  0  0  0
 14 13  1  0  0  0  0
 15 16  2  0  0  0  0
 16 17  1  0  0  0  0
 17  9  1  0  0  0  0
 18 17  2  0  0  0  0
 20 21  1  0  0  0  0
 21 19  2  0  0  0  0
 23 22  1  0  0  0  0
 24 26  1  0  0  0  0
 24 23  1  1  0  0  0
 25 27  1  6  0  0  0
 25 24  1  0  0  0  0
 25 26  1  0  0  0  0
 28 27  1  0  0  0  0
 29 30  1  6  0  0  0
 29 28  1  0  0  0  0
 30 31  1  0  0  0  0
 31 32  1  0  0  0  0
 33 29  1  0  0  0  0
 33 34  1  0  0  0  0
 34 37  1  0  0  0  0
 34 35  2  0  0  0  0
 37 36  1  0  0  0  0
M  END
>  <MODEL>
6

>  <REMARK>
 VINA RESULT:      -7.4      3.578      7.817
  Name = 
  14 active torsions:
  status: ('A' for Active; 'I' for Inactive)
    1  A    between atoms: C_2  and  O_7
    2  A    between atoms: C_2  and  C_25
    3  A    between atoms: C_3  and  C_29
    4  A    between atoms: C_5  and  S_18
    5  A    between atoms: C_5  and  C_37
    6  A    between atoms: C_6  and  C_14
    7  A    between atoms: C_6  and  C_25
    8  A    between atoms: C_8  and  C_13
    9  A    between atoms: C_13  and  C_33
   10  A    between atoms: C_14  and  C_22
   11  A    between atoms: S_18  and  C_25
   12  A    between atoms: C_23  and  C_31
   13  A    between atoms: N_27  and  C_30
   14  A    between atoms: C_33  and  C_34
                            x       y       z     vdW  Elec       q    Type
                         _______ _______ _______ _____ _____    ______ ____

>  <TORSDO>
F 14

$$$$
=
 OpenBabel10222419533D

 37 40  0  0  1  0  0  0  0  0999 V2000
  190.4960  178.3030  144.1960 C   0  0  0  0  0  0  0  0  0  0  0  0
  189.8000  177.8970  145.3710 N   0  0  0  0  0  0  0  0  0  0  0  0
  189.6690  177.7730  146.8550 C   0  0  1  0  0  3  0  0  0  0  0  0
  191.5940  178.9090  144.3030 O   0  0  0  0  0  0  0  0  0  0  0  0
  188.6290  177.3030  146.0790 C   0  0  1  0  0  3  0  0  0  0  0  0
  188.7250  178.3890  142.4950 O   0  0  0  0  0  0  0  0  0  0  0  0
  190.5810  177.3620  141.8360 C   0  0  0  0  0  3  0  0  0  0  0  0
  189.7670  176.8910  139.6950 O   0  0  0  0  0  0  0  0  0  0  0  0
  188.5060  178.0150  141.2710 N   0  0  0  0  0  0  0  0  0  0  0  0
  189.9320  178.0280  142.8700 C   0  0  0  0  0  0  0  0  0  0  0  0
  189.6210  177.3890  140.8430 C   0  0  0  0  0  0  0  0  0  0  0  0
  184.9610  178.9870  140.5840 C   0  0  0  0  0  3  0  0  0  0  0  0
  184.8760  178.7740  139.2050 C   0  0  0  0  0  0  0  0  0  0  0  0
  183.3800  179.1040  138.3590 Cl  0  0  0  0  0  0  0  0  0  0  0  0
  185.9860  178.2970  138.5030 C   0  0  0  0  0  3  0  0  0  0  0  0
  187.1820  178.0390  139.1790 C   0  0  0  0  0  3  0  0  0  0  0  0
  187.2780  178.2550  140.5630 C   0  0  0  0  0  0  0  0  0  0  0  0
  186.1570  178.7290  141.2580 C   0  0  0  0  0  3  0  0  0  0  0  0
  189.9860  175.5530  147.6830 O   0  0  0  0  0  0  0  0  0  0  0  0
  191.9380  176.7710  147.3670 N   0  0  0  0  0  1  0  0  0  0  0  0
  190.5190  176.6420  147.3420 C   0  0  0  0  0  0  0  0  0  0  0  0
  187.4900  178.3060  146.0760 C   0  0  0  0  0  2  0  0  0  0  0  0
  186.4090  177.8840  145.0980 C   0  0  0  0  0  2  0  0  0  0  0  0
  185.3610  178.9740  144.9600 C   0  0  1  0  0  3  0  0  0  0  0  0
  184.0430  178.3580  144.9060 C   0  0  1  0  0  3  0  0  0  0  0  0
  184.5040  178.9850  146.1540 N   0  0  0  0  0  2  0  0  0  0  0  0
  183.0730  179.2820  144.2030 C   0  0  0  0  0  2  0  0  0  0  0  0
  182.6340  178.6510  142.8870 C   0  0  0  0  0  2  0  0  0  0  0  0
  181.1140  178.6380  142.7240 C   0  0  1  0  0  3  0  0  0  0  0  0
  180.4060  179.2150  143.9430 C   0  0  0  0  0  2  0  0  0  0  0  0
  179.2550  178.4770  144.2230 O   0  0  0  0  0  0  0  0  0  0  0  0
  179.6790  177.2350  144.3240 O   0  0  0  0  0  1  0  0  0  0  0  0
  180.6140  179.5310  141.2170 S   0  0  0  0  0  0  0  0  0  0  0  0
  179.9640  178.0540  140.4380 C   0  0  0  0  0  0  0  0  0  0  0  0
  180.0540  176.9790  141.0060 O   0  0  0  0  0  0  0  0  0  0  0  0
  179.3380  179.5190  138.6270 N   0  0  0  0  0  1  0  0  0  0  0  0
  179.3460  178.1380  139.0810 C   0  0  0  0  0  2  0  0  0  0  0  0
  1  4  2  0  0  0  0
  1  2  1  0  0  0  0
  2  5  1  0  0  0  0
  2  3  1  0  0  0  0
  3 21  1  6  0  0  0
  5 22  1  1  0  0  0
  5  3  1  0  0  0  0
  6 10  1  0  0  0  0
  7 10  2  0  0  0  0
  8 11  2  0  0  0  0
  9  6  1  0  0  0  0
 10  1  1  0  0  0  0
 11  9  1  0  0  0  0
 11  7  1  0  0  0  0
 12 18  1  0  0  0  0
 13 12  2  0  0  0  0
 14 13  1  0  0  0  0
 15 16  2  0  0  0  0
 15 13  1  0  0  0  0
 16 17  1  0  0  0  0
 17 18  2  0  0  0  0
 17  9  1  0  0  0  0
 21 20  1  0  0  0  0
 21 19  2  0  0  0  0
 23 22  1  0  0  0  0
 24 23  1  1  0  0  0
 24 26  1  0  0  0  0
 25 27  1  6  0  0  0
 25 24  1  0  0  0  0
 25 26  1  0  0  0  0
 28 27  1  0  0  0  0
 29 28  1  1  0  0  0
 29 30  1  0  0  0  0
 30 31  1  0  0  0  0
 31 32  1  0  0  0  0
 33 29  1  0  0  0  0
 34 35  2  0  0  0  0
 34 33  1  0  0  0  0
 36 37  1  0  0  0  0
 37 34  1  0  0  0  0
M  END
>  <MODEL>
7

>  <REMARK>
 VINA RESULT:      -7.4      2.834      3.750
  Name = 
  14 active torsions:
  status: ('A' for Active; 'I' for Inactive)
    1  A    between atoms: C_2  and  O_7
    2  A    between atoms: C_2  and  C_25
    3  A    between atoms: C_3  and  C_29
    4  A    between atoms: C_5  and  S_18
    5  A    between atoms: C_5  and  C_37
    6  A    between atoms: C_6  and  C_14
    7  A    between atoms: C_6  and  C_25
    8  A    between atoms: C_8  and  C_13
    9  A    between atoms: C_13  and  C_33
   10  A    between atoms: C_14  and  C_22
   11  A    between atoms: S_18  and  C_25
   12  A    between atoms: C_23  and  C_31
   13  A    between atoms: N_27  and  C_30
   14  A    between atoms: C_33  and  C_34
                            x       y       z     vdW  Elec       q    Type
                         _______ _______ _______ _____ _____    ______ ____

>  <TORSDO>
F 14

$$$$
=
 OpenBabel10222419533D

 37 40  0  0  1  0  0  0  0  0999 V2000
  188.9000  176.3390  147.3750 C   0  0  0  0  0  0  0  0  0  0  0  0
  190.2230  176.5300  146.8810 N   0  0  0  0  0  0  0  0  0  0  0  0
  191.6610  176.1390  146.7650 C   0  0  1  0  0  3  0  0  0  0  0  0
  188.6450  175.3410  148.0980 O   0  0  0  0  0  0  0  0  0  0  0  0
  191.2390  177.2470  146.0590 C   0  0  1  0  0  3  0  0  0  0  0  0
  187.1120  177.2230  145.9380 O   0  0  0  0  0  0  0  0  0  0  0  0
  187.4490  178.3830  147.8020 C   0  0  0  0  0  3  0  0  0  0  0  0
  185.7670  179.9410  147.3420 O   0  0  0  0  0  0  0  0  0  0  0  0
  186.2520  178.1940  145.9090 N   0  0  0  0  0  0  0  0  0  0  0  0
  187.8380  177.2920  147.0320 C   0  0  0  0  0  0  0  0  0  0  0  0
  186.4320  178.9160  147.0350 C   0  0  0  0  0  0  0  0  0  0  0  0
  184.7890  178.3470  142.4710 C   0  0  0  0  0  3  0  0  0  0  0  0
  183.4830  178.7660  142.7420 C   0  0  0  0  0  0  0  0  0  0  0  0
  182.3440  178.9840  141.4320 Cl  0  0  0  0  0  0  0  0  0  0  0  0
  183.0880  179.0110  144.0600 C   0  0  0  0  0  3  0  0  0  0  0  0
  183.9970  178.8300  145.1060 C   0  0  0  0  0  3  0  0  0  0  0  0
  185.3090  178.4050  144.8440 C   0  0  0  0  0  0  0  0  0  0  0  0
  185.6960  178.1670  143.5180 C   0  0  0  0  0  3  0  0  0  0  0  0
  192.0500  177.5840  148.6290 O   0  0  0  0  0  0  0  0  0  0  0  0
  193.4510  175.7350  148.5110 N   0  0  0  0  0  1  0  0  0  0  0  0
  192.3950  176.5480  148.0020 C   0  0  0  0  0  0  0  0  0  0  0  0
  191.0360  176.8850  144.5990 C   0  0  0  0  0  2  0  0  0  0  0  0
  190.6360  178.1090  143.7950 C   0  0  0  0  0  2  0  0  0  0  0  0
  189.3020  177.8790  143.1050 C   0  0  1  0  0  3  0  0  0  0  0  0
  189.5480  177.4640  141.7320 C   0  0  1  0  0  3  0  0  0  0  0  0
  189.1770  176.4600  142.7400 N   0  0  0  0  0  2  0  0  0  0  0  0
  188.3440  177.7890  140.8740 C   0  0  0  0  0  2  0  0  0  0  0  0
  188.8110  178.3320  139.5280 C   0  0  0  0  0  2  0  0  0  0  0  0
  188.2600  177.5270  138.3520 C   0  0  1  0  0  3  0  0  0  0  0  0
  186.7470  177.6580  138.2300 C   0  0  0  0  0  2  0  0  0  0  0  0
  186.3960  178.9940  138.0270 O   0  0  0  0  0  0  0  0  0  0  0  0
  185.3060  179.1590  138.7460 O   0  0  0  0  0  1  0  0  0  0  0  0
  189.0680  178.0170  136.7940 S   0  0  0  0  0  0  0  0  0  0  0  0
  190.0780  176.5380  136.7370 C   0  0  0  0  0  0  0  0  0  0  0  0
  189.9400  175.7440  135.8220 O   0  0  0  0  0  0  0  0  0  0  0  0
  191.2510  174.8320  137.9750 N   0  0  0  0  0  1  0  0  0  0  0  0
  191.0620  176.2660  137.8280 C   0  0  0  0  0  2  0  0  0  0  0  0
  1  4  2  0  0  0  0
  2  1  1  0  0  0  0
  3  2  1  0  0  0  0
  3 21  1  1  0  0  0
  5 22  1  6  0  0  0
  5  3  1  0  0  0  0
  5  2  1  0  0  0  0
  6 10  1  0  0  0  0
  9  6  1  0  0  0  0
  9 11  1  0  0  0  0
 10  1  1  0  0  0  0
 10  7  2  0  0  0  0
 11  8  2  0  0  0  0
 11  7  1  0  0  0  0
 12 13  2  0  0  0  0
 12 18  1  0  0  0  0
 13 15  1  0  0  0  0
 14 13  1  0  0  0  0
 15 16  2  0  0  0  0
 17 16  1  0  0  0  0
 17  9  1  0  0  0  0
 18 17  2  0  0  0  0
 21 20  1  0  0  0  0
 21 19  2  0  0  0  0
 23 22  1  0  0  0  0
 24 23  1  1  0  0  0
 25 27  1  6  0  0  0
 25 26  1  0  0  0  0
 25 24  1  0  0  0  0
 26 24  1  0  0  0  0
 28 27  1  0  0  0  0
 29 30  1  6  0  0  0
 29 28  1  0  0  0  0
 31 30  1  0  0  0  0
 31 32  1  0  0  0  0
 33 29  1  0  0  0  0
 34 33  1  0  0  0  0
 34 37  1  0  0  0  0
 35 34  2  0  0  0  0
 37 36  1  0  0  0  0
M  END
>  <MODEL>
8

>  <REMARK>
 VINA RESULT:      -7.3      3.824      7.216
  Name = 
  14 active torsions:
  status: ('A' for Active; 'I' for Inactive)
    1  A    between atoms: C_2  and  O_7
    2  A    between atoms: C_2  and  C_25
    3  A    between atoms: C_3  and  C_29
    4  A    between atoms: C_5  and  S_18
    5  A    between atoms: C_5  and  C_37
    6  A    between atoms: C_6  and  C_14
    7  A    between atoms: C_6  and  C_25
    8  A    between atoms: C_8  and  C_13
    9  A    between atoms: C_13  and  C_33
   10  A    between atoms: C_14  and  C_22
   11  A    between atoms: S_18  and  C_25
   12  A    between atoms: C_23  and  C_31
   13  A    between atoms: N_27  and  C_30
   14  A    between atoms: C_33  and  C_34
                            x       y       z     vdW  Elec       q    Type
                         _______ _______ _______ _____ _____    ______ ____

>  <TORSDO>
F 14

$$$$
=
 OpenBabel10222419533D

 37 40  0  0  1  0  0  0  0  0999 V2000
  187.7700  177.3400  144.9520 C   0  0  0  0  0  0  0  0  0  0  0  0
  188.9240  177.4240  144.1220 N   0  0  0  0  0  0  0  0  0  0  0  0
  190.3700  177.1720  143.8370 C   0  0  1  0  0  3  0  0  0  0  0  0
  187.8440  176.7520  146.0630 O   0  0  0  0  0  0  0  0  0  0  0  0
  189.6230  177.7950  142.8580 C   0  0  1  0  0  3  0  0  0  0  0  0
  186.0950  177.9490  143.2600 O   0  0  0  0  0  0  0  0  0  0  0  0
  185.5500  178.5170  145.3360 C   0  0  0  0  0  3  0  0  0  0  0  0
  183.4980  179.4580  144.7240 O   0  0  0  0  0  0  0  0  0  0  0  0
  184.9330  178.5210  143.1750 N   0  0  0  0  0  0  0  0  0  0  0  0
  186.4980  177.9230  144.5110 C   0  0  0  0  0  0  0  0  0  0  0  0
  184.5740  178.8750  144.4270 C   0  0  0  0  0  0  0  0  0  0  0  0
  182.1010  178.8170  140.7510 C   0  0  0  0  0  3  0  0  0  0  0  0
  182.7790  179.1150  139.5660 C   0  0  0  0  0  0  0  0  0  0  0  0
  181.8820  179.3730  138.0850 Cl  0  0  0  0  0  0  0  0  0  0  0  0
  184.1730  179.2060  139.5630 C   0  0  0  0  0  3  0  0  0  0  0  0
  184.8880  179.0050  140.7470 C   0  0  0  0  0  3  0  0  0  0  0  0
  184.2160  178.7110  141.9430 C   0  0  0  0  0  0  0  0  0  0  0  0
  182.8170  178.6160  141.9330 C   0  0  0  0  0  3  0  0  0  0  0  0
  191.6880  177.8730  145.7040 O   0  0  0  0  0  0  0  0  0  0  0  0
  191.5220  179.4220  143.9810 N   0  0  0  0  0  1  0  0  0  0  0  0
  191.2090  178.1650  144.5760 C   0  0  0  0  0  0  0  0  0  0  0  0
  189.2500  176.7980  141.7770 C   0  0  0  0  0  2  0  0  0  0  0  0
  188.5910  177.5020  140.6040 C   0  0  0  0  0  2  0  0  0  0  0  0
  189.6240  177.8550  139.5480 C   0  0  1  0  0  3  0  0  0  0  0  0
  189.1810  177.3330  138.2630 C   0  0  1  0  0  3  0  0  0  0  0  0
  189.0250  178.7640  138.5600 N   0  0  0  0  0  2  0  0  0  0  0  0
  190.3730  177.1310  137.3530 C   0  0  0  0  0  2  0  0  0  0  0  0
  191.5220  176.5200  138.1480 C   0  0  0  0  0  2  0  0  0  0  0  0
  192.1250  175.2980  137.4570 C   0  0  1  0  0  3  0  0  0  0  0  0
  191.1860  174.7150  136.4080 C   0  0  0  0  0  2  0  0  0  0  0  0
  190.8130  173.4180  136.7660 O   0  0  0  0  0  0  0  0  0  0  0  0
  189.7280  173.5780  137.4920 O   0  0  0  0  0  1  0  0  0  0  0  0
  193.7370  175.7030  136.7110 S   0  0  0  0  0  0  0  0  0  0  0  0
  194.6480  174.7360  137.9130 C   0  0  0  0  0  0  0  0  0  0  0  0
  195.0480  175.2620  138.9380 O   0  0  0  0  0  0  0  0  0  0  0  0
  195.7800  172.7560  138.7000 N   0  0  0  0  0  1  0  0  0  0  0  0
  194.9450  173.2980  137.6410 C   0  0  0  0  0  2  0  0  0  0  0  0
  1  4  2  0  0  0  0
  2  1  1  0  0  0  0
  3  2  1  0  0  0  0
  3 21  1  1  0  0  0
  5 22  1  6  0  0  0
  5  3  1  0  0  0  0
  5  2  1  0  0  0  0
  6 10  1  0  0  0  0
  9  6  1  0  0  0  0
  9 11  1  0  0  0  0
 10  1  1  0  0  0  0
 10  7  2  0  0  0  0
 11  8  2  0  0  0  0
 11  7  1  0  0  0  0
 12 18  1  0  0  0  0
 13 12  2  0  0  0  0
 14 13  1  0  0  0  0
 15 13  1  0  0  0  0
 15 16  2  0  0  0  0
 16 17  1  0  0  0  0
 17  9  1  0  0  0  0
 18 17  2  0  0  0  0
 20 21  1  0  0  0  0
 21 19  2  0  0  0  0
 23 22  1  0  0  0  0
 24 23  1  1  0  0  0
 25 27  1  6  0  0  0
 25 26  1  0  0  0  0
 25 24  1  0  0  0  0
 26 24  1  0  0  0  0
 27 28  1  0  0  0  0
 29 30  1  6  0  0  0
 29 28  1  0  0  0  0
 30 31  1  0  0  0  0
 31 32  1  0  0  0  0
 33 29  1  0  0  0  0
 33 34  1  0  0  0  0
 34 35  2  0  0  0  0
 37 34  1  0  0  0  0
 37 36  1  0  0  0  0
M  END
>  <MODEL>
9

>  <REMARK>
 VINA RESULT:      -7.3      3.918      8.713
  Name = 
  14 active torsions:
  status: ('A' for Active; 'I' for Inactive)
    1  A    between atoms: C_2  and  O_7
    2  A    between atoms: C_2  and  C_25
    3  A    between atoms: C_3  and  C_29
    4  A    between atoms: C_5  and  S_18
    5  A    between atoms: C_5  and  C_37
    6  A    between atoms: C_6  and  C_14
    7  A    between atoms: C_6  and  C_25
    8  A    between atoms: C_8  and  C_13
    9  A    between atoms: C_13  and  C_33
   10  A    between atoms: C_14  and  C_22
   11  A    between atoms: S_18  and  C_25
   12  A    between atoms: C_23  and  C_31
   13  A    between atoms: N_27  and  C_30
   14  A    between atoms: C_33  and  C_34
                            x       y       z     vdW  Elec       q    Type
                         _______ _______ _______ _____ _____    ______ ____

>  <TORSDO>
F 14

$$$$
