=
 OpenBabel10222418363D

 62 68  0  0  1  0  0  0  0  0999 V2000
  187.7340  177.2510  136.8610 O   0  0  0  0  0  0  0  0  0  0  0  0
  184.5910  178.1400  141.4100 C   0  0  1  0  0  3  0  0  0  0  0  0
  189.4850  176.4240  138.2970 C   0  0  2  0  0  3  0  0  0  0  0  0
  187.7430  177.5960  144.5500 C   0  0  0  0  0  0  0  0  0  0  0  0
  185.5290  176.1200  135.6280 O   0  0  0  0  0  0  0  0  0  0  0  0
  183.8690  178.7810  140.2810 C   0  0  1  0  0  3  0  0  0  0  0  0
  188.8460  177.9030  142.4270 C   0  0  0  0  0  0  0  0  0  0  0  0
  188.2090  176.1100  137.5200 C   0  0  0  0  0  2  0  0  0  0  0  0
  186.6050  178.6030  142.7340 C   0  0  0  0  0  0  0  0  0  0  0  0
  187.7050  178.4700  141.9490 N   0  0  0  0  0  0  0  0  0  0  0  0
  189.2020  177.3040  139.3440 O   0  0  0  0  0  0  0  0  0  0  0  0
  186.4690  177.4220  137.3190 N   0  0  0  0  0  2  0  0  0  0  0  0
  186.6300  178.1630  144.0190 N   0  0  0  0  0  0  0  0  0  0  0  0
  188.9000  177.4480  143.7560 C   0  0  0  0  0  0  0  0  0  0  0  0
  183.5620  177.7440  139.2240 C   0  0  0  0  0  2  0  0  0  0  0  0
  185.3460  176.8660  136.6270 C   0  0  0  0  0  0  0  0  0  0  0  0
  185.3590  179.1970  142.1810 C   0  0  0  0  0  2  0  0  0  0  0  0
  183.9540  177.1180  137.1350 C   0  0  1  0  0  3  0  0  0  0  0  0
  183.9210  178.2410  137.9720 O   0  0  0  0  0  0  0  0  0  0  0  0
  183.2110  178.4270  141.4770 O   0  0  0  0  0  0  0  0  0  0  0  0
  187.7010  177.1450  145.9720 C   0  0  0  0  0  1  0  0  0  0  0  0
  190.0330  177.7750  141.5260 C   0  0  0  0  0  2  0  0  0  0  0  0
  189.7830  176.7140  140.4740 C   0  0  0  0  0  2  0  0  0  0  0  0
  191.1690  177.9120  144.7040 C   0  0  0  0  0  1  0  0  0  0  0  0
  190.1780  176.8430  144.2860 C   0  0  2  0  0  3  0  0  0  0  0  0
  190.7540  175.9810  143.3490 O   0  0  0  0  0  0  0  0  0  0  0  0
  191.8330  175.4000  144.0170 C   0  0  0  0  0  1  0  0  0  0  0  0
  190.5500  177.0150  137.3760 C   0  0  0  0  0  2  0  0  0  0  0  0
  192.7390  176.1450  137.2790 C   0  0  0  0  0  2  0  0  0  0  0  0
  193.6320  175.0740  136.6710 C   0  0  2  0  0  0  0  0  0  0  0  0
  191.3370  176.0930  135.3640 C   0  0  0  0  0  2  0  0  0  0  0  0
  193.5270  174.8390  135.1660 C   0  0  0  0  0  2  0  0  0  0  0  0
  191.3630  175.9440  136.8210 N   0  0  0  0  0  0  0  0  0  0  0  0
  193.5840  173.8700  137.3870 O   0  0  0  0  0  0  0  0  0  0  0  0
  192.0670  174.9180  134.6920 C   0  0  1  0  0  3  0  0  0  0  0  0
  194.8200  174.5520  137.3890 C   0  0  2  0  0  3  0  0  0  0  0  0
  194.9940  175.1760  138.6250 O   0  0  0  0  0  0  0  0  0  0  0  0
  195.8840  174.3600  139.3220 C   0  0  0  0  0  2  0  0  0  0  0  0
  197.2830  174.5500  138.7800 C   0  0  0  0  0  1  0  0  0  0  0  0
  191.3480  173.5980  134.9410 C   0  0  0  0  0  2  0  0  0  0  0  0
  187.7380  173.0990  135.4070 O   0  0  0  0  0  0  0  0  0  0  0  0
  188.9420  172.8120  135.1680 C   0  0  0  0  0  0  0  0  0  0  0  0
  189.2950  171.4210  134.7780 C   0  0  0  0  0  1  0  0  0  0  0  0
  189.9420  173.8300  135.2590 N   0  0  0  0  0  2  0  0  0  0  0  0
  182.9370  177.2760  136.0040 C   0  0  0  0  0  2  0  0  0  0  0  0
  181.9010  176.1570  136.0020 C   0  0  0  0  0  2  0  0  0  0  0  0
  180.5150  176.7100  136.0650 C   0  0  0  0  0  0  0  0  0  0  0  0
  180.2940  178.1150  135.9040 N   0  0  0  0  0  2  0  0  0  0  0  0
  179.5550  175.9380  136.3130 O   0  0  0  0  0  0  0  0  0  0  0  0
  178.9730  178.7290  135.9490 C   0  0  1  0  0  3  0  0  0  0  0  0
  178.9310  179.9630  136.7980 C   0  0  2  0  0  3  0  0  0  0  0  0
  179.0250  180.0210  135.3930 O   0  0  0  0  0  0  0  0  0  0  0  0
  180.2680  180.3940  137.4210 C   0  0  1  0  0  3  0  0  0  0  0  0
  180.4920  181.9050  137.2600 C   0  0  2  0  0  3  0  0  0  0  0  0
  178.9380  182.8330  137.4970 S   0  0  0  0  0  0  0  0  0  0  0  0
  181.0200  182.2060  135.9380 N   0  0  0  0  0  2  0  0  0  0  0  0
  180.7690  183.6180  135.7110 C   0  0  0  0  0  2  0  0  0  0  0  0
  179.1840  185.3520  136.4860 C   0  0  0  0  0  1  0  0  0  0  0  0
  179.3370  183.8990  136.0940 C   0  0  2  0  0  3  0  0  0  0  0  0
  180.3200  180.8590  139.7730 O   0  0  0  0  0  1  0  0  0  0  0  0
  180.3180  178.6430  139.2010 O   0  0  0  0  0  0  0  0  0  0  0  0
  180.3040  179.9920  138.8640 C   0  0  0  0  0  0  0  0  0  0  0  0
  1 12  1  0  0  0  0
  1  8  1  0  0  0  0
  2 20  1  0  0  0  0
  2 17  1  1  0  0  0
  3 28  1  6  0  0  0
  3 11  1  0  0  0  0
  4 21  1  0  0  0  0
  5 16  2  0  0  0  0
  6 15  1  6  0  0  0
  6  2  1  0  0  0  0
  6 20  1  0  0  0  0
  7 14  2  0  0  0  0
  8  3  1  0  0  0  0
  9 13  1  0  0  0  0
 10  7  1  0  0  0  0
 10  9  2  0  0  0  0
 11 23  1  0  0  0  0
 13  4  2  0  0  0  0
 14 25  1  0  0  0  0
 14  4  1  0  0  0  0
 16 18  1  0  0  0  0
 16 12  1  0  0  0  0
 17  9  1  0  0  0  0
 18 45  1  6  0  0  0
 18 19  1  0  0  0  0
 19 15  1  0  0  0  0
 22  7  1  0  0  0  0
 23 22  1  0  0  0  0
 25 24  1  6  0  0  0
 26 27  1  0  0  0  0
 26 25  1  0  0  0  0
 30 32  1  6  0  0  0
 30 29  1  0  0  0  0
 30 34  1  0  0  0  0
 30 36  1  0  0  0  0
 31 33  1  0  0  0  0
 33 29  1  0  0  0  0
 33 28  1  0  0  0  0
 34 36  1  0  0  0  0
 35 40  1  1  0  0  0
 35 32  1  0  0  0  0
 35 31  1  0  0  0  0
 36 37  1  1  0  0  0
 37 38  1  0  0  0  0
 39 38  1  0  0  0  0
 40 44  1  0  0  0  0
 42 44  1  0  0  0  0
 42 41  2  0  0  0  0
 43 42  1  0  0  0  0
 46 45  1  0  0  0  0
 46 47  1  0  0  0  0
 47 49  2  0  0  0  0
 48 47  1  0  0  0  0
 50 48  1  1  0  0  0
 50 51  1  0  0  0  0
 51 53  1  1  0  0  0
 52 50  1  0  0  0  0
 52 51  1  0  0  0  0
 53 62  1  1  0  0  0
 54 53  1  6  0  0  0
 54 55  1  0  0  0  0
 56 54  1  0  0  0  0
 57 56  1  0  0  0  0
 57 59  1  0  0  0  0
 59 58  1  1  0  0  0
 59 55  1  0  0  0  0
 62 61  2  0  0  0  0
 62 60  1  0  0  0  0
M  END
>  <MODEL>
1

>  <REMARK>
 VINA RESULT:      -7.4      0.000      0.000
  Name = 
  15 active torsions:
  status: ('A' for Active; 'I' for Inactive)
    1  A    between atoms: C_1  and  C_30
    2  A    between atoms: C_4  and  C_53
    3  A    between atoms: C_5  and  N_10
    4  A    between atoms: C_8  and  C_41
    5  A    between atoms: C_17  and  C_30
    6  A    between atoms: O_22  and  C_45
    7  A    between atoms: O_22  and  C_60
    8  A    between atoms: N_24  and  C_41
    9  A    between atoms: C_26  and  C_39
   10  A    between atoms: C_26  and  O_44
   11  A    between atoms: C_30  and  C_34
   12  A    between atoms: C_37  and  C_51
   13  A    between atoms: C_49  and  C_61
   14  A    between atoms: C_51  and  N_52
   15  A    between atoms: C_53  and  C_61
                            x       y       z     vdW  Elec       q    Type
                         _______ _______ _______ _____ _____    ______ ____

>  <TORSDO>
F 15

$$$$
=
 OpenBabel10222418363D

 62 68  0  0  1  0  0  0  0  0999 V2000
  186.6840  178.6870  139.5470 O   0  0  0  0  0  0  0  0  0  0  0  0
  184.6810  178.4260  144.7710 C   0  0  1  0  0  3  0  0  0  0  0  0
  188.6410  177.4940  140.2950 C   0  0  2  0  0  3  0  0  0  0  0  0
  188.3930  177.0500  146.8710 C   0  0  0  0  0  0  0  0  0  0  0  0
  184.1880  177.9420  138.6130 O   0  0  0  0  0  0  0  0  0  0  0  0
  183.7790  179.3460  144.0310 C   0  0  1  0  0  3  0  0  0  0  0  0
  189.0270  177.8750  144.6950 C   0  0  0  0  0  0  0  0  0  0  0  0
  187.2080  177.4090  139.7790 C   0  0  0  0  0  2  0  0  0  0  0  0
  186.9630  178.5060  145.6700 C   0  0  0  0  0  0  0  0  0  0  0  0
  187.8530  178.5620  144.6460 N   0  0  0  0  0  0  0  0  0  0  0  0
  188.6580  178.0800  141.5630 O   0  0  0  0  0  0  0  0  0  0  0  0
  185.5650  178.7540  140.3110 N   0  0  0  0  0  2  0  0  0  0  0  0
  187.2360  177.7510  146.7660 N   0  0  0  0  0  0  0  0  0  0  0  0
  189.3360  177.0940  145.8220 C   0  0  0  0  0  0  0  0  0  0  0  0
  183.1740  178.6190  142.8500 C   0  0  0  0  0  2  0  0  0  0  0  0
  184.2820  178.4100  139.7800 C   0  0  0  0  0  0  0  0  0  0  0  0
  185.6730  179.2390  145.5810 C   0  0  0  0  0  2  0  0  0  0  0  0
  183.0560  178.5440  140.6390 C   0  0  1  0  0  3  0  0  0  0  0  0
  183.2870  179.4150  141.7110 O   0  0  0  0  0  0  0  0  0  0  0  0
  183.3730  178.7070  145.2210 O   0  0  0  0  0  0  0  0  0  0  0  0
  188.6300  176.2500  148.1090 C   0  0  0  0  0  1  0  0  0  0  0  0
  189.9770  177.9640  143.5420 C   0  0  0  0  0  2  0  0  0  0  0  0
  189.4270  177.2130  142.3490 C   0  0  0  0  0  2  0  0  0  0  0  0
  191.5110  176.8350  147.0320 C   0  0  0  0  0  1  0  0  0  0  0  0
  190.6520  176.3540  145.8790 C   0  0  2  0  0  3  0  0  0  0  0  0
  191.3450  176.4660  144.6720 O   0  0  0  0  0  0  0  0  0  0  0  0
  192.0400  175.2620  144.5480 C   0  0  0  0  0  1  0  0  0  0  0  0
  189.5200  178.2860  139.3290 C   0  0  0  0  0  2  0  0  0  0  0  0
  189.0040  176.6280  137.7350 C   0  0  0  0  0  2  0  0  0  0  0  0
  189.5780  175.6310  136.7380 C   0  0  2  0  0  0  0  0  0  0  0  0
  190.9570  176.4450  139.0720 C   0  0  0  0  0  2  0  0  0  0  0  0
  190.7310  174.7480  137.2070 C   0  0  0  0  0  2  0  0  0  0  0  0
  190.0990  177.3840  138.3460 N   0  0  0  0  0  0  0  0  0  0  0  0
  189.8490  176.2180  135.4950 O   0  0  0  0  0  0  0  0  0  0  0  0
  191.7130  175.5390  138.0870 C   0  0  1  0  0  3  0  0  0  0  0  0
  188.8340  175.2370  135.5180 C   0  0  2  0  0  3  0  0  0  0  0  0
  187.5900  175.8670  135.4420 O   0  0  0  0  0  0  0  0  0  0  0  0
  186.8170  175.0470  134.6210 C   0  0  0  0  0  2  0  0  0  0  0  0
  187.3990  173.6510  134.5990 C   0  0  0  0  0  1  0  0  0  0  0  0
  192.6850  176.3360  137.2270 C   0  0  0  0  0  2  0  0  0  0  0  0
  196.1000  174.9980  137.4450 O   0  0  0  0  0  0  0  0  0  0  0  0
  194.9410  175.1910  136.9880 C   0  0  0  0  0  0  0  0  0  0  0  0
  194.5060  174.4520  135.7730 C   0  0  0  0  0  1  0  0  0  0  0  0
  194.0610  176.1010  137.6530 N   0  0  0  0  0  2  0  0  0  0  0  0
  181.8300  179.0010  139.8460 C   0  0  0  0  0  2  0  0  0  0  0  0
  180.6180  179.2290  140.7420 C   0  0  0  0  0  2  0  0  0  0  0  0
  179.8960  177.9480  141.0030 C   0  0  0  0  0  0  0  0  0  0  0  0
  179.6950  177.0080  139.9430 N   0  0  0  0  0  2  0  0  0  0  0  0
  179.4220  177.7300  142.1460 O   0  0  0  0  0  0  0  0  0  0  0  0
  179.0040  175.7370  140.1190 C   0  0  1  0  0  3  0  0  0  0  0  0
  179.2640  174.7700  139.0040 C   0  0  2  0  0  3  0  0  0  0  0  0
  179.9420  174.6930  140.2370 O   0  0  0  0  0  0  0  0  0  0  0  0
  180.2350  175.2510  137.9130 C   0  0  1  0  0  3  0  0  0  0  0  0
  181.3700  174.2390  137.6970 C   0  0  2  0  0  3  0  0  0  0  0  0
  182.4150  174.7100  136.2770 S   0  0  0  0  0  0  0  0  0  0  0  0
  180.8290  172.9090  137.4590 N   0  0  0  0  0  2  0  0  0  0  0  0
  181.8910  172.1460  136.8270 C   0  0  0  0  0  2  0  0  0  0  0  0
  183.9050  172.5800  135.4570 C   0  0  0  0  0  1  0  0  0  0  0  0
  182.4730  172.9920  135.7230 C   0  0  2  0  0  3  0  0  0  0  0  0
  179.0890  174.5400  135.9290 O   0  0  0  0  0  0  0  0  0  0  0  0
  179.2100  176.8040  136.2470 O   0  0  0  0  0  1  0  0  0  0  0  0
  179.4810  175.4980  136.6420 C   0  0  0  0  0  0  0  0  0  0  0  0
  1  8  1  0  0  0  0
  1 12  1  0  0  0  0
  2 20  1  0  0  0  0
  2 17  1  1  0  0  0
  3 28  1  6  0  0  0
  3 11  1  0  0  0  0
  4 21  1  0  0  0  0
  5 16  2  0  0  0  0
  6 15  1  6  0  0  0
  6  2  1  0  0  0  0
  6 20  1  0  0  0  0
  7 14  2  0  0  0  0
  8  3  1  0  0  0  0
  9 13  1  0  0  0  0
 10  7  1  0  0  0  0
 10  9  2  0  0  0  0
 11 23  1  0  0  0  0
 13  4  2  0  0  0  0
 14 25  1  0  0  0  0
 14  4  1  0  0  0  0
 16 12  1  0  0  0  0
 16 18  1  0  0  0  0
 17  9  1  0  0  0  0
 18 45  1  6  0  0  0
 18 19  1  0  0  0  0
 19 15  1  0  0  0  0
 22  7  1  0  0  0  0
 23 22  1  0  0  0  0
 25 24  1  1  0  0  0
 26 25  1  0  0  0  0
 27 26  1  0  0  0  0
 29 33  1  0  0  0  0
 30 32  1  1  0  0  0
 30 29  1  0  0  0  0
 32 35  1  0  0  0  0
 33 31  1  0  0  0  0
 33 28  1  0  0  0  0
 34 36  1  0  0  0  0
 34 30  1  0  0  0  0
 35 40  1  6  0  0  0
 35 31  1  0  0  0  0
 36 37  1  1  0  0  0
 36 30  1  0  0  0  0
 38 37  1  0  0  0  0
 39 38  1  0  0  0  0
 40 44  1  0  0  0  0
 42 41  2  0  0  0  0
 42 44  1  0  0  0  0
 43 42  1  0  0  0  0
 45 46  1  0  0  0  0
 46 47  1  0  0  0  0
 47 49  2  0  0  0  0
 48 47  1  0  0  0  0
 50 48  1  6  0  0  0
 50 52  1  0  0  0  0
 51 53  1  6  0  0  0
 51 50  1  0  0  0  0
 51 52  1  0  0  0  0
 53 62  1  6  0  0  0
 54 53  1  6  0  0  0
 55 54  1  0  0  0  0
 56 54  1  0  0  0  0
 57 56  1  0  0  0  0
 59 58  1  1  0  0  0
 59 55  1  0  0  0  0
 59 57  1  0  0  0  0
 60 62  2  0  0  0  0
 61 62  1  0  0  0  0
M  END
>  <MODEL>
2

>  <REMARK>
 VINA RESULT:      -6.5      3.101      5.550
  Name = 
  15 active torsions:
  status: ('A' for Active; 'I' for Inactive)
    1  A    between atoms: C_1  and  C_30
    2  A    between atoms: C_4  and  C_53
    3  A    between atoms: C_5  and  N_10
    4  A    between atoms: C_8  and  C_41
    5  A    between atoms: C_17  and  C_30
    6  A    between atoms: O_22  and  C_45
    7  A    between atoms: O_22  and  C_60
    8  A    between atoms: N_24  and  C_41
    9  A    between atoms: C_26  and  C_39
   10  A    between atoms: C_26  and  O_44
   11  A    between atoms: C_30  and  C_34
   12  A    between atoms: C_37  and  C_51
   13  A    between atoms: C_49  and  C_61
   14  A    between atoms: C_51  and  N_52
   15  A    between atoms: C_53  and  C_61
                            x       y       z     vdW  Elec       q    Type
                         _______ _______ _______ _____ _____    ______ ____

>  <TORSDO>
F 15

$$$$
=
 OpenBabel10222418363D

 62 68  0  0  1  0  0  0  0  0999 V2000
  186.8470  176.7770  136.6100 O   0  0  0  0  0  0  0  0  0  0  0  0
  184.7340  178.9170  141.3360 C   0  0  1  0  0  3  0  0  0  0  0  0
  184.8130  177.4060  135.4790 C   0  0  2  0  0  3  0  0  0  0  0  0
  180.4870  179.4610  140.0140 C   0  0  0  0  0  0  0  0  0  0  0  0
  189.2390  178.0530  137.1700 O   0  0  0  0  0  0  0  0  0  0  0  0
  185.9720  178.1950  141.7290 C   0  0  1  0  0  3  0  0  0  0  0  0
  181.5730  177.9800  138.4500 C   0  0  0  0  0  0  0  0  0  0  0  0
  186.2010  177.8300  135.9490 C   0  0  0  0  0  2  0  0  0  0  0  0
  182.4670  178.3120  140.6180 C   0  0  0  0  0  0  0  0  0  0  0  0
  182.5190  177.7250  139.3940 N   0  0  0  0  0  0  0  0  0  0  0  0
  183.9880  177.1670  136.5810 O   0  0  0  0  0  0  0  0  0  0  0  0
  187.1490  177.2650  137.8400 N   0  0  0  0  0  2  0  0  0  0  0  0
  181.4600  179.1740  140.9140 N   0  0  0  0  0  0  0  0  0  0  0  0
  180.5160  178.8630  138.7360 C   0  0  0  0  0  0  0  0  0  0  0  0
  187.1540  178.7760  140.9860 C   0  0  0  0  0  2  0  0  0  0  0  0
  188.4160  177.8720  138.1080 C   0  0  0  0  0  0  0  0  0  0  0  0
  183.5290  178.0420  141.6230 C   0  0  0  0  0  2  0  0  0  0  0  0
  188.7370  178.3560  139.4940 C   0  0  1  0  0  3  0  0  0  0  0  0
  187.9120  177.7390  140.4440 O   0  0  0  0  0  0  0  0  0  0  0  0
  185.4050  179.1950  142.5460 O   0  0  0  0  0  0  0  0  0  0  0  0
  179.4060  180.4100  140.4130 C   0  0  0  0  0  1  0  0  0  0  0  0
  181.6720  177.3130  137.1140 C   0  0  0  0  0  2  0  0  0  0  0  0
  182.8210  177.8960  136.3190 C   0  0  0  0  0  2  0  0  0  0  0  0
  178.9990  177.8360  137.0320 C   0  0  0  0  0  1  0  0  0  0  0  0
  179.4570  179.1220  137.6910 C   0  0  2  0  0  3  0  0  0  0  0  0
  179.9080  180.0300  136.7300 O   0  0  0  0  0  0  0  0  0  0  0  0
  179.0210  179.8870  135.6620 C   0  0  0  0  0  1  0  0  0  0  0  0
  184.8950  176.1650  134.5940 C   0  0  0  0  0  2  0  0  0  0  0  0
  186.0460  174.1710  135.0990 C   0  0  0  0  0  2  0  0  0  0  0  0
  186.0190  172.8820  135.9080 C   0  0  2  0  0  0  0  0  0  0  0  0
  183.6740  174.2090  135.0400 C   0  0  0  0  0  2  0  0  0  0  0  0
  184.7240  172.0730  135.9030 C   0  0  0  0  0  2  0  0  0  0  0  0
  184.8640  174.9710  135.4230 N   0  0  0  0  0  0  0  0  0  0  0  0
  186.5120  173.0590  137.2080 O   0  0  0  0  0  0  0  0  0  0  0  0
  183.4940  172.9940  135.9650 C   0  0  1  0  0  3  0  0  0  0  0  0
  187.2660  172.2200  136.3590 C   0  0  2  0  0  3  0  0  0  0  0  0
  188.4020  172.9090  135.9310 O   0  0  0  0  0  0  0  0  0  0  0  0
  189.0890  173.2390  137.0980 C   0  0  0  0  0  2  0  0  0  0  0  0
  189.8590  174.5240  136.8920 C   0  0  0  0  0  1  0  0  0  0  0  0
  183.2120  173.4200  137.3990 C   0  0  0  0  0  2  0  0  0  0  0  0
  179.5850  173.9590  137.6270 O   0  0  0  0  0  0  0  0  0  0  0  0
  180.6800  173.3360  137.6010 C   0  0  0  0  0  0  0  0  0  0  0  0
  180.6730  171.8490  137.6610 C   0  0  0  0  0  1  0  0  0  0  0  0
  181.9060  174.0650  137.4970 N   0  0  0  0  0  2  0  0  0  0  0  0
  190.2070  178.1500  139.8630 C   0  0  0  0  0  2  0  0  0  0  0  0
  190.5130  176.7000  140.2210 C   0  0  0  0  0  2  0  0  0  0  0  0
  191.3410  176.6190  141.4610 C   0  0  0  0  0  0  0  0  0  0  0  0
  190.8330  175.9550  142.6230 N   0  0  0  0  0  2  0  0  0  0  0  0
  192.4630  177.1850  141.4900 O   0  0  0  0  0  0  0  0  0  0  0  0
  191.5820  175.8320  143.8670 C   0  0  1  0  0  3  0  0  0  0  0  0
  191.2810  176.9300  144.8420 C   0  0  2  0  0  3  0  0  0  0  0  0
  190.6940  175.6530  144.9450 O   0  0  0  0  0  0  0  0  0  0  0  0
  190.2200  177.9480  144.3960 C   0  0  1  0  0  3  0  0  0  0  0  0
  189.2450  178.2680  145.5400 C   0  0  2  0  0  3  0  0  0  0  0  0
  189.9170  177.7320  147.1500 S   0  0  0  0  0  0  0  0  0  0  0  0
  187.9680  177.6070  145.3220 N   0  0  0  0  0  2  0  0  0  0  0  0
  187.3020  177.5740  146.6110 C   0  0  0  0  0  2  0  0  0  0  0  0
  187.9240  177.6090  149.0060 C   0  0  0  0  0  1  0  0  0  0  0  0
  188.2990  177.0910  147.6340 C   0  0  2  0  0  3  0  0  0  0  0  0
  190.3950  179.8560  142.9520 O   0  0  0  0  0  0  0  0  0  0  0  0
  192.0810  179.6120  144.4820 O   0  0  0  0  0  1  0  0  0  0  0  0
  190.8930  179.1900  143.8950 C   0  0  0  0  0  0  0  0  0  0  0  0
  1 12  1  0  0  0  0
  2 17  1  1  0  0  0
  2  6  1  0  0  0  0
  2 20  1  0  0  0  0
  3 28  1  1  0  0  0
  3  8  1  0  0  0  0
  3 11  1  0  0  0  0
  4 21  1  0  0  0  0
  4 13  2  0  0  0  0
  5 16  2  0  0  0  0
  6 15  1  6  0  0  0
  6 20  1  0  0  0  0
  7 14  2  0  0  0  0
  7 10  1  0  0  0  0
  8  1  1  0  0  0  0
  9 13  1  0  0  0  0
  9 17  1  0  0  0  0
 10  9  2  0  0  0  0
 12 16  1  0  0  0  0
 14  4  1  0  0  0  0
 16 18  1  0  0  0  0
 18 45  1  1  0  0  0
 18 19  1  0  0  0  0
 19 15  1  0  0  0  0
 22  7  1  0  0  0  0
 23 11  1  0  0  0  0
 23 22  1  0  0  0  0
 25 24  1  6  0  0  0
 25 14  1  0  0  0  0
 26 25  1  0  0  0  0
 27 26  1  0  0  0  0
 28 33  1  0  0  0  0
 29 33  1  0  0  0  0
 30 29  1  6  0  0  0
 30 36  1  0  0  0  0
 30 34  1  0  0  0  0
 31 33  1  0  0  0  0
 31 35  1  0  0  0  0
 32 30  1  0  0  0  0
 32 35  1  0  0  0  0
 35 40  1  1  0  0  0
 36 37  1  6  0  0  0
 36 34  1  0  0  0  0
 37 38  1  0  0  0  0
 39 38  1  0  0  0  0
 40 44  1  0  0  0  0
 42 41  2  0  0  0  0
 42 43  1  0  0  0  0
 44 42  1  0  0  0  0
 45 46  1  0  0  0  0
 46 47  1  0  0  0  0
 47 49  2  0  0  0  0
 47 48  1  0  0  0  0
 50 48  1  6  0  0  0
 50 51  1  0  0  0  0
 50 52  1  0  0  0  0
 51 53  1  6  0  0  0
 51 52  1  0  0  0  0
 53 62  1  1  0  0  0
 54 53  1  6  0  0  0
 54 55  1  0  0  0  0
 55 59  1  0  0  0  0
 56 54  1  0  0  0  0
 56 57  1  0  0  0  0
 57 59  1  0  0  0  0
 59 58  1  1  0  0  0
 60 62  2  0  0  0  0
 62 61  1  0  0  0  0
M  END
>  <MODEL>
3

>  <REMARK>
 VINA RESULT:      -6.3      3.496      9.779
  Name = 
  15 active torsions:
  status: ('A' for Active; 'I' for Inactive)
    1  A    between atoms: C_1  and  C_30
    2  A    between atoms: C_4  and  C_53
    3  A    between atoms: C_5  and  N_10
    4  A    between atoms: C_8  and  C_41
    5  A    between atoms: C_17  and  C_30
    6  A    between atoms: O_22  and  C_45
    7  A    between atoms: O_22  and  C_60
    8  A    between atoms: N_24  and  C_41
    9  A    between atoms: C_26  and  C_39
   10  A    between atoms: C_26  and  O_44
   11  A    between atoms: C_30  and  C_34
   12  A    between atoms: C_37  and  C_51
   13  A    between atoms: C_49  and  C_61
   14  A    between atoms: C_51  and  N_52
   15  A    between atoms: C_53  and  C_61
                            x       y       z     vdW  Elec       q    Type
                         _______ _______ _______ _____ _____    ______ ____

>  <TORSDO>
F 15

$$$$
=
 OpenBabel10222418363D

 62 68  0  0  1  0  0  0  0  0999 V2000
  189.1870  176.8950  136.8640 O   0  0  0  0  0  0  0  0  0  0  0  0
  185.3990  178.2030  140.7760 C   0  0  1  0  0  3  0  0  0  0  0  0
  190.6400  176.0950  138.6140 C   0  0  2  0  0  3  0  0  0  0  0  0
  187.9720  177.7420  144.4160 C   0  0  0  0  0  0  0  0  0  0  0  0
  187.1570  175.7740  135.3540 O   0  0  0  0  0  0  0  0  0  0  0  0
  184.9020  178.7970  139.5080 C   0  0  1  0  0  3  0  0  0  0  0  0
  189.4180  177.8660  142.4890 C   0  0  0  0  0  0  0  0  0  0  0  0
  189.4930  175.7820  137.6570 C   0  0  0  0  0  2  0  0  0  0  0  0
  187.1940  178.6730  142.3830 C   0  0  0  0  0  0  0  0  0  0  0  0
  188.3980  178.4450  141.7990 N   0  0  0  0  0  0  0  0  0  0  0  0
  190.2360  177.0520  139.5470 O   0  0  0  0  0  0  0  0  0  0  0  0
  187.8750  177.1460  137.0970 N   0  0  0  0  0  2  0  0  0  0  0  0
  186.9900  178.3170  143.6780 N   0  0  0  0  0  0  0  0  0  0  0  0
  189.2340  177.4970  143.8340 C   0  0  0  0  0  0  0  0  0  0  0  0
  184.7180  177.7060  138.4770 C   0  0  0  0  0  2  0  0  0  0  0  0
  186.8520  176.5910  136.2640 C   0  0  0  0  0  0  0  0  0  0  0  0
  186.0840  179.2780  141.5990 C   0  0  0  0  0  2  0  0  0  0  0  0
  185.4110  176.9300  136.5210 C   0  0  1  0  0  3  0  0  0  0  0  0
  185.2990  178.1060  137.2740 O   0  0  0  0  0  0  0  0  0  0  0  0
  184.0430  178.5490  140.5980 O   0  0  0  0  0  0  0  0  0  0  0  0
  187.6790  177.3870  145.8370 C   0  0  0  0  0  1  0  0  0  0  0  0
  190.7270  177.6320  141.8040 C   0  0  0  0  0  2  0  0  0  0  0  0
  190.5970  176.5160  140.7900 C   0  0  0  0  0  2  0  0  0  0  0  0
  191.5220  177.8560  144.7780 C   0  0  0  0  0  1  0  0  0  0  0  0
  190.3780  176.8780  144.6000 C   0  0  2  0  0  3  0  0  0  0  0  0
  190.8250  175.7090  143.9810 O   0  0  0  0  0  0  0  0  0  0  0  0
  191.8760  175.2610  144.7840 C   0  0  0  0  0  1  0  0  0  0  0  0
  191.8680  176.5820  137.8470 C   0  0  0  0  0  2  0  0  0  0  0  0
  194.0570  175.7430  138.0980 C   0  0  0  0  0  2  0  0  0  0  0  0
  195.0070  174.6070  137.7500 C   0  0  2  0  0  0  0  0  0  0  0  0
  192.8510  175.3780  136.0860 C   0  0  0  0  0  2  0  0  0  0  0  0
  195.0510  174.1440  136.2960 C   0  0  0  0  0  2  0  0  0  0  0  0
  192.7330  175.4530  137.5440 N   0  0  0  0  0  0  0  0  0  0  0  0
  194.8900  173.5260  138.6340 O   0  0  0  0  0  0  0  0  0  0  0  0
  193.6440  174.1260  135.6760 C   0  0  1  0  0  3  0  0  0  0  0  0
  196.1190  174.2200  138.6510 C   0  0  2  0  0  3  0  0  0  0  0  0
  196.1700  175.0270  139.7890 O   0  0  0  0  0  0  0  0  0  0  0  0
  197.4910  174.9570  140.2260 C   0  0  0  0  0  2  0  0  0  0  0  0
  197.6240  175.6490  141.5650 C   0  0  0  0  0  1  0  0  0  0  0  0
  192.9050  172.8480  136.0520 C   0  0  0  0  0  2  0  0  0  0  0  0
  194.6700  169.6340  136.2750 O   0  0  0  0  0  0  0  0  0  0  0  0
  193.8620  170.5030  135.8500 C   0  0  0  0  0  0  0  0  0  0  0  0
  192.9240  170.1490  134.7510 C   0  0  0  0  0  1  0  0  0  0  0  0
  193.8490  171.8050  136.4420 N   0  0  0  0  0  2  0  0  0  0  0  0
  184.5980  177.0530  135.2310 C   0  0  0  0  0  2  0  0  0  0  0  0
  183.4270  176.0780  135.1940 C   0  0  0  0  0  2  0  0  0  0  0  0
  182.1250  176.8010  135.2960 C   0  0  0  0  0  0  0  0  0  0  0  0
  180.8940  176.0710  135.2920 N   0  0  0  0  0  2  0  0  0  0  0  0
  182.1200  178.0570  135.3310 O   0  0  0  0  0  0  0  0  0  0  0  0
  179.5850  176.7040  135.3910 C   0  0  1  0  0  3  0  0  0  0  0  0
  179.0430  176.7120  136.7880 C   0  0  2  0  0  3  0  0  0  0  0  0
  179.6640  177.8410  136.2180 O   0  0  0  0  0  0  0  0  0  0  0  0
  179.9610  176.1110  137.8650 C   0  0  1  0  0  3  0  0  0  0  0  0
  179.8200  176.8650  139.1960 C   0  0  2  0  0  3  0  0  0  0  0  0
  179.1800  178.5550  138.9340 S   0  0  0  0  0  0  0  0  0  0  0  0
  181.1060  176.9520  139.8720 N   0  0  0  0  0  2  0  0  0  0  0  0
  180.9860  178.0310  140.8360 C   0  0  0  0  0  2  0  0  0  0  0  0
  179.6470  180.0890  141.1370 C   0  0  0  0  0  1  0  0  0  0  0  0
  180.3600  179.2100  140.1340 C   0  0  2  0  0  3  0  0  0  0  0  0
  178.9320  174.2550  138.9850 O   0  0  0  0  0  1  0  0  0  0  0  0
  180.1640  173.7330  137.1270 O   0  0  0  0  0  0  0  0  0  0  0  0
  179.6510  174.6540  138.0340 C   0  0  0  0  0  0  0  0  0  0  0  0
  1 12  1  0  0  0  0
  1  8  1  0  0  0  0
  2 17  1  1  0  0  0
  3 28  1  6  0  0  0
  3 11  1  0  0  0  0
  4 21  1  0  0  0  0
  5 16  2  0  0  0  0
  6 15  1  6  0  0  0
  6 20  1  0  0  0  0
  6  2  1  0  0  0  0
  7 14  2  0  0  0  0
  8  3  1  0  0  0  0
  9 13  1  0  0  0  0
 10  9  2  0  0  0  0
 10  7  1  0  0  0  0
 11 23  1  0  0  0  0
 13  4  2  0  0  0  0
 14  4  1  0  0  0  0
 14 25  1  0  0  0  0
 16 18  1  0  0  0  0
 16 12  1  0  0  0  0
 17  9  1  0  0  0  0
 18 45  1  6  0  0  0
 18 19  1  0  0  0  0
 19 15  1  0  0  0  0
 20  2  1  0  0  0  0
 22  7  1  0  0  0  0
 23 22  1  0  0  0  0
 25 24  1  6  0  0  0
 26 25  1  0  0  0  0
 26 27  1  0  0  0  0
 30 32  1  6  0  0  0
 30 29  1  0  0  0  0
 30 34  1  0  0  0  0
 30 36  1  0  0  0  0
 31 33  1  0  0  0  0
 33 28  1  0  0  0  0
 33 29  1  0  0  0  0
 34 36  1  0  0  0  0
 35 40  1  1  0  0  0
 35 31  1  0  0  0  0
 35 32  1  0  0  0  0
 36 37  1  1  0  0  0
 37 38  1  0  0  0  0
 38 39  1  0  0  0  0
 40 44  1  0  0  0  0
 42 41  2  0  0  0  0
 42 44  1  0  0  0  0
 43 42  1  0  0  0  0
 46 45  1  0  0  0  0
 46 47  1  0  0  0  0
 47 49  2  0  0  0  0
 48 47  1  0  0  0  0
 50 48  1  1  0  0  0
 50 52  1  0  0  0  0
 50 51  1  0  0  0  0
 51 53  1  1  0  0  0
 52 51  1  0  0  0  0
 53 62  1  1  0  0  0
 54 53  1  6  0  0  0
 54 56  1  0  0  0  0
 55 54  1  0  0  0  0
 55 59  1  0  0  0  0
 56 57  1  0  0  0  0
 59 57  1  0  0  0  0
 59 58  1  1  0  0  0
 61 62  2  0  0  0  0
 62 60  1  0  0  0  0
M  END
>  <MODEL>
4

>  <REMARK>
 VINA RESULT:      -5.9      2.487      3.152
  Name = 
  15 active torsions:
  status: ('A' for Active; 'I' for Inactive)
    1  A    between atoms: C_1  and  C_30
    2  A    between atoms: C_4  and  C_53
    3  A    between atoms: C_5  and  N_10
    4  A    between atoms: C_8  and  C_41
    5  A    between atoms: C_17  and  C_30
    6  A    between atoms: O_22  and  C_45
    7  A    between atoms: O_22  and  C_60
    8  A    between atoms: N_24  and  C_41
    9  A    between atoms: C_26  and  C_39
   10  A    between atoms: C_26  and  O_44
   11  A    between atoms: C_30  and  C_34
   12  A    between atoms: C_37  and  C_51
   13  A    between atoms: C_49  and  C_61
   14  A    between atoms: C_51  and  N_52
   15  A    between atoms: C_53  and  C_61
                            x       y       z     vdW  Elec       q    Type
                         _______ _______ _______ _____ _____    ______ ____

>  <TORSDO>
F 15

$$$$
=
 OpenBabel10222418363D

 62 68  0  0  1  0  0  0  0  0999 V2000
  188.4890  178.5770  140.6090 O   0  0  0  0  0  0  0  0  0  0  0  0
  187.6850  176.1780  135.6120 C   0  0  1  0  0  3  0  0  0  0  0  0
  186.1400  178.2870  141.0670 C   0  0  2  0  0  3  0  0  0  0  0  0
  183.2040  176.2210  135.5340 C   0  0  0  0  0  0  0  0  0  0  0  0
  190.7460  177.0080  140.9350 O   0  0  0  0  0  0  0  0  0  0  0  0
  189.0670  176.7210  135.5880 C   0  0  1  0  0  3  0  0  0  0  0  0
  183.9370  177.7390  137.2600 C   0  0  0  0  0  0  0  0  0  0  0  0
  187.5370  177.6740  141.0970 C   0  0  0  0  0  2  0  0  0  0  0  0
  185.4070  177.0880  135.5210 C   0  0  0  0  0  0  0  0  0  0  0  0
  185.1540  177.7930  136.6540 N   0  0  0  0  0  0  0  0  0  0  0  0
  185.7370  178.4910  139.7450 O   0  0  0  0  0  0  0  0  0  0  0  0
  189.0910  177.9330  139.5770 N   0  0  0  0  0  2  0  0  0  0  0  0
  184.4370  176.3080  134.9760 N   0  0  0  0  0  0  0  0  0  0  0  0
  182.9140  176.9450  136.7090 C   0  0  0  0  0  0  0  0  0  0  0  0
  189.8720  176.1040  136.7100 C   0  0  0  0  0  2  0  0  0  0  0  0
  190.2870  177.1720  139.7720 C   0  0  0  0  0  0  0  0  0  0  0  0
  186.7550  177.1380  134.8950 C   0  0  0  0  0  2  0  0  0  0  0  0
  190.9550  176.5130  138.5990 C   0  0  1  0  0  3  0  0  0  0  0  0
  190.5550  177.1080  137.3950 O   0  0  0  0  0  0  0  0  0  0  0  0
  188.6550  175.7050  134.7030 O   0  0  0  0  0  0  0  0  0  0  0  0
  182.1850  175.3520  134.8740 C   0  0  0  0  0  1  0  0  0  0  0  0
  183.7030  178.5300  138.5070 C   0  0  0  0  0  2  0  0  0  0  0  0
  184.4610  177.9200  139.6670 C   0  0  0  0  0  2  0  0  0  0  0  0
  180.9910  178.3040  137.5550 C   0  0  0  0  0  1  0  0  0  0  0  0
  181.5580  176.9100  137.3740 C   0  0  2  0  0  3  0  0  0  0  0  0
  181.6150  176.2420  138.5990 O   0  0  0  0  0  0  0  0  0  0  0  0
  180.3230  175.7520  138.7970 C   0  0  0  0  0  1  0  0  0  0  0  0
  186.1070  179.6000  141.8450 C   0  0  0  0  0  2  0  0  0  0  0  0
  186.1370  178.7530  144.0440 C   0  0  0  0  0  2  0  0  0  0  0  0
  185.3150  178.5100  145.3020 C   0  0  2  0  0  0  0  0  0  0  0  0
  184.1870  178.5550  142.7060 C   0  0  0  0  0  2  0  0  0  0  0  0
  183.9370  177.8760  145.1310 C   0  0  0  0  0  2  0  0  0  0  0  0
  185.3080  179.4340  143.0490 N   0  0  0  0  0  0  0  0  0  0  0  0
  185.2670  179.6370  146.1330 O   0  0  0  0  0  0  0  0  0  0  0  0
  183.2170  178.4350  143.8930 C   0  0  1  0  0  3  0  0  0  0  0  0
  185.9350  178.5060  146.6480 C   0  0  2  0  0  3  0  0  0  0  0  0
  187.3130  178.7240  146.5850 O   0  0  0  0  0  0  0  0  0  0  0  0
  187.8800  177.6810  147.3150 C   0  0  0  0  0  2  0  0  0  0  0  0
  188.9340  178.2280  148.2530 C   0  0  0  0  0  1  0  0  0  0  0  0
  182.5550  179.7690  144.2110 C   0  0  0  0  0  2  0  0  0  0  0  0
  179.4220  179.7900  142.2930 O   0  0  0  0  0  0  0  0  0  0  0  0
  180.2320  179.5080  143.2170 C   0  0  0  0  0  0  0  0  0  0  0  0
  179.8150  178.5580  144.2840 C   0  0  0  0  0  1  0  0  0  0  0  0
  181.5380  180.0900  143.2140 N   0  0  0  0  0  2  0  0  0  0  0  0
  192.4800  176.5250  138.7090 C   0  0  0  0  0  2  0  0  0  0  0  0
  193.1530  176.7380  137.3570 C   0  0  0  0  0  2  0  0  0  0  0  0
  193.6290  175.4430  136.7860 C   0  0  0  0  0  0  0  0  0  0  0  0
  194.0520  174.3860  137.6550 N   0  0  0  0  0  2  0  0  0  0  0  0
  193.7050  175.3110  135.5390 O   0  0  0  0  0  0  0  0  0  0  0  0
  194.5250  173.0950  137.1740 C   0  0  1  0  0  3  0  0  0  0  0  0
  196.0010  173.0740  136.9100 C   0  0  2  0  0  3  0  0  0  0  0  0
  195.4430  172.5480  138.0920 O   0  0  0  0  0  0  0  0  0  0  0  0
  196.7560  174.3730  137.2320 C   0  0  1  0  0  3  0  0  0  0  0  0
  197.5150  174.2560  138.5640 C   0  0  2  0  0  3  0  0  0  0  0  0
  196.5110  174.8820  139.9540 S   0  0  0  0  0  0  0  0  0  0  0  0
  198.7600  175.0070  138.5100 N   0  0  0  0  0  2  0  0  0  0  0  0
  199.1630  175.2250  139.8870 C   0  0  0  0  0  2  0  0  0  0  0  0
  198.0980  175.3660  142.1160 C   0  0  0  0  0  1  0  0  0  0  0  0
  197.9560  175.7120  140.6500 C   0  0  2  0  0  3  0  0  0  0  0  0
  197.5690  175.7850  135.4710 O   0  0  0  0  0  0  0  0  0  0  0  0
  198.6970  173.8140  135.7630 O   0  0  0  0  0  1  0  0  0  0  0  0
  197.6880  174.7070  136.1070 C   0  0  0  0  0  0  0  0  0  0  0  0
  1  8  1  0  0  0  0
  2 17  1  6  0  0  0
  3  8  1  0  0  0  0
  3 28  1  1  0  0  0
  4 14  1  0  0  0  0
  6  2  1  0  0  0  0
  6 15  1  1  0  0  0
  7 22  1  0  0  0  0
  9 10  2  0  0  0  0
 10  7  1  0  0  0  0
 11  3  1  0  0  0  0
 12 16  1  0  0  0  0
 12  1  1  0  0  0  0
 13  9  1  0  0  0  0
 13  4  2  0  0  0  0
 14  7  2  0  0  0  0
 14 25  1  0  0  0  0
 15 19  1  0  0  0  0
 16  5  2  0  0  0  0
 17  9  1  0  0  0  0
 18 45  1  1  0  0  0
 18 16  1  0  0  0  0
 19 18  1  0  0  0  0
 20  6  1  0  0  0  0
 20  2  1  0  0  0  0
 21  4  1  0  0  0  0
 22 23  1  0  0  0  0
 23 11  1  0  0  0  0
 25 24  1  1  0  0  0
 25 26  1  0  0  0  0
 26 27  1  0  0  0  0
 28 33  1  0  0  0  0
 30 29  1  6  0  0  0
 30 34  1  0  0  0  0
 30 36  1  0  0  0  0
 31 33  1  0  0  0  0
 31 35  1  0  0  0  0
 32 30  1  0  0  0  0
 33 29  1  0  0  0  0
 34 36  1  0  0  0  0
 35 40  1  1  0  0  0
 35 32  1  0  0  0  0
 36 37  1  6  0  0  0
 37 38  1  0  0  0  0
 38 39  1  0  0  0  0
 41 42  2  0  0  0  0
 42 43  1  0  0  0  0
 44 42  1  0  0  0  0
 44 40  1  0  0  0  0
 46 45  1  0  0  0  0
 47 46  1  0  0  0  0
 47 48  1  0  0  0  0
 49 47  2  0  0  0  0
 50 48  1  1  0  0  0
 50 52  1  0  0  0  0
 51 50  1  0  0  0  0
 51 53  1  1  0  0  0
 51 52  1  0  0  0  0
 53 62  1  6  0  0  0
 54 53  1  6  0  0  0
 54 55  1  0  0  0  0
 55 59  1  0  0  0  0
 56 54  1  0  0  0  0
 56 57  1  0  0  0  0
 57 59  1  0  0  0  0
 59 58  1  1  0  0  0
 60 62  2  0  0  0  0
 61 62  1  0  0  0  0
M  END
>  <MODEL>
5

>  <REMARK>
 VINA RESULT:      -5.7      3.892     12.674
  Name = 
  15 active torsions:
  status: ('A' for Active; 'I' for Inactive)
    1  A    between atoms: C_1  and  C_30
    2  A    between atoms: C_4  and  C_53
    3  A    between atoms: C_5  and  N_10
    4  A    between atoms: C_8  and  C_41
    5  A    between atoms: C_17  and  C_30
    6  A    between atoms: O_22  and  C_45
    7  A    between atoms: O_22  and  C_60
    8  A    between atoms: N_24  and  C_41
    9  A    between atoms: C_26  and  C_39
   10  A    between atoms: C_26  and  O_44
   11  A    between atoms: C_30  and  C_34
   12  A    between atoms: C_37  and  C_51
   13  A    between atoms: C_49  and  C_61
   14  A    between atoms: C_51  and  N_52
   15  A    between atoms: C_53  and  C_61
                            x       y       z     vdW  Elec       q    Type
                         _______ _______ _______ _____ _____    ______ ____

>  <TORSDO>
F 15

$$$$
=
 OpenBabel10222418363D

 62 68  0  0  1  0  0  0  0  0999 V2000
  186.4970  177.3640  137.4900 O   0  0  0  0  0  0  0  0  0  0  0  0
  189.1840  177.4090  142.4050 C   0  0  1  0  0  3  0  0  0  0  0  0
  184.6530  178.5000  138.5480 C   0  0  2  0  0  3  0  0  0  0  0  0
  185.7810  178.6480  145.0450 C   0  0  0  0  0  0  0  0  0  0  0  0
  188.8420  178.1780  136.2650 O   0  0  0  0  0  0  0  0  0  0  0  0
  189.9820  176.5340  141.5080 C   0  0  1  0  0  3  0  0  0  0  0  0
  184.8640  177.9160  142.9370 C   0  0  0  0  0  0  0  0  0  0  0  0
  186.0030  178.6250  137.8490 C   0  0  0  0  0  2  0  0  0  0  0  0
  187.0430  177.2640  143.5970 C   0  0  0  0  0  0  0  0  0  0  0  0
  186.0240  177.2450  142.7000 N   0  0  0  0  0  0  0  0  0  0  0  0
  184.8100  177.8570  139.7780 O   0  0  0  0  0  0  0  0  0  0  0  0
  187.7090  177.2750  138.0930 N   0  0  0  0  0  2  0  0  0  0  0  0
  186.9160  177.9660  144.7530 N   0  0  0  0  0  0  0  0  0  0  0  0
  184.7050  178.6420  144.1310 C   0  0  0  0  0  0  0  0  0  0  0  0
  190.4190  177.3200  140.2920 C   0  0  0  0  0  2  0  0  0  0  0  0
  188.9080  177.6560  137.4110 C   0  0  0  0  0  0  0  0  0  0  0  0
  188.3130  176.5490  143.3010 C   0  0  0  0  0  2  0  0  0  0  0  0
  190.2390  177.4970  138.0910 C   0  0  1  0  0  3  0  0  0  0  0  0
  190.1570  176.5750  139.1430 O   0  0  0  0  0  0  0  0  0  0  0  0
  190.5410  177.1220  142.6610 O   0  0  0  0  0  0  0  0  0  0  0  0
  185.7090  179.3880  146.3400 C   0  0  0  0  0  1  0  0  0  0  0  0
  183.7680  177.8680  141.9200 C   0  0  0  0  0  2  0  0  0  0  0  0
  184.1490  178.6790  140.6990 C   0  0  0  0  0  2  0  0  0  0  0  0
  182.3490  178.4230  144.9430 C   0  0  0  0  0  1  0  0  0  0  0  0
  183.4060  179.3630  144.3980 C   0  0  2  0  0  3  0  0  0  0  0  0
  182.9420  180.0080  143.2490 O   0  0  0  0  0  0  0  0  0  0  0  0
  181.5530  180.0290  143.3890 C   0  0  0  0  0  1  0  0  0  0  0  0
  183.6560  177.7440  137.6730 C   0  0  0  0  0  2  0  0  0  0  0  0
  181.4990  177.2970  138.5130 C   0  0  0  0  0  2  0  0  0  0  0  0
  180.0820  177.8290  138.6650 C   0  0  2  0  0  0  0  0  0  0  0  0
  181.7770  178.5460  136.5140 C   0  0  0  0  0  2  0  0  0  0  0  0
  179.4190  178.4340  137.4290 C   0  0  0  0  0  2  0  0  0  0  0  0
  182.3260  178.3060  137.8510 N   0  0  0  0  0  0  0  0  0  0  0  0
  179.9420  178.6600  139.7850 O   0  0  0  0  0  0  0  0  0  0  0  0
  180.4220  179.2660  136.6130 C   0  0  1  0  0  3  0  0  0  0  0  0
  179.2250  177.4440  139.8110 C   0  0  2  0  0  3  0  0  0  0  0  0
  179.8730  176.5520  140.6670 O   0  0  0  0  0  0  0  0  0  0  0  0
  179.1420  175.3690  140.5810 C   0  0  0  0  0  2  0  0  0  0  0  0
  179.8300  174.2830  141.3800 C   0  0  0  0  0  1  0  0  0  0  0  0
  180.5720  180.6610  137.2050 C   0  0  0  0  0  2  0  0  0  0  0  0
  180.5390  183.8390  135.3630 O   0  0  0  0  0  0  0  0  0  0  0  0
  180.4420  183.0460  136.3370 C   0  0  0  0  0  0  0  0  0  0  0  0
  180.0210  183.5710  137.6640 C   0  0  0  0  0  1  0  0  0  0  0  0
  180.7190  181.6560  136.1460 N   0  0  0  0  0  2  0  0  0  0  0  0
  191.3490  177.0900  137.1210 C   0  0  0  0  0  2  0  0  0  0  0  0
  191.4540  175.5770  136.9690 C   0  0  0  0  0  2  0  0  0  0  0  0
  192.5300  175.2100  136.0000 C   0  0  0  0  0  0  0  0  0  0  0  0
  192.9740  173.8530  135.8990 N   0  0  0  0  0  2  0  0  0  0  0  0
  193.0760  176.1120  135.3160 O   0  0  0  0  0  0  0  0  0  0  0  0
  194.0150  173.4170  134.9770 C   0  0  1  0  0  3  0  0  0  0  0  0
  195.2870  173.0340  135.6700 C   0  0  2  0  0  3  0  0  0  0  0  0
  194.3520  172.0740  135.2340 O   0  0  0  0  0  0  0  0  0  0  0  0
  195.2640  173.1140  137.2050 C   0  0  1  0  0  3  0  0  0  0  0  0
  196.1190  172.0020  137.8300 C   0  0  2  0  0  3  0  0  0  0  0  0
  197.8150  172.0120  137.1550 S   0  0  0  0  0  0  0  0  0  0  0  0
  195.5230  170.6980  137.5790 N   0  0  0  0  0  2  0  0  0  0  0  0
  196.5800  169.7230  137.7800 C   0  0  0  0  0  2  0  0  0  0  0  0
  199.0510  169.6410  137.6810 C   0  0  0  0  0  1  0  0  0  0  0  0
  197.8030  170.2100  137.0420 C   0  0  2  0  0  3  0  0  0  0  0  0
  196.6610  175.0580  137.0380 O   0  0  0  0  0  0  0  0  0  0  0  0
  195.1280  175.0810  138.7390 O   0  0  0  0  0  1  0  0  0  0  0  0
  195.7310  174.4680  137.6460 C   0  0  0  0  0  0  0  0  0  0  0  0
  1  8  1  0  0  0  0
  1 12  1  0  0  0  0
  2 20  1  0  0  0  0
  2 17  1  1  0  0  0
  3 28  1  6  0  0  0
  3 11  1  0  0  0  0
  4 21  1  0  0  0  0
  5 16  2  0  0  0  0
  6 15  1  6  0  0  0
  6  2  1  0  0  0  0
  6 20  1  0  0  0  0
  7 14  2  0  0  0  0
  8  3  1  0  0  0  0
  9 13  1  0  0  0  0
 10  7  1  0  0  0  0
 10  9  2  0  0  0  0
 11 23  1  0  0  0  0
 13  4  2  0  0  0  0
 14 25  1  0  0  0  0
 14  4  1  0  0  0  0
 16 18  1  0  0  0  0
 16 12  1  0  0  0  0
 17  9  1  0  0  0  0
 18 45  1  6  0  0  0
 18 19  1  0  0  0  0
 19 15  1  0  0  0  0
 22  7  1  0  0  0  0
 23 22  1  0  0  0  0
 25 24  1  6  0  0  0
 26 27  1  0  0  0  0
 26 25  1  0  0  0  0
 28 33  1  0  0  0  0
 29 30  1  0  0  0  0
 30 32  1  6  0  0  0
 30 34  1  0  0  0  0
 30 36  1  0  0  0  0
 31 35  1  0  0  0  0
 31 33  1  0  0  0  0
 33 29  1  0  0  0  0
 34 36  1  0  0  0  0
 35 40  1  1  0  0  0
 35 32  1  0  0  0  0
 36 37  1  1  0  0  0
 38 37  1  0  0  0  0
 38 39  1  0  0  0  0
 41 42  2  0  0  0  0
 42 43  1  0  0  0  0
 44 42  1  0  0  0  0
 44 40  1  0  0  0  0
 46 45  1  0  0  0  0
 47 46  1  0  0  0  0
 48 47  1  0  0  0  0
 49 47  2  0  0  0  0
 50 52  1  0  0  0  0
 50 51  1  0  0  0  0
 50 48  1  1  0  0  0
 51 53  1  1  0  0  0
 52 51  1  0  0  0  0
 53 62  1  6  0  0  0
 54 53  1  6  0  0  0
 55 54  1  0  0  0  0
 56 57  1  0  0  0  0
 56 54  1  0  0  0  0
 59 55  1  0  0  0  0
 59 58  1  1  0  0  0
 59 57  1  0  0  0  0
 60 62  2  0  0  0  0
 62 61  1  0  0  0  0
M  END
>  <MODEL>
6

>  <REMARK>
 VINA RESULT:      -5.6      3.747     12.305
  Name = 
  15 active torsions:
  status: ('A' for Active; 'I' for Inactive)
    1  A    between atoms: C_1  and  C_30
    2  A    between atoms: C_4  and  C_53
    3  A    between atoms: C_5  and  N_10
    4  A    between atoms: C_8  and  C_41
    5  A    between atoms: C_17  and  C_30
    6  A    between atoms: O_22  and  C_45
    7  A    between atoms: O_22  and  C_60
    8  A    between atoms: N_24  and  C_41
    9  A    between atoms: C_26  and  C_39
   10  A    between atoms: C_26  and  O_44
   11  A    between atoms: C_30  and  C_34
   12  A    between atoms: C_37  and  C_51
   13  A    between atoms: C_49  and  C_61
   14  A    between atoms: C_51  and  N_52
   15  A    between atoms: C_53  and  C_61
                            x       y       z     vdW  Elec       q    Type
                         _______ _______ _______ _____ _____    ______ ____

>  <TORSDO>
F 15

$$$$
=
 OpenBabel10222418363D

 62 68  0  0  1  0  0  0  0  0999 V2000
  189.0500  177.1350  137.0410 O   0  0  0  0  0  0  0  0  0  0  0  0
  184.8760  178.1410  140.6380 C   0  0  1  0  0  3  0  0  0  0  0  0
  190.3680  176.3110  138.8840 C   0  0  2  0  0  3  0  0  0  0  0  0
  187.1260  177.6130  144.4780 C   0  0  0  0  0  0  0  0  0  0  0  0
  187.2090  176.0110  135.3080 O   0  0  0  0  0  0  0  0  0  0  0  0
  184.4730  178.7720  139.3550 C   0  0  1  0  0  3  0  0  0  0  0  0
  188.7330  177.8700  142.6980 C   0  0  0  0  0  0  0  0  0  0  0  0
  189.3250  176.0000  137.8150 C   0  0  0  0  0  2  0  0  0  0  0  0
  186.4990  178.6030  142.4210 C   0  0  0  0  0  0  0  0  0  0  0  0
  187.7590  178.4420  141.9410 N   0  0  0  0  0  0  0  0  0  0  0  0
  189.8450  177.2120  139.8140 O   0  0  0  0  0  0  0  0  0  0  0  0
  187.7130  177.3300  137.1630 N   0  0  0  0  0  2  0  0  0  0  0  0
  186.1930  178.1840  143.6770 N   0  0  0  0  0  0  0  0  0  0  0  0
  188.4430  177.4360  144.0050 C   0  0  0  0  0  0  0  0  0  0  0  0
  184.4250  177.7210  138.2680 C   0  0  0  0  0  2  0  0  0  0  0  0
  186.7920  176.7770  136.2180 C   0  0  0  0  0  0  0  0  0  0  0  0
  185.4430  179.2020  141.5630 C   0  0  0  0  0  2  0  0  0  0  0  0
  185.3210  177.0540  136.3550 C   0  0  1  0  0  3  0  0  0  0  0  0
  185.0970  178.1920  137.1410 O   0  0  0  0  0  0  0  0  0  0  0  0
  183.5290  178.4470  140.3510 O   0  0  0  0  0  0  0  0  0  0  0  0
  186.7190  177.1860  145.8500 C   0  0  0  0  0  1  0  0  0  0  0  0
  190.1070  177.7110  142.1280 C   0  0  0  0  0  2  0  0  0  0  0  0
  190.1130  176.6360  141.0620 C   0  0  0  0  0  2  0  0  0  0  0  0
  189.1740  176.8300  146.3190 C   0  0  0  0  0  1  0  0  0  0  0  0
  189.5370  176.8250  144.8480 C   0  0  2  0  0  3  0  0  0  0  0  0
  190.7560  177.4750  144.6420 O   0  0  0  0  0  0  0  0  0  0  0  0
  191.6330  176.8820  145.5520 C   0  0  0  0  0  1  0  0  0  0  0  0
  191.6410  176.8730  138.2540 C   0  0  0  0  0  2  0  0  0  0  0  0
  193.7870  175.8990  138.2040 C   0  0  0  0  0  2  0  0  0  0  0  0
  194.6510  174.8110  137.5840 C   0  0  2  0  0  0  0  0  0  0  0  0
  192.4640  175.9990  136.2350 C   0  0  0  0  0  2  0  0  0  0  0  0
  194.5960  174.6450  136.0670 C   0  0  0  0  0  2  0  0  0  0  0  0
  192.4230  175.7870  137.6840 N   0  0  0  0  0  0  0  0  0  0  0  0
  194.5160  173.5830  138.2440 O   0  0  0  0  0  0  0  0  0  0  0  0
  193.1620  174.8170  135.5410 C   0  0  1  0  0  3  0  0  0  0  0  0
  195.7820  174.2010  138.3230 C   0  0  2  0  0  3  0  0  0  0  0  0
  195.9350  174.7620  139.5920 O   0  0  0  0  0  0  0  0  0  0  0  0
  197.3110  174.7890  139.8140 C   0  0  0  0  0  2  0  0  0  0  0  0
  198.0350  175.0440  138.5090 C   0  0  0  0  0  1  0  0  0  0  0  0
  192.3700  173.5260  135.7030 C   0  0  0  0  0  2  0  0  0  0  0  0
  188.7920  173.0670  135.0080 O   0  0  0  0  0  0  0  0  0  0  0  0
  190.0050  172.7650  135.1710 C   0  0  0  0  0  0  0  0  0  0  0  0
  190.4420  171.3610  134.9440 C   0  0  0  0  0  1  0  0  0  0  0  0
  190.9400  173.7770  135.5530 N   0  0  0  0  0  2  0  0  0  0  0  0
  184.6240  177.2050  135.0020 C   0  0  0  0  0  2  0  0  0  0  0  0
  183.7790  175.9860  134.6510 C   0  0  0  0  0  2  0  0  0  0  0  0
  182.4550  176.0360  135.3410 C   0  0  0  0  0  0  0  0  0  0  0  0
  181.5130  174.9730  135.1670 N   0  0  0  0  0  2  0  0  0  0  0  0
  182.1580  177.0440  136.0290 O   0  0  0  0  0  0  0  0  0  0  0  0
  180.2040  174.9490  135.8080 C   0  0  1  0  0  3  0  0  0  0  0  0
  179.6030  173.5770  135.8590 C   0  0  2  0  0  3  0  0  0  0  0  0
  180.2530  174.1530  136.9690 O   0  0  0  0  0  0  0  0  0  0  0  0
  180.4700  172.4440  135.2860 C   0  0  1  0  0  3  0  0  0  0  0  0
  181.8640  172.4340  135.9320 C   0  0  2  0  0  3  0  0  0  0  0  0
  183.1650  172.1140  134.6930 S   0  0  0  0  0  0  0  0  0  0  0  0
  181.9400  171.4120  136.9650 N   0  0  0  0  0  2  0  0  0  0  0  0
  183.3530  171.1610  137.1850 C   0  0  0  0  0  2  0  0  0  0  0  0
  185.4750  171.3600  135.9280 C   0  0  0  0  0  1  0  0  0  0  0  0
  184.0080  170.9990  135.8360 C   0  0  2  0  0  3  0  0  0  0  0  0
  178.9700  170.9630  136.4300 O   0  0  0  0  0  1  0  0  0  0  0  0
  180.0210  170.0870  134.5940 O   0  0  0  0  0  0  0  0  0  0  0  0
  179.7750  171.1310  135.4790 C   0  0  0  0  0  0  0  0  0  0  0  0
  1 12  1  0  0  0  0
  1  8  1  0  0  0  0
  2 17  1  1  0  0  0
  3 28  1  6  0  0  0
  3 11  1  0  0  0  0
  4 21  1  0  0  0  0
  5 16  2  0  0  0  0
  6 15  1  6  0  0  0
  6 20  1  0  0  0  0
  6  2  1  0  0  0  0
  7 14  2  0  0  0  0
  8  3  1  0  0  0  0
  9 13  1  0  0  0  0
 10  9  2  0  0  0  0
 10  7  1  0  0  0  0
 11 23  1  0  0  0  0
 13  4  2  0  0  0  0
 14  4  1  0  0  0  0
 14 25  1  0  0  0  0
 16 18  1  0  0  0  0
 16 12  1  0  0  0  0
 17  9  1  0  0  0  0
 18 45  1  6  0  0  0
 18 19  1  0  0  0  0
 19 15  1  0  0  0  0
 20  2  1  0  0  0  0
 22  7  1  0  0  0  0
 23 22  1  0  0  0  0
 25 24  1  1  0  0  0
 26 25  1  0  0  0  0
 26 27  1  0  0  0  0
 30 32  1  6  0  0  0
 30 29  1  0  0  0  0
 30 34  1  0  0  0  0
 30 36  1  0  0  0  0
 31 33  1  0  0  0  0
 33 29  1  0  0  0  0
 33 28  1  0  0  0  0
 34 36  1  0  0  0  0
 35 40  1  1  0  0  0
 35 32  1  0  0  0  0
 35 31  1  0  0  0  0
 36 37  1  1  0  0  0
 37 38  1  0  0  0  0
 39 38  1  0  0  0  0
 41 42  2  0  0  0  0
 42 44  1  0  0  0  0
 43 42  1  0  0  0  0
 44 40  1  0  0  0  0
 46 45  1  0  0  0  0
 46 47  1  0  0  0  0
 47 49  2  0  0  0  0
 48 47  1  0  0  0  0
 50 48  1  6  0  0  0
 50 51  1  0  0  0  0
 50 52  1  0  0  0  0
 51 53  1  6  0  0  0
 51 52  1  0  0  0  0
 53 62  1  1  0  0  0
 54 53  1  6  0  0  0
 54 56  1  0  0  0  0
 55 59  1  0  0  0  0
 55 54  1  0  0  0  0
 56 57  1  0  0  0  0
 59 58  1  1  0  0  0
 59 57  1  0  0  0  0
 61 62  2  0  0  0  0
 62 60  1  0  0  0  0
M  END
>  <MODEL>
7

>  <REMARK>
 VINA RESULT:      -5.5      3.184      4.927
  Name = 
  15 active torsions:
  status: ('A' for Active; 'I' for Inactive)
    1  A    between atoms: C_1  and  C_30
    2  A    between atoms: C_4  and  C_53
    3  A    between atoms: C_5  and  N_10
    4  A    between atoms: C_8  and  C_41
    5  A    between atoms: C_17  and  C_30
    6  A    between atoms: O_22  and  C_45
    7  A    between atoms: O_22  and  C_60
    8  A    between atoms: N_24  and  C_41
    9  A    between atoms: C_26  and  C_39
   10  A    between atoms: C_26  and  O_44
   11  A    between atoms: C_30  and  C_34
   12  A    between atoms: C_37  and  C_51
   13  A    between atoms: C_49  and  C_61
   14  A    between atoms: C_51  and  N_52
   15  A    between atoms: C_53  and  C_61
                            x       y       z     vdW  Elec       q    Type
                         _______ _______ _______ _____ _____    ______ ____

>  <TORSDO>
F 15

$$$$
=
 OpenBabel10222418363D

 62 68  0  0  1  0  0  0  0  0999 V2000
  184.5330  179.0160  138.8570 O   0  0  0  0  0  0  0  0  0  0  0  0
  181.1650  174.8130  137.3170 C   0  0  1  0  0  3  0  0  0  0  0  0
  186.3170  177.9700  137.6180 C   0  0  2  0  0  3  0  0  0  0  0  0
  184.2550  172.0140  135.6740 C   0  0  0  0  0  0  0  0  0  0  0  0
  182.5070  180.7940  138.2280 O   0  0  0  0  0  0  0  0  0  0  0  0
  180.4140  175.5890  138.3380 C   0  0  1  0  0  3  0  0  0  0  0  0
  185.3860  173.6800  137.0030 C   0  0  0  0  0  0  0  0  0  0  0  0
  185.1100  178.9020  137.5850 C   0  0  0  0  0  2  0  0  0  0  0  0
  183.0720  173.2690  137.2970 C   0  0  0  0  0  0  0  0  0  0  0  0
  184.2050  173.9410  137.6260 N   0  0  0  0  0  0  0  0  0  0  0  0
  185.9050  176.6650  137.8990 O   0  0  0  0  0  0  0  0  0  0  0  0
  183.2420  178.6300  138.6950 N   0  0  0  0  0  2  0  0  0  0  0  0
  183.1050  172.3190  136.3250 N   0  0  0  0  0  0  0  0  0  0  0  0
  185.4470  172.6950  136.0000 C   0  0  0  0  0  0  0  0  0  0  0  0
  180.2580  177.0190  137.8720 C   0  0  0  0  0  2  0  0  0  0  0  0
  182.2110  179.5840  138.4210 C   0  0  0  0  0  0  0  0  0  0  0  0
  181.7870  173.5930  137.9700 C   0  0  0  0  0  2  0  0  0  0  0  0
  180.7840  179.1280  138.2980 C   0  0  1  0  0  3  0  0  0  0  0  0
  180.6000  177.8830  138.9120 O   0  0  0  0  0  0  0  0  0  0  0  0
  179.7610  174.7340  137.4270 O   0  0  0  0  0  0  0  0  0  0  0  0
  184.2180  170.9520  134.6250 C   0  0  0  0  0  1  0  0  0  0  0  0
  186.6090  174.4460  137.3970 C   0  0  0  0  0  2  0  0  0  0  0  0
  186.5110  175.8770  136.9130 C   0  0  0  0  0  2  0  0  0  0  0  0
  187.8130  171.9530  136.3340 C   0  0  0  0  0  1  0  0  0  0  0  0
  186.7670  172.3940  135.3300 C   0  0  2  0  0  3  0  0  0  0  0  0
  187.2230  173.4930  134.5980 O   0  0  0  0  0  0  0  0  0  0  0  0
  188.6130  173.3680  134.5970 C   0  0  0  0  0  1  0  0  0  0  0  0
  187.3400  178.4410  138.6490 C   0  0  0  0  0  2  0  0  0  0  0  0
  189.3850  177.9540  139.7140 C   0  0  0  0  0  2  0  0  0  0  0  0
  190.6570  177.1210  139.6550 C   0  0  2  0  0  0  0  0  0  0  0  0
  189.2190  177.9030  137.3470 C   0  0  0  0  0  2  0  0  0  0  0  0
  191.3940  177.0500  138.3200 C   0  0  0  0  0  2  0  0  0  0  0  0
  188.5170  177.5890  138.5940 N   0  0  0  0  0  0  0  0  0  0  0  0
  190.4870  175.8490  140.2190 O   0  0  0  0  0  0  0  0  0  0  0  0
  190.4070  176.9480  137.1460 C   0  0  1  0  0  3  0  0  0  0  0  0
  191.3790  176.7170  140.8860 C   0  0  2  0  0  3  0  0  0  0  0  0
  190.7610  177.2100  142.0360 O   0  0  0  0  0  0  0  0  0  0  0  0
  190.4340  176.0810  142.7850 C   0  0  0  0  0  2  0  0  0  0  0  0
  191.3200  176.0070  144.0100 C   0  0  0  0  0  1  0  0  0  0  0  0
  189.9430  175.5100  136.9560 C   0  0  0  0  0  2  0  0  0  0  0  0
  192.8210  173.2400  136.7050 O   0  0  0  0  0  0  0  0  0  0  0  0
  191.9590  174.0870  136.3480 C   0  0  0  0  0  0  0  0  0  0  0  0
  191.9350  174.5490  134.9340 C   0  0  0  0  0  1  0  0  0  0  0  0
  191.0110  174.5760  137.3000 N   0  0  0  0  0  2  0  0  0  0  0  0
  179.7920  180.1450  138.8660 C   0  0  0  0  0  2  0  0  0  0  0  0
  180.3270  180.8340  140.1160 C   0  0  0  0  0  2  0  0  0  0  0  0
  180.0930  179.9950  141.3300 C   0  0  0  0  0  0  0  0  0  0  0  0
  181.1640  179.2310  141.8930 N   0  0  0  0  0  2  0  0  0  0  0  0
  178.9370  179.9270  141.8180 O   0  0  0  0  0  0  0  0  0  0  0  0
  181.0160  178.3930  143.0760 C   0  0  1  0  0  3  0  0  0  0  0  0
  182.2510  178.3540  143.9240 C   0  0  2  0  0  3  0  0  0  0  0  0
  181.1500  179.1760  144.2380 O   0  0  0  0  0  0  0  0  0  0  0  0
  183.4220  179.2250  143.4410 C   0  0  1  0  0  3  0  0  0  0  0  0
  184.5210  179.3160  144.5110 C   0  0  2  0  0  3  0  0  0  0  0  0
  185.9070  178.1910  144.1340 S   0  0  0  0  0  0  0  0  0  0  0  0
  183.9860  178.9780  145.8220 N   0  0  0  0  0  2  0  0  0  0  0  0
  185.1290  178.6440  146.6530 C   0  0  0  0  0  2  0  0  0  0  0  0
  187.4390  177.8080  146.3550 C   0  0  0  0  0  1  0  0  0  0  0  0
  186.0100  177.7020  145.8690 C   0  0  2  0  0  3  0  0  0  0  0  0
  183.5820  177.5580  141.7240 O   0  0  0  0  0  1  0  0  0  0  0  0
  184.8950  179.4110  141.4330 O   0  0  0  0  0  0  0  0  0  0  0  0
  183.9620  178.6750  142.1560 C   0  0  0  0  0  0  0  0  0  0  0  0
  2 20  1  0  0  0  0
  2 17  1  1  0  0  0
  2  6  1  0  0  0  0
  3 11  1  0  0  0  0
  3 28  1  1  0  0  0
  4 14  1  0  0  0  0
  4 13  2  0  0  0  0
  5 16  2  0  0  0  0
  6 15  1  6  0  0  0
  7 22  1  0  0  0  0
  7 10  1  0  0  0  0
  8  3  1  0  0  0  0
  8  1  1  0  0  0  0
  9 10  2  0  0  0  0
  9 17  1  0  0  0  0
 12  1  1  0  0  0  0
 13  9  1  0  0  0  0
 14  7  2  0  0  0  0
 15 19  1  0  0  0  0
 16 12  1  0  0  0  0
 18 16  1  0  0  0  0
 18 45  1  1  0  0  0
 18 19  1  0  0  0  0
 20  6  1  0  0  0  0
 21  4  1  0  0  0  0
 23 22  1  0  0  0  0
 23 11  1  0  0  0  0
 25 14  1  0  0  0  0
 25 24  1  1  0  0  0
 26 25  1  0  0  0  0
 27 26  1  0  0  0  0
 30 32  1  6  0  0  0
 30 29  1  0  0  0  0
 30 34  1  0  0  0  0
 30 36  1  0  0  0  0
 31 33  1  0  0  0  0
 33 28  1  0  0  0  0
 33 29  1  0  0  0  0
 34 36  1  0  0  0  0
 35 40  1  1  0  0  0
 35 31  1  0  0  0  0
 35 32  1  0  0  0  0
 36 37  1  1  0  0  0
 37 38  1  0  0  0  0
 38 39  1  0  0  0  0
 40 44  1  0  0  0  0
 42 41  2  0  0  0  0
 42 44  1  0  0  0  0
 43 42  1  0  0  0  0
 45 46  1  0  0  0  0
 46 47  1  0  0  0  0
 47 49  2  0  0  0  0
 47 48  1  0  0  0  0
 50 48  1  6  0  0  0
 50 51  1  0  0  0  0
 50 52  1  0  0  0  0
 51 53  1  6  0  0  0
 51 52  1  0  0  0  0
 53 62  1  6  0  0  0
 54 53  1  6  0  0  0
 54 56  1  0  0  0  0
 55 54  1  0  0  0  0
 55 59  1  0  0  0  0
 56 57  1  0  0  0  0
 59 58  1  1  0  0  0
 59 57  1  0  0  0  0
 60 62  1  0  0  0  0
 61 62  2  0  0  0  0
M  END
>  <MODEL>
8

>  <REMARK>
 VINA RESULT:      -5.4      2.910      7.281
  Name = 
  15 active torsions:
  status: ('A' for Active; 'I' for Inactive)
    1  A    between atoms: C_1  and  C_30
    2  A    between atoms: C_4  and  C_53
    3  A    between atoms: C_5  and  N_10
    4  A    between atoms: C_8  and  C_41
    5  A    between atoms: C_17  and  C_30
    6  A    between atoms: O_22  and  C_45
    7  A    between atoms: O_22  and  C_60
    8  A    between atoms: N_24  and  C_41
    9  A    between atoms: C_26  and  C_39
   10  A    between atoms: C_26  and  O_44
   11  A    between atoms: C_30  and  C_34
   12  A    between atoms: C_37  and  C_51
   13  A    between atoms: C_49  and  C_61
   14  A    between atoms: C_51  and  N_52
   15  A    between atoms: C_53  and  C_61
                            x       y       z     vdW  Elec       q    Type
                         _______ _______ _______ _____ _____    ______ ____

>  <TORSDO>
F 15

$$$$
=
 OpenBabel10222418363D

 62 68  0  0  1  0  0  0  0  0999 V2000
  188.6690  178.2170  140.6940 O   0  0  0  0  0  0  0  0  0  0  0  0
  187.5250  176.3020  135.5570 C   0  0  1  0  0  3  0  0  0  0  0  0
  186.3080  178.1620  141.1830 C   0  0  2  0  0  3  0  0  0  0  0  0
  183.0780  176.8580  135.5820 C   0  0  0  0  0  0  0  0  0  0  0  0
  190.7350  176.3830  140.8570 O   0  0  0  0  0  0  0  0  0  0  0  0
  188.9600  176.6860  135.5420 C   0  0  1  0  0  3  0  0  0  0  0  0
  184.0040  178.1510  137.3960 C   0  0  0  0  0  0  0  0  0  0  0  0
  187.6260  177.3940  141.1380 C   0  0  0  0  0  2  0  0  0  0  0  0
  185.3660  177.4690  135.5830 C   0  0  0  0  0  0  0  0  0  0  0  0
  185.2110  178.1110  136.7690 N   0  0  0  0  0  0  0  0  0  0  0  0
  185.9140  178.5080  139.8890 O   0  0  0  0  0  0  0  0  0  0  0  0
  189.1780  177.5880  139.6060 N   0  0  0  0  0  2  0  0  0  0  0  0
  184.3060  176.8460  135.0040 N   0  0  0  0  0  0  0  0  0  0  0  0
  182.8900  177.5220  136.8130 C   0  0  0  0  0  0  0  0  0  0  0  0
  189.7050  175.8990  136.5970 C   0  0  0  0  0  2  0  0  0  0  0  0
  190.2820  176.6840  139.7190 C   0  0  0  0  0  0  0  0  0  0  0  0
  186.7020  177.4120  134.9320 C   0  0  0  0  0  2  0  0  0  0  0  0
  190.8530  176.0420  138.4870 C   0  0  1  0  0  3  0  0  0  0  0  0
  190.5080  176.7660  137.3380 O   0  0  0  0  0  0  0  0  0  0  0  0
  188.4220  175.7910  134.5950 O   0  0  0  0  0  0  0  0  0  0  0  0
  181.9570  176.1620  134.8840 C   0  0  0  0  0  1  0  0  0  0  0  0
  183.8800  178.8690  138.7020 C   0  0  0  0  0  2  0  0  0  0  0  0
  184.5790  178.0920  139.7980 C   0  0  0  0  0  2  0  0  0  0  0  0
  181.1550  176.2500  138.0900 C   0  0  0  0  0  1  0  0  0  0  0  0
  181.5480  177.5910  137.5030 C   0  0  2  0  0  3  0  0  0  0  0  0
  180.5580  178.0560  136.6350 O   0  0  0  0  0  0  0  0  0  0  0  0
  179.3630  177.8930  137.3390 C   0  0  0  0  0  1  0  0  0  0  0  0
  186.4360  179.4090  142.0540 C   0  0  0  0  0  2  0  0  0  0  0  0
  186.3640  178.6720  144.2920 C   0  0  0  0  0  2  0  0  0  0  0  0
  185.4780  178.4690  145.5130 C   0  0  2  0  0  0  0  0  0  0  0  0
  184.4970  178.3570  142.8600 C   0  0  0  0  0  2  0  0  0  0  0  0
  184.1270  177.7910  145.2990 C   0  0  0  0  0  2  0  0  0  0  0  0
  185.5760  179.2810  143.2190 N   0  0  0  0  0  0  0  0  0  0  0  0
  185.3570  179.6330  146.2820 O   0  0  0  0  0  0  0  0  0  0  0  0
  183.4650  178.2700  143.9960 C   0  0  1  0  0  3  0  0  0  0  0  0
  186.0220  178.5470  146.8900 C   0  0  2  0  0  3  0  0  0  0  0  0
  187.3950  178.7980  146.8910 O   0  0  0  0  0  0  0  0  0  0  0  0
  187.9040  178.0310  147.9380 C   0  0  0  0  0  2  0  0  0  0  0  0
  189.2990  177.5570  147.5940 C   0  0  0  0  0  1  0  0  0  0  0  0
  182.7550  179.6000  144.2100 C   0  0  0  0  0  2  0  0  0  0  0  0
  179.9060  179.6580  141.8920 O   0  0  0  0  0  0  0  0  0  0  0  0
  180.5720  179.3890  142.9270 C   0  0  0  0  0  0  0  0  0  0  0  0
  179.9730  178.5130  143.9700 C   0  0  0  0  0  1  0  0  0  0  0  0
  181.8950  179.9130  143.0730 N   0  0  0  0  0  2  0  0  0  0  0  0
  192.3720  175.8730  138.5630 C   0  0  0  0  0  2  0  0  0  0  0  0
  193.1120  176.9910  137.8390 C   0  0  0  0  0  2  0  0  0  0  0  0
  193.5820  176.5390  136.4950 C   0  0  0  0  0  0  0  0  0  0  0  0
  194.9820  176.4210  136.2250 N   0  0  0  0  0  2  0  0  0  0  0  0
  192.7370  176.3160  135.5910 O   0  0  0  0  0  0  0  0  0  0  0  0
  195.5170  175.9830  134.9410 C   0  0  1  0  0  3  0  0  0  0  0  0
  196.4230  174.7960  135.0590 C   0  0  2  0  0  3  0  0  0  0  0  0
  195.0770  174.6760  134.6590 O   0  0  0  0  0  0  0  0  0  0  0  0
  196.5920  174.2200  136.4740 C   0  0  1  0  0  3  0  0  0  0  0  0
  196.3720  172.7000  136.4830 C   0  0  2  0  0  3  0  0  0  0  0  0
  194.7480  172.2620  135.7750 S   0  0  0  0  0  0  0  0  0  0  0  0
  196.4470  172.1810  137.8400 N   0  0  0  0  0  2  0  0  0  0  0  0
  195.7930  170.8850  137.8160 C   0  0  0  0  0  2  0  0  0  0  0  0
  194.0720  169.7160  136.4760 C   0  0  0  0  0  1  0  0  0  0  0  0
  194.4860  171.0410  137.0800 C   0  0  2  0  0  3  0  0  0  0  0  0
  198.9890  174.1310  136.4540 O   0  0  0  0  0  0  0  0  0  0  0  0
  198.0570  175.4030  138.1140 O   0  0  0  0  0  1  0  0  0  0  0  0
  197.9480  174.5740  137.0040 C   0  0  0  0  0  0  0  0  0  0  0  0
  1  8  1  0  0  0  0
  2 17  1  6  0  0  0
  3 28  1  1  0  0  0
  4 14  1  0  0  0  0
  6  2  1  0  0  0  0
  6 15  1  1  0  0  0
  7 22  1  0  0  0  0
  8  3  1  0  0  0  0
  9 10  2  0  0  0  0
 10  7  1  0  0  0  0
 11  3  1  0  0  0  0
 12 16  1  0  0  0  0
 12  1  1  0  0  0  0
 13  4  2  0  0  0  0
 13  9  1  0  0  0  0
 14  7  2  0  0  0  0
 14 25  1  0  0  0  0
 15 19  1  0  0  0  0
 16  5  2  0  0  0  0
 17  9  1  0  0  0  0
 18 45  1  1  0  0  0
 18 16  1  0  0  0  0
 19 18  1  0  0  0  0
 20  6  1  0  0  0  0
 20  2  1  0  0  0  0
 21  4  1  0  0  0  0
 22 23  1  0  0  0  0
 23 11  1  0  0  0  0
 25 24  1  6  0  0  0
 26 27  1  0  0  0  0
 26 25  1  0  0  0  0
 28 33  1  0  0  0  0
 30 29  1  6  0  0  0
 30 34  1  0  0  0  0
 30 36  1  0  0  0  0
 31 33  1  0  0  0  0
 31 35  1  0  0  0  0
 32 30  1  0  0  0  0
 33 29  1  0  0  0  0
 34 36  1  0  0  0  0
 35 40  1  1  0  0  0
 35 32  1  0  0  0  0
 36 37  1  6  0  0  0
 37 38  1  0  0  0  0
 39 38  1  0  0  0  0
 41 42  2  0  0  0  0
 42 44  1  0  0  0  0
 42 43  1  0  0  0  0
 44 40  1  0  0  0  0
 46 45  1  0  0  0  0
 47 46  1  0  0  0  0
 48 47  1  0  0  0  0
 49 47  2  0  0  0  0
 50 51  1  0  0  0  0
 50 48  1  1  0  0  0
 51 53  1  1  0  0  0
 52 50  1  0  0  0  0
 52 51  1  0  0  0  0
 53 62  1  6  0  0  0
 54 53  1  1  0  0  0
 54 56  1  0  0  0  0
 55 54  1  0  0  0  0
 55 59  1  0  0  0  0
 57 56  1  0  0  0  0
 59 58  1  6  0  0  0
 59 57  1  0  0  0  0
 60 62  2  0  0  0  0
 62 61  1  0  0  0  0
M  END
>  <MODEL>
9

>  <REMARK>
 VINA RESULT:      -4.9      3.860     12.549
  Name = 
  15 active torsions:
  status: ('A' for Active; 'I' for Inactive)
    1  A    between atoms: C_1  and  C_30
    2  A    between atoms: C_4  and  C_53
    3  A    between atoms: C_5  and  N_10
    4  A    between atoms: C_8  and  C_41
    5  A    between atoms: C_17  and  C_30
    6  A    between atoms: O_22  and  C_45
    7  A    between atoms: O_22  and  C_60
    8  A    between atoms: N_24  and  C_41
    9  A    between atoms: C_26  and  C_39
   10  A    between atoms: C_26  and  O_44
   11  A    between atoms: C_30  and  C_34
   12  A    between atoms: C_37  and  C_51
   13  A    between atoms: C_49  and  C_61
   14  A    between atoms: C_51  and  N_52
   15  A    between atoms: C_53  and  C_61
                            x       y       z     vdW  Elec       q    Type
                         _______ _______ _______ _____ _____    ______ ____

>  <TORSDO>
F 15

$$$$
