=
 OpenBabel10222415403D

 40 46  0  0  1  0  0  0  0  0999 V2000
  184.0110  178.3280  139.1840 C   0  0  0  0  0  3  0  0  0  0  0  0
  182.0200  176.6880  140.0180 S   0  0  0  0  0  0  0  0  0  0  0  0
  181.3190  179.1000  141.0680 N   0  0  0  0  0  2  0  0  0  0  0  0
  182.4740  178.2210  140.8550 C   0  0  2  0  0  0  0  0  0  0  0  0
  183.3910  176.9990  138.8330 C   0  0  1  0  0  3  0  0  0  0  0  0
  183.5410  178.9240  140.2120 N   0  0  0  0  0  0  0  0  0  0  0  0
  182.0520  178.5330  142.2230 C   0  0  1  0  0  3  0  0  0  0  0  0
  182.9460  176.9000  137.3510 C   0  0  0  0  0  0  0  0  0  0  0  0
  182.1800  178.1550  136.9690 C   0  0  0  0  0  1  0  0  0  0  0  0
  182.0180  175.7050  137.1510 C   0  0  0  0  0  1  0  0  0  0  0  0
  187.4040  177.4290  135.9740 C   0  0  2  0  0  3  0  0  0  0  0  0
  188.9530  178.9930  137.1100 C   0  0  0  0  0  1  0  0  0  0  0  0
  188.6780  175.1420  135.0550 C   0  0  0  0  0  2  0  0  0  0  0  0
  184.1570  177.2260  135.0370 C   0  0  0  0  0  3  0  0  0  0  0  0
  185.3080  176.4030  136.8170 N   0  0  0  0  0  0  0  0  0  0  0  0
  186.8470  174.8040  135.2090 S   0  0  0  0  0  0  0  0  0  0  0  0
  188.1930  176.6300  137.0100 C   0  0  2  0  0  3  0  0  0  0  0  0
  185.3920  177.0500  134.5940 C   0  0  0  0  0  3  0  0  0  0  0  0
  187.7740  178.0590  137.2930 C   0  0  2  0  0  3  0  0  0  0  0  0
  186.2340  176.4900  135.6940 C   0  0  2  0  0  0  0  0  0  0  0  0
  189.2890  176.1130  136.1020 C   0  0  0  0  0  2  0  0  0  0  0  0
  184.1380  176.7900  136.4260 C   0  0  0  0  0  0  0  0  0  0  0  0
  182.9350  179.5910  142.8680 C   0  0  0  0  0  2  0  0  0  0  0  0
  186.1050  179.3420  142.4210 C   0  0  0  0  0  1  0  0  0  0  0  0
  186.4090  177.5660  145.3180 N   0  0  0  0  0  0  0  0  0  0  0  0
  183.4150  179.1150  144.1560 N   0  0  0  0  0  2  0  0  0  0  0  0
  186.7180  177.5050  143.9320 C   0  0  0  0  0  0  0  0  0  0  0  0
  184.7050  178.5170  144.3050 C   0  0  0  0  0  0  0  0  0  0  0  0
  185.1770  178.2030  145.4680 N   0  0  0  0  0  0  0  0  0  0  0  0
  187.6310  176.6910  143.4110 C   0  0  0  0  0  2  0  0  0  0  0  0
  185.5990  178.1120  143.1590 C   0  0  1  0  0  3  0  0  0  0  0  0
  188.0020  178.0050  148.6730 N   0  0  0  0  0  2  0  0  0  0  0  0
  189.3870  178.0960  148.2180 C   0  0  0  0  0  2  0  0  0  0  0  0
  187.1190  178.3020  147.5490 C   0  0  0  0  0  2  0  0  0  0  0  0
  187.2840  177.2560  146.4440 C   0  0  2  0  0  3  0  0  0  0  0  0
  189.6630  177.0060  147.1870 C   0  0  1  0  0  3  0  0  0  0  0  0
  188.7410  177.1780  145.9860 C   0  0  0  0  0  2  0  0  0  0  0  0
  191.0930  177.0280  146.7640 C   0  0  0  0  0  0  0  0  0  0  0  0
  191.9880  176.6860  147.5790 O   0  0  0  0  0  1  0  0  0  0  0  0
  191.4460  177.3960  145.4690 O   0  0  0  0  0  0  0  0  0  0  0  0
  1  6  2  0  0  0  0
  3  7  1  0  0  0  0
  4  2  1  6  0  0  0
  4  3  1  0  0  0  0
  4  7  1  0  0  0  0
  5  8  1  6  0  0  0
  5  1  1  0  0  0  0
  5  2  1  0  0  0  0
  6  4  1  0  0  0  0
  7 23  1  1  0  0  0
  9  8  1  0  0  0  0
 10  8  1  0  0  0  0
 11 17  1  0  0  0  0
 11 19  1  0  0  0  0
 12 19  1  0  0  0  0
 13 16  1  0  0  0  0
 13 21  1  0  0  0  0
 14 22  1  0  0  0  0
 16 20  1  0  0  0  0
 17 19  1  0  0  0  0
 18 14  2  0  0  0  0
 18 20  1  0  0  0  0
 20 11  1  0  0  0  0
 20 15  1  0  0  0  0
 21 17  1  0  0  0  0
 22 15  2  0  0  0  0
 22  8  1  0  0  0  0
 23 26  1  0  0  0  0
 24 31  1  0  0  0  0
 25 29  1  0  0  0  0
 25 35  1  0  0  0  0
 26 28  1  0  0  0  0
 27 25  1  0  0  0  0
 28 29  2  0  0  0  0
 30 27  2  0  0  0  0
 31 27  1  0  0  0  0
 31 28  1  0  0  0  0
 33 32  1  0  0  0  0
 34 32  1  0  0  0  0
 35 34  1  0  0  0  0
 36 33  1  0  0  0  0
 37 35  1  0  0  0  0
 37 36  1  0  0  0  0
 38 36  1  0  0  0  0
 38 39  1  0  0  0  0
 40 38  2  0  0  0  0
M  END
>  <MODEL>
1

>  <REMARK>
 VINA RESULT:      -8.9      0.000      0.000
  Name = 
  6 active torsions:
  status: ('A' for Active; 'I' for Inactive)
    1  A    between atoms: N_10  and  C_16
    2  A    between atoms: N_13  and  C_24
    3  A    between atoms: C_17  and  C_31
    4  A    between atoms: C_17  and  C_34
    5  A    between atoms: C_19  and  C_28
    6  A    between atoms: C_24  and  C_39
                            x       y       z     vdW  Elec       q    Type
                         _______ _______ _______ _____ _____    ______ ____

>  <TORSDO>
F 6

$$$$
=
 OpenBabel10222415403D

 40 46  0  0  1  0  0  0  0  0999 V2000
  182.3720  176.7650  139.1740 C   0  0  0  0  0  3  0  0  0  0  0  0
  180.0760  176.9070  140.6080 S   0  0  0  0  0  0  0  0  0  0  0  0
  181.1410  179.3960  140.8920 N   0  0  0  0  0  2  0  0  0  0  0  0
  181.5030  177.9740  140.8910 C   0  0  2  0  0  0  0  0  0  0  0  0
  181.0470  176.0560  139.2980 C   0  0  1  0  0  3  0  0  0  0  0  0
  182.5860  177.7230  139.9910 N   0  0  0  0  0  0  0  0  0  0  0  0
  181.6770  178.7590  142.1160 C   0  0  1  0  0  3  0  0  0  0  0  0
  180.2830  175.9400  137.9540 C   0  0  0  0  0  0  0  0  0  0  0  0
  180.0230  177.3320  137.4010 C   0  0  0  0  0  1  0  0  0  0  0  0
  178.9320  175.2600  138.1650 C   0  0  0  0  0  1  0  0  0  0  0  0
  183.8150  173.3120  136.3240 C   0  0  2  0  0  3  0  0  0  0  0  0
  185.9140  172.9950  137.6010 C   0  0  0  0  0  1  0  0  0  0  0  0
  183.0940  171.0590  134.8760 C   0  0  0  0  0  2  0  0  0  0  0  0
  181.5360  175.7220  135.6510 C   0  0  0  0  0  3  0  0  0  0  0  0
  181.5720  173.9990  137.1330 N   0  0  0  0  0  0  0  0  0  0  0  0
  181.5890  172.1380  135.1200 S   0  0  0  0  0  0  0  0  0  0  0  0
  183.6850  172.0120  137.1150 C   0  0  2  0  0  3  0  0  0  0  0  0
  182.2850  174.7940  135.0760 C   0  0  0  0  0  3  0  0  0  0  0  0
  184.4170  173.2020  137.7020 C   0  0  2  0  0  3  0  0  0  0  0  0
  182.3590  173.6000  135.9720 C   0  0  2  0  0  0  0  0  0  0  0  0
  184.1300  171.0500  136.0330 C   0  0  0  0  0  2  0  0  0  0  0  0
  181.0910  175.1810  136.9260 C   0  0  0  0  0  0  0  0  0  0  0  0
  183.1280  179.1610  142.3380 C   0  0  0  0  0  2  0  0  0  0  0  0
  186.3230  178.9820  142.0880 C   0  0  0  0  0  1  0  0  0  0  0  0
  186.5060  177.4090  145.1100 N   0  0  0  0  0  0  0  0  0  0  0  0
  183.5440  178.7840  143.6800 N   0  0  0  0  0  2  0  0  0  0  0  0
  186.8980  177.2670  143.7500 C   0  0  0  0  0  0  0  0  0  0  0  0
  184.8400  178.2390  143.9410 C   0  0  0  0  0  0  0  0  0  0  0  0
  185.2520  178.0160  145.1460 N   0  0  0  0  0  0  0  0  0  0  0  0
  187.8610  176.4490  143.3370 C   0  0  0  0  0  2  0  0  0  0  0  0
  185.8090  177.7870  142.8760 C   0  0  1  0  0  3  0  0  0  0  0  0
  187.9070  178.1270  148.5020 N   0  0  0  0  0  2  0  0  0  0  0  0
  189.3140  178.2080  148.1160 C   0  0  0  0  0  2  0  0  0  0  0  0
  187.0840  178.3230  147.3130 C   0  0  0  0  0  2  0  0  0  0  0  0
  187.3230  177.1990  146.3010 C   0  0  2  0  0  3  0  0  0  0  0  0
  189.6610  177.0480  147.1870 C   0  0  1  0  0  3  0  0  0  0  0  0
  188.8040  177.1130  145.9290 C   0  0  0  0  0  2  0  0  0  0  0  0
  191.1110  177.0630  146.8410 C   0  0  0  0  0  0  0  0  0  0  0  0
  191.4730  177.4380  145.6960 O   0  0  0  0  0  0  0  0  0  0  0  0
  192.0700  176.6930  147.7800 O   0  0  0  0  0  1  0  0  0  0  0  0
  1  5  1  0  0  0  0
  1  6  2  0  0  0  0
  2  4  1  0  0  0  0
  3  7  1  0  0  0  0
  4  6  1  6  0  0  0
  4  3  1  0  0  0  0
  4  7  1  0  0  0  0
  5  8  1  6  0  0  0
  5  2  1  0  0  0  0
  7 23  1  6  0  0  0
  8 10  1  0  0  0  0
  9  8  1  0  0  0  0
 11 17  1  0  0  0  0
 11 19  1  0  0  0  0
 12 19  1  0  0  0  0
 13 16  1  0  0  0  0
 13 21  1  0  0  0  0
 14 22  1  0  0  0  0
 16 20  1  0  0  0  0
 17 19  1  0  0  0  0
 18 14  2  0  0  0  0
 18 20  1  0  0  0  0
 20 11  1  0  0  0  0
 20 15  1  0  0  0  0
 21 17  1  0  0  0  0
 22 15  2  0  0  0  0
 22  8  1  0  0  0  0
 23 26  1  0  0  0  0
 24 31  1  0  0  0  0
 25 29  1  0  0  0  0
 25 35  1  0  0  0  0
 26 28  1  0  0  0  0
 27 25  1  0  0  0  0
 28 29  2  0  0  0  0
 30 27  2  0  0  0  0
 31 27  1  0  0  0  0
 31 28  1  0  0  0  0
 33 32  1  0  0  0  0
 34 32  1  0  0  0  0
 35 34  1  0  0  0  0
 36 33  1  0  0  0  0
 37 35  1  0  0  0  0
 37 36  1  0  0  0  0
 38 36  1  0  0  0  0
 38 40  1  0  0  0  0
 39 38  2  0  0  0  0
M  END
>  <MODEL>
2

>  <REMARK>
 VINA RESULT:      -8.6      2.612      3.256
  Name = 
  6 active torsions:
  status: ('A' for Active; 'I' for Inactive)
    1  A    between atoms: N_10  and  C_16
    2  A    between atoms: N_13  and  C_24
    3  A    between atoms: C_17  and  C_31
    4  A    between atoms: C_17  and  C_34
    5  A    between atoms: C_19  and  C_28
    6  A    between atoms: C_24  and  C_39
                            x       y       z     vdW  Elec       q    Type
                         _______ _______ _______ _____ _____    ______ ____

>  <TORSDO>
F 6

$$$$
=
 OpenBabel10222415403D

 40 46  0  0  1  0  0  0  0  0999 V2000
  191.9310  176.0290  138.0220 C   0  0  0  0  0  3  0  0  0  0  0  0
  189.7290  175.1320  136.7200 S   0  0  0  0  0  0  0  0  0  0  0  0
  189.5200  177.8370  136.5010 N   0  0  0  0  0  2  0  0  0  0  0  0
  189.8600  176.7750  137.4540 C   0  0  2  0  0  0  0  0  0  0  0  0
  191.4150  174.7760  137.3620 C   0  0  1  0  0  3  0  0  0  0  0  0
  191.1290  177.0230  138.0670 N   0  0  0  0  0  0  0  0  0  0  0  0
  188.6950  177.6250  137.7110 C   0  0  1  0  0  3  0  0  0  0  0  0
  192.3700  174.2130  136.2780 C   0  0  0  0  0  0  0  0  0  0  0  0
  192.6770  175.3010  135.2630 C   0  0  0  0  0  1  0  0  0  0  0  0
  191.7130  173.0520  135.5370 C   0  0  0  0  0  1  0  0  0  0  0  0
  197.0240  173.6530  136.5590 C   0  0  2  0  0  3  0  0  0  0  0  0
  198.5030  173.9440  134.5940 C   0  0  0  0  0  1  0  0  0  0  0  0
  198.2140  174.4820  138.9240 C   0  0  0  0  0  2  0  0  0  0  0  0
  193.9720  172.4150  137.3400 C   0  0  0  0  0  3  0  0  0  0  0  0
  194.7310  174.5200  136.9430 N   0  0  0  0  0  0  0  0  0  0  0  0
  196.3590  174.4550  139.1470 S   0  0  0  0  0  0  0  0  0  0  0  0
  197.5530  175.0850  136.5850 C   0  0  2  0  0  3  0  0  0  0  0  0
  195.2410  172.3960  137.7160 C   0  0  0  0  0  3  0  0  0  0  0  0
  197.2280  174.4070  135.2700 C   0  0  2  0  0  3  0  0  0  0  0  0
  195.8340  173.7520  137.5090 C   0  0  2  0  0  0  0  0  0  0  0  0
  198.7320  174.8690  137.5120 C   0  0  0  0  0  2  0  0  0  0  0  0
  193.6830  173.7650  136.8820 C   0  0  0  0  0  0  0  0  0  0  0  0
  188.9840  178.6950  138.7530 C   0  0  0  0  0  2  0  0  0  0  0  0
  190.7730  177.8500  141.2810 C   0  0  0  0  0  1  0  0  0  0  0  0
  187.9610  177.1150  143.0680 N   0  0  0  0  0  0  0  0  0  0  0  0
  188.0120  178.6100  139.8320 N   0  0  0  0  0  2  0  0  0  0  0  0
  189.1960  176.5510  142.6460 C   0  0  0  0  0  0  0  0  0  0  0  0
  188.2970  177.9140  141.0480 C   0  0  0  0  0  0  0  0  0  0  0  0
  187.4810  177.9390  142.0510 N   0  0  0  0  0  0  0  0  0  0  0  0
  189.7560  175.4850  143.2090 C   0  0  0  0  0  2  0  0  0  0  0  0
  189.4960  177.0240  141.2640 C   0  0  1  0  0  3  0  0  0  0  0  0
  185.6850  178.1040  145.8660 N   0  0  0  0  0  2  0  0  0  0  0  0
  186.7170  178.4530  146.8390 C   0  0  0  0  0  2  0  0  0  0  0  0
  186.2730  178.1330  144.5310 C   0  0  0  0  0  2  0  0  0  0  0  0
  187.3690  177.0720  144.4020 C   0  0  2  0  0  3  0  0  0  0  0  0
  187.8000  177.3780  146.8500 C   0  0  1  0  0  3  0  0  0  0  0  0
  188.4420  177.2710  145.4730 C   0  0  0  0  0  2  0  0  0  0  0  0
  188.8260  177.6700  147.8920 C   0  0  0  0  0  0  0  0  0  0  0  0
  188.4820  178.2360  148.9620 O   0  0  0  0  0  1  0  0  0  0  0  0
  190.1540  177.3010  147.7050 O   0  0  0  0  0  0  0  0  0  0  0  0
  1  6  2  0  0  0  0
  2  5  1  0  0  0  0
  2  4  1  0  0  0  0
  3  7  1  0  0  0  0
  4  3  1  6  0  0  0
  4  7  1  0  0  0  0
  4  6  1  0  0  0  0
  5  8  1  6  0  0  0
  5  1  1  0  0  0  0
  7 23  1  1  0  0  0
  8 22  1  0  0  0  0
  9  8  1  0  0  0  0
 10  8  1  0  0  0  0
 11 17  1  0  0  0  0
 11 20  1  0  0  0  0
 12 19  1  0  0  0  0
 13 16  1  0  0  0  0
 14 18  2  0  0  0  0
 15 20  1  0  0  0  0
 17 21  1  0  0  0  0
 19 11  1  0  0  0  0
 19 17  1  0  0  0  0
 20 18  1  0  0  0  0
 20 16  1  0  0  0  0
 21 13  1  0  0  0  0
 22 15  2  0  0  0  0
 22 14  1  0  0  0  0
 23 26  1  0  0  0  0
 25 35  1  0  0  0  0
 26 28  1  0  0  0  0
 27 25  1  0  0  0  0
 27 30  2  0  0  0  0
 28 31  1  0  0  0  0
 28 29  2  0  0  0  0
 29 25  1  0  0  0  0
 31 24  1  0  0  0  0
 31 27  1  0  0  0  0
 32 33  1  0  0  0  0
 33 36  1  0  0  0  0
 34 32  1  0  0  0  0
 35 34  1  0  0  0  0
 35 37  1  0  0  0  0
 36 38  1  0  0  0  0
 37 36  1  0  0  0  0
 38 39  1  0  0  0  0
 40 38  2  0  0  0  0
M  END
>  <MODEL>
3

>  <REMARK>
 VINA RESULT:      -8.5      5.188      7.713
  Name = 
  6 active torsions:
  status: ('A' for Active; 'I' for Inactive)
    1  A    between atoms: N_10  and  C_16
    2  A    between atoms: N_13  and  C_24
    3  A    between atoms: C_17  and  C_31
    4  A    between atoms: C_17  and  C_34
    5  A    between atoms: C_19  and  C_28
    6  A    between atoms: C_24  and  C_39
                            x       y       z     vdW  Elec       q    Type
                         _______ _______ _______ _____ _____    ______ ____

>  <TORSDO>
F 6

$$$$
=
 OpenBabel10222415403D

 40 46  0  0  1  0  0  0  0  0999 V2000
  186.7710  177.8260  137.6990 C   0  0  0  0  0  3  0  0  0  0  0  0
  184.5420  176.2850  137.6160 S   0  0  0  0  0  0  0  0  0  0  0  0
  183.5480  178.7970  137.9550 N   0  0  0  0  0  2  0  0  0  0  0  0
  184.6150  177.9010  138.4150 C   0  0  2  0  0  0  0  0  0  0  0  0
  186.3290  176.4660  137.2210 C   0  0  1  0  0  3  0  0  0  0  0  0
  185.8950  178.5300  138.3060 N   0  0  0  0  0  0  0  0  0  0  0  0
  183.6020  178.3610  139.3690 C   0  0  1  0  0  3  0  0  0  0  0  0
  186.6500  176.2030  135.7280 C   0  0  0  0  0  0  0  0  0  0  0  0
  186.0750  177.3290  134.8830 C   0  0  0  0  0  1  0  0  0  0  0  0
  186.0110  174.8970  135.2650 C   0  0  0  0  0  1  0  0  0  0  0  0
  191.2060  176.1410  136.8600 C   0  0  2  0  0  3  0  0  0  0  0  0
  192.0070  176.7740  139.1170 C   0  0  0  0  0  1  0  0  0  0  0  0
  192.7220  174.1170  135.7170 C   0  0  0  0  0  2  0  0  0  0  0  0
  188.8660  177.0580  134.5940 C   0  0  0  0  0  3  0  0  0  0  0  0
  188.9490  175.3990  136.1450 N   0  0  0  0  0  0  0  0  0  0  0  0
  191.0540  174.1840  134.8770 S   0  0  0  0  0  0  0  0  0  0  0  0
  191.3520  174.8590  137.6780 C   0  0  2  0  0  3  0  0  0  0  0  0
  190.1520  176.7720  134.7190 C   0  0  0  0  0  3  0  0  0  0  0  0
  190.8770  176.1410  138.3320 C   0  0  2  0  0  3  0  0  0  0  0  0
  190.3160  175.6700  135.7150 C   0  0  2  0  0  0  0  0  0  0  0  0
  192.7450  174.4670  137.2300 C   0  0  0  0  0  2  0  0  0  0  0  0
  188.1430  176.1640  135.4850 C   0  0  0  0  0  0  0  0  0  0  0  0
  184.1180  179.4840  140.2560 C   0  0  0  0  0  2  0  0  0  0  0  0
  182.9940  178.2130  142.9820 C   0  0  0  0  0  1  0  0  0  0  0  0
  186.1400  178.1750  144.3010 N   0  0  0  0  0  0  0  0  0  0  0  0
  185.3260  179.0550  140.9440 N   0  0  0  0  0  2  0  0  0  0  0  0
  184.8220  178.6380  144.5670 C   0  0  0  0  0  0  0  0  0  0  0  0
  185.3330  178.7700  142.3450 C   0  0  0  0  0  0  0  0  0  0  0  0
  186.3750  178.2750  142.9310 N   0  0  0  0  0  0  0  0  0  0  0  0
  184.3880  178.9900  145.7730 C   0  0  0  0  0  2  0  0  0  0  0  0
  184.2000  179.0870  143.2890 C   0  0  1  0  0  3  0  0  0  0  0  0
  187.7820  177.3390  147.5560 N   0  0  0  0  0  2  0  0  0  0  0  0
  189.1550  177.6460  147.1630 C   0  0  0  0  0  2  0  0  0  0  0  0
  186.8700  178.0160  146.6390 C   0  0  0  0  0  2  0  0  0  0  0  0
  187.0450  177.4840  145.2140 C   0  0  2  0  0  3  0  0  0  0  0  0
  189.4440  177.0480  145.7890 C   0  0  1  0  0  3  0  0  0  0  0  0
  188.4950  177.6390  144.7540 C   0  0  0  0  0  2  0  0  0  0  0  0
  190.8650  177.2810  145.3990 C   0  0  0  0  0  0  0  0  0  0  0  0
  191.1260  177.7930  144.2800 O   0  0  0  0  0  0  0  0  0  0  0  0
  191.9020  176.9610  146.2700 O   0  0  0  0  0  1  0  0  0  0  0  0
  1  6  2  0  0  0  0
  3  4  1  0  0  0  0
  3  7  1  0  0  0  0
  4  2  1  6  0  0  0
  4  7  1  0  0  0  0
  5  8  1  6  0  0  0
  5  2  1  0  0  0  0
  5  1  1  0  0  0  0
  6  4  1  0  0  0  0
  7 23  1  1  0  0  0
  9  8  1  0  0  0  0
 10  8  1  0  0  0  0
 11 17  1  0  0  0  0
 11 19  1  0  0  0  0
 13 21  1  0  0  0  0
 14 18  2  0  0  0  0
 14 22  1  0  0  0  0
 16 20  1  0  0  0  0
 16 13  1  0  0  0  0
 17 19  1  0  0  0  0
 18 20  1  0  0  0  0
 19 12  1  0  0  0  0
 20 15  1  0  0  0  0
 20 11  1  0  0  0  0
 21 17  1  0  0  0  0
 22  8  1  0  0  0  0
 22 15  2  0  0  0  0
 23 26  1  0  0  0  0
 24 31  1  0  0  0  0
 25 27  1  0  0  0  0
 25 35  1  0  0  0  0
 26 28  1  0  0  0  0
 27 30  2  0  0  0  0
 28 29  2  0  0  0  0
 28 31  1  0  0  0  0
 29 25  1  0  0  0  0
 31 27  1  0  0  0  0
 33 32  1  0  0  0  0
 34 32  1  0  0  0  0
 35 34  1  0  0  0  0
 36 33  1  0  0  0  0
 37 35  1  0  0  0  0
 37 36  1  0  0  0  0
 38 36  1  0  0  0  0
 38 40  1  0  0  0  0
 39 38  2  0  0  0  0
M  END
>  <MODEL>
4

>  <REMARK>
 VINA RESULT:      -8.3      2.101      3.347
  Name = 
  6 active torsions:
  status: ('A' for Active; 'I' for Inactive)
    1  A    between atoms: N_10  and  C_16
    2  A    between atoms: N_13  and  C_24
    3  A    between atoms: C_17  and  C_31
    4  A    between atoms: C_17  and  C_34
    5  A    between atoms: C_19  and  C_28
    6  A    between atoms: C_24  and  C_39
                            x       y       z     vdW  Elec       q    Type
                         _______ _______ _______ _____ _____    ______ ____

>  <TORSDO>
F 6

$$$$
=
 OpenBabel10222415403D

 40 46  0  0  1  0  0  0  0  0999 V2000
  187.3330  174.7510  137.1340 C   0  0  0  0  0  3  0  0  0  0  0  0
  185.0790  176.2560  137.1490 S   0  0  0  0  0  0  0  0  0  0  0  0
  187.0390  178.0800  136.6600 N   0  0  0  0  0  2  0  0  0  0  0  0
  186.7240  176.9120  137.4900 C   0  0  2  0  0  0  0  0  0  0  0  0
  185.8420  174.5920  136.9800 C   0  0  1  0  0  3  0  0  0  0  0  0
  187.7570  175.9270  137.4000 N   0  0  0  0  0  0  0  0  0  0  0  0
  186.9450  178.2110  138.1310 C   0  0  1  0  0  3  0  0  0  0  0  0
  185.4320  173.8670  135.6720 C   0  0  0  0  0  0  0  0  0  0  0  0
  186.6080  173.0540  135.1560 C   0  0  0  0  0  1  0  0  0  0  0  0
  185.0550  174.8810  134.5950 C   0  0  0  0  0  1  0  0  0  0  0  0
  181.2090  172.4910  137.1920 C   0  0  2  0  0  3  0  0  0  0  0  0
  179.9150  173.8060  138.8460 C   0  0  0  0  0  1  0  0  0  0  0  0
  179.5880  171.2320  135.3250 C   0  0  0  0  0  2  0  0  0  0  0  0
  184.4050  171.5990  136.5260 C   0  0  0  0  0  3  0  0  0  0  0  0
  183.0470  173.2220  135.6950 N   0  0  0  0  0  0  0  0  0  0  0  0
  181.3200  171.3730  134.6390 S   0  0  0  0  0  0  0  0  0  0  0  0
  180.2430  173.3870  136.4200 C   0  0  2  0  0  3  0  0  0  0  0  0
  183.1800  171.1110  136.6410 C   0  0  0  0  0  3  0  0  0  0  0  0
  180.8980  173.8780  137.6950 C   0  0  2  0  0  3  0  0  0  0  0  0
  182.2020  172.1050  136.1020 C   0  0  2  0  0  0  0  0  0  0  0  0
  179.1140  172.3940  136.2400 C   0  0  0  0  0  2  0  0  0  0  0  0
  184.2830  172.9120  135.9100 C   0  0  0  0  0  0  0  0  0  0  0  0
  188.3310  178.3180  138.7500 C   0  0  0  0  0  2  0  0  0  0  0  0
  190.9070  176.9570  140.0990 C   0  0  0  0  0  1  0  0  0  0  0  0
  189.6450  177.5690  143.2090 N   0  0  0  0  0  0  0  0  0  0  0  0
  188.2190  178.7090  140.1460 N   0  0  0  0  0  2  0  0  0  0  0  0
  190.1450  176.5170  142.3920 C   0  0  0  0  0  0  0  0  0  0  0  0
  188.9410  178.0320  141.1780 C   0  0  0  0  0  0  0  0  0  0  0  0
  188.9330  178.4550  142.4010 N   0  0  0  0  0  0  0  0  0  0  0  0
  190.5740  175.3510  142.8640 C   0  0  0  0  0  2  0  0  0  0  0  0
  189.6940  176.7380  140.9890 C   0  0  1  0  0  3  0  0  0  0  0  0
  191.3490  177.1290  146.5080 N   0  0  0  0  0  2  0  0  0  0  0  0
  190.1510  176.9360  147.3200 C   0  0  0  0  0  2  0  0  0  0  0  0
  191.0190  176.8560  145.1130 C   0  0  0  0  0  2  0  0  0  0  0  0
  189.9800  177.8560  144.6000 C   0  0  2  0  0  3  0  0  0  0  0  0
  189.0990  177.9750  146.9420 C   0  0  1  0  0  3  0  0  0  0  0  0
  188.7240  177.8270  145.4720 C   0  0  0  0  0  2  0  0  0  0  0  0
  187.8940  177.8490  147.8110 C   0  0  0  0  0  0  0  0  0  0  0  0
  188.0270  177.4920  149.0100 O   0  0  0  0  0  1  0  0  0  0  0  0
  186.6280  178.1490  147.3180 O   0  0  0  0  0  0  0  0  0  0  0  0
  1  6  2  0  0  0  0
  2  4  1  0  0  0  0
  3  7  1  0  0  0  0
  4  3  1  6  0  0  0
  4  7  1  0  0  0  0
  5  8  1  6  0  0  0
  5  1  1  0  0  0  0
  5  2  1  0  0  0  0
  6  4  1  0  0  0  0
  7 23  1  1  0  0  0
  8 22  1  0  0  0  0
  9  8  1  0  0  0  0
 10  8  1  0  0  0  0
 11 19  1  0  0  0  0
 13 21  1  0  0  0  0
 14 18  2  0  0  0  0
 15 22  2  0  0  0  0
 15 20  1  0  0  0  0
 16 13  1  0  0  0  0
 16 20  1  0  0  0  0
 17 11  1  0  0  0  0
 17 19  1  0  0  0  0
 19 12  1  0  0  0  0
 20 18  1  0  0  0  0
 20 11  1  0  0  0  0
 21 17  1  0  0  0  0
 22 14  1  0  0  0  0
 23 26  1  0  0  0  0
 24 31  1  0  0  0  0
 25 35  1  0  0  0  0
 26 28  1  0  0  0  0
 27 30  2  0  0  0  0
 27 25  1  0  0  0  0
 28 29  2  0  0  0  0
 29 25  1  0  0  0  0
 31 28  1  0  0  0  0
 31 27  1  0  0  0  0
 32 33  1  0  0  0  0
 34 32  1  0  0  0  0
 35 34  1  0  0  0  0
 35 37  1  0  0  0  0
 36 33  1  0  0  0  0
 36 38  1  0  0  0  0
 37 36  1  0  0  0  0
 38 39  1  0  0  0  0
 40 38  2  0  0  0  0
M  END
>  <MODEL>
5

>  <REMARK>
 VINA RESULT:      -8.0      3.584      5.859
  Name = 
  6 active torsions:
  status: ('A' for Active; 'I' for Inactive)
    1  A    between atoms: N_10  and  C_16
    2  A    between atoms: N_13  and  C_24
    3  A    between atoms: C_17  and  C_31
    4  A    between atoms: C_17  and  C_34
    5  A    between atoms: C_19  and  C_28
    6  A    between atoms: C_24  and  C_39
                            x       y       z     vdW  Elec       q    Type
                         _______ _______ _______ _____ _____    ______ ____

>  <TORSDO>
F 6

$$$$
=
 OpenBabel10222415403D

 40 46  0  0  1  0  0  0  0  0999 V2000
  188.6420  176.3320  142.7230 C   0  0  0  0  0  3  0  0  0  0  0  0
  190.1040  177.1570  140.5950 S   0  0  0  0  0  0  0  0  0  0  0  0
  188.2590  179.1360  140.8840 N   0  0  0  0  0  2  0  0  0  0  0  0
  188.4050  177.6770  140.9060 C   0  0  2  0  0  0  0  0  0  0  0  0
  189.9910  176.0960  142.0940 C   0  0  1  0  0  3  0  0  0  0  0  0
  187.8530  177.1250  142.1050 N   0  0  0  0  0  0  0  0  0  0  0  0
  187.5650  178.3000  139.8800 C   0  0  1  0  0  3  0  0  0  0  0  0
  191.1730  176.3050  143.0750 C   0  0  0  0  0  0  0  0  0  0  0  0
  192.3190  176.9870  142.3460 C   0  0  0  0  0  1  0  0  0  0  0  0
  191.6800  174.9630  143.5940 C   0  0  0  0  0  1  0  0  0  0  0  0
  188.2740  178.3140  146.1740 C   0  0  2  0  0  3  0  0  0  0  0  0
  185.8180  178.3280  145.8570 C   0  0  0  0  0  1  0  0  0  0  0  0
  189.0060  178.1100  148.8430 C   0  0  0  0  0  2  0  0  0  0  0  0
  191.1180  178.6000  144.3620 C   0  0  0  0  0  3  0  0  0  0  0  0
  189.9790  176.8110  145.1780 N   0  0  0  0  0  0  0  0  0  0  0  0
  190.4400  177.5750  147.7700 S   0  0  0  0  0  0  0  0  0  0  0  0
  187.7000  177.1270  146.9450 C   0  0  2  0  0  3  0  0  0  0  0  0
  190.5190  179.0470  145.4540 C   0  0  0  0  0  3  0  0  0  0  0  0
  187.0970  177.5520  145.6220 C   0  0  2  0  0  3  0  0  0  0  0  0
  189.7480  177.9320  146.0830 C   0  0  2  0  0  0  0  0  0  0  0  0
  187.5860  177.7810  148.3070 C   0  0  0  0  0  2  0  0  0  0  0  0
  190.7740  177.1920  144.2340 C   0  0  0  0  0  0  0  0  0  0  0  0
  186.0830  178.1880  140.2060 C   0  0  0  0  0  2  0  0  0  0  0  0
  183.3310  178.6280  141.7990 C   0  0  0  0  0  1  0  0  0  0  0  0
  181.8720  179.9100  138.9940 N   0  0  0  0  0  0  0  0  0  0  0  0
  185.3150  179.0380  139.3110 N   0  0  0  0  0  2  0  0  0  0  0  0
  181.6970  178.9050  139.9850 C   0  0  0  0  0  0  0  0  0  0  0  0
  183.8990  179.1850  139.4420 C   0  0  0  0  0  0  0  0  0  0  0  0
  183.2350  180.0310  138.7230 N   0  0  0  0  0  0  0  0  0  0  0  0
  180.5390  178.3060  140.2370 C   0  0  0  0  0  2  0  0  0  0  0  0
  183.0290  178.3370  140.3370 C   0  0  1  0  0  3  0  0  0  0  0  0
  179.2430  181.2370  136.6900 N   0  0  0  0  0  2  0  0  0  0  0  0
  179.9220  182.4730  136.3130 C   0  0  0  0  0  2  0  0  0  0  0  0
  180.2310  180.2990  137.2100 C   0  0  0  0  0  2  0  0  0  0  0  0
  180.8750  180.8470  138.4860 C   0  0  2  0  0  3  0  0  0  0  0  0
  180.5000  183.1430  137.5570 C   0  0  1  0  0  3  0  0  0  0  0  0
  181.5060  182.2160  138.2280 C   0  0  0  0  0  2  0  0  0  0  0  0
  181.1330  184.4480  137.2100 C   0  0  0  0  0  0  0  0  0  0  0  0
  182.3060  184.6920  137.5930 O   0  0  0  0  0  1  0  0  0  0  0  0
  180.4490  185.3880  136.4440 O   0  0  0  0  0  0  0  0  0  0  0  0
  2  5  1  0  0  0  0
  3  4  1  0  0  0  0
  4  2  1  6  0  0  0
  4  6  1  0  0  0  0
  5  1  1  0  0  0  0
  5  8  1  1  0  0  0
  6  1  2  0  0  0  0
  7 23  1  1  0  0  0
  7  3  1  0  0  0  0
  7  4  1  0  0  0  0
  8 10  1  0  0  0  0
  8 22  1  0  0  0  0
  9  8  1  0  0  0  0
 11 17  1  0  0  0  0
 14 18  2  0  0  0  0
 15 20  1  0  0  0  0
 16 13  1  0  0  0  0
 17 21  1  0  0  0  0
 18 20  1  0  0  0  0
 19 12  1  0  0  0  0
 19 11  1  0  0  0  0
 19 17  1  0  0  0  0
 20 11  1  0  0  0  0
 20 16  1  0  0  0  0
 21 13  1  0  0  0  0
 22 14  1  0  0  0  0
 22 15  2  0  0  0  0
 25 27  1  0  0  0  0
 26 28  1  0  0  0  0
 26 23  1  0  0  0  0
 27 30  2  0  0  0  0
 27 31  1  0  0  0  0
 28 31  1  0  0  0  0
 29 25  1  0  0  0  0
 29 28  2  0  0  0  0
 31 24  1  0  0  0  0
 32 34  1  0  0  0  0
 33 32  1  0  0  0  0
 33 36  1  0  0  0  0
 34 35  1  0  0  0  0
 35 25  1  0  0  0  0
 36 37  1  0  0  0  0
 37 35  1  0  0  0  0
 38 36  1  0  0  0  0
 38 39  1  0  0  0  0
 40 38  2  0  0  0  0
M  END
>  <MODEL>
6

>  <REMARK>
 VINA RESULT:      -7.9      4.950     10.451
  Name = 
  6 active torsions:
  status: ('A' for Active; 'I' for Inactive)
    1  A    between atoms: N_10  and  C_16
    2  A    between atoms: N_13  and  C_24
    3  A    between atoms: C_17  and  C_31
    4  A    between atoms: C_17  and  C_34
    5  A    between atoms: C_19  and  C_28
    6  A    between atoms: C_24  and  C_39
                            x       y       z     vdW  Elec       q    Type
                         _______ _______ _______ _____ _____    ______ ____

>  <TORSDO>
F 6

$$$$
=
 OpenBabel10222415403D

 40 46  0  0  1  0  0  0  0  0999 V2000
  182.6820  175.5610  139.1520 C   0  0  0  0  0  3  0  0  0  0  0  0
  181.2210  177.8390  138.9890 S   0  0  0  0  0  0  0  0  0  0  0  0
  183.2080  178.2450  137.1740 N   0  0  0  0  0  2  0  0  0  0  0  0
  182.9600  177.7280  138.5240 C   0  0  2  0  0  0  0  0  0  0  0  0
  181.3020  176.0690  139.4840 C   0  0  1  0  0  3  0  0  0  0  0  0
  183.5060  176.4140  138.6780 N   0  0  0  0  0  0  0  0  0  0  0  0
  183.8130  178.9060  138.3510 C   0  0  1  0  0  3  0  0  0  0  0  0
  180.1650  175.2150  138.8670 C   0  0  0  0  0  0  0  0  0  0  0  0
  179.0010  176.1170  138.4950 C   0  0  0  0  0  1  0  0  0  0  0  0
  179.6590  174.1890  139.8770 C   0  0  0  0  0  1  0  0  0  0  0  0
  183.0630  172.7610  136.1050 C   0  0  2  0  0  3  0  0  0  0  0  0
  185.4620  172.4710  136.6470 C   0  0  0  0  0  1  0  0  0  0  0  0
  181.9710  170.5340  134.8610 C   0  0  0  0  0  2  0  0  0  0  0  0
  180.6370  175.1150  136.2800 C   0  0  0  0  0  3  0  0  0  0  0  0
  181.1730  173.3460  137.6030 N   0  0  0  0  0  0  0  0  0  0  0  0
  180.5970  171.5540  135.6090 S   0  0  0  0  0  0  0  0  0  0  0  0
  183.2150  171.4320  136.8410 C   0  0  2  0  0  3  0  0  0  0  0  0
  181.1870  174.2310  135.4620 C   0  0  0  0  0  3  0  0  0  0  0  0
  184.0680  172.6250  137.2200 C   0  0  2  0  0  3  0  0  0  0  0  0
  181.5640  173.0110  136.2380 C   0  0  2  0  0  0  0  0  0  0  0  0
  183.3180  170.5210  135.6350 C   0  0  0  0  0  2  0  0  0  0  0  0
  180.6260  174.5170  137.6060 C   0  0  0  0  0  0  0  0  0  0  0  0
  185.2920  178.5650  138.4570 C   0  0  0  0  0  2  0  0  0  0  0  0
  188.4940  178.6560  138.2430 C   0  0  0  0  0  1  0  0  0  0  0  0
  188.7700  178.0270  141.5850 N   0  0  0  0  0  0  0  0  0  0  0  0
  185.7150  178.6280  139.8470 N   0  0  0  0  0  2  0  0  0  0  0  0
  189.2040  177.5480  140.3180 C   0  0  0  0  0  0  0  0  0  0  0  0
  187.0530  178.3160  140.2420 C   0  0  0  0  0  0  0  0  0  0  0  0
  187.4590  178.4860  141.4580 N   0  0  0  0  0  0  0  0  0  0  0  0
  190.2540  176.7520  140.1450 C   0  0  0  0  0  2  0  0  0  0  0  0
  188.0870  177.6860  139.3410 C   0  0  1  0  0  3  0  0  0  0  0  0
  191.7260  177.7260  143.8560 N   0  0  0  0  0  2  0  0  0  0  0  0
  191.0340  177.1300  144.9950 C   0  0  0  0  0  2  0  0  0  0  0  0
  190.9180  177.5200  142.6580 C   0  0  0  0  0  2  0  0  0  0  0  0
  189.5770  178.2480  142.7800 C   0  0  2  0  0  3  0  0  0  0  0  0
  189.7280  177.8780  145.2530 C   0  0  1  0  0  3  0  0  0  0  0  0
  188.8250  177.7870  144.0290 C   0  0  0  0  0  2  0  0  0  0  0  0
  189.0390  177.3390  146.4610 C   0  0  0  0  0  0  0  0  0  0  0  0
  189.7090  176.7480  147.3470 O   0  0  0  0  0  1  0  0  0  0  0  0
  187.6690  177.5050  146.6310 O   0  0  0  0  0  0  0  0  0  0  0  0
  1  5  1  0  0  0  0
  2  5  1  0  0  0  0
  3  7  1  0  0  0  0
  4  3  1  6  0  0  0
  4  6  1  0  0  0  0
  4  2  1  0  0  0  0
  5  8  1  6  0  0  0
  6  1  2  0  0  0  0
  7 23  1  6  0  0  0
  7  4  1  0  0  0  0
  8 10  1  0  0  0  0
  9  8  1  0  0  0  0
 11 20  1  0  0  0  0
 11 17  1  0  0  0  0
 11 19  1  0  0  0  0
 12 19  1  0  0  0  0
 13 16  1  0  0  0  0
 13 21  1  0  0  0  0
 14 22  1  0  0  0  0
 15 22  2  0  0  0  0
 16 20  1  0  0  0  0
 17 19  1  0  0  0  0
 18 20  1  0  0  0  0
 18 14  2  0  0  0  0
 20 15  1  0  0  0  0
 21 17  1  0  0  0  0
 22  8  1  0  0  0  0
 23 26  1  0  0  0  0
 24 31  1  0  0  0  0
 25 35  1  0  0  0  0
 26 28  1  0  0  0  0
 27 25  1  0  0  0  0
 28 29  2  0  0  0  0
 29 25  1  0  0  0  0
 30 27  2  0  0  0  0
 31 28  1  0  0  0  0
 31 27  1  0  0  0  0
 32 33  1  0  0  0  0
 33 36  1  0  0  0  0
 34 35  1  0  0  0  0
 34 32  1  0  0  0  0
 35 37  1  0  0  0  0
 36 38  1  0  0  0  0
 37 36  1  0  0  0  0
 38 40  2  0  0  0  0
 38 39  1  0  0  0  0
M  END
>  <MODEL>
7

>  <REMARK>
 VINA RESULT:      -7.6      3.323      4.880
  Name = 
  6 active torsions:
  status: ('A' for Active; 'I' for Inactive)
    1  A    between atoms: N_10  and  C_16
    2  A    between atoms: N_13  and  C_24
    3  A    between atoms: C_17  and  C_31
    4  A    between atoms: C_17  and  C_34
    5  A    between atoms: C_19  and  C_28
    6  A    between atoms: C_24  and  C_39
                            x       y       z     vdW  Elec       q    Type
                         _______ _______ _______ _____ _____    ______ ____

>  <TORSDO>
F 6

$$$$
=
 OpenBabel10222415403D

 40 46  0  0  1  0  0  0  0  0999 V2000
  185.6690  177.9440  137.4990 C   0  0  0  0  0  3  0  0  0  0  0  0
  187.1310  176.6590  135.6120 S   0  0  0  0  0  0  0  0  0  0  0  0
  188.5170  176.1780  137.9050 N   0  0  0  0  0  2  0  0  0  0  0  0
  187.8060  177.2380  137.1810 C   0  0  2  0  0  0  0  0  0  0  0  0
  185.5160  177.3890  136.1060 C   0  0  1  0  0  3  0  0  0  0  0  0
  186.8330  177.8670  138.0200 N   0  0  0  0  0  0  0  0  0  0  0  0
  189.2450  177.3740  137.4250 C   0  0  1  0  0  3  0  0  0  0  0  0
  184.3340  176.3960  135.9640 C   0  0  0  0  0  0  0  0  0  0  0  0
  184.8740  175.0090  135.6560 C   0  0  0  0  0  1  0  0  0  0  0  0
  183.4230  176.8100  134.8120 C   0  0  0  0  0  1  0  0  0  0  0  0
  183.0130  177.5610  140.3170 C   0  0  2  0  0  3  0  0  0  0  0  0
  184.4080  179.0010  141.7720 C   0  0  0  0  0  1  0  0  0  0  0  0
  180.2950  177.9680  140.7010 C   0  0  0  0  0  2  0  0  0  0  0  0
  183.3550  175.0900  138.0290 C   0  0  0  0  0  3  0  0  0  0  0  0
  183.0350  177.3330  137.8460 N   0  0  0  0  0  0  0  0  0  0  0  0
  180.5670  177.1780  139.0300 S   0  0  0  0  0  0  0  0  0  0  0  0
  182.5150  178.9970  140.1650 C   0  0  2  0  0  3  0  0  0  0  0  0
  182.6820  175.4290  139.1180 C   0  0  0  0  0  3  0  0  0  0  0  0
  183.9910  178.7090  140.3450 C   0  0  2  0  0  3  0  0  0  0  0  0
  182.4040  176.8970  139.0860 C   0  0  2  0  0  0  0  0  0  0  0  0
  181.3950  178.9520  141.1840 C   0  0  0  0  0  2  0  0  0  0  0  0
  183.5380  176.3040  137.2480 C   0  0  0  0  0  0  0  0  0  0  0  0
  189.5440  178.3190  138.5800 C   0  0  0  0  0  2  0  0  0  0  0  0
  191.3190  177.8420  141.2120 C   0  0  0  0  0  1  0  0  0  0  0  0
  188.5570  176.8150  142.9310 N   0  0  0  0  0  0  0  0  0  0  0  0
  188.5470  178.1520  139.6260 N   0  0  0  0  0  2  0  0  0  0  0  0
  189.8730  176.4040  142.5830 C   0  0  0  0  0  0  0  0  0  0  0  0
  188.8700  177.5580  140.8850 C   0  0  0  0  0  0  0  0  0  0  0  0
  188.0150  177.5180  141.8550 N   0  0  0  0  0  0  0  0  0  0  0  0
  190.5460  175.4520  143.2200 C   0  0  0  0  0  2  0  0  0  0  0  0
  190.1660  176.8500  141.1910 C   0  0  1  0  0  3  0  0  0  0  0  0
  186.0570  177.6220  145.5930 N   0  0  0  0  0  2  0  0  0  0  0  0
  186.9940  178.1410  146.5850 C   0  0  0  0  0  2  0  0  0  0  0  0
  186.6920  177.6680  144.2800 C   0  0  0  0  0  2  0  0  0  0  0  0
  187.9190  176.7530  144.2420 C   0  0  2  0  0  3  0  0  0  0  0  0
  188.2030  177.2160  146.6870 C   0  0  1  0  0  3  0  0  0  0  0  0
  188.9110  177.1330  145.3410 C   0  0  0  0  0  2  0  0  0  0  0  0
  189.1380  177.6820  147.7510 C   0  0  0  0  0  0  0  0  0  0  0  0
  190.3690  177.4420  147.6450 O   0  0  0  0  0  0  0  0  0  0  0  0
  188.6690  178.4030  148.8440 O   0  0  0  0  0  1  0  0  0  0  0  0
  1  6  2  0  0  0  0
  2  5  1  0  0  0  0
  4  2  1  6  0  0  0
  4  7  1  0  0  0  0
  4  3  1  0  0  0  0
  4  6  1  0  0  0  0
  5  8  1  1  0  0  0
  5  1  1  0  0  0  0
  7  3  1  0  0  0  0
  7 23  1  1  0  0  0
  8 22  1  0  0  0  0
  9  8  1  0  0  0  0
 10  8  1  0  0  0  0
 11 19  1  0  0  0  0
 13 21  1  0  0  0  0
 14 18  2  0  0  0  0
 15 20  1  0  0  0  0
 16 20  1  0  0  0  0
 16 13  1  0  0  0  0
 17 11  1  0  0  0  0
 17 19  1  0  0  0  0
 17 21  1  0  0  0  0
 19 12  1  0  0  0  0
 20 18  1  0  0  0  0
 20 11  1  0  0  0  0
 22 15  2  0  0  0  0
 22 14  1  0  0  0  0
 23 26  1  0  0  0  0
 25 35  1  0  0  0  0
 26 28  1  0  0  0  0
 27 25  1  0  0  0  0
 27 30  2  0  0  0  0
 28 31  1  0  0  0  0
 28 29  2  0  0  0  0
 29 25  1  0  0  0  0
 31 24  1  0  0  0  0
 31 27  1  0  0  0  0
 32 33  1  0  0  0  0
 33 36  1  0  0  0  0
 34 32  1  0  0  0  0
 35 34  1  0  0  0  0
 35 37  1  0  0  0  0
 36 38  1  0  0  0  0
 37 36  1  0  0  0  0
 38 40  1  0  0  0  0
 39 38  2  0  0  0  0
M  END
>  <MODEL>
8

>  <REMARK>
 VINA RESULT:      -7.4      2.204      5.299
  Name = 
  6 active torsions:
  status: ('A' for Active; 'I' for Inactive)
    1  A    between atoms: N_10  and  C_16
    2  A    between atoms: N_13  and  C_24
    3  A    between atoms: C_17  and  C_31
    4  A    between atoms: C_17  and  C_34
    5  A    between atoms: C_19  and  C_28
    6  A    between atoms: C_24  and  C_39
                            x       y       z     vdW  Elec       q    Type
                         _______ _______ _______ _____ _____    ______ ____

>  <TORSDO>
F 6

$$$$
=
 OpenBabel10222415403D

 40 46  0  0  1  0  0  0  0  0999 V2000
  186.5230  178.8170  141.6750 C   0  0  0  0  0  3  0  0  0  0  0  0
  186.8550  176.9490  143.6110 S   0  0  0  0  0  0  0  0  0  0  0  0
  189.2140  178.3070  143.6470 N   0  0  0  0  0  2  0  0  0  0  0  0
  188.2200  177.7350  142.7320 C   0  0  2  0  0  0  0  0  0  0  0  0
  185.6970  177.9150  142.5570 C   0  0  1  0  0  3  0  0  0  0  0  0
  187.7920  178.7050  141.7710 N   0  0  0  0  0  0  0  0  0  0  0  0
  189.5830  177.1980  142.7390 C   0  0  1  0  0  3  0  0  0  0  0  0
  184.6200  178.6720  143.3760 C   0  0  0  0  0  0  0  0  0  0  0  0
  185.0310  180.1270  143.5250 C   0  0  0  0  0  1  0  0  0  0  0  0
  184.4940  178.0750  144.7750 C   0  0  0  0  0  1  0  0  0  0  0  0
  181.4880  179.6030  140.0040 C   0  0  2  0  0  3  0  0  0  0  0  0
  181.8590  181.3830  138.3220 C   0  0  0  0  0  1  0  0  0  0  0  0
  180.1240  177.4210  138.9670 C   0  0  0  0  0  2  0  0  0  0  0  0
  182.0110  179.0020  143.2940 C   0  0  0  0  0  3  0  0  0  0  0  0
  183.1410  178.4040  141.4140 N   0  0  0  0  0  0  0  0  0  0  0  0
  181.0380  176.8960  140.5100 S   0  0  0  0  0  0  0  0  0  0  0  0
  182.0960  178.9500  138.7640 C   0  0  2  0  0  3  0  0  0  0  0  0
  181.0880  178.9360  142.3470 C   0  0  0  0  0  3  0  0  0  0  0  0
  182.5260  180.3380  139.1940 C   0  0  2  0  0  3  0  0  0  0  0  0
  181.7310  178.5300  141.0610 C   0  0  2  0  0  0  0  0  0  0  0  0
  180.8120  178.5060  138.0950 C   0  0  0  0  0  2  0  0  0  0  0  0
  183.2790  178.6420  142.6770 C   0  0  0  0  0  0  0  0  0  0  0  0
  190.4090  177.7150  141.5700 C   0  0  0  0  0  2  0  0  0  0  0  0
  189.3780  178.6330  138.6710 C   0  0  0  0  0  1  0  0  0  0  0  0
  189.8710  175.4810  137.4610 N   0  0  0  0  0  0  0  0  0  0  0  0
  190.8000  176.6070  140.7130 N   0  0  0  0  0  2  0  0  0  0  0  0
  188.8770  176.4920  137.5760 C   0  0  0  0  0  0  0  0  0  0  0  0
  190.2250  176.4170  139.4190 C   0  0  0  0  0  0  0  0  0  0  0  0
  190.6580  175.5030  138.6120 N   0  0  0  0  0  0  0  0  0  0  0  0
  187.7750  176.5360  136.8340 C   0  0  0  0  0  2  0  0  0  0  0  0
  189.0270  177.1700  138.8940 C   0  0  1  0  0  3  0  0  0  0  0  0
  189.9270  172.5040  135.1980 N   0  0  0  0  0  2  0  0  0  0  0  0
  191.3740  172.3030  135.1800 C   0  0  0  0  0  2  0  0  0  0  0  0
  189.5800  173.3020  136.3690 C   0  0  0  0  0  2  0  0  0  0  0  0
  190.2120  174.6940  136.2800 C   0  0  2  0  0  3  0  0  0  0  0  0
  192.0780  173.6420  134.9810 C   0  0  1  0  0  3  0  0  0  0  0  0
  191.7290  174.5890  136.1230 C   0  0  0  0  0  2  0  0  0  0  0  0
  193.5540  173.4540  134.8810 C   0  0  0  0  0  0  0  0  0  0  0  0
  194.2880  174.4350  134.5940 O   0  0  0  0  0  0  0  0  0  0  0  0
  194.1310  172.2130  135.1290 O   0  0  0  0  0  1  0  0  0  0  0  0
  1  6  2  0  0  0  0
  1  5  1  0  0  0  0
  4  6  1  6  0  0  0
  4  7  1  0  0  0  0
  4  2  1  0  0  0  0
  4  3  1  0  0  0  0
  5  8  1  1  0  0  0
  5  2  1  0  0  0  0
  7 23  1  6  0  0  0
  7  3  1  0  0  0  0
  8  9  1  0  0  0  0
  8 10  1  0  0  0  0
 11 20  1  0  0  0  0
 12 19  1  0  0  0  0
 13 16  1  0  0  0  0
 15 22  2  0  0  0  0
 16 20  1  0  0  0  0
 17 19  1  0  0  0  0
 17 11  1  0  0  0  0
 18 14  2  0  0  0  0
 19 11  1  0  0  0  0
 20 15  1  0  0  0  0
 20 18  1  0  0  0  0
 21 17  1  0  0  0  0
 21 13  1  0  0  0  0
 22 14  1  0  0  0  0
 22  8  1  0  0  0  0
 24 31  1  0  0  0  0
 25 27  1  0  0  0  0
 25 29  1  0  0  0  0
 26 23  1  0  0  0  0
 27 31  1  0  0  0  0
 28 26  1  0  0  0  0
 29 28  2  0  0  0  0
 30 27  2  0  0  0  0
 31 28  1  0  0  0  0
 32 34  1  0  0  0  0
 33 32  1  0  0  0  0
 35 34  1  0  0  0  0
 35 25  1  0  0  0  0
 36 33  1  0  0  0  0
 36 37  1  0  0  0  0
 37 35  1  0  0  0  0
 38 36  1  0  0  0  0
 38 40  1  0  0  0  0
 39 38  2  0  0  0  0
M  END
>  <MODEL>
9

>  <REMARK>
 VINA RESULT:      -7.3      4.122      8.804
  Name = 
  6 active torsions:
  status: ('A' for Active; 'I' for Inactive)
    1  A    between atoms: N_10  and  C_16
    2  A    between atoms: N_13  and  C_24
    3  A    between atoms: C_17  and  C_31
    4  A    between atoms: C_17  and  C_34
    5  A    between atoms: C_19  and  C_28
    6  A    between atoms: C_24  and  C_39
                            x       y       z     vdW  Elec       q    Type
                         _______ _______ _______ _____ _____    ______ ____

>  <TORSDO>
F 6

$$$$
