=
 OpenBabel10222419013D

 38 40  0  0  1  0  0  0  0  0999 V2000
  187.9810  178.0450  144.8700 C   0  0  2  0  0  3  0  0  0  0  0  0
  183.1230  178.3950  141.1460 C   0  0  0  0  0  3  0  0  0  0  0  0
  183.5270  178.8560  145.2940 N   0  0  0  0  0  0  0  0  0  0  0  0
  182.2210  178.9190  143.2580 C   0  0  0  0  0  0  0  0  0  0  0  0
  182.0750  178.7640  141.9190 N   0  0  0  0  0  0  0  0  0  0  0  0
  184.4960  178.8060  146.1520 C   0  0  0  0  0  3  0  0  0  0  0  0
  184.3340  178.1780  141.7130 N   0  0  0  0  0  0  0  0  0  0  0  0
  183.4670  178.7050  143.8730 C   0  0  0  0  0  0  0  0  0  0  0  0
  184.5430  178.3220  143.0490 C   0  0  0  0  0  0  0  0  0  0  0  0
  186.4990  178.2610  144.7810 C   0  0  0  0  0  0  0  0  0  0  0  0
  181.0880  179.2940  144.0390 N   0  0  0  0  0  1  0  0  0  0  0  0
  185.8750  178.5670  145.8720 N   0  0  0  0  0  0  0  0  0  0  0  0
  185.8630  178.0670  143.5180 N   0  0  0  0  0  2  0  0  0  0  0  0
  190.3630  177.4250  141.9680 C   0  0  1  0  0  3  0  0  0  0  0  0
  189.6130  178.3730  142.8830 C   0  0  2  0  0  3  0  0  0  0  0  0
  190.1180  176.0130  142.4980 C   0  0  0  0  0  2  0  0  0  0  0  0
  190.6020  178.9550  143.8860 C   0  0  0  0  0  1  0  0  0  0  0  0
  189.1810  176.1370  143.6840 C   0  0  0  0  0  2  0  0  0  0  0  0
  188.5450  177.5040  143.5460 C   0  0  1  0  0  3  0  0  0  0  0  0
  189.8460  177.5390  140.6470 O   0  0  0  0  0  0  0  0  0  0  0  0
  191.8350  177.1260  139.5500 O   0  0  0  0  0  0  0  0  0  0  0  0
  190.5720  177.1450  139.5230 C   0  0  0  0  0  0  0  0  0  0  0  0
  189.8820  176.7740  138.3670 O   0  0  0  0  0  0  0  0  0  0  0  0
  189.9850  177.5030  137.1470 C   0  0  0  0  0  2  0  0  0  0  0  0
  188.9510  178.6180  137.0940 C   0  0  0  0  0  2  0  0  0  0  0  0
  187.6460  178.1040  136.5790 C   0  0  0  0  0  0  0  0  0  0  0  0
  186.5240  177.9560  137.4580 N   0  0  0  0  0  0  0  0  0  0  0  0
  187.5500  177.7840  135.3640 O   0  0  0  0  0  0  0  0  0  0  0  0
  186.6440  178.2810  138.7690 O   0  0  0  0  0  1  0  0  0  0  0  0
  184.1050  177.9100  137.8050 C   0  0  0  0  0  1  0  0  0  0  0  0
  185.2640  177.4130  136.9610 C   0  0  0  0  0  3  0  0  0  0  0  0
  185.3030  175.8970  136.9780 C   0  0  0  0  0  1  0  0  0  0  0  0
  188.3030  177.0980  146.0240 C   0  0  0  0  0  2  0  0  0  0  0  0
  188.6020  178.2870  148.0620 O   0  0  0  0  0  1  0  0  0  0  0  0
  189.2970  177.7210  146.9920 C   0  0  1  0  0  3  0  0  0  0  0  0
  190.2600  176.6650  147.5070 C   0  0  0  0  0  2  0  0  0  0  0  0
  191.4850  176.5940  146.6160 C   0  0  0  0  0  2  0  0  0  0  0  0
  192.5670  175.9480  147.3350 N   0  0  0  0  0  1  0  0  0  0  0  0
  1 33  1  1  0  0  0
  2  7  1  0  0  0  0
  2  5  2  0  0  0  0
  3  6  2  0  0  0  0
  4  8  2  0  0  0  0
  4 11  1  0  0  0  0
  5  4  1  0  0  0  0
  7  9  2  0  0  0  0
  8  3  1  0  0  0  0
  9 13  1  0  0  0  0
  9  8  1  0  0  0  0
 10  1  1  0  0  0  0
 10 12  2  0  0  0  0
 12  6  1  0  0  0  0
 13 10  1  0  0  0  0
 14 20  1  6  0  0  0
 14 16  1  0  0  0  0
 14 15  1  0  0  0  0
 15 19  1  0  0  0  0
 15 17  1  1  0  0  0
 16 18  1  0  0  0  0
 19 18  1  0  0  0  0
 19  1  1  1  0  0  0
 22 21  2  0  0  0  0
 22 20  1  0  0  0  0
 23 22  1  0  0  0  0
 24 23  1  0  0  0  0
 25 24  1  0  0  0  0
 26 25  1  0  0  0  0
 26 27  1  0  0  0  0
 27 29  1  0  0  0  0
 28 26  2  0  0  0  0
 31 32  1  0  0  0  0
 31 27  1  0  0  0  0
 31 30  1  0  0  0  0
 33 35  1  0  0  0  0
 35 36  1  0  0  0  0
 35 34  1  1  0  0  0
 37 38  1  0  0  0  0
 37 36  1  0  0  0  0
M  END
>  <MODEL>
1

>  <REMARK>
 VINA RESULT:      -8.1      0.000      0.000
  Name = 
  13 active torsions:
  status: ('A' for Active; 'I' for Inactive)
    1  A    between atoms: C_1  and  C_7
    2  A    between atoms: C_3  and  C_18
    3  A    between atoms: C_4  and  O_29
    4  A    between atoms: C_7  and  C_31
    5  A    between atoms: C_10  and  C_19
    6  A    between atoms: C_10  and  C_31
    7  A    between atoms: C_17  and  C_18
    8  A    between atoms: C_17  and  O_26
    9  A    between atoms: C_19  and  C_30
   10  A    between atoms: C_19  and  C_38
   11  A    between atoms: N_21  and  C_24
   12  A    between atoms: O_26  and  C_33
   13  A    between atoms: O_29  and  C_33
                            x       y       z     vdW  Elec       q    Type
                         _______ _______ _______ _____ _____    ______ ____

>  <TORSDO>
F 13

$$$$
=
 OpenBabel10222419013D

 38 40  0  0  1  0  0  0  0  0999 V2000
  187.3690  178.1450  143.7940 C   0  0  2  0  0  3  0  0  0  0  0  0
  181.2710  178.7240  144.0380 C   0  0  0  0  0  3  0  0  0  0  0  0
  183.9890  178.9130  140.8510 N   0  0  0  0  0  0  0  0  0  0  0  0
  181.7370  178.9100  141.7370 C   0  0  0  0  0  0  0  0  0  0  0  0
  180.8490  178.8610  142.7600 N   0  0  0  0  0  0  0  0  0  0  0  0
  185.2710  178.8000  140.7070 C   0  0  0  0  0  3  0  0  0  0  0  0
  182.5960  178.6340  144.3040 N   0  0  0  0  0  0  0  0  0  0  0  0
  183.1180  178.8160  141.9820 C   0  0  0  0  0  0  0  0  0  0  0  0
  183.5340  178.6740  143.3200 C   0  0  0  0  0  0  0  0  0  0  0  0
  186.1160  178.4090  143.0130 C   0  0  0  0  0  0  0  0  0  0  0  0
  181.2520  179.0710  140.4060 N   0  0  0  0  0  1  0  0  0  0  0  0
  186.2270  178.5240  141.7300 N   0  0  0  0  0  0  0  0  0  0  0  0
  184.8940  178.5680  143.7320 N   0  0  0  0  0  2  0  0  0  0  0  0
  190.8190  177.2410  142.4650 C   0  0  1  0  0  3  0  0  0  0  0  0
  189.8190  178.2700  142.9550 C   0  0  2  0  0  3  0  0  0  0  0  0
  190.1750  175.8700  142.6640 C   0  0  0  0  0  2  0  0  0  0  0  0
  190.2060  178.6810  144.3710 C   0  0  0  0  0  1  0  0  0  0  0  0
  188.7810  176.1050  143.2130 C   0  0  0  0  0  2  0  0  0  0  0  0
  188.4700  177.5540  142.8980 C   0  0  1  0  0  3  0  0  0  0  0  0
  191.0760  177.4560  141.0830 O   0  0  0  0  0  0  0  0  0  0  0  0
  190.8790  175.7690  139.5190 O   0  0  0  0  0  0  0  0  0  0  0  0
  190.3770  176.7830  140.0790 C   0  0  0  0  0  0  0  0  0  0  0  0
  189.1170  177.2510  139.7010 O   0  0  0  0  0  0  0  0  0  0  0  0
  188.8940  178.5930  139.2800 C   0  0  0  0  0  2  0  0  0  0  0  0
  189.1780  178.7480  137.7920 C   0  0  0  0  0  2  0  0  0  0  0  0
  188.4530  177.7060  137.0050 C   0  0  0  0  0  0  0  0  0  0  0  0
  187.0330  177.7830  136.8290 N   0  0  0  0  0  0  0  0  0  0  0  0
  189.1050  176.7470  136.5120 O   0  0  0  0  0  0  0  0  0  0  0  0
  186.3370  178.8070  137.3820 O   0  0  0  0  0  1  0  0  0  0  0  0
  185.7180  177.3070  134.8250 C   0  0  0  0  0  1  0  0  0  0  0  0
  186.3230  176.7400  136.0960 C   0  0  0  0  0  3  0  0  0  0  0  0
  185.2350  176.1370  136.9620 C   0  0  0  0  0  1  0  0  0  0  0  0
  187.0670  177.2140  144.9680 C   0  0  0  0  0  2  0  0  0  0  0  0
  185.9860  178.2270  146.8280 O   0  0  0  0  0  1  0  0  0  0  0  0
  187.2430  177.9280  146.2990 C   0  0  1  0  0  3  0  0  0  0  0  0
  188.0100  177.0460  147.2690 C   0  0  0  0  0  2  0  0  0  0  0  0
  189.2260  177.7820  147.7980 C   0  0  0  0  0  2  0  0  0  0  0  0
  190.4170  176.9970  147.5370 N   0  0  0  0  0  1  0  0  0  0  0  0
  1 33  1  1  0  0  0
  2  7  1  0  0  0  0
  3  8  1  0  0  0  0
  4  8  2  0  0  0  0
  4  5  1  0  0  0  0
  5  2  2  0  0  0  0
  6  3  2  0  0  0  0
  6 12  1  0  0  0  0
  8  9  1  0  0  0  0
  9 13  1  0  0  0  0
  9  7  2  0  0  0  0
 10 13  1  0  0  0  0
 10  1  1  0  0  0  0
 11  4  1  0  0  0  0
 12 10  2  0  0  0  0
 14 20  1  6  0  0  0
 14 16  1  0  0  0  0
 14 15  1  0  0  0  0
 15 17  1  1  0  0  0
 16 18  1  0  0  0  0
 19 15  1  0  0  0  0
 19 18  1  0  0  0  0
 19  1  1  1  0  0  0
 21 22  2  0  0  0  0
 22 20  1  0  0  0  0
 23 22  1  0  0  0  0
 24 23  1  0  0  0  0
 25 24  1  0  0  0  0
 26 25  1  0  0  0  0
 27 26  1  0  0  0  0
 27 29  1  0  0  0  0
 28 26  2  0  0  0  0
 30 31  1  0  0  0  0
 31 27  1  0  0  0  0
 31 32  1  0  0  0  0
 33 35  1  0  0  0  0
 35 34  1  1  0  0  0
 35 36  1  0  0  0  0
 36 37  1  0  0  0  0
 38 37  1  0  0  0  0
M  END
>  <MODEL>
2

>  <REMARK>
 VINA RESULT:      -7.7      1.487      2.254
  Name = 
  13 active torsions:
  status: ('A' for Active; 'I' for Inactive)
    1  A    between atoms: C_1  and  C_7
    2  A    between atoms: C_3  and  C_18
    3  A    between atoms: C_4  and  O_29
    4  A    between atoms: C_7  and  C_31
    5  A    between atoms: C_10  and  C_19
    6  A    between atoms: C_10  and  C_31
    7  A    between atoms: C_17  and  C_18
    8  A    between atoms: C_17  and  O_26
    9  A    between atoms: C_19  and  C_30
   10  A    between atoms: C_19  and  C_38
   11  A    between atoms: N_21  and  C_24
   12  A    between atoms: O_26  and  C_33
   13  A    between atoms: O_29  and  C_33
                            x       y       z     vdW  Elec       q    Type
                         _______ _______ _______ _____ _____    ______ ____

>  <TORSDO>
F 13

$$$$
=
 OpenBabel10222419013D

 38 40  0  0  1  0  0  0  0  0999 V2000
  187.5250  178.0170  144.6120 C   0  0  2  0  0  3  0  0  0  0  0  0
  183.0070  178.4050  140.4870 C   0  0  0  0  0  3  0  0  0  0  0  0
  183.0780  178.9630  144.6410 N   0  0  0  0  0  0  0  0  0  0  0  0
  181.9480  179.0090  142.5020 C   0  0  0  0  0  0  0  0  0  0  0  0
  181.9100  178.8230  141.1590 N   0  0  0  0  0  0  0  0  0  0  0  0
  183.9700  178.9080  145.5780 C   0  0  0  0  0  3  0  0  0  0  0  0
  184.1600  178.1690  141.1580 N   0  0  0  0  0  0  0  0  0  0  0  0
  183.1320  178.7770  143.2240 C   0  0  0  0  0  0  0  0  0  0  0  0
  184.2610  178.3420  142.5030 C   0  0  0  0  0  0  0  0  0  0  0  0
  186.0630  178.2720  144.3940 C   0  0  0  0  0  0  0  0  0  0  0  0
  180.7660  179.4360  143.1760 N   0  0  0  0  0  1  0  0  0  0  0  0
  185.3600  178.6230  145.4210 N   0  0  0  0  0  0  0  0  0  0  0  0
  185.5290  178.0620  143.0870 N   0  0  0  0  0  2  0  0  0  0  0  0
  190.0800  177.2550  141.8960 C   0  0  1  0  0  3  0  0  0  0  0  0
  189.2590  178.2460  142.6980 C   0  0  2  0  0  3  0  0  0  0  0  0
  189.8370  175.8780  142.5130 C   0  0  0  0  0  2  0  0  0  0  0  0
  190.1770  178.9230  143.7090 C   0  0  0  0  0  1  0  0  0  0  0  0
  188.8330  176.0610  143.6340 C   0  0  0  0  0  2  0  0  0  0  0  0
  188.1750  177.3980  143.3630 C   0  0  1  0  0  3  0  0  0  0  0  0
  189.6360  177.2620  140.5450 O   0  0  0  0  0  0  0  0  0  0  0  0
  191.7120  177.1110  139.5460 O   0  0  0  0  0  0  0  0  0  0  0  0
  190.5040  177.4720  139.4730 C   0  0  0  0  0  0  0  0  0  0  0  0
  190.0180  178.0920  138.3200 O   0  0  0  0  0  0  0  0  0  0  0  0
  189.1530  177.4300  137.4020 C   0  0  0  0  0  2  0  0  0  0  0  0
  189.5110  175.9550  137.2870 C   0  0  0  0  0  2  0  0  0  0  0  0
  190.6340  175.7570  136.3220 C   0  0  0  0  0  0  0  0  0  0  0  0
  191.7510  174.9260  136.6650 N   0  0  0  0  0  0  0  0  0  0  0  0
  190.5960  176.3460  135.2090 O   0  0  0  0  0  0  0  0  0  0  0  0
  191.7930  174.3150  137.8750 O   0  0  0  0  0  1  0  0  0  0  0  0
  193.3730  173.3400  135.7580 C   0  0  0  0  0  1  0  0  0  0  0  0
  192.8650  174.7700  135.7370 C   0  0  0  0  0  3  0  0  0  0  0  0
  193.9890  175.7220  136.1010 C   0  0  0  0  0  1  0  0  0  0  0  0
  187.7230  177.1150  145.8290 C   0  0  0  0  0  2  0  0  0  0  0  0
  187.7850  178.2720  147.9060 O   0  0  0  0  0  1  0  0  0  0  0  0
  188.5950  177.7860  146.8790 C   0  0  1  0  0  3  0  0  0  0  0  0
  189.5950  176.7900  147.4430 C   0  0  0  0  0  2  0  0  0  0  0  0
  190.8950  176.8550  146.6650 C   0  0  0  0  0  2  0  0  0  0  0  0
  192.0070  176.6130  147.5640 N   0  0  0  0  0  1  0  0  0  0  0  0
  1 33  1  1  0  0  0
  2  7  1  0  0  0  0
  2  5  2  0  0  0  0
  3  6  2  0  0  0  0
  4 11  1  0  0  0  0
  4  8  2  0  0  0  0
  5  4  1  0  0  0  0
  7  9  2  0  0  0  0
  8  3  1  0  0  0  0
  9 13  1  0  0  0  0
  9  8  1  0  0  0  0
 10  1  1  0  0  0  0
 10 12  2  0  0  0  0
 12  6  1  0  0  0  0
 13 10  1  0  0  0  0
 14 20  1  6  0  0  0
 14 16  1  0  0  0  0
 14 15  1  0  0  0  0
 15 19  1  0  0  0  0
 15 17  1  1  0  0  0
 16 18  1  0  0  0  0
 19 18  1  0  0  0  0
 19  1  1  1  0  0  0
 22 21  2  0  0  0  0
 22 20  1  0  0  0  0
 23 22  1  0  0  0  0
 24 23  1  0  0  0  0
 25 24  1  0  0  0  0
 26 27  1  0  0  0  0
 26 25  1  0  0  0  0
 27 29  1  0  0  0  0
 28 26  2  0  0  0  0
 31 30  1  0  0  0  0
 31 32  1  0  0  0  0
 31 27  1  0  0  0  0
 33 35  1  0  0  0  0
 35 36  1  0  0  0  0
 35 34  1  1  0  0  0
 37 36  1  0  0  0  0
 37 38  1  0  0  0  0
M  END
>  <MODEL>
3

>  <REMARK>
 VINA RESULT:      -7.4      1.965      3.164
  Name = 
  13 active torsions:
  status: ('A' for Active; 'I' for Inactive)
    1  A    between atoms: C_1  and  C_7
    2  A    between atoms: C_3  and  C_18
    3  A    between atoms: C_4  and  O_29
    4  A    between atoms: C_7  and  C_31
    5  A    between atoms: C_10  and  C_19
    6  A    between atoms: C_10  and  C_31
    7  A    between atoms: C_17  and  C_18
    8  A    between atoms: C_17  and  O_26
    9  A    between atoms: C_19  and  C_30
   10  A    between atoms: C_19  and  C_38
   11  A    between atoms: N_21  and  C_24
   12  A    between atoms: O_26  and  C_33
   13  A    between atoms: O_29  and  C_33
                            x       y       z     vdW  Elec       q    Type
                         _______ _______ _______ _____ _____    ______ ____

>  <TORSDO>
F 13

$$$$
=
 OpenBabel10222419013D

 38 40  0  0  1  0  0  0  0  0999 V2000
  189.9940  177.1760  139.4500 C   0  0  2  0  0  3  0  0  0  0  0  0
  186.7970  177.3380  144.6790 C   0  0  0  0  0  3  0  0  0  0  0  0
  190.9150  177.1950  143.9030 N   0  0  0  0  0  0  0  0  0  0  0  0
  189.0340  177.3720  145.4150 C   0  0  0  0  0  0  0  0  0  0  0  0
  187.7050  177.4090  145.6790 N   0  0  0  0  0  0  0  0  0  0  0  0
  191.6690  177.1630  142.8500 C   0  0  0  0  0  3  0  0  0  0  0  0
  187.2170  177.2290  143.3960 N   0  0  0  0  0  0  0  0  0  0  0  0
  189.4990  177.2630  144.0930 C   0  0  0  0  0  0  0  0  0  0  0  0
  188.5360  177.1900  143.0680 C   0  0  0  0  0  0  0  0  0  0  0  0
  190.0660  177.1660  140.9480 C   0  0  0  0  0  0  0  0  0  0  0  0
  189.9580  177.4340  146.5000 N   0  0  0  0  0  1  0  0  0  0  0  0
  191.2400  177.1920  141.4890 N   0  0  0  0  0  0  0  0  0  0  0  0
  188.8440  177.0760  141.6820 N   0  0  0  0  0  2  0  0  0  0  0  0
  186.7380  177.8450  137.5960 C   0  0  1  0  0  3  0  0  0  0  0  0
  187.8670  178.3100  138.4960 C   0  0  2  0  0  3  0  0  0  0  0  0
  187.1010  176.4370  137.1250 C   0  0  0  0  0  2  0  0  0  0  0  0
  188.7960  179.2010  137.6790 C   0  0  0  0  0  1  0  0  0  0  0  0
  188.4090  176.0640  137.7950 C   0  0  0  0  0  2  0  0  0  0  0  0
  188.5450  177.0220  138.9610 C   0  0  1  0  0  3  0  0  0  0  0  0
  185.5280  177.8050  138.3430 O   0  0  0  0  0  0  0  0  0  0  0  0
  184.7770  179.8910  138.9900 O   0  0  0  0  0  0  0  0  0  0  0  0
  185.2200  178.7540  139.3190 C   0  0  0  0  0  0  0  0  0  0  0  0
  185.4120  178.4300  140.6630 O   0  0  0  0  0  0  0  0  0  0  0  0
  184.3280  178.1550  141.5460 C   0  0  0  0  0  2  0  0  0  0  0  0
  184.2100  179.2360  142.6110 C   0  0  0  0  0  2  0  0  0  0  0  0
  183.0360  178.9760  143.4990 C   0  0  0  0  0  0  0  0  0  0  0  0
  181.7010  179.0850  142.9910 N   0  0  0  0  0  0  0  0  0  0  0  0
  183.2370  178.6770  144.7070 O   0  0  0  0  0  0  0  0  0  0  0  0
  181.4960  179.4290  141.6960 O   0  0  0  0  0  1  0  0  0  0  0  0
  180.0740  177.4370  143.7730 C   0  0  0  0  0  1  0  0  0  0  0  0
  180.5580  178.8730  143.8720 C   0  0  0  0  0  3  0  0  0  0  0  0
  179.4320  179.8230  143.5110 C   0  0  0  0  0  1  0  0  0  0  0  0
  190.8810  176.0720  138.8770 C   0  0  0  0  0  2  0  0  0  0  0  0
  193.1100  176.8840  138.7140 O   0  0  0  0  0  1  0  0  0  0  0  0
  191.9570  176.6430  137.9660 C   0  0  1  0  0  3  0  0  0  0  0  0
  192.2670  175.6650  136.8450 C   0  0  0  0  0  2  0  0  0  0  0  0
  192.0050  174.2440  137.3020 C   0  0  0  0  0  2  0  0  0  0  0  0
  190.9190  173.6790  136.5240 N   0  0  0  0  0  1  0  0  0  0  0  0
  1 33  1  6  0  0  0
  1 10  1  0  0  0  0
  2  5  2  0  0  0  0
  3  8  1  0  0  0  0
  4  5  1  0  0  0  0
  4 11  1  0  0  0  0
  6  3  2  0  0  0  0
  7  2  1  0  0  0  0
  8  4  2  0  0  0  0
  9  7  2  0  0  0  0
  9  8  1  0  0  0  0
 10 12  2  0  0  0  0
 10 13  1  0  0  0  0
 12  6  1  0  0  0  0
 13  9  1  0  0  0  0
 14 20  1  1  0  0  0
 14 15  1  0  0  0  0
 15 17  1  6  0  0  0
 15 19  1  0  0  0  0
 16 14  1  0  0  0  0
 16 18  1  0  0  0  0
 18 19  1  0  0  0  0
 19  1  1  6  0  0  0
 20 22  1  0  0  0  0
 21 22  2  0  0  0  0
 22 23  1  0  0  0  0
 23 24  1  0  0  0  0
 24 25  1  0  0  0  0
 25 26  1  0  0  0  0
 26 28  2  0  0  0  0
 27 26  1  0  0  0  0
 27 31  1  0  0  0  0
 29 27  1  0  0  0  0
 30 31  1  0  0  0  0
 32 31  1  0  0  0  0
 35 34  1  1  0  0  0
 35 33  1  0  0  0  0
 36 37  1  0  0  0  0
 36 35  1  0  0  0  0
 38 37  1  0  0  0  0
M  END
>  <MODEL>
4

>  <REMARK>
 VINA RESULT:      -6.8      2.782      7.346
  Name = 
  13 active torsions:
  status: ('A' for Active; 'I' for Inactive)
    1  A    between atoms: C_1  and  C_7
    2  A    between atoms: C_3  and  C_18
    3  A    between atoms: C_4  and  O_29
    4  A    between atoms: C_7  and  C_31
    5  A    between atoms: C_10  and  C_19
    6  A    between atoms: C_10  and  C_31
    7  A    between atoms: C_17  and  C_18
    8  A    between atoms: C_17  and  O_26
    9  A    between atoms: C_19  and  C_30
   10  A    between atoms: C_19  and  C_38
   11  A    between atoms: N_21  and  C_24
   12  A    between atoms: O_26  and  C_33
   13  A    between atoms: O_29  and  C_33
                            x       y       z     vdW  Elec       q    Type
                         _______ _______ _______ _____ _____    ______ ____

>  <TORSDO>
F 13

$$$$
=
 OpenBabel10222419013D

 38 40  0  0  1  0  0  0  0  0999 V2000
  190.2340  176.9340  138.8030 C   0  0  2  0  0  3  0  0  0  0  0  0
  191.6920  176.0480  144.6920 C   0  0  0  0  0  3  0  0  0  0  0  0
  188.6550  178.2760  142.8510 N   0  0  0  0  0  0  0  0  0  0  0  0
  189.7590  177.3890  144.8120 C   0  0  0  0  0  0  0  0  0  0  0  0
  190.7420  176.6790  145.4200 N   0  0  0  0  0  0  0  0  0  0  0  0
  188.2740  178.5140  141.6360 C   0  0  0  0  0  3  0  0  0  0  0  0
  191.6630  176.1210  143.3400 N   0  0  0  0  0  0  0  0  0  0  0  0
  189.7030  177.4790  143.4110 C   0  0  0  0  0  0  0  0  0  0  0  0
  190.7010  176.8140  142.6730 C   0  0  0  0  0  0  0  0  0  0  0  0
  189.9010  177.2670  140.2270 C   0  0  0  0  0  0  0  0  0  0  0  0
  188.7860  178.0520  145.6160 N   0  0  0  0  0  1  0  0  0  0  0  0
  188.8520  177.9940  140.4390 N   0  0  0  0  0  0  0  0  0  0  0  0
  190.7840  176.8110  141.2520 N   0  0  0  0  0  2  0  0  0  0  0  0
  187.4990  176.2820  136.2380 C   0  0  1  0  0  3  0  0  0  0  0  0
  188.2140  177.2100  137.2010 C   0  0  2  0  0  3  0  0  0  0  0  0
  188.2960  174.9790  136.2050 C   0  0  0  0  0  2  0  0  0  0  0  0
  189.0800  178.1680  136.3920 C   0  0  0  0  0  1  0  0  0  0  0  0
  189.4390  175.1290  137.1900 C   0  0  0  0  0  2  0  0  0  0  0  0
  189.0390  176.2790  138.0900 C   0  0  1  0  0  3  0  0  0  0  0  0
  186.1840  176.0290  136.7180 O   0  0  0  0  0  0  0  0  0  0  0  0
  184.6540  177.4800  135.7770 O   0  0  0  0  0  0  0  0  0  0  0  0
  185.2170  177.0320  136.8140 C   0  0  0  0  0  0  0  0  0  0  0  0
  184.8850  177.5330  138.0740 O   0  0  0  0  0  0  0  0  0  0  0  0
  183.6350  178.1600  138.3440 C   0  0  0  0  0  2  0  0  0  0  0  0
  183.7810  179.2190  139.4260 C   0  0  0  0  0  2  0  0  0  0  0  0
  183.4920  178.6420  140.7740 C   0  0  0  0  0  0  0  0  0  0  0  0
  184.3380  178.9420  141.8910 N   0  0  0  0  0  0  0  0  0  0  0  0
  182.5040  177.8720  140.9100 O   0  0  0  0  0  0  0  0  0  0  0  0
  185.4110  179.7540  141.7280 O   0  0  0  0  0  1  0  0  0  0  0  0
  183.0370  179.1500  143.9500 C   0  0  0  0  0  1  0  0  0  0  0  0
  184.0770  178.3410  143.1950 C   0  0  0  0  0  3  0  0  0  0  0  0
  185.3570  178.2630  144.0030 C   0  0  0  0  0  1  0  0  0  0  0  0
  191.4600  176.0240  138.7530 C   0  0  0  0  0  2  0  0  0  0  0  0
  193.5190  177.1220  139.2080 O   0  0  0  0  0  1  0  0  0  0  0  0
  192.6640  176.7490  138.1710 C   0  0  1  0  0  3  0  0  0  0  0  0
  193.4010  175.8430  137.1990 C   0  0  0  0  0  2  0  0  0  0  0  0
  193.0320  174.3950  137.4480 C   0  0  0  0  0  2  0  0  0  0  0  0
  194.2100  173.5630  137.2970 N   0  0  0  0  0  1  0  0  0  0  0  0
  1 33  1  1  0  0  0
  1 10  1  0  0  0  0
  2  5  2  0  0  0  0
  3  8  1  0  0  0  0
  4  5  1  0  0  0  0
  4 11  1  0  0  0  0
  6  3  2  0  0  0  0
  7  2  1  0  0  0  0
  8  4  2  0  0  0  0
  9  7  2  0  0  0  0
  9  8  1  0  0  0  0
 10 12  2  0  0  0  0
 10 13  1  0  0  0  0
 12  6  1  0  0  0  0
 13  9  1  0  0  0  0
 14 20  1  1  0  0  0
 14 15  1  0  0  0  0
 15 17  1  6  0  0  0
 15 19  1  0  0  0  0
 16 14  1  0  0  0  0
 16 18  1  0  0  0  0
 18 19  1  0  0  0  0
 19  1  1  6  0  0  0
 20 22  1  0  0  0  0
 21 22  2  0  0  0  0
 22 23  1  0  0  0  0
 23 24  1  0  0  0  0
 24 25  1  0  0  0  0
 25 26  1  0  0  0  0
 26 28  2  0  0  0  0
 26 27  1  0  0  0  0
 27 31  1  0  0  0  0
 29 27  1  0  0  0  0
 31 30  1  0  0  0  0
 31 32  1  0  0  0  0
 35 33  1  0  0  0  0
 35 34  1  1  0  0  0
 36 37  1  0  0  0  0
 36 35  1  0  0  0  0
 38 37  1  0  0  0  0
M  END
>  <MODEL>
5

>  <REMARK>
 VINA RESULT:      -6.7      2.858      7.242
  Name = 
  13 active torsions:
  status: ('A' for Active; 'I' for Inactive)
    1  A    between atoms: C_1  and  C_7
    2  A    between atoms: C_3  and  C_18
    3  A    between atoms: C_4  and  O_29
    4  A    between atoms: C_7  and  C_31
    5  A    between atoms: C_10  and  C_19
    6  A    between atoms: C_10  and  C_31
    7  A    between atoms: C_17  and  C_18
    8  A    between atoms: C_17  and  O_26
    9  A    between atoms: C_19  and  C_30
   10  A    between atoms: C_19  and  C_38
   11  A    between atoms: N_21  and  C_24
   12  A    between atoms: O_26  and  C_33
   13  A    between atoms: O_29  and  C_33
                            x       y       z     vdW  Elec       q    Type
                         _______ _______ _______ _____ _____    ______ ____

>  <TORSDO>
F 13

$$$$
=
 OpenBabel10222419013D

 38 40  0  0  1  0  0  0  0  0999 V2000
  190.1480  177.2260  139.2480 C   0  0  2  0  0  3  0  0  0  0  0  0
  186.7240  177.5020  144.3270 C   0  0  0  0  0  3  0  0  0  0  0  0
  190.8700  177.2880  143.7370 N   0  0  0  0  0  0  0  0  0  0  0  0
  188.9270  177.5120  145.1620 C   0  0  0  0  0  0  0  0  0  0  0  0
  187.5880  177.5730  145.3660 N   0  0  0  0  0  0  0  0  0  0  0  0
  191.6690  177.2310  142.7200 C   0  0  0  0  0  3  0  0  0  0  0  0
  187.1990  177.3710  143.0650 N   0  0  0  0  0  0  0  0  0  0  0  0
  189.4480  177.3800  143.8630 C   0  0  0  0  0  0  0  0  0  0  0  0
  188.5310  177.3080  142.7960 C   0  0  0  0  0  0  0  0  0  0  0  0
  190.1520  177.2340  140.7480 C   0  0  0  0  0  0  0  0  0  0  0  0
  189.8020  177.5750  146.2850 N   0  0  0  0  0  1  0  0  0  0  0  0
  191.3020  177.2500  141.3400 N   0  0  0  0  0  0  0  0  0  0  0  0
  188.8990  177.1720  141.4270 N   0  0  0  0  0  2  0  0  0  0  0  0
  187.0040  177.6980  137.1570 C   0  0  1  0  0  3  0  0  0  0  0  0
  188.0830  178.2540  138.0660 C   0  0  2  0  0  3  0  0  0  0  0  0
  187.3850  176.2500  136.8520 C   0  0  0  0  0  2  0  0  0  0  0  0
  189.0600  179.0580  137.2160 C   0  0  0  0  0  1  0  0  0  0  0  0
  188.6520  175.9480  137.6290 C   0  0  0  0  0  2  0  0  0  0  0  0
  188.7270  177.0200  138.6970 C   0  0  1  0  0  3  0  0  0  0  0  0
  185.7540  177.7330  137.8350 O   0  0  0  0  0  0  0  0  0  0  0  0
  184.3390  177.3060  136.0600 O   0  0  0  0  0  0  0  0  0  0  0  0
  184.5920  177.1820  137.2910 C   0  0  0  0  0  0  0  0  0  0  0  0
  183.7130  176.4930  138.1290 O   0  0  0  0  0  0  0  0  0  0  0  0
  182.5310  177.0900  138.6530 C   0  0  0  0  0  2  0  0  0  0  0  0
  182.7150  177.4620  140.1180 C   0  0  0  0  0  2  0  0  0  0  0  0
  181.3990  177.7760  140.7520 C   0  0  0  0  0  0  0  0  0  0  0  0
  181.3370  178.5750  141.9410 N   0  0  0  0  0  0  0  0  0  0  0  0
  180.3460  177.3150  140.2390 O   0  0  0  0  0  0  0  0  0  0  0  0
  182.4780  179.0480  142.4990 O   0  0  0  0  0  1  0  0  0  0  0  0
  179.7970  180.3370  142.6440 C   0  0  0  0  0  1  0  0  0  0  0  0
  180.0540  178.8430  142.5820 C   0  0  0  0  0  3  0  0  0  0  0  0
  180.0330  178.2560  143.9810 C   0  0  0  0  0  1  0  0  0  0  0  0
  191.0930  176.1440  138.7290 C   0  0  0  0  0  2  0  0  0  0  0  0
  193.4070  176.6900  138.7860 O   0  0  0  0  0  1  0  0  0  0  0  0
  192.2700  176.7510  137.9790 C   0  0  1  0  0  3  0  0  0  0  0  0
  192.5160  175.9900  136.6870 C   0  0  0  0  0  2  0  0  0  0  0  0
  193.9970  175.7170  136.5140 C   0  0  0  0  0  2  0  0  0  0  0  0
  194.6490  176.9010  135.9880 N   0  0  0  0  0  1  0  0  0  0  0  0
  1 33  1  1  0  0  0
  1 10  1  0  0  0  0
  2  5  2  0  0  0  0
  3  8  1  0  0  0  0
  4  5  1  0  0  0  0
  4 11  1  0  0  0  0
  6  3  2  0  0  0  0
  7  2  1  0  0  0  0
  8  4  2  0  0  0  0
  9  7  2  0  0  0  0
  9  8  1  0  0  0  0
 10 12  2  0  0  0  0
 10 13  1  0  0  0  0
 12  6  1  0  0  0  0
 13  9  1  0  0  0  0
 14 20  1  1  0  0  0
 14 15  1  0  0  0  0
 15 17  1  6  0  0  0
 15 19  1  0  0  0  0
 16 14  1  0  0  0  0
 16 18  1  0  0  0  0
 18 19  1  0  0  0  0
 19  1  1  6  0  0  0
 21 22  2  0  0  0  0
 22 20  1  0  0  0  0
 22 23  1  0  0  0  0
 23 24  1  0  0  0  0
 24 25  1  0  0  0  0
 25 26  1  0  0  0  0
 26 27  1  0  0  0  0
 27 29  1  0  0  0  0
 27 31  1  0  0  0  0
 28 26  2  0  0  0  0
 31 30  1  0  0  0  0
 31 32  1  0  0  0  0
 35 33  1  0  0  0  0
 35 34  1  1  0  0  0
 36 35  1  0  0  0  0
 37 36  1  0  0  0  0
 38 37  1  0  0  0  0
M  END
>  <MODEL>
6

>  <REMARK>
 VINA RESULT:      -6.6      3.017      7.336
  Name = 
  13 active torsions:
  status: ('A' for Active; 'I' for Inactive)
    1  A    between atoms: C_1  and  C_7
    2  A    between atoms: C_3  and  C_18
    3  A    between atoms: C_4  and  O_29
    4  A    between atoms: C_7  and  C_31
    5  A    between atoms: C_10  and  C_19
    6  A    between atoms: C_10  and  C_31
    7  A    between atoms: C_17  and  C_18
    8  A    between atoms: C_17  and  O_26
    9  A    between atoms: C_19  and  C_30
   10  A    between atoms: C_19  and  C_38
   11  A    between atoms: N_21  and  C_24
   12  A    between atoms: O_26  and  C_33
   13  A    between atoms: O_29  and  C_33
                            x       y       z     vdW  Elec       q    Type
                         _______ _______ _______ _____ _____    ______ ____

>  <TORSDO>
F 13

$$$$
=
 OpenBabel10222419013D

 38 40  0  0  1  0  0  0  0  0999 V2000
  182.7380  178.1650  141.9880 C   0  0  2  0  0  3  0  0  0  0  0  0
  188.3410  177.0030  144.1870 C   0  0  0  0  0  3  0  0  0  0  0  0
  184.9380  178.7260  145.9270 N   0  0  0  0  0  0  0  0  0  0  0  0
  187.2060  177.8920  146.0500 C   0  0  0  0  0  0  0  0  0  0  0  0
  188.3160  177.3440  145.4960 N   0  0  0  0  0  0  0  0  0  0  0  0
  183.7310  179.0030  145.5480 C   0  0  0  0  0  3  0  0  0  0  0  0
  187.2460  177.2070  143.4170 N   0  0  0  0  0  0  0  0  0  0  0  0
  186.0540  178.1120  145.2760 C   0  0  0  0  0  0  0  0  0  0  0  0
  186.1020  177.7490  143.9160 C   0  0  0  0  0  0  0  0  0  0  0  0
  183.6530  178.2740  143.1710 C   0  0  0  0  0  0  0  0  0  0  0  0
  187.2260  178.2520  147.4290 N   0  0  0  0  0  1  0  0  0  0  0  0
  183.1540  178.7410  144.2690 N   0  0  0  0  0  0  0  0  0  0  0  0
  185.0220  177.9090  143.0010 N   0  0  0  0  0  2  0  0  0  0  0  0
  183.8370  178.2060  138.3450 C   0  0  1  0  0  3  0  0  0  0  0  0
  183.6430  177.4750  139.6590 C   0  0  2  0  0  3  0  0  0  0  0  0
  183.2280  179.5960  138.5180 C   0  0  0  0  0  2  0  0  0  0  0  0
  182.4210  176.5720  139.5320 C   0  0  0  0  0  1  0  0  0  0  0  0
  182.7330  179.6930  139.9490 C   0  0  0  0  0  2  0  0  0  0  0  0
  183.4510  178.5850  140.6920 C   0  0  1  0  0  3  0  0  0  0  0  0
  185.2280  178.3210  138.0720 O   0  0  0  0  0  0  0  0  0  0  0  0
  185.6320  176.2690  137.0910 O   0  0  0  0  0  0  0  0  0  0  0  0
  185.8780  177.5070  137.1420 C   0  0  0  0  0  0  0  0  0  0  0  0
  186.8060  178.0820  136.2710 O   0  0  0  0  0  0  0  0  0  0  0  0
  187.8400  177.3270  135.6470 C   0  0  0  0  0  2  0  0  0  0  0  0
  189.2100  177.8810  136.0100 C   0  0  0  0  0  2  0  0  0  0  0  0
  189.2060  178.4330  137.3980 C   0  0  0  0  0  0  0  0  0  0  0  0
  189.3530  177.5640  138.5280 N   0  0  0  0  0  0  0  0  0  0  0  0
  189.0540  179.6730  137.5630 O   0  0  0  0  0  0  0  0  0  0  0  0
  189.4930  176.2280  138.3400 O   0  0  0  0  0  1  0  0  0  0  0  0
  190.0520  177.1900  140.8400 C   0  0  0  0  0  1  0  0  0  0  0  0
  189.3050  178.1020  139.8830 C   0  0  0  0  0  3  0  0  0  0  0  0
  187.8660  178.2590  140.3360 C   0  0  0  0  0  1  0  0  0  0  0  0
  181.4860  179.0100  142.2160 C   0  0  0  0  0  2  0  0  0  0  0  0
  179.7560  177.9430  143.4500 O   0  0  0  0  0  1  0  0  0  0  0  0
  180.2250  178.1610  142.1540 C   0  0  1  0  0  3  0  0  0  0  0  0
  179.1580  178.8650  141.3340 C   0  0  0  0  0  2  0  0  0  0  0  0
  179.2170  178.4050  139.8910 C   0  0  0  0  0  2  0  0  0  0  0  0
  179.3380  179.5590  139.0210 N   0  0  0  0  0  1  0  0  0  0  0  0
  1 33  1  1  0  0  0
  1 10  1  0  0  0  0
  2  5  2  0  0  0  0
  4 11  1  0  0  0  0
  5  4  1  0  0  0  0
  6  3  2  0  0  0  0
  7  9  2  0  0  0  0
  7  2  1  0  0  0  0
  8  3  1  0  0  0  0
  8  4  2  0  0  0  0
  9  8  1  0  0  0  0
 10 12  2  0  0  0  0
 12  6  1  0  0  0  0
 13 10  1  0  0  0  0
 13  9  1  0  0  0  0
 14 20  1  1  0  0  0
 14 16  1  0  0  0  0
 14 15  1  0  0  0  0
 15 17  1  6  0  0  0
 15 19  1  0  0  0  0
 16 18  1  0  0  0  0
 18 19  1  0  0  0  0
 19  1  1  1  0  0  0
 21 22  2  0  0  0  0
 22 20  1  0  0  0  0
 23 22  1  0  0  0  0
 24 25  1  0  0  0  0
 24 23  1  0  0  0  0
 25 26  1  0  0  0  0
 26 28  2  0  0  0  0
 26 27  1  0  0  0  0
 27 31  1  0  0  0  0
 29 27  1  0  0  0  0
 31 32  1  0  0  0  0
 31 30  1  0  0  0  0
 35 33  1  0  0  0  0
 35 34  1  1  0  0  0
 36 35  1  0  0  0  0
 37 36  1  0  0  0  0
 38 37  1  0  0  0  0
M  END
>  <MODEL>
7

>  <REMARK>
 VINA RESULT:      -6.6      2.524      6.852
  Name = 
  13 active torsions:
  status: ('A' for Active; 'I' for Inactive)
    1  A    between atoms: C_1  and  C_7
    2  A    between atoms: C_3  and  C_18
    3  A    between atoms: C_4  and  O_29
    4  A    between atoms: C_7  and  C_31
    5  A    between atoms: C_10  and  C_19
    6  A    between atoms: C_10  and  C_31
    7  A    between atoms: C_17  and  C_18
    8  A    between atoms: C_17  and  O_26
    9  A    between atoms: C_19  and  C_30
   10  A    between atoms: C_19  and  C_38
   11  A    between atoms: N_21  and  C_24
   12  A    between atoms: O_26  and  C_33
   13  A    between atoms: O_29  and  C_33
                            x       y       z     vdW  Elec       q    Type
                         _______ _______ _______ _____ _____    ______ ____

>  <TORSDO>
F 13

$$$$
=
 OpenBabel10222419013D

 38 40  0  0  1  0  0  0  0  0999 V2000
  187.2300  178.0560  143.7370 C   0  0  2  0  0  3  0  0  0  0  0  0
  184.3280  179.0170  138.4230 C   0  0  0  0  0  3  0  0  0  0  0  0
  182.9570  178.8150  142.3800 N   0  0  0  0  0  0  0  0  0  0  0  0
  182.6050  179.2070  140.0180 C   0  0  0  0  0  0  0  0  0  0  0  0
  183.0350  179.2650  138.7330 N   0  0  0  0  0  0  0  0  0  0  0  0
  183.4880  178.6240  143.5460 C   0  0  0  0  0  3  0  0  0  0  0  0
  185.2080  178.7070  139.4040 N   0  0  0  0  0  0  0  0  0  0  0  0
  183.4970  178.8910  141.0580 C   0  0  0  0  0  0  0  0  0  0  0  0
  184.8390  178.6370  140.7110 C   0  0  0  0  0  0  0  0  0  0  0  0
  185.9070  178.2920  143.0710 C   0  0  0  0  0  0  0  0  0  0  0  0
  181.2310  179.4600  140.3010 N   0  0  0  0  0  1  0  0  0  0  0  0
  184.8710  178.4240  143.8350 N   0  0  0  0  0  0  0  0  0  0  0  0
  185.8610  178.3030  141.6450 N   0  0  0  0  0  2  0  0  0  0  0  0
  190.4580  177.0230  142.0040 C   0  0  1  0  0  3  0  0  0  0  0  0
  189.4750  178.0930  142.4400 C   0  0  2  0  0  3  0  0  0  0  0  0
  189.9780  175.7070  142.6140 C   0  0  0  0  0  2  0  0  0  0  0  0
  190.0680  178.8340  143.6320 C   0  0  0  0  0  1  0  0  0  0  0  0
  188.6880  176.0010  143.3550 C   0  0  0  0  0  2  0  0  0  0  0  0
  188.2030  177.3240  142.7970 C   0  0  1  0  0  3  0  0  0  0  0  0
  190.4480  176.9270  140.5850 O   0  0  0  0  0  0  0  0  0  0  0  0
  192.6700  177.4990  140.3240 O   0  0  0  0  0  0  0  0  0  0  0  0
  191.6120  177.0270  139.8210 C   0  0  0  0  0  0  0  0  0  0  0  0
  191.5880  176.6020  138.4910 O   0  0  0  0  0  0  0  0  0  0  0  0
  190.7100  175.5790  138.0310 C   0  0  0  0  0  2  0  0  0  0  0  0
  190.7380  175.4840  136.5120 C   0  0  0  0  0  2  0  0  0  0  0  0
  189.7570  176.4340  135.9060 C   0  0  0  0  0  0  0  0  0  0  0  0
  188.4560  176.6030  136.4820 N   0  0  0  0  0  0  0  0  0  0  0  0
  190.0830  177.0710  134.8690 O   0  0  0  0  0  0  0  0  0  0  0  0
  188.1070  175.8950  137.5840 O   0  0  0  0  0  1  0  0  0  0  0  0
  187.4840  178.8440  136.5650 C   0  0  0  0  0  1  0  0  0  0  0  0
  187.4860  177.4990  135.8610 C   0  0  0  0  0  3  0  0  0  0  0  0
  186.0990  176.8880  135.9110 C   0  0  0  0  0  1  0  0  0  0  0  0
  187.0320  177.2700  145.0320 C   0  0  0  0  0  2  0  0  0  0  0  0
  186.3970  178.2430  147.1060 O   0  0  0  0  0  1  0  0  0  0  0  0
  187.4790  178.0750  146.2420 C   0  0  1  0  0  3  0  0  0  0  0  0
  188.6050  177.3540  146.9640 C   0  0  0  0  0  2  0  0  0  0  0  0
  188.3090  177.2730  148.4480 C   0  0  0  0  0  2  0  0  0  0  0  0
  189.1110  178.2550  149.1540 N   0  0  0  0  0  1  0  0  0  0  0  0
  1 33  1  1  0  0  0
  2  5  2  0  0  0  0
  2  7  1  0  0  0  0
  3  6  2  0  0  0  0
  4 11  1  0  0  0  0
  4  8  2  0  0  0  0
  5  4  1  0  0  0  0
  6 12  1  0  0  0  0
  7  9  2  0  0  0  0
  8  3  1  0  0  0  0
  9  8  1  0  0  0  0
  9 13  1  0  0  0  0
 10  1  1  0  0  0  0
 10 12  2  0  0  0  0
 13 10  1  0  0  0  0
 14 20  1  6  0  0  0
 14 15  1  0  0  0  0
 14 16  1  0  0  0  0
 15 19  1  0  0  0  0
 15 17  1  1  0  0  0
 16 18  1  0  0  0  0
 19 18  1  0  0  0  0
 19  1  1  1  0  0  0
 22 21  2  0  0  0  0
 22 20  1  0  0  0  0
 23 22  1  0  0  0  0
 24 23  1  0  0  0  0
 25 24  1  0  0  0  0
 26 27  1  0  0  0  0
 26 25  1  0  0  0  0
 27 29  1  0  0  0  0
 28 26  2  0  0  0  0
 31 32  1  0  0  0  0
 31 27  1  0  0  0  0
 31 30  1  0  0  0  0
 33 35  1  0  0  0  0
 35 36  1  0  0  0  0
 35 34  1  1  0  0  0
 36 37  1  0  0  0  0
 37 38  1  0  0  0  0
M  END
>  <MODEL>
8

>  <REMARK>
 VINA RESULT:      -6.5      1.765      2.440
  Name = 
  13 active torsions:
  status: ('A' for Active; 'I' for Inactive)
    1  A    between atoms: C_1  and  C_7
    2  A    between atoms: C_3  and  C_18
    3  A    between atoms: C_4  and  O_29
    4  A    between atoms: C_7  and  C_31
    5  A    between atoms: C_10  and  C_19
    6  A    between atoms: C_10  and  C_31
    7  A    between atoms: C_17  and  C_18
    8  A    between atoms: C_17  and  O_26
    9  A    between atoms: C_19  and  C_30
   10  A    between atoms: C_19  and  C_38
   11  A    between atoms: N_21  and  C_24
   12  A    between atoms: O_26  and  C_33
   13  A    between atoms: O_29  and  C_33
                            x       y       z     vdW  Elec       q    Type
                         _______ _______ _______ _____ _____    ______ ____

>  <TORSDO>
F 13

$$$$
=
 OpenBabel10222419013D

 38 40  0  0  1  0  0  0  0  0999 V2000
  190.0430  177.2690  139.4840 C   0  0  2  0  0  3  0  0  0  0  0  0
  186.8060  177.5010  144.6850 C   0  0  0  0  0  3  0  0  0  0  0  0
  190.9210  177.1860  143.9450 N   0  0  0  0  0  0  0  0  0  0  0  0
  189.0350  177.4260  145.4420 C   0  0  0  0  0  0  0  0  0  0  0  0
  187.7060  177.5190  145.6950 N   0  0  0  0  0  0  0  0  0  0  0  0
  191.6830  177.1350  142.8990 C   0  0  0  0  0  3  0  0  0  0  0  0
  187.2330  177.3910  143.4040 N   0  0  0  0  0  0  0  0  0  0  0  0
  189.5070  177.3150  144.1230 C   0  0  0  0  0  0  0  0  0  0  0  0
  188.5520  177.2990  143.0880 C   0  0  0  0  0  0  0  0  0  0  0  0
  190.1000  177.2360  140.9820 C   0  0  0  0  0  0  0  0  0  0  0  0
  189.9500  177.4330  146.5360 N   0  0  0  0  0  1  0  0  0  0  0  0
  191.2690  177.2020  141.5340 N   0  0  0  0  0  0  0  0  0  0  0  0
  188.8690  177.1900  141.7030 N   0  0  0  0  0  2  0  0  0  0  0  0
  186.8340  177.9370  137.5510 C   0  0  1  0  0  3  0  0  0  0  0  0
  187.9590  178.4120  138.4490 C   0  0  2  0  0  3  0  0  0  0  0  0
  187.1680  176.5030  137.1450 C   0  0  0  0  0  2  0  0  0  0  0  0
  188.9230  179.2460  137.6110 C   0  0  0  0  0  1  0  0  0  0  0  0
  188.4560  176.1260  137.8510 C   0  0  0  0  0  2  0  0  0  0  0  0
  188.5980  177.1290  138.9780 C   0  0  1  0  0  3  0  0  0  0  0  0
  185.6120  177.9580  138.2790 O   0  0  0  0  0  0  0  0  0  0  0  0
  185.8850  178.6850  140.4540 O   0  0  0  0  0  0  0  0  0  0  0  0
  185.3730  178.8640  139.3130 C   0  0  0  0  0  0  0  0  0  0  0  0
  184.5550  179.9700  139.0690 O   0  0  0  0  0  0  0  0  0  0  0  0
  183.1340  179.8870  139.0770 C   0  0  0  0  0  2  0  0  0  0  0  0
  182.6500  178.9780  140.1980 C   0  0  0  0  0  2  0  0  0  0  0  0
  181.5160  178.1230  139.7330 C   0  0  0  0  0  0  0  0  0  0  0  0
  181.6930  176.7120  139.5580 N   0  0  0  0  0  0  0  0  0  0  0  0
  180.4060  178.6630  139.4790 O   0  0  0  0  0  0  0  0  0  0  0  0
  182.8980  176.1440  139.8120 O   0  0  0  0  0  1  0  0  0  0  0  0
  179.9290  175.1520  140.2100 C   0  0  0  0  0  1  0  0  0  0  0  0
  180.5970  175.8870  139.0620 C   0  0  0  0  0  3  0  0  0  0  0  0
  181.1080  174.8920  138.0390 C   0  0  0  0  0  1  0  0  0  0  0  0
  190.9310  176.1690  138.9030 C   0  0  0  0  0  2  0  0  0  0  0  0
  193.2310  176.7520  138.7540 O   0  0  0  0  0  1  0  0  0  0  0  0
  192.0360  176.7510  138.0340 C   0  0  1  0  0  3  0  0  0  0  0  0
  192.1980  175.9250  136.7700 C   0  0  0  0  0  2  0  0  0  0  0  0
  193.6670  175.7670  136.4320 C   0  0  0  0  0  2  0  0  0  0  0  0
  193.9330  176.3720  135.1400 N   0  0  0  0  0  1  0  0  0  0  0  0
  1 33  1  6  0  0  0
  1 10  1  0  0  0  0
  2  5  2  0  0  0  0
  3  8  1  0  0  0  0
  4  5  1  0  0  0  0
  4 11  1  0  0  0  0
  6  3  2  0  0  0  0
  7  2  1  0  0  0  0
  8  4  2  0  0  0  0
  9  7  2  0  0  0  0
  9  8  1  0  0  0  0
 10 12  2  0  0  0  0
 10 13  1  0  0  0  0
 12  6  1  0  0  0  0
 13  9  1  0  0  0  0
 14 20  1  1  0  0  0
 14 15  1  0  0  0  0
 15 17  1  6  0  0  0
 15 19  1  0  0  0  0
 16 14  1  0  0  0  0
 16 18  1  0  0  0  0
 18 19  1  0  0  0  0
 19  1  1  6  0  0  0
 20 22  1  0  0  0  0
 22 21  2  0  0  0  0
 23 24  1  0  0  0  0
 23 22  1  0  0  0  0
 24 25  1  0  0  0  0
 26 25  1  0  0  0  0
 27 26  1  0  0  0  0
 27 29  1  0  0  0  0
 28 26  2  0  0  0  0
 31 27  1  0  0  0  0
 31 30  1  0  0  0  0
 32 31  1  0  0  0  0
 35 34  1  1  0  0  0
 35 33  1  0  0  0  0
 36 35  1  0  0  0  0
 37 36  1  0  0  0  0
 38 37  1  0  0  0  0
M  END
>  <MODEL>
9

>  <REMARK>
 VINA RESULT:      -6.5      3.058      6.962
  Name = 
  13 active torsions:
  status: ('A' for Active; 'I' for Inactive)
    1  A    between atoms: C_1  and  C_7
    2  A    between atoms: C_3  and  C_18
    3  A    between atoms: C_4  and  O_29
    4  A    between atoms: C_7  and  C_31
    5  A    between atoms: C_10  and  C_19
    6  A    between atoms: C_10  and  C_31
    7  A    between atoms: C_17  and  C_18
    8  A    between atoms: C_17  and  O_26
    9  A    between atoms: C_19  and  C_30
   10  A    between atoms: C_19  and  C_38
   11  A    between atoms: N_21  and  C_24
   12  A    between atoms: O_26  and  C_33
   13  A    between atoms: O_29  and  C_33
                            x       y       z     vdW  Elec       q    Type
                         _______ _______ _______ _____ _____    ______ ____

>  <TORSDO>
F 13

$$$$
