=
 OpenBabel10222419123D

 64 71  0  0  1  0  0  0  0  0999 V2000
  188.3360  178.1310  137.0560 C   0  0  0  0  0  0  0  0  0  0  0  0
  189.4330  178.9460  136.8250 F   0  0  0  0  0  0  0  0  0  0  0  0
  187.1960  178.8190  136.6730 F   0  0  0  0  0  0  0  0  0  0  0  0
  188.3710  176.4440  138.7840 O   0  0  0  0  0  1  0  0  0  0  0  0
  188.2180  177.8140  138.5560 C   0  0  2  0  0  3  0  0  0  0  0  0
  185.8820  178.5270  138.4190 N   0  0  0  0  0  2  0  0  0  0  0  0
  185.4420  179.0040  140.5520 C   0  0  0  0  0  0  0  0  0  0  0  0
  186.9630  178.2760  139.1430 N   0  0  0  0  0  0  0  0  0  0  0  0
  183.7800  179.3010  138.9220 O   0  0  0  0  0  0  0  0  0  0  0  0
  186.7500  178.5720  140.4470 C   0  0  0  0  0  3  0  0  0  0  0  0
  184.9440  178.9700  139.2700 C   0  0  0  0  0  0  0  0  0  0  0  0
  184.7580  179.4890  141.7840 C   0  0  0  0  0  2  0  0  0  0  0  0
  182.2650  178.8430  142.5280 C   0  0  0  0  0  1  0  0  0  0  0  0
  183.7310  178.1800  142.4760 S   0  0  2  0  0  3  0  0  0  0  0  0
  184.1990  178.1390  144.1130 O   0  0  0  0  0  0  0  0  0  0  0  0
  185.4830  178.6890  144.1320 C   0  0  0  0  0  2  0  0  0  0  0  0
  186.0190  178.7320  145.5570 C   0  0  1  0  0  3  0  0  0  0  0  0
  185.0100  178.1840  146.5170 C   0  0  0  0  0  3  0  0  0  0  0  0
  183.9060  178.6950  146.6160 O   0  0  0  0  0  0  0  0  0  0  0  0
  187.3360  177.9660  145.6420 C   0  0  0  0  0  2  0  0  0  0  0  0
  187.9870  177.9470  144.3920 O   0  0  0  0  0  0  0  0  0  0  0  0
  190.5450  177.6720  143.5250 P   0  0  2  0  0  0  0  0  0  0  0  0
  191.8190  177.2470  144.7250 C   0  0  2  0  0  3  0  0  0  0  0  0
  190.5080  179.1640  143.2800 O   0  0  0  0  0  1  0  0  0  0  0  0
  191.7360  175.8670  145.0320 O   0  0  0  0  0  0  0  0  0  0  0  0
  191.1040  176.7510  145.9250 C   0  0  2  0  0  0  0  0  0  0  0  0
  189.1020  177.0770  144.4430 C   0  0  1  0  0  3  0  0  0  0  0  0
  189.5670  176.6990  145.8530 C   0  0  0  0  0  2  0  0  0  0  0  0
  190.7490  176.8270  142.0750 O   0  0  0  0  0  0  0  0  0  0  0  0
  191.8320  176.8680  147.2550 C   0  0  1  0  0  3  0  0  0  0  0  0
  190.9430  177.2850  148.2460 O   0  0  0  0  0  1  0  0  0  0  0  0
  192.4410  175.5350  147.6480 C   0  0  0  0  0  1  0  0  0  0  0  0
  188.4390  176.8430  136.2240 C   0  0  1  0  0  3  0  0  0  0  0  0
  185.2130  173.9550  136.7800 C   0  0  0  0  0  0  0  0  0  0  0  0
  187.2080  176.6060  135.4670 N   0  0  0  0  0  2  0  0  0  0  0  0
  186.2510  175.5800  135.7550 C   0  0  0  0  0  0  0  0  0  0  0  0
  184.3390  174.1850  135.5950 C   0  0  2  0  0  3  0  0  0  0  0  0
  186.3410  174.8090  136.7850 N   0  0  0  0  0  0  0  0  0  0  0  0
  185.0470  175.3480  134.9010 C   0  0  0  0  0  2  0  0  0  0  0  0
  185.1380  172.8840  137.5570 C   0  0  0  0  0  2  0  0  0  0  0  0
  182.9480  174.6410  136.0210 C   0  0  0  0  0  2  0  0  0  0  0  0
  181.6070  177.3470  138.0810 O   0  0  0  0  0  0  0  0  0  0  0  0
  182.2570  175.1060  138.4380 C   0  0  1  0  0  3  0  0  0  0  0  0
  181.0840  174.4380  138.0560 O   0  0  0  0  0  1  0  0  0  0  0  0
  183.0060  175.5970  137.2230 C   0  0  2  0  0  3  0  0  0  0  0  0
  180.7640  176.3150  140.0840 C   0  0  0  0  0  1  0  0  0  0  0  0
  182.4500  177.0170  136.9950 C   0  0  1  0  0  3  0  0  0  0  0  0
  181.9120  176.4260  139.0950 C   0  0  2  0  0  3  0  0  0  0  0  0
  182.5690  177.8080  134.7280 O   0  0  0  0  0  1  0  0  0  0  0  0
  181.7130  177.2080  135.6610 C   0  0  2  0  0  3  0  0  0  0  0  0
  180.4670  179.1440  134.9540 O   0  0  0  0  0  1  0  0  0  0  0  0
  180.4330  178.0370  135.8060 C   0  0  1  0  0  3  0  0  0  0  0  0
  179.2310  177.2080  135.4960 C   0  0  0  0  0  3  0  0  0  0  0  0
  179.1160  176.0900  135.9750 O   0  0  0  0  0  0  0  0  0  0  0  0
  189.5500  176.8860  135.3640 O   0  0  0  0  0  0  0  0  0  0  0  0
  191.4340  176.0510  136.7720 C   0  0  0  0  0  0  0  0  0  0  0  0
  191.4480  175.7880  134.7160 C   0  0  2  0  0  3  0  0  0  0  0  0
  193.7700  175.9650  136.0660 N   0  0  0  0  0  0  0  0  0  0  0  0
  190.3910  175.8250  135.7320 C   0  0  2  0  0  0  0  0  0  0  0  0
  194.1040  176.1880  137.3830 C   0  0  0  0  0  3  0  0  0  0  0  0
  190.5150  174.6140  134.8340 C   0  0  0  0  0  2  0  0  0  0  0  0
  192.4510  175.8970  135.8120 C   0  0  0  0  0  0  0  0  0  0  0  0
  191.7210  176.2660  138.1070 C   0  0  0  0  0  3  0  0  0  0  0  0
  193.1070  176.3390  138.4030 C   0  0  0  0  0  3  0  0  0  0  0  0
  1  5  1  0  0  0  0
  2  1  1  0  0  0  0
  3  1  1  0  0  0  0
  5  4  1  6  0  0  0
  5  8  1  0  0  0  0
  6  8  1  0  0  0  0
  6 11  1  0  0  0  0
  7 12  1  0  0  0  0
  8 10  1  0  0  0  0
  9 11  2  0  0  0  0
 10  7  2  0  0  0  0
 11  7  1  0  0  0  0
 12 14  1  0  0  0  0
 14 13  1  1  0  0  0
 14 15  1  0  0  0  0
 15 16  1  0  0  0  0
 17 16  1  6  0  0  0
 17 20  1  0  0  0  0
 17 18  1  0  0  0  0
 18 19  2  0  0  0  0
 21 20  1  0  0  0  0
 22 29  2  6  0  0  0
 22 27  1  0  0  0  0
 22 23  1  0  0  0  0
 23 25  1  6  0  0  0
 23 26  1  0  0  0  0
 24 22  1  0  0  0  0
 25 26  1  0  0  0  0
 26 30  1  1  0  0  0
 27 21  1  1  0  0  0
 27 28  1  0  0  0  0
 28 26  1  0  0  0  0
 30 32  1  1  0  0  0
 30 31  1  0  0  0  0
 33 55  1  6  0  0  0
 33  1  1  0  0  0  0
 34 38  1  0  0  0  0
 34 40  2  0  0  0  0
 35 36  1  0  0  0  0
 35 33  1  0  0  0  0
 36 38  2  0  0  0  0
 37 41  1  1  0  0  0
 37 34  1  0  0  0  0
 39 37  1  0  0  0  0
 39 36  1  0  0  0  0
 42 48  1  0  0  0  0
 43 44  1  6  0  0  0
 43 48  1  0  0  0  0
 45 41  1  6  0  0  0
 45 43  1  0  0  0  0
 47 50  1  6  0  0  0
 47 45  1  0  0  0  0
 47 42  1  0  0  0  0
 48 46  1  1  0  0  0
 50 49  1  6  0  0  0
 50 52  1  0  0  0  0
 52 51  1  6  0  0  0
 53 52  1  0  0  0  0
 53 54  2  0  0  0  0
 56 63  1  0  0  0  0
 57 61  1  1  0  0  0
 57 59  1  0  0  0  0
 57 62  1  0  0  0  0
 58 60  2  0  0  0  0
 59 55  1  6  0  0  0
 59 56  1  0  0  0  0
 60 64  1  0  0  0  0
 61 59  1  0  0  0  0
 62 58  1  0  0  0  0
 62 56  2  0  0  0  0
 63 64  2  0  0  0  0
M  END
>  <MODEL>
1

>  <REMARK>
 VINA RESULT:      -6.7      0.000      0.000
  Name = 
  21 active torsions:
  status: ('A' for Active; 'I' for Inactive)
    1  A    between atoms: C_4  and  C_35
    2  A    between atoms: O_6  and  C_28
    3  A    between atoms: O_6  and  C_30
    4  A    between atoms: C_7  and  C_9
    5  A    between atoms: C_7  and  N_20
    6  A    between atoms: C_9  and  C_28
    7  A    between atoms: C_11  and  C_17
    8  A    between atoms: C_11  and  S_36
    9  A    between atoms: C_13  and  O_16
   10  A    between atoms: C_13  and  C_56
   11  A    between atoms: N_15  and  C_28
   12  A    between atoms: O_16  and  S_36
   13  A    between atoms: C_23  and  C_42
   14  A    between atoms: C_25  and  C_56
   15  A    between atoms: C_27  and  C_34
   16  A    between atoms: C_33  and  C_34
   17  A    between atoms: C_42  and  C_49
   18  A    between atoms: O_43  and  C_44
   19  A    between atoms: O_43  and  C_47
   20  A    between atoms: C_47  and  C_56
   21  A    between atoms: C_48  and  C_49
                            x       y       z     vdW  Elec       q    Type
                         _______ _______ _______ _____ _____    ______ ____

>  <TORSDO>
F 21

$$$$
=
 OpenBabel10222419123D

 64 71  0  0  1  0  0  0  0  0999 V2000
  183.6640  178.1560  140.2250 C   0  0  0  0  0  0  0  0  0  0  0  0
  183.4900  177.9810  141.5900 F   0  0  0  0  0  0  0  0  0  0  0  0
  184.0960  176.9550  139.6860 F   0  0  0  0  0  0  0  0  0  0  0  0
  184.2500  180.2420  139.1580 O   0  0  0  0  0  1  0  0  0  0  0  0
  184.7490  179.2130  139.9600 C   0  0  2  0  0  3  0  0  0  0  0  0
  186.1420  178.5990  138.0460 N   0  0  0  0  0  2  0  0  0  0  0  0
  187.8930  177.6620  139.0600 C   0  0  0  0  0  0  0  0  0  0  0  0
  185.9570  178.6570  139.3570 N   0  0  0  0  0  0  0  0  0  0  0  0
  187.8240  177.7760  136.7170 O   0  0  0  0  0  0  0  0  0  0  0  0
  186.9870  178.0780  140.0170 C   0  0  0  0  0  3  0  0  0  0  0  0
  187.3250  177.9950  137.8530 C   0  0  0  0  0  0  0  0  0  0  0  0
  189.1670  176.9250  139.2960 C   0  0  0  0  0  2  0  0  0  0  0  0
  191.6090  177.3270  140.3240 C   0  0  0  0  0  1  0  0  0  0  0  0
  190.0740  177.6790  140.6570 S   0  0  2  0  0  3  0  0  0  0  0  0
  189.7170  176.6650  141.9770 O   0  0  0  0  0  0  0  0  0  0  0  0
  190.9570  176.3770  142.5530 C   0  0  0  0  0  2  0  0  0  0  0  0
  190.9260  176.6680  144.0470 C   0  0  1  0  0  3  0  0  0  0  0  0
  191.4780  178.0300  144.3320 C   0  0  0  0  0  3  0  0  0  0  0  0
  191.8830  178.7370  143.4230 O   0  0  0  0  0  0  0  0  0  0  0  0
  189.5020  176.5280  144.5760 C   0  0  0  0  0  2  0  0  0  0  0  0
  189.2950  177.3690  145.6880 O   0  0  0  0  0  0  0  0  0  0  0  0
  187.6160  178.1430  147.6770 P   0  0  2  0  0  0  0  0  0  0  0  0
  186.0210  178.8500  147.2300 C   0  0  2  0  0  3  0  0  0  0  0  0
  188.6290  179.2310  147.9620 O   0  0  0  0  0  0  0  0  0  0  0  0
  185.1390  177.8130  146.8390 O   0  0  0  0  0  0  0  0  0  0  0  0
  185.8020  178.5000  145.8060 C   0  0  2  0  0  0  0  0  0  0  0  0
  187.9570  177.2540  146.1370 C   0  0  1  0  0  3  0  0  0  0  0  0
  186.8920  177.6630  145.1140 C   0  0  0  0  0  2  0  0  0  0  0  0
  187.4830  177.0850  148.9880 O   0  0  0  0  0  1  0  0  0  0  0  0
  184.8740  179.4070  145.0120 C   0  0  1  0  0  3  0  0  0  0  0  0
  185.4180  179.6500  143.7500 O   0  0  0  0  0  1  0  0  0  0  0  0
  183.5060  178.7700  144.8600 C   0  0  0  0  0  1  0  0  0  0  0  0
  182.3360  178.5470  139.5600 C   0  0  1  0  0  3  0  0  0  0  0  0
  183.3400  177.0040  135.6010 C   0  0  0  0  0  0  0  0  0  0  0  0
  181.7860  177.4310  138.7850 N   0  0  0  0  0  2  0  0  0  0  0  0
  182.2010  177.0660  137.4640 C   0  0  0  0  0  0  0  0  0  0  0  0
  182.3230  175.9370  135.3810 C   0  0  2  0  0  3  0  0  0  0  0  0
  183.1810  177.6420  136.8540 N   0  0  0  0  0  0  0  0  0  0  0  0
  181.5530  175.9570  136.7010 C   0  0  0  0  0  2  0  0  0  0  0  0
  184.0900  177.5200  134.6390 C   0  0  0  0  0  2  0  0  0  0  0  0
  182.9850  174.5730  135.2210 C   0  0  0  0  0  2  0  0  0  0  0  0
  184.7670  172.1810  137.3340 O   0  0  0  0  0  0  0  0  0  0  0  0
  185.3220  174.1600  136.1730 C   0  0  1  0  0  3  0  0  0  0  0  0
  185.5700  173.6420  134.8940 O   0  0  0  0  0  1  0  0  0  0  0  0
  183.8370  174.2070  136.4450 C   0  0  2  0  0  3  0  0  0  0  0  0
  187.1110  172.5410  136.9310 C   0  0  0  0  0  1  0  0  0  0  0  0
  183.5400  172.8450  137.1030 C   0  0  1  0  0  3  0  0  0  0  0  0
  185.7590  173.1680  137.2300 C   0  0  2  0  0  3  0  0  0  0  0  0
  183.0480  171.8010  134.9940 O   0  0  0  0  0  1  0  0  0  0  0  0
  182.5810  171.9460  136.3070 C   0  0  2  0  0  3  0  0  0  0  0  0
  180.5470  172.2530  135.0530 O   0  0  0  0  0  1  0  0  0  0  0  0
  181.1450  172.4800  136.2960 C   0  0  1  0  0  3  0  0  0  0  0  0
  180.3330  171.8240  137.3640 C   0  0  0  0  0  3  0  0  0  0  0  0
  179.2790  171.2740  137.0850 O   0  0  0  0  0  0  0  0  0  0  0  0
  181.4050  178.9930  140.5140 O   0  0  0  0  0  0  0  0  0  0  0  0
  180.5590  180.4110  138.6410 C   0  0  0  0  0  0  0  0  0  0  0  0
  179.8600  180.6770  140.5750 C   0  0  2  0  0  3  0  0  0  0  0  0
  179.8900  182.7490  138.8560 N   0  0  0  0  0  0  0  0  0  0  0  0
  180.3120  179.5130  139.8050 C   0  0  2  0  0  0  0  0  0  0  0  0
  180.3260  182.9210  137.5620 C   0  0  0  0  0  3  0  0  0  0  0  0
  178.9340  179.5010  140.4290 C   0  0  0  0  0  2  0  0  0  0  0  0
  180.0150  181.5010  139.3430 C   0  0  0  0  0  0  0  0  0  0  0  0
  181.0010  180.5330  137.3370 C   0  0  0  0  0  3  0  0  0  0  0  0
  180.8780  181.8390  136.7980 C   0  0  0  0  0  3  0  0  0  0  0  0
  1  2  1  0  0  0  0
  3  1  1  0  0  0  0
  5  4  1  6  0  0  0
  5  1  1  0  0  0  0
  6  8  1  0  0  0  0
  7 12  1  0  0  0  0
  7 10  2  0  0  0  0
  8  5  1  0  0  0  0
  8 10  1  0  0  0  0
  9 11  2  0  0  0  0
 11  6  1  0  0  0  0
 11  7  1  0  0  0  0
 12 14  1  0  0  0  0
 14 13  1  6  0  0  0
 14 15  1  0  0  0  0
 15 16  1  0  0  0  0
 17 16  1  6  0  0  0
 17 18  1  0  0  0  0
 17 20  1  0  0  0  0
 19 18  2  0  0  0  0
 20 21  1  0  0  0  0
 22 24  2  1  0  0  0
 22 29  1  0  0  0  0
 23 25  1  1  0  0  0
 23 22  1  0  0  0  0
 26 30  1  6  0  0  0
 26 25  1  0  0  0  0
 26 23  1  0  0  0  0
 27 21  1  6  0  0  0
 27 22  1  0  0  0  0
 28 26  1  0  0  0  0
 28 27  1  0  0  0  0
 30 32  1  6  0  0  0
 31 30  1  0  0  0  0
 33 35  1  1  0  0  0
 33  1  1  0  0  0  0
 33 55  1  0  0  0  0
 34 38  1  0  0  0  0
 36 35  1  0  0  0  0
 37 41  1  1  0  0  0
 37 34  1  0  0  0  0
 37 39  1  0  0  0  0
 38 36  2  0  0  0  0
 39 36  1  0  0  0  0
 40 34  2  0  0  0  0
 43 44  1  6  0  0  0
 43 45  1  0  0  0  0
 43 48  1  0  0  0  0
 45 41  1  6  0  0  0
 45 47  1  0  0  0  0
 47 50  1  6  0  0  0
 47 42  1  0  0  0  0
 48 46  1  6  0  0  0
 48 42  1  0  0  0  0
 50 49  1  6  0  0  0
 52 51  1  6  0  0  0
 52 50  1  0  0  0  0
 52 53  1  0  0  0  0
 54 53  2  0  0  0  0
 56 62  1  0  0  0  0
 56 59  1  0  0  0  0
 57 61  1  6  0  0  0
 58 62  2  0  0  0  0
 59 61  1  0  0  0  0
 59 55  1  1  0  0  0
 59 57  1  0  0  0  0
 60 58  1  0  0  0  0
 62 57  1  0  0  0  0
 63 56  2  0  0  0  0
 64 63  1  0  0  0  0
 64 60  2  0  0  0  0
M  END
>  <MODEL>
2

>  <REMARK>
 VINA RESULT:      -6.6      3.065      7.314
  Name = 
  21 active torsions:
  status: ('A' for Active; 'I' for Inactive)
    1  A    between atoms: C_4  and  C_35
    2  A    between atoms: O_6  and  C_28
    3  A    between atoms: O_6  and  C_30
    4  A    between atoms: C_7  and  C_9
    5  A    between atoms: C_7  and  N_20
    6  A    between atoms: C_9  and  C_28
    7  A    between atoms: C_11  and  C_17
    8  A    between atoms: C_11  and  S_36
    9  A    between atoms: C_13  and  O_16
   10  A    between atoms: C_13  and  C_56
   11  A    between atoms: N_15  and  C_28
   12  A    between atoms: O_16  and  S_36
   13  A    between atoms: C_23  and  C_42
   14  A    between atoms: C_25  and  C_56
   15  A    between atoms: C_27  and  C_34
   16  A    between atoms: C_33  and  C_34
   17  A    between atoms: C_42  and  C_49
   18  A    between atoms: O_43  and  C_44
   19  A    between atoms: O_43  and  C_47
   20  A    between atoms: C_47  and  C_56
   21  A    between atoms: C_48  and  C_49
                            x       y       z     vdW  Elec       q    Type
                         _______ _______ _______ _____ _____    ______ ____

>  <TORSDO>
F 21

$$$$
=
 OpenBabel10222419123D

 64 71  0  0  1  0  0  0  0  0999 V2000
  188.1280  177.9920  136.8910 C   0  0  0  0  0  0  0  0  0  0  0  0
  187.3000  178.4580  137.9010 F   0  0  0  0  0  0  0  0  0  0  0  0
  188.8670  179.0610  136.4090 F   0  0  0  0  0  0  0  0  0  0  0  0
  186.9670  178.4440  134.8230 O   0  0  0  0  0  1  0  0  0  0  0  0
  187.2880  177.4330  135.7320 C   0  0  2  0  0  3  0  0  0  0  0  0
  186.0820  175.6060  136.8210 N   0  0  0  0  0  2  0  0  0  0  0  0
  183.9640  176.2280  136.5070 C   0  0  0  0  0  0  0  0  0  0  0  0
  186.0690  176.7630  136.1770 N   0  0  0  0  0  0  0  0  0  0  0  0
  184.4370  174.2210  137.6280 O   0  0  0  0  0  0  0  0  0  0  0  0
  184.8000  177.1720  135.9430 C   0  0  0  0  0  3  0  0  0  0  0  0
  184.7990  175.2700  137.0320 C   0  0  0  0  0  0  0  0  0  0  0  0
  182.4750  176.2150  136.4660 C   0  0  0  0  0  2  0  0  0  0  0  0
  181.2260  175.0780  138.5470 C   0  0  0  0  0  1  0  0  0  0  0  0
  181.8090  176.5150  138.1130 S   0  0  2  0  0  3  0  0  0  0  0  0
  180.4060  177.4300  137.8090 O   0  0  0  0  0  0  0  0  0  0  0  0
  180.8280  178.7610  137.8620 C   0  0  0  0  0  2  0  0  0  0  0  0
  180.2280  179.4580  139.0760 C   0  0  1  0  0  3  0  0  0  0  0  0
  179.5210  180.7130  138.6680 C   0  0  0  0  0  3  0  0  0  0  0  0
  179.4110  181.0070  137.4880 O   0  0  0  0  0  0  0  0  0  0  0  0
  179.2860  178.5080  139.8100 C   0  0  0  0  0  2  0  0  0  0  0  0
  179.9590  177.8420  140.8540 O   0  0  0  0  0  0  0  0  0  0  0  0
  180.2160  178.6550  143.4320 P   0  0  2  0  0  0  0  0  0  0  0  0
  181.8730  178.8550  144.1100 C   0  0  2  0  0  3  0  0  0  0  0  0
  179.6400  177.3050  143.8010 O   0  0  0  0  0  0  0  0  0  0  0  0
  182.4340  180.0660  143.6330 O   0  0  0  0  0  0  0  0  0  0  0  0
  182.7900  178.8920  142.9460 C   0  0  2  0  0  0  0  0  0  0  0  0
  180.6280  178.7820  141.6730 C   0  0  1  0  0  3  0  0  0  0  0  0
  182.1550  178.7820  141.5480 C   0  0  0  0  0  2  0  0  0  0  0  0
  179.1880  179.9040  143.9200 O   0  0  0  0  0  1  0  0  0  0  0  0
  184.2330  178.4770  143.1960 C   0  0  1  0  0  3  0  0  0  0  0  0
  184.7290  177.7980  142.0830 O   0  0  0  0  0  1  0  0  0  0  0  0
  185.0960  179.6930  143.4750 C   0  0  0  0  0  1  0  0  0  0  0  0
  189.0950  176.9300  137.4370 C   0  0  1  0  0  3  0  0  0  0  0  0
  191.1660  177.5650  141.2280 C   0  0  0  0  0  0  0  0  0  0  0  0
  188.7440  176.5540  138.8100 N   0  0  0  0  0  2  0  0  0  0  0  0
  189.5570  176.8040  139.9630 C   0  0  0  0  0  0  0  0  0  0  0  0
  190.3160  176.8330  142.2100 C   0  0  2  0  0  3  0  0  0  0  0  0
  190.6570  177.4760  139.9110 N   0  0  0  0  0  0  0  0  0  0  0  0
  189.1720  176.3350  141.3280 C   0  0  0  0  0  2  0  0  0  0  0  0
  192.4020  177.9710  141.4790 C   0  0  0  0  0  2  0  0  0  0  0  0
  189.7490  177.7820  143.2590 C   0  0  0  0  0  2  0  0  0  0  0  0
  190.4810  176.8210  146.7090 O   0  0  0  0  0  0  0  0  0  0  0  0
  191.5950  176.6660  144.6330 C   0  0  1  0  0  3  0  0  0  0  0  0
  191.0280  175.4870  144.1280 O   0  0  0  0  0  1  0  0  0  0  0  0
  190.6150  177.8110  144.5270 C   0  0  2  0  0  3  0  0  0  0  0  0
  192.2820  175.2290  146.5970 C   0  0  0  0  0  1  0  0  0  0  0  0
  189.8610  177.7760  145.8720 C   0  0  1  0  0  3  0  0  0  0  0  0
  191.7390  176.5720  146.1370 C   0  0  2  0  0  3  0  0  0  0  0  0
  187.7940  178.3240  144.7720 O   0  0  0  0  0  1  0  0  0  0  0  0
  188.3560  177.4950  145.7520 C   0  0  2  0  0  3  0  0  0  0  0  0
  188.4380  178.3010  148.0210 O   0  0  0  0  0  1  0  0  0  0  0  0
  187.6140  177.6770  147.0810 C   0  0  1  0  0  3  0  0  0  0  0  0
  186.3780  178.4920  146.8850 C   0  0  0  0  0  3  0  0  0  0  0  0
  185.3150  177.9460  146.6310 O   0  0  0  0  0  0  0  0  0  0  0  0
  189.1230  175.7970  136.6060 O   0  0  0  0  0  0  0  0  0  0  0  0
  191.5930  175.5280  136.8520 C   0  0  0  0  0  0  0  0  0  0  0  0
  190.4510  174.0610  135.9340 C   0  0  2  0  0  3  0  0  0  0  0  0
  193.0350  174.3800  135.2530 N   0  0  0  0  0  0  0  0  0  0  0  0
  190.2060  175.0100  137.0250 C   0  0  2  0  0  0  0  0  0  0  0  0
  194.0260  175.2640  135.6160 C   0  0  0  0  0  3  0  0  0  0  0  0
  190.0120  173.5300  137.2710 C   0  0  0  0  0  2  0  0  0  0  0  0
  191.8610  174.5400  135.8890 C   0  0  0  0  0  0  0  0  0  0  0  0
  192.5580  176.4310  137.2570 C   0  0  0  0  0  3  0  0  0  0  0  0
  193.8080  176.2820  136.6030 C   0  0  0  0  0  3  0  0  0  0  0  0
  1 33  1  0  0  0  0
  1  2  1  0  0  0  0
  3  1  1  0  0  0  0
  5  4  1  6  0  0  0
  5  8  1  0  0  0  0
  5  1  1  0  0  0  0
  6 11  1  0  0  0  0
  7 11  1  0  0  0  0
  8  6  1  0  0  0  0
 10  8  1  0  0  0  0
 10  7  2  0  0  0  0
 11  9  2  0  0  0  0
 12  7  1  0  0  0  0
 12 14  1  0  0  0  0
 14 13  1  6  0  0  0
 15 16  1  0  0  0  0
 15 14  1  0  0  0  0
 17 16  1  6  0  0  0
 17 20  1  0  0  0  0
 18 17  1  0  0  0  0
 19 18  2  0  0  0  0
 20 21  1  0  0  0  0
 22 24  2  1  0  0  0
 22 29  1  0  0  0  0
 22 23  1  0  0  0  0
 23 25  1  6  0  0  0
 26 30  1  1  0  0  0
 26 25  1  0  0  0  0
 26 23  1  0  0  0  0
 27 21  1  6  0  0  0
 27 22  1  0  0  0  0
 28 27  1  0  0  0  0
 28 26  1  0  0  0  0
 30 32  1  6  0  0  0
 31 30  1  0  0  0  0
 33 55  1  6  0  0  0
 33 35  1  0  0  0  0
 34 40  2  0  0  0  0
 34 37  1  0  0  0  0
 35 36  1  0  0  0  0
 36 39  1  0  0  0  0
 37 41  1  1  0  0  0
 38 36  2  0  0  0  0
 38 34  1  0  0  0  0
 39 37  1  0  0  0  0
 43 44  1  1  0  0  0
 43 48  1  0  0  0  0
 45 41  1  6  0  0  0
 45 43  1  0  0  0  0
 45 47  1  0  0  0  0
 47 50  1  6  0  0  0
 47 42  1  0  0  0  0
 48 46  1  6  0  0  0
 48 42  1  0  0  0  0
 50 49  1  6  0  0  0
 50 52  1  0  0  0  0
 52 51  1  1  0  0  0
 53 52  1  0  0  0  0
 54 53  2  0  0  0  0
 56 59  1  0  0  0  0
 56 63  1  0  0  0  0
 57 59  1  0  0  0  0
 57 61  1  1  0  0  0
 58 60  2  0  0  0  0
 58 62  1  0  0  0  0
 59 55  1  6  0  0  0
 59 61  1  0  0  0  0
 60 64  1  0  0  0  0
 62 57  1  0  0  0  0
 62 56  2  0  0  0  0
 64 63  2  0  0  0  0
M  END
>  <MODEL>
3

>  <REMARK>
 VINA RESULT:      -5.8      2.583      8.343
  Name = 
  21 active torsions:
  status: ('A' for Active; 'I' for Inactive)
    1  A    between atoms: C_4  and  C_35
    2  A    between atoms: O_6  and  C_28
    3  A    between atoms: O_6  and  C_30
    4  A    between atoms: C_7  and  C_9
    5  A    between atoms: C_7  and  N_20
    6  A    between atoms: C_9  and  C_28
    7  A    between atoms: C_11  and  C_17
    8  A    between atoms: C_11  and  S_36
    9  A    between atoms: C_13  and  O_16
   10  A    between atoms: C_13  and  C_56
   11  A    between atoms: N_15  and  C_28
   12  A    between atoms: O_16  and  S_36
   13  A    between atoms: C_23  and  C_42
   14  A    between atoms: C_25  and  C_56
   15  A    between atoms: C_27  and  C_34
   16  A    between atoms: C_33  and  C_34
   17  A    between atoms: C_42  and  C_49
   18  A    between atoms: O_43  and  C_44
   19  A    between atoms: O_43  and  C_47
   20  A    between atoms: C_47  and  C_56
   21  A    between atoms: C_48  and  C_49
                            x       y       z     vdW  Elec       q    Type
                         _______ _______ _______ _____ _____    ______ ____

>  <TORSDO>
F 21

$$$$
=
 OpenBabel10222419123D

 64 71  0  0  1  0  0  0  0  0999 V2000
  188.9880  177.7150  137.3990 C   0  0  0  0  0  0  0  0  0  0  0  0
  190.2830  177.8200  136.9160 F   0  0  0  0  0  0  0  0  0  0  0  0
  188.2830  178.8370  136.9930 F   0  0  0  0  0  0  0  0  0  0  0  0
  189.3070  176.4130  139.4080 O   0  0  0  0  0  1  0  0  0  0  0  0
  188.9960  177.6900  138.9360 C   0  0  2  0  0  3  0  0  0  0  0  0
  186.6230  178.2730  138.8190 N   0  0  0  0  0  2  0  0  0  0  0  0
  186.2250  178.9170  140.9170 C   0  0  0  0  0  0  0  0  0  0  0  0
  187.7370  178.1410  139.5240 N   0  0  0  0  0  0  0  0  0  0  0  0
  184.5000  178.9850  139.3260 O   0  0  0  0  0  0  0  0  0  0  0  0
  187.5500  178.5430  140.8030 C   0  0  0  0  0  3  0  0  0  0  0  0
  185.6900  178.7440  139.6610 C   0  0  0  0  0  0  0  0  0  0  0  0
  185.5540  179.4770  142.1240 C   0  0  0  0  0  2  0  0  0  0  0  0
  182.9470  178.9100  142.3750 C   0  0  0  0  0  1  0  0  0  0  0  0
  184.3740  178.2860  142.7830 S   0  0  2  0  0  3  0  0  0  0  0  0
  184.4490  178.5480  144.4630 O   0  0  0  0  0  0  0  0  0  0  0  0
  185.3640  177.6030  144.9320 C   0  0  0  0  0  2  0  0  0  0  0  0
  186.3590  178.2560  145.8830 C   0  0  1  0  0  3  0  0  0  0  0  0
  185.6630  178.7670  147.1050 C   0  0  0  0  0  3  0  0  0  0  0  0
  185.9090  179.8800  147.5400 O   0  0  0  0  0  0  0  0  0  0  0  0
  187.4590  177.2640  146.2480 C   0  0  0  0  0  2  0  0  0  0  0  0
  188.3790  177.8430  147.1460 O   0  0  0  0  0  0  0  0  0  0  0  0
  190.8570  176.7370  147.0620 P   0  0  2  0  0  0  0  0  0  0  0  0
  191.5700  176.3460  145.4540 C   0  0  2  0  0  3  0  0  0  0  0  0
  190.2140  175.5150  147.6800 O   0  0  0  0  0  0  0  0  0  0  0  0
  192.0400  177.5360  144.8460 O   0  0  0  0  0  0  0  0  0  0  0  0
  190.7650  177.0890  144.4560 C   0  0  2  0  0  0  0  0  0  0  0  0
  189.6440  177.9700  146.5250 C   0  0  1  0  0  3  0  0  0  0  0  0
  189.6180  177.9660  144.9920 C   0  0  0  0  0  2  0  0  0  0  0  0
  192.0040  177.4090  148.1050 O   0  0  0  0  0  1  0  0  0  0  0  0
  190.7410  176.5320  143.0410 C   0  0  1  0  0  3  0  0  0  0  0  0
  189.4490  176.1170  142.7180 O   0  0  0  0  0  1  0  0  0  0  0  0
  191.2000  177.5820  142.0470 C   0  0  0  0  0  1  0  0  0  0  0  0
  188.3010  176.4650  136.8280 C   0  0  1  0  0  3  0  0  0  0  0  0
  184.2860  174.7490  136.8550 C   0  0  0  0  0  0  0  0  0  0  0  0
  187.0870  176.8230  136.0890 N   0  0  0  0  0  2  0  0  0  0  0  0
  185.8360  176.1310  136.1790 C   0  0  0  0  0  0  0  0  0  0  0  0
  183.5790  175.5150  135.7900 C   0  0  2  0  0  3  0  0  0  0  0  0
  185.6320  175.1610  137.0040 N   0  0  0  0  0  0  0  0  0  0  0  0
  184.6540  176.5060  135.3470 C   0  0  0  0  0  2  0  0  0  0  0  0
  183.8360  173.6160  137.3740 C   0  0  0  0  0  2  0  0  0  0  0  0
  182.4020  176.2930  136.3660 C   0  0  0  0  0  2  0  0  0  0  0  0
  180.3100  176.2120  139.3630 O   0  0  0  0  0  0  0  0  0  0  0  0
  181.3970  174.6120  138.0100 C   0  0  1  0  0  3  0  0  0  0  0  0
  180.4420  174.4450  136.9970 O   0  0  0  0  0  1  0  0  0  0  0  0
  182.1340  175.9180  137.8320 C   0  0  2  0  0  3  0  0  0  0  0  0
  179.5260  173.9480  139.5760 C   0  0  0  0  0  1  0  0  0  0  0  0
  181.3050  176.9240  138.6550 C   0  0  1  0  0  3  0  0  0  0  0  0
  180.7120  174.8670  139.3360 C   0  0  2  0  0  3  0  0  0  0  0  0
  179.9990  177.5240  136.7270 O   0  0  0  0  0  1  0  0  0  0  0  0
  180.6750  178.0580  137.8310 C   0  0  2  0  0  3  0  0  0  0  0  0
  181.4900  179.4290  136.0260 O   0  0  0  0  0  1  0  0  0  0  0  0
  181.7060  179.0910  137.3640 C   0  0  1  0  0  3  0  0  0  0  0  0
  181.6340  180.3230  138.2060 C   0  0  0  0  0  3  0  0  0  0  0  0
  181.1890  180.2660  139.3420 O   0  0  0  0  0  0  0  0  0  0  0  0
  189.1800  175.7340  136.0120 O   0  0  0  0  0  0  0  0  0  0  0  0
  191.0980  174.5700  137.1080 C   0  0  0  0  0  0  0  0  0  0  0  0
  189.8210  173.5460  135.8350 C   0  0  2  0  0  3  0  0  0  0  0  0
  192.3770  172.7470  136.1090 N   0  0  0  0  0  0  0  0  0  0  0  0
  189.6470  174.6560  136.7790 C   0  0  2  0  0  0  0  0  0  0  0  0
  193.4660  173.2210  136.8040 C   0  0  0  0  0  3  0  0  0  0  0  0
  188.7960  173.4140  136.9290 C   0  0  0  0  0  2  0  0  0  0  0  0
  191.2340  173.4330  136.2920 C   0  0  0  0  0  0  0  0  0  0  0  0
  192.1600  175.0770  137.8340 C   0  0  0  0  0  3  0  0  0  0  0  0
  193.3770  174.3700  137.6600 C   0  0  0  0  0  3  0  0  0  0  0  0
  1  5  1  0  0  0  0
  2  1  1  0  0  0  0
  3  1  1  0  0  0  0
  5  4  1  6  0  0  0
  5  8  1  0  0  0  0
  6  8  1  0  0  0  0
  6 11  1  0  0  0  0
  7 12  1  0  0  0  0
  8 10  1  0  0  0  0
  9 11  2  0  0  0  0
 10  7  2  0  0  0  0
 11  7  1  0  0  0  0
 12 14  1  0  0  0  0
 14 13  1  6  0  0  0
 14 15  1  0  0  0  0
 15 16  1  0  0  0  0
 17 16  1  6  0  0  0
 17 20  1  0  0  0  0
 17 18  1  0  0  0  0
 18 19  2  0  0  0  0
 20 21  1  0  0  0  0
 22 24  2  1  0  0  0
 22 29  1  0  0  0  0
 23 25  1  1  0  0  0
 23 22  1  0  0  0  0
 26 30  1  6  0  0  0
 26 25  1  0  0  0  0
 26 28  1  0  0  0  0
 26 23  1  0  0  0  0
 27 22  1  0  0  0  0
 27 21  1  1  0  0  0
 28 27  1  0  0  0  0
 30 32  1  6  0  0  0
 31 30  1  0  0  0  0
 33 55  1  6  0  0  0
 33  1  1  0  0  0  0
 34 38  1  0  0  0  0
 34 40  2  0  0  0  0
 35 36  1  0  0  0  0
 35 33  1  0  0  0  0
 36 38  2  0  0  0  0
 37 41  1  1  0  0  0
 37 34  1  0  0  0  0
 39 37  1  0  0  0  0
 39 36  1  0  0  0  0
 43 44  1  6  0  0  0
 43 48  1  0  0  0  0
 45 41  1  6  0  0  0
 45 43  1  0  0  0  0
 45 47  1  0  0  0  0
 47 50  1  6  0  0  0
 47 42  1  0  0  0  0
 48 42  1  0  0  0  0
 48 46  1  6  0  0  0
 50 49  1  6  0  0  0
 52 51  1  6  0  0  0
 52 50  1  0  0  0  0
 52 53  1  0  0  0  0
 53 54  2  0  0  0  0
 56 63  1  0  0  0  0
 57 62  1  0  0  0  0
 57 59  1  0  0  0  0
 57 61  1  1  0  0  0
 58 62  1  0  0  0  0
 58 60  2  0  0  0  0
 59 55  1  6  0  0  0
 59 61  1  0  0  0  0
 59 56  1  0  0  0  0
 60 64  1  0  0  0  0
 62 56  2  0  0  0  0
 64 63  2  0  0  0  0
M  END
>  <MODEL>
4

>  <REMARK>
 VINA RESULT:      -5.7      1.704      2.497
  Name = 
  21 active torsions:
  status: ('A' for Active; 'I' for Inactive)
    1  A    between atoms: C_4  and  C_35
    2  A    between atoms: O_6  and  C_28
    3  A    between atoms: O_6  and  C_30
    4  A    between atoms: C_7  and  C_9
    5  A    between atoms: C_7  and  N_20
    6  A    between atoms: C_9  and  C_28
    7  A    between atoms: C_11  and  C_17
    8  A    between atoms: C_11  and  S_36
    9  A    between atoms: C_13  and  O_16
   10  A    between atoms: C_13  and  C_56
   11  A    between atoms: N_15  and  C_28
   12  A    between atoms: O_16  and  S_36
   13  A    between atoms: C_23  and  C_42
   14  A    between atoms: C_25  and  C_56
   15  A    between atoms: C_27  and  C_34
   16  A    between atoms: C_33  and  C_34
   17  A    between atoms: C_42  and  C_49
   18  A    between atoms: O_43  and  C_44
   19  A    between atoms: O_43  and  C_47
   20  A    between atoms: C_47  and  C_56
   21  A    between atoms: C_48  and  C_49
                            x       y       z     vdW  Elec       q    Type
                         _______ _______ _______ _____ _____    ______ ____

>  <TORSDO>
F 21

$$$$
=
 OpenBabel10222419123D

 64 71  0  0  1  0  0  0  0  0999 V2000
  184.8570  178.8290  142.7420 C   0  0  0  0  0  0  0  0  0  0  0  0
  184.4890  179.1790  144.0320 F   0  0  0  0  0  0  0  0  0  0  0  0
  185.0040  179.9920  142.0030 F   0  0  0  0  0  0  0  0  0  0  0  0
  184.1500  177.5480  140.8200 O   0  0  0  0  0  1  0  0  0  0  0  0
  183.7520  177.9850  142.0860 C   0  0  2  0  0  3  0  0  0  0  0  0
  181.7530  179.0140  143.0480 N   0  0  0  0  0  2  0  0  0  0  0  0
  180.6540  179.6410  141.2120 C   0  0  0  0  0  0  0  0  0  0  0  0
  182.4760  178.6880  141.9870 N   0  0  0  0  0  0  0  0  0  0  0  0
  179.7200  180.0440  143.3270 O   0  0  0  0  0  0  0  0  0  0  0  0
  181.8370  179.0300  140.8430 C   0  0  0  0  0  3  0  0  0  0  0  0
  180.6370  179.6010  142.5870 C   0  0  0  0  0  0  0  0  0  0  0  0
  179.5880  180.1470  140.3020 C   0  0  0  0  0  2  0  0  0  0  0  0
  180.1600  182.1530  138.6180 C   0  0  0  0  0  1  0  0  0  0  0  0
  180.2900  180.5500  138.6920 S   0  0  2  0  0  3  0  0  0  0  0  0
  179.1010  180.0110  137.6000 O   0  0  0  0  0  0  0  0  0  0  0  0
  178.9550  178.6490  137.8720 C   0  0  0  0  0  2  0  0  0  0  0  0
  179.7650  177.8210  136.8830 C   0  0  1  0  0  3  0  0  0  0  0  0
  180.2020  178.6630  135.7250 C   0  0  0  0  0  3  0  0  0  0  0  0
  181.2290  178.4010  135.1210 O   0  0  0  0  0  0  0  0  0  0  0  0
  180.9610  177.1900  137.5890 C   0  0  0  0  0  2  0  0  0  0  0  0
  180.5610  176.0740  138.3530 O   0  0  0  0  0  0  0  0  0  0  0  0
  181.1990  173.7740  137.0590 P   0  0  2  0  0  0  0  0  0  0  0  0
  182.8540  173.6070  136.3660 C   0  0  2  0  0  3  0  0  0  0  0  0
  180.2130  174.2220  136.0020 O   0  0  0  0  0  0  0  0  0  0  0  0
  183.7730  173.3210  137.4050 O   0  0  0  0  0  0  0  0  0  0  0  0
  183.6730  174.6650  137.0030 C   0  0  2  0  0  0  0  0  0  0  0  0
  181.5490  175.0630  138.2820 C   0  0  1  0  0  3  0  0  0  0  0  0
  182.9760  175.5650  138.0390 C   0  0  0  0  0  2  0  0  0  0  0  0
  180.6860  172.3420  137.7950 O   0  0  0  0  0  1  0  0  0  0  0  0
  184.8960  175.1430  136.2340 C   0  0  1  0  0  3  0  0  0  0  0  0
  185.1890  176.4610  136.5830 O   0  0  0  0  0  1  0  0  0  0  0  0
  186.0920  174.2600  136.5340 C   0  0  0  0  0  1  0  0  0  0  0  0
  186.1970  178.0760  142.7510 C   0  0  1  0  0  3  0  0  0  0  0  0
  190.2750  177.1470  141.5010 C   0  0  0  0  0  0  0  0  0  0  0  0
  186.8520  178.1510  141.4420 N   0  0  0  0  0  2  0  0  0  0  0  0
  188.2280  177.8430  141.1940 C   0  0  0  0  0  0  0  0  0  0  0  0
  190.2960  177.5550  140.0680 C   0  0  2  0  0  3  0  0  0  0  0  0
  189.0150  177.3750  142.1020 N   0  0  0  0  0  0  0  0  0  0  0  0
  188.8520  178.0050  139.8460 C   0  0  0  0  0  2  0  0  0  0  0  0
  191.3640  176.9090  142.2170 C   0  0  0  0  0  2  0  0  0  0  0  0
  190.5820  176.3620  139.1630 C   0  0  0  0  0  2  0  0  0  0  0  0
  191.4610  175.9650  135.6370 O   0  0  0  0  0  0  0  0  0  0  0  0
  189.4740  175.8830  136.9090 C   0  0  1  0  0  3  0  0  0  0  0  0
  189.5150  174.5550  137.3590 O   0  0  0  0  0  1  0  0  0  0  0  0
  190.4580  176.7330  137.6770 C   0  0  2  0  0  3  0  0  0  0  0  0
  189.5900  174.8660  134.5960 C   0  0  0  0  0  1  0  0  0  0  0  0
  191.7500  176.6480  136.8400 C   0  0  1  0  0  3  0  0  0  0  0  0
  190.0620  175.9790  135.5170 C   0  0  2  0  0  3  0  0  0  0  0  0
  193.6200  176.9500  138.3220 O   0  0  0  0  0  1  0  0  0  0  0  0
  192.9370  175.9910  137.5620 C   0  0  2  0  0  3  0  0  0  0  0  0
  195.2260  175.6480  136.8950 O   0  0  0  0  0  1  0  0  0  0  0  0
  193.9060  175.3000  136.5980 C   0  0  1  0  0  3  0  0  0  0  0  0
  193.7540  173.8160  136.6740 C   0  0  0  0  0  3  0  0  0  0  0  0
  193.9700  173.1250  135.6900 O   0  0  0  0  0  0  0  0  0  0  0  0
  187.0450  178.5670  143.7580 O   0  0  0  0  0  0  0  0  0  0  0  0
  187.2040  177.9890  146.1820 C   0  0  0  0  0  0  0  0  0  0  0  0
  188.5190  177.1670  144.8050 C   0  0  2  0  0  3  0  0  0  0  0  0
  189.2840  177.5010  147.3640 N   0  0  0  0  0  0  0  0  0  0  0  0
  187.1120  177.5790  144.7520 C   0  0  2  0  0  0  0  0  0  0  0  0
  188.6960  178.0490  148.4820 C   0  0  0  0  0  3  0  0  0  0  0  0
  187.4850  176.1600  144.3810 C   0  0  0  0  0  2  0  0  0  0  0  0
  188.5150  177.4850  146.2600 C   0  0  0  0  0  0  0  0  0  0  0  0
  186.5690  178.5380  147.2800 C   0  0  0  0  0  3  0  0  0  0  0  0
  187.3580  178.5660  148.4590 C   0  0  0  0  0  3  0  0  0  0  0  0
  1 33  1  0  0  0  0
  1  2  1  0  0  0  0
  3  1  1  0  0  0  0
  5  4  1  6  0  0  0
  5  1  1  0  0  0  0
  7 11  1  0  0  0  0
  8  5  1  0  0  0  0
  8  6  1  0  0  0  0
 10  7  2  0  0  0  0
 10  8  1  0  0  0  0
 11  6  1  0  0  0  0
 11  9  2  0  0  0  0
 12  7  1  0  0  0  0
 14 13  1  1  0  0  0
 14 12  1  0  0  0  0
 15 16  1  0  0  0  0
 15 14  1  0  0  0  0
 17 18  1  6  0  0  0
 17 20  1  0  0  0  0
 17 16  1  0  0  0  0
 19 18  2  0  0  0  0
 20 21  1  0  0  0  0
 22 24  2  6  0  0  0
 22 29  1  0  0  0  0
 22 27  1  0  0  0  0
 23 26  1  0  0  0  0
 23 22  1  0  0  0  0
 23 25  1  1  0  0  0
 26 30  1  6  0  0  0
 26 25  1  0  0  0  0
 26 28  1  0  0  0  0
 27 21  1  6  0  0  0
 28 27  1  0  0  0  0
 30 32  1  1  0  0  0
 30 31  1  0  0  0  0
 33 35  1  6  0  0  0
 33 55  1  0  0  0  0
 34 38  1  0  0  0  0
 34 40  2  0  0  0  0
 36 35  1  0  0  0  0
 36 38  2  0  0  0  0
 37 41  1  6  0  0  0
 37 34  1  0  0  0  0
 39 37  1  0  0  0  0
 39 36  1  0  0  0  0
 42 47  1  0  0  0  0
 43 44  1  1  0  0  0
 43 45  1  0  0  0  0
 45 41  1  1  0  0  0
 47 50  1  1  0  0  0
 47 45  1  0  0  0  0
 48 46  1  6  0  0  0
 48 42  1  0  0  0  0
 48 43  1  0  0  0  0
 50 49  1  6  0  0  0
 52 53  1  0  0  0  0
 52 51  1  1  0  0  0
 52 50  1  0  0  0  0
 54 53  2  0  0  0  0
 56 62  2  0  0  0  0
 56 63  1  0  0  0  0
 57 61  1  1  0  0  0
 57 62  1  0  0  0  0
 58 60  2  0  0  0  0
 59 55  1  6  0  0  0
 59 57  1  0  0  0  0
 59 56  1  0  0  0  0
 61 59  1  0  0  0  0
 62 58  1  0  0  0  0
 63 64  2  0  0  0  0
 64 60  1  0  0  0  0
M  END
>  <MODEL>
5

>  <REMARK>
 VINA RESULT:      -5.7      3.440      9.865
  Name = 
  21 active torsions:
  status: ('A' for Active; 'I' for Inactive)
    1  A    between atoms: C_4  and  C_35
    2  A    between atoms: O_6  and  C_28
    3  A    between atoms: O_6  and  C_30
    4  A    between atoms: C_7  and  C_9
    5  A    between atoms: C_7  and  N_20
    6  A    between atoms: C_9  and  C_28
    7  A    between atoms: C_11  and  C_17
    8  A    between atoms: C_11  and  S_36
    9  A    between atoms: C_13  and  O_16
   10  A    between atoms: C_13  and  C_56
   11  A    between atoms: N_15  and  C_28
   12  A    between atoms: O_16  and  S_36
   13  A    between atoms: C_23  and  C_42
   14  A    between atoms: C_25  and  C_56
   15  A    between atoms: C_27  and  C_34
   16  A    between atoms: C_33  and  C_34
   17  A    between atoms: C_42  and  C_49
   18  A    between atoms: O_43  and  C_44
   19  A    between atoms: O_43  and  C_47
   20  A    between atoms: C_47  and  C_56
   21  A    between atoms: C_48  and  C_49
                            x       y       z     vdW  Elec       q    Type
                         _______ _______ _______ _____ _____    ______ ____

>  <TORSDO>
F 21

$$$$
=
 OpenBabel10222419123D

 64 71  0  0  1  0  0  0  0  0999 V2000
  186.0970  177.5900  145.5070 C   0  0  0  0  0  0  0  0  0  0  0  0
  185.9430  176.5480  144.6050 F   0  0  0  0  0  0  0  0  0  0  0  0
  185.6000  177.1780  146.7340 F   0  0  0  0  0  0  0  0  0  0  0  0
  184.1620  178.9900  145.8670 O   0  0  0  0  0  1  0  0  0  0  0  0
  185.2820  178.8110  145.0510 C   0  0  2  0  0  3  0  0  0  0  0  0
  185.6030  179.2140  142.6600 N   0  0  0  0  0  2  0  0  0  0  0  0
  183.7030  178.4040  141.8190 C   0  0  0  0  0  0  0  0  0  0  0  0
  184.8680  178.7350  143.6530 N   0  0  0  0  0  0  0  0  0  0  0  0
  185.3070  179.3470  140.3870 O   0  0  0  0  0  0  0  0  0  0  0  0
  183.6900  178.2510  143.1920 C   0  0  0  0  0  3  0  0  0  0  0  0
  184.9030  179.0140  141.5330 C   0  0  0  0  0  0  0  0  0  0  0  0
  182.6050  178.0630  140.8710 C   0  0  0  0  0  2  0  0  0  0  0  0
  180.2850  178.8410  141.9630 C   0  0  0  0  0  1  0  0  0  0  0  0
  181.3560  179.3610  140.8800 S   0  0  2  0  0  3  0  0  0  0  0  0
  180.5500  179.1400  139.3970 O   0  0  0  0  0  0  0  0  0  0  0  0
  179.7760  180.2910  139.2340 C   0  0  0  0  0  2  0  0  0  0  0  0
  179.8710  180.7940  137.8000 C   0  0  1  0  0  3  0  0  0  0  0  0
  181.1580  181.5250  137.5810 C   0  0  0  0  0  3  0  0  0  0  0  0
  181.7950  181.9590  138.5280 O   0  0  0  0  0  0  0  0  0  0  0  0
  179.7260  179.6270  136.8280 C   0  0  0  0  0  2  0  0  0  0  0  0
  180.9350  179.3930  136.1430 O   0  0  0  0  0  0  0  0  0  0  0  0
  182.6940  177.3780  136.6110 P   0  0  2  0  0  0  0  0  0  0  0  0
  182.0850  175.8650  137.3750 C   0  0  2  0  0  3  0  0  0  0  0  0
  183.3070  178.2980  137.6440 O   0  0  0  0  0  1  0  0  0  0  0  0
  181.4000  175.0900  136.4070 O   0  0  0  0  0  0  0  0  0  0  0  0
  180.6100  175.9020  137.2410 C   0  0  2  0  0  0  0  0  0  0  0  0
  181.1230  178.0020  135.9610 C   0  0  1  0  0  3  0  0  0  0  0  0
  180.0020  177.1170  136.5160 C   0  0  0  0  0  2  0  0  0  0  0  0
  183.7930  177.0500  135.3690 O   0  0  0  0  0  0  0  0  0  0  0  0
  179.8080  175.1010  138.2560 C   0  0  1  0  0  3  0  0  0  0  0  0
  180.3850  173.8420  138.4260 O   0  0  0  0  0  1  0  0  0  0  0  0
  179.7640  175.8230  139.5890 C   0  0  0  0  0  1  0  0  0  0  0  0
  187.5830  177.9440  145.6690 C   0  0  1  0  0  3  0  0  0  0  0  0
  190.4180  175.9360  143.0250 C   0  0  0  0  0  0  0  0  0  0  0  0
  188.1700  178.3490  144.3890 N   0  0  0  0  0  2  0  0  0  0  0  0
  189.1290  177.5860  143.6480 C   0  0  0  0  0  0  0  0  0  0  0  0
  190.6730  176.9500  141.9620 C   0  0  2  0  0  3  0  0  0  0  0  0
  189.5080  176.4050  144.0020 N   0  0  0  0  0  0  0  0  0  0  0  0
  189.7410  178.0870  142.3800 C   0  0  0  0  0  2  0  0  0  0  0  0
  191.1760  174.8680  143.2240 C   0  0  0  0  0  2  0  0  0  0  0  0
  190.2350  176.4330  140.5970 C   0  0  0  0  0  2  0  0  0  0  0  0
  190.1220  177.5640  137.1220 O   0  0  0  0  0  0  0  0  0  0  0  0
  189.1240  178.2300  139.1560 C   0  0  1  0  0  3  0  0  0  0  0  0
  188.0300  177.3530  139.2000 O   0  0  0  0  0  1  0  0  0  0  0  0
  190.4000  177.5010  139.5050 C   0  0  2  0  0  3  0  0  0  0  0  0
  188.1670  178.9530  136.9290 C   0  0  0  0  0  1  0  0  0  0  0  0
  190.9290  177.0110  138.1420 C   0  0  1  0  0  3  0  0  0  0  0  0
  189.4190  178.6210  137.7230 C   0  0  2  0  0  3  0  0  0  0  0  0
  192.3470  175.0720  138.0390 O   0  0  0  0  0  1  0  0  0  0  0  0
  191.0090  175.4830  138.0000 C   0  0  2  0  0  3  0  0  0  0  0  0
  191.1790  174.0740  136.0540 O   0  0  0  0  0  1  0  0  0  0  0  0
  190.3410  174.9740  136.7180 C   0  0  1  0  0  3  0  0  0  0  0  0
  189.0430  174.3070  137.0310 C   0  0  0  0  0  3  0  0  0  0  0  0
  187.9880  174.8450  136.7310 O   0  0  0  0  0  0  0  0  0  0  0  0
  187.7600  178.9500  146.6350 O   0  0  0  0  0  0  0  0  0  0  0  0
  189.9030  177.7630  147.1140 C   0  0  0  0  0  0  0  0  0  0  0  0
  188.1290  177.1500  147.9950 C   0  0  2  0  0  3  0  0  0  0  0  0
  190.1010  175.3710  147.5590 N   0  0  0  0  0  0  0  0  0  0  0  0
  188.6660  178.4510  147.5820 C   0  0  2  0  0  0  0  0  0  0  0  0
  191.3410  175.4320  146.9640 C   0  0  0  0  0  3  0  0  0  0  0  0
  188.2260  178.2510  149.0150 C   0  0  0  0  0  2  0  0  0  0  0  0
  189.4340  176.5370  147.6180 C   0  0  0  0  0  0  0  0  0  0  0  0
  191.1450  177.8770  146.5180 C   0  0  0  0  0  3  0  0  0  0  0  0
  191.8720  176.6600  146.4450 C   0  0  0  0  0  3  0  0  0  0  0  0
  1 33  1  0  0  0  0
  1  3  1  0  0  0  0
  2  1  1  0  0  0  0
  5  1  1  0  0  0  0
  5  4  1  1  0  0  0
  6  8  1  0  0  0  0
  7 10  2  0  0  0  0
  8  5  1  0  0  0  0
  9 11  2  0  0  0  0
 10  8  1  0  0  0  0
 11  7  1  0  0  0  0
 11  6  1  0  0  0  0
 12 14  1  0  0  0  0
 12  7  1  0  0  0  0
 14 13  1  1  0  0  0
 15 14  1  0  0  0  0
 16 15  1  0  0  0  0
 17 20  1  6  0  0  0
 17 16  1  0  0  0  0
 18 17  1  0  0  0  0
 18 19  2  0  0  0  0
 21 20  1  0  0  0  0
 22 29  2  6  0  0  0
 22 23  1  0  0  0  0
 22 24  1  0  0  0  0
 23 25  1  6  0  0  0
 25 26  1  0  0  0  0
 26 23  1  0  0  0  0
 26 30  1  1  0  0  0
 27 21  1  1  0  0  0
 27 28  1  0  0  0  0
 27 22  1  0  0  0  0
 28 26  1  0  0  0  0
 30 31  1  0  0  0  0
 30 32  1  1  0  0  0
 33 35  1  6  0  0  0
 33 55  1  0  0  0  0
 34 40  2  0  0  0  0
 34 38  1  0  0  0  0
 36 38  2  0  0  0  0
 36 35  1  0  0  0  0
 37 41  1  6  0  0  0
 37 39  1  0  0  0  0
 37 34  1  0  0  0  0
 39 36  1  0  0  0  0
 42 48  1  0  0  0  0
 42 47  1  0  0  0  0
 43 44  1  6  0  0  0
 43 45  1  0  0  0  0
 45 41  1  1  0  0  0
 47 50  1  1  0  0  0
 47 45  1  0  0  0  0
 48 46  1  6  0  0  0
 48 43  1  0  0  0  0
 50 49  1  6  0  0  0
 52 51  1  1  0  0  0
 52 53  1  0  0  0  0
 52 50  1  0  0  0  0
 54 53  2  0  0  0  0
 56 59  1  0  0  0  0
 56 62  1  0  0  0  0
 57 61  1  1  0  0  0
 58 62  2  0  0  0  0
 59 55  1  6  0  0  0
 59 57  1  0  0  0  0
 59 61  1  0  0  0  0
 60 58  1  0  0  0  0
 62 57  1  0  0  0  0
 63 56  2  0  0  0  0
 64 63  1  0  0  0  0
 64 60  2  0  0  0  0
M  END
>  <MODEL>
6

>  <REMARK>
 VINA RESULT:      -5.7      3.462      9.745
  Name = 
  21 active torsions:
  status: ('A' for Active; 'I' for Inactive)
    1  A    between atoms: C_4  and  C_35
    2  A    between atoms: O_6  and  C_28
    3  A    between atoms: O_6  and  C_30
    4  A    between atoms: C_7  and  C_9
    5  A    between atoms: C_7  and  N_20
    6  A    between atoms: C_9  and  C_28
    7  A    between atoms: C_11  and  C_17
    8  A    between atoms: C_11  and  S_36
    9  A    between atoms: C_13  and  O_16
   10  A    between atoms: C_13  and  C_56
   11  A    between atoms: N_15  and  C_28
   12  A    between atoms: O_16  and  S_36
   13  A    between atoms: C_23  and  C_42
   14  A    between atoms: C_25  and  C_56
   15  A    between atoms: C_27  and  C_34
   16  A    between atoms: C_33  and  C_34
   17  A    between atoms: C_42  and  C_49
   18  A    between atoms: O_43  and  C_44
   19  A    between atoms: O_43  and  C_47
   20  A    between atoms: C_47  and  C_56
   21  A    between atoms: C_48  and  C_49
                            x       y       z     vdW  Elec       q    Type
                         _______ _______ _______ _____ _____    ______ ____

>  <TORSDO>
F 21

$$$$
=
 OpenBabel10222419123D

 64 71  0  0  1  0  0  0  0  0999 V2000
  189.6040  177.4510  137.6630 C   0  0  0  0  0  0  0  0  0  0  0  0
  190.9480  177.4990  137.3260 F   0  0  0  0  0  0  0  0  0  0  0  0
  188.9970  178.6030  137.1880 F   0  0  0  0  0  0  0  0  0  0  0  0
  189.6280  176.1300  139.6850 O   0  0  0  0  0  1  0  0  0  0  0  0
  189.4410  177.4240  139.1910 C   0  0  2  0  0  3  0  0  0  0  0  0
  187.1310  178.1350  138.8180 N   0  0  0  0  0  2  0  0  0  0  0  0
  186.5400  178.7990  140.8640 C   0  0  0  0  0  0  0  0  0  0  0  0
  188.1520  177.9420  139.6400 N   0  0  0  0  0  0  0  0  0  0  0  0
  185.0070  178.9620  139.0940 O   0  0  0  0  0  0  0  0  0  0  0  0
  187.8470  178.3520  140.8940 C   0  0  0  0  0  3  0  0  0  0  0  0
  186.1370  178.6560  139.5560 C   0  0  0  0  0  0  0  0  0  0  0  0
  185.7720  179.3930  141.9940 C   0  0  0  0  0  2  0  0  0  0  0  0
  183.1580  178.8020  141.9470 C   0  0  0  0  0  1  0  0  0  0  0  0
  184.5260  178.2290  142.5740 S   0  0  2  0  0  3  0  0  0  0  0  0
  184.3820  178.6010  144.2290 O   0  0  0  0  0  0  0  0  0  0  0  0
  185.2250  177.6920  144.8740 C   0  0  0  0  0  2  0  0  0  0  0  0
  186.2780  178.4330  145.6870 C   0  0  1  0  0  3  0  0  0  0  0  0
  185.6850  178.9750  146.9510 C   0  0  0  0  0  3  0  0  0  0  0  0
  185.4770  178.2400  147.9030 O   0  0  0  0  0  0  0  0  0  0  0  0
  187.4550  177.5080  145.9830 C   0  0  0  0  0  2  0  0  0  0  0  0
  188.2620  178.0360  147.0110 O   0  0  0  0  0  0  0  0  0  0  0  0
  190.6370  176.7450  147.2630 P   0  0  2  0  0  0  0  0  0  0  0  0
  191.5550  176.3320  145.7690 C   0  0  2  0  0  3  0  0  0  0  0  0
  189.8220  175.5640  147.7410 O   0  0  0  0  0  0  0  0  0  0  0  0
  192.1970  177.4930  145.2730 O   0  0  0  0  0  0  0  0  0  0  0  0
  190.9650  177.1530  144.6850 C   0  0  2  0  0  0  0  0  0  0  0  0
  189.6130  178.0770  146.5890 C   0  0  1  0  0  3  0  0  0  0  0  0
  189.8180  178.1050  145.0710 C   0  0  0  0  0  2  0  0  0  0  0  0
  191.6600  177.3070  148.4850 O   0  0  0  0  0  1  0  0  0  0  0  0
  191.1150  176.6260  143.2660 C   0  0  1  0  0  3  0  0  0  0  0  0
  190.0690  175.7500  142.9740 O   0  0  0  0  0  1  0  0  0  0  0  0
  191.1110  177.7700  142.2700 C   0  0  0  0  0  1  0  0  0  0  0  0
  188.9300  176.2330  137.0120 C   0  0  1  0  0  3  0  0  0  0  0  0
  185.0430  174.2490  137.1160 C   0  0  0  0  0  0  0  0  0  0  0  0
  187.6390  176.5980  136.4240 N   0  0  0  0  0  2  0  0  0  0  0  0
  186.4440  175.8140  136.5160 C   0  0  0  0  0  0  0  0  0  0  0  0
  184.2020  175.0960  136.2220 C   0  0  2  0  0  3  0  0  0  0  0  0
  186.3680  174.7320  137.2150 N   0  0  0  0  0  0  0  0  0  0  0  0
  185.1740  176.2100  135.8350 C   0  0  0  0  0  2  0  0  0  0  0  0
  184.7060  173.0290  137.5090 C   0  0  0  0  0  2  0  0  0  0  0  0
  183.0340  175.7070  136.9870 C   0  0  0  0  0  2  0  0  0  0  0  0
  179.5760  176.7380  136.3980 O   0  0  0  0  0  0  0  0  0  0  0  0
  181.6850  177.2710  135.4790 C   0  0  1  0  0  3  0  0  0  0  0  0
  182.1170  178.2480  136.3870 O   0  0  0  0  0  1  0  0  0  0  0  0
  181.8010  175.8940  136.0890 C   0  0  2  0  0  3  0  0  0  0  0  0
  179.6880  178.7870  135.1430 C   0  0  0  0  0  1  0  0  0  0  0  0
  180.4290  175.6680  136.7550 C   0  0  1  0  0  3  0  0  0  0  0  0
  180.1840  177.3590  135.2960 C   0  0  2  0  0  3  0  0  0  0  0  0
  181.6840  176.0210  138.7760 O   0  0  0  0  0  1  0  0  0  0  0  0
  180.4800  175.5030  138.2820 C   0  0  2  0  0  3  0  0  0  0  0  0
  179.1760  173.8980  139.5180 O   0  0  0  0  0  1  0  0  0  0  0  0
  180.3170  174.0450  138.7230 C   0  0  1  0  0  3  0  0  0  0  0  0
  180.2150  173.1450  137.5360 C   0  0  0  0  0  3  0  0  0  0  0  0
  180.2050  171.9320  137.6840 O   0  0  0  0  0  0  0  0  0  0  0  0
  189.7670  175.6500  136.0460 O   0  0  0  0  0  0  0  0  0  0  0  0
  191.7240  174.4290  137.0010 C   0  0  0  0  0  0  0  0  0  0  0  0
  190.5900  173.5930  135.4800 C   0  0  2  0  0  3  0  0  0  0  0  0
  193.1880  172.9380  135.7380 N   0  0  0  0  0  0  0  0  0  0  0  0
  190.2860  174.4760  136.6110 C   0  0  2  0  0  0  0  0  0  0  0  0
  194.2050  173.3390  136.5760 C   0  0  0  0  0  3  0  0  0  0  0  0
  189.5340  173.1720  136.4650 C   0  0  0  0  0  2  0  0  0  0  0  0
  191.9870  173.4910  135.9870 C   0  0  0  0  0  0  0  0  0  0  0  0
  192.7100  174.8540  137.8720 C   0  0  0  0  0  3  0  0  0  0  0  0
  193.9870  174.2840  137.6340 C   0  0  0  0  0  3  0  0  0  0  0  0
  1  5  1  0  0  0  0
  2  1  1  0  0  0  0
  3  1  1  0  0  0  0
  5  8  1  0  0  0  0
  5  4  1  6  0  0  0
  6 11  1  0  0  0  0
  6  8  1  0  0  0  0
  7 10  2  0  0  0  0
  7 12  1  0  0  0  0
  8 10  1  0  0  0  0
  9 11  2  0  0  0  0
 11  7  1  0  0  0  0
 12 14  1  0  0  0  0
 14 13  1  6  0  0  0
 14 15  1  0  0  0  0
 15 16  1  0  0  0  0
 17 16  1  1  0  0  0
 17 20  1  0  0  0  0
 17 18  1  0  0  0  0
 18 19  2  0  0  0  0
 20 21  1  0  0  0  0
 22 24  2  1  0  0  0
 22 29  1  0  0  0  0
 23 25  1  1  0  0  0
 23 22  1  0  0  0  0
 26 30  1  6  0  0  0
 26 28  1  0  0  0  0
 26 25  1  0  0  0  0
 26 23  1  0  0  0  0
 27 21  1  6  0  0  0
 27 22  1  0  0  0  0
 28 27  1  0  0  0  0
 30 32  1  6  0  0  0
 31 30  1  0  0  0  0
 33 55  1  6  0  0  0
 33  1  1  0  0  0  0
 34 38  1  0  0  0  0
 34 40  2  0  0  0  0
 35 36  1  0  0  0  0
 35 33  1  0  0  0  0
 36 38  2  0  0  0  0
 37 41  1  1  0  0  0
 37 34  1  0  0  0  0
 39 37  1  0  0  0  0
 39 36  1  0  0  0  0
 42 47  1  0  0  0  0
 43 45  1  0  0  0  0
 43 44  1  1  0  0  0
 45 47  1  0  0  0  0
 45 41  1  1  0  0  0
 47 50  1  1  0  0  0
 48 46  1  1  0  0  0
 48 43  1  0  0  0  0
 48 42  1  0  0  0  0
 50 52  1  0  0  0  0
 50 49  1  6  0  0  0
 52 51  1  1  0  0  0
 53 54  2  0  0  0  0
 53 52  1  0  0  0  0
 56 63  1  0  0  0  0
 57 62  1  0  0  0  0
 57 61  1  1  0  0  0
 57 59  1  0  0  0  0
 58 62  1  0  0  0  0
 58 60  2  0  0  0  0
 59 55  1  6  0  0  0
 59 56  1  0  0  0  0
 60 64  1  0  0  0  0
 61 59  1  0  0  0  0
 62 56  2  0  0  0  0
 64 63  2  0  0  0  0
M  END
>  <MODEL>
7

>  <REMARK>
 VINA RESULT:      -5.6      1.647      2.903
  Name = 
  21 active torsions:
  status: ('A' for Active; 'I' for Inactive)
    1  A    between atoms: C_4  and  C_35
    2  A    between atoms: O_6  and  C_28
    3  A    between atoms: O_6  and  C_30
    4  A    between atoms: C_7  and  C_9
    5  A    between atoms: C_7  and  N_20
    6  A    between atoms: C_9  and  C_28
    7  A    between atoms: C_11  and  C_17
    8  A    between atoms: C_11  and  S_36
    9  A    between atoms: C_13  and  O_16
   10  A    between atoms: C_13  and  C_56
   11  A    between atoms: N_15  and  C_28
   12  A    between atoms: O_16  and  S_36
   13  A    between atoms: C_23  and  C_42
   14  A    between atoms: C_25  and  C_56
   15  A    between atoms: C_27  and  C_34
   16  A    between atoms: C_33  and  C_34
   17  A    between atoms: C_42  and  C_49
   18  A    between atoms: O_43  and  C_44
   19  A    between atoms: O_43  and  C_47
   20  A    between atoms: C_47  and  C_56
   21  A    between atoms: C_48  and  C_49
                            x       y       z     vdW  Elec       q    Type
                         _______ _______ _______ _____ _____    ______ ____

>  <TORSDO>
F 21

$$$$
=
 OpenBabel10222419123D

 64 71  0  0  1  0  0  0  0  0999 V2000
  188.4700  177.6460  142.3810 C   0  0  0  0  0  0  0  0  0  0  0  0
  188.3390  179.0170  142.2190 F   0  0  0  0  0  0  0  0  0  0  0  0
  187.8710  177.0230  141.2980 F   0  0  0  0  0  0  0  0  0  0  0  0
  187.6140  175.7990  143.6810 O   0  0  0  0  0  1  0  0  0  0  0  0
  187.7390  177.1900  143.6550 C   0  0  2  0  0  3  0  0  0  0  0  0
  185.9930  178.2820  144.9740 N   0  0  0  0  0  2  0  0  0  0  0  0
  184.3820  178.5300  143.4510 C   0  0  0  0  0  0  0  0  0  0  0  0
  186.4250  177.8080  143.8150 N   0  0  0  0  0  0  0  0  0  0  0  0
  184.0270  179.2550  145.6550 O   0  0  0  0  0  0  0  0  0  0  0  0
  185.4700  177.9170  142.8610 C   0  0  0  0  0  3  0  0  0  0  0  0
  184.7450  178.7300  144.7630 C   0  0  0  0  0  0  0  0  0  0  0  0
  183.0670  178.8220  142.8150 C   0  0  0  0  0  2  0  0  0  0  0  0
  184.1160  179.3800  140.4130 C   0  0  0  0  0  1  0  0  0  0  0  0
  183.0960  178.3290  141.0820 S   0  0  2  0  0  3  0  0  0  0  0  0
  181.5780  178.8370  140.5040 O   0  0  0  0  0  0  0  0  0  0  0  0
  181.5290  178.3870  139.1820 C   0  0  0  0  0  2  0  0  0  0  0  0
  181.3770  176.8730  139.1440 C   0  0  1  0  0  3  0  0  0  0  0  0
  179.9410  176.4910  138.9670 C   0  0  0  0  0  3  0  0  0  0  0  0
  179.4240  176.5150  137.8620 O   0  0  0  0  0  0  0  0  0  0  0  0
  182.2440  176.2900  138.0310 C   0  0  0  0  0  2  0  0  0  0  0  0
  183.1760  177.2420  137.5710 O   0  0  0  0  0  0  0  0  0  0  0  0
  185.8170  177.1990  136.9420 P   0  0  2  0  0  0  0  0  0  0  0  0
  186.6550  175.6070  136.8550 C   0  0  2  0  0  3  0  0  0  0  0  0
  186.0380  177.8540  138.2880 O   0  0  0  0  0  1  0  0  0  0  0  0
  186.3170  174.9620  135.6390 O   0  0  0  0  0  0  0  0  0  0  0  0
  185.5850  174.5840  136.7790 C   0  0  2  0  0  0  0  0  0  0  0  0
  184.1160  176.6210  136.7150 C   0  0  1  0  0  3  0  0  0  0  0  0
  184.1300  175.0890  136.7690 C   0  0  0  0  0  2  0  0  0  0  0  0
  186.2970  178.2240  135.6870 O   0  0  0  0  0  0  0  0  0  0  0  0
  185.9350  173.1870  137.2680 C   0  0  1  0  0  3  0  0  0  0  0  0
  184.8400  172.6290  137.9290 O   0  0  0  0  0  1  0  0  0  0  0  0
  186.3310  172.2990  136.1040 C   0  0  0  0  0  1  0  0  0  0  0  0
  189.9530  177.2490  142.4220 C   0  0  1  0  0  3  0  0  0  0  0  0
  189.9240  177.8290  138.0950 C   0  0  0  0  0  0  0  0  0  0  0  0
  190.2870  176.3430  141.3190 N   0  0  0  0  0  2  0  0  0  0  0  0
  190.1910  176.6720  139.9290 C   0  0  0  0  0  0  0  0  0  0  0  0
  190.2580  176.4760  137.5650 C   0  0  2  0  0  3  0  0  0  0  0  0
  189.8800  177.8520  139.5090 N   0  0  0  0  0  0  0  0  0  0  0  0
  190.4820  175.6800  138.8510 C   0  0  0  0  0  2  0  0  0  0  0  0
  189.4140  178.8050  137.3580 C   0  0  0  0  0  2  0  0  0  0  0  0
  191.5600  176.5040  136.7730 C   0  0  0  0  0  2  0  0  0  0  0  0
  194.0580  173.9250  136.0880 O   0  0  0  0  0  0  0  0  0  0  0  0
  193.9310  175.8400  137.4630 C   0  0  1  0  0  3  0  0  0  0  0  0
  194.2980  176.8350  136.5460 O   0  0  0  0  0  1  0  0  0  0  0  0
  192.5150  175.3820  137.2070 C   0  0  2  0  0  3  0  0  0  0  0  0
  196.1580  174.7940  136.8770 C   0  0  0  0  0  1  0  0  0  0  0  0
  192.6790  174.2050  136.2250 C   0  0  1  0  0  3  0  0  0  0  0  0
  194.6850  174.5600  137.1710 C   0  0  2  0  0  3  0  0  0  0  0  0
  191.6820  175.7760  134.7010 O   0  0  0  0  0  1  0  0  0  0  0  0
  192.0340  174.4270  134.8490 C   0  0  2  0  0  3  0  0  0  0  0  0
  191.1710  172.1890  134.6240 O   0  0  0  0  0  1  0  0  0  0  0  0
  190.8060  173.5380  134.6220 C   0  0  1  0  0  3  0  0  0  0  0  0
  189.7810  173.7780  135.6810 C   0  0  0  0  0  3  0  0  0  0  0  0
  189.5450  172.9160  136.5140 O   0  0  0  0  0  0  0  0  0  0  0  0
  190.7810  178.3840  142.3980 O   0  0  0  0  0  0  0  0  0  0  0  0
  191.5380  177.1730  144.4450 C   0  0  0  0  0  0  0  0  0  0  0  0
  190.5340  178.9810  144.5920 C   0  0  2  0  0  3  0  0  0  0  0  0
  190.3600  177.1790  146.5830 N   0  0  0  0  0  0  0  0  0  0  0  0
  191.4720  178.4110  143.6180 C   0  0  2  0  0  0  0  0  0  0  0  0
  190.8400  175.9030  146.7740 C   0  0  0  0  0  3  0  0  0  0  0  0
  191.7950  179.7360  144.2730 C   0  0  0  0  0  2  0  0  0  0  0  0
  190.7320  177.7670  145.4330 C   0  0  0  0  0  0  0  0  0  0  0  0
  192.0520  175.8980  144.5960 C   0  0  0  0  0  3  0  0  0  0  0  0
  191.6760  175.2550  145.8030 C   0  0  0  0  0  3  0  0  0  0  0  0
  1 33  1  0  0  0  0
  1  5  1  0  0  0  0
  2  1  1  0  0  0  0
  3  1  1  0  0  0  0
  5  4  1  6  0  0  0
  5  8  1  0  0  0  0
  7 11  1  0  0  0  0
  8  6  1  0  0  0  0
 10  7  2  0  0  0  0
 10  8  1  0  0  0  0
 11  6  1  0  0  0  0
 11  9  2  0  0  0  0
 12  7  1  0  0  0  0
 14 13  1  6  0  0  0
 14 12  1  0  0  0  0
 15 14  1  0  0  0  0
 16 15  1  0  0  0  0
 17 20  1  6  0  0  0
 17 16  1  0  0  0  0
 18 17  1  0  0  0  0
 19 18  2  0  0  0  0
 21 20  1  0  0  0  0
 22 29  2  6  0  0  0
 22 24  1  0  0  0  0
 23 25  1  6  0  0  0
 23 22  1  0  0  0  0
 25 26  1  0  0  0  0
 26 23  1  0  0  0  0
 26 30  1  1  0  0  0
 27 28  1  0  0  0  0
 27 22  1  0  0  0  0
 27 21  1  1  0  0  0
 28 26  1  0  0  0  0
 30 32  1  6  0  0  0
 30 31  1  0  0  0  0
 33 35  1  6  0  0  0
 34 38  1  0  0  0  0
 36 35  1  0  0  0  0
 37 41  1  6  0  0  0
 37 34  1  0  0  0  0
 37 39  1  0  0  0  0
 38 36  2  0  0  0  0
 39 36  1  0  0  0  0
 40 34  2  0  0  0  0
 42 47  1  0  0  0  0
 42 48  1  0  0  0  0
 43 44  1  6  0  0  0
 45 41  1  6  0  0  0
 45 43  1  0  0  0  0
 47 50  1  6  0  0  0
 47 45  1  0  0  0  0
 48 46  1  6  0  0  0
 48 43  1  0  0  0  0
 50 49  1  1  0  0  0
 52 51  1  1  0  0  0
 52 50  1  0  0  0  0
 52 53  1  0  0  0  0
 53 54  2  0  0  0  0
 55 33  1  0  0  0  0
 56 63  2  0  0  0  0
 56 62  1  0  0  0  0
 57 61  1  1  0  0  0
 57 62  1  0  0  0  0
 58 60  1  0  0  0  0
 59 55  1  6  0  0  0
 59 61  1  0  0  0  0
 59 56  1  0  0  0  0
 59 57  1  0  0  0  0
 62 58  2  0  0  0  0
 63 64  1  0  0  0  0
 64 60  2  0  0  0  0
M  END
>  <MODEL>
8

>  <REMARK>
 VINA RESULT:      -5.5      2.927      8.898
  Name = 
  21 active torsions:
  status: ('A' for Active; 'I' for Inactive)
    1  A    between atoms: C_4  and  C_35
    2  A    between atoms: O_6  and  C_28
    3  A    between atoms: O_6  and  C_30
    4  A    between atoms: C_7  and  C_9
    5  A    between atoms: C_7  and  N_20
    6  A    between atoms: C_9  and  C_28
    7  A    between atoms: C_11  and  C_17
    8  A    between atoms: C_11  and  S_36
    9  A    between atoms: C_13  and  O_16
   10  A    between atoms: C_13  and  C_56
   11  A    between atoms: N_15  and  C_28
   12  A    between atoms: O_16  and  S_36
   13  A    between atoms: C_23  and  C_42
   14  A    between atoms: C_25  and  C_56
   15  A    between atoms: C_27  and  C_34
   16  A    between atoms: C_33  and  C_34
   17  A    between atoms: C_42  and  C_49
   18  A    between atoms: O_43  and  C_44
   19  A    between atoms: O_43  and  C_47
   20  A    between atoms: C_47  and  C_56
   21  A    between atoms: C_48  and  C_49
                            x       y       z     vdW  Elec       q    Type
                         _______ _______ _______ _____ _____    ______ ____

>  <TORSDO>
F 21

$$$$
=
 OpenBabel10222419123D

 64 71  0  0  1  0  0  0  0  0999 V2000
  182.5310  175.8260  138.2620 C   0  0  0  0  0  0  0  0  0  0  0  0
  181.6550  174.7930  137.9670 F   0  0  0  0  0  0  0  0  0  0  0  0
  183.8140  175.3050  138.3150 F   0  0  0  0  0  0  0  0  0  0  0  0
  180.9690  177.0760  139.6150 O   0  0  0  0  0  1  0  0  0  0  0  0
  182.2030  176.4220  139.6410 C   0  0  2  0  0  3  0  0  0  0  0  0
  184.2850  177.6840  139.4070 N   0  0  0  0  0  2  0  0  0  0  0  0
  184.4550  178.6280  141.4200 C   0  0  0  0  0  0  0  0  0  0  0  0
  183.2350  177.3300  140.1330 N   0  0  0  0  0  0  0  0  0  0  0  0
  186.1170  179.0080  139.8080 O   0  0  0  0  0  0  0  0  0  0  0  0
  183.3050  177.8630  141.3760 C   0  0  0  0  0  3  0  0  0  0  0  0
  185.0360  178.4810  140.1830 C   0  0  0  0  0  0  0  0  0  0  0  0
  184.9870  179.3730  142.5950 C   0  0  0  0  0  2  0  0  0  0  0  0
  183.0480  179.5440  144.4370 C   0  0  0  0  0  1  0  0  0  0  0  0
  184.3530  178.6560  144.1210 S   0  0  2  0  0  3  0  0  0  0  0  0
  185.4720  179.1760  145.2940 O   0  0  0  0  0  0  0  0  0  0  0  0
  185.3040  178.2950  146.3650 C   0  0  0  0  0  2  0  0  0  0  0  0
  186.5300  177.4040  146.5150 C   0  0  1  0  0  3  0  0  0  0  0  0
  187.1620  177.1480  145.1820 C   0  0  0  0  0  3  0  0  0  0  0  0
  186.6640  176.3540  144.4010 O   0  0  0  0  0  0  0  0  0  0  0  0
  187.5220  178.0400  147.4840 C   0  0  0  0  0  2  0  0  0  0  0  0
  188.5830  177.1560  147.7660 O   0  0  0  0  0  0  0  0  0  0  0  0
  191.1820  176.4950  147.3380 P   0  0  2  0  0  0  0  0  0  0  0  0
  191.8090  176.5200  145.6500 C   0  0  2  0  0  3  0  0  0  0  0  0
  190.7800  175.0950  147.7460 O   0  0  0  0  0  0  0  0  0  0  0  0
  192.0470  177.8600  145.2550 O   0  0  0  0  0  0  0  0  0  0  0  0
  190.8230  177.2920  144.8570 C   0  0  2  0  0  0  0  0  0  0  0  0
  189.7600  177.5940  147.1130 C   0  0  1  0  0  3  0  0  0  0  0  0
  189.6080  177.8620  145.6120 C   0  0  0  0  0  2  0  0  0  0  0  0
  192.3000  177.1430  148.4270 O   0  0  0  0  0  1  0  0  0  0  0  0
  190.7650  177.0020  143.3650 C   0  0  1  0  0  3  0  0  0  0  0  0
  189.8770  175.9530  143.1210 O   0  0  0  0  0  1  0  0  0  0  0  0
  190.3170  178.2330  142.6000 C   0  0  0  0  0  1  0  0  0  0  0  0
  182.4800  176.9030  137.1670 C   0  0  1  0  0  3  0  0  0  0  0  0
  186.5870  177.9800  136.1520 C   0  0  0  0  0  0  0  0  0  0  0  0
  183.3260  176.5360  136.0280 N   0  0  0  0  0  2  0  0  0  0  0  0
  184.6610  177.0070  135.8120 C   0  0  0  0  0  0  0  0  0  0  0  0
  186.7830  177.3590  134.8110 C   0  0  2  0  0  3  0  0  0  0  0  0
  185.2900  177.7440  136.6640 N   0  0  0  0  0  0  0  0  0  0  0  0
  185.4480  176.6480  134.5940 C   0  0  0  0  0  2  0  0  0  0  0  0
  187.3890  178.9020  136.6630 C   0  0  0  0  0  2  0  0  0  0  0  0
  187.8940  176.3170  134.8460 C   0  0  0  0  0  2  0  0  0  0  0  0
  189.6500  174.6690  137.5960 O   0  0  0  0  0  0  0  0  0  0  0  0
  190.1470  176.3860  136.0540 C   0  0  1  0  0  3  0  0  0  0  0  0
  190.5710  175.6250  134.9560 O   0  0  0  0  0  1  0  0  0  0  0  0
  188.6430  176.3300  136.1870 C   0  0  2  0  0  3  0  0  0  0  0  0
  191.9830  175.1830  137.3110 C   0  0  0  0  0  1  0  0  0  0  0  0
  188.4000  175.1250  137.1190 C   0  0  1  0  0  3  0  0  0  0  0  0
  190.5570  175.7100  137.3450 C   0  0  2  0  0  3  0  0  0  0  0  0
  186.3610  173.8510  137.0970 O   0  0  0  0  0  1  0  0  0  0  0  0
  187.6120  173.9720  136.4790 C   0  0  2  0  0  3  0  0  0  0  0  0
  187.8760  171.8560  137.5990 O   0  0  0  0  0  1  0  0  0  0  0  0
  188.3600  172.6370  136.5460 C   0  0  1  0  0  3  0  0  0  0  0  0
  188.2140  171.8870  135.2630 C   0  0  0  0  0  3  0  0  0  0  0  0
  187.1640  171.3230  134.9970 O   0  0  0  0  0  0  0  0  0  0  0  0
  181.1590  177.1340  136.7480 O   0  0  0  0  0  0  0  0  0  0  0  0
  181.2550  179.5310  137.4410 C   0  0  0  0  0  0  0  0  0  0  0  0
  179.6430  178.8020  136.3600 C   0  0  2  0  0  3  0  0  0  0  0  0
  179.3140  180.8920  138.0240 N   0  0  0  0  0  0  0  0  0  0  0  0
  181.0760  178.4890  136.3910 C   0  0  2  0  0  0  0  0  0  0  0  0
  180.1350  181.5650  138.9000 C   0  0  0  0  0  3  0  0  0  0  0  0
  180.4310  178.8850  135.0810 C   0  0  0  0  0  2  0  0  0  0  0  0
  179.9050  179.9080  137.3230 C   0  0  0  0  0  0  0  0  0  0  0  0
  182.1200  180.1830  138.3000 C   0  0  0  0  0  3  0  0  0  0  0  0
  181.5220  181.2280  139.0500 C   0  0  0  0  0  3  0  0  0  0  0  0
  1  3  1  0  0  0  0
  1  5  1  0  0  0  0
  2  1  1  0  0  0  0
  5  4  1  6  0  0  0
  5  8  1  0  0  0  0
  6  8  1  0  0  0  0
  6 11  1  0  0  0  0
  7 12  1  0  0  0  0
  8 10  1  0  0  0  0
  9 11  2  0  0  0  0
 10  7  2  0  0  0  0
 11  7  1  0  0  0  0
 12 14  1  0  0  0  0
 14 13  1  1  0  0  0
 14 15  1  0  0  0  0
 15 16  1  0  0  0  0
 16 17  1  0  0  0  0
 17 18  1  6  0  0  0
 17 20  1  0  0  0  0
 19 18  2  0  0  0  0
 20 21  1  0  0  0  0
 22 24  2  1  0  0  0
 22 29  1  0  0  0  0
 23 25  1  1  0  0  0
 23 22  1  0  0  0  0
 26 30  1  6  0  0  0
 26 25  1  0  0  0  0
 26 28  1  0  0  0  0
 26 23  1  0  0  0  0
 27 22  1  0  0  0  0
 27 21  1  6  0  0  0
 28 27  1  0  0  0  0
 30 32  1  6  0  0  0
 31 30  1  0  0  0  0
 33 35  1  6  0  0  0
 33  1  1  0  0  0  0
 34 40  2  0  0  0  0
 34 38  1  0  0  0  0
 36 35  1  0  0  0  0
 36 38  2  0  0  0  0
 37 41  1  1  0  0  0
 37 34  1  0  0  0  0
 39 37  1  0  0  0  0
 39 36  1  0  0  0  0
 43 44  1  6  0  0  0
 43 45  1  0  0  0  0
 43 48  1  0  0  0  0
 45 41  1  6  0  0  0
 45 47  1  0  0  0  0
 47 50  1  6  0  0  0
 47 42  1  0  0  0  0
 48 46  1  6  0  0  0
 48 42  1  0  0  0  0
 50 52  1  0  0  0  0
 50 49  1  1  0  0  0
 52 51  1  1  0  0  0
 53 52  1  0  0  0  0
 54 53  2  0  0  0  0
 55 33  1  0  0  0  0
 56 63  1  0  0  0  0
 57 61  1  6  0  0  0
 57 59  1  0  0  0  0
 57 62  1  0  0  0  0
 58 60  2  0  0  0  0
 59 55  1  1  0  0  0
 59 56  1  0  0  0  0
 60 64  1  0  0  0  0
 61 59  1  0  0  0  0
 62 56  2  0  0  0  0
 62 58  1  0  0  0  0
 63 64  2  0  0  0  0
M  END
>  <MODEL>
9

>  <REMARK>
 VINA RESULT:      -5.5      2.648      7.059
  Name = 
  21 active torsions:
  status: ('A' for Active; 'I' for Inactive)
    1  A    between atoms: C_4  and  C_35
    2  A    between atoms: O_6  and  C_28
    3  A    between atoms: O_6  and  C_30
    4  A    between atoms: C_7  and  C_9
    5  A    between atoms: C_7  and  N_20
    6  A    between atoms: C_9  and  C_28
    7  A    between atoms: C_11  and  C_17
    8  A    between atoms: C_11  and  S_36
    9  A    between atoms: C_13  and  O_16
   10  A    between atoms: C_13  and  C_56
   11  A    between atoms: N_15  and  C_28
   12  A    between atoms: O_16  and  S_36
   13  A    between atoms: C_23  and  C_42
   14  A    between atoms: C_25  and  C_56
   15  A    between atoms: C_27  and  C_34
   16  A    between atoms: C_33  and  C_34
   17  A    between atoms: C_42  and  C_49
   18  A    between atoms: O_43  and  C_44
   19  A    between atoms: O_43  and  C_47
   20  A    between atoms: C_47  and  C_56
   21  A    between atoms: C_48  and  C_49
                            x       y       z     vdW  Elec       q    Type
                         _______ _______ _______ _____ _____    ______ ____

>  <TORSDO>
F 21

$$$$
