=
 OpenBabel10222421003D

 38 42  0  0  0  0  0  0  0  0999 V2000
  185.1460  178.6430  139.6540 C   0  0  0  0  0  0  0  0  0  0  0  0
  184.9590  178.5760  141.0340 C   0  0  0  0  0  0  0  0  0  0  0  0
  182.7060  178.7150  139.4270 C   0  0  0  0  0  3  0  0  0  0  0  0
  183.7190  178.5720  141.5960 C   0  0  0  0  0  0  0  0  0  0  0  0
  182.5580  178.6430  140.8250 C   0  0  0  0  0  0  0  0  0  0  0  0
  183.8190  178.4880  142.9310 N   0  0  0  0  0  0  0  0  0  0  0  0
  185.8960  178.4960  141.9900 N   0  0  0  0  0  2  0  0  0  0  0  0
  183.9920  178.7140  138.8430 C   0  0  0  0  0  3  0  0  0  0  0  0
  185.1610  178.4470  143.1330 C   0  0  0  0  0  0  0  0  0  0  0  0
  189.7190  177.2700  147.0040 C   0  0  0  0  0  3  0  0  0  0  0  0
  187.0460  178.0930  146.9180 C   0  0  0  0  0  0  0  0  0  0  0  0
  185.1040  178.6250  145.6690 C   0  0  0  0  0  0  0  0  0  0  0  0
  189.0690  177.3880  145.7720 C   0  0  0  0  0  3  0  0  0  0  0  0
  187.7330  177.7980  145.7260 C   0  0  0  0  0  0  0  0  0  0  0  0
  185.7890  178.3300  144.4680 C   0  0  0  0  0  0  0  0  0  0  0  0
  189.0340  177.5630  148.1900 C   0  0  0  0  0  3  0  0  0  0  0  0
  183.7540  179.0860  145.6660 N   0  0  0  0  0  1  0  0  0  0  0  0
  187.0880  177.9240  144.5390 N   0  0  0  0  0  0  0  0  0  0  0  0
  187.6990  177.9760  148.1490 C   0  0  0  0  0  3  0  0  0  0  0  0
  185.7540  178.5000  146.8570 N   0  0  0  0  0  0  0  0  0  0  0  0
  180.9340  178.6180  141.5750 S   0  0  0  0  0  0  0  0  0  0  0  0
  180.0950  178.7000  139.9680 C   0  0  0  0  0  2  0  0  0  0  0  0
  179.0840  179.8320  139.9920 C   0  0  0  0  0  2  0  0  0  0  0  0
  179.2390  180.6710  138.8120 N   0  0  0  0  0  0  0  0  0  0  0  0
  181.1390  181.7430  137.8080 C   0  0  0  0  0  2  0  0  0  0  0  0
  180.6530  180.6530  136.8870 C   0  0  0  0  0  2  0  0  0  0  0  0
  180.3420  181.5810  139.0860 C   0  0  0  0  0  2  0  0  0  0  0  0
  179.7120  179.8230  137.7280 C   0  0  0  0  0  2  0  0  0  0  0  0
  186.4630  178.6420  139.0970 N   0  0  0  0  0  2  0  0  0  0  0  0
  186.7930  177.9450  137.8630 C   0  0  0  0  0  2  0  0  0  0  0  0
  188.1780  177.8710  137.7280 O   0  0  0  0  0  0  0  0  0  0  0  0
  188.6210  177.3390  138.9390 C   0  0  0  0  0  2  0  0  0  0  0  0
  189.8670  176.5090  138.7040 C   0  0  0  0  0  2  0  0  0  0  0  0
  190.8140  176.7420  139.7800 N   0  0  0  0  0  2  0  0  0  0  0  0
  190.0570  177.2970  140.8870 C   0  0  0  0  0  2  0  0  0  0  0  0
  190.5550  176.7270  142.1700 C   0  0  0  0  0  0  0  0  0  0  0  0
  190.1890  175.5790  142.5320 O   0  0  0  0  0  0  0  0  0  0  0  0
  191.4480  177.4530  142.9510 O   0  0  0  0  0  1  0  0  0  0  0  0
  1  2  1  0  0  0  0
  2  4  2  0  0  0  0
  2  7  1  0  0  0  0
  3  5  2  0  0  0  0
  4  6  1  0  0  0  0
  5 21  1  0  0  0  0
  5  4  1  0  0  0  0
  6  9  2  0  0  0  0
  7  9  1  0  0  0  0
  8  3  1  0  0  0  0
  8  1  2  0  0  0  0
  9 15  1  0  0  0  0
 10 16  1  0  0  0  0
 11 19  1  0  0  0  0
 12 20  2  0  0  0  0
 13 10  2  0  0  0  0
 14 13  1  0  0  0  0
 14 11  2  0  0  0  0
 15 18  2  0  0  0  0
 15 12  1  0  0  0  0
 17 12  1  0  0  0  0
 18 14  1  0  0  0  0
 19 16  2  0  0  0  0
 20 11  1  0  0  0  0
 22 23  1  0  0  0  0
 22 21  1  0  0  0  0
 24 27  1  0  0  0  0
 24 23  1  0  0  0  0
 25 27  1  0  0  0  0
 26 28  1  0  0  0  0
 26 25  1  0  0  0  0
 28 24  1  0  0  0  0
 29  1  1  0  0  0  0
 30 29  1  0  0  0  0
 31 30  1  0  0  0  0
 31 32  1  0  0  0  0
 33 32  1  0  0  0  0
 33 34  1  0  0  0  0
 34 35  1  0  0  0  0
 35 36  1  0  0  0  0
 36 37  2  0  0  0  0
 36 38  1  0  0  0  0
M  END
>  <MODEL>
1

>  <REMARK>
 VINA RESULT:      -8.0      0.000      0.000
  Name = 
  13 active torsions:
  status: ('A' for Active; 'I' for Inactive)
    1  A    between atoms: C_2  and  C_3
    2  A    between atoms: C_3  and  N_27
    3  A    between atoms: C_5  and  N_28
    4  A    between atoms: N_6  and  C_14
    5  A    between atoms: C_13  and  S_15
    6  A    between atoms: C_14  and  C_18
    7  A    between atoms: S_15  and  C_18
    8  A    between atoms: C_20  and  C_36
    9  A    between atoms: C_22  and  O_23
   10  A    between atoms: C_22  and  N_28
   11  A    between atoms: O_23  and  C_29
   12  A    between atoms: C_26  and  N_27
   13  A    between atoms: C_26  and  C_29
                            x       y       z     vdW  Elec       q    Type
                         _______ _______ _______ _____ _____    ______ ____

>  <TORSDO>
F 13

$$$$
=
 OpenBabel10222421003D

 38 42  0  0  0  0  0  0  0  0999 V2000
  190.4200  177.0710  139.0000 C   0  0  0  0  0  0  0  0  0  0  0  0
  189.1800  177.5270  139.4480 C   0  0  0  0  0  0  0  0  0  0  0  0
  189.6210  177.4480  136.7130 C   0  0  0  0  0  3  0  0  0  0  0  0
  188.2010  177.9200  138.5870 C   0  0  0  0  0  0  0  0  0  0  0  0
  188.3820  177.8990  137.2040 C   0  0  0  0  0  0  0  0  0  0  0  0
  187.1110  178.2990  139.2720 N   0  0  0  0  0  0  0  0  0  0  0  0
  188.7520  177.6420  140.7130 N   0  0  0  0  0  2  0  0  0  0  0  0
  190.6360  177.0350  137.6050 C   0  0  0  0  0  3  0  0  0  0  0  0
  187.4870  178.1170  140.5640 C   0  0  0  0  0  0  0  0  0  0  0  0
  185.8970  177.9400  146.4440 C   0  0  0  0  0  3  0  0  0  0  0  0
  185.0240  178.8380  143.9430 C   0  0  0  0  0  0  0  0  0  0  0  0
  185.3720  179.0650  141.6100 C   0  0  0  0  0  0  0  0  0  0  0  0
  186.6830  177.7100  145.3120 C   0  0  0  0  0  3  0  0  0  0  0  0
  186.2490  178.1570  144.0600 C   0  0  0  0  0  0  0  0  0  0  0  0
  186.6040  178.3810  141.7220 C   0  0  0  0  0  0  0  0  0  0  0  0
  184.6770  178.6170  146.3270 C   0  0  0  0  0  3  0  0  0  0  0  0
  184.9100  179.5740  140.3600 N   0  0  0  0  0  1  0  0  0  0  0  0
  187.0020  177.9490  142.9510 N   0  0  0  0  0  0  0  0  0  0  0  0
  184.2390  179.0690  145.0770 C   0  0  0  0  0  3  0  0  0  0  0  0
  184.6200  179.2760  142.7230 N   0  0  0  0  0  0  0  0  0  0  0  0
  187.0800  178.4000  136.0830 S   0  0  0  0  0  0  0  0  0  0  0  0
  186.7170  176.6890  135.6010 C   0  0  0  0  0  2  0  0  0  0  0  0
  185.5410  176.1810  136.4160 C   0  0  0  0  0  2  0  0  0  0  0  0
  185.4200  174.7370  136.2800 N   0  0  0  0  0  0  0  0  0  0  0  0
  186.4830  172.8960  137.3990 C   0  0  0  0  0  2  0  0  0  0  0  0
  185.0230  172.9170  137.7760 C   0  0  0  0  0  2  0  0  0  0  0  0
  186.7190  174.1730  136.6180 C   0  0  0  0  0  2  0  0  0  0  0  0
  184.5240  174.2700  137.3280 C   0  0  0  0  0  2  0  0  0  0  0  0
  191.4260  176.6630  139.9320 N   0  0  0  0  0  2  0  0  0  0  0  0
  192.1320  177.6050  140.7870 C   0  0  0  0  0  2  0  0  0  0  0  0
  192.1580  177.1160  142.0920 O   0  0  0  0  0  0  0  0  0  0  0  0
  191.2670  177.9330  142.7910 C   0  0  0  0  0  2  0  0  0  0  0  0
  191.6940  178.0220  144.2420 C   0  0  0  0  0  2  0  0  0  0  0  0
  190.9010  177.1010  145.0360 N   0  0  0  0  0  2  0  0  0  0  0  0
  191.8400  176.2360  145.7290 C   0  0  0  0  0  2  0  0  0  0  0  0
  191.6810  176.4020  147.2010 C   0  0  0  0  0  0  0  0  0  0  0  0
  190.7310  177.0890  147.6570 O   0  0  0  0  0  0  0  0  0  0  0  0
  192.5660  175.7720  148.0690 O   0  0  0  0  0  1  0  0  0  0  0  0
  1  2  1  0  0  0  0
  1 29  1  0  0  0  0
  2  7  1  0  0  0  0
  3  5  2  0  0  0  0
  3  8  1  0  0  0  0
  4  6  1  0  0  0  0
  4  2  2  0  0  0  0
  5  4  1  0  0  0  0
  6  9  2  0  0  0  0
  8  1  2  0  0  0  0
  9  7  1  0  0  0  0
  9 15  1  0  0  0  0
 11 14  1  0  0  0  0
 11 19  1  0  0  0  0
 12 15  2  0  0  0  0
 12 20  1  0  0  0  0
 13 10  2  0  0  0  0
 14 13  1  0  0  0  0
 15 18  1  0  0  0  0
 16 10  1  0  0  0  0
 17 12  1  0  0  0  0
 18 14  2  0  0  0  0
 19 16  2  0  0  0  0
 20 11  2  0  0  0  0
 21  5  1  0  0  0  0
 22 21  1  0  0  0  0
 22 23  1  0  0  0  0
 24 23  1  0  0  0  0
 24 27  1  0  0  0  0
 24 28  1  0  0  0  0
 25 26  1  0  0  0  0
 27 25  1  0  0  0  0
 28 26  1  0  0  0  0
 29 30  1  0  0  0  0
 30 31  1  0  0  0  0
 31 32  1  0  0  0  0
 32 33  1  0  0  0  0
 33 34  1  0  0  0  0
 34 35  1  0  0  0  0
 35 36  1  0  0  0  0
 36 37  2  0  0  0  0
 36 38  1  0  0  0  0
M  END
>  <MODEL>
2

>  <REMARK>
 VINA RESULT:      -7.9      3.633      6.006
  Name = 
  13 active torsions:
  status: ('A' for Active; 'I' for Inactive)
    1  A    between atoms: C_2  and  C_3
    2  A    between atoms: C_3  and  N_27
    3  A    between atoms: C_5  and  N_28
    4  A    between atoms: N_6  and  C_14
    5  A    between atoms: C_13  and  S_15
    6  A    between atoms: C_14  and  C_18
    7  A    between atoms: S_15  and  C_18
    8  A    between atoms: C_20  and  C_36
    9  A    between atoms: C_22  and  O_23
   10  A    between atoms: C_22  and  N_28
   11  A    between atoms: O_23  and  C_29
   12  A    between atoms: C_26  and  N_27
   13  A    between atoms: C_26  and  C_29
                            x       y       z     vdW  Elec       q    Type
                         _______ _______ _______ _____ _____    ______ ____

>  <TORSDO>
F 13

$$$$
=
 OpenBabel10222421003D

 38 42  0  0  0  0  0  0  0  0999 V2000
  184.9250  178.6730  139.6870 C   0  0  0  0  0  0  0  0  0  0  0  0
  184.7840  178.5990  141.0720 C   0  0  0  0  0  0  0  0  0  0  0  0
  182.4790  178.7770  139.5430 C   0  0  0  0  0  3  0  0  0  0  0  0
  183.5640  178.6060  141.6760 C   0  0  0  0  0  0  0  0  0  0  0  0
  182.3790  178.6970  140.9450 C   0  0  0  0  0  0  0  0  0  0  0  0
  183.7080  178.5120  143.0060 N   0  0  0  0  0  0  0  0  0  0  0  0
  185.7520  178.5010  141.9950 N   0  0  0  0  0  2  0  0  0  0  0  0
  183.7450  178.7640  138.9160 C   0  0  0  0  0  3  0  0  0  0  0  0
  185.0560  178.4530  143.1620 C   0  0  0  0  0  0  0  0  0  0  0  0
  189.7230  177.1810  146.8680 C   0  0  0  0  0  3  0  0  0  0  0  0
  187.0640  178.0500  146.8780 C   0  0  0  0  0  0  0  0  0  0  0  0
  185.0890  178.6200  145.6990 C   0  0  0  0  0  0  0  0  0  0  0  0
  189.0330  177.3160  145.6600 C   0  0  0  0  0  3  0  0  0  0  0  0
  187.7040  177.7490  145.6620 C   0  0  0  0  0  0  0  0  0  0  0  0
  185.7270  178.3190  144.4740 C   0  0  0  0  0  0  0  0  0  0  0  0
  189.0850  177.4800  148.0780 C   0  0  0  0  0  3  0  0  0  0  0  0
  183.7480  179.1040  145.7450 N   0  0  0  0  0  1  0  0  0  0  0  0
  187.0210  177.8920  144.4990 N   0  0  0  0  0  0  0  0  0  0  0  0
  187.7560  177.9160  148.0850 C   0  0  0  0  0  3  0  0  0  0  0  0
  185.7770  178.4790  146.8640 N   0  0  0  0  0  0  0  0  0  0  0  0
  180.7800  178.6870  141.7490 S   0  0  0  0  0  0  0  0  0  0  0  0
  179.9220  178.1880  140.2310 C   0  0  0  0  0  2  0  0  0  0  0  0
  179.2210  176.8620  140.4680 C   0  0  0  0  0  2  0  0  0  0  0  0
  179.5680  175.9140  139.4190 N   0  0  0  0  0  0  0  0  0  0  0  0
  180.8440  176.1130  137.3940 C   0  0  0  0  0  2  0  0  0  0  0  0
  181.5920  175.2220  138.3540 C   0  0  0  0  0  2  0  0  0  0  0  0
  179.6810  176.6770  138.1850 C   0  0  0  0  0  2  0  0  0  0  0  0
  180.9150  175.4340  139.6880 C   0  0  0  0  0  2  0  0  0  0  0  0
  186.2230  178.6600  139.0850 N   0  0  0  0  0  2  0  0  0  0  0  0
  186.4840  178.0370  137.7960 C   0  0  0  0  0  2  0  0  0  0  0  0
  187.8530  178.0690  137.5350 O   0  0  0  0  0  0  0  0  0  0  0  0
  188.4500  177.7310  138.7500 C   0  0  0  0  0  2  0  0  0  0  0  0
  189.9000  177.3600  138.5160 C   0  0  0  0  0  2  0  0  0  0  0  0
  190.3280  176.4160  139.5340 N   0  0  0  0  0  2  0  0  0  0  0  0
  191.2090  177.1430  140.4300 C   0  0  0  0  0  2  0  0  0  0  0  0
  190.7520  176.9640  141.8360 C   0  0  0  0  0  0  0  0  0  0  0  0
  190.2610  175.8650  142.2020 O   0  0  0  0  0  0  0  0  0  0  0  0
  190.8950  178.0020  142.7500 O   0  0  0  0  0  1  0  0  0  0  0  0
  1  2  1  0  0  0  0
  2  4  2  0  0  0  0
  2  7  1  0  0  0  0
  3  5  2  0  0  0  0
  4  6  1  0  0  0  0
  5  4  1  0  0  0  0
  5 21  1  0  0  0  0
  6  9  2  0  0  0  0
  7  9  1  0  0  0  0
  8  3  1  0  0  0  0
  8  1  2  0  0  0  0
  9 15  1  0  0  0  0
 10 16  1  0  0  0  0
 11 19  1  0  0  0  0
 12 17  1  0  0  0  0
 12 20  2  0  0  0  0
 13 14  1  0  0  0  0
 13 10  2  0  0  0  0
 14 11  2  0  0  0  0
 15 18  2  0  0  0  0
 15 12  1  0  0  0  0
 16 19  2  0  0  0  0
 18 14  1  0  0  0  0
 20 11  1  0  0  0  0
 22 23  1  0  0  0  0
 22 21  1  0  0  0  0
 24 28  1  0  0  0  0
 24 23  1  0  0  0  0
 25 27  1  0  0  0  0
 25 26  1  0  0  0  0
 26 28  1  0  0  0  0
 27 24  1  0  0  0  0
 29  1  1  0  0  0  0
 30 29  1  0  0  0  0
 31 30  1  0  0  0  0
 31 32  1  0  0  0  0
 33 32  1  0  0  0  0
 33 34  1  0  0  0  0
 34 35  1  0  0  0  0
 35 36  1  0  0  0  0
 36 37  2  0  0  0  0
 36 38  1  0  0  0  0
M  END
>  <MODEL>
3

>  <REMARK>
 VINA RESULT:      -7.9      1.459      1.998
  Name = 
  13 active torsions:
  status: ('A' for Active; 'I' for Inactive)
    1  A    between atoms: C_2  and  C_3
    2  A    between atoms: C_3  and  N_27
    3  A    between atoms: C_5  and  N_28
    4  A    between atoms: N_6  and  C_14
    5  A    between atoms: C_13  and  S_15
    6  A    between atoms: C_14  and  C_18
    7  A    between atoms: S_15  and  C_18
    8  A    between atoms: C_20  and  C_36
    9  A    between atoms: C_22  and  O_23
   10  A    between atoms: C_22  and  N_28
   11  A    between atoms: O_23  and  C_29
   12  A    between atoms: C_26  and  N_27
   13  A    between atoms: C_26  and  C_29
                            x       y       z     vdW  Elec       q    Type
                         _______ _______ _______ _____ _____    ______ ____

>  <TORSDO>
F 13

$$$$
=
 OpenBabel10222421003D

 38 42  0  0  0  0  0  0  0  0999 V2000
  188.3500  177.9230  137.7000 C   0  0  0  0  0  0  0  0  0  0  0  0
  188.9460  177.5300  138.8980 C   0  0  0  0  0  0  0  0  0  0  0  0
  190.1270  176.7010  136.5320 C   0  0  0  0  0  3  0  0  0  0  0  0
  190.0750  176.7690  138.9280 C   0  0  0  0  0  0  0  0  0  0  0  0
  190.7000  176.3280  137.7610 C   0  0  0  0  0  0  0  0  0  0  0  0
  190.4450  176.5450  140.1980 N   0  0  0  0  0  0  0  0  0  0  0  0
  188.5540  177.8190  140.1470 N   0  0  0  0  0  2  0  0  0  0  0  0
  188.9580  177.4950  136.4990 C   0  0  0  0  0  3  0  0  0  0  0  0
  189.4920  177.1990  140.9120 C   0  0  0  0  0  0  0  0  0  0  0  0
  186.8350  177.4970  146.3880 C   0  0  0  0  0  3  0  0  0  0  0  0
  189.3400  177.3840  145.1480 C   0  0  0  0  0  0  0  0  0  0  0  0
  190.6480  177.2620  143.1760 C   0  0  0  0  0  0  0  0  0  0  0  0
  186.9170  177.4430  144.9940 C   0  0  0  0  0  3  0  0  0  0  0  0
  188.1670  177.3880  144.3710 C   0  0  0  0  0  0  0  0  0  0  0  0
  189.4730  177.2660  142.3900 C   0  0  0  0  0  0  0  0  0  0  0  0
  188.0030  177.4940  147.1610 C   0  0  0  0  0  3  0  0  0  0  0  0
  191.9430  177.1650  142.5840 N   0  0  0  0  0  1  0  0  0  0  0  0
  188.2660  177.3290  143.0200 N   0  0  0  0  0  0  0  0  0  0  0  0
  189.2570  177.4360  146.5420 C   0  0  0  0  0  3  0  0  0  0  0  0
  190.5470  177.3180  144.5300 N   0  0  0  0  0  0  0  0  0  0  0  0
  192.1930  175.3440  137.8150 S   0  0  0  0  0  0  0  0  0  0  0  0
  192.6420  175.7750  136.1110 C   0  0  0  0  0  2  0  0  0  0  0  0
  193.5260  174.6810  135.5380 C   0  0  0  0  0  2  0  0  0  0  0  0
  194.5940  175.2630  134.7390 N   0  0  0  0  0  0  0  0  0  0  0  0
  195.6860  177.4020  134.7810 C   0  0  0  0  0  2  0  0  0  0  0  0
  196.6720  176.3450  135.2090 C   0  0  0  0  0  2  0  0  0  0  0  0
  194.3480  176.6970  134.6900 C   0  0  0  0  0  2  0  0  0  0  0  0
  195.8330  175.1210  135.4900 C   0  0  0  0  0  2  0  0  0  0  0  0
  187.1670  178.7250  137.7040 N   0  0  0  0  0  2  0  0  0  0  0  0
  185.8770  178.2190  138.1470 C   0  0  0  0  0  2  0  0  0  0  0  0
  185.1590  179.2470  138.7550 O   0  0  0  0  0  0  0  0  0  0  0  0
  184.5580  178.6480  139.8630 C   0  0  0  0  0  2  0  0  0  0  0  0
  185.2220  179.1470  141.1310 C   0  0  0  0  0  2  0  0  0  0  0  0
  184.6580  178.4550  142.2770 N   0  0  0  0  0  2  0  0  0  0  0  0
  184.6420  179.4080  143.3720 C   0  0  0  0  0  2  0  0  0  0  0  0
  183.4930  179.1160  144.2720 C   0  0  0  0  0  0  0  0  0  0  0  0
  183.6590  179.1050  145.5200 O   0  0  0  0  0  1  0  0  0  0  0  0
  182.2310  178.8860  143.7360 O   0  0  0  0  0  0  0  0  0  0  0  0
  1 29  1  0  0  0  0
  1  2  1  0  0  0  0
  2  4  2  0  0  0  0
  2  7  1  0  0  0  0
  3  5  2  0  0  0  0
  4  6  1  0  0  0  0
  5 21  1  0  0  0  0
  5  4  1  0  0  0  0
  6  9  2  0  0  0  0
  7  9  1  0  0  0  0
  8  3  1  0  0  0  0
  8  1  2  0  0  0  0
  9 15  1  0  0  0  0
 10 16  1  0  0  0  0
 11 19  1  0  0  0  0
 12 20  2  0  0  0  0
 13 10  2  0  0  0  0
 14 13  1  0  0  0  0
 14 11  2  0  0  0  0
 15 18  2  0  0  0  0
 15 12  1  0  0  0  0
 17 12  1  0  0  0  0
 18 14  1  0  0  0  0
 19 16  2  0  0  0  0
 20 11  1  0  0  0  0
 22 21  1  0  0  0  0
 23 22  1  0  0  0  0
 24 28  1  0  0  0  0
 24 23  1  0  0  0  0
 25 26  1  0  0  0  0
 26 28  1  0  0  0  0
 27 24  1  0  0  0  0
 27 25  1  0  0  0  0
 29 30  1  0  0  0  0
 30 31  1  0  0  0  0
 31 32  1  0  0  0  0
 32 33  1  0  0  0  0
 33 34  1  0  0  0  0
 34 35  1  0  0  0  0
 35 36  1  0  0  0  0
 36 37  1  0  0  0  0
 38 36  2  0  0  0  0
M  END
>  <MODEL>
4

>  <REMARK>
 VINA RESULT:      -7.8      4.117      8.650
  Name = 
  13 active torsions:
  status: ('A' for Active; 'I' for Inactive)
    1  A    between atoms: C_2  and  C_3
    2  A    between atoms: C_3  and  N_27
    3  A    between atoms: C_5  and  N_28
    4  A    between atoms: N_6  and  C_14
    5  A    between atoms: C_13  and  S_15
    6  A    between atoms: C_14  and  C_18
    7  A    between atoms: S_15  and  C_18
    8  A    between atoms: C_20  and  C_36
    9  A    between atoms: C_22  and  O_23
   10  A    between atoms: C_22  and  N_28
   11  A    between atoms: O_23  and  C_29
   12  A    between atoms: C_26  and  N_27
   13  A    between atoms: C_26  and  C_29
                            x       y       z     vdW  Elec       q    Type
                         _______ _______ _______ _____ _____    ______ ____

>  <TORSDO>
F 13

$$$$
=
 OpenBabel10222421003D

 38 42  0  0  0  0  0  0  0  0999 V2000
  187.7450  178.1390  138.6360 C   0  0  0  0  0  0  0  0  0  0  0  0
  188.5290  177.7960  139.7370 C   0  0  0  0  0  0  0  0  0  0  0  0
  189.5740  177.3430  137.2100 C   0  0  0  0  0  3  0  0  0  0  0  0
  189.7730  177.2600  139.5990 C   0  0  0  0  0  0  0  0  0  0  0  0
  190.3360  177.0130  138.3470 C   0  0  0  0  0  0  0  0  0  0  0  0
  190.3140  177.0350  140.8060 N   0  0  0  0  0  0  0  0  0  0  0  0
  188.2300  177.9320  141.0370 N   0  0  0  0  0  2  0  0  0  0  0  0
  188.2860  177.9040  137.3530 C   0  0  0  0  0  3  0  0  0  0  0  0
  189.3420  177.4550  141.6570 C   0  0  0  0  0  0  0  0  0  0  0  0
  187.2880  177.7910  147.3840 C   0  0  0  0  0  3  0  0  0  0  0  0
  189.6190  177.3930  145.8900 C   0  0  0  0  0  0  0  0  0  0  0  0
  190.7020  177.2060  143.7910 C   0  0  0  0  0  0  0  0  0  0  0  0
  187.2290  177.8150  145.9880 C   0  0  0  0  0  3  0  0  0  0  0  0
  188.3930  177.6170  145.2390 C   0  0  0  0  0  0  0  0  0  0  0  0
  189.4730  177.4310  143.1300 C   0  0  0  0  0  0  0  0  0  0  0  0
  188.5090  177.5700  148.0320 C   0  0  0  0  0  3  0  0  0  0  0  0
  191.9050  176.9590  143.0660 N   0  0  0  0  0  1  0  0  0  0  0  0
  188.3540  177.6290  143.8830 N   0  0  0  0  0  0  0  0  0  0  0  0
  189.6760  177.3680  147.2870 C   0  0  0  0  0  3  0  0  0  0  0  0
  190.7380  177.1910  145.1500 N   0  0  0  0  0  0  0  0  0  0  0  0
  191.9800  176.3250  138.1790 S   0  0  0  0  0  0  0  0  0  0  0  0
  191.3510  174.7560  137.5210 C   0  0  0  0  0  2  0  0  0  0  0  0
  191.7640  174.6250  136.0660 C   0  0  0  0  0  2  0  0  0  0  0  0
  190.6680  174.0830  135.2770 N   0  0  0  0  0  0  0  0  0  0  0  0
  189.9100  171.8430  134.8560 C   0  0  0  0  0  2  0  0  0  0  0  0
  188.8720  172.5590  135.6830 C   0  0  0  0  0  2  0  0  0  0  0  0
  191.1010  172.7780  134.7990 C   0  0  0  0  0  2  0  0  0  0  0  0
  189.5670  173.8020  136.1880 C   0  0  0  0  0  2  0  0  0  0  0  0
  186.4430  178.7030  138.8170 N   0  0  0  0  0  2  0  0  0  0  0  0
  185.2540  178.1490  138.1890 C   0  0  0  0  0  2  0  0  0  0  0  0
  184.1460  178.3910  139.0000 O   0  0  0  0  0  0  0  0  0  0  0  0
  184.6860  178.7970  140.2200 C   0  0  0  0  0  2  0  0  0  0  0  0
  183.7130  178.4770  141.3370 C   0  0  0  0  0  2  0  0  0  0  0  0
  184.4520  178.1440  142.5420 N   0  0  0  0  0  2  0  0  0  0  0  0
  184.3580  179.2960  143.4200 C   0  0  0  0  0  2  0  0  0  0  0  0
  183.4350  178.9900  144.5490 C   0  0  0  0  0  0  0  0  0  0  0  0
  182.2370  178.6860  144.3160 O   0  0  0  0  0  0  0  0  0  0  0  0
  183.9080  179.0120  145.8560 O   0  0  0  0  0  1  0  0  0  0  0  0
  1 29  1  0  0  0  0
  1  2  1  0  0  0  0
  2  7  1  0  0  0  0
  3  8  1  0  0  0  0
  3  5  2  0  0  0  0
  4  2  2  0  0  0  0
  4  6  1  0  0  0  0
  5  4  1  0  0  0  0
  6  9  2  0  0  0  0
  7  9  1  0  0  0  0
  8  1  2  0  0  0  0
  9 15  1  0  0  0  0
 10 16  1  0  0  0  0
 11 19  1  0  0  0  0
 12 20  1  0  0  0  0
 13 10  2  0  0  0  0
 14 11  1  0  0  0  0
 14 13  1  0  0  0  0
 15 12  2  0  0  0  0
 15 18  1  0  0  0  0
 17 12  1  0  0  0  0
 18 14  2  0  0  0  0
 19 16  2  0  0  0  0
 20 11  2  0  0  0  0
 21  5  1  0  0  0  0
 22 21  1  0  0  0  0
 23 22  1  0  0  0  0
 24 23  1  0  0  0  0
 24 28  1  0  0  0  0
 25 26  1  0  0  0  0
 26 28  1  0  0  0  0
 27 25  1  0  0  0  0
 27 24  1  0  0  0  0
 30 29  1  0  0  0  0
 30 31  1  0  0  0  0
 31 32  1  0  0  0  0
 32 33  1  0  0  0  0
 33 34  1  0  0  0  0
 34 35  1  0  0  0  0
 35 36  1  0  0  0  0
 36 38  1  0  0  0  0
 37 36  2  0  0  0  0
M  END
>  <MODEL>
5

>  <REMARK>
 VINA RESULT:      -7.6      3.786      7.612
  Name = 
  13 active torsions:
  status: ('A' for Active; 'I' for Inactive)
    1  A    between atoms: C_2  and  C_3
    2  A    between atoms: C_3  and  N_27
    3  A    between atoms: C_5  and  N_28
    4  A    between atoms: N_6  and  C_14
    5  A    between atoms: C_13  and  S_15
    6  A    between atoms: C_14  and  C_18
    7  A    between atoms: S_15  and  C_18
    8  A    between atoms: C_20  and  C_36
    9  A    between atoms: C_22  and  O_23
   10  A    between atoms: C_22  and  N_28
   11  A    between atoms: O_23  and  C_29
   12  A    between atoms: C_26  and  N_27
   13  A    between atoms: C_26  and  C_29
                            x       y       z     vdW  Elec       q    Type
                         _______ _______ _______ _____ _____    ______ ____

>  <TORSDO>
F 13

$$$$
=
 OpenBabel10222421003D

 38 42  0  0  0  0  0  0  0  0999 V2000
  190.7030  177.1000  139.4610 C   0  0  0  0  0  0  0  0  0  0  0  0
  189.7120  177.5010  140.3570 C   0  0  0  0  0  0  0  0  0  0  0  0
  192.3390  177.5130  141.2400 C   0  0  0  0  0  3  0  0  0  0  0  0
  190.0030  177.8950  141.6280 C   0  0  0  0  0  0  0  0  0  0  0  0
  191.3110  177.9140  142.1140 C   0  0  0  0  0  0  0  0  0  0  0  0
  188.8780  178.2400  142.2720 N   0  0  0  0  0  0  0  0  0  0  0  0
  188.3900  177.5790  140.1440 N   0  0  0  0  0  2  0  0  0  0  0  0
  192.0380  177.1090  139.9210 C   0  0  0  0  0  3  0  0  0  0  0  0
  187.9170  178.0310  141.3360 C   0  0  0  0  0  0  0  0  0  0  0  0
  182.9080  178.7450  144.7330 C   0  0  0  0  0  3  0  0  0  0  0  0
  183.8080  178.7800  142.0840 C   0  0  0  0  0  0  0  0  0  0  0  0
  185.5700  178.5650  140.5150 C   0  0  0  0  0  0  0  0  0  0  0  0
  184.2550  178.4930  144.4550 C   0  0  0  0  0  3  0  0  0  0  0  0
  184.7070  178.5090  143.1320 C   0  0  0  0  0  0  0  0  0  0  0  0
  186.4780  178.2920  141.5630 C   0  0  0  0  0  0  0  0  0  0  0  0
  182.0130  179.0130  143.6900 C   0  0  0  0  0  3  0  0  0  0  0  0
  185.9960  178.6330  139.1550 N   0  0  0  0  0  1  0  0  0  0  0  0
  186.0110  178.2740  142.8430 N   0  0  0  0  0  0  0  0  0  0  0  0
  182.4620  179.0330  142.3650 C   0  0  0  0  0  3  0  0  0  0  0  0
  184.2630  178.8040  140.8060 N   0  0  0  0  0  0  0  0  0  0  0  0
  191.6820  178.4520  143.7800 S   0  0  0  0  0  0  0  0  0  0  0  0
  191.0700  176.9070  144.5080 C   0  0  0  0  0  2  0  0  0  0  0  0
  190.7860  177.1310  145.9830 C   0  0  0  0  0  2  0  0  0  0  0  0
  189.4170  176.7500  146.2960 N   0  0  0  0  0  0  0  0  0  0  0  0
  187.7950  177.6140  147.8430 C   0  0  0  0  0  2  0  0  0  0  0  0
  187.3240  177.8940  146.4380 C   0  0  0  0  0  2  0  0  0  0  0  0
  189.2030  177.0730  147.7000 C   0  0  0  0  0  2  0  0  0  0  0  0
  188.5320  177.6460  145.5660 C   0  0  0  0  0  2  0  0  0  0  0  0
  190.3620  176.6950  138.1330 N   0  0  0  0  0  2  0  0  0  0  0  0
  190.9280  175.5110  137.5040 C   0  0  0  0  0  2  0  0  0  0  0  0
  191.6060  175.8810  136.3440 O   0  0  0  0  0  0  0  0  0  0  0  0
  192.7220  175.0450  136.3070 C   0  0  0  0  0  2  0  0  0  0  0  0
  193.9560  175.8620  135.9820 C   0  0  0  0  0  2  0  0  0  0  0  0
  194.9750  175.6220  136.9890 N   0  0  0  0  0  2  0  0  0  0  0  0
  194.4050  174.6860  137.9410 C   0  0  0  0  0  2  0  0  0  0  0  0
  195.4930  174.0750  138.7540 C   0  0  0  0  0  0  0  0  0  0  0  0
  196.2110  174.8000  139.4900 O   0  0  0  0  0  1  0  0  0  0  0  0
  195.6940  172.6990  138.7220 O   0  0  0  0  0  0  0  0  0  0  0  0
  1  8  2  0  0  0  0
  1  2  1  0  0  0  0
  2  4  2  0  0  0  0
  3  5  2  0  0  0  0
  4  5  1  0  0  0  0
  4  6  1  0  0  0  0
  5 21  1  0  0  0  0
  7  2  1  0  0  0  0
  7  9  1  0  0  0  0
  8  3  1  0  0  0  0
  9 15  1  0  0  0  0
  9  6  2  0  0  0  0
 11 19  2  0  0  0  0
 11 14  1  0  0  0  0
 12 20  2  0  0  0  0
 12 15  1  0  0  0  0
 13 10  1  0  0  0  0
 14 13  2  0  0  0  0
 15 18  2  0  0  0  0
 16 10  2  0  0  0  0
 17 12  1  0  0  0  0
 18 14  1  0  0  0  0
 19 16  1  0  0  0  0
 20 11  1  0  0  0  0
 21 22  1  0  0  0  0
 22 23  1  0  0  0  0
 23 24  1  0  0  0  0
 24 27  1  0  0  0  0
 26 25  1  0  0  0  0
 27 25  1  0  0  0  0
 28 24  1  0  0  0  0
 28 26  1  0  0  0  0
 29  1  1  0  0  0  0
 30 29  1  0  0  0  0
 31 30  1  0  0  0  0
 32 31  1  0  0  0  0
 33 32  1  0  0  0  0
 33 34  1  0  0  0  0
 34 35  1  0  0  0  0
 35 36  1  0  0  0  0
 36 37  1  0  0  0  0
 38 36  2  0  0  0  0
M  END
>  <MODEL>
6

>  <REMARK>
 VINA RESULT:      -7.5      3.569      7.856
  Name = 
  13 active torsions:
  status: ('A' for Active; 'I' for Inactive)
    1  A    between atoms: C_2  and  C_3
    2  A    between atoms: C_3  and  N_27
    3  A    between atoms: C_5  and  N_28
    4  A    between atoms: N_6  and  C_14
    5  A    between atoms: C_13  and  S_15
    6  A    between atoms: C_14  and  C_18
    7  A    between atoms: S_15  and  C_18
    8  A    between atoms: C_20  and  C_36
    9  A    between atoms: C_22  and  O_23
   10  A    between atoms: C_22  and  N_28
   11  A    between atoms: O_23  and  C_29
   12  A    between atoms: C_26  and  N_27
   13  A    between atoms: C_26  and  C_29
                            x       y       z     vdW  Elec       q    Type
                         _______ _______ _______ _____ _____    ______ ____

>  <TORSDO>
F 13

$$$$
=
 OpenBabel10222421003D

 38 42  0  0  0  0  0  0  0  0999 V2000
  190.8030  176.4840  137.8030 C   0  0  0  0  0  0  0  0  0  0  0  0
  190.0690  176.8910  138.9160 C   0  0  0  0  0  0  0  0  0  0  0  0
  188.9210  177.2240  136.4160 C   0  0  0  0  0  3  0  0  0  0  0  0
  188.8250  177.4320  138.8030 C   0  0  0  0  0  0  0  0  0  0  0  0
  188.2110  177.6200  137.5640 C   0  0  0  0  0  0  0  0  0  0  0  0
  188.3370  177.7230  140.0190 N   0  0  0  0  0  0  0  0  0  0  0  0
  190.4220  176.8180  140.2080 N   0  0  0  0  0  2  0  0  0  0  0  0
  190.2110  176.6590  136.5330 C   0  0  0  0  0  3  0  0  0  0  0  0
  189.3410  177.3370  140.8480 C   0  0  0  0  0  0  0  0  0  0  0  0
  186.5020  177.5990  146.2340 C   0  0  0  0  0  3  0  0  0  0  0  0
  189.0470  177.6120  145.0720 C   0  0  0  0  0  0  0  0  0  0  0  0
  190.4200  177.5250  143.1430 C   0  0  0  0  0  0  0  0  0  0  0  0
  186.6300  177.5180  144.8450 C   0  0  0  0  0  3  0  0  0  0  0  0
  187.9000  177.5250  144.2610 C   0  0  0  0  0  0  0  0  0  0  0  0
  189.2720  177.4380  142.3230 C   0  0  0  0  0  0  0  0  0  0  0  0
  187.6430  177.6870  147.0410 C   0  0  0  0  0  3  0  0  0  0  0  0
  191.7360  177.4950  142.5930 N   0  0  0  0  0  1  0  0  0  0  0  0
  188.0440  177.4410  142.9150 N   0  0  0  0  0  0  0  0  0  0  0  0
  188.9170  177.6910  146.4620 C   0  0  0  0  0  3  0  0  0  0  0  0
  190.2740  177.6070  144.4930 N   0  0  0  0  0  0  0  0  0  0  0  0
  186.5670  178.3150  137.4310 S   0  0  0  0  0  0  0  0  0  0  0  0
  186.0280  177.0380  136.2590 C   0  0  0  0  0  2  0  0  0  0  0  0
  184.8910  176.2450  136.8770 C   0  0  0  0  0  2  0  0  0  0  0  0
  185.0100  174.8370  136.5270 N   0  0  0  0  0  0  0  0  0  0  0  0
  186.3040  173.0310  137.4400 C   0  0  0  0  0  2  0  0  0  0  0  0
  184.8440  172.7700  137.7160 C   0  0  0  0  0  2  0  0  0  0  0  0
  186.3660  174.4330  136.8690 C   0  0  0  0  0  2  0  0  0  0  0  0
  184.1550  174.0840  137.4340 C   0  0  0  0  0  2  0  0  0  0  0  0
  192.1070  175.9170  137.9580 N   0  0  0  0  0  2  0  0  0  0  0  0
  193.2380  176.3130  137.1330 C   0  0  0  0  0  2  0  0  0  0  0  0
  193.8750  175.1740  136.6420 O   0  0  0  0  0  0  0  0  0  0  0  0
  194.9550  175.6650  135.9080 C   0  0  0  0  0  2  0  0  0  0  0  0
  196.1420  174.7380  136.0710 C   0  0  0  0  0  2  0  0  0  0  0  0
  197.0440  175.2780  137.0720 N   0  0  0  0  0  2  0  0  0  0  0  0
  197.2820  174.2170  138.0340 C   0  0  0  0  0  2  0  0  0  0  0  0
  196.1090  174.0940  138.9440 C   0  0  0  0  0  0  0  0  0  0  0  0
  195.4880  173.0030  139.0230 O   0  0  0  0  0  0  0  0  0  0  0  0
  195.7220  175.1750  139.7270 O   0  0  0  0  0  1  0  0  0  0  0  0
  1 29  1  0  0  0  0
  1  2  1  0  0  0  0
  2  7  1  0  0  0  0
  3  8  1  0  0  0  0
  3  5  2  0  0  0  0
  4  2  2  0  0  0  0
  4  6  1  0  0  0  0
  5  4  1  0  0  0  0
  6  9  2  0  0  0  0
  7  9  1  0  0  0  0
  8  1  2  0  0  0  0
  9 15  1  0  0  0  0
 10 16  1  0  0  0  0
 11 19  1  0  0  0  0
 12 20  2  0  0  0  0
 13 10  2  0  0  0  0
 14 13  1  0  0  0  0
 14 11  2  0  0  0  0
 15 18  2  0  0  0  0
 15 12  1  0  0  0  0
 17 12  1  0  0  0  0
 18 14  1  0  0  0  0
 19 16  2  0  0  0  0
 20 11  1  0  0  0  0
 21  5  1  0  0  0  0
 22 23  1  0  0  0  0
 22 21  1  0  0  0  0
 24 27  1  0  0  0  0
 24 23  1  0  0  0  0
 24 28  1  0  0  0  0
 25 26  1  0  0  0  0
 27 25  1  0  0  0  0
 28 26  1  0  0  0  0
 30 29  1  0  0  0  0
 31 30  1  0  0  0  0
 32 33  1  0  0  0  0
 32 31  1  0  0  0  0
 33 34  1  0  0  0  0
 34 35  1  0  0  0  0
 35 36  1  0  0  0  0
 36 37  2  0  0  0  0
 36 38  1  0  0  0  0
M  END
>  <MODEL>
7

>  <REMARK>
 VINA RESULT:      -7.4      4.362      6.403
  Name = 
  13 active torsions:
  status: ('A' for Active; 'I' for Inactive)
    1  A    between atoms: C_2  and  C_3
    2  A    between atoms: C_3  and  N_27
    3  A    between atoms: C_5  and  N_28
    4  A    between atoms: N_6  and  C_14
    5  A    between atoms: C_13  and  S_15
    6  A    between atoms: C_14  and  C_18
    7  A    between atoms: S_15  and  C_18
    8  A    between atoms: C_20  and  C_36
    9  A    between atoms: C_22  and  O_23
   10  A    between atoms: C_22  and  N_28
   11  A    between atoms: O_23  and  C_29
   12  A    between atoms: C_26  and  N_27
   13  A    between atoms: C_26  and  C_29
                            x       y       z     vdW  Elec       q    Type
                         _______ _______ _______ _____ _____    ______ ____

>  <TORSDO>
F 13

$$$$
=
 OpenBabel10222421003D

 38 42  0  0  0  0  0  0  0  0999 V2000
  185.3510  178.3400  143.7750 C   0  0  0  0  0  0  0  0  0  0  0  0
  186.2290  178.2490  142.6950 C   0  0  0  0  0  0  0  0  0  0  0  0
  183.6330  179.0780  142.1880 C   0  0  0  0  0  3  0  0  0  0  0  0
  185.8470  178.5580  141.4250 C   0  0  0  0  0  0  0  0  0  0  0  0
  184.5500  178.9770  141.1250 C   0  0  0  0  0  0  0  0  0  0  0  0
  186.8790  178.4000  140.5830 N   0  0  0  0  0  0  0  0  0  0  0  0
  187.5180  177.8810  142.7100 N   0  0  0  0  0  2  0  0  0  0  0  0
  184.0310  178.7620  143.5070 C   0  0  0  0  0  3  0  0  0  0  0  0
  187.8790  177.9830  141.4030 C   0  0  0  0  0  0  0  0  0  0  0  0
  192.0940  176.3770  137.3060 C   0  0  0  0  0  3  0  0  0  0  0  0
  191.7850  177.1310  139.9820 C   0  0  0  0  0  0  0  0  0  0  0  0
  190.3860  177.7870  141.7790 C   0  0  0  0  0  0  0  0  0  0  0  0
  190.8180  176.6570  137.8050 C   0  0  0  0  0  3  0  0  0  0  0  0
  190.6610  177.0320  139.1420 C   0  0  0  0  0  0  0  0  0  0  0  0
  189.2530  177.6890  140.9400 C   0  0  0  0  0  0  0  0  0  0  0  0
  193.2120  176.4740  138.1430 C   0  0  0  0  0  3  0  0  0  0  0  0
  190.2760  178.2060  143.1380 N   0  0  0  0  0  1  0  0  0  0  0  0
  189.4310  177.3130  139.6420 N   0  0  0  0  0  0  0  0  0  0  0  0
  193.0600  176.8530  139.4810 C   0  0  0  0  0  3  0  0  0  0  0  0
  191.6180  177.5070  141.2750 N   0  0  0  0  0  0  0  0  0  0  0  0
  184.0660  179.3970  139.4550 S   0  0  0  0  0  0  0  0  0  0  0  0
  183.8470  177.6580  138.9870 C   0  0  0  0  0  2  0  0  0  0  0  0
  184.3810  177.4500  137.5810 C   0  0  0  0  0  2  0  0  0  0  0  0
  185.8040  177.1490  137.6210 N   0  0  0  0  0  0  0  0  0  0  0  0
  187.2690  175.9770  136.1200 C   0  0  0  0  0  2  0  0  0  0  0  0
  187.6460  177.4370  136.1250 C   0  0  0  0  0  2  0  0  0  0  0  0
  185.9860  175.8850  136.9210 C   0  0  0  0  0  2  0  0  0  0  0  0
  186.4870  178.1360  136.7960 C   0  0  0  0  0  2  0  0  0  0  0  0
  185.7860  178.0100  145.0970 N   0  0  0  0  0  2  0  0  0  0  0  0
  185.4260  178.8040  146.2620 C   0  0  0  0  0  2  0  0  0  0  0  0
  186.2360  178.4420  147.3370 O   0  0  0  0  0  0  0  0  0  0  0  0
  187.3390  177.8190  146.7520 C   0  0  0  0  0  2  0  0  0  0  0  0
  188.4590  177.7130  147.7670 C   0  0  0  0  0  2  0  0  0  0  0  0
  189.3380  176.6150  147.4050 N   0  0  0  0  0  2  0  0  0  0  0  0
  190.4270  177.1910  146.6360 C   0  0  0  0  0  2  0  0  0  0  0  0
  191.6630  176.3840  146.8370 C   0  0  0  0  0  0  0  0  0  0  0  0
  192.0560  175.6020  145.9320 O   0  0  0  0  0  0  0  0  0  0  0  0
  192.3960  176.5170  148.0110 O   0  0  0  0  0  1  0  0  0  0  0  0
  1 29  1  0  0  0  0
  2  7  1  0  0  0  0
  2  1  2  0  0  0  0
  3  8  2  0  0  0  0
  4  2  1  0  0  0  0
  5  4  2  0  0  0  0
  5  3  1  0  0  0  0
  6  9  2  0  0  0  0
  6  4  1  0  0  0  0
  8  1  1  0  0  0  0
  9  7  1  0  0  0  0
 10 13  2  0  0  0  0
 10 16  1  0  0  0  0
 11 20  1  0  0  0  0
 12 17  1  0  0  0  0
 13 14  1  0  0  0  0
 14 18  1  0  0  0  0
 14 11  2  0  0  0  0
 15  9  1  0  0  0  0
 15 12  1  0  0  0  0
 16 19  2  0  0  0  0
 18 15  2  0  0  0  0
 19 11  1  0  0  0  0
 20 12  2  0  0  0  0
 21  5  1  0  0  0  0
 22 21  1  0  0  0  0
 23 24  1  0  0  0  0
 23 22  1  0  0  0  0
 25 26  1  0  0  0  0
 25 27  1  0  0  0  0
 26 28  1  0  0  0  0
 27 24  1  0  0  0  0
 28 24  1  0  0  0  0
 29 30  1  0  0  0  0
 30 31  1  0  0  0  0
 32 31  1  0  0  0  0
 32 33  1  0  0  0  0
 34 33  1  0  0  0  0
 35 36  1  0  0  0  0
 35 34  1  0  0  0  0
 36 38  1  0  0  0  0
 37 36  2  0  0  0  0
M  END
>  <MODEL>
8

>  <REMARK>
 VINA RESULT:      -7.3      3.174      6.717
  Name = 
  13 active torsions:
  status: ('A' for Active; 'I' for Inactive)
    1  A    between atoms: C_2  and  C_3
    2  A    between atoms: C_3  and  N_27
    3  A    between atoms: C_5  and  N_28
    4  A    between atoms: N_6  and  C_14
    5  A    between atoms: C_13  and  S_15
    6  A    between atoms: C_14  and  C_18
    7  A    between atoms: S_15  and  C_18
    8  A    between atoms: C_20  and  C_36
    9  A    between atoms: C_22  and  O_23
   10  A    between atoms: C_22  and  N_28
   11  A    between atoms: O_23  and  C_29
   12  A    between atoms: C_26  and  N_27
   13  A    between atoms: C_26  and  C_29
                            x       y       z     vdW  Elec       q    Type
                         _______ _______ _______ _____ _____    ______ ____

>  <TORSDO>
F 13

$$$$
=
 OpenBabel10222421003D

 38 42  0  0  0  0  0  0  0  0999 V2000
  189.1780  178.4290  138.9700 C   0  0  0  0  0  0  0  0  0  0  0  0
  188.3800  178.2040  140.0910 C   0  0  0  0  0  0  0  0  0  0  0  0
  190.9440  177.1520  140.0950 C   0  0  0  0  0  3  0  0  0  0  0  0
  188.8260  177.4980  141.1660 C   0  0  0  0  0  0  0  0  0  0  0  0
  190.1080  176.9490  141.2090 C   0  0  0  0  0  0  0  0  0  0  0  0
  187.8710  177.4390  142.1070 N   0  0  0  0  0  0  0  0  0  0  0  0
  187.1230  178.6200  140.3050 N   0  0  0  0  0  2  0  0  0  0  0  0
  190.4830  177.8890  138.9810 C   0  0  0  0  0  3  0  0  0  0  0  0
  186.8480  178.1320  141.5430 C   0  0  0  0  0  0  0  0  0  0  0  0
  180.8100  178.9310  141.7500 C   0  0  0  0  0  3  0  0  0  0  0  0
  183.0810  178.8040  143.3780 C   0  0  0  0  0  0  0  0  0  0  0  0
  185.4220  178.5200  143.6130 C   0  0  0  0  0  0  0  0  0  0  0  0
  182.0660  178.7190  141.1730 C   0  0  0  0  0  3  0  0  0  0  0  0
  183.2020  178.6560  141.9840 C   0  0  0  0  0  0  0  0  0  0  0  0
  185.5500  178.3710  142.2130 C   0  0  0  0  0  0  0  0  0  0  0  0
  180.6900  179.0790  143.1370 C   0  0  0  0  0  3  0  0  0  0  0  0
  186.5490  178.4220  144.4820 N   0  0  0  0  0  1  0  0  0  0  0  0
  184.4280  178.4440  141.4430 N   0  0  0  0  0  0  0  0  0  0  0  0
  181.8250  179.0140  143.9530 C   0  0  0  0  0  3  0  0  0  0  0  0
  184.1920  178.7290  144.1540 N   0  0  0  0  0  0  0  0  0  0  0  0
  190.6890  176.0400  142.6370 S   0  0  0  0  0  0  0  0  0  0  0  0
  191.5640  177.4810  143.3080 C   0  0  0  0  0  2  0  0  0  0  0  0
  190.7150  178.1150  144.3950 C   0  0  0  0  0  2  0  0  0  0  0  0
  190.3340  177.1180  145.3840 N   0  0  0  0  0  0  0  0  0  0  0  0
  191.1920  176.5630  147.5580 C   0  0  0  0  0  2  0  0  0  0  0  0
  189.8110  177.1490  147.7160 C   0  0  0  0  0  2  0  0  0  0  0  0
  191.5490  176.7500  146.0980 C   0  0  0  0  0  2  0  0  0  0  0  0
  189.5010  177.7790  146.3780 C   0  0  0  0  0  2  0  0  0  0  0  0
  188.6790  179.1770  137.8580 N   0  0  0  0  0  2  0  0  0  0  0  0
  187.7400  178.6210  136.8960 C   0  0  0  0  0  2  0  0  0  0  0  0
  188.4120  177.7480  136.0430 O   0  0  0  0  0  0  0  0  0  0  0  0
  187.4240  177.2640  135.1860 C   0  0  0  0  0  2  0  0  0  0  0  0
  186.0900  177.2560  135.9040 C   0  0  0  0  0  2  0  0  0  0  0  0
  185.5070  175.9270  135.8270 N   0  0  0  0  0  2  0  0  0  0  0  0
  186.1360  175.1370  136.8700 C   0  0  0  0  0  2  0  0  0  0  0  0
  185.4450  173.8230  136.9880 C   0  0  0  0  0  0  0  0  0  0  0  0
  184.5280  173.5210  136.1800 O   0  0  0  0  0  0  0  0  0  0  0  0
  185.8330  172.9200  137.9710 O   0  0  0  0  0  1  0  0  0  0  0  0
  1  8  2  0  0  0  0
  1  2  1  0  0  0  0
  2  7  1  0  0  0  0
  2  4  2  0  0  0  0
  3  5  2  0  0  0  0
  4  5  1  0  0  0  0
  4  6  1  0  0  0  0
  5 21  1  0  0  0  0
  7  9  1  0  0  0  0
  8  3  1  0  0  0  0
  9  6  2  0  0  0  0
  9 15  1  0  0  0  0
 10 16  1  0  0  0  0
 11 19  1  0  0  0  0
 11 20  1  0  0  0  0
 12 20  2  0  0  0  0
 12 17  1  0  0  0  0
 13 10  2  0  0  0  0
 13 14  1  0  0  0  0
 14 11  2  0  0  0  0
 15 12  1  0  0  0  0
 16 19  2  0  0  0  0
 18 14  1  0  0  0  0
 18 15  2  0  0  0  0
 21 22  1  0  0  0  0
 22 23  1  0  0  0  0
 23 24  1  0  0  0  0
 24 27  1  0  0  0  0
 24 28  1  0  0  0  0
 25 26  1  0  0  0  0
 27 25  1  0  0  0  0
 28 26  1  0  0  0  0
 29  1  1  0  0  0  0
 30 29  1  0  0  0  0
 31 30  1  0  0  0  0
 32 33  1  0  0  0  0
 32 31  1  0  0  0  0
 34 33  1  0  0  0  0
 34 35  1  0  0  0  0
 35 36  1  0  0  0  0
 36 38  1  0  0  0  0
 37 36  2  0  0  0  0
M  END
>  <MODEL>
9

>  <REMARK>
 VINA RESULT:      -7.2      3.322      8.012
  Name = 
  13 active torsions:
  status: ('A' for Active; 'I' for Inactive)
    1  A    between atoms: C_2  and  C_3
    2  A    between atoms: C_3  and  N_27
    3  A    between atoms: C_5  and  N_28
    4  A    between atoms: N_6  and  C_14
    5  A    between atoms: C_13  and  S_15
    6  A    between atoms: C_14  and  C_18
    7  A    between atoms: S_15  and  C_18
    8  A    between atoms: C_20  and  C_36
    9  A    between atoms: C_22  and  O_23
   10  A    between atoms: C_22  and  N_28
   11  A    between atoms: O_23  and  C_29
   12  A    between atoms: C_26  and  N_27
   13  A    between atoms: C_26  and  C_29
                            x       y       z     vdW  Elec       q    Type
                         _______ _______ _______ _____ _____    ______ ____

>  <TORSDO>
F 13

$$$$
