=
 OpenBabel10222420543D

 56 63  0  0  1  0  0  0  0  0999 V2000
  186.4580  174.6600  135.8710 C   0  0  0  0  0  2  0  0  0  0  0  0
  188.9380  177.1280  136.1180 C   0  0  0  0  0  2  0  0  0  0  0  0
  190.7830  177.2420  140.0820 C   0  0  0  0  0  3  0  0  0  0  0  0
  188.2090  177.4030  137.4010 C   0  0  0  0  0  0  0  0  0  0  0  0
  190.2230  177.2400  138.8780 C   0  0  0  0  0  0  0  0  0  0  0  0
  186.7900  178.6230  141.5670 N   0  0  0  0  0  0  0  0  0  0  0  0
  188.8330  175.6870  135.6400 C   0  0  2  0  0  3  0  0  0  0  0  0
  187.4770  175.3890  134.9920 C   0  0  0  0  0  2  0  0  0  0  0  0
  186.7720  177.8840  137.4410 C   0  0  1  0  0  3  0  0  0  0  0  0
  190.2360  177.4030  141.4460 C   0  0  0  0  0  0  0  0  0  0  0  0
  186.1810  175.3410  137.2090 C   0  0  0  0  0  2  0  0  0  0  0  0
  189.0230  177.7590  141.7370 N   0  0  0  0  0  0  0  0  0  0  0  0
  185.7270  176.8040  137.1140 C   0  0  2  0  0  3  0  0  0  0  0  0
  191.0720  177.0530  137.8360 F   0  0  0  0  0  0  0  0  0  0  0  0
  185.5470  178.7670  139.5280 C   0  0  0  0  0  3  0  0  0  0  0  0
  186.6570  178.2350  138.8800 C   0  0  0  0  0  0  0  0  0  0  0  0
  187.8170  177.9340  139.5590 C   0  0  0  0  0  0  0  0  0  0  0  0
  187.8890  178.1160  140.9360 C   0  0  0  0  0  0  0  0  0  0  0  0
  188.7930  177.4490  138.6120 C   0  0  0  0  0  0  0  0  0  0  0  0
  185.6450  178.9600  140.9070 C   0  0  0  0  0  3  0  0  0  0  0  0
  190.6940  176.6120  143.6600 C   0  0  0  0  0  3  0  0  0  0  0  0
  191.1140  177.1320  142.5440 N   0  0  0  0  0  0  0  0  0  0  0  0
  191.6430  176.4210  144.7990 C   0  0  0  0  0  2  0  0  0  0  0  0
  191.2620  177.3000  145.8920 N   0  0  0  0  0  0  0  0  0  0  0  0
  190.0580  177.8440  145.5500 O   0  0  0  0  0  1  0  0  0  0  0  0
  192.2520  176.5650  147.9910 C   0  0  0  0  0  2  0  0  0  0  0  0
  192.0910  175.3590  147.0890 C   0  0  0  0  0  2  0  0  0  0  0  0
  191.0490  176.4660  147.0630 C   0  0  0  0  0  3  0  0  0  0  0  0
  184.8220  177.1490  135.9730 C   0  0  0  0  0  3  0  0  0  0  0  0
  183.5120  177.1540  136.1410 C   0  0  0  0  0  3  0  0  0  0  0  0
  182.6080  177.5090  135.0140 C   0  0  0  0  0  2  0  0  0  0  0  0
  181.3030  176.7490  135.1450 C   0  0  0  0  0  2  0  0  0  0  0  0
  180.2610  177.5840  135.8710 C   0  0  0  0  0  2  0  0  0  0  0  0
  180.4050  177.1260  138.4370 C   0  0  1  0  0  3  0  0  0  0  0  0
  180.7960  178.0600  137.2280 C   0  0  2  0  0  3  0  0  0  0  0  0
  181.0230  180.3690  136.5590 O   0  0  0  0  0  1  0  0  0  0  0  0
  181.0110  179.8990  138.9050 C   0  0  2  0  0  0  0  0  0  0  0  0
  180.6520  177.7370  139.7010 O   0  0  0  0  0  0  0  0  0  0  0  0
  182.3470  179.4950  139.0230 O   0  0  0  0  0  1  0  0  0  0  0  0
  180.4940  180.1790  140.3220 C   0  0  2  0  0  3  0  0  0  0  0  0
  179.9980  178.9770  139.6300 C   0  0  1  0  0  3  0  0  0  0  0  0
  180.4470  179.5490  137.5270 C   0  0  2  0  0  3  0  0  0  0  0  0
  179.4960  181.2330  140.2600 N   0  0  0  0  0  2  0  0  0  0  0  0
  179.2520  181.6220  141.5370 O   0  0  0  0  0  1  0  0  0  0  0  0
  178.9880  176.5390  138.3670 C   0  0  0  0  0  2  0  0  0  0  0  0
  179.0130  175.2330  138.8580 O   0  0  0  0  0  1  0  0  0  0  0  0
  189.2790  174.6490  136.6690 C   0  0  0  0  0  2  0  0  0  0  0  0
  190.3280  173.7220  136.0720 C   0  0  0  0  0  2  0  0  0  0  0  0
  192.8140  171.8480  135.5460 S   0  0  0  0  0  0  0  0  0  0  0  0
  194.0450  173.8410  136.8760 N   0  0  0  0  0  0  0  0  0  0  0  0
  192.7780  173.4120  136.4000 C   0  0  0  0  0  0  0  0  0  0  0  0
  195.1380  172.9920  136.4240 C   0  0  0  0  0  2  0  0  0  0  0  0
  191.6780  174.1580  136.5330 C   0  0  0  0  0  3  0  0  0  0  0  0
  194.6110  172.1070  135.2910 C   0  0  0  0  0  2  0  0  0  0  0  0
  194.1800  176.2310  136.3960 C   0  0  0  0  0  1  0  0  0  0  0  0
  194.2720  175.1530  137.4610 C   0  0  0  0  0  2  0  0  0  0  0  0
  1 11  1  0  0  0  0
  2  4  1  0  0  0  0
  3 10  1  0  0  0  0
  4 19  2  0  0  0  0
  5  3  2  0  0  0  0
  7  2  1  0  0  0  0
  7 47  1  1  0  0  0
  8  7  1  0  0  0  0
  8  1  1  0  0  0  0
  9  4  1  1  0  0  0
  9 16  1  0  0  0  0
 10 12  2  0  0  0  0
 10 22  1  0  0  0  0
 13 29  1  6  0  0  0
 13 11  1  0  0  0  0
 13  9  1  0  0  0  0
 14  5  1  0  0  0  0
 15 20  2  0  0  0  0
 16 15  1  0  0  0  0
 16 17  2  0  0  0  0
 17 18  1  0  0  0  0
 18  6  2  0  0  0  0
 18 12  1  0  0  0  0
 19  5  1  0  0  0  0
 19 17  1  0  0  0  0
 20  6  1  0  0  0  0
 21 23  1  0  0  0  0
 22 21  2  0  0  0  0
 23 24  1  0  0  0  0
 24 28  1  0  0  0  0
 25 24  1  0  0  0  0
 27 26  1  0  0  0  0
 28 27  1  0  0  0  0
 28 26  1  0  0  0  0
 29 30  2  0  0  0  0
 31 32  1  0  0  0  0
 31 30  1  0  0  0  0
 32 33  1  0  0  0  0
 34 45  1  6  0  0  0
 34 38  1  0  0  0  0
 35 33  1  6  0  0  0
 35 42  1  0  0  0  0
 35 34  1  0  0  0  0
 37 39  1  1  0  0  0
 37 41  1  0  0  0  0
 37 40  1  0  0  0  0
 40 43  1  6  0  0  0
 41 38  1  1  0  0  0
 41 40  1  0  0  0  0
 42 36  1  6  0  0  0
 42 37  1  0  0  0  0
 43 44  1  0  0  0  0
 45 46  1  0  0  0  0
 48 53  1  0  0  0  0
 48 47  1  0  0  0  0
 49 51  1  0  0  0  0
 50 56  1  0  0  0  0
 51 53  2  0  0  0  0
 51 50  1  0  0  0  0
 52 50  1  0  0  0  0
 54 49  1  0  0  0  0
 54 52  1  0  0  0  0
 55 56  1  0  0  0  0
M  END
>  <MODEL>
1

>  <REMARK>
 VINA RESULT:      -7.1      0.000      0.000
  Name = 
  15 active torsions:
  status: ('A' for Active; 'I' for Inactive)
    1  A    between atoms: C_2  and  C_35
    2  A    between atoms: C_4  and  C_14
    3  A    between atoms: C_6  and  C_9
    4  A    between atoms: C_9  and  C_33
    5  A    between atoms: C_10  and  C_16
    6  A    between atoms: C_10  and  C_25
    7  A    between atoms: N_11  and  C_49
    8  A    between atoms: C_12  and  C_40
    9  A    between atoms: C_16  and  C_47
   10  A    between atoms: N_19  and  C_42
   11  A    between atoms: N_23  and  C_29
   12  A    between atoms: N_24  and  C_35
   13  A    between atoms: N_24  and  C_53
   14  A    between atoms: C_32  and  C_33
   15  A    between atoms: C_32  and  C_56
                            x       y       z     vdW  Elec       q    Type
                         _______ _______ _______ _____ _____    ______ ____

>  <TORSDO>
F 15

$$$$
=
 OpenBabel10222420543D

 56 63  0  0  1  0  0  0  0  0999 V2000
  185.2610  179.8890  146.0670 C   0  0  0  0  0  2  0  0  0  0  0  0
  185.9790  176.6800  144.8450 C   0  0  0  0  0  2  0  0  0  0  0  0
  189.1440  176.7190  141.8270 C   0  0  0  0  0  3  0  0  0  0  0  0
  185.9160  177.4150  143.5390 C   0  0  0  0  0  0  0  0  0  0  0  0
  188.1670  176.6850  142.7260 C   0  0  0  0  0  0  0  0  0  0  0  0
  186.2430  178.9570  139.2530 N   0  0  0  0  0  0  0  0  0  0  0  0
  186.3850  177.5470  146.0280 C   0  0  2  0  0  3  0  0  0  0  0  0
  185.2330  178.4280  146.5230 C   0  0  0  0  0  2  0  0  0  0  0  0
  184.6460  178.0650  143.0240 C   0  0  1  0  0  3  0  0  0  0  0  0
  189.3090  177.4360  140.5450 C   0  0  0  0  0  0  0  0  0  0  0  0
  185.3550  180.0720  144.5530 C   0  0  0  0  0  2  0  0  0  0  0  0
  188.3830  178.1040  139.9290 N   0  0  0  0  0  0  0  0  0  0  0  0
  184.2580  179.3680  143.7420 C   0  0  2  0  0  3  0  0  0  0  0  0
  188.3890  175.8910  143.8040 F   0  0  0  0  0  0  0  0  0  0  0  0
  184.3010  178.9980  140.6480 C   0  0  0  0  0  3  0  0  0  0  0  0
  185.0690  178.3950  141.6390 C   0  0  0  0  0  0  0  0  0  0  0  0
  186.3860  178.0530  141.4270 C   0  0  0  0  0  0  0  0  0  0  0  0
  187.0000  178.3500  140.2130 C   0  0  0  0  0  0  0  0  0  0  0  0
  186.8920  177.4060  142.6140 C   0  0  0  0  0  0  0  0  0  0  0  0
  184.9290  179.2710  139.4320 C   0  0  0  0  0  3  0  0  0  0  0  0
  190.9300  176.5160  139.0400 C   0  0  0  0  0  3  0  0  0  0  0  0
  190.6020  177.4040  139.9330 N   0  0  0  0  0  0  0  0  0  0  0  0
  192.3200  176.4870  138.4920 C   0  0  0  0  0  2  0  0  0  0  0  0
  192.5800  175.1770  137.9170 N   0  0  0  0  0  0  0  0  0  0  0  0
  191.3910  174.5080  137.9240 O   0  0  0  0  0  1  0  0  0  0  0  0
  194.3590  174.8280  136.2930 C   0  0  0  0  0  2  0  0  0  0  0  0
  194.1560  176.3180  136.4680 C   0  0  0  0  0  2  0  0  0  0  0  0
  192.9610  175.3810  136.5300 C   0  0  0  0  0  3  0  0  0  0  0  0
  182.8880  179.3540  144.3440 C   0  0  0  0  0  3  0  0  0  0  0  0
  181.9030  178.7140  143.7400 C   0  0  0  0  0  3  0  0  0  0  0  0
  180.5420  178.6860  144.3410 C   0  0  0  0  0  2  0  0  0  0  0  0
  179.6450  179.6760  143.6230 C   0  0  0  0  0  2  0  0  0  0  0  0
  178.9310  179.0130  142.4570 C   0  0  0  0  0  2  0  0  0  0  0  0
  180.4490  179.6430  140.4290 C   0  0  1  0  0  3  0  0  0  0  0  0
  179.9390  178.5200  141.4120 C   0  0  2  0  0  3  0  0  0  0  0  0
  179.2300  176.2130  141.5150 O   0  0  0  0  0  1  0  0  0  0  0  0
  180.5110  176.8870  139.6100 C   0  0  2  0  0  0  0  0  0  0  0  0
  181.1390  179.1110  139.3020 O   0  0  0  0  0  0  0  0  0  0  0  0
  181.7780  176.8310  140.2050 O   0  0  0  0  0  1  0  0  0  0  0  0
  180.7250  176.9350  138.0910 C   0  0  2  0  0  3  0  0  0  0  0  0
  180.2590  178.1600  138.7630 C   0  0  1  0  0  3  0  0  0  0  0  0
  179.4370  177.2700  140.6300 C   0  0  2  0  0  3  0  0  0  0  0  0
  179.6080  176.2740  137.4370 N   0  0  0  0  0  2  0  0  0  0  0  0
  179.7680  174.9400  137.6340 O   0  0  0  0  0  1  0  0  0  0  0  0
  179.3800  180.6600  140.0030 C   0  0  0  0  0  2  0  0  0  0  0  0
  180.0020  181.7210  139.3420 O   0  0  0  0  0  1  0  0  0  0  0  0
  187.7080  178.2890  145.8400 C   0  0  0  0  0  2  0  0  0  0  0  0
  188.6470  178.0110  147.0040 C   0  0  0  0  0  2  0  0  0  0  0  0
  190.1520  178.8030  144.3440 S   0  0  0  0  0  0  0  0  0  0  0  0
  191.4850  176.5390  144.9410 N   0  0  0  0  0  0  0  0  0  0  0  0
  190.4350  177.3850  145.3870 C   0  0  0  0  0  0  0  0  0  0  0  0
  192.2190  177.0920  143.8120 C   0  0  0  0  0  2  0  0  0  0  0  0
  189.7740  177.1590  146.5250 C   0  0  0  0  0  3  0  0  0  0  0  0
  191.8480  178.5730  143.6880 C   0  0  0  0  0  2  0  0  0  0  0  0
  192.2060  175.8300  147.1630 C   0  0  0  0  0  1  0  0  0  0  0  0
  191.9860  175.4170  145.7190 C   0  0  0  0  0  2  0  0  0  0  0  0
  1  8  1  0  0  0  0
  2  7  1  0  0  0  0
  3  5  2  0  0  0  0
  4  2  1  0  0  0  0
  5 14  1  0  0  0  0
  6 20  1  0  0  0  0
  6 18  2  0  0  0  0
  7 47  1  6  0  0  0
  7  8  1  0  0  0  0
  9 16  1  6  0  0  0
  9  4  1  0  0  0  0
  9 13  1  0  0  0  0
 10  3  1  0  0  0  0
 11  1  1  0  0  0  0
 12 18  1  0  0  0  0
 12 10  2  0  0  0  0
 13 29  1  1  0  0  0
 13 11  1  0  0  0  0
 15 16  1  0  0  0  0
 17 16  2  0  0  0  0
 17 19  1  0  0  0  0
 18 17  1  0  0  0  0
 19  5  1  0  0  0  0
 19  4  2  0  0  0  0
 20 15  2  0  0  0  0
 21 22  2  0  0  0  0
 22 10  1  0  0  0  0
 23 21  1  0  0  0  0
 24 25  1  0  0  0  0
 24 23  1  0  0  0  0
 26 27  1  0  0  0  0
 26 28  1  0  0  0  0
 27 28  1  0  0  0  0
 28 24  1  0  0  0  0
 30 31  1  0  0  0  0
 30 29  2  0  0  0  0
 32 31  1  0  0  0  0
 33 32  1  0  0  0  0
 34 45  1  6  0  0  0
 34 35  1  0  0  0  0
 35 33  1  6  0  0  0
 37 39  1  1  0  0  0
 37 42  1  0  0  0  0
 38 34  1  0  0  0  0
 40 43  1  6  0  0  0
 40 41  1  0  0  0  0
 40 37  1  0  0  0  0
 41 38  1  1  0  0  0
 41 37  1  0  0  0  0
 42 35  1  0  0  0  0
 42 36  1  1  0  0  0
 43 44  1  0  0  0  0
 46 45  1  0  0  0  0
 47 48  1  0  0  0  0
 49 51  1  0  0  0  0
 50 51  1  0  0  0  0
 50 56  1  0  0  0  0
 51 53  2  0  0  0  0
 52 50  1  0  0  0  0
 53 48  1  0  0  0  0
 54 52  1  0  0  0  0
 54 49  1  0  0  0  0
 56 55  1  0  0  0  0
M  END
>  <MODEL>
2

>  <REMARK>
 VINA RESULT:      -7.0      3.330      7.452
  Name = 
  15 active torsions:
  status: ('A' for Active; 'I' for Inactive)
    1  A    between atoms: C_2  and  C_35
    2  A    between atoms: C_4  and  C_14
    3  A    between atoms: C_6  and  C_9
    4  A    between atoms: C_9  and  C_33
    5  A    between atoms: C_10  and  C_16
    6  A    between atoms: C_10  and  C_25
    7  A    between atoms: N_11  and  C_49
    8  A    between atoms: C_12  and  C_40
    9  A    between atoms: C_16  and  C_47
   10  A    between atoms: N_19  and  C_42
   11  A    between atoms: N_23  and  C_29
   12  A    between atoms: N_24  and  C_35
   13  A    between atoms: N_24  and  C_53
   14  A    between atoms: C_32  and  C_33
   15  A    between atoms: C_32  and  C_56
                            x       y       z     vdW  Elec       q    Type
                         _______ _______ _______ _____ _____    ______ ____

>  <TORSDO>
F 15

$$$$
=
 OpenBabel10222420543D

 56 63  0  0  1  0  0  0  0  0999 V2000
  184.8340  175.7890  136.0240 C   0  0  0  0  0  2  0  0  0  0  0  0
  186.9990  178.4890  136.5930 C   0  0  0  0  0  2  0  0  0  0  0  0
  189.2800  178.0420  140.2980 C   0  0  0  0  0  3  0  0  0  0  0  0
  186.4020  178.3800  137.9650 C   0  0  0  0  0  0  0  0  0  0  0  0
  188.5830  178.2090  139.1790 C   0  0  0  0  0  0  0  0  0  0  0  0
  185.3550  178.4770  142.4090 N   0  0  0  0  0  0  0  0  0  0  0  0
  187.0170  177.1810  135.8160 C   0  0  2  0  0  3  0  0  0  0  0  0
  185.6400  176.8290  135.2430 C   0  0  0  0  0  2  0  0  0  0  0  0
  184.9310  178.6230  138.2420 C   0  0  1  0  0  3  0  0  0  0  0  0
  188.8860  177.8320  141.7070 C   0  0  0  0  0  0  0  0  0  0  0  0
  184.6380  176.1270  137.5010 C   0  0  0  0  0  2  0  0  0  0  0  0
  187.6830  177.9360  142.1790 N   0  0  0  0  0  0  0  0  0  0  0  0
  183.9970  177.4940  137.7770 C   0  0  2  0  0  3  0  0  0  0  0  0
  189.3170  178.3730  138.0490 F   0  0  0  0  0  0  0  0  0  0  0  0
  183.8670  178.8590  140.5760 C   0  0  0  0  0  3  0  0  0  0  0  0
  184.9480  178.6440  139.7270 C   0  0  0  0  0  0  0  0  0  0  0  0
  186.2100  178.3820  140.2130 C   0  0  0  0  0  0  0  0  0  0  0  0
  186.4250  178.2810  141.5840 C   0  0  0  0  0  0  0  0  0  0  0  0
  187.1170  178.2560  139.0970 C   0  0  0  0  0  0  0  0  0  0  0  0
  184.1060  178.7710  141.9480 C   0  0  0  0  0  3  0  0  0  0  0  0
  190.1580  178.1560  143.7110 C   0  0  0  0  0  3  0  0  0  0  0  0
  189.9170  177.4690  142.6320 N   0  0  0  0  0  0  0  0  0  0  0  0
  191.2960  177.7720  144.6000 C   0  0  0  0  0  2  0  0  0  0  0  0
  190.8380  177.7480  145.9800 N   0  0  0  0  0  0  0  0  0  0  0  0
  189.5490  178.1960  145.9680 O   0  0  0  0  0  1  0  0  0  0  0  0
  191.7150  176.1770  147.6190 C   0  0  0  0  0  2  0  0  0  0  0  0
  192.2040  175.7620  146.2480 C   0  0  0  0  0  2  0  0  0  0  0  0
  190.8150  176.3580  146.4050 C   0  0  0  0  0  3  0  0  0  0  0  0
  182.9250  177.9320  136.8290 C   0  0  0  0  0  3  0  0  0  0  0  0
  181.7710  178.3780  137.2910 C   0  0  0  0  0  3  0  0  0  0  0  0
  180.7070  178.8280  136.3530 C   0  0  0  0  0  2  0  0  0  0  0  0
  179.7050  177.7100  136.1410 C   0  0  0  0  0  2  0  0  0  0  0  0
  179.6900  176.7640  137.3310 C   0  0  0  0  0  2  0  0  0  0  0  0
  179.1580  174.2920  137.9800 C   0  0  1  0  0  3  0  0  0  0  0  0
  179.6230  175.3050  136.8630 C   0  0  2  0  0  3  0  0  0  0  0  0
  181.1850  175.5990  135.0460 O   0  0  0  0  0  1  0  0  0  0  0  0
  180.7580  173.3620  135.7780 C   0  0  2  0  0  0  0  0  0  0  0  0
  179.3880  172.9340  137.6160 O   0  0  0  0  0  0  0  0  0  0  0  0
  179.5490  173.1680  135.0970 O   0  0  0  0  0  1  0  0  0  0  0  0
  181.2590  171.9790  136.2160 C   0  0  2  0  0  3  0  0  0  0  0  0
  180.7430  172.8880  137.2540 C   0  0  1  0  0  3  0  0  0  0  0  0
  180.9380  174.8270  136.1790 C   0  0  2  0  0  3  0  0  0  0  0  0
  182.7120  171.9870  136.2290 N   0  0  0  0  0  2  0  0  0  0  0  0
  183.1060  170.9460  137.0050 O   0  0  0  0  0  1  0  0  0  0  0  0
  179.6940  174.5930  139.3870 C   0  0  0  0  0  2  0  0  0  0  0  0
  178.9440  173.8770  140.3210 O   0  0  0  0  0  1  0  0  0  0  0  0
  187.7100  176.0290  136.5410 C   0  0  0  0  0  2  0  0  0  0  0  0
  188.8310  175.4560  135.6860 C   0  0  0  0  0  2  0  0  0  0  0  0
  190.9440  173.1520  136.1270 S   0  0  0  0  0  0  0  0  0  0  0  0
  192.2990  175.2020  137.2300 N   0  0  0  0  0  0  0  0  0  0  0  0
  191.0740  174.8670  136.5950 C   0  0  0  0  0  0  0  0  0  0  0  0
  193.2610  174.1100  137.2200 C   0  0  0  0  0  2  0  0  0  0  0  0
  190.1400  175.7810  136.3220 C   0  0  0  0  0  3  0  0  0  0  0  0
  192.7720  173.0600  136.2180 C   0  0  0  0  0  2  0  0  0  0  0  0
  192.8380  176.7340  139.0530 C   0  0  0  0  0  1  0  0  0  0  0  0
  192.6790  176.5680  137.5520 C   0  0  0  0  0  2  0  0  0  0  0  0
  1 11  1  0  0  0  0
  2  4  1  0  0  0  0
  3 10  1  0  0  0  0
  4 19  2  0  0  0  0
  5  3  2  0  0  0  0
  7 47  1  1  0  0  0
  7  2  1  0  0  0  0
  8  7  1  0  0  0  0
  8  1  1  0  0  0  0
  9  4  1  1  0  0  0
  9 16  1  0  0  0  0
 10 12  2  0  0  0  0
 10 22  1  0  0  0  0
 11 13  1  0  0  0  0
 13 29  1  6  0  0  0
 13  9  1  0  0  0  0
 14  5  1  0  0  0  0
 15 20  2  0  0  0  0
 16 17  2  0  0  0  0
 16 15  1  0  0  0  0
 17 18  1  0  0  0  0
 18 12  1  0  0  0  0
 18  6  2  0  0  0  0
 19  5  1  0  0  0  0
 19 17  1  0  0  0  0
 20  6  1  0  0  0  0
 21 23  1  0  0  0  0
 22 21  2  0  0  0  0
 23 24  1  0  0  0  0
 24 28  1  0  0  0  0
 25 24  1  0  0  0  0
 27 28  1  0  0  0  0
 27 26  1  0  0  0  0
 28 26  1  0  0  0  0
 29 30  2  0  0  0  0
 31 30  1  0  0  0  0
 32 31  1  0  0  0  0
 32 33  1  0  0  0  0
 34 45  1  1  0  0  0
 35 33  1  1  0  0  0
 35 34  1  0  0  0  0
 37 39  1  6  0  0  0
 37 42  1  0  0  0  0
 37 40  1  0  0  0  0
 37 41  1  0  0  0  0
 38 34  1  0  0  0  0
 40 43  1  1  0  0  0
 40 41  1  0  0  0  0
 41 38  1  6  0  0  0
 42 36  1  6  0  0  0
 42 35  1  0  0  0  0
 43 44  1  0  0  0  0
 45 46  1  0  0  0  0
 48 53  1  0  0  0  0
 48 47  1  0  0  0  0
 49 54  1  0  0  0  0
 49 51  1  0  0  0  0
 50 56  1  0  0  0  0
 51 50  1  0  0  0  0
 52 50  1  0  0  0  0
 53 51  2  0  0  0  0
 54 52  1  0  0  0  0
 56 55  1  0  0  0  0
M  END
>  <MODEL>
3

>  <REMARK>
 VINA RESULT:      -6.8      2.431      3.726
  Name = 
  15 active torsions:
  status: ('A' for Active; 'I' for Inactive)
    1  A    between atoms: C_2  and  C_35
    2  A    between atoms: C_4  and  C_14
    3  A    between atoms: C_6  and  C_9
    4  A    between atoms: C_9  and  C_33
    5  A    between atoms: C_10  and  C_16
    6  A    between atoms: C_10  and  C_25
    7  A    between atoms: N_11  and  C_49
    8  A    between atoms: C_12  and  C_40
    9  A    between atoms: C_16  and  C_47
   10  A    between atoms: N_19  and  C_42
   11  A    between atoms: N_23  and  C_29
   12  A    between atoms: N_24  and  C_35
   13  A    between atoms: N_24  and  C_53
   14  A    between atoms: C_32  and  C_33
   15  A    between atoms: C_32  and  C_56
                            x       y       z     vdW  Elec       q    Type
                         _______ _______ _______ _____ _____    ______ ____

>  <TORSDO>
F 15

$$$$
=
 OpenBabel10222420543D

 56 63  0  0  1  0  0  0  0  0999 V2000
  184.6520  175.9630  136.1020 C   0  0  0  0  0  2  0  0  0  0  0  0
  186.6470  178.6290  137.2050 C   0  0  0  0  0  2  0  0  0  0  0  0
  188.1720  178.0000  141.2560 C   0  0  0  0  0  3  0  0  0  0  0  0
  185.7970  178.4550  138.4290 C   0  0  0  0  0  0  0  0  0  0  0  0
  187.7030  178.2230  140.0330 C   0  0  0  0  0  0  0  0  0  0  0  0
  183.9100  178.3430  142.5860 N   0  0  0  0  0  0  0  0  0  0  0  0
  186.8250  177.3590  136.3850 C   0  0  2  0  0  3  0  0  0  0  0  0
  185.5870  177.0380  135.5410 C   0  0  0  0  0  2  0  0  0  0  0  0
  184.2990  178.6880  138.4270 C   0  0  1  0  0  3  0  0  0  0  0  0
  187.5150  177.7240  142.5510 C   0  0  0  0  0  0  0  0  0  0  0  0
  184.1720  176.2310  137.5260 C   0  0  0  0  0  2  0  0  0  0  0  0
  186.2410  177.8080  142.7850 N   0  0  0  0  0  0  0  0  0  0  0  0
  183.4800  177.5850  137.7380 C   0  0  2  0  0  3  0  0  0  0  0  0
  188.6410  178.4380  139.0760 F   0  0  0  0  0  0  0  0  0  0  0  0
  182.8020  178.8150  140.5190 C   0  0  0  0  0  3  0  0  0  0  0  0
  184.0280  178.6390  139.8870 C   0  0  0  0  0  0  0  0  0  0  0  0
  185.1740  178.3510  140.5950 C   0  0  0  0  0  0  0  0  0  0  0  0
  185.1200  178.1840  141.9760 C   0  0  0  0  0  0  0  0  0  0  0  0
  186.2810  178.2760  139.6710 C   0  0  0  0  0  0  0  0  0  0  0  0
  182.7710  178.6610  141.9070 C   0  0  0  0  0  3  0  0  0  0  0  0
  189.2330  178.1060  144.1750 C   0  0  0  0  0  3  0  0  0  0  0  0
  188.3490  177.3160  143.6400 N   0  0  0  0  0  0  0  0  0  0  0  0
  190.1280  177.5990  145.2600 C   0  0  0  0  0  2  0  0  0  0  0  0
  189.3140  177.1220  146.3660 N   0  0  0  0  0  0  0  0  0  0  0  0
  190.1790  176.6350  147.3020 O   0  0  0  0  0  1  0  0  0  0  0  0
  188.1060  177.9250  148.3210 C   0  0  0  0  0  2  0  0  0  0  0  0
  187.1720  177.9680  147.1290 C   0  0  0  0  0  2  0  0  0  0  0  0
  188.6490  178.2780  146.9440 C   0  0  0  0  0  3  0  0  0  0  0  0
  182.6090  178.0700  136.6220 C   0  0  0  0  0  3  0  0  0  0  0  0
  181.4610  177.4690  136.3650 C   0  0  0  0  0  3  0  0  0  0  0  0
  180.5850  177.9570  135.2660 C   0  0  0  0  0  2  0  0  0  0  0  0
  180.7970  179.4450  135.0640 C   0  0  0  0  0  2  0  0  0  0  0  0
  179.7330  180.2470  135.7930 C   0  0  0  0  0  2  0  0  0  0  0  0
  180.2480  181.4080  138.0740 C   0  0  1  0  0  3  0  0  0  0  0  0
  180.3540  181.4580  136.5010 C   0  0  2  0  0  3  0  0  0  0  0  0
  180.1700  182.9270  134.5940 O   0  0  0  0  0  1  0  0  0  0  0  0
  180.5070  183.9400  136.7340 C   0  0  2  0  0  0  0  0  0  0  0  0
  180.5570  182.6590  138.6820 O   0  0  0  0  0  0  0  0  0  0  0  0
  181.8920  183.7430  136.8200 O   0  0  0  0  0  1  0  0  0  0  0  0
  180.1310  184.9840  137.7950 C   0  0  2  0  0  3  0  0  0  0  0  0
  179.7310  183.5860  138.0280 C   0  0  1  0  0  3  0  0  0  0  0  0
  179.8370  182.8170  135.9420 C   0  0  2  0  0  3  0  0  0  0  0  0
  178.9940  185.7510  137.3170 N   0  0  0  0  0  2  0  0  0  0  0  0
  178.9320  186.8770  138.0720 O   0  0  0  0  0  1  0  0  0  0  0  0
  178.9310  180.8330  138.6130 C   0  0  0  0  0  2  0  0  0  0  0  0
  179.2080  180.0140  139.7100 O   0  0  0  0  0  1  0  0  0  0  0  0
  187.3730  176.1720  137.1760 C   0  0  0  0  0  2  0  0  0  0  0  0
  188.1250  175.2200  136.2580 C   0  0  0  0  0  2  0  0  0  0  0  0
  190.0120  172.9010  135.2420 S   0  0  0  0  0  0  0  0  0  0  0  0
  191.8100  174.3480  136.6330 N   0  0  0  0  0  0  0  0  0  0  0  0
  190.4390  174.2990  136.2630 C   0  0  0  0  0  0  0  0  0  0  0  0
  192.6140  173.3340  135.9670 C   0  0  0  0  0  2  0  0  0  0  0  0
  189.5750  175.2580  136.6040 C   0  0  0  0  0  3  0  0  0  0  0  0
  191.7880  172.7610  134.8120 C   0  0  0  0  0  2  0  0  0  0  0  0
  193.4020  176.1870  136.4310 C   0  0  0  0  0  1  0  0  0  0  0  0
  192.4050  175.4780  137.3290 C   0  0  0  0  0  2  0  0  0  0  0  0
  1 11  1  0  0  0  0
  2  4  1  0  0  0  0
  3 10  1  0  0  0  0
  4 19  2  0  0  0  0
  5  3  2  0  0  0  0
  7 47  1  1  0  0  0
  7  2  1  0  0  0  0
  8  1  1  0  0  0  0
  8  7  1  0  0  0  0
  9  4  1  1  0  0  0
  9 16  1  0  0  0  0
 10 12  2  0  0  0  0
 10 22  1  0  0  0  0
 11 13  1  0  0  0  0
 13 29  1  6  0  0  0
 13  9  1  0  0  0  0
 14  5  1  0  0  0  0
 15 20  2  0  0  0  0
 16 15  1  0  0  0  0
 16 17  2  0  0  0  0
 17 18  1  0  0  0  0
 18  6  2  0  0  0  0
 18 12  1  0  0  0  0
 19  5  1  0  0  0  0
 19 17  1  0  0  0  0
 20  6  1  0  0  0  0
 21 23  1  0  0  0  0
 22 21  2  0  0  0  0
 23 24  1  0  0  0  0
 24 28  1  0  0  0  0
 24 25  1  0  0  0  0
 27 26  1  0  0  0  0
 28 27  1  0  0  0  0
 28 26  1  0  0  0  0
 30 29  2  0  0  0  0
 31 30  1  0  0  0  0
 32 31  1  0  0  0  0
 32 33  1  0  0  0  0
 34 45  1  6  0  0  0
 34 38  1  0  0  0  0
 35 33  1  6  0  0  0
 35 34  1  0  0  0  0
 37 39  1  1  0  0  0
 37 40  1  0  0  0  0
 37 41  1  0  0  0  0
 40 43  1  6  0  0  0
 40 41  1  0  0  0  0
 41 38  1  1  0  0  0
 42 36  1  6  0  0  0
 42 35  1  0  0  0  0
 42 37  1  0  0  0  0
 43 44  1  0  0  0  0
 45 46  1  0  0  0  0
 48 53  1  0  0  0  0
 48 47  1  0  0  0  0
 49 51  1  0  0  0  0
 50 56  1  0  0  0  0
 51 53  2  0  0  0  0
 51 50  1  0  0  0  0
 52 50  1  0  0  0  0
 54 49  1  0  0  0  0
 54 52  1  0  0  0  0
 55 56  1  0  0  0  0
M  END
>  <MODEL>
4

>  <REMARK>
 VINA RESULT:      -6.8      2.529      3.336
  Name = 
  15 active torsions:
  status: ('A' for Active; 'I' for Inactive)
    1  A    between atoms: C_2  and  C_35
    2  A    between atoms: C_4  and  C_14
    3  A    between atoms: C_6  and  C_9
    4  A    between atoms: C_9  and  C_33
    5  A    between atoms: C_10  and  C_16
    6  A    between atoms: C_10  and  C_25
    7  A    between atoms: N_11  and  C_49
    8  A    between atoms: C_12  and  C_40
    9  A    between atoms: C_16  and  C_47
   10  A    between atoms: N_19  and  C_42
   11  A    between atoms: N_23  and  C_29
   12  A    between atoms: N_24  and  C_35
   13  A    between atoms: N_24  and  C_53
   14  A    between atoms: C_32  and  C_33
   15  A    between atoms: C_32  and  C_56
                            x       y       z     vdW  Elec       q    Type
                         _______ _______ _______ _____ _____    ______ ____

>  <TORSDO>
F 15

$$$$
=
 OpenBabel10222420543D

 56 63  0  0  1  0  0  0  0  0999 V2000
  185.1460  175.0980  135.7760 C   0  0  0  0  0  2  0  0  0  0  0  0
  187.2170  177.9220  135.9650 C   0  0  0  0  0  2  0  0  0  0  0  0
  189.5450  178.0340  139.6660 C   0  0  0  0  0  3  0  0  0  0  0  0
  186.6360  177.9690  137.3470 C   0  0  0  0  0  0  0  0  0  0  0  0
  188.8330  178.0320  138.5450 C   0  0  0  0  0  0  0  0  0  0  0  0
  185.6250  178.6010  141.7560 N   0  0  0  0  0  0  0  0  0  0  0  0
  187.2760  176.5260  135.3610 C   0  0  2  0  0  3  0  0  0  0  0  0
  185.9070  176.0560  134.8570 C   0  0  0  0  0  2  0  0  0  0  0  0
  185.1600  178.1960  137.6100 C   0  0  1  0  0  3  0  0  0  0  0  0
  189.1710  177.9930  141.0960 C   0  0  0  0  0  0  0  0  0  0  0  0
  184.9510  175.6160  137.1990 C   0  0  0  0  0  2  0  0  0  0  0  0
  187.9680  178.1150  141.5660 N   0  0  0  0  0  0  0  0  0  0  0  0
  184.2630  176.9840  137.3060 C   0  0  2  0  0  3  0  0  0  0  0  0
  189.5510  178.0740  137.3930 F   0  0  0  0  0  0  0  0  0  0  0  0
  184.1090  178.6930  139.9080 C   0  0  0  0  0  3  0  0  0  0  0  0
  185.1890  178.4080  139.0800 C   0  0  0  0  0  0  0  0  0  0  0  0
  186.4640  178.2540  139.5790 C   0  0  0  0  0  0  0  0  0  0  0  0
  186.6940  178.3370  140.9490 C   0  0  0  0  0  0  0  0  0  0  0  0
  187.3660  178.0170  138.4770 C   0  0  0  0  0  0  0  0  0  0  0  0
  184.3620  178.7900  141.2780 C   0  0  0  0  0  3  0  0  0  0  0  0
  190.1170  178.1550  143.2900 C   0  0  0  0  0  3  0  0  0  0  0  0
  190.2220  177.7880  142.0460 N   0  0  0  0  0  0  0  0  0  0  0  0
  191.2770  177.9830  144.2180 C   0  0  0  0  0  2  0  0  0  0  0  0
  190.7810  177.7720  145.5690 N   0  0  0  0  0  0  0  0  0  0  0  0
  189.4590  178.1110  145.5530 O   0  0  0  0  0  1  0  0  0  0  0  0
  190.8490  176.1120  147.3470 C   0  0  0  0  0  2  0  0  0  0  0  0
  192.1580  176.0550  146.5880 C   0  0  0  0  0  2  0  0  0  0  0  0
  190.8650  176.3480  145.8440 C   0  0  0  0  0  3  0  0  0  0  0  0
  183.1680  177.2600  136.3240 C   0  0  0  0  0  3  0  0  0  0  0  0
  182.4320  178.3510  136.4380 C   0  0  0  0  0  3  0  0  0  0  0  0
  181.3510  178.6360  135.4560 C   0  0  0  0  0  2  0  0  0  0  0  0
  180.0510  178.9070  136.1900 C   0  0  0  0  0  2  0  0  0  0  0  0
  179.2970  177.6140  136.4490 C   0  0  0  0  0  2  0  0  0  0  0  0
  180.2890  175.2390  136.8810 C   0  0  1  0  0  3  0  0  0  0  0  0
  180.0810  176.7100  137.4090 C   0  0  2  0  0  3  0  0  0  0  0  0
  179.5620  178.0050  139.3800 O   0  0  0  0  0  1  0  0  0  0  0  0
  180.3480  175.7700  139.7080 C   0  0  2  0  0  0  0  0  0  0  0  0
  180.7480  174.3530  137.8990 O   0  0  0  0  0  0  0  0  0  0  0  0
  181.7150  176.0240  139.5410 O   0  0  0  0  0  1  0  0  0  0  0  0
  180.2210  174.3900  140.3680 C   0  0  2  0  0  3  0  0  0  0  0  0
  179.8350  174.5170  138.9520 C   0  0  1  0  0  3  0  0  0  0  0  0
  179.5010  176.7160  138.8550 C   0  0  2  0  0  3  0  0  0  0  0  0
  179.0330  174.3770  141.2040 N   0  0  0  0  0  2  0  0  0  0  0  0
  178.9700  173.1500  141.7820 O   0  0  0  0  0  1  0  0  0  0  0  0
  179.0900  174.6490  136.1260 C   0  0  0  0  0  2  0  0  0  0  0  0
  179.2770  173.2730  135.9810 O   0  0  0  0  0  1  0  0  0  0  0  0
  188.0160  175.5010  136.2190 C   0  0  0  0  0  2  0  0  0  0  0  0
  189.0730  174.7800  135.3970 C   0  0  0  0  0  2  0  0  0  0  0  0
  191.3270  172.5840  135.6530 S   0  0  0  0  0  0  0  0  0  0  0  0
  192.6900  174.7170  136.5770 N   0  0  0  0  0  0  0  0  0  0  0  0
  191.4230  174.3130  136.0780 C   0  0  0  0  0  0  0  0  0  0  0  0
  193.6960  173.6690  136.4850 C   0  0  0  0  0  2  0  0  0  0  0  0
  190.4240  175.1780  135.8890 C   0  0  0  0  0  3  0  0  0  0  0  0
  193.1580  172.5770  135.5560 C   0  0  0  0  0  2  0  0  0  0  0  0
  193.2640  176.3250  138.3210 C   0  0  0  0  0  1  0  0  0  0  0  0
  193.0360  176.1050  136.8360 C   0  0  0  0  0  2  0  0  0  0  0  0
  1 11  1  0  0  0  0
  2  4  1  0  0  0  0
  3 10  1  0  0  0  0
  4 19  2  0  0  0  0
  5  3  2  0  0  0  0
  7  2  1  0  0  0  0
  7 47  1  1  0  0  0
  8  7  1  0  0  0  0
  8  1  1  0  0  0  0
  9  4  1  1  0  0  0
  9 16  1  0  0  0  0
 10 12  2  0  0  0  0
 10 22  1  0  0  0  0
 11 13  1  0  0  0  0
 13 29  1  6  0  0  0
 13  9  1  0  0  0  0
 14  5  1  0  0  0  0
 15 20  2  0  0  0  0
 16 17  2  0  0  0  0
 16 15  1  0  0  0  0
 17 18  1  0  0  0  0
 18 12  1  0  0  0  0
 18  6  2  0  0  0  0
 19  5  1  0  0  0  0
 19 17  1  0  0  0  0
 20  6  1  0  0  0  0
 21 23  1  0  0  0  0
 22 21  2  0  0  0  0
 23 24  1  0  0  0  0
 24 28  1  0  0  0  0
 25 24  1  0  0  0  0
 27 26  1  0  0  0  0
 28 27  1  0  0  0  0
 28 26  1  0  0  0  0
 29 30  2  0  0  0  0
 31 32  1  0  0  0  0
 31 30  1  0  0  0  0
 32 33  1  0  0  0  0
 34 45  1  1  0  0  0
 34 35  1  0  0  0  0
 34 38  1  0  0  0  0
 35 33  1  6  0  0  0
 35 42  1  0  0  0  0
 37 39  1  6  0  0  0
 37 40  1  0  0  0  0
 40 43  1  1  0  0  0
 41 38  1  6  0  0  0
 41 37  1  0  0  0  0
 41 40  1  0  0  0  0
 42 36  1  1  0  0  0
 42 37  1  0  0  0  0
 43 44  1  0  0  0  0
 46 45  1  0  0  0  0
 48 53  1  0  0  0  0
 48 47  1  0  0  0  0
 49 51  1  0  0  0  0
 50 56  1  0  0  0  0
 51 50  1  0  0  0  0
 52 50  1  0  0  0  0
 53 51  2  0  0  0  0
 54 49  1  0  0  0  0
 54 52  1  0  0  0  0
 56 55  1  0  0  0  0
M  END
>  <MODEL>
5

>  <REMARK>
 VINA RESULT:      -6.4      1.902      2.606
  Name = 
  15 active torsions:
  status: ('A' for Active; 'I' for Inactive)
    1  A    between atoms: C_2  and  C_35
    2  A    between atoms: C_4  and  C_14
    3  A    between atoms: C_6  and  C_9
    4  A    between atoms: C_9  and  C_33
    5  A    between atoms: C_10  and  C_16
    6  A    between atoms: C_10  and  C_25
    7  A    between atoms: N_11  and  C_49
    8  A    between atoms: C_12  and  C_40
    9  A    between atoms: C_16  and  C_47
   10  A    between atoms: N_19  and  C_42
   11  A    between atoms: N_23  and  C_29
   12  A    between atoms: N_24  and  C_35
   13  A    between atoms: N_24  and  C_53
   14  A    between atoms: C_32  and  C_33
   15  A    between atoms: C_32  and  C_56
                            x       y       z     vdW  Elec       q    Type
                         _______ _______ _______ _____ _____    ______ ____

>  <TORSDO>
F 15

$$$$
=
 OpenBabel10222420543D

 56 63  0  0  1  0  0  0  0  0999 V2000
  190.8990  175.8170  138.3110 C   0  0  0  0  0  2  0  0  0  0  0  0
  188.5700  177.9510  136.7870 C   0  0  0  0  0  2  0  0  0  0  0  0
  184.4420  176.8560  137.7310 C   0  0  0  0  0  3  0  0  0  0  0  0
  187.9300  176.6360  136.4540 C   0  0  0  0  0  0  0  0  0  0  0  0
  185.6870  177.1940  137.4130 C   0  0  0  0  0  0  0  0  0  0  0  0
  185.2100  173.1340  135.3620 N   0  0  0  0  0  0  0  0  0  0  0  0
  189.4110  177.9310  138.0550 C   0  0  2  0  0  3  0  0  0  0  0  0
  190.7740  177.2660  137.8350 C   0  0  0  0  0  2  0  0  0  0  0  0
  188.5890  175.6050  135.5580 C   0  0  1  0  0  3  0  0  0  0  0  0
  183.6680  175.6070  137.5720 C   0  0  0  0  0  0  0  0  0  0  0  0
  189.8390  174.8760  137.7430 C   0  0  0  0  0  2  0  0  0  0  0  0
  184.0410  174.5670  136.8930 N   0  0  0  0  0  0  0  0  0  0  0  0
  189.7520  174.8410  136.2110 C   0  0  2  0  0  3  0  0  0  0  0  0
  186.0480  178.4640  137.7290 F   0  0  0  0  0  0  0  0  0  0  0  0
  187.4440  173.5090  134.5950 C   0  0  0  0  0  3  0  0  0  0  0  0
  187.4540  174.6670  135.3640 C   0  0  0  0  0  0  0  0  0  0  0  0
  186.3530  175.0640  136.0910 C   0  0  0  0  0  0  0  0  0  0  0  0
  185.2050  174.2770  136.1080 C   0  0  0  0  0  0  0  0  0  0  0  0
  186.6540  176.3180  136.7390 C   0  0  0  0  0  0  0  0  0  0  0  0
  186.2770  172.7430  134.6090 C   0  0  0  0  0  3  0  0  0  0  0  0
  182.0890  176.2990  139.2350 C   0  0  0  0  0  3  0  0  0  0  0  0
  182.4000  175.5290  138.2330 N   0  0  0  0  0  0  0  0  0  0  0  0
  180.7790  176.1200  139.9330 C   0  0  0  0  0  2  0  0  0  0  0  0
  180.3040  177.4140  140.3970 N   0  0  0  0  0  0  0  0  0  0  0  0
  181.1940  177.8380  141.3410 O   0  0  0  0  0  1  0  0  0  0  0  0
  179.4730  179.5260  139.5180 C   0  0  0  0  0  2  0  0  0  0  0  0
  179.0290  178.4130  138.5910 C   0  0  0  0  0  2  0  0  0  0  0  0
  180.3850  178.3320  139.2740 C   0  0  0  0  0  3  0  0  0  0  0  0
  191.0470  174.9370  135.4670 C   0  0  0  0  0  3  0  0  0  0  0  0
  191.8550  173.8950  135.4000 C   0  0  0  0  0  3  0  0  0  0  0  0
  193.1370  173.9810  134.6500 C   0  0  0  0  0  2  0  0  0  0  0  0
  193.9040  172.6810  134.7950 C   0  0  0  0  0  2  0  0  0  0  0  0
  193.9050  172.2120  136.2410 C   0  0  0  0  0  2  0  0  0  0  0  0
  195.2460  173.4500  138.1070 C   0  0  1  0  0  3  0  0  0  0  0  0
  195.2750  172.4500  136.8880 C   0  0  2  0  0  3  0  0  0  0  0  0
  196.5400  171.8220  134.9280 O   0  0  0  0  0  1  0  0  0  0  0  0
  197.6780  173.0780  136.6170 C   0  0  2  0  0  0  0  0  0  0  0  0
  196.5480  173.8790  138.4930 O   0  0  0  0  0  0  0  0  0  0  0  0
  197.9470  172.0170  137.4910 O   0  0  0  0  0  1  0  0  0  0  0  0
  198.5760  174.2500  137.0350 C   0  0  2  0  0  3  0  0  0  0  0  0
  197.1320  174.3530  137.3080 C   0  0  1  0  0  3  0  0  0  0  0  0
  196.3710  172.8490  135.8550 C   0  0  2  0  0  3  0  0  0  0  0  0
  198.9130  175.0280  135.8550 N   0  0  0  0  0  2  0  0  0  0  0  0
  197.9230  175.9420  135.6880 O   0  0  0  0  0  1  0  0  0  0  0  0
  194.2910  174.6400  137.9420 C   0  0  0  0  0  2  0  0  0  0  0  0
  194.6350  175.6310  138.8640 O   0  0  0  0  0  1  0  0  0  0  0  0
  188.6660  177.4420  139.2960 C   0  0  0  0  0  2  0  0  0  0  0  0
  188.6050  178.5380  140.3490 C   0  0  0  0  0  2  0  0  0  0  0  0
  186.9480  178.0840  142.9990 S   0  0  0  0  0  0  0  0  0  0  0  0
  189.4090  177.4810  143.9140 N   0  0  0  0  0  0  0  0  0  0  0  0
  188.7040  177.8990  142.7550 C   0  0  0  0  0  0  0  0  0  0  0  0
  188.5270  177.1330  145.0190 C   0  0  0  0  0  2  0  0  0  0  0  0
  189.3100  178.0700  141.5770 C   0  0  0  0  0  3  0  0  0  0  0  0
  187.1070  176.9950  144.4640 C   0  0  0  0  0  2  0  0  0  0  0  0
  191.6790  178.3340  144.1920 C   0  0  0  0  0  1  0  0  0  0  0  0
  190.8170  177.1190  143.9010 C   0  0  0  0  0  2  0  0  0  0  0  0
  2  7  1  0  0  0  0
  4 19  2  0  0  0  0
  4  2  1  0  0  0  0
  5 14  1  0  0  0  0
  5  3  2  0  0  0  0
  6 18  2  0  0  0  0
  7 47  1  1  0  0  0
  8  7  1  0  0  0  0
  8  1  1  0  0  0  0
  9 16  1  1  0  0  0
  9 13  1  0  0  0  0
  9  4  1  0  0  0  0
 10  3  1  0  0  0  0
 10 22  1  0  0  0  0
 11  1  1  0  0  0  0
 12 10  2  0  0  0  0
 13 29  1  6  0  0  0
 13 11  1  0  0  0  0
 15 20  2  0  0  0  0
 15 16  1  0  0  0  0
 16 17  2  0  0  0  0
 17 18  1  0  0  0  0
 17 19  1  0  0  0  0
 18 12  1  0  0  0  0
 19  5  1  0  0  0  0
 20  6  1  0  0  0  0
 21 23  1  0  0  0  0
 22 21  2  0  0  0  0
 23 24  1  0  0  0  0
 24 25  1  0  0  0  0
 27 28  1  0  0  0  0
 27 26  1  0  0  0  0
 28 26  1  0  0  0  0
 28 24  1  0  0  0  0
 30 29  2  0  0  0  0
 31 32  1  0  0  0  0
 31 30  1  0  0  0  0
 32 33  1  0  0  0  0
 34 45  1  6  0  0  0
 34 38  1  0  0  0  0
 35 33  1  6  0  0  0
 35 34  1  0  0  0  0
 37 40  1  0  0  0  0
 37 41  1  0  0  0  0
 37 39  1  1  0  0  0
 40 43  1  6  0  0  0
 40 41  1  0  0  0  0
 41 38  1  1  0  0  0
 42 36  1  6  0  0  0
 42 37  1  0  0  0  0
 42 35  1  0  0  0  0
 44 43  1  0  0  0  0
 45 46  1  0  0  0  0
 47 48  1  0  0  0  0
 48 53  1  0  0  0  0
 49 54  1  0  0  0  0
 50 52  1  0  0  0  0
 51 49  1  0  0  0  0
 51 50  1  0  0  0  0
 53 51  2  0  0  0  0
 54 52  1  0  0  0  0
 56 50  1  0  0  0  0
 56 55  1  0  0  0  0
M  END
>  <MODEL>
6

>  <REMARK>
 VINA RESULT:      -6.4      4.570     11.471
  Name = 
  15 active torsions:
  status: ('A' for Active; 'I' for Inactive)
    1  A    between atoms: C_2  and  C_35
    2  A    between atoms: C_4  and  C_14
    3  A    between atoms: C_6  and  C_9
    4  A    between atoms: C_9  and  C_33
    5  A    between atoms: C_10  and  C_16
    6  A    between atoms: C_10  and  C_25
    7  A    between atoms: N_11  and  C_49
    8  A    between atoms: C_12  and  C_40
    9  A    between atoms: C_16  and  C_47
   10  A    between atoms: N_19  and  C_42
   11  A    between atoms: N_23  and  C_29
   12  A    between atoms: N_24  and  C_35
   13  A    between atoms: N_24  and  C_53
   14  A    between atoms: C_32  and  C_33
   15  A    between atoms: C_32  and  C_56
                            x       y       z     vdW  Elec       q    Type
                         _______ _______ _______ _____ _____    ______ ____

>  <TORSDO>
F 15

$$$$
=
 OpenBabel10222420543D

 56 63  0  0  1  0  0  0  0  0999 V2000
  185.1960  179.7160  146.0800 C   0  0  0  0  0  2  0  0  0  0  0  0
  186.2880  176.5780  144.9570 C   0  0  0  0  0  2  0  0  0  0  0  0
  189.5530  176.8900  142.0630 C   0  0  0  0  0  3  0  0  0  0  0  0
  186.2030  177.2800  143.6330 C   0  0  0  0  0  0  0  0  0  0  0  0
  188.5490  176.7710  142.9240 C   0  0  0  0  0  0  0  0  0  0  0  0
  186.5460  178.7730  139.3310 N   0  0  0  0  0  0  0  0  0  0  0  0
  186.5550  177.5020  146.1360 C   0  0  2  0  0  3  0  0  0  0  0  0
  185.3000  178.2680  146.5660 C   0  0  0  0  0  2  0  0  0  0  0  0
  184.8960  177.7870  143.0560 C   0  0  1  0  0  3  0  0  0  0  0  0
  189.6960  177.5980  140.7740 C   0  0  0  0  0  0  0  0  0  0  0  0
  185.3330  179.8820  144.5680 C   0  0  0  0  0  2  0  0  0  0  0  0
  188.7330  178.1570  140.1080 N   0  0  0  0  0  0  0  0  0  0  0  0
  184.3480  179.0550  143.7310 C   0  0  2  0  0  3  0  0  0  0  0  0
  188.8060  176.0230  144.0270 F   0  0  0  0  0  0  0  0  0  0  0  0
  184.5550  178.6380  140.6490 C   0  0  0  0  0  3  0  0  0  0  0  0
  185.3390  178.1350  141.6810 C   0  0  0  0  0  0  0  0  0  0  0  0
  186.6920  177.9270  141.5280 C   0  0  0  0  0  0  0  0  0  0  0  0
  187.3210  178.2640  140.3330 C   0  0  0  0  0  0  0  0  0  0  0  0
  187.2130  177.3560  142.7470 C   0  0  0  0  0  0  0  0  0  0  0  0
  185.2000  178.9540  139.4520 C   0  0  0  0  0  3  0  0  0  0  0  0
  191.3640  177.0230  139.1540 C   0  0  0  0  0  3  0  0  0  0  0  0
  191.0100  177.6900  140.2130 N   0  0  0  0  0  0  0  0  0  0  0  0
  192.7720  177.1010  138.6590 C   0  0  0  0  0  2  0  0  0  0  0  0
  192.8260  176.6080  137.2920 N   0  0  0  0  0  0  0  0  0  0  0  0
  194.1440  176.3980  137.0080 O   0  0  0  0  0  1  0  0  0  0  0  0
  191.7540  174.9690  135.8460 C   0  0  0  0  0  2  0  0  0  0  0  0
  190.7210  175.4970  136.8190 C   0  0  0  0  0  2  0  0  0  0  0  0
  192.1610  175.3160  137.2710 C   0  0  0  0  0  3  0  0  0  0  0  0
  182.9630  178.9110  144.2790 C   0  0  0  0  0  3  0  0  0  0  0  0
  181.9300  178.8230  143.4600 C   0  0  0  0  0  3  0  0  0  0  0  0
  180.5520  178.6660  144.0000 C   0  0  0  0  0  2  0  0  0  0  0  0
  179.6250  178.1800  142.9030 C   0  0  0  0  0  2  0  0  0  0  0  0
  180.4160  177.5740  141.7550 C   0  0  0  0  0  2  0  0  0  0  0  0
  179.1780  176.8860  139.5620 C   0  0  1  0  0  3  0  0  0  0  0  0
  179.8540  178.0350  140.4040 C   0  0  2  0  0  3  0  0  0  0  0  0
  181.2870  179.9720  140.2370 O   0  0  0  0  0  1  0  0  0  0  0  0
  180.2290  179.2090  138.2310 C   0  0  2  0  0  0  0  0  0  0  0  0
  178.9370  177.2680  138.2110 O   0  0  0  0  0  0  0  0  0  0  0  0
  178.9740  179.7910  138.4470 O   0  0  0  0  0  1  0  0  0  0  0  0
  180.2970  178.8140  136.7500 C   0  0  2  0  0  3  0  0  0  0  0  0
  180.1760  177.7370  137.7480 C   0  0  1  0  0  3  0  0  0  0  0  0
  180.8950  178.8230  139.5530 C   0  0  2  0  0  3  0  0  0  0  0  0
  181.6740  178.9170  136.2990 N   0  0  0  0  0  2  0  0  0  0  0  0
  181.6510  179.5620  135.1040 O   0  0  0  0  0  1  0  0  0  0  0  0
  179.8870  175.5260  139.6420 C   0  0  0  0  0  2  0  0  0  0  0  0
  179.3250  174.6660  138.6970 O   0  0  0  0  0  1  0  0  0  0  0  0
  187.8010  178.3730  145.9830 C   0  0  0  0  0  2  0  0  0  0  0  0
  188.8630  177.9700  146.9960 C   0  0  0  0  0  2  0  0  0  0  0  0
  191.3790  176.9980  148.6370 S   0  0  0  0  0  0  0  0  0  0  0  0
  192.1150  176.1710  146.1810 N   0  0  0  0  0  0  0  0  0  0  0  0
  191.0780  176.8370  146.8880 C   0  0  0  0  0  0  0  0  0  0  0  0
  193.1330  175.6150  147.0600 C   0  0  0  0  0  2  0  0  0  0  0  0
  189.9550  177.2410  146.2890 C   0  0  0  0  0  3  0  0  0  0  0  0
  192.5800  175.6210  148.4880 C   0  0  0  0  0  2  0  0  0  0  0  0
  191.8720  174.2890  144.6460 C   0  0  0  0  0  1  0  0  0  0  0  0
  192.0070  175.7950  144.7810 C   0  0  0  0  0  2  0  0  0  0  0  0
  1  8  1  0  0  0  0
  2  7  1  0  0  0  0
  3  5  2  0  0  0  0
  4  2  1  0  0  0  0
  5 14  1  0  0  0  0
  6 20  1  0  0  0  0
  6 18  2  0  0  0  0
  7 47  1  6  0  0  0
  7  8  1  0  0  0  0
  9 16  1  6  0  0  0
  9  4  1  0  0  0  0
  9 13  1  0  0  0  0
 10  3  1  0  0  0  0
 11  1  1  0  0  0  0
 12 18  1  0  0  0  0
 12 10  2  0  0  0  0
 13 29  1  1  0  0  0
 13 11  1  0  0  0  0
 15 16  1  0  0  0  0
 17 16  2  0  0  0  0
 17 19  1  0  0  0  0
 18 17  1  0  0  0  0
 19  5  1  0  0  0  0
 19  4  2  0  0  0  0
 20 15  2  0  0  0  0
 21 22  2  0  0  0  0
 22 10  1  0  0  0  0
 23 21  1  0  0  0  0
 24 23  1  0  0  0  0
 25 24  1  0  0  0  0
 26 27  1  0  0  0  0
 26 28  1  0  0  0  0
 27 28  1  0  0  0  0
 28 24  1  0  0  0  0
 30 31  1  0  0  0  0
 30 29  2  0  0  0  0
 32 31  1  0  0  0  0
 33 32  1  0  0  0  0
 34 45  1  6  0  0  0
 34 35  1  0  0  0  0
 35 33  1  1  0  0  0
 37 39  1  1  0  0  0
 37 42  1  0  0  0  0
 38 34  1  0  0  0  0
 40 43  1  1  0  0  0
 40 41  1  0  0  0  0
 40 37  1  0  0  0  0
 41 38  1  6  0  0  0
 41 37  1  0  0  0  0
 42 36  1  1  0  0  0
 42 35  1  0  0  0  0
 44 43  1  0  0  0  0
 46 45  1  0  0  0  0
 47 48  1  0  0  0  0
 50 51  1  0  0  0  0
 50 52  1  0  0  0  0
 51 49  1  0  0  0  0
 52 54  1  0  0  0  0
 53 51  2  0  0  0  0
 53 48  1  0  0  0  0
 54 49  1  0  0  0  0
 55 56  1  0  0  0  0
 56 50  1  0  0  0  0
M  END
>  <MODEL>
7

>  <REMARK>
 VINA RESULT:      -5.7      3.509      7.427
  Name = 
  15 active torsions:
  status: ('A' for Active; 'I' for Inactive)
    1  A    between atoms: C_2  and  C_35
    2  A    between atoms: C_4  and  C_14
    3  A    between atoms: C_6  and  C_9
    4  A    between atoms: C_9  and  C_33
    5  A    between atoms: C_10  and  C_16
    6  A    between atoms: C_10  and  C_25
    7  A    between atoms: N_11  and  C_49
    8  A    between atoms: C_12  and  C_40
    9  A    between atoms: C_16  and  C_47
   10  A    between atoms: N_19  and  C_42
   11  A    between atoms: N_23  and  C_29
   12  A    between atoms: N_24  and  C_35
   13  A    between atoms: N_24  and  C_53
   14  A    between atoms: C_32  and  C_33
   15  A    between atoms: C_32  and  C_56
                            x       y       z     vdW  Elec       q    Type
                         _______ _______ _______ _____ _____    ______ ____

>  <TORSDO>
F 15

$$$$
=
 OpenBabel10222420543D

 56 63  0  0  1  0  0  0  0  0999 V2000
  184.6040  176.0750  136.7120 C   0  0  0  0  0  2  0  0  0  0  0  0
  185.8590  179.0220  138.1410 C   0  0  0  0  0  2  0  0  0  0  0  0
  186.2230  178.7380  142.4900 C   0  0  0  0  0  3  0  0  0  0  0  0
  184.7210  178.7730  139.0870 C   0  0  0  0  0  0  0  0  0  0  0  0
  186.1020  178.8550  141.1730 C   0  0  0  0  0  0  0  0  0  0  0  0
  181.7500  178.5390  142.5470 N   0  0  0  0  0  0  0  0  0  0  0  0
  186.4170  177.7620  137.4940 C   0  0  2  0  0  3  0  0  0  0  0  0
  185.5220  177.2480  136.3620 C   0  0  0  0  0  2  0  0  0  0  0  0
  183.2700  178.8000  138.6500 C   0  0  1  0  0  3  0  0  0  0  0  0
  185.2610  178.4170  143.5650 C   0  0  0  0  0  0  0  0  0  0  0  0
  183.7070  176.3200  137.9230 C   0  0  0  0  0  2  0  0  0  0  0  0
  183.9740  178.3340  143.4280 N   0  0  0  0  0  0  0  0  0  0  0  0
  182.8240  177.5730  137.8370 C   0  0  2  0  0  3  0  0  0  0  0  0
  187.2410  179.1650  140.5030 F   0  0  0  0  0  0  0  0  0  0  0  0
  181.2320  178.7880  140.2250 C   0  0  0  0  0  3  0  0  0  0  0  0
  182.6000  178.7600  139.9750 C   0  0  0  0  0  0  0  0  0  0  0  0
  183.5210  178.6550  140.9940 C   0  0  0  0  0  0  0  0  0  0  0  0
  183.0950  178.5270  142.3120 C   0  0  0  0  0  0  0  0  0  0  0  0
  184.8470  178.7020  140.4240 C   0  0  0  0  0  0  0  0  0  0  0  0
  180.8240  178.6770  141.5560 C   0  0  0  0  0  3  0  0  0  0  0  0
  187.0260  177.7950  145.0610 C   0  0  0  0  0  3  0  0  0  0  0  0
  185.7920  178.1620  144.8700 N   0  0  0  0  0  0  0  0  0  0  0  0
  187.5020  177.4700  146.4400 C   0  0  0  0  0  2  0  0  0  0  0  0
  188.9200  177.1510  146.3930 N   0  0  0  0  0  0  0  0  0  0  0  0
  189.5580  178.2810  145.9730 O   0  0  0  0  0  1  0  0  0  0  0  0
  189.9430  178.1480  148.3640 C   0  0  0  0  0  2  0  0  0  0  0  0
  190.8570  177.0540  147.8510 C   0  0  0  0  0  2  0  0  0  0  0  0
  189.3490  176.8850  147.7560 C   0  0  0  0  0  3  0  0  0  0  0  0
  182.2570  177.8990  136.4910 C   0  0  0  0  0  3  0  0  0  0  0  0
  181.4260  178.9150  136.3480 C   0  0  0  0  0  3  0  0  0  0  0  0
  180.8700  179.2520  135.0100 C   0  0  0  0  0  2  0  0  0  0  0  0
  179.3710  179.4560  135.1150 C   0  0  0  0  0  2  0  0  0  0  0  0
  179.0030  180.0920  136.4450 C   0  0  0  0  0  2  0  0  0  0  0  0
  180.2800  181.4620  138.2640 C   0  0  1  0  0  3  0  0  0  0  0  0
  179.9090  181.2950  136.7410 C   0  0  2  0  0  3  0  0  0  0  0  0
  179.2790  182.5180  134.7560 O   0  0  0  0  0  1  0  0  0  0  0  0
  180.3310  183.7470  136.5180 C   0  0  2  0  0  0  0  0  0  0  0  0
  180.8610  182.7310  138.5500 O   0  0  0  0  0  0  0  0  0  0  0  0
  181.6550  183.3880  136.2340 O   0  0  0  0  0  1  0  0  0  0  0  0
  180.3820  184.9570  137.4600 C   0  0  2  0  0  3  0  0  0  0  0  0
  179.9560  183.6630  138.0200 C   0  0  1  0  0  3  0  0  0  0  0  0
  179.3610  182.6250  136.1430 C   0  0  2  0  0  3  0  0  0  0  0  0
  179.2210  185.7950  137.2120 N   0  0  0  0  0  2  0  0  0  0  0  0
  179.0550  186.5770  138.3090 O   0  0  0  0  0  1  0  0  0  0  0  0
  179.1440  181.1330  139.2440 C   0  0  0  0  0  2  0  0  0  0  0  0
  179.4410  181.6950  140.4880 O   0  0  0  0  0  1  0  0  0  0  0  0
  186.8560  176.6870  138.4870 C   0  0  0  0  0  2  0  0  0  0  0  0
  188.2850  176.2480  138.2030 C   0  0  0  0  0  2  0  0  0  0  0  0
  191.4200  176.1460  137.8440 S   0  0  0  0  0  0  0  0  0  0  0  0
  191.3010  177.0460  140.3810 N   0  0  0  0  0  0  0  0  0  0  0  0
  190.4940  176.6410  139.2850 C   0  0  0  0  0  0  0  0  0  0  0  0
  192.7150  177.1270  140.0440 C   0  0  0  0  0  2  0  0  0  0  0  0
  189.1610  176.6950  139.3250 C   0  0  0  0  0  3  0  0  0  0  0  0
  192.8400  177.0880  138.5180 C   0  0  0  0  0  2  0  0  0  0  0  0
  191.1270  176.7900  142.8020 C   0  0  0  0  0  1  0  0  0  0  0  0
  190.7570  177.6330  141.5940 C   0  0  0  0  0  2  0  0  0  0  0  0
  1 11  1  0  0  0  0
  2  4  1  0  0  0  0
  3 10  1  0  0  0  0
  4 19  2  0  0  0  0
  5  3  2  0  0  0  0
  7  2  1  0  0  0  0
  7 47  1  1  0  0  0
  8  1  1  0  0  0  0
  8  7  1  0  0  0  0
  9  4  1  1  0  0  0
  9 16  1  0  0  0  0
 10 22  1  0  0  0  0
 12 10  2  0  0  0  0
 13 29  1  6  0  0  0
 13 11  1  0  0  0  0
 13  9  1  0  0  0  0
 14  5  1  0  0  0  0
 15 20  2  0  0  0  0
 16 15  1  0  0  0  0
 16 17  2  0  0  0  0
 17 18  1  0  0  0  0
 18  6  2  0  0  0  0
 18 12  1  0  0  0  0
 19 17  1  0  0  0  0
 19  5  1  0  0  0  0
 20  6  1  0  0  0  0
 21 23  1  0  0  0  0
 22 21  2  0  0  0  0
 24 23  1  0  0  0  0
 24 28  1  0  0  0  0
 25 24  1  0  0  0  0
 27 26  1  0  0  0  0
 28 27  1  0  0  0  0
 28 26  1  0  0  0  0
 30 29  2  0  0  0  0
 31 32  1  0  0  0  0
 31 30  1  0  0  0  0
 32 33  1  0  0  0  0
 34 38  1  0  0  0  0
 34 45  1  1  0  0  0
 35 33  1  1  0  0  0
 35 34  1  0  0  0  0
 37 39  1  6  0  0  0
 37 40  1  0  0  0  0
 37 41  1  0  0  0  0
 40 43  1  6  0  0  0
 40 41  1  0  0  0  0
 41 38  1  1  0  0  0
 42 36  1  6  0  0  0
 42 37  1  0  0  0  0
 42 35  1  0  0  0  0
 43 44  1  0  0  0  0
 45 46  1  0  0  0  0
 48 47  1  0  0  0  0
 48 53  1  0  0  0  0
 49 54  1  0  0  0  0
 49 51  1  0  0  0  0
 50 56  1  0  0  0  0
 51 53  2  0  0  0  0
 51 50  1  0  0  0  0
 52 50  1  0  0  0  0
 54 52  1  0  0  0  0
 56 55  1  0  0  0  0
M  END
>  <MODEL>
8

>  <REMARK>
 VINA RESULT:      -5.5      2.845      4.480
  Name = 
  15 active torsions:
  status: ('A' for Active; 'I' for Inactive)
    1  A    between atoms: C_2  and  C_35
    2  A    between atoms: C_4  and  C_14
    3  A    between atoms: C_6  and  C_9
    4  A    between atoms: C_9  and  C_33
    5  A    between atoms: C_10  and  C_16
    6  A    between atoms: C_10  and  C_25
    7  A    between atoms: N_11  and  C_49
    8  A    between atoms: C_12  and  C_40
    9  A    between atoms: C_16  and  C_47
   10  A    between atoms: N_19  and  C_42
   11  A    between atoms: N_23  and  C_29
   12  A    between atoms: N_24  and  C_35
   13  A    between atoms: N_24  and  C_53
   14  A    between atoms: C_32  and  C_33
   15  A    between atoms: C_32  and  C_56
                            x       y       z     vdW  Elec       q    Type
                         _______ _______ _______ _____ _____    ______ ____

>  <TORSDO>
F 15

$$$$
=
 OpenBabel10222420543D

 56 63  0  0  1  0  0  0  0  0999 V2000
  185.6590  176.5780  135.1390 C   0  0  0  0  0  2  0  0  0  0  0  0
  187.4180  175.4170  137.9430 C   0  0  0  0  0  2  0  0  0  0  0  0
  191.4200  173.9810  136.9190 C   0  0  0  0  0  3  0  0  0  0  0  0
  187.7140  174.2870  137.0010 C   0  0  0  0  0  0  0  0  0  0  0  0
  190.2020  174.3920  137.2510 C   0  0  0  0  0  0  0  0  0  0  0  0
  189.3420  170.7050  134.6840 N   0  0  0  0  0  0  0  0  0  0  0  0
  187.1570  176.7490  137.2550 C   0  0  2  0  0  3  0  0  0  0  0  0
  185.7520  176.8210  136.6470 C   0  0  0  0  0  2  0  0  0  0  0  0
  186.6360  173.3720  136.4530 C   0  0  1  0  0  3  0  0  0  0  0  0
  191.9160  172.9650  135.9680 C   0  0  0  0  0  0  0  0  0  0  0  0
  186.2870  175.2650  134.6750 C   0  0  0  0  0  2  0  0  0  0  0  0
  191.1840  172.1010  135.3360 N   0  0  0  0  0  0  0  0  0  0  0  0
  185.7500  174.0050  135.3690 C   0  0  2  0  0  3  0  0  0  0  0  0
  190.1470  175.3740  138.1870 F   0  0  0  0  0  0  0  0  0  0  0  0
  187.0480  171.1790  135.1660 C   0  0  0  0  0  3  0  0  0  0  0  0
  187.4820  172.3250  135.8240 C   0  0  0  0  0  0  0  0  0  0  0  0
  188.8200  172.6350  135.9340 C   0  0  0  0  0  0  0  0  0  0  0  0
  189.7780  171.8190  135.3410 C   0  0  0  0  0  0  0  0  0  0  0  0
  188.9510  173.8480  136.7070 C   0  0  0  0  0  0  0  0  0  0  0  0
  188.0250  170.3630  134.5940 C   0  0  0  0  0  3  0  0  0  0  0  0
  194.1180  172.0690  136.2630 C   0  0  0  0  0  3  0  0  0  0  0  0
  193.3230  172.9370  135.7070 N   0  0  0  0  0  0  0  0  0  0  0  0
  195.5890  172.1360  136.0110 C   0  0  0  0  0  2  0  0  0  0  0  0
  196.2910  172.1830  137.2830 N   0  0  0  0  0  0  0  0  0  0  0  0
  195.7780  171.1750  138.0460 O   0  0  0  0  0  1  0  0  0  0  0  0
  198.5620  173.0510  137.4060 C   0  0  0  0  0  2  0  0  0  0  0  0
  198.2210  172.8070  135.9510 C   0  0  0  0  0  2  0  0  0  0  0  0
  197.6850  171.8680  137.0200 C   0  0  0  0  0  3  0  0  0  0  0  0
  184.2860  173.9880  135.6820 C   0  0  0  0  0  3  0  0  0  0  0  0
  183.8760  173.9020  136.9340 C   0  0  0  0  0  3  0  0  0  0  0  0
  182.4220  173.8990  137.2520 C   0  0  0  0  0  2  0  0  0  0  0  0
  181.9090  175.3250  137.3170 C   0  0  0  0  0  2  0  0  0  0  0  0
  182.4120  176.0240  138.5700 C   0  0  0  0  0  2  0  0  0  0  0  0
  182.2930  178.5590  139.1800 C   0  0  1  0  0  3  0  0  0  0  0  0
  181.5120  177.2130  138.9270 C   0  0  2  0  0  3  0  0  0  0  0  0
  179.6860  175.8530  139.7330 O   0  0  0  0  0  1  0  0  0  0  0  0
  179.7060  178.1580  140.3720 C   0  0  2  0  0  0  0  0  0  0  0  0
  181.4800  179.5560  139.7930 O   0  0  0  0  0  0  0  0  0  0  0  0
  179.1770  178.6870  139.1880 O   0  0  0  0  0  1  0  0  0  0  0  0
  179.5970  179.2490  141.4460 C   0  0  2  0  0  3  0  0  0  0  0  0
  180.9350  178.9270  140.9220 C   0  0  1  0  0  3  0  0  0  0  0  0
  180.5310  176.8990  140.0960 C   0  0  2  0  0  3  0  0  0  0  0  0
  179.4070  178.6180  142.7410 N   0  0  0  0  0  2  0  0  0  0  0  0
  179.1710  179.6130  143.6340 O   0  0  0  0  0  1  0  0  0  0  0  0
  183.6310  178.3990  139.9160 C   0  0  0  0  0  2  0  0  0  0  0  0
  184.2180  179.6570  140.0700 O   0  0  0  0  0  1  0  0  0  0  0  0
  188.2730  177.2000  136.3130 C   0  0  0  0  0  2  0  0  0  0  0  0
  188.9900  178.4170  136.8780 C   0  0  0  0  0  2  0  0  0  0  0  0
  188.3670  178.2680  139.9700 S   0  0  0  0  0  0  0  0  0  0  0  0
  190.9480  177.4990  140.0090 N   0  0  0  0  0  0  0  0  0  0  0  0
  189.9030  177.9110  139.1400 C   0  0  0  0  0  0  0  0  0  0  0  0
  190.5000  177.2970  141.3790 C   0  0  0  0  0  2  0  0  0  0  0  0
  190.0570  177.9580  137.8150 C   0  0  0  0  0  3  0  0  0  0  0  0
  188.9690  177.2550  141.3740 C   0  0  0  0  0  2  0  0  0  0  0  0
  193.3430  177.4340  140.4770 C   0  0  0  0  0  1  0  0  0  0  0  0
  192.2330  177.0110  139.5320 C   0  0  0  0  0  2  0  0  0  0  0  0
  1  8  1  0  0  0  0
  3  5  2  0  0  0  0
  4  2  1  0  0  0  0
  5 14  1  0  0  0  0
  6 18  2  0  0  0  0
  7 47  1  6  0  0  0
  7  2  1  0  0  0  0
  8  7  1  0  0  0  0
  9 16  1  6  0  0  0
  9  4  1  0  0  0  0
 10  3  1  0  0  0  0
 11  1  1  0  0  0  0
 11 13  1  0  0  0  0
 12 18  1  0  0  0  0
 12 10  2  0  0  0  0
 13 29  1  1  0  0  0
 13  9  1  0  0  0  0
 15 16  1  0  0  0  0
 16 17  2  0  0  0  0
 17 19  1  0  0  0  0
 18 17  1  0  0  0  0
 19  4  2  0  0  0  0
 19  5  1  0  0  0  0
 20  6  1  0  0  0  0
 20 15  2  0  0  0  0
 22 10  1  0  0  0  0
 22 21  2  0  0  0  0
 23 21  1  0  0  0  0
 23 24  1  0  0  0  0
 24 25  1  0  0  0  0
 27 28  1  0  0  0  0
 27 26  1  0  0  0  0
 28 24  1  0  0  0  0
 28 26  1  0  0  0  0
 29 30  2  0  0  0  0
 30 31  1  0  0  0  0
 31 32  1  0  0  0  0
 32 33  1  0  0  0  0
 34 38  1  0  0  0  0
 34 45  1  1  0  0  0
 35 33  1  1  0  0  0
 35 34  1  0  0  0  0
 35 42  1  0  0  0  0
 37 39  1  6  0  0  0
 37 41  1  0  0  0  0
 37 40  1  0  0  0  0
 40 43  1  1  0  0  0
 41 38  1  6  0  0  0
 41 40  1  0  0  0  0
 42 36  1  6  0  0  0
 42 37  1  0  0  0  0
 43 44  1  0  0  0  0
 45 46  1  0  0  0  0
 47 48  1  0  0  0  0
 48 53  1  0  0  0  0
 49 54  1  0  0  0  0
 50 52  1  0  0  0  0
 51 49  1  0  0  0  0
 51 50  1  0  0  0  0
 53 51  2  0  0  0  0
 54 52  1  0  0  0  0
 56 50  1  0  0  0  0
 56 55  1  0  0  0  0
M  END
>  <MODEL>
9

>  <REMARK>
 VINA RESULT:      -5.0      3.066      6.537
  Name = 
  15 active torsions:
  status: ('A' for Active; 'I' for Inactive)
    1  A    between atoms: C_2  and  C_35
    2  A    between atoms: C_4  and  C_14
    3  A    between atoms: C_6  and  C_9
    4  A    between atoms: C_9  and  C_33
    5  A    between atoms: C_10  and  C_16
    6  A    between atoms: C_10  and  C_25
    7  A    between atoms: N_11  and  C_49
    8  A    between atoms: C_12  and  C_40
    9  A    between atoms: C_16  and  C_47
   10  A    between atoms: N_19  and  C_42
   11  A    between atoms: N_23  and  C_29
   12  A    between atoms: N_24  and  C_35
   13  A    between atoms: N_24  and  C_53
   14  A    between atoms: C_32  and  C_33
   15  A    between atoms: C_32  and  C_56
                            x       y       z     vdW  Elec       q    Type
                         _______ _______ _______ _____ _____    ______ ____

>  <TORSDO>
F 15

$$$$
