=
 OpenBabel10222418013D

 35 39  0  0  1  0  0  0  0  0999 V2000
  185.8810  178.4880  139.7670 N   0  0  0  0  0  0  0  0  0  0  0  0
  185.1790  178.4990  140.9360 C   0  0  0  0  0  0  0  0  0  0  0  0
  187.2710  178.3130  142.1370 C   0  0  0  0  0  3  0  0  0  0  0  0
  185.1540  178.4370  143.3930 C   0  0  0  0  0  0  0  0  0  0  0  0
  183.7620  178.5930  143.3480 C   0  0  0  0  0  3  0  0  0  0  0  0
  187.9560  178.2970  140.9240 C   0  0  0  0  0  3  0  0  0  0  0  0
  183.0850  178.6890  142.1350 C   0  0  0  0  0  3  0  0  0  0  0  0
  183.7750  178.6380  140.9210 C   0  0  0  0  0  0  0  0  0  0  0  0
  185.8730  178.4020  142.1720 C   0  0  0  0  0  0  0  0  0  0  0  0
  187.2360  178.3710  139.7320 C   0  0  0  0  0  0  0  0  0  0  0  0
  180.8780  179.0390  136.0070 N   0  0  0  0  0  1  0  0  0  0  0  0
  182.6110  177.5520  138.9500 C   0  0  0  0  0  0  0  0  0  0  0  0
  182.8830  176.2510  139.4620 N   0  0  0  0  0  1  0  0  0  0  0  0
  182.6870  179.9720  139.1190 C   0  0  0  0  0  3  0  0  0  0  0  0
  181.9060  177.6700  137.7470 C   0  0  0  0  0  3  0  0  0  0  0  0
  181.9840  180.0800  137.9180 C   0  0  0  0  0  3  0  0  0  0  0  0
  183.0080  178.7130  139.6520 C   0  0  0  0  0  0  0  0  0  0  0  0
  181.5950  178.9290  137.2310 C   0  0  0  0  0  0  0  0  0  0  0  0
  185.7890  178.6980  147.1360 C   0  0  0  0  0  3  0  0  0  0  0  0
  185.7990  178.3220  144.7300 C   0  0  0  0  0  0  0  0  0  0  0  0
  187.0690  178.1490  147.2340 C   0  0  0  0  0  3  0  0  0  0  0  0
  187.0910  177.7830  144.8420 C   0  0  0  0  0  3  0  0  0  0  0  0
  185.1610  178.7880  145.8920 C   0  0  0  0  0  3  0  0  0  0  0  0
  187.7280  177.6930  146.0840 C   0  0  0  0  0  0  0  0  0  0  0  0
  189.9570  177.7350  145.2690 O   0  0  0  0  0  1  0  0  0  0  0  0
  189.0960  177.0970  146.1630 C   0  0  1  0  0  3  0  0  0  0  0  0
  189.6480  177.2020  147.5730 C   0  0  0  0  0  1  0  0  0  0  0  0
  187.2390  177.5390  137.3950 C   0  0  0  0  0  2  0  0  0  0  0  0
  187.9590  178.3950  138.4220 C   0  0  2  0  0  3  0  0  0  0  0  0
  188.4680  177.0020  138.0910 C   0  0  2  0  0  3  0  0  0  0  0  0
  189.6110  177.1140  137.2020 N   0  0  0  0  0  2  0  0  0  0  0  0
  190.4590  176.0360  137.4920 N   0  0  0  0  0  0  0  0  0  0  0  0
  190.4700  175.9030  138.8390 O   0  0  0  0  0  1  0  0  0  0  0  0
  192.4560  176.3510  138.3010 C   0  0  0  0  0  1  0  0  0  0  0  0
  191.7070  176.4110  137.1250 O   0  0  0  0  0  0  0  0  0  0  0  0
  1  2  1  0  0  0  0
  2  9  1  0  0  0  0
  3  9  1  0  0  0  0
  4 20  1  0  0  0  0
  5  4  1  0  0  0  0
  6  3  2  0  0  0  0
  7  5  2  0  0  0  0
  8  2  2  0  0  0  0
  8  7  1  0  0  0  0
  9  4  2  0  0  0  0
 10  1  2  0  0  0  0
 10  6  1  0  0  0  0
 11 18  1  0  0  0  0
 12 13  1  0  0  0  0
 12 17  1  0  0  0  0
 14 17  2  0  0  0  0
 15 12  2  0  0  0  0
 16 14  1  0  0  0  0
 17  8  1  0  0  0  0
 18 15  1  0  0  0  0
 18 16  2  0  0  0  0
 19 21  1  0  0  0  0
 20 22  2  0  0  0  0
 20 23  1  0  0  0  0
 22 24  1  0  0  0  0
 23 19  2  0  0  0  0
 24 26  1  0  0  0  0
 24 21  2  0  0  0  0
 25 26  1  0  0  0  0
 26 27  1  1  0  0  0
 28 30  1  0  0  0  0
 28 29  1  0  0  0  0
 29 10  1  1  0  0  0
 30 31  1  6  0  0  0
 30 29  1  0  0  0  0
 31 32  1  0  0  0  0
 32 33  1  0  0  0  0
 35 32  1  0  0  0  0
 35 34  1  0  0  0  0
M  END
>  <MODEL>
1

>  <REMARK>
 VINA RESULT:      -9.3      0.000      0.000
  Name = 
  7 active torsions:
  status: ('A' for Active; 'I' for Inactive)
    1  A    between atoms: C_8  and  C_33
    2  A    between atoms: C_10  and  C_11
    3  A    between atoms: C_13  and  C_32
    4  A    between atoms: N_22  and  O_28
    5  A    between atoms: N_22  and  N_34
    6  A    between atoms: C_23  and  C_31
    7  A    between atoms: C_27  and  N_34
                            x       y       z     vdW  Elec       q    Type
                         _______ _______ _______ _____ _____    ______ ____

>  <TORSDO>
F 7

$$$$
=
 OpenBabel10222418013D

 35 39  0  0  1  0  0  0  0  0999 V2000
  186.9830  178.4220  140.7900 N   0  0  0  0  0  0  0  0  0  0  0  0
  186.4960  178.3330  142.0600 C   0  0  0  0  0  0  0  0  0  0  0  0
  188.7450  177.9060  142.8420 C   0  0  0  0  0  3  0  0  0  0  0  0
  186.8900  177.9910  144.4620 C   0  0  0  0  0  0  0  0  0  0  0  0
  185.5250  178.2210  144.6820 C   0  0  0  0  0  3  0  0  0  0  0  0
  189.2080  177.9950  141.5310 C   0  0  0  0  0  3  0  0  0  0  0  0
  184.6580  178.4890  143.6280 C   0  0  0  0  0  3  0  0  0  0  0  0
  185.1230  178.5440  142.3110 C   0  0  0  0  0  0  0  0  0  0  0  0
  187.3830  178.0600  143.1350 C   0  0  0  0  0  0  0  0  0  0  0  0
  188.3010  178.2420  140.5010 C   0  0  0  0  0  0  0  0  0  0  0  0
  181.4820  179.4840  138.0030 N   0  0  0  0  0  1  0  0  0  0  0  0
  182.7600  178.8140  141.4360 C   0  0  0  0  0  0  0  0  0  0  0  0
  182.2200  178.6340  142.7420 N   0  0  0  0  0  1  0  0  0  0  0  0
  184.6380  179.0160  139.9130 C   0  0  0  0  0  3  0  0  0  0  0  0
  181.8850  179.0420  140.3690 C   0  0  0  0  0  3  0  0  0  0  0  0
  183.7570  179.2410  138.8530 C   0  0  0  0  0  3  0  0  0  0  0  0
  184.1560  178.8020  141.2140 C   0  0  0  0  0  0  0  0  0  0  0  0
  182.3800  179.2530  139.0820 C   0  0  0  0  0  0  0  0  0  0  0  0
  188.0530  177.4850  148.0500 C   0  0  0  0  0  3  0  0  0  0  0  0
  187.7460  177.6910  145.6430 C   0  0  0  0  0  0  0  0  0  0  0  0
  189.4020  177.1820  147.8580 C   0  0  0  0  0  3  0  0  0  0  0  0
  189.1080  177.3970  145.4650 C   0  0  0  0  0  3  0  0  0  0  0  0
  187.2320  177.7420  146.9490 C   0  0  0  0  0  3  0  0  0  0  0  0
  189.9360  177.1410  146.5630 C   0  0  0  0  0  0  0  0  0  0  0  0
  191.7790  175.7720  147.1660 O   0  0  0  0  0  1  0  0  0  0  0  0
  191.3760  176.8150  146.3310 C   0  0  1  0  0  3  0  0  0  0  0  0
  191.6150  176.4350  144.8820 C   0  0  0  0  0  1  0  0  0  0  0  0
  187.7680  177.8220  138.1150 C   0  0  0  0  0  2  0  0  0  0  0  0
  188.7870  178.3800  139.0920 C   0  0  2  0  0  3  0  0  0  0  0  0
  188.9850  177.0030  138.4800 C   0  0  2  0  0  3  0  0  0  0  0  0
  189.9640  177.0950  137.4120 N   0  0  0  0  0  2  0  0  0  0  0  0
  190.6910  175.8960  137.4230 N   0  0  0  0  0  0  0  0  0  0  0  0
  190.8220  175.5340  138.7210 O   0  0  0  0  0  1  0  0  0  0  0  0
  192.6990  176.3650  138.1260 C   0  0  0  0  0  1  0  0  0  0  0  0
  191.9340  176.1890  136.9720 O   0  0  0  0  0  0  0  0  0  0  0  0
  1  2  1  0  0  0  0
  2  8  2  0  0  0  0
  2  9  1  0  0  0  0
  3  9  1  0  0  0  0
  4  5  1  0  0  0  0
  4 20  1  0  0  0  0
  6  3  2  0  0  0  0
  7  5  2  0  0  0  0
  8  7  1  0  0  0  0
  9  4  2  0  0  0  0
 10  1  2  0  0  0  0
 10  6  1  0  0  0  0
 11 18  1  0  0  0  0
 12 13  1  0  0  0  0
 14 17  2  0  0  0  0
 15 12  2  0  0  0  0
 16 18  2  0  0  0  0
 16 14  1  0  0  0  0
 17 12  1  0  0  0  0
 17  8  1  0  0  0  0
 18 15  1  0  0  0  0
 20 23  1  0  0  0  0
 21 19  1  0  0  0  0
 22 20  2  0  0  0  0
 22 24  1  0  0  0  0
 23 19  2  0  0  0  0
 24 21  2  0  0  0  0
 26 27  1  6  0  0  0
 26 24  1  0  0  0  0
 26 25  1  0  0  0  0
 28 30  1  0  0  0  0
 28 29  1  0  0  0  0
 29 10  1  1  0  0  0
 30 31  1  6  0  0  0
 30 29  1  0  0  0  0
 31 32  1  0  0  0  0
 32 33  1  0  0  0  0
 35 32  1  0  0  0  0
 35 34  1  0  0  0  0
M  END
>  <MODEL>
2

>  <REMARK>
 VINA RESULT:      -9.1      1.402      2.110
  Name = 
  7 active torsions:
  status: ('A' for Active; 'I' for Inactive)
    1  A    between atoms: C_8  and  C_33
    2  A    between atoms: C_10  and  C_11
    3  A    between atoms: C_13  and  C_32
    4  A    between atoms: N_22  and  O_28
    5  A    between atoms: N_22  and  N_34
    6  A    between atoms: C_23  and  C_31
    7  A    between atoms: C_27  and  N_34
                            x       y       z     vdW  Elec       q    Type
                         _______ _______ _______ _____ _____    ______ ____

>  <TORSDO>
F 7

$$$$
=
 OpenBabel10222418013D

 35 39  0  0  1  0  0  0  0  0999 V2000
  188.4210  177.8450  142.7440 N   0  0  0  0  0  0  0  0  0  0  0  0
  187.2960  177.9260  143.5100 C   0  0  0  0  0  0  0  0  0  0  0  0
  186.0350  178.4540  141.5130 C   0  0  0  0  0  3  0  0  0  0  0  0
  184.8740  178.3090  143.6820 C   0  0  0  0  0  0  0  0  0  0  0  0
  184.9620  178.0260  145.0510 C   0  0  0  0  0  3  0  0  0  0  0  0
  187.2060  178.3710  140.7620 C   0  0  0  0  0  3  0  0  0  0  0  0
  186.1800  177.7110  145.6470 C   0  0  0  0  0  3  0  0  0  0  0  0
  187.3570  177.6620  144.8940 C   0  0  0  0  0  0  0  0  0  0  0  0
  186.0540  178.2470  142.8990 C   0  0  0  0  0  0  0  0  0  0  0  0
  188.4100  178.0770  141.4040 C   0  0  0  0  0  0  0  0  0  0  0  0
  192.3560  176.5110  147.4210 N   0  0  0  0  0  1  0  0  0  0  0  0
  188.7860  177.4750  146.9790 C   0  0  0  0  0  0  0  0  0  0  0  0
  187.6880  177.8470  147.8060 N   0  0  0  0  0  1  0  0  0  0  0  0
  189.7440  176.9530  144.8110 C   0  0  0  0  0  3  0  0  0  0  0  0
  190.0180  177.1930  147.5780 C   0  0  0  0  0  3  0  0  0  0  0  0
  190.9700  176.6740  145.4180 C   0  0  0  0  0  3  0  0  0  0  0  0
  188.6380  177.3540  145.5780 C   0  0  0  0  0  0  0  0  0  0  0  0
  191.1070  176.7960  146.8020 C   0  0  0  0  0  0  0  0  0  0  0  0
  181.1860  179.2150  143.4340 C   0  0  0  0  0  3  0  0  0  0  0  0
  183.5360  178.6560  143.1270 C   0  0  0  0  0  0  0  0  0  0  0  0
  181.0060  179.2450  142.0500 C   0  0  0  0  0  3  0  0  0  0  0  0
  183.3380  178.6770  141.7370 C   0  0  0  0  0  3  0  0  0  0  0  0
  182.4420  178.9180  143.9680 C   0  0  0  0  0  3  0  0  0  0  0  0
  182.0820  178.9710  141.1950 C   0  0  0  0  0  0  0  0  0  0  0  0
  180.8350  179.8100  139.3570 O   0  0  0  0  0  1  0  0  0  0  0  0
  181.9160  179.0020  139.7100 C   0  0  1  0  0  3  0  0  0  0  0  0
  183.1780  179.5080  139.0370 C   0  0  0  0  0  1  0  0  0  0  0  0
  189.4060  178.2160  139.1370 C   0  0  0  0  0  2  0  0  0  0  0  0
  189.6690  177.9450  140.6070 C   0  0  2  0  0  3  0  0  0  0  0  0
  189.5380  176.7920  139.6250 C   0  0  2  0  0  3  0  0  0  0  0  0
  190.8620  176.2930  139.3010 N   0  0  0  0  0  2  0  0  0  0  0  0
  190.7940  175.7780  137.9980 N   0  0  0  0  0  0  0  0  0  0  0  0
  191.2370  174.5000  138.0630 O   0  0  0  0  0  1  0  0  0  0  0  0
  192.8770  176.4130  137.9980 C   0  0  0  0  0  1  0  0  0  0  0  0
  191.6950  176.4660  137.2580 O   0  0  0  0  0  0  0  0  0  0  0  0
  1  2  1  0  0  0  0
  2  8  1  0  0  0  0
  3  9  1  0  0  0  0
  4  5  2  0  0  0  0
  5  7  1  0  0  0  0
  6 10  1  0  0  0  0
  6  3  2  0  0  0  0
  8 17  1  0  0  0  0
  8  7  2  0  0  0  0
  9  2  2  0  0  0  0
  9  4  1  0  0  0  0
 10  1  2  0  0  0  0
 12 15  1  0  0  0  0
 12 13  1  0  0  0  0
 14 16  2  0  0  0  0
 14 17  1  0  0  0  0
 16 18  1  0  0  0  0
 17 12  2  0  0  0  0
 18 11  1  0  0  0  0
 18 15  2  0  0  0  0
 19 23  1  0  0  0  0
 20  4  1  0  0  0  0
 20 23  2  0  0  0  0
 21 19  2  0  0  0  0
 22 20  1  0  0  0  0
 24 22  2  0  0  0  0
 24 21  1  0  0  0  0
 25 26  1  0  0  0  0
 26 27  1  6  0  0  0
 26 24  1  0  0  0  0
 28 30  1  0  0  0  0
 28 29  1  0  0  0  0
 29 10  1  1  0  0  0
 30 31  1  6  0  0  0
 30 29  1  0  0  0  0
 32 33  1  0  0  0  0
 32 31  1  0  0  0  0
 35 34  1  0  0  0  0
 35 32  1  0  0  0  0
M  END
>  <MODEL>
3

>  <REMARK>
 VINA RESULT:      -9.0      3.142      7.144
  Name = 
  7 active torsions:
  status: ('A' for Active; 'I' for Inactive)
    1  A    between atoms: C_8  and  C_33
    2  A    between atoms: C_10  and  C_11
    3  A    between atoms: C_13  and  C_32
    4  A    between atoms: N_22  and  O_28
    5  A    between atoms: N_22  and  N_34
    6  A    between atoms: C_23  and  C_31
    7  A    between atoms: C_27  and  N_34
                            x       y       z     vdW  Elec       q    Type
                         _______ _______ _______ _____ _____    ______ ____

>  <TORSDO>
F 7

$$$$
=
 OpenBabel10222418013D

 35 39  0  0  1  0  0  0  0  0999 V2000
  187.3030  178.1880  140.5870 N   0  0  0  0  0  0  0  0  0  0  0  0
  188.4840  177.7650  141.1230 C   0  0  0  0  0  0  0  0  0  0  0  0
  187.5090  177.9990  143.3260 C   0  0  0  0  0  3  0  0  0  0  0  0
  189.8320  177.2060  143.1010 C   0  0  0  0  0  0  0  0  0  0  0  0
  190.8730  176.8310  142.2410 C   0  0  0  0  0  3  0  0  0  0  0  0
  186.3200  178.4340  142.7440 C   0  0  0  0  0  3  0  0  0  0  0  0
  190.7390  176.9280  140.8590 C   0  0  0  0  0  3  0  0  0  0  0  0
  189.5550  177.3970  140.2830 C   0  0  0  0  0  0  0  0  0  0  0  0
  188.6170  177.6670  142.5340 C   0  0  0  0  0  0  0  0  0  0  0  0
  186.2370  178.5390  141.3550 C   0  0  0  0  0  0  0  0  0  0  0  0
  189.2410  177.9720  134.6020 N   0  0  0  0  0  1  0  0  0  0  0  0
  189.8830  176.4680  137.9480 C   0  0  0  0  0  0  0  0  0  0  0  0
  190.3510  175.2280  138.4700 N   0  0  0  0  0  1  0  0  0  0  0  0
  188.9860  178.7040  138.2390 C   0  0  0  0  0  3  0  0  0  0  0  0
  189.8020  176.6290  136.5610 C   0  0  0  0  0  3  0  0  0  0  0  0
  188.9100  178.8560  136.8540 C   0  0  0  0  0  3  0  0  0  0  0  0
  189.4690  177.5130  138.8050 C   0  0  0  0  0  0  0  0  0  0  0  0
  189.3190  177.8180  136.0140 C   0  0  0  0  0  0  0  0  0  0  0  0
  191.5210  176.6170  146.4600 C   0  0  0  0  0  3  0  0  0  0  0  0
  190.0640  177.0910  144.5670 C   0  0  0  0  0  0  0  0  0  0  0  0
  190.4550  176.8180  147.3390 C   0  0  0  0  0  3  0  0  0  0  0  0
  188.9970  177.2780  145.4620 C   0  0  0  0  0  3  0  0  0  0  0  0
  191.3250  176.7490  145.0830 C   0  0  0  0  0  3  0  0  0  0  0  0
  189.1860  177.1450  146.8420 C   0  0  0  0  0  0  0  0  0  0  0  0
  188.4380  178.0830  148.8910 O   0  0  0  0  0  1  0  0  0  0  0  0
  188.0310  177.3690  147.7630 C   0  0  1  0  0  3  0  0  0  0  0  0
  186.9160  178.1170  147.0550 C   0  0  0  0  0  1  0  0  0  0  0  0
  183.7740  178.6610  141.6150 C   0  0  0  0  0  2  0  0  0  0  0  0
  184.9550  178.9670  140.7130 C   0  0  2  0  0  3  0  0  0  0  0  0
  184.0830  177.7520  140.4470 C   0  0  2  0  0  3  0  0  0  0  0  0
  183.1760  178.0490  139.3530 N   0  0  0  0  0  2  0  0  0  0  0  0
  182.8660  176.8280  138.7390 N   0  0  0  0  0  0  0  0  0  0  0  0
  182.6210  175.9440  139.7350 O   0  0  0  0  0  1  0  0  0  0  0  0
  183.6570  175.1660  137.5740 C   0  0  0  0  0  1  0  0  0  0  0  0
  183.9920  176.4090  138.1140 O   0  0  0  0  0  0  0  0  0  0  0  0
  1  2  2  0  0  0  0
  1 10  1  0  0  0  0
  2  9  1  0  0  0  0
  4 20  1  0  0  0  0
  5  4  2  0  0  0  0
  6  3  1  0  0  0  0
  7  5  1  0  0  0  0
  8  7  2  0  0  0  0
  8  2  1  0  0  0  0
  9  4  1  0  0  0  0
  9  3  2  0  0  0  0
 10  6  2  0  0  0  0
 11 18  1  0  0  0  0
 12 13  1  0  0  0  0
 12 17  1  0  0  0  0
 14 17  2  0  0  0  0
 15 12  2  0  0  0  0
 16 14  1  0  0  0  0
 17  8  1  0  0  0  0
 18 15  1  0  0  0  0
 18 16  2  0  0  0  0
 19 21  1  0  0  0  0
 20 23  1  0  0  0  0
 20 22  2  0  0  0  0
 22 24  1  0  0  0  0
 23 19  2  0  0  0  0
 24 21  2  0  0  0  0
 24 26  1  0  0  0  0
 26 27  1  6  0  0  0
 26 25  1  0  0  0  0
 29 10  1  1  0  0  0
 29 28  1  0  0  0  0
 30 31  1  6  0  0  0
 30 29  1  0  0  0  0
 30 28  1  0  0  0  0
 32 31  1  0  0  0  0
 32 33  1  0  0  0  0
 34 35  1  0  0  0  0
 35 32  1  0  0  0  0
M  END
>  <MODEL>
4

>  <REMARK>
 VINA RESULT:      -8.8      2.665      5.829
  Name = 
  7 active torsions:
  status: ('A' for Active; 'I' for Inactive)
    1  A    between atoms: C_8  and  C_33
    2  A    between atoms: C_10  and  C_11
    3  A    between atoms: C_13  and  C_32
    4  A    between atoms: N_22  and  O_28
    5  A    between atoms: N_22  and  N_34
    6  A    between atoms: C_23  and  C_31
    7  A    between atoms: C_27  and  N_34
                            x       y       z     vdW  Elec       q    Type
                         _______ _______ _______ _____ _____    ______ ____

>  <TORSDO>
F 7

$$$$
=
 OpenBabel10222418013D

 35 39  0  0  1  0  0  0  0  0999 V2000
  186.7920  178.4840  142.8890 N   0  0  0  0  0  0  0  0  0  0  0  0
  185.5730  178.5530  143.4960 C   0  0  0  0  0  0  0  0  0  0  0  0
  184.5730  178.9520  141.3290 C   0  0  0  0  0  3  0  0  0  0  0  0
  183.1380  178.8520  143.3300 C   0  0  0  0  0  0  0  0  0  0  0  0
  183.0530  178.6270  144.7110 C   0  0  0  0  0  3  0  0  0  0  0  0
  185.8350  178.8830  140.7430 C   0  0  0  0  0  3  0  0  0  0  0  0
  184.1900  178.3830  145.4750 C   0  0  0  0  0  3  0  0  0  0  0  0
  185.4580  178.3480  144.8870 C   0  0  0  0  0  0  0  0  0  0  0  0
  184.4140  178.8020  142.7130 C   0  0  0  0  0  0  0  0  0  0  0  0
  186.9510  178.6600  141.5500 C   0  0  0  0  0  0  0  0  0  0  0  0
  190.1070  177.4440  148.0900 N   0  0  0  0  0  1  0  0  0  0  0  0
  186.7470  178.6620  147.0460 C   0  0  0  0  0  0  0  0  0  0  0  0
  185.6800  179.4180  147.6120 N   0  0  0  0  0  1  0  0  0  0  0  0
  187.7120  177.3510  145.2470 C   0  0  0  0  0  3  0  0  0  0  0  0
  187.8930  178.4330  147.8130 C   0  0  0  0  0  3  0  0  0  0  0  0
  188.8540  177.1280  146.0190 C   0  0  0  0  0  3  0  0  0  0  0  0
  186.6450  178.1150  145.7460 C   0  0  0  0  0  0  0  0  0  0  0  0
  188.9450  177.6710  147.3020 C   0  0  0  0  0  0  0  0  0  0  0  0
  179.5910  179.9650  142.5170 C   0  0  0  0  0  3  0  0  0  0  0  0
  181.8760  179.1260  142.5900 C   0  0  0  0  0  0  0  0  0  0  0  0
  179.4830  179.5720  141.1820 C   0  0  0  0  0  3  0  0  0  0  0  0
  181.7480  178.7240  141.2500 C   0  0  0  0  0  3  0  0  0  0  0  0
  180.7790  179.7390  143.2170 C   0  0  0  0  0  3  0  0  0  0  0  0
  180.5610  178.9450  140.5440 C   0  0  0  0  0  0  0  0  0  0  0  0
  180.0310  179.5770  138.3180 O   0  0  0  0  0  1  0  0  0  0  0  0
  180.4700  178.5190  139.1140 C   0  0  1  0  0  3  0  0  0  0  0  0
  181.8140  178.0220  138.6150 C   0  0  0  0  0  1  0  0  0  0  0  0
  188.3090  177.5030  139.8260 C   0  0  0  0  0  2  0  0  0  0  0  0
  188.3090  178.5430  140.9320 C   0  0  2  0  0  3  0  0  0  0  0  0
  188.8710  177.1540  141.1850 C   0  0  2  0  0  3  0  0  0  0  0  0
  190.3210  177.2130  141.1350 N   0  0  0  0  0  2  0  0  0  0  0  0
  190.7980  176.2580  142.0430 N   0  0  0  0  0  0  0  0  0  0  0  0
  189.7120  175.7220  142.6480 O   0  0  0  0  0  1  0  0  0  0  0  0
  191.6810  176.0030  144.0170 C   0  0  0  0  0  1  0  0  0  0  0  0
  191.4830  176.9330  142.9970 O   0  0  0  0  0  0  0  0  0  0  0  0
  1  2  1  0  0  0  0
  2  8  1  0  0  0  0
  3  9  1  0  0  0  0
  4  5  2  0  0  0  0
  5  7  1  0  0  0  0
  6  3  2  0  0  0  0
  6 10  1  0  0  0  0
  8  7  2  0  0  0  0
  8 17  1  0  0  0  0
  9  4  1  0  0  0  0
  9  2  2  0  0  0  0
 10  1  2  0  0  0  0
 12 13  1  0  0  0  0
 12 15  1  0  0  0  0
 14 17  1  0  0  0  0
 14 16  2  0  0  0  0
 16 18  1  0  0  0  0
 17 12  2  0  0  0  0
 18 15  2  0  0  0  0
 18 11  1  0  0  0  0
 19 23  1  0  0  0  0
 20 23  2  0  0  0  0
 20  4  1  0  0  0  0
 21 19  2  0  0  0  0
 22 20  1  0  0  0  0
 24 21  1  0  0  0  0
 24 22  2  0  0  0  0
 25 26  1  0  0  0  0
 26 27  1  6  0  0  0
 26 24  1  0  0  0  0
 28 29  1  0  0  0  0
 28 30  1  0  0  0  0
 29 30  1  0  0  0  0
 29 10  1  1  0  0  0
 30 31  1  6  0  0  0
 31 32  1  0  0  0  0
 32 33  1  0  0  0  0
 32 35  1  0  0  0  0
 35 34  1  0  0  0  0
M  END
>  <MODEL>
5

>  <REMARK>
 VINA RESULT:      -8.7      3.464      7.380
  Name = 
  7 active torsions:
  status: ('A' for Active; 'I' for Inactive)
    1  A    between atoms: C_8  and  C_33
    2  A    between atoms: C_10  and  C_11
    3  A    between atoms: C_13  and  C_32
    4  A    between atoms: N_22  and  O_28
    5  A    between atoms: N_22  and  N_34
    6  A    between atoms: C_23  and  C_31
    7  A    between atoms: C_27  and  N_34
                            x       y       z     vdW  Elec       q    Type
                         _______ _______ _______ _____ _____    ______ ____

>  <TORSDO>
F 7

$$$$
=
 OpenBabel10222418013D

 35 39  0  0  1  0  0  0  0  0999 V2000
  187.8940  177.5700  144.3830 N   0  0  0  0  0  0  0  0  0  0  0  0
  187.0710  177.9460  143.3630 C   0  0  0  0  0  0  0  0  0  0  0  0
  185.2240  177.9640  144.9250 C   0  0  0  0  0  3  0  0  0  0  0  0
  184.8290  178.5640  142.5670 C   0  0  0  0  0  0  0  0  0  0  0  0
  185.3810  178.7900  141.2980 C   0  0  0  0  0  3  0  0  0  0  0  0
  186.0910  177.5720  145.9420 C   0  0  0  0  0  3  0  0  0  0  0  0
  186.7370  178.5920  141.0540 C   0  0  0  0  0  3  0  0  0  0  0  0
  187.5950  178.1650  142.0710 C   0  0  0  0  0  0  0  0  0  0  0  0
  185.6890  178.1480  143.6150 C   0  0  0  0  0  0  0  0  0  0  0  0
  187.4380  177.3610  145.6480 C   0  0  0  0  0  0  0  0  0  0  0  0
  193.1360  177.2590  140.9850 N   0  0  0  0  0  1  0  0  0  0  0  0
  189.4480  177.4410  140.5010 C   0  0  0  0  0  0  0  0  0  0  0  0
  188.5120  177.1920  139.4570 N   0  0  0  0  0  1  0  0  0  0  0  0
  189.9950  178.1960  142.7410 C   0  0  0  0  0  3  0  0  0  0  0  0
  190.8070  177.2230  140.2550 C   0  0  0  0  0  3  0  0  0  0  0  0
  191.3490  177.9730  142.4880 C   0  0  0  0  0  3  0  0  0  0  0  0
  189.0280  177.9370  141.7570 C   0  0  0  0  0  0  0  0  0  0  0  0
  191.7560  177.4850  141.2450 C   0  0  0  0  0  0  0  0  0  0  0  0
  181.4070  179.0400  144.1620 C   0  0  0  0  0  3  0  0  0  0  0  0
  183.3660  178.7800  142.7390 C   0  0  0  0  0  0  0  0  0  0  0  0
  180.5910  179.1240  143.0330 C   0  0  0  0  0  3  0  0  0  0  0  0
  182.5310  178.8540  141.6120 C   0  0  0  0  0  3  0  0  0  0  0  0
  182.7860  178.8640  144.0150 C   0  0  0  0  0  3  0  0  0  0  0  0
  181.1500  179.0260  141.7520 C   0  0  0  0  0  0  0  0  0  0  0  0
  179.6240  180.3400  140.4940 O   0  0  0  0  0  1  0  0  0  0  0  0
  180.2970  179.1180  140.5280 C   0  0  1  0  0  3  0  0  0  0  0  0
  181.1360  178.9570  139.2740 C   0  0  0  0  0  1  0  0  0  0  0  0
  188.9710  178.2120  147.4020 C   0  0  0  0  0  2  0  0  0  0  0  0
  188.3900  176.9780  146.7370 C   0  0  2  0  0  3  0  0  0  0  0  0
  189.7910  177.4520  146.3850 C   0  0  2  0  0  3  0  0  0  0  0  0
  190.7600  176.6190  147.0750 N   0  0  0  0  0  2  0  0  0  0  0  0
  191.9290  176.6300  146.3000 N   0  0  0  0  0  0  0  0  0  0  0  0
  191.5930  176.1360  145.0850 O   0  0  0  0  0  1  0  0  0  0  0  0
  192.5840  175.8820  148.2380 C   0  0  0  0  0  1  0  0  0  0  0  0
  192.7780  175.7380  146.8630 O   0  0  0  0  0  0  0  0  0  0  0  0
  1 10  1  0  0  0  0
  2  9  1  0  0  0  0
  2  1  2  0  0  0  0
  3  6  1  0  0  0  0
  4 20  1  0  0  0  0
  4  9  1  0  0  0  0
  5  4  2  0  0  0  0
  7  5  1  0  0  0  0
  7  8  2  0  0  0  0
  8  2  1  0  0  0  0
  9  3  2  0  0  0  0
 10  6  2  0  0  0  0
 11 18  1  0  0  0  0
 12 17  1  0  0  0  0
 13 12  1  0  0  0  0
 15 12  2  0  0  0  0
 15 18  1  0  0  0  0
 16 14  1  0  0  0  0
 17  8  1  0  0  0  0
 17 14  2  0  0  0  0
 18 16  2  0  0  0  0
 20 23  2  0  0  0  0
 21 19  2  0  0  0  0
 22 24  2  0  0  0  0
 22 20  1  0  0  0  0
 23 19  1  0  0  0  0
 24 21  1  0  0  0  0
 25 26  1  0  0  0  0
 26 27  1  6  0  0  0
 26 24  1  0  0  0  0
 29 10  1  6  0  0  0
 29 28  1  0  0  0  0
 30 29  1  0  0  0  0
 30 31  1  1  0  0  0
 30 28  1  0  0  0  0
 32 35  1  0  0  0  0
 32 31  1  0  0  0  0
 33 32  1  0  0  0  0
 35 34  1  0  0  0  0
M  END
>  <MODEL>
6

>  <REMARK>
 VINA RESULT:      -8.3      3.657      7.753
  Name = 
  7 active torsions:
  status: ('A' for Active; 'I' for Inactive)
    1  A    between atoms: C_8  and  C_33
    2  A    between atoms: C_10  and  C_11
    3  A    between atoms: C_13  and  C_32
    4  A    between atoms: N_22  and  O_28
    5  A    between atoms: N_22  and  N_34
    6  A    between atoms: C_23  and  C_31
    7  A    between atoms: C_27  and  N_34
                            x       y       z     vdW  Elec       q    Type
                         _______ _______ _______ _____ _____    ______ ____

>  <TORSDO>
F 7

$$$$
=
 OpenBabel10222418013D

 35 39  0  0  1  0  0  0  0  0999 V2000
  186.3510  178.5610  139.0860 N   0  0  0  0  0  0  0  0  0  0  0  0
  185.9150  178.4150  140.3700 C   0  0  0  0  0  0  0  0  0  0  0  0
  188.2140  178.1200  141.0650 C   0  0  0  0  0  3  0  0  0  0  0  0
  186.4150  178.0500  142.7480 C   0  0  0  0  0  0  0  0  0  0  0  0
  185.0470  178.1860  143.0200 C   0  0  0  0  0  3  0  0  0  0  0  0
  188.6230  178.2660  139.7410 C   0  0  0  0  0  3  0  0  0  0  0  0
  184.1270  178.4180  142.0020 C   0  0  0  0  0  3  0  0  0  0  0  0
  184.5410  178.5300  140.6710 C   0  0  0  0  0  0  0  0  0  0  0  0
  186.8560  178.1790  141.4070 C   0  0  0  0  0  0  0  0  0  0  0  0
  187.6650  178.4730  138.7480 C   0  0  0  0  0  0  0  0  0  0  0  0
  180.6730  179.4740  136.5680 N   0  0  0  0  0  1  0  0  0  0  0  0
  182.8760  177.6690  138.9670 C   0  0  0  0  0  0  0  0  0  0  0  0
  183.1380  176.3200  139.3420 N   0  0  0  0  0  1  0  0  0  0  0  0
  183.2040  180.0590  139.2290 C   0  0  0  0  0  3  0  0  0  0  0  0
  181.9350  177.9190  137.9630 C   0  0  0  0  0  3  0  0  0  0  0  0
  182.2640  180.3000  138.2240 C   0  0  0  0  0  3  0  0  0  0  0  0
  183.5210  178.7460  139.6150 C   0  0  0  0  0  0  0  0  0  0  0  0
  181.6310  179.2290  137.5900 C   0  0  0  0  0  0  0  0  0  0  0  0
  189.4430  176.9600  144.7790 C   0  0  0  0  0  3  0  0  0  0  0  0
  187.3300  177.7830  143.8920 C   0  0  0  0  0  0  0  0  0  0  0  0
  189.0110  177.2300  146.0780 C   0  0  0  0  0  3  0  0  0  0  0  0
  186.9030  178.0380  145.2060 C   0  0  0  0  0  3  0  0  0  0  0  0
  188.6060  177.2310  143.6940 C   0  0  0  0  0  3  0  0  0  0  0  0
  187.7350  177.7660  146.2970 C   0  0  0  0  0  0  0  0  0  0  0  0
  188.3080  178.4970  148.4820 O   0  0  0  0  0  1  0  0  0  0  0  0
  187.2500  178.0680  147.6790 C   0  0  1  0  0  3  0  0  0  0  0  0
  186.1640  179.1260  147.6480 C   0  0  0  0  0  1  0  0  0  0  0  0
  186.9610  178.3280  136.3740 C   0  0  0  0  0  2  0  0  0  0  0  0
  188.0920  178.6710  137.3270 C   0  0  2  0  0  3  0  0  0  0  0  0
  188.0820  177.3380  136.5970 C   0  0  2  0  0  3  0  0  0  0  0  0
  189.0090  177.4020  135.4820 N   0  0  0  0  0  2  0  0  0  0  0  0
  189.1940  176.0870  135.0320 N   0  0  0  0  0  0  0  0  0  0  0  0
  189.0280  175.2820  136.1080 O   0  0  0  0  0  1  0  0  0  0  0  0
  191.1990  175.9010  135.8630 C   0  0  0  0  0  1  0  0  0  0  0  0
  190.4930  175.9810  134.6620 O   0  0  0  0  0  0  0  0  0  0  0  0
  1  2  1  0  0  0  0
  2  8  2  0  0  0  0
  2  9  1  0  0  0  0
  3  9  1  0  0  0  0
  4  5  1  0  0  0  0
  4 20  1  0  0  0  0
  6  3  2  0  0  0  0
  7  5  2  0  0  0  0
  8  7  1  0  0  0  0
  9  4  2  0  0  0  0
 10  1  2  0  0  0  0
 10  6  1  0  0  0  0
 11 18  1  0  0  0  0
 12 13  1  0  0  0  0
 12 17  1  0  0  0  0
 14 17  2  0  0  0  0
 15 12  2  0  0  0  0
 16 14  1  0  0  0  0
 17  8  1  0  0  0  0
 18 15  1  0  0  0  0
 18 16  2  0  0  0  0
 19 21  1  0  0  0  0
 20 22  2  0  0  0  0
 21 24  2  0  0  0  0
 22 24  1  0  0  0  0
 23 20  1  0  0  0  0
 23 19  2  0  0  0  0
 24 26  1  0  0  0  0
 26 27  1  6  0  0  0
 26 25  1  0  0  0  0
 28 30  1  0  0  0  0
 28 29  1  0  0  0  0
 29 10  1  1  0  0  0
 30 31  1  6  0  0  0
 30 29  1  0  0  0  0
 32 31  1  0  0  0  0
 32 33  1  0  0  0  0
 35 32  1  0  0  0  0
 35 34  1  0  0  0  0
M  END
>  <MODEL>
7

>  <REMARK>
 VINA RESULT:      -8.2      1.447      2.033
  Name = 
  7 active torsions:
  status: ('A' for Active; 'I' for Inactive)
    1  A    between atoms: C_8  and  C_33
    2  A    between atoms: C_10  and  C_11
    3  A    between atoms: C_13  and  C_32
    4  A    between atoms: N_22  and  O_28
    5  A    between atoms: N_22  and  N_34
    6  A    between atoms: C_23  and  C_31
    7  A    between atoms: C_27  and  N_34
                            x       y       z     vdW  Elec       q    Type
                         _______ _______ _______ _____ _____    ______ ____

>  <TORSDO>
F 7

$$$$
=
 OpenBabel10222418013D

 35 39  0  0  1  0  0  0  0  0999 V2000
  186.7320  178.2570  139.8910 N   0  0  0  0  0  0  0  0  0  0  0  0
  187.7200  177.8460  140.7360 C   0  0  0  0  0  0  0  0  0  0  0  0
  186.2980  178.4280  142.6050 C   0  0  0  0  0  3  0  0  0  0  0  0
  188.5350  177.4830  143.0260 C   0  0  0  0  0  0  0  0  0  0  0  0
  189.7070  176.9380  142.4840 C   0  0  0  0  0  3  0  0  0  0  0  0
  185.3130  178.8470  141.7130 C   0  0  0  0  0  3  0  0  0  0  0  0
  189.8970  176.8550  141.1080 C   0  0  0  0  0  3  0  0  0  0  0  0
  188.9180  177.3080  140.2190 C   0  0  0  0  0  0  0  0  0  0  0  0
  187.5230  177.9310  142.1390 C   0  0  0  0  0  0  0  0  0  0  0  0
  185.5540  178.7680  140.3420 C   0  0  0  0  0  0  0  0  0  0  0  0
  189.8610  176.8840  134.5950 N   0  0  0  0  0  1  0  0  0  0  0  0
  189.2120  178.3810  137.9430 C   0  0  0  0  0  0  0  0  0  0  0  0
  189.0550  179.6840  138.4990 N   0  0  0  0  0  1  0  0  0  0  0  0
  189.3690  175.9700  138.1660 C   0  0  0  0  0  3  0  0  0  0  0  0
  189.4400  178.2570  136.5680 C   0  0  0  0  0  3  0  0  0  0  0  0
  189.5950  175.8560  136.7930 C   0  0  0  0  0  3  0  0  0  0  0  0
  189.1770  177.2290  138.7600 C   0  0  0  0  0  0  0  0  0  0  0  0
  189.6290  177.0000  135.9940 C   0  0  0  0  0  0  0  0  0  0  0  0
  189.3350  177.1770  146.7340 C   0  0  0  0  0  3  0  0  0  0  0  0
  188.4200  177.5530  144.5090 C   0  0  0  0  0  0  0  0  0  0  0  0
  188.1480  177.6390  147.3060 C   0  0  0  0  0  3  0  0  0  0  0  0
  187.2270  178.0040  145.0990 C   0  0  0  0  0  3  0  0  0  0  0  0
  189.4670  177.1310  145.3440 C   0  0  0  0  0  3  0  0  0  0  0  0
  187.0870  178.0500  146.4900 C   0  0  0  0  0  0  0  0  0  0  0  0
  185.9980  179.8090  147.6540 O   0  0  0  0  0  1  0  0  0  0  0  0
  185.8080  178.5520  147.0790 C   0  0  1  0  0  3  0  0  0  0  0  0
  184.7220  178.6270  146.0230 C   0  0  0  0  0  1  0  0  0  0  0  0
  183.1110  178.9760  139.9690 C   0  0  0  0  0  2  0  0  0  0  0  0
  184.4910  179.1770  139.3710 C   0  0  2  0  0  3  0  0  0  0  0  0
  183.6560  177.9680  138.9830 C   0  0  2  0  0  3  0  0  0  0  0  0
  183.0620  178.2010  137.6790 N   0  0  0  0  0  2  0  0  0  0  0  0
  182.5940  176.9620  137.2190 N   0  0  0  0  0  0  0  0  0  0  0  0
  181.2450  177.0580  137.1530 O   0  0  0  0  0  1  0  0  0  0  0  0
  182.5010  174.8270  137.6400 C   0  0  0  0  0  1  0  0  0  0  0  0
  182.8730  176.0560  138.1870 O   0  0  0  0  0  0  0  0  0  0  0  0
  1 10  2  0  0  0  0
  1  2  1  0  0  0  0
  2  9  1  0  0  0  0
  4 20  1  0  0  0  0
  5  4  1  0  0  0  0
  6  3  2  0  0  0  0
  7  5  2  0  0  0  0
  8  2  2  0  0  0  0
  8  7  1  0  0  0  0
  9  3  1  0  0  0  0
  9  4  2  0  0  0  0
 10  6  1  0  0  0  0
 11 18  1  0  0  0  0
 12 13  1  0  0  0  0
 12 17  1  0  0  0  0
 14 17  2  0  0  0  0
 15 12  2  0  0  0  0
 16 14  1  0  0  0  0
 17  8  1  0  0  0  0
 18 15  1  0  0  0  0
 18 16  2  0  0  0  0
 19 21  1  0  0  0  0
 20 22  2  0  0  0  0
 20 23  1  0  0  0  0
 22 24  1  0  0  0  0
 23 19  2  0  0  0  0
 24 26  1  0  0  0  0
 24 21  2  0  0  0  0
 26 27  1  6  0  0  0
 26 25  1  0  0  0  0
 29 28  1  0  0  0  0
 29 10  1  1  0  0  0
 30 31  1  6  0  0  0
 30 29  1  0  0  0  0
 30 28  1  0  0  0  0
 32 31  1  0  0  0  0
 32 35  1  0  0  0  0
 33 32  1  0  0  0  0
 34 35  1  0  0  0  0
M  END
>  <MODEL>
8

>  <REMARK>
 VINA RESULT:      -8.2      2.727      5.859
  Name = 
  7 active torsions:
  status: ('A' for Active; 'I' for Inactive)
    1  A    between atoms: C_8  and  C_33
    2  A    between atoms: C_10  and  C_11
    3  A    between atoms: C_13  and  C_32
    4  A    between atoms: N_22  and  O_28
    5  A    between atoms: N_22  and  N_34
    6  A    between atoms: C_23  and  C_31
    7  A    between atoms: C_27  and  N_34
                            x       y       z     vdW  Elec       q    Type
                         _______ _______ _______ _____ _____    ______ ____

>  <TORSDO>
F 7

$$$$
=
 OpenBabel10222418013D

 35 39  0  0  1  0  0  0  0  0999 V2000
  188.5240  177.8350  142.0230 N   0  0  0  0  0  0  0  0  0  0  0  0
  187.3210  177.9580  142.6530 C   0  0  0  0  0  0  0  0  0  0  0  0
  186.2940  178.3760  140.5020 C   0  0  0  0  0  3  0  0  0  0  0  0
  184.8970  178.3510  142.5320 C   0  0  0  0  0  0  0  0  0  0  0  0
  184.8310  178.1430  143.9170 C   0  0  0  0  0  3  0  0  0  0  0  0
  187.5410  178.2510  139.8920 C   0  0  0  0  0  3  0  0  0  0  0  0
  185.9730  177.8610  144.6610 C   0  0  0  0  0  3  0  0  0  0  0  0
  187.2260  177.7700  144.0480 C   0  0  0  0  0  0  0  0  0  0  0  0
  186.1570  178.2450  141.8910 C   0  0  0  0  0  0  0  0  0  0  0  0
  188.6630  177.9920  140.6790 C   0  0  0  0  0  0  0  0  0  0  0  0
  191.9040  176.7530  147.1740 N   0  0  0  0  0  1  0  0  0  0  0  0
  188.4250  177.7350  146.2800 C   0  0  0  0  0  0  0  0  0  0  0  0
  187.2560  178.1920  146.9540 N   0  0  0  0  0  1  0  0  0  0  0  0
  189.5900  177.0180  144.2760 C   0  0  0  0  0  3  0  0  0  0  0  0
  189.5800  177.4830  147.0270 C   0  0  0  0  0  3  0  0  0  0  0  0
  190.7390  176.7710  145.0290 C   0  0  0  0  0  3  0  0  0  0  0  0
  188.4200  177.4990  144.8860 C   0  0  0  0  0  0  0  0  0  0  0  0
  190.7340  177.0050  146.4060 C   0  0  0  0  0  0  0  0  0  0  0  0
  182.4440  179.3760  139.8090 C   0  0  0  0  0  3  0  0  0  0  0  0
  183.6320  178.6670  141.8140 C   0  0  0  0  0  0  0  0  0  0  0  0
  181.2330  179.3210  140.5010 C   0  0  0  0  0  3  0  0  0  0  0  0
  182.4070  178.6290  142.5000 C   0  0  0  0  0  3  0  0  0  0  0  0
  183.6360  179.0550  140.4630 C   0  0  0  0  0  3  0  0  0  0  0  0
  181.2100  178.9510  141.8520 C   0  0  0  0  0  0  0  0  0  0  0  0
  179.1080  177.8750  142.0950 O   0  0  0  0  0  1  0  0  0  0  0  0
  179.9250  178.8810  142.6120 C   0  0  1  0  0  3  0  0  0  0  0  0
  180.1850  178.6270  144.0850 C   0  0  0  0  0  1  0  0  0  0  0  0
  189.8880  177.8980  138.5240 C   0  0  0  0  0  2  0  0  0  0  0  0
  190.0030  177.8160  140.0360 C   0  0  2  0  0  3  0  0  0  0  0  0
  190.0070  176.5490  139.1960 C   0  0  2  0  0  3  0  0  0  0  0  0
  191.3710  176.0680  139.0710 N   0  0  0  0  0  2  0  0  0  0  0  0
  191.5230  175.6170  137.7520 N   0  0  0  0  0  0  0  0  0  0  0  0
  191.4280  174.2670  137.7900 O   0  0  0  0  0  1  0  0  0  0  0  0
  193.5050  174.7270  137.5960 C   0  0  0  0  0  1  0  0  0  0  0  0
  192.7940  175.9090  137.3840 O   0  0  0  0  0  0  0  0  0  0  0  0
  1  2  1  0  0  0  0
  2  8  1  0  0  0  0
  3  9  1  0  0  0  0
  4  5  2  0  0  0  0
  5  7  1  0  0  0  0
  6  3  2  0  0  0  0
  6 10  1  0  0  0  0
  8  7  2  0  0  0  0
  8 17  1  0  0  0  0
  9  4  1  0  0  0  0
  9  2  2  0  0  0  0
 10  1  2  0  0  0  0
 12 13  1  0  0  0  0
 12 15  1  0  0  0  0
 14 17  1  0  0  0  0
 14 16  2  0  0  0  0
 16 18  1  0  0  0  0
 17 12  2  0  0  0  0
 18 15  2  0  0  0  0
 18 11  1  0  0  0  0
 19 23  2  0  0  0  0
 19 21  1  0  0  0  0
 20 22  2  0  0  0  0
 20  4  1  0  0  0  0
 21 24  2  0  0  0  0
 23 20  1  0  0  0  0
 24 22  1  0  0  0  0
 24 26  1  0  0  0  0
 25 26  1  0  0  0  0
 26 27  1  1  0  0  0
 28 30  1  0  0  0  0
 28 29  1  0  0  0  0
 29 10  1  1  0  0  0
 30 31  1  6  0  0  0
 30 29  1  0  0  0  0
 32 33  1  0  0  0  0
 32 31  1  0  0  0  0
 35 34  1  0  0  0  0
 35 32  1  0  0  0  0
M  END
>  <MODEL>
9

>  <REMARK>
 VINA RESULT:      -8.1      3.234      7.039
  Name = 
  7 active torsions:
  status: ('A' for Active; 'I' for Inactive)
    1  A    between atoms: C_8  and  C_33
    2  A    between atoms: C_10  and  C_11
    3  A    between atoms: C_13  and  C_32
    4  A    between atoms: N_22  and  O_28
    5  A    between atoms: N_22  and  N_34
    6  A    between atoms: C_23  and  C_31
    7  A    between atoms: C_27  and  N_34
                            x       y       z     vdW  Elec       q    Type
                         _______ _______ _______ _____ _____    ______ ____

>  <TORSDO>
F 7

$$$$
