=
 OpenBabel10222415343D

 54 62  0  0  1  0  0  0  0  0999 V2000
  189.6450  177.4100  139.3640 C   0  0  2  0  0  3  0  0  0  0  0  0
  189.9340  176.1610  142.9400 C   0  0  0  0  0  3  0  0  0  0  0  0
  184.7890  178.9090  144.7450 C   0  0  0  0  0  3  0  0  0  0  0  0
  187.2130  177.9950  145.8280 N   0  0  0  0  0  0  0  0  0  0  0  0
  186.4570  178.8470  146.4680 C   0  0  0  0  0  3  0  0  0  0  0  0
  185.7020  178.1000  143.9440 C   0  0  2  0  0  3  0  0  0  0  0  0
  186.7280  177.2810  144.6410 C   0  0  1  0  0  3  0  0  0  0  0  0
  188.9690  176.4290  143.7640 N   0  0  0  0  0  0  0  0  0  0  0  0
  187.7550  177.1520  143.5710 C   0  0  1  0  0  3  0  0  0  0  0  0
  189.2120  177.1970  140.7800 C   0  0  0  0  0  0  0  0  0  0  0  0
  185.1610  179.2260  145.9520 N   0  0  0  0  0  0  0  0  0  0  0  0
  187.3020  177.6970  142.4510 C   0  0  0  0  0  0  0  0  0  0  0  0
  186.0210  178.3520  142.6860 C   0  0  0  0  0  3  0  0  0  0  0  0
  190.0130  176.5400  141.5600 N   0  0  0  0  0  0  0  0  0  0  0  0
  187.9560  177.7430  141.1890 N   0  0  0  0  0  2  0  0  0  0  0  0
  187.9540  176.5380  137.7920 O   0  0  0  0  0  0  0  0  0  0  0  0
  188.5890  178.7830  137.4220 C   0  0  2  0  0  3  0  0  0  0  0  0
  188.4210  177.6860  138.4760 C   0  0  2  0  0  3  0  0  0  0  0  0
  187.3490  178.4830  136.6560 C   0  0  0  0  0  2  0  0  0  0  0  0
  189.0190  177.1180  135.7420 C   0  0  0  0  0  2  0  0  0  0  0  0
  189.6540  178.3360  136.4110 C   0  0  0  0  0  2  0  0  0  0  0  0
  187.7000  177.0300  136.4910 C   0  0  1  0  0  0  0  0  0  0  0  0
  186.6580  176.2070  135.7450 C   0  0  0  0  0  2  0  0  0  0  0  0
  185.3530  176.9770  135.5790 C   0  0  0  0  0  2  0  0  0  0  0  0
  182.8970  175.0180  138.0090 C   0  0  1  0  0  0  0  0  0  0  0  0
  183.6710  175.5650  136.8760 N   0  0  0  0  0  0  0  0  0  0  0  0
  181.2520  176.0520  136.4280 C   0  0  0  0  0  1  0  0  0  0  0  0
  182.2990  174.9780  136.7230 C   0  0  2  0  0  0  0  0  0  0  0  0
  183.1330  177.4330  138.7290 C   0  0  0  0  0  0  0  0  0  0  0  0
  184.4420  176.7330  136.7300 C   0  0  0  0  0  0  0  0  0  0  0  0
  181.8660  174.1330  137.7340 O   0  0  0  0  0  0  0  0  0  0  0  0
  182.5330  176.2090  138.8810 C   0  0  0  0  0  3  0  0  0  0  0  0
  184.1670  177.6740  137.6430 C   0  0  0  0  0  3  0  0  0  0  0  0
  181.4990  179.2800  139.2780 C   0  0  0  0  0  2  0  0  0  0  0  0
  182.7950  178.5550  139.6980 C   0  0  0  0  0  0  0  0  0  0  0  0
  180.2600  178.6100  139.8710 C   0  0  0  0  0  2  0  0  0  0  0  0
  180.2740  178.6640  141.4040 C   0  0  0  0  0  2  0  0  0  0  0  0
  182.6980  178.0160  141.1470 C   0  0  0  0  0  2  0  0  0  0  0  0
  183.9180  179.5760  139.6490 C   0  0  0  0  0  1  0  0  0  0  0  0
  181.6830  178.7790  141.9970 C   0  0  0  0  0  2  0  0  0  0  0  0
  190.4850  176.2310  138.8910 C   0  0  0  0  0  2  0  0  0  0  0  0
  191.8900  176.6950  138.5660 C   0  0  0  0  0  2  0  0  0  0  0  0
  192.4170  175.8950  137.3910 C   0  0  0  0  0  2  0  0  0  0  0  0
  193.2950  174.7540  137.8780 C   0  0  0  0  0  2  0  0  0  0  0  0
  194.1570  174.1840  136.7490 C   0  0  1  0  0  3  0  0  0  0  0  0
  193.7590  174.8010  135.4140 C   0  0  0  0  0  1  0  0  0  0  0  0
  195.6720  174.3030  137.0120 C   0  0  1  0  0  0  0  0  0  0  0  0
  196.4440  173.4040  136.0610 C   0  0  0  0  0  1  0  0  0  0  0  0
  196.0620  175.6180  136.7590 O   0  0  0  0  0  1  0  0  0  0  0  0
  196.0500  173.9700  138.4610 C   0  0  0  0  0  2  0  0  0  0  0  0
  196.2820  175.1230  139.2150 O   0  0  0  0  0  0  0  0  0  0  0  0
  197.4700  175.2620  141.1540 O   0  0  0  0  0  1  0  0  0  0  0  0
  197.5300  174.9190  139.8040 C   0  0  0  0  0  3  0  0  0  0  0  0
  198.4870  175.7050  139.1630 O   0  0  0  0  0  1  0  0  0  0  0  0
  1 41  1  6  0  0  0
  1 10  1  0  0  0  0
  2  8  2  0  0  0  0
  3 11  2  0  0  0  0
  4  5  2  0  0  0  0
  6 13  1  6  0  0  0
  6  7  1  0  0  0  0
  6  3  1  0  0  0  0
  7  4  1  1  0  0  0
  9 12  1  6  0  0  0
  9  8  1  0  0  0  0
  9  7  1  0  0  0  0
 10 15  1  0  0  0  0
 10 14  2  0  0  0  0
 11  5  1  0  0  0  0
 12 13  2  0  0  0  0
 14  2  1  0  0  0  0
 15 12  1  0  0  0  0
 16 18  1  0  0  0  0
 17 21  1  6  0  0  0
 17 18  1  0  0  0  0
 18  1  1  6  0  0  0
 19 17  1  0  0  0  0
 20 21  1  0  0  0  0
 20 22  1  0  0  0  0
 22 23  1  6  0  0  0
 22 19  1  0  0  0  0
 22 16  1  0  0  0  0
 24 23  1  0  0  0  0
 24 30  1  0  0  0  0
 25 32  1  1  0  0  0
 26 25  1  0  0  0  0
 28 27  1  6  0  0  0
 28 26  1  0  0  0  0
 28 31  1  0  0  0  0
 28 25  1  0  0  0  0
 29 32  2  0  0  0  0
 29 35  1  0  0  0  0
 30 26  1  0  0  0  0
 30 33  2  0  0  0  0
 31 25  1  0  0  0  0
 33 29  1  0  0  0  0
 34 35  1  0  0  0  0
 34 36  1  0  0  0  0
 35 38  1  0  0  0  0
 36 37  1  0  0  0  0
 37 40  1  0  0  0  0
 38 40  1  0  0  0  0
 39 35  1  0  0  0  0
 42 41  1  0  0  0  0
 43 44  1  0  0  0  0
 43 42  1  0  0  0  0
 45 46  1  6  0  0  0
 45 47  1  0  0  0  0
 45 44  1  0  0  0  0
 47 48  1  6  0  0  0
 47 50  1  0  0  0  0
 49 47  1  0  0  0  0
 50 51  1  0  0  0  0
 51 53  1  0  0  0  0
 53 52  1  0  0  0  0
 54 53  1  0  0  0  0
M  END
>  <MODEL>
1

>  <REMARK>
 VINA RESULT:      -8.4      0.000      0.000
  Name = 
  15 active torsions:
  status: ('A' for Active; 'I' for Inactive)
    1  A    between atoms: C_7  and  C_20
    2  A    between atoms: C_7  and  O_46
    3  A    between atoms: C_15  and  C_17
    4  A    between atoms: C_15  and  C_28
    5  A    between atoms: C_15  and  C_37
    6  A    between atoms: C_18  and  C_36
    7  A    between atoms: C_18  and  C_41
    8  A    between atoms: C_19  and  C_26
    9  A    between atoms: C_20  and  C_24
   10  A    between atoms: C_21  and  O_46
   11  A    between atoms: C_24  and  C_36
   12  A    between atoms: C_28  and  C_41
   13  A    between atoms: C_31  and  C_50
   14  A    between atoms: C_35  and  C_48
   15  A    between atoms: C_48  and  C_50
                            x       y       z     vdW  Elec       q    Type
                         _______ _______ _______ _____ _____    ______ ____

>  <TORSDO>
F 15

$$$$
=
 OpenBabel10222415343D

 54 62  0  0  1  0  0  0  0  0999 V2000
  189.6120  177.2970  139.6700 C   0  0  2  0  0  3  0  0  0  0  0  0
  189.8670  176.2580  143.3150 C   0  0  0  0  0  3  0  0  0  0  0  0
  184.5480  178.8370  144.8420 C   0  0  0  0  0  3  0  0  0  0  0  0
  186.9830  178.1060  146.0310 N   0  0  0  0  0  0  0  0  0  0  0  0
  186.1700  178.9520  146.6050 C   0  0  0  0  0  3  0  0  0  0  0  0
  185.5200  178.0340  144.1090 C   0  0  2  0  0  3  0  0  0  0  0  0
  186.5660  177.3060  144.8740 C   0  0  1  0  0  3  0  0  0  0  0  0
  188.8680  176.5220  144.0990 N   0  0  0  0  0  0  0  0  0  0  0  0
  187.6260  177.1710  143.8380 C   0  0  1  0  0  3  0  0  0  0  0  0
  189.1530  177.1390  141.0840 C   0  0  0  0  0  0  0  0  0  0  0  0
  184.8710  179.2370  146.0380 N   0  0  0  0  0  0  0  0  0  0  0  0
  187.1770  177.6310  142.6790 C   0  0  0  0  0  0  0  0  0  0  0  0
  185.8590  178.2330  142.8470 C   0  0  0  0  0  3  0  0  0  0  0  0
  189.9640  176.5660  141.9190 N   0  0  0  0  0  0  0  0  0  0  0  0
  187.8610  177.6430  141.4330 N   0  0  0  0  0  2  0  0  0  0  0  0
  188.4680  176.2610  137.7440 O   0  0  0  0  0  0  0  0  0  0  0  0
  188.1280  178.5880  137.9660 C   0  0  2  0  0  3  0  0  0  0  0  0
  188.4040  177.2840  138.7200 C   0  0  2  0  0  3  0  0  0  0  0  0
  187.1400  178.0290  137.0050 C   0  0  0  0  0  2  0  0  0  0  0  0
  189.2440  177.7140  136.0250 C   0  0  0  0  0  2  0  0  0  0  0  0
  189.3040  178.8700  137.0220 C   0  0  0  0  0  2  0  0  0  0  0  0
  188.0620  176.9270  136.5640 C   0  0  1  0  0  0  0  0  0  0  0  0
  187.4690  175.9790  135.5300 C   0  0  0  0  0  2  0  0  0  0  0  0
  186.0290  176.3480  135.1960 C   0  0  0  0  0  2  0  0  0  0  0  0
  184.3330  173.1300  136.7930 C   0  0  1  0  0  0  0  0  0  0  0  0
  185.0170  174.1300  135.9470 N   0  0  0  0  0  0  0  0  0  0  0  0
  182.9710  173.3790  134.7050 C   0  0  0  0  0  1  0  0  0  0  0  0
  184.2720  172.9550  135.3870 C   0  0  2  0  0  0  0  0  0  0  0  0
  183.0500  175.2220  137.4140 C   0  0  0  0  0  0  0  0  0  0  0  0
  185.0730  175.5350  135.9970 C   0  0  0  0  0  0  0  0  0  0  0  0
  184.0520  171.8890  136.2450 O   0  0  0  0  0  0  0  0  0  0  0  0
  183.1570  173.8550  137.4290 C   0  0  0  0  0  3  0  0  0  0  0  0
  184.0860  176.0860  136.7140 C   0  0  0  0  0  3  0  0  0  0  0  0
  182.1660  175.9250  139.6740 C   0  0  0  0  0  2  0  0  0  0  0  0
  181.9010  175.8900  138.1530 C   0  0  0  0  0  0  0  0  0  0  0  0
  182.9460  177.1740  140.0830 C   0  0  0  0  0  2  0  0  0  0  0  0
  182.1530  178.4530  139.7810 C   0  0  0  0  0  2  0  0  0  0  0  0
  181.6410  177.3100  137.5910 C   0  0  0  0  0  2  0  0  0  0  0  0
  180.6500  175.0580  137.9330 C   0  0  0  0  0  1  0  0  0  0  0  0
  181.1300  178.2830  138.6520 C   0  0  0  0  0  2  0  0  0  0  0  0
  190.6570  176.2400  139.3380 C   0  0  0  0  0  2  0  0  0  0  0  0
  191.9900  176.9000  139.0550 C   0  0  0  0  0  2  0  0  0  0  0  0
  192.4070  176.5870  137.6320 C   0  0  0  0  0  2  0  0  0  0  0  0
  193.0500  175.2110  137.5580 C   0  0  0  0  0  2  0  0  0  0  0  0
  193.7720  174.9960  136.2260 C   0  0  1  0  0  3  0  0  0  0  0  0
  194.4450  176.2850  135.7740 C   0  0  0  0  0  1  0  0  0  0  0  0
  194.7530  173.8060  136.2440 C   0  0  1  0  0  0  0  0  0  0  0  0
  194.1750  172.6590  137.0560 C   0  0  0  0  0  1  0  0  0  0  0  0
  194.9200  173.3530  134.9350 O   0  0  0  0  0  1  0  0  0  0  0  0
  196.1340  174.1840  136.7900 C   0  0  0  0  0  2  0  0  0  0  0  0
  196.4350  173.4930  137.9670 O   0  0  0  0  0  0  0  0  0  0  0  0
  196.0600  175.0890  139.5500 O   0  0  0  0  0  1  0  0  0  0  0  0
  197.0370  174.4420  138.7940 C   0  0  0  0  0  3  0  0  0  0  0  0
  197.7220  175.3770  138.0160 O   0  0  0  0  0  1  0  0  0  0  0  0
  1 41  1  6  0  0  0
  1 10  1  0  0  0  0
  2  8  2  0  0  0  0
  3 11  2  0  0  0  0
  4  5  2  0  0  0  0
  6 13  1  6  0  0  0
  6  3  1  0  0  0  0
  6  7  1  0  0  0  0
  7  4  1  1  0  0  0
  9 12  1  6  0  0  0
  9  8  1  0  0  0  0
  9  7  1  0  0  0  0
 10 15  1  0  0  0  0
 10 14  2  0  0  0  0
 11  5  1  0  0  0  0
 12 13  2  0  0  0  0
 14  2  1  0  0  0  0
 15 12  1  0  0  0  0
 16 18  1  0  0  0  0
 17 19  1  6  0  0  0
 17 18  1  0  0  0  0
 18  1  1  6  0  0  0
 20 22  1  0  0  0  0
 20 21  1  0  0  0  0
 21 17  1  0  0  0  0
 22 23  1  6  0  0  0
 22 19  1  0  0  0  0
 22 16  1  0  0  0  0
 24 23  1  0  0  0  0
 24 30  1  0  0  0  0
 25 32  1  1  0  0  0
 26 30  1  0  0  0  0
 26 25  1  0  0  0  0
 28 27  1  6  0  0  0
 28 26  1  0  0  0  0
 28 31  1  0  0  0  0
 28 25  1  0  0  0  0
 29 32  2  0  0  0  0
 29 35  1  0  0  0  0
 30 33  2  0  0  0  0
 31 25  1  0  0  0  0
 33 29  1  0  0  0  0
 34 36  1  0  0  0  0
 35 34  1  0  0  0  0
 37 36  1  0  0  0  0
 38 35  1  0  0  0  0
 38 40  1  0  0  0  0
 39 35  1  0  0  0  0
 40 37  1  0  0  0  0
 42 41  1  0  0  0  0
 43 42  1  0  0  0  0
 44 43  1  0  0  0  0
 45 46  1  1  0  0  0
 45 47  1  0  0  0  0
 45 44  1  0  0  0  0
 47 50  1  0  0  0  0
 47 48  1  1  0  0  0
 49 47  1  0  0  0  0
 50 51  1  0  0  0  0
 51 53  1  0  0  0  0
 53 52  1  0  0  0  0
 54 53  1  0  0  0  0
M  END
>  <MODEL>
2

>  <REMARK>
 VINA RESULT:      -8.0      1.289      1.970
  Name = 
  15 active torsions:
  status: ('A' for Active; 'I' for Inactive)
    1  A    between atoms: C_7  and  C_20
    2  A    between atoms: C_7  and  O_46
    3  A    between atoms: C_15  and  C_17
    4  A    between atoms: C_15  and  C_28
    5  A    between atoms: C_15  and  C_37
    6  A    between atoms: C_18  and  C_36
    7  A    between atoms: C_18  and  C_41
    8  A    between atoms: C_19  and  C_26
    9  A    between atoms: C_20  and  C_24
   10  A    between atoms: C_21  and  O_46
   11  A    between atoms: C_24  and  C_36
   12  A    between atoms: C_28  and  C_41
   13  A    between atoms: C_31  and  C_50
   14  A    between atoms: C_35  and  C_48
   15  A    between atoms: C_48  and  C_50
                            x       y       z     vdW  Elec       q    Type
                         _______ _______ _______ _____ _____    ______ ____

>  <TORSDO>
F 15

$$$$
=
 OpenBabel10222415343D

 54 62  0  0  1  0  0  0  0  0999 V2000
  186.5500  176.2860  136.3180 C   0  0  2  0  0  3  0  0  0  0  0  0
  185.5870  172.8920  137.7290 C   0  0  0  0  0  3  0  0  0  0  0  0
  180.0490  172.9460  135.1590 C   0  0  0  0  0  3  0  0  0  0  0  0
  181.3720  171.7980  137.3530 N   0  0  0  0  0  0  0  0  0  0  0  0
  180.0680  171.8450  137.2900 C   0  0  0  0  0  3  0  0  0  0  0  0
  181.4970  173.0590  135.2960 C   0  0  2  0  0  3  0  0  0  0  0  0
  182.2070  172.1040  136.1860 C   0  0  1  0  0  3  0  0  0  0  0  0
  184.4460  172.3840  137.3800 N   0  0  0  0  0  0  0  0  0  0  0  0
  183.4250  172.8920  136.5240 C   0  0  1  0  0  3  0  0  0  0  0  0
  185.6910  175.0780  136.5150 C   0  0  0  0  0  0  0  0  0  0  0  0
  179.3970  172.3380  136.1090 N   0  0  0  0  0  0  0  0  0  0  0  0
  183.4300  174.0210  135.8310 C   0  0  0  0  0  0  0  0  0  0  0  0
  182.1860  174.1680  135.0860 C   0  0  0  0  0  3  0  0  0  0  0  0
  186.1290  174.1510  137.3090 N   0  0  0  0  0  0  0  0  0  0  0  0
  184.4360  175.0270  135.8320 N   0  0  0  0  0  2  0  0  0  0  0  0
  187.7130  177.0770  138.3470 O   0  0  0  0  0  0  0  0  0  0  0  0
  189.1350  176.4690  136.5600 C   0  0  2  0  0  3  0  0  0  0  0  0
  187.7840  176.2080  137.2320 C   0  0  2  0  0  3  0  0  0  0  0  0
  189.9310  176.5950  137.8100 C   0  0  0  0  0  2  0  0  0  0  0  0
  189.1020  178.7380  137.3550 C   0  0  0  0  0  2  0  0  0  0  0  0
  189.1650  177.9210  136.0650 C   0  0  0  0  0  2  0  0  0  0  0  0
  189.0130  177.6330  138.3930 C   0  0  1  0  0  0  0  0  0  0  0  0
  189.3970  178.1090  139.7880 C   0  0  0  0  0  2  0  0  0  0  0  0
  188.3100  177.7890  140.8070 C   0  0  0  0  0  2  0  0  0  0  0  0
  190.7700  178.8380  143.7440 C   0  0  1  0  0  0  0  0  0  0  0  0
  190.1280  178.3540  142.5040 N   0  0  0  0  0  0  0  0  0  0  0  0
  191.3030  176.3990  143.5470 C   0  0  0  0  0  1  0  0  0  0  0  0
  191.4370  177.8240  143.0100 C   0  0  2  0  0  0  0  0  0  0  0  0
  188.6140  177.8950  144.6750 C   0  0  0  0  0  0  0  0  0  0  0  0
  188.7970  178.0180  142.1950 C   0  0  0  0  0  0  0  0  0  0  0  0
  192.1290  178.6240  143.9060 O   0  0  0  0  0  0  0  0  0  0  0  0
  189.8830  178.3680  144.8860 C   0  0  0  0  0  3  0  0  0  0  0  0
  188.0410  177.7740  143.2720 C   0  0  0  0  0  3  0  0  0  0  0  0
  188.4970  176.6030  146.8430 C   0  0  0  0  0  2  0  0  0  0  0  0
  187.7430  177.5330  145.8680 C   0  0  0  0  0  0  0  0  0  0  0  0
  189.3010  177.3970  147.8720 C   0  0  0  0  0  2  0  0  0  0  0  0
  188.3870  178.2550  148.7570 C   0  0  0  0  0  2  0  0  0  0  0  0
  187.2360  178.8110  146.5820 C   0  0  0  0  0  2  0  0  0  0  0  0
  186.5360  176.7670  145.3570 C   0  0  0  0  0  1  0  0  0  0  0  0
  187.0560  178.6180  148.0870 C   0  0  0  0  0  2  0  0  0  0  0  0
  185.7270  177.5520  136.5170 C   0  0  0  0  0  2  0  0  0  0  0  0
  185.2160  177.6180  137.9410 C   0  0  0  0  0  2  0  0  0  0  0  0
  183.7020  177.7020  137.9220 C   0  0  0  0  0  2  0  0  0  0  0  0
  183.1150  176.9670  139.1160 C   0  0  0  0  0  2  0  0  0  0  0  0
  181.6970  177.4470  139.4310 C   0  0  1  0  0  3  0  0  0  0  0  0
  180.8110  176.2690  139.8170 C   0  0  0  0  0  1  0  0  0  0  0  0
  181.6490  178.5750  140.4820 C   0  0  1  0  0  0  0  0  0  0  0  0
  180.9210  179.7860  139.9210 C   0  0  0  0  0  1  0  0  0  0  0  0
  180.9250  178.1220  141.5840 O   0  0  0  0  0  1  0  0  0  0  0  0
  183.0420  178.9890  140.9710 C   0  0  0  0  0  2  0  0  0  0  0  0
  183.1820  178.8140  142.3500 O   0  0  0  0  0  0  0  0  0  0  0  0
  184.8260  179.6090  143.7120 O   0  0  0  0  0  1  0  0  0  0  0  0
  184.5580  178.8480  142.5760 C   0  0  0  0  0  3  0  0  0  0  0  0
  185.2020  179.4090  141.4730 O   0  0  0  0  0  1  0  0  0  0  0  0
  1 10  1  0  0  0  0
  1 41  1  1  0  0  0
  3  6  1  0  0  0  0
  3 11  2  0  0  0  0
  5  4  2  0  0  0  0
  6 13  1  1  0  0  0
  6  7  1  0  0  0  0
  7  9  1  0  0  0  0
  7  4  1  1  0  0  0
  8  2  2  0  0  0  0
  9 12  1  6  0  0  0
  9  8  1  0  0  0  0
 10 14  2  0  0  0  0
 11  5  1  0  0  0  0
 12 15  1  0  0  0  0
 13 12  2  0  0  0  0
 14  2  1  0  0  0  0
 15 10  1  0  0  0  0
 16 22  1  0  0  0  0
 17 21  1  1  0  0  0
 17 18  1  0  0  0  0
 17 19  1  0  0  0  0
 18  1  1  6  0  0  0
 18 16  1  0  0  0  0
 19 22  1  0  0  0  0
 20 22  1  0  0  0  0
 21 20  1  0  0  0  0
 22 23  1  1  0  0  0
 23 24  1  0  0  0  0
 24 30  1  0  0  0  0
 25 31  1  0  0  0  0
 25 32  1  1  0  0  0
 26 28  1  0  0  0  0
 26 25  1  0  0  0  0
 28 27  1  1  0  0  0
 28 25  1  0  0  0  0
 28 31  1  0  0  0  0
 29 32  2  0  0  0  0
 29 35  1  0  0  0  0
 30 26  1  0  0  0  0
 30 33  2  0  0  0  0
 33 29  1  0  0  0  0
 34 36  1  0  0  0  0
 35 38  1  0  0  0  0
 35 34  1  0  0  0  0
 36 37  1  0  0  0  0
 38 40  1  0  0  0  0
 39 35  1  0  0  0  0
 40 37  1  0  0  0  0
 41 42  1  0  0  0  0
 43 42  1  0  0  0  0
 43 44  1  0  0  0  0
 44 45  1  0  0  0  0
 45 46  1  1  0  0  0
 45 47  1  0  0  0  0
 47 48  1  6  0  0  0
 47 50  1  0  0  0  0
 47 49  1  0  0  0  0
 50 51  1  0  0  0  0
 51 53  1  0  0  0  0
 53 52  1  0  0  0  0
 54 53  1  0  0  0  0
M  END
>  <MODEL>
3

>  <REMARK>
 VINA RESULT:      -7.9      3.555      9.988
  Name = 
  15 active torsions:
  status: ('A' for Active; 'I' for Inactive)
    1  A    between atoms: C_7  and  C_20
    2  A    between atoms: C_7  and  O_46
    3  A    between atoms: C_15  and  C_17
    4  A    between atoms: C_15  and  C_28
    5  A    between atoms: C_15  and  C_37
    6  A    between atoms: C_18  and  C_36
    7  A    between atoms: C_18  and  C_41
    8  A    between atoms: C_19  and  C_26
    9  A    between atoms: C_20  and  C_24
   10  A    between atoms: C_21  and  O_46
   11  A    between atoms: C_24  and  C_36
   12  A    between atoms: C_28  and  C_41
   13  A    between atoms: C_31  and  C_50
   14  A    between atoms: C_35  and  C_48
   15  A    between atoms: C_48  and  C_50
                            x       y       z     vdW  Elec       q    Type
                         _______ _______ _______ _____ _____    ______ ____

>  <TORSDO>
F 15

$$$$
=
 OpenBabel10222415343D

 54 62  0  0  1  0  0  0  0  0999 V2000
  188.8370  175.3370  136.2460 C   0  0  2  0  0  3  0  0  0  0  0  0
  190.7360  172.3700  134.8220 C   0  0  0  0  0  3  0  0  0  0  0  0
  195.9130  173.7660  137.7440 C   0  0  0  0  0  3  0  0  0  0  0  0
  195.0630  172.4000  135.4440 N   0  0  0  0  0  0  0  0  0  0  0  0
  196.3030  172.7840  135.5910 C   0  0  0  0  0  3  0  0  0  0  0  0
  194.4960  173.5030  137.5170 C   0  0  2  0  0  3  0  0  0  0  0  0
  194.1130  172.4320  136.5610 C   0  0  1  0  0  3  0  0  0  0  0  0
  191.9500  172.1640  135.2330 N   0  0  0  0  0  0  0  0  0  0  0  0
  192.7520  172.8870  136.1640 C   0  0  1  0  0  3  0  0  0  0  0  0
  189.9940  174.4040  136.0780 C   0  0  0  0  0  0  0  0  0  0  0  0
  196.7530  173.3880  136.8240 N   0  0  0  0  0  0  0  0  0  0  0  0
  192.4110  173.9480  136.8810 C   0  0  0  0  0  0  0  0  0  0  0  0
  193.5290  174.3850  137.7070 C   0  0  0  0  0  3  0  0  0  0  0  0
  189.8600  173.4270  135.2350 N   0  0  0  0  0  0  0  0  0  0  0  0
  191.1780  174.6560  136.8390 N   0  0  0  0  0  2  0  0  0  0  0  0
  189.0650  176.7500  138.2570 O   0  0  0  0  0  0  0  0  0  0  0  0
  188.7500  177.9370  136.2380 C   0  0  2  0  0  3  0  0  0  0  0  0
  189.3140  176.6600  136.8660 C   0  0  2  0  0  3  0  0  0  0  0  0
  189.2100  178.8720  137.3010 C   0  0  0  0  0  2  0  0  0  0  0  0
  187.1130  178.0890  137.9930 C   0  0  0  0  0  2  0  0  0  0  0  0
  187.2350  177.9740  136.4740 C   0  0  0  0  0  2  0  0  0  0  0  0
  188.5760  178.0690  138.4020 C   0  0  1  0  0  0  0  0  0  0  0  0
  188.7990  178.6260  139.8020 C   0  0  0  0  0  2  0  0  0  0  0  0
  187.9360  177.9080  140.8320 C   0  0  0  0  0  2  0  0  0  0  0  0
  190.6700  178.5390  143.6460 C   0  0  1  0  0  0  0  0  0  0  0  0
  189.9030  178.1820  142.4340 N   0  0  0  0  0  0  0  0  0  0  0  0
  190.8770  176.0600  143.3510 C   0  0  0  0  0  1  0  0  0  0  0  0
  191.1600  177.4750  142.8460 C   0  0  2  0  0  0  0  0  0  0  0  0
  188.4660  177.8410  144.6770 C   0  0  0  0  0  0  0  0  0  0  0  0
  188.5250  178.0270  142.1950 C   0  0  0  0  0  0  0  0  0  0  0  0
  191.9970  178.1510  143.7200 O   0  0  0  0  0  0  0  0  0  0  0  0
  189.7950  178.1440  144.8250 C   0  0  0  0  0  3  0  0  0  0  0  0
  187.8050  177.8410  143.3090 C   0  0  0  0  0  3  0  0  0  0  0  0
  188.3560  176.5830  146.8660 C   0  0  0  0  0  2  0  0  0  0  0  0
  187.6240  177.5490  145.9090 C   0  0  0  0  0  0  0  0  0  0  0  0
  189.2520  177.3340  147.8500 C   0  0  0  0  0  2  0  0  0  0  0  0
  188.4330  178.2590  148.7600 C   0  0  0  0  0  2  0  0  0  0  0  0
  187.2310  178.8650  146.6260 C   0  0  0  0  0  2  0  0  0  0  0  0
  186.3500  176.8580  145.4590 C   0  0  0  0  0  1  0  0  0  0  0  0
  187.1020  178.7010  148.1400 C   0  0  0  0  0  2  0  0  0  0  0  0
  187.7300  174.6580  137.0420 C   0  0  0  0  0  2  0  0  0  0  0  0
  186.7360  174.0120  136.0990 C   0  0  0  0  0  2  0  0  0  0  0  0
  185.6000  174.9810  135.8370 C   0  0  0  0  0  2  0  0  0  0  0  0
  184.8600  175.2930  137.1280 C   0  0  0  0  0  2  0  0  0  0  0  0
  183.8420  176.4190  136.9360 C   0  0  1  0  0  3  0  0  0  0  0  0
  183.3560  176.4560  135.4930 C   0  0  0  0  0  1  0  0  0  0  0  0
  182.6710  176.3660  137.9400 C   0  0  1  0  0  0  0  0  0  0  0  0
  181.3460  176.5160  137.2110 C   0  0  0  0  0  1  0  0  0  0  0  0
  182.6740  175.1150  138.5560 O   0  0  0  0  0  1  0  0  0  0  0  0
  182.7830  177.4310  139.0370 C   0  0  0  0  0  2  0  0  0  0  0  0
  183.0210  178.7020  138.5070 O   0  0  0  0  0  0  0  0  0  0  0  0
  184.5710  180.2840  139.0400 O   0  0  0  0  0  1  0  0  0  0  0  0
  183.6030  179.4210  139.5510 C   0  0  0  0  0  3  0  0  0  0  0  0
  184.1940  178.5390  140.4570 O   0  0  0  0  0  1  0  0  0  0  0  0
  1 41  1  1  0  0  0
  2  8  2  0  0  0  0
  2 14  1  0  0  0  0
  4  5  2  0  0  0  0
  5 11  1  0  0  0  0
  6 13  1  6  0  0  0
  6  3  1  0  0  0  0
  7  4  1  6  0  0  0
  7  6  1  0  0  0  0
  9  8  1  1  0  0  0
  9  7  1  0  0  0  0
  9 12  1  0  0  0  0
 10  1  1  0  0  0  0
 10 15  1  0  0  0  0
 11  3  2  0  0  0  0
 12 13  2  0  0  0  0
 14 10  2  0  0  0  0
 15 12  1  0  0  0  0
 16 22  1  0  0  0  0
 17 21  1  1  0  0  0
 17 18  1  0  0  0  0
 17 19  1  0  0  0  0
 18  1  1  6  0  0  0
 18 16  1  0  0  0  0
 19 22  1  0  0  0  0
 20 22  1  0  0  0  0
 21 20  1  0  0  0  0
 22 23  1  1  0  0  0
 23 24  1  0  0  0  0
 24 30  1  0  0  0  0
 25 31  1  0  0  0  0
 25 32  1  1  0  0  0
 26 28  1  0  0  0  0
 26 25  1  0  0  0  0
 28 27  1  1  0  0  0
 28 25  1  0  0  0  0
 28 31  1  0  0  0  0
 29 32  2  0  0  0  0
 29 35  1  0  0  0  0
 30 26  1  0  0  0  0
 30 33  2  0  0  0  0
 33 29  1  0  0  0  0
 34 36  1  0  0  0  0
 35 38  1  0  0  0  0
 35 34  1  0  0  0  0
 36 37  1  0  0  0  0
 38 40  1  0  0  0  0
 39 35  1  0  0  0  0
 40 37  1  0  0  0  0
 42 41  1  0  0  0  0
 43 42  1  0  0  0  0
 43 44  1  0  0  0  0
 45 46  1  6  0  0  0
 45 44  1  0  0  0  0
 45 47  1  0  0  0  0
 47 48  1  6  0  0  0
 47 49  1  0  0  0  0
 47 50  1  0  0  0  0
 51 50  1  0  0  0  0
 51 53  1  0  0  0  0
 52 53  1  0  0  0  0
 53 54  1  0  0  0  0
M  END
>  <MODEL>
4

>  <REMARK>
 VINA RESULT:      -7.6      3.191      9.919
  Name = 
  15 active torsions:
  status: ('A' for Active; 'I' for Inactive)
    1  A    between atoms: C_7  and  C_20
    2  A    between atoms: C_7  and  O_46
    3  A    between atoms: C_15  and  C_17
    4  A    between atoms: C_15  and  C_28
    5  A    between atoms: C_15  and  C_37
    6  A    between atoms: C_18  and  C_36
    7  A    between atoms: C_18  and  C_41
    8  A    between atoms: C_19  and  C_26
    9  A    between atoms: C_20  and  C_24
   10  A    between atoms: C_21  and  O_46
   11  A    between atoms: C_24  and  C_36
   12  A    between atoms: C_28  and  C_41
   13  A    between atoms: C_31  and  C_50
   14  A    between atoms: C_35  and  C_48
   15  A    between atoms: C_48  and  C_50
                            x       y       z     vdW  Elec       q    Type
                         _______ _______ _______ _____ _____    ______ ____

>  <TORSDO>
F 15

$$$$
=
 OpenBabel10222415343D

 54 62  0  0  1  0  0  0  0  0999 V2000
  180.4580  178.2560  139.9600 C   0  0  2  0  0  3  0  0  0  0  0  0
  179.9440  178.8490  136.2430 C   0  0  0  0  0  3  0  0  0  0  0  0
  181.0250  184.8450  136.6400 C   0  0  0  0  0  3  0  0  0  0  0  0
  179.6440  183.0300  135.0030 N   0  0  0  0  0  0  0  0  0  0  0  0
  179.3850  184.3100  134.9730 C   0  0  0  0  0  3  0  0  0  0  0  0
  181.2000  183.4070  136.8130 C   0  0  2  0  0  3  0  0  0  0  0  0
  180.8260  182.5030  135.6950 C   0  0  1  0  0  3  0  0  0  0  0  0
  180.1550  180.0410  135.7770 N   0  0  0  0  0  0  0  0  0  0  0  0
  180.5590  181.2390  136.4360 C   0  0  1  0  0  3  0  0  0  0  0  0
  180.4380  179.0420  138.6890 C   0  0  0  0  0  0  0  0  0  0  0  0
  180.1760  185.2470  135.7370 N   0  0  0  0  0  0  0  0  0  0  0  0
  180.8640  181.4010  137.7150 C   0  0  0  0  0  0  0  0  0  0  0  0
  181.2210  182.7900  137.9820 C   0  0  0  0  0  3  0  0  0  0  0  0
  180.0820  178.4250  137.6050 N   0  0  0  0  0  0  0  0  0  0  0  0
  180.7950  180.4260  138.7480 N   0  0  0  0  0  2  0  0  0  0  0  0
  181.9110  178.6390  141.9190 O   0  0  0  0  0  0  0  0  0  0  0  0
  179.7320  179.5330  142.1080 C   0  0  2  0  0  3  0  0  0  0  0  0
  180.8550  179.1630  141.1350 C   0  0  2  0  0  3  0  0  0  0  0  0
  180.6020  180.1090  143.1690 C   0  0  0  0  0  2  0  0  0  0  0  0
  180.4650  177.8140  143.6210 C   0  0  0  0  0  2  0  0  0  0  0  0
  179.2490  178.2570  142.8090 C   0  0  0  0  0  2  0  0  0  0  0  0
  181.4730  178.8850  143.2400 C   0  0  1  0  0  0  0  0  0  0  0  0
  182.6250  178.9830  144.2320 C   0  0  0  0  0  2  0  0  0  0  0  0
  183.9290  179.3530  143.5360 C   0  0  0  0  0  2  0  0  0  0  0  0
  186.0290  177.3130  146.2220 C   0  0  1  0  0  0  0  0  0  0  0  0
  185.1270  178.2220  145.4830 N   0  0  0  0  0  0  0  0  0  0  0  0
  186.7490  179.6520  146.7560 C   0  0  0  0  0  1  0  0  0  0  0  0
  185.6940  178.5480  146.8340 C   0  0  2  0  0  0  0  0  0  0  0  0
  187.4190  177.7700  144.1570 C   0  0  0  0  0  0  0  0  0  0  0  0
  185.0780  178.6180  144.1350 C   0  0  0  0  0  0  0  0  0  0  0  0
  186.1530  177.4820  147.5920 O   0  0  0  0  0  0  0  0  0  0  0  0
  187.3300  177.2840  145.4360 C   0  0  0  0  0  3  0  0  0  0  0  0
  186.2220  178.4090  143.4710 C   0  0  0  0  0  3  0  0  0  0  0  0
  189.8590  178.4180  144.0690 C   0  0  0  0  0  2  0  0  0  0  0  0
  188.7240  177.6220  143.3910 C   0  0  0  0  0  0  0  0  0  0  0  0
  190.5740  177.5850  145.1330 C   0  0  0  0  0  2  0  0  0  0  0  0
  191.2540  176.3550  144.5190 C   0  0  0  0  0  2  0  0  0  0  0  0
  189.0970  176.1270  143.2300 C   0  0  0  0  0  2  0  0  0  0  0  0
  188.5270  178.2110  142.0050 C   0  0  0  0  0  1  0  0  0  0  0  0
  190.6060  175.8920  143.2080 C   0  0  0  0  0  2  0  0  0  0  0  0
  181.3570  177.0350  139.8060 C   0  0  0  0  0  2  0  0  0  0  0  0
  182.8080  177.4630  139.7590 C   0  0  0  0  0  2  0  0  0  0  0  0
  183.4720  176.8360  138.5500 C   0  0  0  0  0  2  0  0  0  0  0  0
  184.3750  177.8450  137.8570 C   0  0  0  0  0  2  0  0  0  0  0  0
  185.6550  177.1900  137.3340 C   0  0  1  0  0  3  0  0  0  0  0  0
  185.6020  177.0570  135.8180 C   0  0  0  0  0  1  0  0  0  0  0  0
  186.9430  177.8940  137.8090 C   0  0  1  0  0  0  0  0  0  0  0  0
  187.4710  178.8150  136.7220 C   0  0  0  0  0  1  0  0  0  0  0  0
  186.6320  178.6830  138.9160 O   0  0  0  0  0  1  0  0  0  0  0  0
  188.0380  176.9060  138.2280 C   0  0  0  0  0  2  0  0  0  0  0  0
  188.9610  176.6860  137.2020 O   0  0  0  0  0  0  0  0  0  0  0  0
  190.4060  175.3040  138.2930 O   0  0  0  0  0  1  0  0  0  0  0  0
  190.1970  176.6070  137.8440 C   0  0  0  0  0  3  0  0  0  0  0  0
  190.2200  177.4850  138.9280 O   0  0  0  0  0  1  0  0  0  0  0  0
  1 41  1  6  0  0  0
  2 14  1  0  0  0  0
  5  4  2  0  0  0  0
  5 11  1  0  0  0  0
  6  3  1  1  0  0  0
  6 13  1  0  0  0  0
  7  4  1  1  0  0  0
  7  9  1  0  0  0  0
  7  6  1  0  0  0  0
  8  2  2  0  0  0  0
  9  8  1  6  0  0  0
  9 12  1  0  0  0  0
 10 15  1  0  0  0  0
 10  1  1  0  0  0  0
 11  3  2  0  0  0  0
 12 13  2  0  0  0  0
 12 15  1  0  0  0  0
 14 10  2  0  0  0  0
 16 22  1  0  0  0  0
 17 21  1  1  0  0  0
 17 19  1  0  0  0  0
 18  1  1  6  0  0  0
 18 16  1  0  0  0  0
 18 17  1  0  0  0  0
 19 22  1  0  0  0  0
 21 20  1  0  0  0  0
 22 20  1  0  0  0  0
 22 23  1  1  0  0  0
 24 30  1  0  0  0  0
 24 23  1  0  0  0  0
 25 32  1  6  0  0  0
 25 28  1  0  0  0  0
 25 31  1  0  0  0  0
 26 25  1  0  0  0  0
 26 28  1  0  0  0  0
 28 27  1  6  0  0  0
 28 31  1  0  0  0  0
 29 32  2  0  0  0  0
 30 26  1  0  0  0  0
 33 30  2  0  0  0  0
 33 29  1  0  0  0  0
 34 36  1  0  0  0  0
 35 34  1  0  0  0  0
 35 29  1  0  0  0  0
 37 36  1  0  0  0  0
 38 35  1  0  0  0  0
 39 35  1  0  0  0  0
 40 38  1  0  0  0  0
 40 37  1  0  0  0  0
 42 41  1  0  0  0  0
 43 42  1  0  0  0  0
 44 43  1  0  0  0  0
 45 46  1  6  0  0  0
 45 47  1  0  0  0  0
 45 44  1  0  0  0  0
 47 48  1  6  0  0  0
 47 50  1  0  0  0  0
 47 49  1  0  0  0  0
 51 53  1  0  0  0  0
 51 50  1  0  0  0  0
 53 52  1  0  0  0  0
 53 54  1  0  0  0  0
M  END
>  <MODEL>
5

>  <REMARK>
 VINA RESULT:      -7.4      3.548      9.806
  Name = 
  15 active torsions:
  status: ('A' for Active; 'I' for Inactive)
    1  A    between atoms: C_7  and  C_20
    2  A    between atoms: C_7  and  O_46
    3  A    between atoms: C_15  and  C_17
    4  A    between atoms: C_15  and  C_28
    5  A    between atoms: C_15  and  C_37
    6  A    between atoms: C_18  and  C_36
    7  A    between atoms: C_18  and  C_41
    8  A    between atoms: C_19  and  C_26
    9  A    between atoms: C_20  and  C_24
   10  A    between atoms: C_21  and  O_46
   11  A    between atoms: C_24  and  C_36
   12  A    between atoms: C_28  and  C_41
   13  A    between atoms: C_31  and  C_50
   14  A    between atoms: C_35  and  C_48
   15  A    between atoms: C_48  and  C_50
                            x       y       z     vdW  Elec       q    Type
                         _______ _______ _______ _____ _____    ______ ____

>  <TORSDO>
F 15

$$$$
=
 OpenBabel10222415343D

 54 62  0  0  1  0  0  0  0  0999 V2000
  189.7450  176.0030  137.6150 C   0  0  2  0  0  3  0  0  0  0  0  0
  192.1240  176.0100  134.6530 C   0  0  0  0  0  3  0  0  0  0  0  0
  196.7810  173.7220  137.8720 C   0  0  0  0  0  3  0  0  0  0  0  0
  196.3330  175.2900  135.5870 N   0  0  0  0  0  0  0  0  0  0  0  0
  197.4970  175.2650  136.1810 C   0  0  0  0  0  3  0  0  0  0  0  0
  195.4350  173.8750  137.3280 C   0  0  2  0  0  3  0  0  0  0  0  0
  195.2820  174.3210  135.9190 C   0  0  1  0  0  3  0  0  0  0  0  0
  193.3080  175.5050  134.8160 N   0  0  0  0  0  0  0  0  0  0  0  0
  193.9210  174.9220  135.9640 C   0  0  1  0  0  3  0  0  0  0  0  0
  191.0190  175.7290  136.8810 C   0  0  0  0  0  0  0  0  0  0  0  0
  197.7470  174.3730  137.2890 N   0  0  0  0  0  0  0  0  0  0  0  0
  193.3840  174.7180  137.1580 C   0  0  0  0  0  0  0  0  0  0  0  0
  194.3540  174.1010  138.0540 C   0  0  0  0  0  3  0  0  0  0  0  0
  191.0890  176.1010  135.6400 N   0  0  0  0  0  0  0  0  0  0  0  0
  192.0830  175.0940  137.5930 N   0  0  0  0  0  2  0  0  0  0  0  0
  187.3140  176.2390  137.2600 O   0  0  0  0  0  0  0  0  0  0  0  0
  188.3790  174.6850  135.8350 C   0  0  2  0  0  3  0  0  0  0  0  0
  188.5580  175.9760  136.6390 C   0  0  2  0  0  3  0  0  0  0  0  0
  187.0200  174.9910  135.3120 C   0  0  0  0  0  2  0  0  0  0  0  0
  186.6960  173.9430  137.3820 C   0  0  0  0  0  2  0  0  0  0  0  0
  188.0520  173.5420  136.8040 C   0  0  0  0  0  2  0  0  0  0  0  0
  186.4630  175.2700  136.6810 C   0  0  1  0  0  0  0  0  0  0  0  0
  184.9990  175.6910  136.6960 C   0  0  0  0  0  2  0  0  0  0  0  0
  184.1420  174.7010  137.4760 C   0  0  0  0  0  2  0  0  0  0  0  0
  180.6730  175.5240  139.2280 C   0  0  1  0  0  0  0  0  0  0  0  0
  181.7760  175.1220  138.3310 N   0  0  0  0  0  0  0  0  0  0  0  0
  180.4950  176.9390  137.1690 C   0  0  0  0  0  1  0  0  0  0  0  0
  180.4320  175.5620  137.8310 C   0  0  2  0  0  0  0  0  0  0  0  0
  182.4080  177.2730  139.8090 C   0  0  0  0  0  0  0  0  0  0  0  0
  183.1520  175.4140  138.3300 C   0  0  0  0  0  0  0  0  0  0  0  0
  179.3800  175.4970  138.7320 O   0  0  0  0  0  0  0  0  0  0  0  0
  181.1110  176.8310  139.8690 C   0  0  0  0  0  3  0  0  0  0  0  0
  183.4710  176.4950  139.0530 C   0  0  0  0  0  3  0  0  0  0  0  0
  181.5730  179.1950  141.2210 C   0  0  0  0  0  2  0  0  0  0  0  0
  182.8010  178.5380  140.5540 C   0  0  0  0  0  0  0  0  0  0  0  0
  181.3250  178.6360  142.6220 C   0  0  0  0  0  2  0  0  0  0  0  0
  182.5020  178.9350  143.5600 C   0  0  0  0  0  2  0  0  0  0  0  0
  183.9150  178.2400  141.5890 C   0  0  0  0  0  2  0  0  0  0  0  0
  183.3490  179.5310  139.5450 C   0  0  0  0  0  1  0  0  0  0  0  0
  183.8320  179.1350  142.8250 C   0  0  0  0  0  2  0  0  0  0  0  0
  189.8600  177.3070  138.3940 C   0  0  0  0  0  2  0  0  0  0  0  0
  189.5130  177.0730  139.8500 C   0  0  0  0  0  2  0  0  0  0  0  0
  188.3030  177.9100  140.2120 C   0  0  0  0  0  2  0  0  0  0  0  0
  188.5040  178.5790  141.5620 C   0  0  0  0  0  2  0  0  0  0  0  0
  189.3210  177.6990  142.5110 C   0  0  1  0  0  3  0  0  0  0  0  0
  190.4620  178.4980  143.1270 C   0  0  0  0  0  1  0  0  0  0  0  0
  188.4660  176.9920  143.5830 C   0  0  1  0  0  0  0  0  0  0  0  0
  187.0740  177.6010  143.6320 C   0  0  0  0  0  1  0  0  0  0  0  0
  188.3260  175.6520  143.2220 O   0  0  0  0  0  1  0  0  0  0  0  0
  189.1020  177.0410  144.9760 C   0  0  0  0  0  2  0  0  0  0  0  0
  188.1540  177.2890  145.9730 O   0  0  0  0  0  0  0  0  0  0  0  0
  188.5860  178.2290  148.0030 O   0  0  0  0  0  1  0  0  0  0  0  0
  188.8510  177.1410  147.1720 C   0  0  0  0  0  3  0  0  0  0  0  0
  190.2210  177.0710  146.9150 O   0  0  0  0  0  1  0  0  0  0  0  0
  1 41  1  6  0  0  0
  2  8  2  0  0  0  0
  2 14  1  0  0  0  0
  4  5  2  0  0  0  0
  5 11  1  0  0  0  0
  6  3  1  1  0  0  0
  6 13  1  0  0  0  0
  7  4  1  1  0  0  0
  7  9  1  0  0  0  0
  7  6  1  0  0  0  0
  9  8  1  6  0  0  0
  9 12  1  0  0  0  0
 10 15  1  0  0  0  0
 10  1  1  0  0  0  0
 11  3  2  0  0  0  0
 12 15  1  0  0  0  0
 12 13  2  0  0  0  0
 14 10  2  0  0  0  0
 17 19  1  6  0  0  0
 17 18  1  0  0  0  0
 17 21  1  0  0  0  0
 18 16  1  0  0  0  0
 18  1  1  1  0  0  0
 19 22  1  0  0  0  0
 21 20  1  0  0  0  0
 22 23  1  6  0  0  0
 22 16  1  0  0  0  0
 22 20  1  0  0  0  0
 23 24  1  0  0  0  0
 24 30  1  0  0  0  0
 25 32  1  1  0  0  0
 26 25  1  0  0  0  0
 28 27  1  6  0  0  0
 28 26  1  0  0  0  0
 28 31  1  0  0  0  0
 28 25  1  0  0  0  0
 29 32  2  0  0  0  0
 29 35  1  0  0  0  0
 30 26  1  0  0  0  0
 30 33  2  0  0  0  0
 31 25  1  0  0  0  0
 33 29  1  0  0  0  0
 34 36  1  0  0  0  0
 35 34  1  0  0  0  0
 35 38  1  0  0  0  0
 36 37  1  0  0  0  0
 38 40  1  0  0  0  0
 39 35  1  0  0  0  0
 40 37  1  0  0  0  0
 41 42  1  0  0  0  0
 42 43  1  0  0  0  0
 43 44  1  0  0  0  0
 44 45  1  0  0  0  0
 45 46  1  1  0  0  0
 45 47  1  0  0  0  0
 47 48  1  1  0  0  0
 47 50  1  0  0  0  0
 49 47  1  0  0  0  0
 50 51  1  0  0  0  0
 51 53  1  0  0  0  0
 53 52  1  0  0  0  0
 54 53  1  0  0  0  0
M  END
>  <MODEL>
6

>  <REMARK>
 VINA RESULT:      -7.3      3.773      7.678
  Name = 
  15 active torsions:
  status: ('A' for Active; 'I' for Inactive)
    1  A    between atoms: C_7  and  C_20
    2  A    between atoms: C_7  and  O_46
    3  A    between atoms: C_15  and  C_17
    4  A    between atoms: C_15  and  C_28
    5  A    between atoms: C_15  and  C_37
    6  A    between atoms: C_18  and  C_36
    7  A    between atoms: C_18  and  C_41
    8  A    between atoms: C_19  and  C_26
    9  A    between atoms: C_20  and  C_24
   10  A    between atoms: C_21  and  O_46
   11  A    between atoms: C_24  and  C_36
   12  A    between atoms: C_28  and  C_41
   13  A    between atoms: C_31  and  C_50
   14  A    between atoms: C_35  and  C_48
   15  A    between atoms: C_48  and  C_50
                            x       y       z     vdW  Elec       q    Type
                         _______ _______ _______ _____ _____    ______ ____

>  <TORSDO>
F 15

$$$$
=
 OpenBabel10222415343D

 54 62  0  0  1  0  0  0  0  0999 V2000
  189.9630  176.5030  137.9820 C   0  0  2  0  0  3  0  0  0  0  0  0
  191.9580  176.0110  134.7860 C   0  0  0  0  0  3  0  0  0  0  0  0
  197.0710  174.4570  137.7390 C   0  0  0  0  0  3  0  0  0  0  0  0
  196.2780  175.5640  135.2840 N   0  0  0  0  0  0  0  0  0  0  0  0
  197.5050  175.6750  135.7180 C   0  0  0  0  0  3  0  0  0  0  0  0
  195.6640  174.4780  137.3540 C   0  0  2  0  0  3  0  0  0  0  0  0
  195.3190  174.6520  135.9190 C   0  0  1  0  0  3  0  0  0  0  0  0
  193.1740  175.5700  134.8840 N   0  0  0  0  0  0  0  0  0  0  0  0
  193.9480  175.2230  136.0290 C   0  0  1  0  0  3  0  0  0  0  0  0
  191.1480  176.1250  137.1510 C   0  0  0  0  0  0  0  0  0  0  0  0
  197.9290  175.0080  136.9280 N   0  0  0  0  0  0  0  0  0  0  0  0
  193.5710  175.2310  137.3000 C   0  0  0  0  0  0  0  0  0  0  0  0
  194.6710  174.8120  138.1600 C   0  0  0  0  0  3  0  0  0  0  0  0
  191.0480  176.2610  135.8650 N   0  0  0  0  0  0  0  0  0  0  0  0
  192.3190  175.6550  137.8240 N   0  0  0  0  0  2  0  0  0  0  0  0
  187.7970  177.6770  137.8350 O   0  0  0  0  0  0  0  0  0  0  0  0
  188.2900  176.2700  136.0020 C   0  0  2  0  0  3  0  0  0  0  0  0
  188.8880  177.1560  137.0990 C   0  0  2  0  0  3  0  0  0  0  0  0
  187.1550  177.1670  135.6520 C   0  0  0  0  0  2  0  0  0  0  0  0
  186.3890  175.8070  137.3990 C   0  0  0  0  0  2  0  0  0  0  0  0
  187.5330  175.1110  136.6640 C   0  0  0  0  0  2  0  0  0  0  0  0
  186.6790  177.2630  137.0750 C   0  0  1  0  0  0  0  0  0  0  0  0
  185.4660  178.1610  137.2790 C   0  0  0  0  0  2  0  0  0  0  0  0
  184.2160  177.3470  137.5930 C   0  0  0  0  0  2  0  0  0  0  0  0
  181.6890  177.7420  140.6320 C   0  0  1  0  0  0  0  0  0  0  0  0
  182.3820  177.7110  139.3270 N   0  0  0  0  0  0  0  0  0  0  0  0
  181.7580  180.0970  139.7830 C   0  0  0  0  0  1  0  0  0  0  0  0
  181.2610  178.6590  139.6380 C   0  0  2  0  0  0  0  0  0  0  0  0
  184.0440  178.3400  141.3410 C   0  0  0  0  0  0  0  0  0  0  0  0
  183.7410  177.6170  138.9780 C   0  0  0  0  0  0  0  0  0  0  0  0
  180.4300  178.3170  140.6930 O   0  0  0  0  0  0  0  0  0  0  0  0
  182.7060  178.2640  141.6340 C   0  0  0  0  0  3  0  0  0  0  0  0
  184.5750  177.9440  139.9730 C   0  0  0  0  0  3  0  0  0  0  0  0
  184.4120  179.8890  143.3030 C   0  0  0  0  0  2  0  0  0  0  0  0
  185.0210  178.7780  142.4200 C   0  0  0  0  0  0  0  0  0  0  0  0
  183.6230  179.3090  144.4760 C   0  0  0  0  0  2  0  0  0  0  0  0
  184.5280  178.4990  145.4140 C   0  0  0  0  0  2  0  0  0  0  0  0
  185.4770  177.5660  143.2700 C   0  0  0  0  0  2  0  0  0  0  0  0
  186.2450  179.3640  141.7400 C   0  0  0  0  0  1  0  0  0  0  0  0
  185.7760  177.9380  144.7220 C   0  0  0  0  0  2  0  0  0  0  0  0
  190.4010  177.3760  139.1510 C   0  0  0  0  0  2  0  0  0  0  0  0
  189.3570  177.3360  140.2460 C   0  0  0  0  0  2  0  0  0  0  0  0
  190.0290  177.5870  141.5820 C   0  0  0  0  0  2  0  0  0  0  0  0
  189.0690  177.2900  142.7230 C   0  0  0  0  0  2  0  0  0  0  0  0
  189.7550  176.5120  143.8480 C   0  0  1  0  0  3  0  0  0  0  0  0
  190.8700  175.6400  143.2880 C   0  0  0  0  0  1  0  0  0  0  0  0
  190.2460  177.4080  145.0040 C   0  0  1  0  0  0  0  0  0  0  0  0
  191.3920  178.2910  144.5360 C   0  0  0  0  0  1  0  0  0  0  0  0
  189.1990  178.2460  145.3880 O   0  0  0  0  0  1  0  0  0  0  0  0
  190.6810  176.6030  146.2340 C   0  0  0  0  0  2  0  0  0  0  0  0
  191.9670  176.9530  146.6560 O   0  0  0  0  0  0  0  0  0  0  0  0
  191.3500  175.0330  147.7170 O   0  0  0  0  0  1  0  0  0  0  0  0
  192.4300  175.8340  147.3500 C   0  0  0  0  0  3  0  0  0  0  0  0
  193.1200  176.2420  148.4920 O   0  0  0  0  0  1  0  0  0  0  0  0
  1 41  1  1  0  0  0
  2  8  2  0  0  0  0
  2 14  1  0  0  0  0
  4  5  2  0  0  0  0
  5 11  1  0  0  0  0
  6  3  1  1  0  0  0
  6 13  1  0  0  0  0
  7  4  1  1  0  0  0
  7  9  1  0  0  0  0
  7  6  1  0  0  0  0
  9  8  1  6  0  0  0
  9 12  1  0  0  0  0
 10 15  1  0  0  0  0
 10  1  1  0  0  0  0
 11  3  2  0  0  0  0
 12 15  1  0  0  0  0
 12 13  2  0  0  0  0
 14 10  2  0  0  0  0
 17 19  1  1  0  0  0
 17 21  1  0  0  0  0
 17 18  1  0  0  0  0
 18 16  1  0  0  0  0
 18  1  1  1  0  0  0
 19 22  1  0  0  0  0
 21 20  1  0  0  0  0
 22 23  1  1  0  0  0
 22 20  1  0  0  0  0
 22 16  1  0  0  0  0
 23 24  1  0  0  0  0
 24 30  1  0  0  0  0
 25 31  1  0  0  0  0
 25 32  1  1  0  0  0
 26 28  1  0  0  0  0
 26 25  1  0  0  0  0
 28 27  1  1  0  0  0
 28 25  1  0  0  0  0
 28 31  1  0  0  0  0
 29 32  2  0  0  0  0
 29 35  1  0  0  0  0
 30 26  1  0  0  0  0
 30 33  2  0  0  0  0
 33 29  1  0  0  0  0
 34 36  1  0  0  0  0
 35 38  1  0  0  0  0
 35 34  1  0  0  0  0
 36 37  1  0  0  0  0
 38 40  1  0  0  0  0
 39 35  1  0  0  0  0
 40 37  1  0  0  0  0
 41 42  1  0  0  0  0
 42 43  1  0  0  0  0
 43 44  1  0  0  0  0
 44 45  1  0  0  0  0
 45 46  1  6  0  0  0
 45 47  1  0  0  0  0
 47 48  1  6  0  0  0
 47 49  1  0  0  0  0
 47 50  1  0  0  0  0
 50 51  1  0  0  0  0
 51 53  1  0  0  0  0
 53 52  1  0  0  0  0
 53 54  1  0  0  0  0
M  END
>  <MODEL>
7

>  <REMARK>
 VINA RESULT:      -7.3      3.625      7.653
  Name = 
  15 active torsions:
  status: ('A' for Active; 'I' for Inactive)
    1  A    between atoms: C_7  and  C_20
    2  A    between atoms: C_7  and  O_46
    3  A    between atoms: C_15  and  C_17
    4  A    between atoms: C_15  and  C_28
    5  A    between atoms: C_15  and  C_37
    6  A    between atoms: C_18  and  C_36
    7  A    between atoms: C_18  and  C_41
    8  A    between atoms: C_19  and  C_26
    9  A    between atoms: C_20  and  C_24
   10  A    between atoms: C_21  and  O_46
   11  A    between atoms: C_24  and  C_36
   12  A    between atoms: C_28  and  C_41
   13  A    between atoms: C_31  and  C_50
   14  A    between atoms: C_35  and  C_48
   15  A    between atoms: C_48  and  C_50
                            x       y       z     vdW  Elec       q    Type
                         _______ _______ _______ _____ _____    ______ ____

>  <TORSDO>
F 15

$$$$
=
 OpenBabel10222415343D

 54 62  0  0  1  0  0  0  0  0999 V2000
  189.6410  177.5910  139.4980 C   0  0  2  0  0  3  0  0  0  0  0  0
  190.0590  176.1350  142.9820 C   0  0  0  0  0  3  0  0  0  0  0  0
  184.9640  178.7340  145.1190 C   0  0  0  0  0  3  0  0  0  0  0  0
  187.4280  177.7760  146.0630 N   0  0  0  0  0  0  0  0  0  0  0  0
  186.6900  178.5830  146.7780 C   0  0  0  0  0  3  0  0  0  0  0  0
  185.8540  177.9810  144.2410 C   0  0  2  0  0  3  0  0  0  0  0  0
  186.9070  177.1290  144.8530 C   0  0  1  0  0  3  0  0  0  0  0  0
  189.1210  176.3470  143.8520 N   0  0  0  0  0  0  0  0  0  0  0  0
  187.8980  177.0710  143.7430 C   0  0  1  0  0  3  0  0  0  0  0  0
  189.2580  177.2920  140.9120 C   0  0  0  0  0  0  0  0  0  0  0  0
  185.3760  178.9820  146.3300 N   0  0  0  0  0  0  0  0  0  0  0  0
  187.4030  177.6780  142.6740 C   0  0  0  0  0  0  0  0  0  0  0  0
  186.1270  178.3090  142.9900 C   0  0  0  0  0  3  0  0  0  0  0  0
  190.0890  176.5960  141.6250 N   0  0  0  0  0  0  0  0  0  0  0  0
  188.0140  177.8030  141.3950 N   0  0  0  0  0  2  0  0  0  0  0  0
  187.5310  177.0330  138.3440 O   0  0  0  0  0  0  0  0  0  0  0  0
  188.7030  178.8730  137.4360 C   0  0  2  0  0  3  0  0  0  0  0  0
  188.4130  178.0780  138.7120 C   0  0  2  0  0  3  0  0  0  0  0  0
  187.3170  178.8470  136.8940 C   0  0  0  0  0  2  0  0  0  0  0  0
  188.3530  176.8960  136.1130 C   0  0  0  0  0  2  0  0  0  0  0  0
  189.4100  177.9520  136.4330 C   0  0  0  0  0  2  0  0  0  0  0  0
  187.2100  177.3510  137.0040 C   0  0  1  0  0  0  0  0  0  0  0  0
  185.8670  176.7780  136.5710 C   0  0  0  0  0  2  0  0  0  0  0  0
  184.7650  177.1260  137.5650 C   0  0  0  0  0  2  0  0  0  0  0  0
  180.8780  176.4220  137.1420 C   0  0  1  0  0  0  0  0  0  0  0  0
  182.2280  176.8650  137.5500 N   0  0  0  0  0  0  0  0  0  0  0  0
  181.2420  175.6050  139.4820 C   0  0  0  0  0  1  0  0  0  0  0  0
  181.0740  176.7680  138.5040 C   0  0  2  0  0  0  0  0  0  0  0  0
  182.2270  174.3450  136.6220 C   0  0  0  0  0  0  0  0  0  0  0  0
  183.5150  176.3800  137.2540 C   0  0  0  0  0  0  0  0  0  0  0  0
  179.8040  176.7630  137.9480 O   0  0  0  0  0  0  0  0  0  0  0  0
  181.0080  174.9460  136.8000 C   0  0  0  0  0  3  0  0  0  0  0  0
  183.5220  175.1180  136.8050 C   0  0  0  0  0  3  0  0  0  0  0  0
  182.7930  172.7660  134.7320 C   0  0  0  0  0  2  0  0  0  0  0  0
  182.2860  172.8900  136.1840 C   0  0  0  0  0  0  0  0  0  0  0  0
  184.3180  172.6800  134.6710 C   0  0  0  0  0  2  0  0  0  0  0  0
  184.8370  171.4270  135.3880 C   0  0  0  0  0  2  0  0  0  0  0  0
  183.1570  172.0600  137.1610 C   0  0  0  0  0  2  0  0  0  0  0  0
  180.8750  172.3290  136.2180 C   0  0  0  0  0  1  0  0  0  0  0  0
  183.8850  170.9070  136.4720 C   0  0  0  0  0  2  0  0  0  0  0  0
  190.3210  176.3800  138.8720 C   0  0  0  0  0  2  0  0  0  0  0  0
  191.8030  176.6460  138.7100 C   0  0  0  0  0  2  0  0  0  0  0  0
  192.2510  176.1430  137.3520 C   0  0  0  0  0  2  0  0  0  0  0  0
  193.2790  175.0340  137.5100 C   0  0  0  0  0  2  0  0  0  0  0  0
  192.7370  173.6890  137.0210 C   0  0  1  0  0  3  0  0  0  0  0  0
  191.4670  173.8930  136.2060 C   0  0  0  0  0  1  0  0  0  0  0  0
  193.7810  172.8440  136.2640 C   0  0  1  0  0  0  0  0  0  0  0  0
  193.1260  171.6110  135.6620 C   0  0  0  0  0  1  0  0  0  0  0  0
  194.2880  173.6070  135.2120 O   0  0  0  0  0  1  0  0  0  0  0  0
  194.9600  172.4230  137.1500 C   0  0  0  0  0  2  0  0  0  0  0  0
  196.1160  173.1510  136.8580 O   0  0  0  0  0  0  0  0  0  0  0  0
  195.6800  173.2590  139.0910 O   0  0  0  0  0  1  0  0  0  0  0  0
  196.6240  173.5280  138.1010 C   0  0  0  0  0  3  0  0  0  0  0  0
  196.9200  174.8920  138.0950 O   0  0  0  0  0  1  0  0  0  0  0  0
  1 41  1  6  0  0  0
  1 10  1  0  0  0  0
  2  8  2  0  0  0  0
  3 11  2  0  0  0  0
  4  5  2  0  0  0  0
  6 13  1  6  0  0  0
  6  7  1  0  0  0  0
  6  3  1  0  0  0  0
  7  4  1  1  0  0  0
  9 12  1  6  0  0  0
  9  8  1  0  0  0  0
  9  7  1  0  0  0  0
 10 15  1  0  0  0  0
 10 14  2  0  0  0  0
 11  5  1  0  0  0  0
 12 13  2  0  0  0  0
 14  2  1  0  0  0  0
 15 12  1  0  0  0  0
 16 18  1  0  0  0  0
 17 21  1  6  0  0  0
 17 18  1  0  0  0  0
 18  1  1  6  0  0  0
 19 22  1  0  0  0  0
 19 17  1  0  0  0  0
 20 21  1  0  0  0  0
 20 22  1  0  0  0  0
 22 23  1  6  0  0  0
 22 16  1  0  0  0  0
 23 24  1  0  0  0  0
 25 32  1  6  0  0  0
 25 26  1  0  0  0  0
 25 31  1  0  0  0  0
 25 28  1  0  0  0  0
 26 28  1  0  0  0  0
 28 27  1  1  0  0  0
 29 32  2  0  0  0  0
 29 33  1  0  0  0  0
 30 26  1  0  0  0  0
 30 24  1  0  0  0  0
 31 28  1  0  0  0  0
 33 30  2  0  0  0  0
 34 35  1  0  0  0  0
 35 39  1  0  0  0  0
 35 29  1  0  0  0  0
 35 38  1  0  0  0  0
 36 34  1  0  0  0  0
 36 37  1  0  0  0  0
 37 40  1  0  0  0  0
 40 38  1  0  0  0  0
 42 41  1  0  0  0  0
 43 44  1  0  0  0  0
 43 42  1  0  0  0  0
 45 46  1  6  0  0  0
 45 44  1  0  0  0  0
 47 48  1  6  0  0  0
 47 45  1  0  0  0  0
 47 50  1  0  0  0  0
 49 47  1  0  0  0  0
 51 50  1  0  0  0  0
 51 53  1  0  0  0  0
 53 52  1  0  0  0  0
 54 53  1  0  0  0  0
M  END
>  <MODEL>
8

>  <REMARK>
 VINA RESULT:      -7.2      1.740      3.542
  Name = 
  15 active torsions:
  status: ('A' for Active; 'I' for Inactive)
    1  A    between atoms: C_7  and  C_20
    2  A    between atoms: C_7  and  O_46
    3  A    between atoms: C_15  and  C_17
    4  A    between atoms: C_15  and  C_28
    5  A    between atoms: C_15  and  C_37
    6  A    between atoms: C_18  and  C_36
    7  A    between atoms: C_18  and  C_41
    8  A    between atoms: C_19  and  C_26
    9  A    between atoms: C_20  and  C_24
   10  A    between atoms: C_21  and  O_46
   11  A    between atoms: C_24  and  C_36
   12  A    between atoms: C_28  and  C_41
   13  A    between atoms: C_31  and  C_50
   14  A    between atoms: C_35  and  C_48
   15  A    between atoms: C_48  and  C_50
                            x       y       z     vdW  Elec       q    Type
                         _______ _______ _______ _____ _____    ______ ____

>  <TORSDO>
F 15

$$$$
=
 OpenBabel10222415343D

 54 62  0  0  1  0  0  0  0  0999 V2000
  189.5060  175.9560  138.3290 C   0  0  2  0  0  3  0  0  0  0  0  0
  193.2050  176.8090  138.1840 C   0  0  0  0  0  3  0  0  0  0  0  0
  194.8100  171.2890  136.1270 C   0  0  0  0  0  3  0  0  0  0  0  0
  195.9160  173.4380  137.5550 N   0  0  0  0  0  0  0  0  0  0  0  0
  196.4620  172.2510  137.5750 C   0  0  0  0  0  3  0  0  0  0  0  0
  194.0930  172.5550  136.2370 C   0  0  2  0  0  3  0  0  0  0  0  0
  194.8560  173.7780  136.5980 C   0  0  1  0  0  3  0  0  0  0  0  0
  194.0200  175.9240  137.6990 N   0  0  0  0  0  0  0  0  0  0  0  0
  193.7760  174.6150  137.1900 C   0  0  1  0  0  3  0  0  0  0  0  0
  190.9520  175.7310  138.0240 C   0  0  0  0  0  0  0  0  0  0  0  0
  195.9490  171.1820  136.7500 N   0  0  0  0  0  0  0  0  0  0  0  0
  192.6110  174.0000  137.0500 C   0  0  0  0  0  0  0  0  0  0  0  0
  192.8020  172.6650  136.4950 C   0  0  0  0  0  3  0  0  0  0  0  0
  191.7850  176.6800  138.3230 N   0  0  0  0  0  0  0  0  0  0  0  0
  191.3300  174.4820  137.4410 N   0  0  0  0  0  2  0  0  0  0  0  0
  187.3450  176.4060  137.2250 O   0  0  0  0  0  0  0  0  0  0  0  0
  188.7040  174.8100  136.1350 C   0  0  2  0  0  3  0  0  0  0  0  0
  188.7020  176.0570  137.0230 C   0  0  2  0  0  3  0  0  0  0  0  0
  187.6130  175.2440  135.2210 C   0  0  0  0  0  2  0  0  0  0  0  0
  186.5620  174.1660  137.0150 C   0  0  0  0  0  2  0  0  0  0  0  0
  188.0010  173.6710  136.8840 C   0  0  0  0  0  2  0  0  0  0  0  0
  186.6630  175.5290  136.3500 C   0  0  1  0  0  0  0  0  0  0  0  0
  185.3070  176.0700  135.9160 C   0  0  0  0  0  2  0  0  0  0  0  0
  184.1710  175.1640  136.3780 C   0  0  0  0  0  2  0  0  0  0  0  0
  181.4050  175.6190  139.1930 C   0  0  1  0  0  0  0  0  0  0  0  0
  182.1840  175.3510  137.9660 N   0  0  0  0  0  0  0  0  0  0  0  0
  180.4890  177.1120  137.4030 C   0  0  0  0  0  1  0  0  0  0  0  0
  180.7260  175.7050  137.9510 C   0  0  2  0  0  0  0  0  0  0  0  0
  183.1240  177.4720  139.3180 C   0  0  0  0  0  0  0  0  0  0  0  0
  183.4660  175.7530  137.5500 C   0  0  0  0  0  0  0  0  0  0  0  0
  180.0250  175.5120  139.1310 O   0  0  0  0  0  0  0  0  0  0  0  0
  181.9450  176.9250  139.7540 C   0  0  0  0  0  3  0  0  0  0  0  0
  183.9340  176.8200  138.2100 C   0  0  0  0  0  3  0  0  0  0  0  0
  182.9580  178.9750  141.3430 C   0  0  0  0  0  2  0  0  0  0  0  0
  183.6580  178.7280  139.9890 C   0  0  0  0  0  0  0  0  0  0  0  0
  183.6710  178.2520  142.4860 C   0  0  0  0  0  2  0  0  0  0  0  0
  185.1020  178.7720  142.6710 C   0  0  0  0  0  2  0  0  0  0  0  0
  185.1970  178.6480  140.1530 C   0  0  0  0  0  2  0  0  0  0  0  0
  183.3400  179.9130  139.0950 C   0  0  0  0  0  1  0  0  0  0  0  0
  185.6990  179.3800  141.3960 C   0  0  0  0  0  2  0  0  0  0  0  0
  189.3460  177.1700  139.2360 C   0  0  0  0  0  2  0  0  0  0  0  0
  189.7180  176.8060  140.6580 C   0  0  0  0  0  2  0  0  0  0  0  0
  188.6840  177.3830  141.6050 C   0  0  0  0  0  2  0  0  0  0  0  0
  188.7570  176.6910  142.9560 C   0  0  0  0  0  2  0  0  0  0  0  0
  188.4370  177.6530  144.1010 C   0  0  1  0  0  3  0  0  0  0  0  0
  187.2830  177.1180  144.9390 C   0  0  0  0  0  1  0  0  0  0  0  0
  189.6640  178.0090  144.9660 C   0  0  1  0  0  0  0  0  0  0  0  0
  190.5540  179.0010  144.2350 C   0  0  0  0  0  1  0  0  0  0  0  0
  189.2160  178.6260  146.1340 O   0  0  0  0  0  1  0  0  0  0  0  0
  190.4830  176.7770  145.3690 C   0  0  0  0  0  2  0  0  0  0  0  0
  191.6820  177.1300  145.9920 O   0  0  0  0  0  0  0  0  0  0  0  0
  192.4700  175.2320  146.9750 O   0  0  0  0  0  1  0  0  0  0  0  0
  191.7060  176.3810  147.1690 C   0  0  0  0  0  3  0  0  0  0  0  0
  190.4050  176.0240  147.5250 O   0  0  0  0  0  1  0  0  0  0  0  0
  1 41  1  6  0  0  0
  2 14  1  0  0  0  0
  3 11  2  0  0  0  0
  4  5  2  0  0  0  0
  6  3  1  1  0  0  0
  6 13  1  0  0  0  0
  6  7  1  0  0  0  0
  7  9  1  0  0  0  0
  7  4  1  1  0  0  0
  8  2  2  0  0  0  0
  9 12  1  6  0  0  0
  9  8  1  0  0  0  0
 10 14  2  0  0  0  0
 10  1  1  0  0  0  0
 11  5  1  0  0  0  0
 12 15  1  0  0  0  0
 13 12  2  0  0  0  0
 15 10  1  0  0  0  0
 17 19  1  6  0  0  0
 17 21  1  0  0  0  0
 17 18  1  0  0  0  0
 18 16  1  0  0  0  0
 18  1  1  1  0  0  0
 19 22  1  0  0  0  0
 21 20  1  0  0  0  0
 22 23  1  6  0  0  0
 22 20  1  0  0  0  0
 22 16  1  0  0  0  0
 23 24  1  0  0  0  0
 24 30  1  0  0  0  0
 25 32  1  1  0  0  0
 26 25  1  0  0  0  0
 28 27  1  6  0  0  0
 28 26  1  0  0  0  0
 28 31  1  0  0  0  0
 28 25  1  0  0  0  0
 29 32  2  0  0  0  0
 29 35  1  0  0  0  0
 30 26  1  0  0  0  0
 30 33  2  0  0  0  0
 31 25  1  0  0  0  0
 33 29  1  0  0  0  0
 34 36  1  0  0  0  0
 35 38  1  0  0  0  0
 35 34  1  0  0  0  0
 36 37  1  0  0  0  0
 38 40  1  0  0  0  0
 39 35  1  0  0  0  0
 40 37  1  0  0  0  0
 41 42  1  0  0  0  0
 42 43  1  0  0  0  0
 43 44  1  0  0  0  0
 44 45  1  0  0  0  0
 45 46  1  1  0  0  0
 45 47  1  0  0  0  0
 47 48  1  6  0  0  0
 47 50  1  0  0  0  0
 47 49  1  0  0  0  0
 50 51  1  0  0  0  0
 51 53  1  0  0  0  0
 52 53  1  0  0  0  0
 53 54  1  0  0  0  0
M  END
>  <MODEL>
9

>  <REMARK>
 VINA RESULT:      -7.2      3.518      7.426
  Name = 
  15 active torsions:
  status: ('A' for Active; 'I' for Inactive)
    1  A    between atoms: C_7  and  C_20
    2  A    between atoms: C_7  and  O_46
    3  A    between atoms: C_15  and  C_17
    4  A    between atoms: C_15  and  C_28
    5  A    between atoms: C_15  and  C_37
    6  A    between atoms: C_18  and  C_36
    7  A    between atoms: C_18  and  C_41
    8  A    between atoms: C_19  and  C_26
    9  A    between atoms: C_20  and  C_24
   10  A    between atoms: C_21  and  O_46
   11  A    between atoms: C_24  and  C_36
   12  A    between atoms: C_28  and  C_41
   13  A    between atoms: C_31  and  C_50
   14  A    between atoms: C_35  and  C_48
   15  A    between atoms: C_48  and  C_50
                            x       y       z     vdW  Elec       q    Type
                         _______ _______ _______ _____ _____    ______ ____

>  <TORSDO>
F 15

$$$$
