=
 OpenBabel10222416213D

 62 68  0  0  1  0  0  0  0  0999 V2000
  189.5450  177.1870  137.9150 C   0  0  1  0  0  3  0  0  0  0  0  0
  186.5930  178.5050  138.2920 N   0  0  0  0  0  0  0  0  0  0  0  0
  188.6420  177.5030  139.0370 N   0  0  0  0  0  0  0  0  0  0  0  0
  190.5560  176.6420  138.8180 C   0  0  2  0  0  3  0  0  0  0  0  0
  189.8360  175.7010  137.8810 C   0  0  2  0  0  3  0  0  0  0  0  0
  187.4040  178.1890  139.2590 C   0  0  0  0  0  0  0  0  0  0  0  0
  189.6700  176.9950  139.8810 N   0  0  0  0  0  2  0  0  0  0  0  0
  187.5070  177.6870  134.7620 N   0  0  0  0  0  0  0  0  0  0  0  0
  186.4310  176.7460  135.0800 C   0  0  0  0  0  3  0  0  0  0  0  0
  187.7310  178.4820  135.9710 C   0  0  0  0  0  2  0  0  0  0  0  0
  186.6730  178.0820  136.9270 C   0  0  0  0  0  0  0  0  0  0  0  0
  185.9820  177.0800  136.4480 C   0  0  0  0  0  0  0  0  0  0  0  0
  184.9540  176.3120  137.2150 C   0  0  0  0  0  2  0  0  0  0  0  0
  182.9030  176.8220  136.1570 O   0  0  0  0  0  0  0  0  0  0  0  0
  183.6090  176.9790  137.1410 C   0  0  0  0  0  0  0  0  0  0  0  0
  181.0120  177.9510  140.6550 N   0  0  0  0  0  2  0  0  0  0  0  0
  181.9930  179.9900  138.6340 C   0  0  0  0  0  2  0  0  0  0  0  0
  180.7490  180.0990  139.5000 C   0  0  1  0  0  3  0  0  0  0  0  0
  181.9800  178.7140  137.8180 C   0  0  0  0  0  2  0  0  0  0  0  0
  183.0810  177.7740  138.2910 C   0  0  1  0  0  3  0  0  0  0  0  0
  182.5870  176.8510  139.3980 C   0  0  0  0  0  2  0  0  0  0  0  0
  182.3720  177.6000  140.6240 N   0  0  0  0  0  2  0  0  0  0  0  0
  180.9450  179.3920  140.8420 C   0  0  1  0  0  3  0  0  0  0  0  0
  180.4780  181.4400  139.7030 F   0  0  0  0  0  0  0  0  0  0  0  0
  178.9790  178.8360  142.0970 O   0  0  0  0  0  0  0  0  0  0  0  0
  179.7190  180.9950  142.3040 O   0  0  0  0  0  1  0  0  0  0  0  0
  179.8270  179.7140  141.7820 C   0  0  0  0  0  0  0  0  0  0  0  0
  190.6930  175.3990  136.7470 N   0  0  0  0  0  2  0  0  0  0  0  0
  191.4320  174.1850  137.0650 C   0  0  0  0  0  2  0  0  0  0  0  0
  190.1560  172.6770  135.7260 O   0  0  0  0  0  0  0  0  0  0  0  0
  191.2860  173.1910  135.9630 C   0  0  0  0  0  0  0  0  0  0  0  0
  192.4030  172.8630  135.1910 O   0  0  0  0  0  0  0  0  0  0  0  0
  193.5330  172.1940  135.7360 C   0  0  0  0  0  2  0  0  0  0  0  0
  194.6940  172.6370  135.1040 O   0  0  0  0  0  0  0  0  0  0  0  0
  195.5750  172.8290  136.1140 N   0  0  0  0  0  2  0  0  0  0  0  0
  197.3430  175.4220  135.9100 C   0  0  1  0  0  3  0  0  0  0  0  0
  195.8190  175.2450  135.7810 C   0  0  2  0  0  3  0  0  0  0  0  0
  195.5600  173.1110  138.9120 N   0  0  0  0  0  1  0  0  0  0  0  0
  195.1810  176.4480  136.0910 O   0  0  0  0  0  1  0  0  0  0  0  0
  197.4310  174.3650  137.9620 C   0  0  0  0  0  2  0  0  0  0  0  0
  197.7790  175.5350  137.2540 O   0  0  0  0  0  0  0  0  0  0  0  0
  195.2900  174.1340  136.6970 C   0  0  2  0  0  3  0  0  0  0  0  0
  195.9140  174.2550  138.0880 C   0  0  1  0  0  3  0  0  0  0  0  0
  198.1310  174.3820  135.1200 C   0  0  0  0  0  1  0  0  0  0  0  0
  187.1080  178.6950  140.6290 C   0  0  0  0  0  2  0  0  0  0  0  0
  185.6140  178.8920  140.7880 C   0  0  0  0  0  2  0  0  0  0  0  0
  186.8990  177.7500  145.9950 N   0  0  0  0  0  0  0  0  0  0  0  0
  185.7390  178.2760  145.7380 C   0  0  0  0  0  0  0  0  0  0  0  0
  186.6900  177.3540  143.0420 C   0  0  0  0  0  3  0  0  0  0  0  0
  184.7180  178.3160  146.8190 C   0  0  0  0  0  1  0  0  0  0  0  0
  185.3090  179.2550  142.1610 N   0  0  0  0  0  2  0  0  0  0  0  0
  185.4220  178.8840  144.4730 N   0  0  0  0  0  0  0  0  0  0  0  0
  188.0330  177.7530  145.0730 C   0  0  2  0  0  3  0  0  0  0  0  0
  185.8220  178.5330  143.2830 C   0  0  0  0  0  0  0  0  0  0  0  0
  187.6720  176.9690  143.8500 C   0  0  0  0  0  3  0  0  0  0  0  0
  189.5460  177.9810  146.8970 C   0  0  0  0  0  2  0  0  0  0  0  0
  190.3520  177.3520  144.7920 C   0  0  0  0  0  2  0  0  0  0  0  0
  192.0650  176.8830  146.4160 O   0  0  0  0  0  0  0  0  0  0  0  0
  189.2240  177.1830  145.7130 N   0  0  2  0  0  0  0  0  0  0  0  0
  190.2280  177.1250  147.9700 C   0  0  0  0  0  2  0  0  0  0  0  0
  191.3240  176.2170  147.4020 C   0  0  0  0  0  2  0  0  0  0  0  0
  191.5190  176.4560  145.1980 C   0  0  0  0  0  2  0  0  0  0  0  0
  1  4  1  0  0  0  0
  1  3  1  1  0  0  0
  2  6  2  0  0  0  0
  3  6  1  0  0  0  0
  3  7  1  0  0  0  0
  4  7  1  1  0  0  0
  5 28  1  6  0  0  0
  5  1  1  0  0  0  0
  5  4  1  0  0  0  0
  6 45  1  0  0  0  0
  8  9  2  0  0  0  0
  8 10  1  0  0  0  0
  9 12  1  0  0  0  0
 10 11  1  0  0  0  0
 11  2  1  0  0  0  0
 12 11  2  0  0  0  0
 12 13  1  0  0  0  0
 14 15  2  0  0  0  0
 15 13  1  0  0  0  0
 16 23  1  0  0  0  0
 17 18  1  0  0  0  0
 18 24  1  1  0  0  0
 18 23  1  0  0  0  0
 19 20  1  0  0  0  0
 19 17  1  0  0  0  0
 20 15  1  6  0  0  0
 20 21  1  0  0  0  0
 21 22  1  0  0  0  0
 22 16  1  0  0  0  0
 23 27  1  1  0  0  0
 27 25  2  0  0  0  0
 27 26  1  0  0  0  0
 28 29  1  0  0  0  0
 30 31  2  0  0  0  0
 31 29  1  0  0  0  0
 32 33  1  0  0  0  0
 32 31  1  0  0  0  0
 34 33  1  0  0  0  0
 34 35  1  0  0  0  0
 36 44  1  1  0  0  0
 36 41  1  0  0  0  0
 37 36  1  0  0  0  0
 37 39  1  1  0  0  0
 37 42  1  0  0  0  0
 40 43  1  0  0  0  0
 41 40  1  0  0  0  0
 42 35  1  6  0  0  0
 42 43  1  0  0  0  0
 43 38  1  1  0  0  0
 45 46  1  0  0  0  0
 46 51  1  0  0  0  0
 48 47  2  0  0  0  0
 48 50  1  0  0  0  0
 49 54  1  0  0  0  0
 49 55  2  0  0  0  0
 51 54  1  0  0  0  0
 52 48  1  0  0  0  0
 53 55  1  6  0  0  0
 53 59  1  0  0  0  0
 53 47  1  0  0  0  0
 54 52  2  0  0  0  0
 56 60  1  0  0  0  0
 57 62  1  0  0  0  0
 58 61  1  0  0  0  0
 59 57  1  6  0  0  0
 59 56  1  0  0  0  0
 61 60  1  0  0  0  0
 62 58  1  0  0  0  0
M  END
>  <MODEL>
1

>  <REMARK>
 VINA RESULT:      -9.1      0.000      0.000
  Name = 
  17 active torsions:
  status: ('A' for Active; 'I' for Inactive)
    1  A    between atoms: C_2  and  N_37
    2  A    between atoms: C_2  and  C_50
    3  A    between atoms: C_5  and  N_18
    4  A    between atoms: C_5  and  C_27
    5  A    between atoms: N_17  and  C_41
    6  A    between atoms: C_22  and  C_33
    7  A    between atoms: C_22  and  C_36
    8  A    between atoms: N_24  and  C_48
    9  A    between atoms: N_24  and  O_53
   10  A    between atoms: C_27  and  C_55
   11  A    between atoms: C_31  and  N_44
   12  A    between atoms: C_33  and  C_57
   13  A    between atoms: N_37  and  C_54
   14  A    between atoms: C_45  and  O_47
   15  A    between atoms: C_45  and  O_53
   16  A    between atoms: O_47  and  C_50
   17  A    between atoms: C_56  and  C_61
                            x       y       z     vdW  Elec       q    Type
                         _______ _______ _______ _____ _____    ______ ____

>  <TORSDO>
F 17

$$$$
=
 OpenBabel10222416213D

 62 68  0  0  1  0  0  0  0  0999 V2000
  184.2220  178.2640  142.4000 C   0  0  1  0  0  3  0  0  0  0  0  0
  181.9450  179.0760  140.2180 N   0  0  0  0  0  0  0  0  0  0  0  0
  184.1680  178.9930  141.1190 N   0  0  0  0  0  0  0  0  0  0  0  0
  185.6610  178.4820  142.5200 C   0  0  2  0  0  3  0  0  0  0  0  0
  184.7380  179.1720  143.4960 C   0  0  2  0  0  3  0  0  0  0  0  0
  183.2250  179.2630  140.0740 C   0  0  0  0  0  0  0  0  0  0  0  0
  185.5760  179.1500  141.2610 N   0  0  0  0  0  2  0  0  0  0  0  0
  180.4690  178.9180  143.6490 N   0  0  0  0  0  0  0  0  0  0  0  0
  179.5370  178.1480  142.8220 C   0  0  0  0  0  2  0  0  0  0  0  0
  181.5180  179.4020  142.7470 C   0  0  0  0  0  3  0  0  0  0  0  0
  181.2490  178.7740  141.4330 C   0  0  0  0  0  0  0  0  0  0  0  0
  180.1190  178.1180  141.4640 C   0  0  0  0  0  0  0  0  0  0  0  0
  179.4540  177.5110  140.2700 C   0  0  0  0  0  2  0  0  0  0  0  0
  179.2230  175.4630  141.4280 O   0  0  0  0  0  0  0  0  0  0  0  0
  179.4410  176.0110  140.3580 C   0  0  0  0  0  0  0  0  0  0  0  0
  180.2380  172.3160  137.9590 N   0  0  0  0  0  2  0  0  0  0  0  0
  181.1300  175.1040  137.1590 C   0  0  0  0  0  2  0  0  0  0  0  0
  181.7660  173.7910  136.7330 C   0  0  1  0  0  3  0  0  0  0  0  0
  181.0640  175.2110  138.6690 C   0  0  0  0  0  2  0  0  0  0  0  0
  179.6150  175.1670  139.1370 C   0  0  1  0  0  3  0  0  0  0  0  0
  179.1610  173.7380  139.4050 C   0  0  0  0  0  2  0  0  0  0  0  0
  179.0290  173.0050  138.1570 N   0  0  0  0  0  2  0  0  0  0  0  0
  180.7240  172.6760  136.6360 C   0  0  1  0  0  3  0  0  0  0  0  0
  182.3730  173.9820  135.5040 F   0  0  0  0  0  0  0  0  0  0  0  0
  180.7210  170.9290  134.9940 O   0  0  0  0  0  0  0  0  0  0  0  0
  182.4790  170.9150  136.4640 O   0  0  0  0  0  1  0  0  0  0  0  0
  181.3000  171.4630  135.9780 C   0  0  0  0  0  0  0  0  0  0  0  0
  184.7450  178.4530  144.7600 N   0  0  0  0  0  2  0  0  0  0  0  0
  186.1340  178.3060  145.1730 C   0  0  0  0  0  2  0  0  0  0  0  0
  185.6820  179.2260  147.3280 O   0  0  0  0  0  0  0  0  0  0  0  0
  186.2290  178.3020  146.6610 C   0  0  0  0  0  0  0  0  0  0  0  0
  186.9040  177.2570  147.2970 O   0  0  0  0  0  0  0  0  0  0  0  0
  188.1640  177.4400  147.9300 C   0  0  0  0  0  2  0  0  0  0  0  0
  189.0150  178.1540  147.0890 O   0  0  0  0  0  0  0  0  0  0  0  0
  189.4940  177.2270  146.2270 N   0  0  0  0  0  2  0  0  0  0  0  0
  189.9420  177.1460  143.1140 C   0  0  1  0  0  3  0  0  0  0  0  0
  190.0740  178.3150  144.1080 C   0  0  2  0  0  3  0  0  0  0  0  0
  192.1240  176.2940  146.5850 N   0  0  0  0  0  1  0  0  0  0  0  0
  190.9470  179.2740  143.5890 O   0  0  0  0  0  1  0  0  0  0  0  0
  191.3630  175.7820  144.3190 C   0  0  0  0  0  2  0  0  0  0  0  0
  191.1040  176.3370  143.0490 O   0  0  0  0  0  0  0  0  0  0  0  0
  190.5800  177.8500  145.4790 C   0  0  2  0  0  3  0  0  0  0  0  0
  191.7490  176.8780  145.3080 C   0  0  1  0  0  3  0  0  0  0  0  0
  188.6680  176.3320  143.3200 C   0  0  0  0  0  1  0  0  0  0  0  0
  183.7430  179.6240  138.7260 C   0  0  0  0  0  2  0  0  0  0  0  0
  183.0060  178.8300  137.6670 C   0  0  0  0  0  2  0  0  0  0  0  0
  187.1100  175.2280  137.1600 N   0  0  0  0  0  0  0  0  0  0  0  0
  185.8870  174.8010  137.0560 C   0  0  0  0  0  0  0  0  0  0  0  0
  185.6020  177.7810  136.7940 C   0  0  0  0  0  3  0  0  0  0  0  0
  185.6530  173.4190  136.5590 C   0  0  0  0  0  1  0  0  0  0  0  0
  183.3290  177.4200  137.7960 N   0  0  0  0  0  2  0  0  0  0  0  0
  184.7510  175.5840  137.4640 N   0  0  0  0  0  0  0  0  0  0  0  0
  187.4930  176.5110  137.7440 C   0  0  2  0  0  3  0  0  0  0  0  0
  184.5880  176.8760  137.3870 C   0  0  0  0  0  0  0  0  0  0  0  0
  186.9150  177.6180  136.9180 C   0  0  0  0  0  3  0  0  0  0  0  0
  189.5500  175.3460  137.4600 C   0  0  0  0  0  2  0  0  0  0  0  0
  189.3150  176.8770  139.2140 C   0  0  0  0  0  2  0  0  0  0  0  0
  191.6600  176.4070  138.9440 O   0  0  0  0  0  0  0  0  0  0  0  0
  188.9530  176.6350  137.8150 N   0  0  2  0  0  0  0  0  0  0  0  0
  190.9250  175.5350  136.8110 C   0  0  0  0  0  2  0  0  0  0  0  0
  191.8030  176.5460  137.5570 C   0  0  0  0  0  2  0  0  0  0  0  0
  190.7450  177.4000  139.3190 C   0  0  0  0  0  2  0  0  0  0  0  0
  1  3  1  6  0  0  0
  1  4  1  0  0  0  0
  1  5  1  0  0  0  0
  2 11  1  0  0  0  0
  3  7  1  0  0  0  0
  4  7  1  6  0  0  0
  4  5  1  0  0  0  0
  5 28  1  1  0  0  0
  6  2  2  0  0  0  0
  6  3  1  0  0  0  0
  9  8  1  0  0  0  0
 10  8  2  0  0  0  0
 11 12  2  0  0  0  0
 11 10  1  0  0  0  0
 12  9  1  0  0  0  0
 13 15  1  0  0  0  0
 13 12  1  0  0  0  0
 15 14  2  0  0  0  0
 16 22  1  0  0  0  0
 17 19  1  0  0  0  0
 18 24  1  6  0  0  0
 18 17  1  0  0  0  0
 19 20  1  0  0  0  0
 20 21  1  0  0  0  0
 20 15  1  1  0  0  0
 22 21  1  0  0  0  0
 23 27  1  1  0  0  0
 23 18  1  0  0  0  0
 23 16  1  0  0  0  0
 25 27  2  0  0  0  0
 27 26  1  0  0  0  0
 28 29  1  0  0  0  0
 29 31  1  0  0  0  0
 31 32  1  0  0  0  0
 31 30  2  0  0  0  0
 32 33  1  0  0  0  0
 34 33  1  0  0  0  0
 35 34  1  0  0  0  0
 36 44  1  1  0  0  0
 36 37  1  0  0  0  0
 37 39  1  6  0  0  0
 37 42  1  0  0  0  0
 40 43  1  0  0  0  0
 41 36  1  0  0  0  0
 41 40  1  0  0  0  0
 42 35  1  6  0  0  0
 43 42  1  0  0  0  0
 43 38  1  1  0  0  0
 45  6  1  0  0  0  0
 46 51  1  0  0  0  0
 46 45  1  0  0  0  0
 47 53  1  0  0  0  0
 48 47  2  0  0  0  0
 48 52  1  0  0  0  0
 49 55  2  0  0  0  0
 49 54  1  0  0  0  0
 50 48  1  0  0  0  0
 53 55  1  6  0  0  0
 53 59  1  0  0  0  0
 54 52  2  0  0  0  0
 54 51  1  0  0  0  0
 57 62  1  0  0  0  0
 58 62  1  0  0  0  0
 59 56  1  1  0  0  0
 59 57  1  0  0  0  0
 60 56  1  0  0  0  0
 60 61  1  0  0  0  0
 61 58  1  0  0  0  0
M  END
>  <MODEL>
2

>  <REMARK>
 VINA RESULT:      -8.6      3.525      8.863
  Name = 
  17 active torsions:
  status: ('A' for Active; 'I' for Inactive)
    1  A    between atoms: C_2  and  N_37
    2  A    between atoms: C_2  and  C_50
    3  A    between atoms: C_5  and  N_18
    4  A    between atoms: C_5  and  C_27
    5  A    between atoms: N_17  and  C_41
    6  A    between atoms: C_22  and  C_33
    7  A    between atoms: C_22  and  C_36
    8  A    between atoms: N_24  and  C_48
    9  A    between atoms: N_24  and  O_53
   10  A    between atoms: C_27  and  C_55
   11  A    between atoms: C_31  and  N_44
   12  A    between atoms: C_33  and  C_57
   13  A    between atoms: N_37  and  C_54
   14  A    between atoms: C_45  and  O_47
   15  A    between atoms: C_45  and  O_53
   16  A    between atoms: O_47  and  C_50
   17  A    between atoms: C_56  and  C_61
                            x       y       z     vdW  Elec       q    Type
                         _______ _______ _______ _____ _____    ______ ____

>  <TORSDO>
F 17

$$$$
=
 OpenBabel10222416213D

 62 68  0  0  1  0  0  0  0  0999 V2000
  187.9800  177.4050  137.4400 C   0  0  1  0  0  3  0  0  0  0  0  0
  184.8650  178.0270  138.1530 N   0  0  0  0  0  0  0  0  0  0  0  0
  187.2080  177.8240  138.6250 N   0  0  0  0  0  0  0  0  0  0  0  0
  189.2340  177.4230  138.1880 C   0  0  2  0  0  3  0  0  0  0  0  0
  188.6890  176.0960  137.7140 C   0  0  2  0  0  3  0  0  0  0  0  0
  185.8730  178.2270  138.9510 C   0  0  0  0  0  0  0  0  0  0  0  0
  188.4590  177.8610  139.3050 N   0  0  0  0  0  2  0  0  0  0  0  0
  185.4510  176.3750  134.8520 N   0  0  0  0  0  0  0  0  0  0  0  0
  184.6830  175.3890  135.6140 C   0  0  0  0  0  3  0  0  0  0  0  0
  185.6460  177.5230  135.7410 C   0  0  0  0  0  2  0  0  0  0  0  0
  184.8540  177.2370  136.9590 C   0  0  0  0  0  0  0  0  0  0  0  0
  184.3600  176.0270  136.9070 C   0  0  0  0  0  0  0  0  0  0  0  0
  183.6580  175.3450  138.0380 C   0  0  0  0  0  2  0  0  0  0  0  0
  181.6430  174.3990  137.2430 O   0  0  0  0  0  0  0  0  0  0  0  0
  182.1700  175.3340  137.8270 C   0  0  0  0  0  0  0  0  0  0  0  0
  180.7590  179.5030  138.6410 N   0  0  0  0  0  2  0  0  0  0  0  0
  180.6330  177.2300  140.6470 C   0  0  0  0  0  2  0  0  0  0  0  0
  180.6840  178.7150  140.9630 C   0  0  1  0  0  3  0  0  0  0  0  0
  181.7990  176.8190  139.7720 C   0  0  0  0  0  2  0  0  0  0  0  0
  181.3040  176.4150  138.3890 C   0  0  1  0  0  3  0  0  0  0  0  0
  181.2570  177.6080  137.4440 C   0  0  0  0  0  2  0  0  0  0  0  0
  180.1860  178.5140  137.8240 N   0  0  0  0  0  2  0  0  0  0  0  0
  179.9900  179.5370  139.8760 C   0  0  1  0  0  3  0  0  0  0  0  0
  180.0650  178.9200  142.1830 F   0  0  0  0  0  0  0  0  0  0  0  0
  179.4510  181.2330  141.4820 O   0  0  0  0  0  1  0  0  0  0  0  0
  180.0600  181.9830  139.4030 O   0  0  0  0  0  0  0  0  0  0  0  0
  179.8190  180.9580  140.3080 C   0  0  0  0  0  0  0  0  0  0  0  0
  189.4100  175.6750  136.5240 N   0  0  0  0  0  2  0  0  0  0  0  0
  190.7280  175.2200  136.9460 C   0  0  0  0  0  2  0  0  0  0  0  0
  191.6250  175.8760  134.8350 O   0  0  0  0  0  0  0  0  0  0  0  0
  191.7820  175.8320  136.0880 C   0  0  0  0  0  0  0  0  0  0  0  0
  192.9210  176.3720  136.6900 O   0  0  0  0  0  0  0  0  0  0  0  0
  193.4050  175.9160  137.9470 C   0  0  0  0  0  2  0  0  0  0  0  0
  194.7710  175.6580  137.8620 O   0  0  0  0  0  0  0  0  0  0  0  0
  194.8550  174.3120  137.7480 N   0  0  0  0  0  2  0  0  0  0  0  0
  197.1030  174.2890  135.5480 C   0  0  1  0  0  3  0  0  0  0  0  0
  197.1410  174.7930  137.0030 C   0  0  2  0  0  3  0  0  0  0  0  0
  195.5130  171.6520  138.3870 N   0  0  0  0  0  1  0  0  0  0  0  0
  198.4560  174.7740  137.4720 O   0  0  0  0  0  1  0  0  0  0  0  0
  196.3330  172.1960  136.1490 C   0  0  0  0  0  2  0  0  0  0  0  0
  197.3300  172.8940  135.4370 O   0  0  0  0  0  0  0  0  0  0  0  0
  196.2550  173.9470  137.9270 C   0  0  2  0  0  3  0  0  0  0  0  0
  196.4690  172.4590  137.6460 C   0  0  1  0  0  3  0  0  0  0  0  0
  195.8600  174.7460  134.7930 C   0  0  0  0  0  1  0  0  0  0  0  0
  185.6570  179.0420  140.1790 C   0  0  0  0  0  2  0  0  0  0  0  0
  184.4970  178.4720  140.9710 C   0  0  0  0  0  2  0  0  0  0  0  0
  186.9530  178.0060  145.8520 N   0  0  0  0  0  0  0  0  0  0  0  0
  185.7560  178.5090  145.7990 C   0  0  0  0  0  0  0  0  0  0  0  0
  186.0840  177.2290  143.1010 C   0  0  0  0  0  3  0  0  0  0  0  0
  185.0070  178.7030  147.0700 C   0  0  0  0  0  1  0  0  0  0  0  0
  184.5060  179.0170  142.3170 N   0  0  0  0  0  2  0  0  0  0  0  0
  185.1490  178.9500  144.5720 N   0  0  0  0  0  0  0  0  0  0  0  0
  187.8470  177.8720  144.7030 C   0  0  2  0  0  3  0  0  0  0  0  0
  185.2740  178.4400  143.3780 C   0  0  0  0  0  0  0  0  0  0  0  0
  187.2300  176.9400  143.7080 C   0  0  0  0  0  3  0  0  0  0  0  0
  189.3970  177.7870  146.5090 C   0  0  0  0  0  2  0  0  0  0  0  0
  190.1770  178.0610  144.3190 C   0  0  0  0  0  2  0  0  0  0  0  0
  192.0450  177.4380  145.7050 O   0  0  0  0  0  0  0  0  0  0  0  0
  189.1620  177.3760  145.1240 N   0  0  2  0  0  0  0  0  0  0  0  0
  190.2940  176.7820  147.2380 C   0  0  0  0  0  2  0  0  0  0  0  0
  191.5070  176.3510  146.4060 C   0  0  0  0  0  2  0  0  0  0  0  0
  191.5180  177.3350  144.4100 C   0  0  0  0  0  2  0  0  0  0  0  0
  1  5  1  0  0  0  0
  1  4  1  0  0  0  0
  1  3  1  1  0  0  0
  2  6  2  0  0  0  0
  3  6  1  0  0  0  0
  3  7  1  0  0  0  0
  4  7  1  1  0  0  0
  5 28  1  6  0  0  0
  5  4  1  0  0  0  0
  6 45  1  0  0  0  0
  8  9  2  0  0  0  0
  8 10  1  0  0  0  0
  9 12  1  0  0  0  0
 10 11  1  0  0  0  0
 11  2  1  0  0  0  0
 12 11  2  0  0  0  0
 12 13  1  0  0  0  0
 14 15  2  0  0  0  0
 15 13  1  0  0  0  0
 16 23  1  0  0  0  0
 17 18  1  0  0  0  0
 18 24  1  1  0  0  0
 19 17  1  0  0  0  0
 20 15  1  6  0  0  0
 20 19  1  0  0  0  0
 21 22  1  0  0  0  0
 21 20  1  0  0  0  0
 22 16  1  0  0  0  0
 23 27  1  1  0  0  0
 23 18  1  0  0  0  0
 26 27  2  0  0  0  0
 27 25  1  0  0  0  0
 28 29  1  0  0  0  0
 30 31  2  0  0  0  0
 31 32  1  0  0  0  0
 31 29  1  0  0  0  0
 32 33  1  0  0  0  0
 34 33  1  0  0  0  0
 35 34  1  0  0  0  0
 36 44  1  1  0  0  0
 36 37  1  0  0  0  0
 37 39  1  1  0  0  0
 37 42  1  0  0  0  0
 40 43  1  0  0  0  0
 41 36  1  0  0  0  0
 41 40  1  0  0  0  0
 42 35  1  6  0  0  0
 43 42  1  0  0  0  0
 43 38  1  1  0  0  0
 45 46  1  0  0  0  0
 46 51  1  0  0  0  0
 48 47  2  0  0  0  0
 48 50  1  0  0  0  0
 49 54  1  0  0  0  0
 49 55  2  0  0  0  0
 51 54  1  0  0  0  0
 52 48  1  0  0  0  0
 53 55  1  6  0  0  0
 53 59  1  0  0  0  0
 53 47  1  0  0  0  0
 54 52  2  0  0  0  0
 56 60  1  0  0  0  0
 57 62  1  0  0  0  0
 58 61  1  0  0  0  0
 59 57  1  6  0  0  0
 59 56  1  0  0  0  0
 61 60  1  0  0  0  0
 62 58  1  0  0  0  0
M  END
>  <MODEL>
3

>  <REMARK>
 VINA RESULT:      -7.9      1.635      2.179
  Name = 
  17 active torsions:
  status: ('A' for Active; 'I' for Inactive)
    1  A    between atoms: C_2  and  N_37
    2  A    between atoms: C_2  and  C_50
    3  A    between atoms: C_5  and  N_18
    4  A    between atoms: C_5  and  C_27
    5  A    between atoms: N_17  and  C_41
    6  A    between atoms: C_22  and  C_33
    7  A    between atoms: C_22  and  C_36
    8  A    between atoms: N_24  and  C_48
    9  A    between atoms: N_24  and  O_53
   10  A    between atoms: C_27  and  C_55
   11  A    between atoms: C_31  and  N_44
   12  A    between atoms: C_33  and  C_57
   13  A    between atoms: N_37  and  C_54
   14  A    between atoms: C_45  and  O_47
   15  A    between atoms: C_45  and  O_53
   16  A    between atoms: O_47  and  C_50
   17  A    between atoms: C_56  and  C_61
                            x       y       z     vdW  Elec       q    Type
                         _______ _______ _______ _____ _____    ______ ____

>  <TORSDO>
F 17

$$$$
=
 OpenBabel10222416213D

 62 68  0  0  1  0  0  0  0  0999 V2000
  182.9290  179.0780  138.9540 C   0  0  1  0  0  3  0  0  0  0  0  0
  186.0890  178.3490  139.2440 N   0  0  0  0  0  0  0  0  0  0  0  0
  183.9690  178.4400  138.1240 N   0  0  0  0  0  0  0  0  0  0  0  0
  181.9190  178.8980  137.9140 C   0  0  2  0  0  3  0  0  0  0  0  0
  181.7890  178.1110  139.1960 C   0  0  2  0  0  3  0  0  0  0  0  0
  185.3830  178.2140  138.1590 C   0  0  0  0  0  0  0  0  0  0  0  0
  182.9600  178.3180  137.1260 N   0  0  0  0  0  2  0  0  0  0  0  0
  184.2500  178.3780  142.4970 N   0  0  0  0  0  0  0  0  0  0  0  0
  185.6170  178.7580  142.8560 C   0  0  0  0  0  2  0  0  0  0  0  0
  184.2520  178.1460  141.0510 C   0  0  0  0  0  3  0  0  0  0  0  0
  185.5970  178.5420  140.5740 C   0  0  0  0  0  0  0  0  0  0  0  0
  186.3710  178.8340  141.5870 C   0  0  0  0  0  0  0  0  0  0  0  0
  187.8380  179.1040  141.4860 C   0  0  0  0  0  2  0  0  0  0  0  0
  188.7850  176.9510  141.2520 O   0  0  0  0  0  0  0  0  0  0  0  0
  188.6420  177.9290  141.9690 C   0  0  0  0  0  0  0  0  0  0  0  0
  191.5250  176.6890  145.1610 N   0  0  0  0  0  2  0  0  0  0  0  0
  188.7240  177.7290  145.6920 C   0  0  0  0  0  2  0  0  0  0  0  0
  189.5440  176.8270  146.6000 C   0  0  1  0  0  3  0  0  0  0  0  0
  188.5840  177.1270  144.3090 C   0  0  0  0  0  2  0  0  0  0  0  0
  189.3420  177.9660  143.2890 C   0  0  1  0  0  3  0  0  0  0  0  0
  190.7840  177.4970  143.1430 C   0  0  0  0  0  2  0  0  0  0  0  0
  191.5470  177.8260  144.3350 N   0  0  0  0  0  2  0  0  0  0  0  0
  191.0400  177.1160  146.4640 C   0  0  1  0  0  3  0  0  0  0  0  0
  189.1350  177.0390  147.9050 F   0  0  0  0  0  0  0  0  0  0  0  0
  192.4300  177.0690  148.4170 O   0  0  0  0  0  1  0  0  0  0  0  0
  191.8720  175.0270  147.5390 O   0  0  0  0  0  0  0  0  0  0  0  0
  191.8180  176.4140  147.5310 C   0  0  0  0  0  0  0  0  0  0  0  0
  180.7930  178.7390  140.0490 N   0  0  0  0  0  2  0  0  0  0  0  0
  180.8870  178.1200  141.3640 C   0  0  0  0  0  2  0  0  0  0  0  0
  178.9320  178.4900  142.6800 O   0  0  0  0  0  0  0  0  0  0  0  0
  179.5300  177.7450  141.8540 C   0  0  0  0  0  0  0  0  0  0  0  0
  178.9310  176.5800  141.3680 O   0  0  0  0  0  0  0  0  0  0  0  0
  179.6840  175.5180  140.7990 C   0  0  0  0  0  2  0  0  0  0  0  0
  179.2190  175.2450  139.5140 O   0  0  0  0  0  0  0  0  0  0  0  0
  180.1970  174.4960  138.9520 N   0  0  0  0  0  2  0  0  0  0  0  0
  179.6790  173.1200  136.1700 C   0  0  1  0  0  3  0  0  0  0  0  0
  179.4130  174.5660  136.6300 C   0  0  2  0  0  3  0  0  0  0  0  0
  182.8590  174.9650  138.1750 N   0  0  0  0  0  1  0  0  0  0  0  0
  179.3970  175.4140  135.5200 O   0  0  0  0  0  1  0  0  0  0  0  0
  181.8980  173.1800  136.8080 C   0  0  0  0  0  2  0  0  0  0  0  0
  181.0140  172.9090  135.7440 O   0  0  0  0  0  0  0  0  0  0  0  0
  180.4660  175.0540  137.6320 C   0  0  2  0  0  3  0  0  0  0  0  0
  181.8680  174.6660  137.1550 C   0  0  1  0  0  3  0  0  0  0  0  0
  179.2120  172.0800  137.1840 C   0  0  0  0  0  1  0  0  0  0  0  0
  186.0940  177.9660  136.8740 C   0  0  0  0  0  2  0  0  0  0  0  0
  187.5410  177.6100  137.1530 C   0  0  0  0  0  2  0  0  0  0  0  0
  191.1570  173.7110  135.8130 N   0  0  0  0  0  0  0  0  0  0  0  0
  189.8900  173.4260  135.7840 C   0  0  0  0  0  0  0  0  0  0  0  0
  189.9170  176.4280  135.9050 C   0  0  0  0  0  3  0  0  0  0  0  0
  189.4610  172.1490  135.1530 C   0  0  0  0  0  1  0  0  0  0  0  0
  187.7150  176.1700  137.0820 N   0  0  0  0  0  2  0  0  0  0  0  0
  188.8890  174.2590  136.3940 N   0  0  0  0  0  0  0  0  0  0  0  0
  191.7310  174.8650  136.5030 C   0  0  2  0  0  3  0  0  0  0  0  0
  188.8640  175.5600  136.4870 C   0  0  0  0  0  0  0  0  0  0  0  0
  191.2090  176.1200  135.8760 C   0  0  0  0  0  3  0  0  0  0  0  0
  193.7270  175.0340  137.7900 C   0  0  0  0  0  2  0  0  0  0  0  0
  193.6380  175.9870  135.6540 C   0  0  0  0  0  2  0  0  0  0  0  0
  195.9480  175.8660  136.3210 O   0  0  0  0  0  0  0  0  0  0  0  0
  193.1960  174.8320  136.4410 N   0  0  2  0  0  0  0  0  0  0  0  0
  195.0730  174.3230  137.9650 C   0  0  0  0  0  2  0  0  0  0  0  0
  196.0240  174.5460  136.7840 C   0  0  0  0  0  2  0  0  0  0  0  0
  195.0900  175.8160  135.2140 C   0  0  0  0  0  2  0  0  0  0  0  0
  1  3  1  6  0  0  0
  1  5  1  0  0  0  0
  2 11  1  0  0  0  0
  3  6  1  0  0  0  0
  4  7  1  6  0  0  0
  4  1  1  0  0  0  0
  4  5  1  0  0  0  0
  5 28  1  1  0  0  0
  6  2  2  0  0  0  0
  7  3  1  0  0  0  0
  8  9  1  0  0  0  0
 10  8  2  0  0  0  0
 11 10  1  0  0  0  0
 11 12  2  0  0  0  0
 12  9  1  0  0  0  0
 13 12  1  0  0  0  0
 13 15  1  0  0  0  0
 14 15  2  0  0  0  0
 16 23  1  0  0  0  0
 17 18  1  0  0  0  0
 18 24  1  1  0  0  0
 19 17  1  0  0  0  0
 20 15  1  6  0  0  0
 20 19  1  0  0  0  0
 21 20  1  0  0  0  0
 21 22  1  0  0  0  0
 22 16  1  0  0  0  0
 23 18  1  0  0  0  0
 23 27  1  1  0  0  0
 27 26  2  0  0  0  0
 27 25  1  0  0  0  0
 28 29  1  0  0  0  0
 29 31  1  0  0  0  0
 31 30  2  0  0  0  0
 32 31  1  0  0  0  0
 33 32  1  0  0  0  0
 34 33  1  0  0  0  0
 35 34  1  0  0  0  0
 36 37  1  0  0  0  0
 36 44  1  1  0  0  0
 37 39  1  6  0  0  0
 37 42  1  0  0  0  0
 40 43  1  0  0  0  0
 41 36  1  0  0  0  0
 41 40  1  0  0  0  0
 42 35  1  1  0  0  0
 43 42  1  0  0  0  0
 43 38  1  1  0  0  0
 45 46  1  0  0  0  0
 45  6  1  0  0  0  0
 47 53  1  0  0  0  0
 48 47  2  0  0  0  0
 48 52  1  0  0  0  0
 49 54  1  0  0  0  0
 50 48  1  0  0  0  0
 51 46  1  0  0  0  0
 52 54  2  0  0  0  0
 53 55  1  6  0  0  0
 54 51  1  0  0  0  0
 55 49  2  0  0  0  0
 56 60  1  0  0  0  0
 58 61  1  0  0  0  0
 59 57  1  6  0  0  0
 59 53  1  0  0  0  0
 59 56  1  0  0  0  0
 61 60  1  0  0  0  0
 62 57  1  0  0  0  0
 62 58  1  0  0  0  0
M  END
>  <MODEL>
4

>  <REMARK>
 VINA RESULT:      -7.6      3.028     11.360
  Name = 
  17 active torsions:
  status: ('A' for Active; 'I' for Inactive)
    1  A    between atoms: C_2  and  N_37
    2  A    between atoms: C_2  and  C_50
    3  A    between atoms: C_5  and  N_18
    4  A    between atoms: C_5  and  C_27
    5  A    between atoms: N_17  and  C_41
    6  A    between atoms: C_22  and  C_33
    7  A    between atoms: C_22  and  C_36
    8  A    between atoms: N_24  and  C_48
    9  A    between atoms: N_24  and  O_53
   10  A    between atoms: C_27  and  C_55
   11  A    between atoms: C_31  and  N_44
   12  A    between atoms: C_33  and  C_57
   13  A    between atoms: N_37  and  C_54
   14  A    between atoms: C_45  and  O_47
   15  A    between atoms: C_45  and  O_53
   16  A    between atoms: O_47  and  C_50
   17  A    between atoms: C_56  and  C_61
                            x       y       z     vdW  Elec       q    Type
                         _______ _______ _______ _____ _____    ______ ____

>  <TORSDO>
F 17

$$$$
=
 OpenBabel10222416213D

 62 68  0  0  1  0  0  0  0  0999 V2000
  188.6970  174.9700  136.4040 C   0  0  1  0  0  3  0  0  0  0  0  0
  186.2480  176.5740  137.8290 N   0  0  0  0  0  0  0  0  0  0  0  0
  187.2480  174.7740  136.5970 N   0  0  0  0  0  0  0  0  0  0  0  0
  188.8180  173.7170  135.6630 C   0  0  2  0  0  3  0  0  0  0  0  0
  189.0250  175.0200  134.9270 C   0  0  2  0  0  3  0  0  0  0  0  0
  186.1670  175.3810  137.3150 C   0  0  0  0  0  0  0  0  0  0  0  0
  187.4200  173.5440  135.8990 N   0  0  0  0  0  2  0  0  0  0  0  0
  188.4410  179.4460  136.8750 N   0  0  0  0  0  0  0  0  0  0  0  0
  189.0560  178.9160  138.0940 C   0  0  0  0  0  2  0  0  0  0  0  0
  187.2560  178.6240  136.6180 C   0  0  0  0  0  3  0  0  0  0  0  0
  187.2900  177.5340  137.6200 C   0  0  0  0  0  0  0  0  0  0  0  0
  188.2640  177.7280  138.4710 C   0  0  0  0  0  0  0  0  0  0  0  0
  188.4830  176.9210  139.7110 C   0  0  0  0  0  2  0  0  0  0  0  0
  190.7290  177.6200  139.9400 O   0  0  0  0  0  0  0  0  0  0  0  0
  189.6570  177.4360  140.4960 C   0  0  0  0  0  0  0  0  0  0  0  0
  190.3850  177.2410  144.9080 N   0  0  0  0  0  2  0  0  0  0  0  0
  187.6990  177.8630  143.6410 C   0  0  0  0  0  2  0  0  0  0  0  0
  187.9350  177.2740  145.0220 C   0  0  1  0  0  3  0  0  0  0  0  0
  188.3710  177.0280  142.5700 C   0  0  0  0  0  2  0  0  0  0  0  0
  189.5170  177.8060  141.9370 C   0  0  1  0  0  3  0  0  0  0  0  0
  190.8260  177.5700  142.6790 C   0  0  0  0  0  2  0  0  0  0  0  0
  190.7940  178.2140  143.9810 N   0  0  0  0  0  2  0  0  0  0  0  0
  189.2430  177.7860  145.6260 C   0  0  1  0  0  3  0  0  0  0  0  0
  186.8680  177.6230  145.8300 F   0  0  0  0  0  0  0  0  0  0  0  0
  189.9080  176.3350  147.4160 O   0  0  0  0  0  0  0  0  0  0  0  0
  188.8110  178.2490  148.0360 O   0  0  0  0  0  1  0  0  0  0  0  0
  189.3470  177.4090  147.0700 C   0  0  0  0  0  0  0  0  0  0  0  0
  190.4490  175.2550  134.7530 N   0  0  0  0  0  2  0  0  0  0  0  0
  191.1570  174.1220  135.3340 C   0  0  0  0  0  2  0  0  0  0  0  0
  193.1540  172.9930  134.6770 O   0  0  0  0  0  0  0  0  0  0  0  0
  192.5690  174.0990  134.8580 C   0  0  0  0  0  0  0  0  0  0  0  0
  193.2170  175.3080  134.5940 O   0  0  0  0  0  0  0  0  0  0  0  0
  194.5010  175.6140  135.1230 C   0  0  0  0  0  2  0  0  0  0  0  0
  194.6650  174.9860  136.3560 O   0  0  0  0  0  0  0  0  0  0  0  0
  195.8450  174.3310  136.2480 N   0  0  0  0  0  2  0  0  0  0  0  0
  198.9190  174.1790  136.9000 C   0  0  1  0  0  3  0  0  0  0  0  0
  197.8140  175.0590  137.5150 C   0  0  2  0  0  3  0  0  0  0  0  0
  195.4160  172.1490  137.9710 N   0  0  0  0  0  1  0  0  0  0  0  0
  198.1870  175.4460  138.8030 O   0  0  0  0  0  1  0  0  0  0  0  0
  197.7620  172.2180  137.2870 C   0  0  0  0  0  2  0  0  0  0  0  0
  198.9880  172.8870  137.4790 O   0  0  0  0  0  0  0  0  0  0  0  0
  196.4640  174.3330  137.5690 C   0  0  2  0  0  3  0  0  0  0  0  0
  196.6530  172.9040  138.0810 C   0  0  1  0  0  3  0  0  0  0  0  0
  198.8670  174.1390  135.3760 C   0  0  0  0  0  1  0  0  0  0  0  0
  184.9640  174.5570  137.6180 C   0  0  0  0  0  2  0  0  0  0  0  0
  183.9290  174.7470  136.5260 C   0  0  0  0  0  2  0  0  0  0  0  0
  182.1140  179.2280  139.1160 N   0  0  0  0  0  0  0  0  0  0  0  0
  182.0320  179.1780  137.8200 C   0  0  0  0  0  0  0  0  0  0  0  0
  182.5580  176.3210  138.5870 C   0  0  0  0  0  3  0  0  0  0  0  0
  181.2310  180.2140  137.1140 C   0  0  0  0  0  1  0  0  0  0  0  0
  183.6660  176.1630  136.3400 N   0  0  0  0  0  2  0  0  0  0  0  0
  182.7390  178.2040  137.0310 N   0  0  0  0  0  0  0  0  0  0  0  0
  182.9590  178.3540  139.9270 C   0  0  2  0  0  3  0  0  0  0  0  0
  183.0070  176.9620  137.3270 C   0  0  0  0  0  0  0  0  0  0  0  0
  182.5020  176.9380  139.7620 C   0  0  0  0  0  3  0  0  0  0  0  0
  183.9320  177.9990  142.0710 C   0  0  0  0  0  2  0  0  0  0  0  0
  181.6200  178.3070  141.8810 C   0  0  0  0  0  2  0  0  0  0  0  0
  182.2220  178.5860  144.1950 O   0  0  0  0  0  0  0  0  0  0  0  0
  182.9080  178.7480  141.3390 N   0  0  2  0  0  0  0  0  0  0  0  0
  184.4460  178.8000  143.2720 C   0  0  0  0  0  2  0  0  0  0  0  0
  183.3200  179.4490  144.0840 C   0  0  0  0  0  2  0  0  0  0  0  0
  181.3240  179.0080  143.2050 C   0  0  0  0  0  2  0  0  0  0  0  0
  1  3  1  6  0  0  0
  3  6  1  0  0  0  0
  4  7  1  6  0  0  0
  4  1  1  0  0  0  0
  5 28  1  1  0  0  0
  5  4  1  0  0  0  0
  5  1  1  0  0  0  0
  6 45  1  0  0  0  0
  6  2  2  0  0  0  0
  7  3  1  0  0  0  0
  8  9  1  0  0  0  0
  9 12  1  0  0  0  0
 10  8  2  0  0  0  0
 10 11  1  0  0  0  0
 11  2  1  0  0  0  0
 11 12  2  0  0  0  0
 12 13  1  0  0  0  0
 13 15  1  0  0  0  0
 14 15  2  0  0  0  0
 16 23  1  0  0  0  0
 17 18  1  0  0  0  0
 18 23  1  0  0  0  0
 18 24  1  1  0  0  0
 19 17  1  0  0  0  0
 20 15  1  6  0  0  0
 20 19  1  0  0  0  0
 20 21  1  0  0  0  0
 21 22  1  0  0  0  0
 22 16  1  0  0  0  0
 23 27  1  1  0  0  0
 27 25  2  0  0  0  0
 27 26  1  0  0  0  0
 28 29  1  0  0  0  0
 30 31  2  0  0  0  0
 31 29  1  0  0  0  0
 32 31  1  0  0  0  0
 32 33  1  0  0  0  0
 33 34  1  0  0  0  0
 35 34  1  0  0  0  0
 36 44  1  6  0  0  0
 36 41  1  0  0  0  0
 36 37  1  0  0  0  0
 37 42  1  0  0  0  0
 37 39  1  1  0  0  0
 40 41  1  0  0  0  0
 40 43  1  0  0  0  0
 42 35  1  6  0  0  0
 42 43  1  0  0  0  0
 43 38  1  6  0  0  0
 46 45  1  0  0  0  0
 47 53  1  0  0  0  0
 48 47  2  0  0  0  0
 49 55  2  0  0  0  0
 50 48  1  0  0  0  0
 51 46  1  0  0  0  0
 51 54  1  0  0  0  0
 52 54  2  0  0  0  0
 52 48  1  0  0  0  0
 53 55  1  1  0  0  0
 53 59  1  0  0  0  0
 54 49  1  0  0  0  0
 56 60  1  0  0  0  0
 57 62  1  0  0  0  0
 59 57  1  1  0  0  0
 59 56  1  0  0  0  0
 60 61  1  0  0  0  0
 61 58  1  0  0  0  0
 62 58  1  0  0  0  0
M  END
>  <MODEL>
5

>  <REMARK>
 VINA RESULT:      -7.2      2.595      6.601
  Name = 
  17 active torsions:
  status: ('A' for Active; 'I' for Inactive)
    1  A    between atoms: C_2  and  N_37
    2  A    between atoms: C_2  and  C_50
    3  A    between atoms: C_5  and  N_18
    4  A    between atoms: C_5  and  C_27
    5  A    between atoms: N_17  and  C_41
    6  A    between atoms: C_22  and  C_33
    7  A    between atoms: C_22  and  C_36
    8  A    between atoms: N_24  and  C_48
    9  A    between atoms: N_24  and  O_53
   10  A    between atoms: C_27  and  C_55
   11  A    between atoms: C_31  and  N_44
   12  A    between atoms: C_33  and  C_57
   13  A    between atoms: N_37  and  C_54
   14  A    between atoms: C_45  and  O_47
   15  A    between atoms: C_45  and  O_53
   16  A    between atoms: O_47  and  C_50
   17  A    between atoms: C_56  and  C_61
                            x       y       z     vdW  Elec       q    Type
                         _______ _______ _______ _____ _____    ______ ____

>  <TORSDO>
F 17

$$$$
=
 OpenBabel10222416213D

 62 68  0  0  1  0  0  0  0  0999 V2000
  189.8700  176.5140  138.9390 C   0  0  1  0  0  3  0  0  0  0  0  0
  189.5780  176.7740  135.7060 N   0  0  0  0  0  0  0  0  0  0  0  0
  190.7720  176.5150  137.7720 N   0  0  0  0  0  0  0  0  0  0  0  0
  190.9870  176.3480  139.8650 C   0  0  2  0  0  3  0  0  0  0  0  0
  190.2250  177.6510  139.8730 C   0  0  2  0  0  3  0  0  0  0  0  0
  190.6800  176.4990  136.3420 C   0  0  0  0  0  0  0  0  0  0  0  0
  191.8260  176.3170  138.7090 N   0  0  0  0  0  2  0  0  0  0  0  0
  186.7940  178.8310  137.1150 N   0  0  0  0  0  0  0  0  0  0  0  0
  186.1280  177.6360  136.5950 C   0  0  0  0  0  3  0  0  0  0  0  0
  188.2200  178.6700  136.8210 C   0  0  0  0  0  2  0  0  0  0  0  0
  188.3720  177.3070  136.2630 C   0  0  0  0  0  0  0  0  0  0  0  0
  187.2000  176.7530  136.0910 C   0  0  0  0  0  0  0  0  0  0  0  0
  186.9690  175.4540  135.3870 C   0  0  0  0  0  2  0  0  0  0  0  0
  186.8220  174.2390  137.4100 O   0  0  0  0  0  0  0  0  0  0  0  0
  186.3420  174.4410  136.3050 C   0  0  0  0  0  0  0  0  0  0  0  0
  182.0220  173.2810  136.4800 N   0  0  0  0  0  2  0  0  0  0  0  0
  184.2840  171.3700  135.8130 C   0  0  0  0  0  2  0  0  0  0  0  0
  182.9290  171.0030  136.3960 C   0  0  1  0  0  3  0  0  0  0  0  0
  184.9830  172.4060  136.6700 C   0  0  0  0  0  2  0  0  0  0  0  0
  185.0860  173.7280  135.9210 C   0  0  1  0  0  3  0  0  0  0  0  0
  183.8710  174.6090  136.1770 C   0  0  0  0  0  2  0  0  0  0  0  0
  182.6970  174.0560  135.5220 N   0  0  0  0  0  2  0  0  0  0  0  0
  181.8380  171.9570  135.9060 C   0  0  1  0  0  3  0  0  0  0  0  0
  182.6320  169.7060  136.0190 F   0  0  0  0  0  0  0  0  0  0  0  0
  179.7110  170.9780  135.3920 O   0  0  0  0  0  0  0  0  0  0  0  0
  180.0630  171.5030  137.5950 O   0  0  0  0  0  1  0  0  0  0  0  0
  180.4810  171.4470  136.2720 C   0  0  0  0  0  0  0  0  0  0  0  0
  189.3020  177.6640  140.9960 N   0  0  0  0  0  2  0  0  0  0  0  0
  188.2750  178.6560  140.7100 C   0  0  0  0  0  2  0  0  0  0  0  0
  187.3420  177.8520  142.7530 O   0  0  0  0  0  0  0  0  0  0  0  0
  187.1990  178.5940  141.7400 C   0  0  0  0  0  0  0  0  0  0  0  0
  186.0560  179.3800  141.5780 O   0  0  0  0  0  0  0  0  0  0  0  0
  184.7900  178.8230  141.2500 C   0  0  0  0  0  2  0  0  0  0  0  0
  184.4820  179.1040  139.9200 O   0  0  0  0  0  0  0  0  0  0  0  0
  183.1380  179.2670  139.9110 N   0  0  0  0  0  2  0  0  0  0  0  0
  181.2200  177.6860  137.9840 C   0  0  1  0  0  3  0  0  0  0  0  0
  182.4130  177.1930  138.8250 C   0  0  2  0  0  3  0  0  0  0  0  0
  181.2440  178.9720  141.9700 N   0  0  0  0  0  1  0  0  0  0  0  0
  182.2690  175.8290  139.0870 O   0  0  0  0  0  1  0  0  0  0  0  0
  180.1670  178.6530  139.7980 C   0  0  0  0  0  2  0  0  0  0  0  0
  180.0110  177.7550  138.7220 O   0  0  0  0  0  0  0  0  0  0  0  0
  182.5400  177.9580  140.1470 C   0  0  2  0  0  3  0  0  0  0  0  0
  181.1680  178.1000  140.8090 C   0  0  1  0  0  3  0  0  0  0  0  0
  181.5200  178.9730  137.2230 C   0  0  0  0  0  1  0  0  0  0  0  0
  191.8470  176.0010  135.5610 C   0  0  0  0  0  2  0  0  0  0  0  0
  191.4200  174.8280  134.7000 C   0  0  0  0  0  2  0  0  0  0  0  0
  195.3300  172.1520  137.4610 N   0  0  0  0  0  0  0  0  0  0  0  0
  194.3900  171.4650  136.8830 C   0  0  0  0  0  0  0  0  0  0  0  0
  194.1250  174.1840  135.6320 C   0  0  0  0  0  3  0  0  0  0  0  0
  194.5470  169.9900  136.7780 C   0  0  0  0  0  1  0  0  0  0  0  0
  191.7000  173.5830  135.3920 N   0  0  0  0  0  2  0  0  0  0  0  0
  193.1740  172.0610  136.3990 N   0  0  0  0  0  0  0  0  0  0  0  0
  195.2550  173.5840  137.7420 C   0  0  2  0  0  3  0  0  0  0  0  0
  193.0050  173.2400  135.8660 C   0  0  0  0  0  0  0  0  0  0  0  0
  195.1620  174.3330  136.4490 C   0  0  0  0  0  3  0  0  0  0  0  0
  196.0540  175.1940  139.3040 C   0  0  0  0  0  2  0  0  0  0  0  0
  197.4360  174.4920  137.5500 C   0  0  0  0  0  2  0  0  0  0  0  0
  198.8080  175.6190  139.1760 O   0  0  0  0  0  0  0  0  0  0  0  0
  196.4280  174.0250  138.5060 N   0  0  2  0  0  0  0  0  0  0  0  0
  196.8800  175.2690  140.5920 C   0  0  0  0  0  2  0  0  0  0  0  0
  198.3730  175.0110  140.3610 C   0  0  0  0  0  2  0  0  0  0  0  0
  198.8050  174.5960  138.2180 C   0  0  0  0  0  2  0  0  0  0  0  0
  1  3  1  6  0  0  0
  1  4  1  0  0  0  0
  1  5  1  0  0  0  0
  2 11  1  0  0  0  0
  2  6  2  0  0  0  0
  3  7  1  0  0  0  0
  4  7  1  6  0  0  0
  4  5  1  0  0  0  0
  5 28  1  1  0  0  0
  6  3  1  0  0  0  0
  9  8  2  0  0  0  0
 10  8  1  0  0  0  0
 11 10  1  0  0  0  0
 12 11  2  0  0  0  0
 12  9  1  0  0  0  0
 13 12  1  0  0  0  0
 13 15  1  0  0  0  0
 15 14  2  0  0  0  0
 17 18  1  0  0  0  0
 17 19  1  0  0  0  0
 18 24  1  6  0  0  0
 20 21  1  0  0  0  0
 20 15  1  1  0  0  0
 20 19  1  0  0  0  0
 22 21  1  0  0  0  0
 22 16  1  0  0  0  0
 23 27  1  1  0  0  0
 23 18  1  0  0  0  0
 23 16  1  0  0  0  0
 25 27  2  0  0  0  0
 27 26  1  0  0  0  0
 29 28  1  0  0  0  0
 29 31  1  0  0  0  0
 31 30  2  0  0  0  0
 32 31  1  0  0  0  0
 33 32  1  0  0  0  0
 34 33  1  0  0  0  0
 35 34  1  0  0  0  0
 36 44  1  1  0  0  0
 36 41  1  0  0  0  0
 36 37  1  0  0  0  0
 37 39  1  1  0  0  0
 37 42  1  0  0  0  0
 40 43  1  0  0  0  0
 41 40  1  0  0  0  0
 42 35  1  6  0  0  0
 42 43  1  0  0  0  0
 43 38  1  1  0  0  0
 45  6  1  0  0  0  0
 46 51  1  0  0  0  0
 46 45  1  0  0  0  0
 47 53  1  0  0  0  0
 48 47  2  0  0  0  0
 49 54  1  0  0  0  0
 49 55  2  0  0  0  0
 50 48  1  0  0  0  0
 51 54  1  0  0  0  0
 52 48  1  0  0  0  0
 53 55  1  6  0  0  0
 53 59  1  0  0  0  0
 54 52  2  0  0  0  0
 56 60  1  0  0  0  0
 57 62  1  0  0  0  0
 58 61  1  0  0  0  0
 59 57  1  6  0  0  0
 59 56  1  0  0  0  0
 61 60  1  0  0  0  0
 62 58  1  0  0  0  0
M  END
>  <MODEL>
6

>  <REMARK>
 VINA RESULT:      -7.0      3.591     10.237
  Name = 
  17 active torsions:
  status: ('A' for Active; 'I' for Inactive)
    1  A    between atoms: C_2  and  N_37
    2  A    between atoms: C_2  and  C_50
    3  A    between atoms: C_5  and  N_18
    4  A    between atoms: C_5  and  C_27
    5  A    between atoms: N_17  and  C_41
    6  A    between atoms: C_22  and  C_33
    7  A    between atoms: C_22  and  C_36
    8  A    between atoms: N_24  and  C_48
    9  A    between atoms: N_24  and  O_53
   10  A    between atoms: C_27  and  C_55
   11  A    between atoms: C_31  and  N_44
   12  A    between atoms: C_33  and  C_57
   13  A    between atoms: N_37  and  C_54
   14  A    between atoms: C_45  and  O_47
   15  A    between atoms: C_45  and  O_53
   16  A    between atoms: O_47  and  C_50
   17  A    between atoms: C_56  and  C_61
                            x       y       z     vdW  Elec       q    Type
                         _______ _______ _______ _____ _____    ______ ____

>  <TORSDO>
F 17

$$$$
=
 OpenBabel10222416213D

 62 68  0  0  1  0  0  0  0  0999 V2000
  188.3420  174.6530  136.5270 C   0  0  1  0  0  3  0  0  0  0  0  0
  186.2230  176.8450  137.6670 N   0  0  0  0  0  0  0  0  0  0  0  0
  186.8770  174.7820  136.6310 N   0  0  0  0  0  0  0  0  0  0  0  0
  188.2310  173.3470  135.8820 C   0  0  2  0  0  3  0  0  0  0  0  0
  188.7530  174.5140  135.0760 C   0  0  2  0  0  3  0  0  0  0  0  0
  185.9150  175.6590  137.2300 C   0  0  0  0  0  0  0  0  0  0  0  0
  186.8180  173.4920  136.0310 N   0  0  0  0  0  2  0  0  0  0  0  0
  189.0680  179.0110  136.5780 N   0  0  0  0  0  0  0  0  0  0  0  0
  189.3740  178.6930  137.9740 C   0  0  0  0  0  2  0  0  0  0  0  0
  187.7920  178.3560  136.2750 C   0  0  0  0  0  3  0  0  0  0  0  0
  187.4560  177.5440  137.4670 C   0  0  0  0  0  0  0  0  0  0  0  0
  188.3110  177.7730  138.4300 C   0  0  0  0  0  0  0  0  0  0  0  0
  188.1760  177.2600  139.8280 C   0  0  0  0  0  2  0  0  0  0  0  0
  186.5850  178.9450  140.2910 O   0  0  0  0  0  0  0  0  0  0  0  0
  187.5110  178.2720  140.7180 C   0  0  0  0  0  0  0  0  0  0  0  0
  189.8170  177.4820  144.4720 N   0  0  0  0  0  2  0  0  0  0  0  0
  186.8520  178.1210  144.3850 C   0  0  0  0  0  2  0  0  0  0  0  0
  187.5820  177.3520  145.4740 C   0  0  1  0  0  3  0  0  0  0  0  0
  187.0820  177.4910  143.0270 C   0  0  0  0  0  2  0  0  0  0  0  0
  187.9120  178.4200  142.1500 C   0  0  1  0  0  3  0  0  0  0  0  0
  189.4030  178.1580  142.3170 C   0  0  0  0  0  2  0  0  0  0  0  0
  189.8530  178.6030  143.6250 N   0  0  0  0  0  2  0  0  0  0  0  0
  189.0200  177.8480  145.6330 C   0  0  1  0  0  3  0  0  0  0  0  0
  186.8880  177.5160  146.6600 F   0  0  0  0  0  0  0  0  0  0  0  0
  190.4700  176.3200  146.7770 O   0  0  0  0  0  0  0  0  0  0  0  0
  189.3200  177.7910  148.1060 O   0  0  0  0  0  1  0  0  0  0  0  0
  189.6500  177.2740  146.8610 C   0  0  0  0  0  0  0  0  0  0  0  0
  190.2010  174.4300  134.9870 N   0  0  0  0  0  2  0  0  0  0  0  0
  190.6200  173.2470  135.7260 C   0  0  0  0  0  2  0  0  0  0  0  0
  192.6080  174.4190  136.3300 O   0  0  0  0  0  0  0  0  0  0  0  0
  192.0800  173.3140  136.0190 C   0  0  0  0  0  0  0  0  0  0  0  0
  192.8380  172.1420  135.9700 O   0  0  0  0  0  0  0  0  0  0  0  0
  193.6670  171.8190  134.8610 C   0  0  0  0  0  2  0  0  0  0  0  0
  194.8570  171.2500  135.3110 O   0  0  0  0  0  0  0  0  0  0  0  0
  195.6390  172.3080  135.6310 N   0  0  0  0  0  2  0  0  0  0  0  0
  196.9750  174.5040  137.4440 C   0  0  1  0  0  3  0  0  0  0  0  0
  195.7800  173.5740  137.7250 C   0  0  2  0  0  3  0  0  0  0  0  0
  197.5920  170.4740  136.4880 N   0  0  0  0  0  1  0  0  0  0  0  0
  195.6360  173.4010  139.1040 O   0  0  0  0  0  1  0  0  0  0  0  0
  198.3740  172.7580  136.8690 C   0  0  0  0  0  2  0  0  0  0  0  0
  198.2280  173.8920  137.6960 O   0  0  0  0  0  0  0  0  0  0  0  0
  195.9450  172.2050  137.0530 C   0  0  2  0  0  3  0  0  0  0  0  0
  197.3670  171.6820  137.2640 C   0  0  1  0  0  3  0  0  0  0  0  0
  196.9060  175.1600  136.0680 C   0  0  0  0  0  1  0  0  0  0  0  0
  184.5480  175.1330  137.5020 C   0  0  0  0  0  2  0  0  0  0  0  0
  183.7430  175.1170  136.2180 C   0  0  0  0  0  2  0  0  0  0  0  0
  180.6170  179.4000  137.6170 N   0  0  0  0  0  0  0  0  0  0  0  0
  181.0140  179.2910  136.3850 C   0  0  0  0  0  0  0  0  0  0  0  0
  181.5520  176.5640  137.5240 C   0  0  0  0  0  3  0  0  0  0  0  0
  180.4070  180.1810  135.3590 C   0  0  0  0  0  1  0  0  0  0  0  0
  183.4050  176.4760  135.8330 N   0  0  0  0  0  2  0  0  0  0  0  0
  182.0640  178.3950  135.9800 N   0  0  0  0  0  0  0  0  0  0  0  0
  181.2070  178.6810  138.7440 C   0  0  2  0  0  3  0  0  0  0  0  0
  182.3470  177.2130  136.4540 C   0  0  0  0  0  0  0  0  0  0  0  0
  181.0050  177.2110  138.5480 C   0  0  0  0  0  3  0  0  0  0  0  0
  180.4210  180.5670  139.9660 C   0  0  0  0  0  2  0  0  0  0  0  0
  181.5790  178.8640  141.0780 C   0  0  0  0  0  2  0  0  0  0  0  0
  180.4780  180.2210  142.7330 O   0  0  0  0  0  0  0  0  0  0  0  0
  180.6060  179.1160  140.0100 N   0  0  2  0  0  0  0  0  0  0  0  0
  179.2210  180.9950  140.8180 C   0  0  0  0  0  2  0  0  0  0  0  0
  179.1900  180.3140  142.1900 C   0  0  0  0  0  2  0  0  0  0  0  0
  180.9030  178.9170  142.4460 C   0  0  0  0  0  2  0  0  0  0  0  0
  1  3  1  6  0  0  0
  3  6  1  0  0  0  0
  4  7  1  6  0  0  0
  4  1  1  0  0  0  0
  5 28  1  1  0  0  0
  5  4  1  0  0  0  0
  5  1  1  0  0  0  0
  6 45  1  0  0  0  0
  6  2  2  0  0  0  0
  7  3  1  0  0  0  0
  8  9  1  0  0  0  0
  9 12  1  0  0  0  0
 10  8  2  0  0  0  0
 10 11  1  0  0  0  0
 11  2  1  0  0  0  0
 11 12  2  0  0  0  0
 12 13  1  0  0  0  0
 13 15  1  0  0  0  0
 14 15  2  0  0  0  0
 16 23  1  0  0  0  0
 17 18  1  0  0  0  0
 18 23  1  0  0  0  0
 18 24  1  1  0  0  0
 19 17  1  0  0  0  0
 20 15  1  6  0  0  0
 20 21  1  0  0  0  0
 20 19  1  0  0  0  0
 21 22  1  0  0  0  0
 22 16  1  0  0  0  0
 23 27  1  1  0  0  0
 25 27  2  0  0  0  0
 27 26  1  0  0  0  0
 28 29  1  0  0  0  0
 29 31  1  0  0  0  0
 31 30  2  0  0  0  0
 32 31  1  0  0  0  0
 33 34  1  0  0  0  0
 33 32  1  0  0  0  0
 34 35  1  0  0  0  0
 36 44  1  6  0  0  0
 36 41  1  0  0  0  0
 36 37  1  0  0  0  0
 37 39  1  1  0  0  0
 40 43  1  0  0  0  0
 40 41  1  0  0  0  0
 42 35  1  6  0  0  0
 42 43  1  0  0  0  0
 42 37  1  0  0  0  0
 43 38  1  6  0  0  0
 46 45  1  0  0  0  0
 47 53  1  0  0  0  0
 48 47  2  0  0  0  0
 49 55  2  0  0  0  0
 50 48  1  0  0  0  0
 51 46  1  0  0  0  0
 51 54  1  0  0  0  0
 52 48  1  0  0  0  0
 52 54  2  0  0  0  0
 53 55  1  6  0  0  0
 53 59  1  0  0  0  0
 54 49  1  0  0  0  0
 56 60  1  0  0  0  0
 57 62  1  0  0  0  0
 59 56  1  6  0  0  0
 59 57  1  0  0  0  0
 60 61  1  0  0  0  0
 61 58  1  0  0  0  0
 62 58  1  0  0  0  0
M  END
>  <MODEL>
7

>  <REMARK>
 VINA RESULT:      -6.9      2.552      7.261
  Name = 
  17 active torsions:
  status: ('A' for Active; 'I' for Inactive)
    1  A    between atoms: C_2  and  N_37
    2  A    between atoms: C_2  and  C_50
    3  A    between atoms: C_5  and  N_18
    4  A    between atoms: C_5  and  C_27
    5  A    between atoms: N_17  and  C_41
    6  A    between atoms: C_22  and  C_33
    7  A    between atoms: C_22  and  C_36
    8  A    between atoms: N_24  and  C_48
    9  A    between atoms: N_24  and  O_53
   10  A    between atoms: C_27  and  C_55
   11  A    between atoms: C_31  and  N_44
   12  A    between atoms: C_33  and  C_57
   13  A    between atoms: N_37  and  C_54
   14  A    between atoms: C_45  and  O_47
   15  A    between atoms: C_45  and  O_53
   16  A    between atoms: O_47  and  C_50
   17  A    between atoms: C_56  and  C_61
                            x       y       z     vdW  Elec       q    Type
                         _______ _______ _______ _____ _____    ______ ____

>  <TORSDO>
F 17

$$$$
=
 OpenBabel10222416213D

 62 68  0  0  1  0  0  0  0  0999 V2000
  181.5870  177.8840  140.7150 C   0  0  1  0  0  3  0  0  0  0  0  0
  184.5420  178.7050  141.8080 N   0  0  0  0  0  0  0  0  0  0  0  0
  182.1650  178.4150  141.9640 N   0  0  0  0  0  0  0  0  0  0  0  0
  180.2390  177.8930  141.2770 C   0  0  2  0  0  3  0  0  0  0  0  0
  180.5660  178.8540  140.1590 C   0  0  2  0  0  3  0  0  0  0  0  0
  183.4580  178.6690  142.5270 C   0  0  0  0  0  0  0  0  0  0  0  0
  180.8390  178.3730  142.4810 N   0  0  0  0  0  2  0  0  0  0  0  0
  184.2170  179.2090  138.1180 N   0  0  0  0  0  0  0  0  0  0  0  0
  185.5730  178.6820  138.2900 C   0  0  0  0  0  3  0  0  0  0  0  0
  183.6410  179.3100  139.4610 C   0  0  0  0  0  2  0  0  0  0  0  0
  184.6290  178.6980  140.3780 C   0  0  0  0  0  0  0  0  0  0  0  0
  185.7240  178.3960  139.7310 C   0  0  0  0  0  0  0  0  0  0  0  0
  186.9900  177.9240  140.3740 C   0  0  0  0  0  2  0  0  0  0  0  0
  188.6110  179.1850  139.2030 O   0  0  0  0  0  0  0  0  0  0  0  0
  188.1610  178.0750  139.4440 C   0  0  0  0  0  0  0  0  0  0  0  0
  191.4540  175.6860  137.5750 N   0  0  0  0  0  2  0  0  0  0  0  0
  188.5090  175.3430  136.9300 C   0  0  0  0  0  2  0  0  0  0  0  0
  189.6810  174.9940  136.0280 C   0  0  1  0  0  3  0  0  0  0  0  0
  188.5720  176.7910  137.3680 C   0  0  0  0  0  2  0  0  0  0  0  0
  188.8430  176.8770  138.8650 C   0  0  1  0  0  3  0  0  0  0  0  0
  190.3370  176.9180  139.1590 C   0  0  0  0  0  2  0  0  0  0  0  0
  190.9420  175.6260  138.8820 N   0  0  0  0  0  2  0  0  0  0  0  0
  190.8980  174.5580  136.8450 C   0  0  1  0  0  3  0  0  0  0  0  0
  189.2870  173.9740  135.1800 F   0  0  0  0  0  0  0  0  0  0  0  0
  192.7160  174.7270  135.2910 O   0  0  0  0  0  0  0  0  0  0  0  0
  192.0900  172.5990  135.8690 O   0  0  0  0  0  1  0  0  0  0  0  0
  191.9550  173.9770  135.9600 C   0  0  0  0  0  0  0  0  0  0  0  0
  180.0360  178.3380  138.9080 N   0  0  0  0  0  2  0  0  0  0  0  0
  180.4800  179.2260  137.8420 C   0  0  0  0  0  2  0  0  0  0  0  0
  181.1890  179.0030  135.5750 O   0  0  0  0  0  0  0  0  0  0  0  0
  180.9660  178.4300  136.6790 C   0  0  0  0  0  0  0  0  0  0  0  0
  181.1910  177.0610  136.8380 O   0  0  0  0  0  0  0  0  0  0  0  0
  182.4640  176.4690  136.6150 C   0  0  0  0  0  2  0  0  0  0  0  0
  182.3160  175.2920  135.8840 O   0  0  0  0  0  0  0  0  0  0  0  0
  181.1620  174.7530  136.3430 N   0  0  0  0  0  2  0  0  0  0  0  0
  180.4830  171.7020  135.9860 C   0  0  1  0  0  3  0  0  0  0  0  0
  181.7880  172.3840  136.4380 C   0  0  2  0  0  3  0  0  0  0  0  0
  180.0230  174.6600  138.9140 N   0  0  0  0  0  1  0  0  0  0  0  0
  182.5380  171.4950  137.2100 O   0  0  0  0  0  1  0  0  0  0  0  0
  179.2050  172.7850  137.5760 C   0  0  0  0  0  2  0  0  0  0  0  0
  179.5520  171.5270  137.0410 O   0  0  0  0  0  0  0  0  0  0  0  0
  181.5200  173.6620  137.2420 C   0  0  2  0  0  3  0  0  0  0  0  0
  180.4100  173.4170  138.2670 C   0  0  1  0  0  3  0  0  0  0  0  0
  179.8640  172.3590  134.7560 C   0  0  0  0  0  1  0  0  0  0  0  0
  183.5850  178.7430  144.0090 C   0  0  0  0  0  2  0  0  0  0  0  0
  184.1550  180.0900  144.4050 C   0  0  0  0  0  2  0  0  0  0  0  0
  188.3130  177.2770  146.6120 N   0  0  0  0  0  0  0  0  0  0  0  0
  187.4380  177.8230  147.4020 C   0  0  0  0  0  0  0  0  0  0  0  0
  186.0900  177.9080  144.7190 C   0  0  0  0  0  3  0  0  0  0  0  0
  187.4540  177.4590  148.8440 C   0  0  0  0  0  1  0  0  0  0  0  0
  184.9440  179.9530  145.6170 N   0  0  0  0  0  2  0  0  0  0  0  0
  186.4980  178.8170  146.9570 N   0  0  0  0  0  0  0  0  0  0  0  0
  188.4930  177.6300  145.2050 C   0  0  2  0  0  3  0  0  0  0  0  0
  185.9010  178.9060  145.8000 C   0  0  0  0  0  0  0  0  0  0  0  0
  187.2410  177.3010  144.4530 C   0  0  0  0  0  3  0  0  0  0  0  0
  190.8390  177.2690  145.3890 C   0  0  0  0  0  2  0  0  0  0  0  0
  189.8500  177.4200  143.2740 C   0  0  0  0  0  2  0  0  0  0  0  0
  192.0480  176.4770  143.0030 O   0  0  0  0  0  0  0  0  0  0  0  0
  189.6380  176.9130  144.6320 N   0  0  2  0  0  0  0  0  0  0  0  0
  191.8530  176.1190  145.3870 C   0  0  0  0  0  2  0  0  0  0  0  0
  192.0420  175.4930  144.0010 C   0  0  0  0  0  2  0  0  0  0  0  0
  190.7490  176.4740  142.4800 C   0  0  0  0  0  2  0  0  0  0  0  0
  1  4  1  0  0  0  0
  1  3  1  1  0  0  0
  2  6  2  0  0  0  0
  3  7  1  0  0  0  0
  3  6  1  0  0  0  0
  4  7  1  1  0  0  0
  5 28  1  6  0  0  0
  5  1  1  0  0  0  0
  5  4  1  0  0  0  0
  6 45  1  0  0  0  0
  8  9  2  0  0  0  0
  8 10  1  0  0  0  0
  9 12  1  0  0  0  0
 10 11  1  0  0  0  0
 11  2  1  0  0  0  0
 12 13  1  0  0  0  0
 12 11  2  0  0  0  0
 14 15  2  0  0  0  0
 15 13  1  0  0  0  0
 16 22  1  0  0  0  0
 17 19  1  0  0  0  0
 18 24  1  6  0  0  0
 18 23  1  0  0  0  0
 18 17  1  0  0  0  0
 19 20  1  0  0  0  0
 20 21  1  0  0  0  0
 20 15  1  6  0  0  0
 22 21  1  0  0  0  0
 23 27  1  6  0  0  0
 23 16  1  0  0  0  0
 25 27  2  0  0  0  0
 26 27  1  0  0  0  0
 29 28  1  0  0  0  0
 30 31  2  0  0  0  0
 31 32  1  0  0  0  0
 31 29  1  0  0  0  0
 33 32  1  0  0  0  0
 34 35  1  0  0  0  0
 34 33  1  0  0  0  0
 36 44  1  6  0  0  0
 36 37  1  0  0  0  0
 36 41  1  0  0  0  0
 37 39  1  1  0  0  0
 37 42  1  0  0  0  0
 40 43  1  0  0  0  0
 41 40  1  0  0  0  0
 42 35  1  6  0  0  0
 42 43  1  0  0  0  0
 43 38  1  6  0  0  0
 45 46  1  0  0  0  0
 46 51  1  0  0  0  0
 47 48  2  0  0  0  0
 48 50  1  0  0  0  0
 49 54  1  0  0  0  0
 51 54  1  0  0  0  0
 52 48  1  0  0  0  0
 53 55  1  6  0  0  0
 53 47  1  0  0  0  0
 54 52  2  0  0  0  0
 55 49  2  0  0  0  0
 58 61  1  0  0  0  0
 59 57  1  6  0  0  0
 59 53  1  0  0  0  0
 59 56  1  0  0  0  0
 60 56  1  0  0  0  0
 61 60  1  0  0  0  0
 62 58  1  0  0  0  0
 62 57  1  0  0  0  0
M  END
>  <MODEL>
8

>  <REMARK>
 VINA RESULT:      -6.8      3.263      9.777
  Name = 
  17 active torsions:
  status: ('A' for Active; 'I' for Inactive)
    1  A    between atoms: C_2  and  N_37
    2  A    between atoms: C_2  and  C_50
    3  A    between atoms: C_5  and  N_18
    4  A    between atoms: C_5  and  C_27
    5  A    between atoms: N_17  and  C_41
    6  A    between atoms: C_22  and  C_33
    7  A    between atoms: C_22  and  C_36
    8  A    between atoms: N_24  and  C_48
    9  A    between atoms: N_24  and  O_53
   10  A    between atoms: C_27  and  C_55
   11  A    between atoms: C_31  and  N_44
   12  A    between atoms: C_33  and  C_57
   13  A    between atoms: N_37  and  C_54
   14  A    between atoms: C_45  and  O_47
   15  A    between atoms: C_45  and  O_53
   16  A    between atoms: O_47  and  C_50
   17  A    between atoms: C_56  and  C_61
                            x       y       z     vdW  Elec       q    Type
                         _______ _______ _______ _____ _____    ______ ____

>  <TORSDO>
F 17

$$$$
=
 OpenBabel10222416213D

 62 68  0  0  1  0  0  0  0  0999 V2000
  189.6710  177.1300  138.0850 C   0  0  1  0  0  3  0  0  0  0  0  0
  186.8840  178.7570  137.6570 N   0  0  0  0  0  0  0  0  0  0  0  0
  188.6030  177.6820  138.9390 N   0  0  0  0  0  0  0  0  0  0  0  0
  190.4040  176.6250  139.2420 C   0  0  2  0  0  3  0  0  0  0  0  0
  189.7810  175.6340  138.2880 C   0  0  2  0  0  3  0  0  0  0  0  0
  187.4370  178.5050  138.8070 C   0  0  0  0  0  0  0  0  0  0  0  0
  189.3700  177.2030  140.0400 N   0  0  0  0  0  2  0  0  0  0  0  0
  188.3950  177.1660  134.6320 N   0  0  0  0  0  0  0  0  0  0  0  0
  186.9950  176.7360  134.6010 C   0  0  0  0  0  3  0  0  0  0  0  0
  188.5470  177.9900  135.8330 C   0  0  0  0  0  2  0  0  0  0  0  0
  187.1880  178.1430  136.4000 C   0  0  0  0  0  0  0  0  0  0  0  0
  186.3340  177.4030  135.7420 C   0  0  0  0  0  0  0  0  0  0  0  0
  184.9120  177.1790  136.1470 C   0  0  0  0  0  2  0  0  0  0  0  0
  185.0800  175.9260  138.1440 O   0  0  0  0  0  0  0  0  0  0  0  0
  184.7690  175.9250  136.9630 C   0  0  0  0  0  0  0  0  0  0  0  0
  181.5750  173.0110  135.8040 N   0  0  0  0  0  2  0  0  0  0  0  0
  184.3570  172.2260  136.7260 C   0  0  0  0  0  2  0  0  0  0  0  0
  183.0980  171.3790  136.8190 C   0  0  1  0  0  3  0  0  0  0  0  0
  184.1630  173.5660  137.4040 C   0  0  0  0  0  2  0  0  0  0  0  0
  184.1770  174.6860  136.3720 C   0  0  1  0  0  3  0  0  0  0  0  0
  182.7790  174.9660  135.8350 C   0  0  0  0  0  2  0  0  0  0  0  0
  182.3330  173.8710  134.9900 N   0  0  0  0  0  2  0  0  0  0  0  0
  182.1420  171.6790  135.6640 C   0  0  1  0  0  3  0  0  0  0  0  0
  183.4700  170.0470  136.7960 F   0  0  0  0  0  0  0  0  0  0  0  0
  180.0500  170.7670  136.3970 O   0  0  0  0  0  1  0  0  0  0  0  0
  181.0960  169.6310  134.7040 O   0  0  0  0  0  0  0  0  0  0  0  0
  181.0340  170.6760  135.6150 C   0  0  0  0  0  0  0  0  0  0  0  0
  190.8080  175.0990  137.4090 N   0  0  0  0  0  2  0  0  0  0  0  0
  190.3740  173.7760  136.9810 C   0  0  0  0  0  2  0  0  0  0  0  0
  190.3010  174.1240  134.6210 O   0  0  0  0  0  0  0  0  0  0  0  0
  190.8350  173.5100  135.5880 C   0  0  0  0  0  0  0  0  0  0  0  0
  191.8740  172.6000  135.3780 O   0  0  0  0  0  0  0  0  0  0  0  0
  193.0480  172.9410  134.6530 C   0  0  0  0  0  2  0  0  0  0  0  0
  193.7360  173.9540  135.3180 O   0  0  0  0  0  0  0  0  0  0  0  0
  194.9660  173.4360  135.5450 N   0  0  0  0  0  2  0  0  0  0  0  0
  197.4180  174.2890  137.3210 C   0  0  1  0  0  3  0  0  0  0  0  0
  195.9070  174.4380  137.5750 C   0  0  2  0  0  3  0  0  0  0  0  0
  195.1460  170.8420  136.6190 N   0  0  0  0  0  1  0  0  0  0  0  0
  195.6690  174.5210  138.9490 O   0  0  0  0  0  1  0  0  0  0  0  0
  197.2670  172.0180  136.9280 C   0  0  0  0  0  2  0  0  0  0  0  0
  197.9200  173.0140  137.6830 O   0  0  0  0  0  0  0  0  0  0  0  0
  195.1060  173.2690  136.9870 C   0  0  2  0  0  3  0  0  0  0  0  0
  195.7930  171.9420  137.3150 C   0  0  1  0  0  3  0  0  0  0  0  0
  197.8270  174.7040  135.9110 C   0  0  0  0  0  1  0  0  0  0  0  0
  186.9330  179.2210  140.0120 C   0  0  0  0  0  2  0  0  0  0  0  0
  185.6500  178.5710  140.4910 C   0  0  0  0  0  2  0  0  0  0  0  0
  186.9700  177.6520  145.7330 N   0  0  0  0  0  0  0  0  0  0  0  0
  185.8120  178.1750  145.4620 C   0  0  0  0  0  0  0  0  0  0  0  0
  186.7330  177.1270  142.8020 C   0  0  0  0  0  3  0  0  0  0  0  0
  184.8000  178.2710  146.5480 C   0  0  0  0  0  1  0  0  0  0  0  0
  185.3590  178.9980  141.8480 N   0  0  0  0  0  2  0  0  0  0  0  0
  185.4890  178.7290  144.1740 N   0  0  0  0  0  0  0  0  0  0  0  0
  188.0960  177.6040  144.8030 C   0  0  2  0  0  3  0  0  0  0  0  0
  185.8760  178.3220  142.9970 C   0  0  0  0  0  0  0  0  0  0  0  0
  187.7180  176.7700  143.6190 C   0  0  0  0  0  3  0  0  0  0  0  0
  189.5340  177.8060  146.6900 C   0  0  0  0  0  2  0  0  0  0  0  0
  190.4380  177.3150  144.5880 C   0  0  0  0  0  2  0  0  0  0  0  0
  192.1130  176.8380  146.2500 O   0  0  0  0  0  0  0  0  0  0  0  0
  189.2880  177.0540  145.4580 N   0  0  2  0  0  0  0  0  0  0  0  0
  190.2150  176.9280  147.7450 C   0  0  0  0  0  2  0  0  0  0  0  0
  191.3680  176.0950  147.1750 C   0  0  0  0  0  2  0  0  0  0  0  0
  191.6280  176.4490  144.9930 C   0  0  0  0  0  2  0  0  0  0  0  0
  1  5  1  0  0  0  0
  1  3  1  1  0  0  0
  1  4  1  0  0  0  0
  2  6  2  0  0  0  0
  3  7  1  0  0  0  0
  4  7  1  1  0  0  0
  5 28  1  6  0  0  0
  5  4  1  0  0  0  0
  6  3  1  0  0  0  0
  6 45  1  0  0  0  0
  8 10  1  0  0  0  0
  9  8  2  0  0  0  0
  9 12  1  0  0  0  0
 10 11  1  0  0  0  0
 11  2  1  0  0  0  0
 12 13  1  0  0  0  0
 12 11  2  0  0  0  0
 13 15  1  0  0  0  0
 15 14  2  0  0  0  0
 17 18  1  0  0  0  0
 17 19  1  0  0  0  0
 18 24  1  6  0  0  0
 20 15  1  1  0  0  0
 20 19  1  0  0  0  0
 21 20  1  0  0  0  0
 22 16  1  0  0  0  0
 22 21  1  0  0  0  0
 23 27  1  1  0  0  0
 23 16  1  0  0  0  0
 23 18  1  0  0  0  0
 26 27  2  0  0  0  0
 27 25  1  0  0  0  0
 29 28  1  0  0  0  0
 30 31  2  0  0  0  0
 31 29  1  0  0  0  0
 32 31  1  0  0  0  0
 33 34  1  0  0  0  0
 33 32  1  0  0  0  0
 34 35  1  0  0  0  0
 36 44  1  6  0  0  0
 36 37  1  0  0  0  0
 36 41  1  0  0  0  0
 37 39  1  1  0  0  0
 40 43  1  0  0  0  0
 40 41  1  0  0  0  0
 42 35  1  6  0  0  0
 42 43  1  0  0  0  0
 42 37  1  0  0  0  0
 43 38  1  6  0  0  0
 45 46  1  0  0  0  0
 46 51  1  0  0  0  0
 48 47  2  0  0  0  0
 48 50  1  0  0  0  0
 49 54  1  0  0  0  0
 49 55  2  0  0  0  0
 51 54  1  0  0  0  0
 52 48  1  0  0  0  0
 53 55  1  6  0  0  0
 53 59  1  0  0  0  0
 53 47  1  0  0  0  0
 54 52  2  0  0  0  0
 56 60  1  0  0  0  0
 57 62  1  0  0  0  0
 58 61  1  0  0  0  0
 59 57  1  6  0  0  0
 59 56  1  0  0  0  0
 61 60  1  0  0  0  0
 62 58  1  0  0  0  0
M  END
>  <MODEL>
9

>  <REMARK>
 VINA RESULT:      -6.7      2.961      4.099
  Name = 
  17 active torsions:
  status: ('A' for Active; 'I' for Inactive)
    1  A    between atoms: C_2  and  N_37
    2  A    between atoms: C_2  and  C_50
    3  A    between atoms: C_5  and  N_18
    4  A    between atoms: C_5  and  C_27
    5  A    between atoms: N_17  and  C_41
    6  A    between atoms: C_22  and  C_33
    7  A    between atoms: C_22  and  C_36
    8  A    between atoms: N_24  and  C_48
    9  A    between atoms: N_24  and  O_53
   10  A    between atoms: C_27  and  C_55
   11  A    between atoms: C_31  and  N_44
   12  A    between atoms: C_33  and  C_57
   13  A    between atoms: N_37  and  C_54
   14  A    between atoms: C_45  and  O_47
   15  A    between atoms: C_45  and  O_53
   16  A    between atoms: O_47  and  C_50
   17  A    between atoms: C_56  and  C_61
                            x       y       z     vdW  Elec       q    Type
                         _______ _______ _______ _____ _____    ______ ____

>  <TORSDO>
F 17

$$$$
