=
 OpenBabel10222416123D

 44 48  0  0  1  0  0  0  0  0999 V2000
  189.6360  177.5380  139.4020 C   0  0  0  0  0  0  0  0  0  0  0  0
  188.2160  178.3640  141.1920 C   0  0  0  0  0  3  0  0  0  0  0  0
  188.8020  177.4620  142.0890 C   0  0  0  0  0  0  0  0  0  0  0  0
  188.6280  178.4020  139.8580 C   0  0  0  0  0  3  0  0  0  0  0  0
  189.8110  176.6050  141.6350 C   0  0  0  0  0  3  0  0  0  0  0  0
  190.2220  176.6380  140.2990 C   0  0  0  0  0  3  0  0  0  0  0  0
  187.1160  177.5210  144.0480 C   0  0  0  0  0  0  0  0  0  0  0  0
  186.9470  177.6080  145.3360 N   0  0  0  0  0  0  0  0  0  0  0  0
  188.4300  177.4140  143.4740 N   0  0  0  0  0  2  0  0  0  0  0  0
  187.5830  178.1360  147.6300 C   0  0  0  0  0  3  0  0  0  0  0  0
  188.5250  178.2200  148.6600 C   0  0  0  0  0  3  0  0  0  0  0  0
  187.9520  177.6660  146.3660 C   0  0  0  0  0  0  0  0  0  0  0  0
  189.8470  177.8330  148.4310 C   0  0  0  0  0  3  0  0  0  0  0  0
  190.2380  177.3650  147.1730 C   0  0  0  0  0  0  0  0  0  0  0  0
  189.2860  177.2860  146.1440 C   0  0  0  0  0  3  0  0  0  0  0  0
  191.5660  176.9840  146.9690 O   0  0  0  0  0  0  0  0  0  0  0  0
  192.0840  175.7450  147.4330 C   0  0  0  0  0  1  0  0  0  0  0  0
  185.8940  177.4790  143.1890 C   0  0  0  0  0  2  0  0  0  0  0  0
  185.3410  178.8790  142.9610 C   0  0  1  0  0  3  0  0  0  0  0  0
  181.7530  178.8220  144.0770 C   0  0  0  0  0  3  0  0  0  0  0  0
  180.5760  178.5550  143.3660 C   0  0  0  0  0  3  0  0  0  0  0  0
  184.6040  178.9600  141.2810 S   0  0  0  0  0  0  0  0  0  0  0  0
  181.8310  178.5180  141.2820 C   0  0  0  0  0  3  0  0  0  0  0  0
  182.9940  178.7960  142.0050 C   0  0  0  0  0  0  0  0  0  0  0  0
  180.6160  178.4010  141.9700 C   0  0  0  0  0  3  0  0  0  0  0  0
  182.9580  178.9340  143.3770 C   0  0  0  0  0  0  0  0  0  0  0  0
  184.2690  179.2000  144.0100 C   0  0  0  0  0  2  0  0  0  0  0  0
  190.0850  177.5530  138.0420 N   0  0  0  0  0  2  0  0  0  0  0  0
  189.4620  176.8860  136.9300 C   0  0  0  0  0  0  0  0  0  0  0  0
  188.3790  176.2500  137.0680 O   0  0  0  0  0  0  0  0  0  0  0  0
  190.0880  176.9670  135.5790 C   0  0  0  0  0  2  0  0  0  0  0  0
  190.9470  175.7770  135.2930 C   0  0  0  0  0  0  0  0  0  0  0  0
  190.4070  174.7150  134.8800 O   0  0  0  0  0  0  0  0  0  0  0  0
  192.3690  175.8550  135.4370 N   0  0  0  0  0  2  0  0  0  0  0  0
  193.2460  174.7330  135.1390 C   0  0  1  0  0  3  0  0  0  0  0  0
  194.5110  175.2050  134.7790 O   0  0  0  0  0  1  0  0  0  0  0  0
  196.6080  172.3750  137.2870 C   0  0  0  0  0  1  0  0  0  0  0  0
  194.6850  173.8360  136.9300 N   0  0  0  0  0  0  0  0  0  0  0  0
  193.3410  173.8000  136.3440 C   0  0  2  0  0  3  0  0  0  0  0  0
  192.8700  172.1080  135.8530 S   0  0  0  0  0  0  0  0  0  0  0  0
  195.0910  172.4750  137.2710 C   0  0  1  0  0  3  0  0  0  0  0  0
  194.4410  170.1170  136.8260 C   0  0  0  0  0  1  0  0  0  0  0  0
  194.5820  174.5780  138.1770 C   0  0  0  0  0  1  0  0  0  0  0  0
  194.5240  171.5190  136.2520 C   0  0  1  0  0  3  0  0  0  0  0  0
  1  4  2  0  0  0  0
  1  6  1  0  0  0  0
  2  3  2  0  0  0  0
  3  9  1  0  0  0  0
  4  2  1  0  0  0  0
  5  3  1  0  0  0  0
  6  5  2  0  0  0  0
  7  8  2  0  0  0  0
  8 12  1  0  0  0  0
  9  7  1  0  0  0  0
 10 11  1  0  0  0  0
 12 10  2  0  0  0  0
 13 11  2  0  0  0  0
 14 13  1  0  0  0  0
 15 12  1  0  0  0  0
 15 14  2  0  0  0  0
 16 14  1  0  0  0  0
 16 17  1  0  0  0  0
 18  7  1  0  0  0  0
 19 18  1  1  0  0  0
 19 27  1  0  0  0  0
 21 20  2  0  0  0  0
 22 24  1  0  0  0  0
 22 19  1  0  0  0  0
 23 25  2  0  0  0  0
 23 24  1  0  0  0  0
 24 26  2  0  0  0  0
 25 21  1  0  0  0  0
 26 27  1  0  0  0  0
 26 20  1  0  0  0  0
 28  1  1  0  0  0  0
 29 30  2  0  0  0  0
 29 28  1  0  0  0  0
 31 29  1  0  0  0  0
 32 34  1  0  0  0  0
 32 31  1  0  0  0  0
 33 32  2  0  0  0  0
 35 36  1  1  0  0  0
 35 34  1  0  0  0  0
 38 41  1  0  0  0  0
 38 43  1  0  0  0  0
 39 35  1  6  0  0  0
 39 38  1  0  0  0  0
 40 44  1  0  0  0  0
 40 39  1  0  0  0  0
 41 37  1  6  0  0  0
 44 42  1  1  0  0  0
 44 41  1  0  0  0  0
M  END
>  <MODEL>
1

>  <REMARK>
 VINA RESULT:      -9.2      0.000      0.000
  Name = 
  10 active torsions:
  status: ('A' for Active; 'I' for Inactive)
    1  A    between atoms: C_2  and  C_13
    2  A    between atoms: C_2  and  N_26
    3  A    between atoms: C_3  and  N_32
    4  A    between atoms: C_4  and  C_36
    5  A    between atoms: C_11  and  C_12
    6  A    between atoms: C_11  and  C_41
    7  A    between atoms: C_17  and  C_36
    8  A    between atoms: C_18  and  N_29
    9  A    between atoms: N_20  and  C_23
   10  A    between atoms: C_37  and  O_40
                            x       y       z     vdW  Elec       q    Type
                         _______ _______ _______ _____ _____    ______ ____

>  <TORSDO>
F 10

$$$$
=
 OpenBabel10222416123D

 44 48  0  0  1  0  0  0  0  0999 V2000
  183.5400  179.0160  143.6010 C   0  0  0  0  0  0  0  0  0  0  0  0
  185.2580  178.2850  145.1570 C   0  0  0  0  0  3  0  0  0  0  0  0
  186.1860  178.2030  144.1110 C   0  0  0  0  0  0  0  0  0  0  0  0
  183.9440  178.6870  144.9040 C   0  0  0  0  0  3  0  0  0  0  0  0
  185.7840  178.5360  142.8130 C   0  0  0  0  0  3  0  0  0  0  0  0
  184.4680  178.9350  142.5570 C   0  0  0  0  0  3  0  0  0  0  0  0
  188.4630  177.1960  143.4150 C   0  0  0  0  0  0  0  0  0  0  0  0
  189.6320  176.7780  143.8050 N   0  0  0  0  0  0  0  0  0  0  0  0
  187.5520  177.8260  144.3330 N   0  0  0  0  0  2  0  0  0  0  0  0
  191.4450  176.2150  145.3370 C   0  0  0  0  0  3  0  0  0  0  0  0
  192.0260  176.2060  146.6080 C   0  0  0  0  0  3  0  0  0  0  0  0
  190.1920  176.8030  145.1320 C   0  0  0  0  0  0  0  0  0  0  0  0
  191.3550  176.7860  147.6870 C   0  0  0  0  0  3  0  0  0  0  0  0
  190.1000  177.3740  147.5050 C   0  0  0  0  0  0  0  0  0  0  0  0
  189.5240  177.3770  146.2250 C   0  0  0  0  0  3  0  0  0  0  0  0
  189.4510  177.9470  148.6000 O   0  0  0  0  0  0  0  0  0  0  0  0
  188.0480  178.1730  148.6240 C   0  0  0  0  0  1  0  0  0  0  0  0
  188.1210  177.0530  141.9670 C   0  0  0  0  0  2  0  0  0  0  0  0
  189.0250  177.9250  141.1070 C   0  0  1  0  0  3  0  0  0  0  0  0
  187.6380  177.8140  137.6170 C   0  0  0  0  0  3  0  0  0  0  0  0
  187.9230  176.9610  136.5430 C   0  0  0  0  0  3  0  0  0  0  0  0
  190.3550  176.8790  140.3930 S   0  0  0  0  0  0  0  0  0  0  0  0
  189.7640  175.9820  137.7980 C   0  0  0  0  0  3  0  0  0  0  0  0
  189.4720  176.8470  138.8560 C   0  0  0  0  0  0  0  0  0  0  0  0
  188.9840  176.0440  136.6360 C   0  0  0  0  0  3  0  0  0  0  0  0
  188.4220  177.7380  138.7720 C   0  0  0  0  0  0  0  0  0  0  0  0
  188.2150  178.5710  139.9770 C   0  0  0  0  0  2  0  0  0  0  0  0
  182.2020  179.4350  143.3080 N   0  0  0  0  0  2  0  0  0  0  0  0
  181.3430  178.8960  142.2880 C   0  0  0  0  0  0  0  0  0  0  0  0
  181.7050  177.9200  141.5720 O   0  0  0  0  0  0  0  0  0  0  0  0
  179.9860  179.4810  142.0840 C   0  0  0  0  0  2  0  0  0  0  0  0
  179.7220  179.7800  140.6430 C   0  0  0  0  0  0  0  0  0  0  0  0
  178.9320  179.0410  139.9970 O   0  0  0  0  0  0  0  0  0  0  0  0
  180.3170  180.9210  140.0160 N   0  0  0  0  0  2  0  0  0  0  0  0
  180.0630  181.2700  138.6270 C   0  0  1  0  0  3  0  0  0  0  0  0
  179.9800  182.6590  138.4950 O   0  0  0  0  0  1  0  0  0  0  0  0
  181.1040  177.1420  136.7950 C   0  0  0  0  0  1  0  0  0  0  0  0
  180.6850  179.5400  136.9820 N   0  0  0  0  0  0  0  0  0  0  0  0
  181.1640  180.7080  137.7290 C   0  0  2  0  0  3  0  0  0  0  0  0
  182.6320  180.3060  138.7330 S   0  0  0  0  0  0  0  0  0  0  0  0
  181.7270  178.5170  136.9850 C   0  0  1  0  0  3  0  0  0  0  0  0
  183.8450  177.9460  138.1550 C   0  0  0  0  0  1  0  0  0  0  0  0
  180.5060  179.9660  135.6030 C   0  0  0  0  0  1  0  0  0  0  0  0
  182.4680  178.5670  138.2980 C   0  0  1  0  0  3  0  0  0  0  0  0
  1  4  1  0  0  0  0
  3  9  1  0  0  0  0
  3  2  1  0  0  0  0
  4  2  2  0  0  0  0
  5  3  2  0  0  0  0
  6  5  1  0  0  0  0
  6  1  2  0  0  0  0
  7  8  2  0  0  0  0
  7  9  1  0  0  0  0
  8 12  1  0  0  0  0
 10 11  1  0  0  0  0
 11 13  2  0  0  0  0
 12 10  2  0  0  0  0
 12 15  1  0  0  0  0
 14 13  1  0  0  0  0
 14 16  1  0  0  0  0
 15 14  2  0  0  0  0
 16 17  1  0  0  0  0
 18  7  1  0  0  0  0
 19 18  1  6  0  0  0
 20 26  1  0  0  0  0
 21 25  1  0  0  0  0
 21 20  2  0  0  0  0
 22 19  1  0  0  0  0
 23 24  1  0  0  0  0
 24 22  1  0  0  0  0
 25 23  2  0  0  0  0
 26 24  2  0  0  0  0
 26 27  1  0  0  0  0
 27 19  1  0  0  0  0
 28  1  1  0  0  0  0
 29 28  1  0  0  0  0
 30 29  2  0  0  0  0
 31 29  1  0  0  0  0
 32 31  1  0  0  0  0
 33 32  2  0  0  0  0
 34 32  1  0  0  0  0
 35 36  1  1  0  0  0
 35 34  1  0  0  0  0
 38 41  1  0  0  0  0
 38 39  1  0  0  0  0
 39 35  1  1  0  0  0
 39 40  1  0  0  0  0
 41 37  1  1  0  0  0
 41 44  1  0  0  0  0
 43 38  1  0  0  0  0
 44 42  1  6  0  0  0
 44 40  1  0  0  0  0
M  END
>  <MODEL>
2

>  <REMARK>
 VINA RESULT:      -8.8      4.743      9.568
  Name = 
  10 active torsions:
  status: ('A' for Active; 'I' for Inactive)
    1  A    between atoms: C_2  and  C_13
    2  A    between atoms: C_2  and  N_26
    3  A    between atoms: C_3  and  N_32
    4  A    between atoms: C_4  and  C_36
    5  A    between atoms: C_11  and  C_12
    6  A    between atoms: C_11  and  C_41
    7  A    between atoms: C_17  and  C_36
    8  A    between atoms: C_18  and  N_29
    9  A    between atoms: N_20  and  C_23
   10  A    between atoms: C_37  and  O_40
                            x       y       z     vdW  Elec       q    Type
                         _______ _______ _______ _____ _____    ______ ____

>  <TORSDO>
F 10

$$$$
=
 OpenBabel10222416123D

 44 48  0  0  1  0  0  0  0  0999 V2000
  190.4760  177.5910  141.5790 C   0  0  0  0  0  0  0  0  0  0  0  0
  190.3770  176.8690  139.2620 C   0  0  0  0  0  3  0  0  0  0  0  0
  191.7760  176.8100  139.2080 C   0  0  0  0  0  0  0  0  0  0  0  0
  189.7310  177.2590  140.4370 C   0  0  0  0  0  3  0  0  0  0  0  0
  192.5170  177.1370  140.3500 C   0  0  0  0  0  3  0  0  0  0  0  0
  191.8720  177.5300  141.5270 C   0  0  0  0  0  3  0  0  0  0  0  0
  192.2060  175.2440  137.1980 C   0  0  0  0  0  0  0  0  0  0  0  0
  193.0210  174.8990  136.2430 N   0  0  0  0  0  0  0  0  0  0  0  0
  192.4760  176.3840  138.0310 N   0  0  0  0  0  2  0  0  0  0  0  0
  194.2780  176.5650  134.9810 C   0  0  0  0  0  3  0  0  0  0  0  0
  195.4770  177.1730  134.5950 C   0  0  0  0  0  3  0  0  0  0  0  0
  194.2810  175.4970  135.8840 C   0  0  0  0  0  0  0  0  0  0  0  0
  196.6910  176.7140  135.1120 C   0  0  0  0  0  3  0  0  0  0  0  0
  196.7160  175.6440  136.0120 C   0  0  0  0  0  0  0  0  0  0  0  0
  195.5080  175.0390  136.3920 C   0  0  0  0  0  3  0  0  0  0  0  0
  197.9420  175.2050  136.5140 O   0  0  0  0  0  0  0  0  0  0  0  0
  198.0720  174.6000  137.7930 C   0  0  0  0  0  1  0  0  0  0  0  0
  190.9510  174.4490  137.3610 C   0  0  0  0  0  2  0  0  0  0  0  0
  190.0640  174.5770  136.1310 C   0  0  1  0  0  3  0  0  0  0  0  0
  188.7860  178.1100  136.0780 C   0  0  0  0  0  3  0  0  0  0  0  0
  187.6240  178.6730  136.6190 C   0  0  0  0  0  3  0  0  0  0  0  0
  188.3350  174.1750  136.6010 S   0  0  0  0  0  0  0  0  0  0  0  0
  186.8070  176.4550  137.1970 C   0  0  0  0  0  3  0  0  0  0  0  0
  187.9680  175.9090  136.6430 C   0  0  0  0  0  0  0  0  0  0  0  0
  186.6360  177.8450  137.1800 C   0  0  0  0  0  3  0  0  0  0  0  0
  188.9450  176.7220  136.1040 C   0  0  0  0  0  0  0  0  0  0  0  0
  190.1290  176.0070  135.5800 C   0  0  0  0  0  2  0  0  0  0  0  0
  189.8450  177.9910  142.8020 N   0  0  0  0  0  2  0  0  0  0  0  0
  188.8410  177.2570  143.5250 C   0  0  0  0  0  0  0  0  0  0  0  0
  188.4620  176.1140  143.1440 O   0  0  0  0  0  0  0  0  0  0  0  0
  188.2530  177.8410  144.7650 C   0  0  0  0  0  2  0  0  0  0  0  0
  186.7690  177.6620  144.8120 C   0  0  0  0  0  0  0  0  0  0  0  0
  186.2670  176.9300  145.7080 O   0  0  0  0  0  0  0  0  0  0  0  0
  185.9240  178.3520  143.8860 N   0  0  0  0  0  2  0  0  0  0  0  0
  184.4740  178.2340  143.9150 C   0  0  1  0  0  3  0  0  0  0  0  0
  183.9910  178.6470  145.1590 O   0  0  0  0  0  1  0  0  0  0  0  0
  181.4220  177.4910  140.5070 C   0  0  0  0  0  1  0  0  0  0  0  0
  182.5390  178.5290  142.4140 N   0  0  0  0  0  0  0  0  0  0  0  0
  183.8520  179.0620  142.7920 C   0  0  2  0  0  3  0  0  0  0  0  0
  184.9880  179.1180  141.3670 S   0  0  0  0  0  0  0  0  0  0  0  0
  182.4230  178.5440  140.9580 C   0  0  1  0  0  3  0  0  0  0  0  0
  183.8370  178.7890  138.9280 C   0  0  0  0  0  1  0  0  0  0  0  0
  181.5430  179.4530  142.9330 C   0  0  0  0  0  1  0  0  0  0  0  0
  183.7740  178.2630  140.3500 C   0  0  1  0  0  3  0  0  0  0  0  0
  1 28  1  0  0  0  0
  2  4  1  0  0  0  0
  3  2  2  0  0  0  0
  3  5  1  0  0  0  0
  4  1  2  0  0  0  0
  5  6  2  0  0  0  0
  6  1  1  0  0  0  0
  7 18  1  0  0  0  0
  7  9  1  0  0  0  0
  8  7  2  0  0  0  0
  9  3  1  0  0  0  0
 10 12  1  0  0  0  0
 11 10  2  0  0  0  0
 11 13  1  0  0  0  0
 12  8  1  0  0  0  0
 12 15  2  0  0  0  0
 13 14  2  0  0  0  0
 14 15  1  0  0  0  0
 14 16  1  0  0  0  0
 16 17  1  0  0  0  0
 19 22  1  0  0  0  0
 19 18  1  1  0  0  0
 20 26  2  0  0  0  0
 20 21  1  0  0  0  0
 21 25  2  0  0  0  0
 22 24  1  0  0  0  0
 24 23  2  0  0  0  0
 25 23  1  0  0  0  0
 26 24  1  0  0  0  0
 27 26  1  0  0  0  0
 27 19  1  0  0  0  0
 28 29  1  0  0  0  0
 29 31  1  0  0  0  0
 30 29  2  0  0  0  0
 31 32  1  0  0  0  0
 32 33  2  0  0  0  0
 34 35  1  0  0  0  0
 34 32  1  0  0  0  0
 35 36  1  1  0  0  0
 38 39  1  0  0  0  0
 38 43  1  0  0  0  0
 39 35  1  1  0  0  0
 40 39  1  0  0  0  0
 41 37  1  1  0  0  0
 41 38  1  0  0  0  0
 44 42  1  6  0  0  0
 44 41  1  0  0  0  0
 44 40  1  0  0  0  0
M  END
>  <MODEL>
3

>  <REMARK>
 VINA RESULT:      -8.3      2.859     10.717
  Name = 
  10 active torsions:
  status: ('A' for Active; 'I' for Inactive)
    1  A    between atoms: C_2  and  C_13
    2  A    between atoms: C_2  and  N_26
    3  A    between atoms: C_3  and  N_32
    4  A    between atoms: C_4  and  C_36
    5  A    between atoms: C_11  and  C_12
    6  A    between atoms: C_11  and  C_41
    7  A    between atoms: C_17  and  C_36
    8  A    between atoms: C_18  and  N_29
    9  A    between atoms: N_20  and  C_23
   10  A    between atoms: C_37  and  O_40
                            x       y       z     vdW  Elec       q    Type
                         _______ _______ _______ _____ _____    ______ ____

>  <TORSDO>
F 10

$$$$
=
 OpenBabel10222416123D

 44 48  0  0  1  0  0  0  0  0999 V2000
  190.6980  177.6830  142.8590 C   0  0  0  0  0  0  0  0  0  0  0  0
  190.1520  176.7650  140.6760 C   0  0  0  0  0  3  0  0  0  0  0  0
  191.4710  176.9660  140.2490 C   0  0  0  0  0  0  0  0  0  0  0  0
  189.7670  177.1220  141.9710 C   0  0  0  0  0  3  0  0  0  0  0  0
  192.4000  177.5200  141.1370 C   0  0  0  0  0  3  0  0  0  0  0  0
  192.0160  177.8810  142.4330 C   0  0  0  0  0  3  0  0  0  0  0  0
  191.1230  176.1300  137.8280 C   0  0  0  0  0  0  0  0  0  0  0  0
  191.6810  175.6760  136.7430 N   0  0  0  0  0  0  0  0  0  0  0  0
  191.9150  176.5830  138.9400 N   0  0  0  0  0  2  0  0  0  0  0  0
  193.7400  174.4050  137.0530 C   0  0  0  0  0  3  0  0  0  0  0  0
  195.1020  174.1900  136.8240 C   0  0  0  0  0  3  0  0  0  0  0  0
  193.0830  175.4940  136.4700 C   0  0  0  0  0  0  0  0  0  0  0  0
  195.8200  175.0690  136.0100 C   0  0  0  0  0  3  0  0  0  0  0  0
  195.1850  176.1670  135.4220 C   0  0  0  0  0  0  0  0  0  0  0  0
  193.8170  176.3740  135.6580 C   0  0  0  0  0  3  0  0  0  0  0  0
  195.9250  177.0290  134.6110 O   0  0  0  0  0  0  0  0  0  0  0  0
  196.1790  178.3810  134.9660 C   0  0  0  0  0  1  0  0  0  0  0  0
  189.6320  176.2190  137.8570 C   0  0  0  0  0  2  0  0  0  0  0  0
  189.1460  177.4420  137.0920 C   0  0  1  0  0  3  0  0  0  0  0  0
  185.7190  178.2510  138.4040 C   0  0  0  0  0  3  0  0  0  0  0  0
  184.4520  177.8370  137.9740 C   0  0  0  0  0  3  0  0  0  0  0  0
  188.2230  176.8860  135.6050 S   0  0  0  0  0  0  0  0  0  0  0  0
  185.4470  176.7880  136.0170 C   0  0  0  0  0  3  0  0  0  0  0  0
  186.7020  177.2180  136.4540 C   0  0  0  0  0  0  0  0  0  0  0  0
  184.3160  177.1040  136.7830 C   0  0  0  0  0  3  0  0  0  0  0  0
  186.8370  177.9260  137.6310 C   0  0  0  0  0  0  0  0  0  0  0  0
  188.2280  178.2900  137.9810 C   0  0  0  0  0  2  0  0  0  0  0  0
  190.3380  178.0570  144.1940 N   0  0  0  0  0  2  0  0  0  0  0  0
  190.6410  177.3280  145.3960 C   0  0  0  0  0  0  0  0  0  0  0  0
  191.3370  176.2730  145.3670 O   0  0  0  0  0  0  0  0  0  0  0  0
  190.1510  177.8370  146.7090 C   0  0  0  0  0  2  0  0  0  0  0  0
  188.6870  177.5860  146.8890 C   0  0  0  0  0  0  0  0  0  0  0  0
  188.3140  176.6100  147.5950 O   0  0  0  0  0  0  0  0  0  0  0  0
  187.7210  178.4700  146.3120 N   0  0  0  0  0  2  0  0  0  0  0  0
  186.2890  178.2840  146.4880 C   0  0  1  0  0  3  0  0  0  0  0  0
  185.6830  179.5130  146.7650 O   0  0  0  0  0  1  0  0  0  0  0  0
  186.7200  178.8380  141.9070 C   0  0  0  0  0  1  0  0  0  0  0  0
  186.5910  177.7650  144.0960 N   0  0  0  0  0  0  0  0  0  0  0  0
  185.6790  177.6510  145.2390 C   0  0  2  0  0  3  0  0  0  0  0  0
  184.0630  178.4190  144.8850 S   0  0  0  0  0  0  0  0  0  0  0  0
  185.8220  178.1300  142.9090 C   0  0  1  0  0  3  0  0  0  0  0  0
  183.5820  179.0040  142.2760 C   0  0  0  0  0  1  0  0  0  0  0  0
  187.1390  176.4380  143.8600 C   0  0  0  0  0  1  0  0  0  0  0  0
  184.6880  179.0390  143.3140 C   0  0  1  0  0  3  0  0  0  0  0  0
  1 28  1  0  0  0  0
  2  4  1  0  0  0  0
  3  2  2  0  0  0  0
  3  5  1  0  0  0  0
  4  1  2  0  0  0  0
  5  6  2  0  0  0  0
  6  1  1  0  0  0  0
  7 18  1  0  0  0  0
  7  9  1  0  0  0  0
  8  7  2  0  0  0  0
  9  3  1  0  0  0  0
 11 10  1  0  0  0  0
 12  8  1  0  0  0  0
 12 10  2  0  0  0  0
 13 11  2  0  0  0  0
 14 15  2  0  0  0  0
 14 13  1  0  0  0  0
 15 12  1  0  0  0  0
 16 17  1  0  0  0  0
 16 14  1  0  0  0  0
 19 18  1  1  0  0  0
 19 27  1  0  0  0  0
 21 20  1  0  0  0  0
 22 24  1  0  0  0  0
 22 19  1  0  0  0  0
 23 24  2  0  0  0  0
 23 25  1  0  0  0  0
 24 26  1  0  0  0  0
 25 21  2  0  0  0  0
 26 27  1  0  0  0  0
 26 20  2  0  0  0  0
 28 29  1  0  0  0  0
 29 31  1  0  0  0  0
 30 29  2  0  0  0  0
 31 32  1  0  0  0  0
 32 33  2  0  0  0  0
 34 35  1  0  0  0  0
 34 32  1  0  0  0  0
 35 36  1  6  0  0  0
 38 39  1  0  0  0  0
 39 35  1  1  0  0  0
 40 39  1  0  0  0  0
 41 37  1  6  0  0  0
 41 44  1  0  0  0  0
 41 38  1  0  0  0  0
 43 38  1  0  0  0  0
 44 42  1  6  0  0  0
 44 40  1  0  0  0  0
M  END
>  <MODEL>
4

>  <REMARK>
 VINA RESULT:      -8.3      2.659     10.193
  Name = 
  10 active torsions:
  status: ('A' for Active; 'I' for Inactive)
    1  A    between atoms: C_2  and  C_13
    2  A    between atoms: C_2  and  N_26
    3  A    between atoms: C_3  and  N_32
    4  A    between atoms: C_4  and  C_36
    5  A    between atoms: C_11  and  C_12
    6  A    between atoms: C_11  and  C_41
    7  A    between atoms: C_17  and  C_36
    8  A    between atoms: C_18  and  N_29
    9  A    between atoms: N_20  and  C_23
   10  A    between atoms: C_37  and  O_40
                            x       y       z     vdW  Elec       q    Type
                         _______ _______ _______ _____ _____    ______ ____

>  <TORSDO>
F 10

$$$$
=
 OpenBabel10222416123D

 44 48  0  0  1  0  0  0  0  0999 V2000
  189.7110  177.8120  142.1790 C   0  0  0  0  0  0  0  0  0  0  0  0
  189.4760  177.1540  139.8520 C   0  0  0  0  0  3  0  0  0  0  0  0
  190.8680  177.0880  139.7170 C   0  0  0  0  0  0  0  0  0  0  0  0
  188.9000  177.5150  141.0720 C   0  0  0  0  0  3  0  0  0  0  0  0
  191.6760  177.3800  140.8230 C   0  0  0  0  0  3  0  0  0  0  0  0
  191.1020  177.7440  142.0450 C   0  0  0  0  0  3  0  0  0  0  0  0
  190.9250  176.6340  137.1740 C   0  0  0  0  0  0  0  0  0  0  0  0
  191.5780  176.1110  136.1760 N   0  0  0  0  0  0  0  0  0  0  0  0
  191.4980  176.6910  138.4910 N   0  0  0  0  0  2  0  0  0  0  0  0
  192.9520  174.1220  136.4960 C   0  0  0  0  0  3  0  0  0  0  0  0
  194.1880  173.4700  136.5290 C   0  0  0  0  0  3  0  0  0  0  0  0
  192.8740  175.4840  136.1880 C   0  0  0  0  0  0  0  0  0  0  0  0
  195.3600  174.1800  136.2560 C   0  0  0  0  0  3  0  0  0  0  0  0
  195.3050  175.5440  135.9520 C   0  0  0  0  0  0  0  0  0  0  0  0
  194.0590  176.1900  135.9220 C   0  0  0  0  0  3  0  0  0  0  0  0
  196.4900  176.2310  135.6830 O   0  0  0  0  0  0  0  0  0  0  0  0
  197.7630  175.6010  135.7170 C   0  0  0  0  0  1  0  0  0  0  0  0
  189.5820  177.2260  136.8900 C   0  0  0  0  0  2  0  0  0  0  0  0
  188.9090  176.5140  135.7250 C   0  0  1  0  0  3  0  0  0  0  0  0
  185.2240  177.1800  136.0290 C   0  0  0  0  0  3  0  0  0  0  0  0
  184.2130  176.4600  136.6780 C   0  0  0  0  0  3  0  0  0  0  0  0
  188.4400  174.8200  136.2560 S   0  0  0  0  0  0  0  0  0  0  0  0
  185.7730  174.6450  137.1170 C   0  0  0  0  0  3  0  0  0  0  0  0
  186.7670  175.3720  136.4580 C   0  0  0  0  0  0  0  0  0  0  0  0
  184.4880  175.1940  137.2230 C   0  0  0  0  0  3  0  0  0  0  0  0
  186.5010  176.6200  135.9340 C   0  0  0  0  0  0  0  0  0  0  0  0
  187.6560  177.2830  135.2890 C   0  0  0  0  0  2  0  0  0  0  0  0
  189.1540  178.1820  143.4460 N   0  0  0  0  0  2  0  0  0  0  0  0
  188.4370  177.3200  144.3470 C   0  0  0  0  0  0  0  0  0  0  0  0
  188.2860  176.0900  144.1000 O   0  0  0  0  0  0  0  0  0  0  0  0
  187.8810  177.8790  145.6130 C   0  0  0  0  0  2  0  0  0  0  0  0
  186.3920  178.0040  145.5580 C   0  0  0  0  0  0  0  0  0  0  0  0
  185.7250  177.8800  146.6200 O   0  0  0  0  0  0  0  0  0  0  0  0
  185.7330  178.3100  144.3240 N   0  0  0  0  0  2  0  0  0  0  0  0
  184.2900  178.4730  144.2290 C   0  0  1  0  0  3  0  0  0  0  0  0
  183.8300  179.2460  145.2970 O   0  0  0  0  0  1  0  0  0  0  0  0
  182.7100  177.0010  140.1280 C   0  0  0  0  0  1  0  0  0  0  0  0
  182.9270  178.3050  142.1800 N   0  0  0  0  0  0  0  0  0  0  0  0
  183.9170  179.1170  142.8960 C   0  0  2  0  0  3  0  0  0  0  0  0
  185.4180  179.3780  141.8940 S   0  0  0  0  0  0  0  0  0  0  0  0
  183.2860  178.2560  140.7660 C   0  0  1  0  0  3  0  0  0  0  0  0
  185.2050  178.7440  139.2620 C   0  0  0  0  0  1  0  0  0  0  0  0
  181.6570  179.0080  142.2760 C   0  0  0  0  0  1  0  0  0  0  0  0
  184.7890  178.2550  140.6360 C   0  0  1  0  0  3  0  0  0  0  0  0
  1 28  1  0  0  0  0
  2  4  1  0  0  0  0
  3  2  2  0  0  0  0
  3  5  1  0  0  0  0
  4  1  2  0  0  0  0
  5  6  2  0  0  0  0
  6  1  1  0  0  0  0
  7  9  1  0  0  0  0
  8 12  1  0  0  0  0
  8  7  2  0  0  0  0
  9  3  1  0  0  0  0
 10 11  1  0  0  0  0
 12 10  2  0  0  0  0
 13 11  2  0  0  0  0
 14 13  1  0  0  0  0
 15 14  2  0  0  0  0
 15 12  1  0  0  0  0
 16 17  1  0  0  0  0
 16 14  1  0  0  0  0
 18  7  1  0  0  0  0
 19 22  1  0  0  0  0
 19 18  1  1  0  0  0
 20 21  1  0  0  0  0
 21 25  2  0  0  0  0
 22 24  1  0  0  0  0
 23 25  1  0  0  0  0
 24 23  2  0  0  0  0
 26 20  2  0  0  0  0
 26 24  1  0  0  0  0
 27 19  1  0  0  0  0
 27 26  1  0  0  0  0
 28 29  1  0  0  0  0
 29 31  1  0  0  0  0
 30 29  2  0  0  0  0
 32 31  1  0  0  0  0
 32 33  2  0  0  0  0
 34 32  1  0  0  0  0
 35 34  1  0  0  0  0
 35 36  1  1  0  0  0
 38 43  1  0  0  0  0
 38 39  1  0  0  0  0
 39 35  1  1  0  0  0
 40 39  1  0  0  0  0
 41 37  1  1  0  0  0
 41 38  1  0  0  0  0
 44 42  1  6  0  0  0
 44 41  1  0  0  0  0
 44 40  1  0  0  0  0
M  END
>  <MODEL>
5

>  <REMARK>
 VINA RESULT:      -8.3      2.963     10.332
  Name = 
  10 active torsions:
  status: ('A' for Active; 'I' for Inactive)
    1  A    between atoms: C_2  and  C_13
    2  A    between atoms: C_2  and  N_26
    3  A    between atoms: C_3  and  N_32
    4  A    between atoms: C_4  and  C_36
    5  A    between atoms: C_11  and  C_12
    6  A    between atoms: C_11  and  C_41
    7  A    between atoms: C_17  and  C_36
    8  A    between atoms: C_18  and  N_29
    9  A    between atoms: N_20  and  C_23
   10  A    between atoms: C_37  and  O_40
                            x       y       z     vdW  Elec       q    Type
                         _______ _______ _______ _____ _____    ______ ____

>  <TORSDO>
F 10

$$$$
=
 OpenBabel10222416123D

 44 48  0  0  1  0  0  0  0  0999 V2000
  183.4400  178.9630  140.7360 C   0  0  0  0  0  0  0  0  0  0  0  0
  184.6420  178.1960  142.7030 C   0  0  0  0  0  3  0  0  0  0  0  0
  185.8570  178.2950  142.0130 C   0  0  0  0  0  0  0  0  0  0  0  0
  183.4420  178.5260  142.0690 C   0  0  0  0  0  3  0  0  0  0  0  0
  185.8550  178.7370  140.6850 C   0  0  0  0  0  3  0  0  0  0  0  0
  184.6540  179.0640  140.0480 C   0  0  0  0  0  3  0  0  0  0  0  0
  188.2780  177.3890  142.0500 C   0  0  0  0  0  0  0  0  0  0  0  0
  189.2990  177.0440  142.7800 N   0  0  0  0  0  0  0  0  0  0  0  0
  187.1140  177.9970  142.6370 N   0  0  0  0  0  2  0  0  0  0  0  0
  188.3170  177.4340  144.9780 C   0  0  0  0  0  3  0  0  0  0  0  0
  188.4120  177.5450  146.3680 C   0  0  0  0  0  3  0  0  0  0  0  0
  189.4480  177.1380  144.2090 C   0  0  0  0  0  0  0  0  0  0  0  0
  189.6440  177.3620  147.0010 C   0  0  0  0  0  3  0  0  0  0  0  0
  190.7880  177.0710  146.2510 C   0  0  0  0  0  0  0  0  0  0  0  0
  190.6820  176.9630  144.8550 C   0  0  0  0  0  3  0  0  0  0  0  0
  192.0060  176.8920  146.9070 O   0  0  0  0  0  0  0  0  0  0  0  0
  192.3830  175.6540  147.4940 C   0  0  0  0  0  1  0  0  0  0  0  0
  188.3790  177.1840  140.5730 C   0  0  0  0  0  2  0  0  0  0  0  0
  189.5270  177.9950  139.9900 C   0  0  1  0  0  3  0  0  0  0  0  0
  188.9040  178.2520  136.2930 C   0  0  0  0  0  3  0  0  0  0  0  0
  189.3230  177.4370  135.2340 C   0  0  0  0  0  3  0  0  0  0  0  0
  190.8650  176.8470  139.4780 S   0  0  0  0  0  0  0  0  0  0  0  0
  190.7480  176.1790  136.7530 C   0  0  0  0  0  3  0  0  0  0  0  0
  190.3280  177.0080  137.7950 C   0  0  0  0  0  0  0  0  0  0  0  0
  190.2430  176.4000  135.4650 C   0  0  0  0  0  3  0  0  0  0  0  0
  189.4150  178.0180  137.5730 C   0  0  0  0  0  0  0  0  0  0  0  0
  189.0430  178.7960  138.7750 C   0  0  0  0  0  2  0  0  0  0  0  0
  182.2280  179.3130  140.0570 N   0  0  0  0  0  2  0  0  0  0  0  0
  181.2510  178.3990  139.5290 C   0  0  0  0  0  0  0  0  0  0  0  0
  181.3680  177.1510  139.6840 O   0  0  0  0  0  0  0  0  0  0  0  0
  180.0600  178.9320  138.8070 C   0  0  0  0  0  2  0  0  0  0  0  0
  180.0710  178.5490  137.3610 C   0  0  0  0  0  0  0  0  0  0  0  0
  179.0290  178.7220  136.6720 O   0  0  0  0  0  0  0  0  0  0  0  0
  181.2620  178.0400  136.7530 N   0  0  0  0  0  2  0  0  0  0  0  0
  181.3290  177.6850  135.3430 C   0  0  1  0  0  3  0  0  0  0  0  0
  181.7300  178.7950  134.5950 O   0  0  0  0  0  1  0  0  0  0  0  0
  183.7060  174.7850  138.0670 C   0  0  0  0  0  1  0  0  0  0  0  0
  182.2560  175.6000  136.2790 N   0  0  0  0  0  0  0  0  0  0  0  0
  182.2920  176.5180  135.1350 C   0  0  2  0  0  3  0  0  0  0  0  0
  183.9750  177.1520  134.8370 S   0  0  0  0  0  0  0  0  0  0  0  0
  183.6210  175.1950  136.6040 C   0  0  1  0  0  3  0  0  0  0  0  0
  185.9740  175.8460  136.1320 C   0  0  0  0  0  1  0  0  0  0  0  0
  181.5480  174.4080  135.8420 C   0  0  0  0  0  1  0  0  0  0  0  0
  184.5570  176.3480  136.3390 C   0  0  1  0  0  3  0  0  0  0  0  0
  1  4  1  0  0  0  0
  3  9  1  0  0  0  0
  3  2  1  0  0  0  0
  4  2  2  0  0  0  0
  5  3  2  0  0  0  0
  6  5  1  0  0  0  0
  6  1  2  0  0  0  0
  7  9  1  0  0  0  0
  7  8  2  0  0  0  0
  8 12  1  0  0  0  0
 10 11  1  0  0  0  0
 11 13  2  0  0  0  0
 12 15  1  0  0  0  0
 12 10  2  0  0  0  0
 14 16  1  0  0  0  0
 14 13  1  0  0  0  0
 15 14  2  0  0  0  0
 16 17  1  0  0  0  0
 18  7  1  0  0  0  0
 19 18  1  6  0  0  0
 20 26  1  0  0  0  0
 21 25  1  0  0  0  0
 21 20  2  0  0  0  0
 22 19  1  0  0  0  0
 23 24  1  0  0  0  0
 24 22  1  0  0  0  0
 25 23  2  0  0  0  0
 26 24  2  0  0  0  0
 26 27  1  0  0  0  0
 27 19  1  0  0  0  0
 28  1  1  0  0  0  0
 29 30  2  0  0  0  0
 29 28  1  0  0  0  0
 31 29  1  0  0  0  0
 32 31  1  0  0  0  0
 33 32  2  0  0  0  0
 34 32  1  0  0  0  0
 35 36  1  6  0  0  0
 35 34  1  0  0  0  0
 38 41  1  0  0  0  0
 39 35  1  1  0  0  0
 39 38  1  0  0  0  0
 40 39  1  0  0  0  0
 40 44  1  0  0  0  0
 41 37  1  1  0  0  0
 43 38  1  0  0  0  0
 44 42  1  6  0  0  0
 44 41  1  0  0  0  0
M  END
>  <MODEL>
6

>  <REMARK>
 VINA RESULT:      -8.1      4.348      8.471
  Name = 
  10 active torsions:
  status: ('A' for Active; 'I' for Inactive)
    1  A    between atoms: C_2  and  C_13
    2  A    between atoms: C_2  and  N_26
    3  A    between atoms: C_3  and  N_32
    4  A    between atoms: C_4  and  C_36
    5  A    between atoms: C_11  and  C_12
    6  A    between atoms: C_11  and  C_41
    7  A    between atoms: C_17  and  C_36
    8  A    between atoms: C_18  and  N_29
    9  A    between atoms: N_20  and  C_23
   10  A    between atoms: C_37  and  O_40
                            x       y       z     vdW  Elec       q    Type
                         _______ _______ _______ _____ _____    ______ ____

>  <TORSDO>
F 10

$$$$
=
 OpenBabel10222416123D

 44 48  0  0  1  0  0  0  0  0999 V2000
  187.6660  178.3440  139.3900 C   0  0  0  0  0  0  0  0  0  0  0  0
  185.5090  178.3550  138.2720 C   0  0  0  0  0  3  0  0  0  0  0  0
  184.8610  178.5480  139.4990 C   0  0  0  0  0  0  0  0  0  0  0  0
  186.9010  178.2510  138.2170 C   0  0  0  0  0  3  0  0  0  0  0  0
  185.6260  178.6450  140.6670 C   0  0  0  0  0  3  0  0  0  0  0  0
  187.0200  178.5390  140.6150 C   0  0  0  0  0  3  0  0  0  0  0  0
  182.4220  177.7160  139.2970 C   0  0  0  0  0  0  0  0  0  0  0  0
  181.1610  178.0370  139.2900 N   0  0  0  0  0  0  0  0  0  0  0  0
  183.4370  178.6900  139.5950 N   0  0  0  0  0  2  0  0  0  0  0  0
  180.0800  179.6390  140.7790 C   0  0  0  0  0  3  0  0  0  0  0  0
  179.4870  180.8790  141.0340 C   0  0  0  0  0  3  0  0  0  0  0  0
  180.5680  179.3320  139.5040 C   0  0  0  0  0  0  0  0  0  0  0  0
  179.3770  181.8240  140.0110 C   0  0  0  0  0  3  0  0  0  0  0  0
  179.8530  181.5350  138.7280 C   0  0  0  0  0  0  0  0  0  0  0  0
  180.4450  180.2870  138.4820 C   0  0  0  0  0  3  0  0  0  0  0  0
  179.7320  182.4970  137.7240 O   0  0  0  0  0  0  0  0  0  0  0  0
  180.7920  183.3760  137.3750 C   0  0  0  0  0  1  0  0  0  0  0  0
  182.7770  176.2870  139.0430 C   0  0  0  0  0  2  0  0  0  0  0  0
  182.1870  175.8070  137.7250 C   0  0  1  0  0  3  0  0  0  0  0  0
  183.5350  172.3510  137.1270 C   0  0  0  0  0  3  0  0  0  0  0  0
  184.6770  171.9180  136.4420 C   0  0  0  0  0  3  0  0  0  0  0  0
  183.3280  176.2670  136.3610 S   0  0  0  0  0  0  0  0  0  0  0  0
  185.0700  174.1840  135.6460 C   0  0  0  0  0  3  0  0  0  0  0  0
  183.9220  174.5970  136.3270 C   0  0  0  0  0  0  0  0  0  0  0  0
  185.4450  172.8350  135.7040 C   0  0  0  0  0  3  0  0  0  0  0  0
  183.1750  173.7000  137.0630 C   0  0  0  0  0  0  0  0  0  0  0  0
  182.0030  174.2840  137.7520 C   0  0  0  0  0  2  0  0  0  0  0  0
  189.0960  178.2460  139.3690 N   0  0  0  0  0  2  0  0  0  0  0  0
  189.8670  177.0700  139.0700 C   0  0  0  0  0  0  0  0  0  0  0  0
  189.3100  175.9880  138.7280 O   0  0  0  0  0  0  0  0  0  0  0  0
  191.3550  177.1290  139.1370 C   0  0  0  0  0  2  0  0  0  0  0  0
  191.8400  177.3290  140.5370 C   0  0  0  0  0  0  0  0  0  0  0  0
  193.0790  177.4220  140.7500 O   0  0  0  0  0  0  0  0  0  0  0  0
  190.9100  177.4640  141.6170 N   0  0  0  0  0  2  0  0  0  0  0  0
  191.3350  177.6920  142.9890 C   0  0  1  0  0  3  0  0  0  0  0  0
  191.1180  179.0280  143.3360 O   0  0  0  0  0  1  0  0  0  0  0  0
  187.4270  177.8890  145.4740 C   0  0  0  0  0  1  0  0  0  0  0  0
  189.1500  177.0700  143.9500 N   0  0  0  0  0  0  0  0  0  0  0  0
  190.5840  176.7600  143.9380 C   0  0  2  0  0  3  0  0  0  0  0  0
  191.3060  176.8690  145.6090 S   0  0  0  0  0  0  0  0  0  0  0  0
  188.6650  177.0170  145.3260 C   0  0  1  0  0  3  0  0  0  0  0  0
  189.5260  176.9770  147.6580 C   0  0  0  0  0  1  0  0  0  0  0  0
  188.4830  176.0040  143.2190 C   0  0  0  0  0  1  0  0  0  0  0  0
  189.7500  177.5050  146.2540 C   0  0  1  0  0  3  0  0  0  0  0  0
  1  6  1  0  0  0  0
  2  3  2  0  0  0  0
  3  9  1  0  0  0  0
  3  5  1  0  0  0  0
  4  2  1  0  0  0  0
  4  1  2  0  0  0  0
  6  5  2  0  0  0  0
  7  9  1  0  0  0  0
  8  7  2  0  0  0  0
  8 12  1  0  0  0  0
 10 11  1  0  0  0  0
 12 10  2  0  0  0  0
 13 11  2  0  0  0  0
 14 13  1  0  0  0  0
 15 14  2  0  0  0  0
 15 12  1  0  0  0  0
 16 14  1  0  0  0  0
 17 16  1  0  0  0  0
 18  7  1  0  0  0  0
 19 27  1  0  0  0  0
 19 18  1  1  0  0  0
 21 20  2  0  0  0  0
 22 19  1  0  0  0  0
 23 25  2  0  0  0  0
 23 24  1  0  0  0  0
 24 22  1  0  0  0  0
 24 26  2  0  0  0  0
 25 21  1  0  0  0  0
 26 20  1  0  0  0  0
 26 27  1  0  0  0  0
 28  1  1  0  0  0  0
 29 31  1  0  0  0  0
 29 28  1  0  0  0  0
 30 29  2  0  0  0  0
 31 32  1  0  0  0  0
 32 33  2  0  0  0  0
 32 34  1  0  0  0  0
 34 35  1  0  0  0  0
 35 36  1  1  0  0  0
 38 41  1  0  0  0  0
 39 35  1  6  0  0  0
 39 38  1  0  0  0  0
 39 40  1  0  0  0  0
 40 44  1  0  0  0  0
 41 37  1  6  0  0  0
 41 44  1  0  0  0  0
 43 38  1  0  0  0  0
 44 42  1  1  0  0  0
M  END
>  <MODEL>
7

>  <REMARK>
 VINA RESULT:      -8.1      4.466      9.120
  Name = 
  10 active torsions:
  status: ('A' for Active; 'I' for Inactive)
    1  A    between atoms: C_2  and  C_13
    2  A    between atoms: C_2  and  N_26
    3  A    between atoms: C_3  and  N_32
    4  A    between atoms: C_4  and  C_36
    5  A    between atoms: C_11  and  C_12
    6  A    between atoms: C_11  and  C_41
    7  A    between atoms: C_17  and  C_36
    8  A    between atoms: C_18  and  N_29
    9  A    between atoms: N_20  and  C_23
   10  A    between atoms: C_37  and  O_40
                            x       y       z     vdW  Elec       q    Type
                         _______ _______ _______ _____ _____    ______ ____

>  <TORSDO>
F 10

$$$$
=
 OpenBabel10222416123D

 44 48  0  0  1  0  0  0  0  0999 V2000
  186.9880  176.0900  137.0860 C   0  0  0  0  0  0  0  0  0  0  0  0
  186.2070  178.2660  137.8330 C   0  0  0  0  0  3  0  0  0  0  0  0
  184.8940  177.7840  137.9030 C   0  0  0  0  0  0  0  0  0  0  0  0
  187.2470  177.4260  137.4260 C   0  0  0  0  0  3  0  0  0  0  0  0
  184.6370  176.4490  137.5680 C   0  0  0  0  0  3  0  0  0  0  0  0
  185.6760  175.6080  137.1570 C   0  0  0  0  0  3  0  0  0  0  0  0
  183.2260  178.6830  139.6610 C   0  0  0  0  0  0  0  0  0  0  0  0
  182.1400  179.3660  139.8800 N   0  0  0  0  0  0  0  0  0  0  0  0
  183.8040  178.6040  138.3460 N   0  0  0  0  0  2  0  0  0  0  0  0
  180.2580  179.4060  138.3300 C   0  0  0  0  0  3  0  0  0  0  0  0
  179.4450  180.0530  137.3940 C   0  0  0  0  0  3  0  0  0  0  0  0
  181.3270  180.0800  138.9290 C   0  0  0  0  0  0  0  0  0  0  0  0
  179.6980  181.3830  137.0500 C   0  0  0  0  0  3  0  0  0  0  0  0
  180.7650  182.0730  137.6330 C   0  0  0  0  0  0  0  0  0  0  0  0
  181.5770  181.4150  138.5700 C   0  0  0  0  0  3  0  0  0  0  0  0
  180.9970  183.4010  137.2720 O   0  0  0  0  0  0  0  0  0  0  0  0
  180.8050  183.8780  135.9480 C   0  0  0  0  0  1  0  0  0  0  0  0
  183.8840  178.0300  140.8330 C   0  0  0  0  0  2  0  0  0  0  0  0
  184.6460  179.0520  141.6660 C   0  0  1  0  0  3  0  0  0  0  0  0
  188.1850  177.8160  141.9280 C   0  0  0  0  0  3  0  0  0  0  0  0
  188.8030  177.0030  142.8850 C   0  0  0  0  0  3  0  0  0  0  0  0
  184.5590  178.5600  143.4330 S   0  0  0  0  0  0  0  0  0  0  0  0
  186.8050  177.0970  144.2710 C   0  0  0  0  0  3  0  0  0  0  0  0
  186.2070  177.9170  143.3100 C   0  0  0  0  0  0  0  0  0  0  0  0
  188.1130  176.6420  144.0550 C   0  0  0  0  0  3  0  0  0  0  0  0
  186.8790  178.2610  142.1550 C   0  0  0  0  0  0  0  0  0  0  0  0
  186.1120  179.1100  141.2180 C   0  0  0  0  0  2  0  0  0  0  0  0
  188.0310  175.2010  136.6680 N   0  0  0  0  0  2  0  0  0  0  0  0
  189.3500  175.1070  137.2330 C   0  0  0  0  0  0  0  0  0  0  0  0
  189.6870  175.8010  138.2340 O   0  0  0  0  0  0  0  0  0  0  0  0
  190.3360  174.1530  136.6470 C   0  0  0  0  0  2  0  0  0  0  0  0
  191.5820  174.8490  136.2000 C   0  0  0  0  0  0  0  0  0  0  0  0
  191.4890  175.8310  135.4160 O   0  0  0  0  0  0  0  0  0  0  0  0
  192.8610  174.4390  136.6950 N   0  0  0  0  0  2  0  0  0  0  0  0
  194.0960  175.1060  136.3140 C   0  0  1  0  0  3  0  0  0  0  0  0
  194.3050  176.2180  137.1330 O   0  0  0  0  0  1  0  0  0  0  0  0
  198.0550  174.8790  138.7130 C   0  0  0  0  0  1  0  0  0  0  0  0
  195.9210  174.2280  137.7230 N   0  0  0  0  0  0  0  0  0  0  0  0
  195.2730  174.1370  136.4100 C   0  0  2  0  0  3  0  0  0  0  0  0
  196.4520  174.4640  135.0580 S   0  0  0  0  0  0  0  0  0  0  0  0
  197.3690  174.1950  137.5400 C   0  0  1  0  0  3  0  0  0  0  0  0
  199.0780  174.4400  135.7510 C   0  0  0  0  0  1  0  0  0  0  0  0
  195.5540  173.0280  138.4580 C   0  0  0  0  0  1  0  0  0  0  0  0
  197.7240  174.9000  136.2550 C   0  0  1  0  0  3  0  0  0  0  0  0
  1  6  2  0  0  0  0
  1  4  1  0  0  0  0
  2  3  1  0  0  0  0
  3  9  1  0  0  0  0
  4  2  2  0  0  0  0
  5  3  2  0  0  0  0
  6  5  1  0  0  0  0
  7  8  2  0  0  0  0
  7 18  1  0  0  0  0
  9  7  1  0  0  0  0
 10 12  1  0  0  0  0
 11 10  2  0  0  0  0
 12  8  1  0  0  0  0
 13 11  1  0  0  0  0
 13 14  2  0  0  0  0
 14 15  1  0  0  0  0
 15 12  2  0  0  0  0
 16 14  1  0  0  0  0
 17 16  1  0  0  0  0
 19 18  1  6  0  0  0
 19 22  1  0  0  0  0
 20 26  2  0  0  0  0
 20 21  1  0  0  0  0
 21 25  2  0  0  0  0
 24 22  1  0  0  0  0
 24 23  2  0  0  0  0
 25 23  1  0  0  0  0
 26 24  1  0  0  0  0
 27 19  1  0  0  0  0
 27 26  1  0  0  0  0
 28  1  1  0  0  0  0
 28 29  1  0  0  0  0
 29 30  2  0  0  0  0
 31 29  1  0  0  0  0
 32 31  1  0  0  0  0
 32 34  1  0  0  0  0
 33 32  2  0  0  0  0
 35 34  1  0  0  0  0
 35 36  1  1  0  0  0
 38 43  1  0  0  0  0
 39 35  1  1  0  0  0
 39 38  1  0  0  0  0
 40 44  1  0  0  0  0
 40 39  1  0  0  0  0
 41 38  1  0  0  0  0
 41 37  1  1  0  0  0
 44 42  1  6  0  0  0
 44 41  1  0  0  0  0
M  END
>  <MODEL>
8

>  <REMARK>
 VINA RESULT:      -8.1      3.647      7.278
  Name = 
  10 active torsions:
  status: ('A' for Active; 'I' for Inactive)
    1  A    between atoms: C_2  and  C_13
    2  A    between atoms: C_2  and  N_26
    3  A    between atoms: C_3  and  N_32
    4  A    between atoms: C_4  and  C_36
    5  A    between atoms: C_11  and  C_12
    6  A    between atoms: C_11  and  C_41
    7  A    between atoms: C_17  and  C_36
    8  A    between atoms: C_18  and  N_29
    9  A    between atoms: N_20  and  C_23
   10  A    between atoms: C_37  and  O_40
                            x       y       z     vdW  Elec       q    Type
                         _______ _______ _______ _____ _____    ______ ____

>  <TORSDO>
F 10

$$$$
=
 OpenBabel10222416123D

 44 48  0  0  1  0  0  0  0  0999 V2000
  184.4230  179.1970  143.1480 C   0  0  0  0  0  0  0  0  0  0  0  0
  182.5980  178.5930  141.6610 C   0  0  0  0  0  3  0  0  0  0  0  0
  183.5010  178.4230  140.6030 C   0  0  0  0  0  0  0  0  0  0  0  0
  183.0550  178.9790  142.9230 C   0  0  0  0  0  3  0  0  0  0  0  0
  184.8660  178.6350  140.8290 C   0  0  0  0  0  3  0  0  0  0  0  0
  185.3240  179.0250  142.0920 C   0  0  0  0  0  3  0  0  0  0  0  0
  182.2910  178.7200  138.3390 C   0  0  0  0  0  0  0  0  0  0  0  0
  181.8580  178.1460  137.2540 N   0  0  0  0  0  0  0  0  0  0  0  0
  183.0780  177.9960  139.3010 N   0  0  0  0  0  2  0  0  0  0  0  0
  183.0820  176.4450  136.0060 C   0  0  0  0  0  3  0  0  0  0  0  0
  183.2700  175.1280  135.5760 C   0  0  0  0  0  3  0  0  0  0  0  0
  182.0140  176.7730  136.8460 C   0  0  0  0  0  0  0  0  0  0  0  0
  182.3850  174.1280  135.9840 C   0  0  0  0  0  3  0  0  0  0  0  0
  181.3070  174.4350  136.8190 C   0  0  0  0  0  0  0  0  0  0  0  0
  181.1260  175.7600  137.2450 C   0  0  0  0  0  3  0  0  0  0  0  0
  180.4370  173.4170  137.2130 O   0  0  0  0  0  0  0  0  0  0  0  0
  179.7990  173.4060  138.4820 C   0  0  0  0  0  1  0  0  0  0  0  0
  181.9910  180.1720  138.5240 C   0  0  0  0  0  2  0  0  0  0  0  0
  180.5650  180.4910  138.0950 C   0  0  1  0  0  3  0  0  0  0  0  0
  180.8080  183.0010  135.3090 C   0  0  0  0  0  3  0  0  0  0  0  0
  180.8070  184.4010  135.3340 C   0  0  0  0  0  3  0  0  0  0  0  0
  179.9610  181.9290  139.0640 S   0  0  0  0  0  0  0  0  0  0  0  0
  180.2740  184.3680  137.7080 C   0  0  0  0  0  3  0  0  0  0  0  0
  180.2690  182.9720  137.6630 C   0  0  0  0  0  0  0  0  0  0  0  0
  180.5430  185.0840  136.5330 C   0  0  0  0  0  3  0  0  0  0  0  0
  180.5420  182.3000  136.4890 C   0  0  0  0  0  0  0  0  0  0  0  0
  180.5280  180.8250  136.5980 C   0  0  0  0  0  2  0  0  0  0  0  0
  184.9250  179.5900  144.4310 N   0  0  0  0  0  2  0  0  0  0  0  0
  184.9170  178.7960  145.6300 C   0  0  0  0  0  0  0  0  0  0  0  0
  184.4960  177.6050  145.6270 O   0  0  0  0  0  0  0  0  0  0  0  0
  185.4420  179.3760  146.9000 C   0  0  0  0  0  2  0  0  0  0  0  0
  186.7710  178.7970  147.2670 C   0  0  0  0  0  0  0  0  0  0  0  0
  187.2000  178.9420  148.4430 O   0  0  0  0  0  0  0  0  0  0  0  0
  187.5240  178.0430  146.3120 N   0  0  0  0  0  2  0  0  0  0  0  0
  188.8060  177.4340  146.6330 C   0  0  1  0  0  3  0  0  0  0  0  0
  188.6460  176.5190  147.6770 O   0  0  0  0  0  1  0  0  0  0  0  0
  191.7110  178.6080  143.2180 C   0  0  0  0  0  1  0  0  0  0  0  0
  190.6830  177.3420  145.0350 N   0  0  0  0  0  0  0  0  0  0  0  0
  189.3920  176.7490  145.4000 C   0  0  2  0  0  3  0  0  0  0  0  0
  188.2010  176.8370  144.0220 S   0  0  0  0  0  0  0  0  0  0  0  0
  190.7410  177.4940  143.5840 C   0  0  1  0  0  3  0  0  0  0  0  0
  189.2500  177.4590  141.5950 C   0  0  0  0  0  1  0  0  0  0  0  0
  191.7090  176.3810  145.4070 C   0  0  0  0  0  1  0  0  0  0  0  0
  189.3640  177.8220  143.0640 C   0  0  1  0  0  3  0  0  0  0  0  0
  1 28  1  0  0  0  0
  2  4  2  0  0  0  0
  3  5  2  0  0  0  0
  3  2  1  0  0  0  0
  4  1  1  0  0  0  0
  5  6  1  0  0  0  0
  6  1  2  0  0  0  0
  7 18  1  0  0  0  0
  7  9  1  0  0  0  0
  8  7  2  0  0  0  0
  9  3  1  0  0  0  0
 10 12  1  0  0  0  0
 11 13  1  0  0  0  0
 11 10  2  0  0  0  0
 12 15  2  0  0  0  0
 12  8  1  0  0  0  0
 13 14  2  0  0  0  0
 14 16  1  0  0  0  0
 14 15  1  0  0  0  0
 16 17  1  0  0  0  0
 19 18  1  1  0  0  0
 19 22  1  0  0  0  0
 20 21  2  0  0  0  0
 20 26  1  0  0  0  0
 21 25  1  0  0  0  0
 24 23  1  0  0  0  0
 24 22  1  0  0  0  0
 25 23  2  0  0  0  0
 26 27  1  0  0  0  0
 26 24  2  0  0  0  0
 27 19  1  0  0  0  0
 28 29  1  0  0  0  0
 29 31  1  0  0  0  0
 30 29  2  0  0  0  0
 31 32  1  0  0  0  0
 32 33  2  0  0  0  0
 34 35  1  0  0  0  0
 34 32  1  0  0  0  0
 35 36  1  1  0  0  0
 38 39  1  0  0  0  0
 38 43  1  0  0  0  0
 39 35  1  1  0  0  0
 40 39  1  0  0  0  0
 41 37  1  1  0  0  0
 41 38  1  0  0  0  0
 44 42  1  6  0  0  0
 44 41  1  0  0  0  0
 44 40  1  0  0  0  0
M  END
>  <MODEL>
9

>  <REMARK>
 VINA RESULT:      -8.1      5.806     10.271
  Name = 
  10 active torsions:
  status: ('A' for Active; 'I' for Inactive)
    1  A    between atoms: C_2  and  C_13
    2  A    between atoms: C_2  and  N_26
    3  A    between atoms: C_3  and  N_32
    4  A    between atoms: C_4  and  C_36
    5  A    between atoms: C_11  and  C_12
    6  A    between atoms: C_11  and  C_41
    7  A    between atoms: C_17  and  C_36
    8  A    between atoms: C_18  and  N_29
    9  A    between atoms: N_20  and  C_23
   10  A    between atoms: C_37  and  O_40
                            x       y       z     vdW  Elec       q    Type
                         _______ _______ _______ _____ _____    ______ ____

>  <TORSDO>
F 10

$$$$
