=
 OpenBabel10222417133D

 51 58  0  0  1  0  0  0  0  0999 V2000
  187.9780  177.9750  138.0570 C   0  0  0  0  0  3  0  0  0  0  0  0
  188.1600  176.7580  137.3820 C   0  0  0  0  0  0  0  0  0  0  0  0
  189.5410  176.1820  137.3040 C   0  0  0  0  0  0  0  0  0  0  0  0
  185.5820  177.8160  137.8370 C   0  0  0  0  0  0  0  0  0  0  0  0
  187.0110  176.0950  136.8810 C   0  0  0  0  0  0  0  0  0  0  0  0
  190.3860  176.0090  138.5830 C   0  0  1  0  0  3  0  0  0  0  0  0
  186.2200  174.0120  136.0940 O   0  0  0  0  0  0  0  0  0  0  0  0
  185.7370  176.6230  137.1340 C   0  0  0  0  0  3  0  0  0  0  0  0
  189.2640  175.5120  134.9660 N   0  0  0  0  0  2  0  0  0  0  0  0
  191.7640  175.8700  138.3200 O   0  0  0  0  0  0  0  0  0  0  0  0
  190.0240  175.6150  136.1700 C   0  0  0  0  0  0  0  0  0  0  0  0
  191.9160  174.7410  137.5100 C   0  0  0  0  0  2  0  0  0  0  0  0
  191.4280  175.0850  136.1130 C   0  0  0  0  0  2  0  0  0  0  0  0
  187.0860  174.9220  136.0030 C   0  0  0  0  0  0  0  0  0  0  0  0
  186.7070  178.5030  138.2830 C   0  0  0  0  0  3  0  0  0  0  0  0
  188.0060  174.8970  134.9170 N   0  0  0  0  0  2  0  0  0  0  0  0
  190.1770  177.0500  139.6860 C   0  0  0  0  0  2  0  0  0  0  0  0
  190.5730  176.5350  141.0690 C   0  0  0  0  0  2  0  0  0  0  0  0
  189.3640  177.8470  142.8710 C   0  0  0  0  0  0  0  0  0  0  0  0
  189.4840  176.7790  142.0640 C   0  0  0  0  0  3  0  0  0  0  0  0
  184.4130  178.3850  143.4640 C   0  0  0  0  0  2  0  0  0  0  0  0
  184.5250  178.5850  142.0090 N   0  0  0  0  0  2  0  0  0  0  0  0
  185.8570  177.6990  145.3730 N   0  0  0  0  0  2  0  0  0  0  0  0
  187.5060  177.3540  147.2070 C   0  0  2  0  0  3  0  0  0  0  0  0
  185.4990  179.5110  141.7570 O   0  0  0  0  0  0  0  0  0  0  0  0
  185.7940  178.4460  144.1140 C   0  0  1  0  0  3  0  0  0  0  0  0
  187.2210  178.2450  148.2410 O   0  0  0  0  0  1  0  0  0  0  0  0
  186.8530  177.9640  143.1020 C   0  0  1  0  0  3  0  0  0  0  0  0
  189.4070  177.3940  145.7370 O   0  0  0  0  0  0  0  0  0  0  0  0
  186.7490  178.8440  141.8400 C   0  0  0  0  0  2  0  0  0  0  0  0
  189.0200  177.1720  147.0810 C   0  0  0  0  0  2  0  0  0  0  0  0
  188.1980  177.9380  143.7090 N   0  0  0  0  0  0  0  0  0  0  0  0
  188.2020  177.3120  145.0360 C   0  0  2  0  0  3  0  0  0  0  0  0
  187.1860  177.9830  145.8980 C   0  0  1  0  0  3  0  0  0  0  0  0
  190.3140  178.8820  142.9430 O   0  0  0  0  0  0  0  0  0  0  0  0
  191.4590  178.8900  143.7850 C   0  0  0  0  0  1  0  0  0  0  0  0
  184.2170  178.3470  138.1160 C   0  0  0  0  0  2  0  0  0  0  0  0
  181.8490  177.5990  138.4440 C   0  0  1  0  0  3  0  0  0  0  0  0
  182.9700  176.2330  140.1730 F   0  0  0  0  0  0  0  0  0  0  0  0
  181.8010  176.8760  139.7820 C   0  0  2  0  0  0  0  0  0  0  0  0
  182.7440  174.1940  135.8000 O   0  0  0  0  0  0  0  0  0  0  0  0
  181.7170  176.6770  135.6470 C   0  0  0  0  0  2  0  0  0  0  0  0
  183.1540  177.3500  137.6770 C   0  0  1  0  0  3  0  0  0  0  0  0
  181.6010  175.0350  138.0800 C   0  0  0  0  0  2  0  0  0  0  0  0
  182.9600  177.4130  136.1570 C   0  0  0  0  0  2  0  0  0  0  0  0
  181.5880  175.0160  136.2940 S   0  0  0  0  0  0  0  0  0  0  0  0
  180.9810  176.3280  138.6230 C   0  0  2  0  0  3  0  0  0  0  0  0
  180.3030  174.4010  135.8170 O   0  0  0  0  0  0  0  0  0  0  0  0
  181.0880  177.5920  140.7530 O   0  0  0  0  0  0  0  0  0  0  0  0
  180.2690  179.7120  140.9540 O   0  0  0  0  0  1  0  0  0  0  0  0
  181.3430  178.9450  140.5050 C   0  0  0  0  0  2  0  0  0  0  0  0
  1 15  1  0  0  0  0
  2  1  2  0  0  0  0
  3  2  1  0  0  0  0
  3  6  1  0  0  0  0
  4 37  1  0  0  0  0
  4 15  2  0  0  0  0
  5  8  2  0  0  0  0
  5  2  1  0  0  0  0
  6 17  1  1  0  0  0
  8  4  1  0  0  0  0
  9 11  1  0  0  0  0
 10  6  1  0  0  0  0
 11  3  2  0  0  0  0
 12 10  1  0  0  0  0
 13 11  1  0  0  0  0
 13 12  1  0  0  0  0
 14  7  2  0  0  0  0
 14  5  1  0  0  0  0
 16  9  1  0  0  0  0
 16 14  1  0  0  0  0
 17 18  1  0  0  0  0
 18 20  1  0  0  0  0
 19 35  1  0  0  0  0
 19 32  1  0  0  0  0
 20 19  2  0  0  0  0
 22 21  1  0  0  0  0
 24 27  1  1  0  0  0
 25 30  1  0  0  0  0
 25 22  1  0  0  0  0
 26 21  1  6  0  0  0
 26 23  1  0  0  0  0
 28 30  1  6  0  0  0
 28 32  1  0  0  0  0
 28 26  1  0  0  0  0
 29 31  1  0  0  0  0
 31 24  1  0  0  0  0
 32 33  1  0  0  0  0
 33 29  1  1  0  0  0
 33 34  1  0  0  0  0
 34 23  1  6  0  0  0
 34 24  1  0  0  0  0
 35 36  1  0  0  0  0
 38 47  1  0  0  0  0
 38 40  1  0  0  0  0
 40 39  1  0  0  0  0
 40 49  1  0  0  0  0
 41 46  2  0  0  0  0
 42 45  1  0  0  0  0
 42 46  1  0  0  0  0
 43 37  1  0  0  0  0
 43 38  1  0  0  0  0
 44 47  1  0  0  0  0
 45 43  1  0  0  0  0
 46 44  1  0  0  0  0
 47 40  1  0  0  0  0
 48 46  2  0  0  0  0
 51 49  1  0  0  0  0
 51 50  1  0  0  0  0
M  END
>  <MODEL>
1

>  <REMARK>
 VINA RESULT:      -8.8      0.000      0.000
  Name = 
  9 active torsions:
  status: ('A' for Active; 'I' for Inactive)
    1  A    between atoms: O_1  and  C_18
    2  A    between atoms: C_2  and  C_15
    3  A    between atoms: C_2  and  C_35
    4  A    between atoms: O_8  and  C_12
    5  A    between atoms: O_8  and  C_41
    6  A    between atoms: C_14  and  C_25
    7  A    between atoms: C_15  and  C_17
    8  A    between atoms: C_18  and  N_44
    9  A    between atoms: C_25  and  C_34
                            x       y       z     vdW  Elec       q    Type
                         _______ _______ _______ _____ _____    ______ ____

>  <TORSDO>
F 9

$$$$
=
 OpenBabel10222417133D

 51 58  0  0  1  0  0  0  0  0999 V2000
  186.5090  177.3770  143.6510 C   0  0  0  0  0  3  0  0  0  0  0  0
  186.9820  177.8230  144.8960 C   0  0  0  0  0  0  0  0  0  0  0  0
  188.4010  177.5220  145.2720 C   0  0  0  0  0  0  0  0  0  0  0  0
  184.4240  178.5490  143.9480 C   0  0  0  0  0  0  0  0  0  0  0  0
  186.1140  178.6070  145.6960 C   0  0  0  0  0  0  0  0  0  0  0  0
  189.5530  177.8730  144.3080 C   0  0  1  0  0  3  0  0  0  0  0  0
  186.0590  180.0930  147.5340 O   0  0  0  0  0  0  0  0  0  0  0  0
  184.8550  178.9770  145.2020 C   0  0  0  0  0  3  0  0  0  0  0  0
  187.8030  176.9700  147.5810 N   0  0  0  0  0  2  0  0  0  0  0  0
  190.7420  177.1690  144.5890 O   0  0  0  0  0  0  0  0  0  0  0  0
  188.7480  177.1270  146.5220 C   0  0  0  0  0  0  0  0  0  0  0  0
  191.1150  177.5000  145.8950 C   0  0  0  0  0  2  0  0  0  0  0  0
  190.1740  176.7930  146.8550 C   0  0  0  0  0  2  0  0  0  0  0  0
  186.4210  178.9730  147.0840 C   0  0  0  0  0  0  0  0  0  0  0  0
  185.2460  177.7310  143.1790 C   0  0  0  0  0  3  0  0  0  0  0  0
  186.9410  178.0000  147.9820 N   0  0  0  0  0  2  0  0  0  0  0  0
  189.2440  177.7800  142.8110 C   0  0  0  0  0  2  0  0  0  0  0  0
  190.2530  176.9210  142.0510 C   0  0  0  0  0  2  0  0  0  0  0  0
  190.4990  177.0280  139.5290 C   0  0  0  0  0  0  0  0  0  0  0  0
  189.8140  176.7020  140.6380 C   0  0  0  0  0  3  0  0  0  0  0  0
  187.5270  177.9810  135.6030 C   0  0  0  0  0  2  0  0  0  0  0  0
  187.1870  179.1210  136.4710 N   0  0  0  0  0  2  0  0  0  0  0  0
  189.1690  176.1090  135.5330 N   0  0  0  0  0  2  0  0  0  0  0  0
  190.6220  174.1050  135.7960 C   0  0  2  0  0  3  0  0  0  0  0  0
  186.8900  178.6580  137.7230 O   0  0  0  0  0  0  0  0  0  0  0  0
  188.3110  176.9320  136.3900 C   0  0  1  0  0  3  0  0  0  0  0  0
  189.8950  172.9720  135.4340 O   0  0  0  0  0  1  0  0  0  0  0  0
  189.1110  177.6300  137.5090 C   0  0  1  0  0  3  0  0  0  0  0  0
  191.3580  174.7160  138.0010 O   0  0  0  0  0  0  0  0  0  0  0  0
  188.1200  178.4180  138.3890 C   0  0  0  0  0  2  0  0  0  0  0  0
  191.5550  173.7730  136.9630 C   0  0  0  0  0  2  0  0  0  0  0  0
  189.9410  176.6640  138.2540 N   0  0  0  0  0  0  0  0  0  0  0  0
  190.6770  175.7570  137.3660 C   0  0  2  0  0  3  0  0  0  0  0  0
  189.7190  175.1020  136.4290 C   0  0  1  0  0  3  0  0  0  0  0  0
  191.7310  177.7060  139.5440 O   0  0  0  0  0  0  0  0  0  0  0  0
  192.9820  177.1300  139.8970 C   0  0  0  0  0  1  0  0  0  0  0  0
  183.0910  178.9740  143.4310 C   0  0  0  0  0  2  0  0  0  0  0  0
  181.7130  179.3710  141.3770 C   0  0  1  0  0  3  0  0  0  0  0  0
  180.7220  177.2410  142.1500 F   0  0  0  0  0  0  0  0  0  0  0  0
  180.5160  178.4350  141.4670 C   0  0  2  0  0  0  0  0  0  0  0  0
  184.5200  176.7650  139.2050 O   0  0  0  0  0  0  0  0  0  0  0  0
  184.1430  179.3820  139.7090 C   0  0  0  0  0  2  0  0  0  0  0  0
  183.0010  178.7460  141.9290 C   0  0  1  0  0  3  0  0  0  0  0  0
  181.9580  177.4190  139.6750 C   0  0  0  0  0  2  0  0  0  0  0  0
  184.2570  179.2860  141.2320 C   0  0  0  0  0  2  0  0  0  0  0  0
  183.5340  177.8730  138.9680 S   0  0  0  0  0  0  0  0  0  0  0  0
  181.1710  178.6600  140.1120 C   0  0  2  0  0  3  0  0  0  0  0  0
  183.3700  178.0820  137.4900 O   0  0  0  0  0  0  0  0  0  0  0  0
  179.3150  179.1220  141.6890 O   0  0  0  0  0  0  0  0  0  0  0  0
  179.0920  178.6690  143.9150 O   0  0  0  0  0  1  0  0  0  0  0  0
  179.4040  179.6550  142.9800 C   0  0  0  0  0  2  0  0  0  0  0  0
  1  2  1  0  0  0  0
  2  3  1  0  0  0  0
  2  5  2  0  0  0  0
  3 11  2  0  0  0  0
  4  8  2  0  0  0  0
  5 14  1  0  0  0  0
  6 17  1  6  0  0  0
  6 10  1  0  0  0  0
  6  3  1  0  0  0  0
  8  5  1  0  0  0  0
  9 16  1  0  0  0  0
 10 12  1  0  0  0  0
 11 13  1  0  0  0  0
 11  9  1  0  0  0  0
 12 13  1  0  0  0  0
 14  7  2  0  0  0  0
 14 16  1  0  0  0  0
 15  1  2  0  0  0  0
 15  4  1  0  0  0  0
 18 17  1  0  0  0  0
 19 35  1  0  0  0  0
 19 20  2  0  0  0  0
 20 18  1  0  0  0  0
 21 22  1  0  0  0  0
 22 25  1  0  0  0  0
 23 26  1  0  0  0  0
 24 27  1  1  0  0  0
 24 34  1  0  0  0  0
 24 31  1  0  0  0  0
 25 30  1  0  0  0  0
 26 21  1  6  0  0  0
 26 28  1  0  0  0  0
 28 32  1  0  0  0  0
 28 30  1  1  0  0  0
 31 29  1  0  0  0  0
 32 19  1  0  0  0  0
 33 29  1  1  0  0  0
 33 32  1  0  0  0  0
 34 23  1  6  0  0  0
 34 33  1  0  0  0  0
 35 36  1  0  0  0  0
 37  4  1  0  0  0  0
 38 40  1  0  0  0  0
 38 43  1  0  0  0  0
 40 49  1  0  0  0  0
 40 39  1  0  0  0  0
 42 45  1  0  0  0  0
 43 37  1  0  0  0  0
 44 47  1  0  0  0  0
 45 43  1  0  0  0  0
 46 41  2  0  0  0  0
 46 44  1  0  0  0  0
 46 42  1  0  0  0  0
 47 38  1  0  0  0  0
 47 40  1  0  0  0  0
 48 46  2  0  0  0  0
 49 51  1  0  0  0  0
 51 50  1  0  0  0  0
M  END
>  <MODEL>
2

>  <REMARK>
 VINA RESULT:      -8.8      2.414      7.462
  Name = 
  9 active torsions:
  status: ('A' for Active; 'I' for Inactive)
    1  A    between atoms: O_1  and  C_18
    2  A    between atoms: C_2  and  C_15
    3  A    between atoms: C_2  and  C_35
    4  A    between atoms: O_8  and  C_12
    5  A    between atoms: O_8  and  C_41
    6  A    between atoms: C_14  and  C_25
    7  A    between atoms: C_15  and  C_17
    8  A    between atoms: C_18  and  N_44
    9  A    between atoms: C_25  and  C_34
                            x       y       z     vdW  Elec       q    Type
                         _______ _______ _______ _____ _____    ______ ____

>  <TORSDO>
F 9

$$$$
=
 OpenBabel10222417133D

 51 58  0  0  1  0  0  0  0  0999 V2000
  188.1840  178.6240  141.2430 C   0  0  0  0  0  3  0  0  0  0  0  0
  188.5760  177.7870  142.3000 C   0  0  0  0  0  0  0  0  0  0  0  0
  187.7720  177.8070  143.5650 C   0  0  0  0  0  0  0  0  0  0  0  0
  189.8310  177.6520  139.7750 C   0  0  0  0  0  0  0  0  0  0  0  0
  189.6630  176.9030  142.0830 C   0  0  0  0  0  0  0  0  0  0  0  0
  186.2410  177.6280  143.5180 C   0  0  1  0  0  3  0  0  0  0  0  0
  190.7220  174.9630  142.9190 O   0  0  0  0  0  0  0  0  0  0  0  0
  190.2620  176.8340  140.8170 C   0  0  0  0  0  3  0  0  0  0  0  0
  189.7680  177.7260  144.9810 N   0  0  0  0  0  2  0  0  0  0  0  0
  185.5950  178.0850  144.6840 O   0  0  0  0  0  0  0  0  0  0  0  0
  188.3530  177.7810  144.7900 C   0  0  0  0  0  0  0  0  0  0  0  0
  186.1130  177.3490  145.7550 C   0  0  0  0  0  2  0  0  0  0  0  0
  187.5200  177.8450  146.0380 C   0  0  0  0  0  2  0  0  0  0  0  0
  190.2810  176.1180  143.1580 C   0  0  0  0  0  0  0  0  0  0  0  0
  188.8020  178.5640  139.9950 C   0  0  0  0  0  3  0  0  0  0  0  0
  190.5670  176.7250  144.4130 N   0  0  0  0  0  2  0  0  0  0  0  0
  185.5250  178.1860  142.2840 C   0  0  0  0  0  2  0  0  0  0  0  0
  184.2140  178.8910  142.6280 C   0  0  0  0  0  2  0  0  0  0  0  0
  183.5080  178.9690  140.1940 C   0  0  0  0  0  0  0  0  0  0  0  0
  183.2400  178.7920  141.4990 C   0  0  0  0  0  3  0  0  0  0  0  0
  180.2250  175.9600  137.8850 C   0  0  0  0  0  2  0  0  0  0  0  0
  180.9800  174.9690  138.6720 N   0  0  0  0  0  2  0  0  0  0  0  0
  180.0620  178.4360  137.6600 N   0  0  0  0  0  2  0  0  0  0  0  0
  180.2790  180.8890  137.2990 C   0  0  2  0  0  3  0  0  0  0  0  0
  182.3180  175.1570  138.4630 O   0  0  0  0  0  0  0  0  0  0  0  0
  180.9620  177.2990  137.8750 C   0  0  1  0  0  3  0  0  0  0  0  0
  180.2440  181.1470  135.9290 O   0  0  0  0  0  1  0  0  0  0  0  0
  181.7720  177.4420  139.1790 C   0  0  1  0  0  3  0  0  0  0  0  0
  182.1650  181.1120  138.7720 O   0  0  0  0  0  0  0  0  0  0  0  0
  182.7280  176.2370  139.2860 C   0  0  0  0  0  2  0  0  0  0  0  0
  181.2510  181.8530  137.9840 C   0  0  0  0  0  2  0  0  0  0  0  0
  182.4470  178.7530  139.2470 N   0  0  0  0  0  0  0  0  0  0  0  0
  181.5550  179.8610  138.8840 C   0  0  2  0  0  3  0  0  0  0  0  0
  180.9480  179.5860  137.5500 C   0  0  1  0  0  3  0  0  0  0  0  0
  184.7680  179.3530  139.7010 O   0  0  0  0  0  0  0  0  0  0  0  0
  185.4160  178.7870  138.5700 C   0  0  0  0  0  1  0  0  0  0  0  0
  190.4660  177.5450  138.4290 C   0  0  0  0  0  2  0  0  0  0  0  0
  190.4800  175.1090  137.8470 C   0  0  1  0  0  3  0  0  0  0  0  0
  192.0590  175.9630  136.1470 F   0  0  0  0  0  0  0  0  0  0  0  0
  191.6800  174.8840  136.9390 C   0  0  2  0  0  0  0  0  0  0  0  0
  187.4170  175.9980  134.8110 O   0  0  0  0  0  0  0  0  0  0  0  0
  187.5720  175.1720  137.3680 C   0  0  0  0  0  2  0  0  0  0  0  0
  189.7920  176.4590  137.6040 C   0  0  1  0  0  3  0  0  0  0  0  0
  189.7000  174.7110  135.3970 C   0  0  0  0  0  2  0  0  0  0  0  0
  188.2890  176.4120  137.9100 C   0  0  0  0  0  2  0  0  0  0  0  0
  187.9380  174.8630  135.6460 S   0  0  0  0  0  0  0  0  0  0  0  0
  190.3870  174.1390  136.6430 C   0  0  2  0  0  3  0  0  0  0  0  0
  187.2690  173.5880  135.2220 O   0  0  0  0  0  0  0  0  0  0  0  0
  192.6900  174.1380  137.5610 O   0  0  0  0  0  0  0  0  0  0  0  0
  193.9910  175.8080  138.4120 O   0  0  0  0  0  1  0  0  0  0  0  0
  193.8730  174.8650  137.3910 C   0  0  0  0  0  2  0  0  0  0  0  0
  1  2  1  0  0  0  0
  2  3  1  0  0  0  0
  3 11  2  0  0  0  0
  4 15  1  0  0  0  0
  4  8  2  0  0  0  0
  5  2  2  0  0  0  0
  5 14  1  0  0  0  0
  6 17  1  6  0  0  0
  6  3  1  0  0  0  0
  6 10  1  0  0  0  0
  7 14  2  0  0  0  0
  8  5  1  0  0  0  0
 10 12  1  0  0  0  0
 11  9  1  0  0  0  0
 11 13  1  0  0  0  0
 12 13  1  0  0  0  0
 14 16  1  0  0  0  0
 15  1  2  0  0  0  0
 16  9  1  0  0  0  0
 17 18  1  0  0  0  0
 19 20  2  0  0  0  0
 20 18  1  0  0  0  0
 21 22  1  0  0  0  0
 23 26  1  0  0  0  0
 24 27  1  6  0  0  0
 24 34  1  0  0  0  0
 24 31  1  0  0  0  0
 25 22  1  0  0  0  0
 25 30  1  0  0  0  0
 26 21  1  1  0  0  0
 26 28  1  0  0  0  0
 28 32  1  0  0  0  0
 28 30  1  6  0  0  0
 31 29  1  0  0  0  0
 32 19  1  0  0  0  0
 33 29  1  6  0  0  0
 33 32  1  0  0  0  0
 34 23  1  1  0  0  0
 34 33  1  0  0  0  0
 35 19  1  0  0  0  0
 36 35  1  0  0  0  0
 37  4  1  0  0  0  0
 39 40  1  0  0  0  0
 40 49  1  0  0  0  0
 40 38  1  0  0  0  0
 41 46  2  0  0  0  0
 42 45  1  0  0  0  0
 43 38  1  0  0  0  0
 43 45  1  0  0  0  0
 43 37  1  0  0  0  0
 44 46  1  0  0  0  0
 44 47  1  0  0  0  0
 46 42  1  0  0  0  0
 47 40  1  0  0  0  0
 47 38  1  0  0  0  0
 48 46  2  0  0  0  0
 51 49  1  0  0  0  0
 51 50  1  0  0  0  0
M  END
>  <MODEL>
3

>  <REMARK>
 VINA RESULT:      -8.8      3.067      8.598
  Name = 
  9 active torsions:
  status: ('A' for Active; 'I' for Inactive)
    1  A    between atoms: O_1  and  C_18
    2  A    between atoms: C_2  and  C_15
    3  A    between atoms: C_2  and  C_35
    4  A    between atoms: O_8  and  C_12
    5  A    between atoms: O_8  and  C_41
    6  A    between atoms: C_14  and  C_25
    7  A    between atoms: C_15  and  C_17
    8  A    between atoms: C_18  and  N_44
    9  A    between atoms: C_25  and  C_34
                            x       y       z     vdW  Elec       q    Type
                         _______ _______ _______ _____ _____    ______ ____

>  <TORSDO>
F 9

$$$$
=
 OpenBabel10222417133D

 51 58  0  0  1  0  0  0  0  0999 V2000
  185.6300  178.5140  138.3620 C   0  0  0  0  0  3  0  0  0  0  0  0
  186.0880  177.4800  137.5290 C   0  0  0  0  0  0  0  0  0  0  0  0
  187.5590  177.3780  137.2560 C   0  0  0  0  0  0  0  0  0  0  0  0
  183.3890  177.6260  138.3430 C   0  0  0  0  0  0  0  0  0  0  0  0
  185.1430  176.5350  137.0580 C   0  0  0  0  0  0  0  0  0  0  0  0
  188.5680  177.3690  138.4220 C   0  0  1  0  0  3  0  0  0  0  0  0
  184.9300  174.3850  136.1000 O   0  0  0  0  0  0  0  0  0  0  0  0
  183.8100  176.6090  137.4880 C   0  0  0  0  0  3  0  0  0  0  0  0
  187.2090  176.8610  134.8890 N   0  0  0  0  0  2  0  0  0  0  0  0
  189.8790  177.6960  138.0200 O   0  0  0  0  0  0  0  0  0  0  0  0
  188.0460  177.0940  136.0230 C   0  0  0  0  0  0  0  0  0  0  0  0
  190.2650  176.7470  137.0680 C   0  0  0  0  0  2  0  0  0  0  0  0
  189.5260  177.0410  135.7740 C   0  0  0  0  0  2  0  0  0  0  0  0
  185.4610  175.5260  136.0410 C   0  0  0  0  0  0  0  0  0  0  0  0
  184.2980  178.5920  138.7650 C   0  0  0  0  0  3  0  0  0  0  0  0
  186.2020  175.8880  134.8810 N   0  0  0  0  0  2  0  0  0  0  0  0
  188.1920  178.1920  139.6590 C   0  0  0  0  0  2  0  0  0  0  0  0
  189.1570  177.9830  140.8250 C   0  0  0  0  0  2  0  0  0  0  0  0
  188.3360  177.2250  143.1010 C   0  0  0  0  0  0  0  0  0  0  0  0
  188.4580  178.1520  142.1350 C   0  0  0  0  0  3  0  0  0  0  0  0
  184.2850  178.7090  145.6590 C   0  0  0  0  0  2  0  0  0  0  0  0
  183.7560  178.7490  144.2850 N   0  0  0  0  0  2  0  0  0  0  0  0
  186.3370  177.9510  146.8500 N   0  0  0  0  0  2  0  0  0  0  0  0
  188.5770  177.4830  147.8300 C   0  0  2  0  0  3  0  0  0  0  0  0
  184.6190  179.4550  143.4930 O   0  0  0  0  0  0  0  0  0  0  0  0
  185.8070  178.5770  145.6360 C   0  0  1  0  0  3  0  0  0  0  0  0
  188.8980  178.5030  148.7250 O   0  0  0  0  0  1  0  0  0  0  0  0
  186.2310  177.8180  144.3620 C   0  0  1  0  0  3  0  0  0  0  0  0
  189.6050  177.0390  145.7040 O   0  0  0  0  0  0  0  0  0  0  0  0
  185.6810  178.5820  143.1410 C   0  0  0  0  0  2  0  0  0  0  0  0
  189.8390  177.0170  147.1000 C   0  0  0  0  0  2  0  0  0  0  0  0
  187.6910  177.6040  144.3290 N   0  0  0  0  0  0  0  0  0  0  0  0
  188.2140  177.1140  145.6100 C   0  0  2  0  0  3  0  0  0  0  0  0
  187.7830  178.0350  146.7010 C   0  0  1  0  0  3  0  0  0  0  0  0
  188.8020  175.9030  142.9780 O   0  0  0  0  0  0  0  0  0  0  0  0
  190.1690  175.5130  142.9600 C   0  0  0  0  0  1  0  0  0  0  0  0
  181.9730  177.6730  138.8080 C   0  0  0  0  0  2  0  0  0  0  0  0
  180.0680  178.7400  137.5800 C   0  0  1  0  0  3  0  0  0  0  0  0
  181.7140  178.5650  135.7430 F   0  0  0  0  0  0  0  0  0  0  0  0
  180.3690  178.5930  136.0960 C   0  0  2  0  0  0  0  0  0  0  0  0
  181.9890  182.6290  138.3390 O   0  0  0  0  0  0  0  0  0  0  0  0
  180.1160  181.0340  139.4310 C   0  0  0  0  0  2  0  0  0  0  0  0
  181.3250  178.9950  138.4220 C   0  0  1  0  0  3  0  0  0  0  0  0
  180.7560  181.0340  136.5640 C   0  0  0  0  0  2  0  0  0  0  0  0
  181.0310  179.8300  139.6740 C   0  0  0  0  0  2  0  0  0  0  0  0
  180.6440  182.0290  138.0430 S   0  0  0  0  0  0  0  0  0  0  0  0
  179.7390  179.8870  136.5920 C   0  0  2  0  0  3  0  0  0  0  0  0
  179.6480  183.1310  137.8220 O   0  0  0  0  0  0  0  0  0  0  0  0
  179.5030  177.6940  135.4590 O   0  0  0  0  0  0  0  0  0  0  0  0
  180.4330  175.6870  136.0180 O   0  0  0  0  0  1  0  0  0  0  0  0
  180.3010  176.6380  135.0070 C   0  0  0  0  0  2  0  0  0  0  0  0
  1 15  1  0  0  0  0
  2  1  2  0  0  0  0
  3  2  1  0  0  0  0
  3  6  1  0  0  0  0
  4 15  2  0  0  0  0
  4 37  1  0  0  0  0
  5  8  2  0  0  0  0
  5  2  1  0  0  0  0
  6 17  1  1  0  0  0
  8  4  1  0  0  0  0
  9 11  1  0  0  0  0
 10  6  1  0  0  0  0
 11  3  2  0  0  0  0
 12 10  1  0  0  0  0
 13 11  1  0  0  0  0
 13 12  1  0  0  0  0
 14  7  2  0  0  0  0
 14  5  1  0  0  0  0
 16  9  1  0  0  0  0
 16 14  1  0  0  0  0
 17 18  1  0  0  0  0
 18 20  1  0  0  0  0
 19 32  1  0  0  0  0
 20 19  2  0  0  0  0
 22 21  1  0  0  0  0
 24 27  1  1  0  0  0
 25 22  1  0  0  0  0
 26 21  1  1  0  0  0
 26 23  1  0  0  0  0
 28 30  1  6  0  0  0
 28 26  1  0  0  0  0
 29 31  1  0  0  0  0
 30 25  1  0  0  0  0
 31 24  1  0  0  0  0
 32 28  1  0  0  0  0
 32 33  1  0  0  0  0
 33 29  1  6  0  0  0
 33 34  1  0  0  0  0
 34 23  1  1  0  0  0
 34 24  1  0  0  0  0
 35 19  1  0  0  0  0
 36 35  1  0  0  0  0
 38 43  1  0  0  0  0
 39 40  1  0  0  0  0
 40 47  1  0  0  0  0
 40 38  1  0  0  0  0
 42 45  1  0  0  0  0
 43 37  1  0  0  0  0
 43 45  1  0  0  0  0
 44 47  1  0  0  0  0
 44 46  1  0  0  0  0
 46 41  2  0  0  0  0
 46 42  1  0  0  0  0
 47 38  1  0  0  0  0
 48 46  2  0  0  0  0
 49 40  1  0  0  0  0
 51 49  1  0  0  0  0
 51 50  1  0  0  0  0
M  END
>  <MODEL>
4

>  <REMARK>
 VINA RESULT:      -8.7      2.288      3.573
  Name = 
  9 active torsions:
  status: ('A' for Active; 'I' for Inactive)
    1  A    between atoms: O_1  and  C_18
    2  A    between atoms: C_2  and  C_15
    3  A    between atoms: C_2  and  C_35
    4  A    between atoms: O_8  and  C_12
    5  A    between atoms: O_8  and  C_41
    6  A    between atoms: C_14  and  C_25
    7  A    between atoms: C_15  and  C_17
    8  A    between atoms: C_18  and  N_44
    9  A    between atoms: C_25  and  C_34
                            x       y       z     vdW  Elec       q    Type
                         _______ _______ _______ _____ _____    ______ ____

>  <TORSDO>
F 9

$$$$
=
 OpenBabel10222417133D

 51 58  0  0  1  0  0  0  0  0999 V2000
  185.7720  178.5030  138.3280 C   0  0  0  0  0  3  0  0  0  0  0  0
  186.1890  177.4020  137.5630 C   0  0  0  0  0  0  0  0  0  0  0  0
  187.6360  177.2990  137.1860 C   0  0  0  0  0  0  0  0  0  0  0  0
  183.5570  177.5820  138.5670 C   0  0  0  0  0  0  0  0  0  0  0  0
  185.2320  176.4020  137.2570 C   0  0  0  0  0  0  0  0  0  0  0  0
  188.7320  177.4160  138.2650 C   0  0  1  0  0  3  0  0  0  0  0  0
  184.9970  174.1680  136.5230 O   0  0  0  0  0  0  0  0  0  0  0  0
  183.9350  176.4960  137.7820 C   0  0  0  0  0  3  0  0  0  0  0  0
  187.1190  176.5540  134.9120 N   0  0  0  0  0  2  0  0  0  0  0  0
  190.0000  177.7250  137.7330 O   0  0  0  0  0  0  0  0  0  0  0  0
  188.0340  176.9060  135.9510 C   0  0  0  0  0  0  0  0  0  0  0  0
  190.3340  176.6960  136.8460 C   0  0  0  0  0  2  0  0  0  0  0  0
  189.4920  176.8530  135.5930 C   0  0  0  0  0  2  0  0  0  0  0  0
  185.4950  175.3060  136.3170 C   0  0  0  0  0  0  0  0  0  0  0  0
  184.4730  178.5980  138.8250 C   0  0  0  0  0  3  0  0  0  0  0  0
  186.1370  175.5680  135.0740 N   0  0  0  0  0  2  0  0  0  0  0  0
  188.4320  178.3460  139.4450 C   0  0  0  0  0  2  0  0  0  0  0  0
  189.0420  177.8540  140.7570 C   0  0  0  0  0  2  0  0  0  0  0  0
  187.8580  177.2910  142.9270 C   0  0  0  0  0  0  0  0  0  0  0  0
  188.1280  178.1240  141.9080 C   0  0  0  0  0  3  0  0  0  0  0  0
  187.1280  178.6460  147.7000 C   0  0  0  0  0  2  0  0  0  0  0  0
  188.5200  178.1690  147.7730 N   0  0  0  0  0  2  0  0  0  0  0  0
  185.3970  179.1000  145.9680 N   0  0  0  0  0  2  0  0  0  0  0  0
  183.6770  179.1550  144.1690 C   0  0  2  0  0  3  0  0  0  0  0  0
  188.6000  176.9310  147.2000 O   0  0  0  0  0  0  0  0  0  0  0  0
  186.4900  178.2160  146.3800 C   0  0  1  0  0  3  0  0  0  0  0  0
  182.4900  178.6160  144.6640 O   0  0  0  0  0  1  0  0  0  0  0  0
  187.5850  178.1090  145.2990 C   0  0  1  0  0  3  0  0  0  0  0  0
  185.1300  178.1910  142.5140 O   0  0  0  0  0  0  0  0  0  0  0  0
  188.6560  177.1170  145.7950 C   0  0  0  0  0  2  0  0  0  0  0  0
  183.8490  178.7670  142.6980 C   0  0  0  0  0  2  0  0  0  0  0  0
  187.0070  177.7640  143.9860 N   0  0  0  0  0  0  0  0  0  0  0  0
  185.8220  178.5700  143.6660 C   0  0  2  0  0  3  0  0  0  0  0  0
  184.8400  178.4620  144.7830 C   0  0  1  0  0  3  0  0  0  0  0  0
  188.3600  175.9790  143.0170 O   0  0  0  0  0  0  0  0  0  0  0  0
  189.7350  175.6220  142.9800 C   0  0  0  0  0  1  0  0  0  0  0  0
  182.1800  177.6500  139.1350 C   0  0  0  0  0  2  0  0  0  0  0  0
  180.2370  178.5230  137.8170 C   0  0  1  0  0  3  0  0  0  0  0  0
  181.9200  178.3260  136.0160 F   0  0  0  0  0  0  0  0  0  0  0  0
  180.5700  178.2990  136.3490 C   0  0  2  0  0  0  0  0  0  0  0  0
  181.9190  182.5590  138.3430 O   0  0  0  0  0  0  0  0  0  0  0  0
  180.1230  180.9310  139.5140 C   0  0  0  0  0  2  0  0  0  0  0  0
  181.4630  178.9050  138.6560 C   0  0  1  0  0  3  0  0  0  0  0  0
  180.8090  180.7830  136.6620 C   0  0  0  0  0  2  0  0  0  0  0  0
  181.1020  179.8010  139.8470 C   0  0  0  0  0  2  0  0  0  0  0  0
  180.6150  181.8630  138.0710 S   0  0  0  0  0  0  0  0  0  0  0  0
  179.8590  179.5830  136.7520 C   0  0  2  0  0  3  0  0  0  0  0  0
  179.5620  182.8880  137.7650 O   0  0  0  0  0  0  0  0  0  0  0  0
  179.7670  177.3110  135.7630 O   0  0  0  0  0  0  0  0  0  0  0  0
  180.8660  175.3600  136.2020 O   0  0  0  0  0  1  0  0  0  0  0  0
  180.6450  176.3520  135.2470 C   0  0  0  0  0  2  0  0  0  0  0  0
  1 15  1  0  0  0  0
  2  1  2  0  0  0  0
  3  2  1  0  0  0  0
  3  6  1  0  0  0  0
  4 15  2  0  0  0  0
  4 37  1  0  0  0  0
  5  2  1  0  0  0  0
  5  8  2  0  0  0  0
  6 17  1  1  0  0  0
  8  4  1  0  0  0  0
  9 16  1  0  0  0  0
  9 11  1  0  0  0  0
 10  6  1  0  0  0  0
 11  3  2  0  0  0  0
 12 10  1  0  0  0  0
 13 11  1  0  0  0  0
 13 12  1  0  0  0  0
 14  7  2  0  0  0  0
 14  5  1  0  0  0  0
 16 14  1  0  0  0  0
 17 18  1  0  0  0  0
 18 20  1  0  0  0  0
 19 35  1  0  0  0  0
 19 32  1  0  0  0  0
 20 19  2  0  0  0  0
 21 22  1  0  0  0  0
 23 26  1  0  0  0  0
 24 27  1  1  0  0  0
 24 34  1  0  0  0  0
 25 22  1  0  0  0  0
 26 21  1  1  0  0  0
 28 30  1  1  0  0  0
 28 26  1  0  0  0  0
 29 31  1  0  0  0  0
 30 25  1  0  0  0  0
 31 24  1  0  0  0  0
 32 28  1  0  0  0  0
 33 29  1  6  0  0  0
 33 32  1  0  0  0  0
 33 34  1  0  0  0  0
 34 23  1  1  0  0  0
 36 35  1  0  0  0  0
 38 43  1  0  0  0  0
 39 40  1  0  0  0  0
 40 47  1  0  0  0  0
 40 38  1  0  0  0  0
 42 45  1  0  0  0  0
 43 37  1  0  0  0  0
 43 45  1  0  0  0  0
 44 47  1  0  0  0  0
 44 46  1  0  0  0  0
 46 41  2  0  0  0  0
 46 42  1  0  0  0  0
 47 38  1  0  0  0  0
 48 46  2  0  0  0  0
 49 40  1  0  0  0  0
 51 49  1  0  0  0  0
 51 50  1  0  0  0  0
M  END
>  <MODEL>
5

>  <REMARK>
 VINA RESULT:      -8.6      2.295      4.211
  Name = 
  9 active torsions:
  status: ('A' for Active; 'I' for Inactive)
    1  A    between atoms: O_1  and  C_18
    2  A    between atoms: C_2  and  C_15
    3  A    between atoms: C_2  and  C_35
    4  A    between atoms: O_8  and  C_12
    5  A    between atoms: O_8  and  C_41
    6  A    between atoms: C_14  and  C_25
    7  A    between atoms: C_15  and  C_17
    8  A    between atoms: C_18  and  N_44
    9  A    between atoms: C_25  and  C_34
                            x       y       z     vdW  Elec       q    Type
                         _______ _______ _______ _____ _____    ______ ____

>  <TORSDO>
F 9

$$$$
=
 OpenBabel10222417133D

 51 58  0  0  1  0  0  0  0  0999 V2000
  188.1300  178.6800  141.2610 C   0  0  0  0  0  3  0  0  0  0  0  0
  188.5010  177.8220  142.3080 C   0  0  0  0  0  0  0  0  0  0  0  0
  187.7250  177.8790  143.5900 C   0  0  0  0  0  0  0  0  0  0  0  0
  189.6970  177.6320  139.7580 C   0  0  0  0  0  0  0  0  0  0  0  0
  189.5390  176.8870  142.0680 C   0  0  0  0  0  0  0  0  0  0  0  0
  186.1860  177.7750  143.5730 C   0  0  1  0  0  3  0  0  0  0  0  0
  190.5190  174.8960  142.8800 O   0  0  0  0  0  0  0  0  0  0  0  0
  190.1070  176.7910  140.7900 C   0  0  0  0  0  3  0  0  0  0  0  0
  189.7430  177.6980  144.9640 N   0  0  0  0  0  2  0  0  0  0  0  0
  185.5880  178.2610  144.7540 O   0  0  0  0  0  0  0  0  0  0  0  0
  188.3300  177.8230  144.8020 C   0  0  0  0  0  0  0  0  0  0  0  0
  186.0910  177.4990  145.8130 C   0  0  0  0  0  2  0  0  0  0  0  0
  187.5260  177.9250  146.0670 C   0  0  0  0  0  2  0  0  0  0  0  0
  190.1390  176.0710  143.1300 C   0  0  0  0  0  0  0  0  0  0  0  0
  188.7180  178.5920  140.0000 C   0  0  0  0  0  3  0  0  0  0  0  0
  190.4810  176.6600  144.3790 N   0  0  0  0  0  2  0  0  0  0  0  0
  185.4740  178.3700  142.3550 C   0  0  0  0  0  2  0  0  0  0  0  0
  183.9520  178.3550  142.4930 C   0  0  0  0  0  2  0  0  0  0  0  0
  181.9790  178.3920  140.9010 C   0  0  0  0  0  0  0  0  0  0  0  0
  183.2940  178.2720  141.1540 C   0  0  0  0  0  3  0  0  0  0  0  0
  180.8030  180.7110  136.6120 C   0  0  0  0  0  2  0  0  0  0  0  0
  181.0230  181.8750  137.4870 N   0  0  0  0  0  2  0  0  0  0  0  0
  181.0810  178.2370  136.6880 N   0  0  0  0  0  2  0  0  0  0  0  0
  181.0730  175.7740  137.0510 C   0  0  2  0  0  3  0  0  0  0  0  0
  180.3050  181.7120  138.6390 O   0  0  0  0  0  0  0  0  0  0  0  0
  180.7050  179.4340  137.4460 C   0  0  1  0  0  3  0  0  0  0  0  0
  179.9080  175.2420  136.4990 O   0  0  0  0  0  1  0  0  0  0  0  0
  181.5510  179.5970  138.7250 C   0  0  1  0  0  3  0  0  0  0  0  0
  181.6300  175.9430  139.3830 O   0  0  0  0  0  0  0  0  0  0  0  0
  181.0450  180.8420  139.4810 C   0  0  0  0  0  2  0  0  0  0  0  0
  181.4350  175.0160  138.3310 C   0  0  0  0  0  2  0  0  0  0  0  0
  181.5450  178.3600  139.5300 N   0  0  0  0  0  0  0  0  0  0  0  0
  181.7790  177.1610  138.7170 C   0  0  2  0  0  3  0  0  0  0  0  0
  180.7990  177.1310  137.5930 C   0  0  1  0  0  3  0  0  0  0  0  0
  181.0030  178.5460  141.9020 O   0  0  0  0  0  0  0  0  0  0  0  0
  179.7140  177.9450  141.8920 C   0  0  0  0  0  1  0  0  0  0  0  0
  190.2970  177.4970  138.4000 C   0  0  0  0  0  2  0  0  0  0  0  0
  189.8990  175.1900  137.5080 C   0  0  1  0  0  3  0  0  0  0  0  0
  191.4690  176.0420  135.7990 F   0  0  0  0  0  0  0  0  0  0  0  0
  190.9860  174.9280  136.4760 C   0  0  2  0  0  0  0  0  0  0  0  0
  186.8070  176.9240  134.8960 O   0  0  0  0  0  0  0  0  0  0  0  0
  187.0090  175.7320  137.3010 C   0  0  0  0  0  2  0  0  0  0  0  0
  189.4100  176.6440  137.5040 C   0  0  1  0  0  3  0  0  0  0  0  0
  188.9020  175.2560  135.1060 C   0  0  0  0  0  2  0  0  0  0  0  0
  187.9420  176.7690  137.9330 C   0  0  0  0  0  2  0  0  0  0  0  0
  187.2050  175.6200  135.5280 S   0  0  0  0  0  0  0  0  0  0  0  0
  189.5770  174.4220  136.2020 C   0  0  2  0  0  3  0  0  0  0  0  0
  186.3210  174.5250  135.0040 O   0  0  0  0  0  0  0  0  0  0  0  0
  191.9100  173.9650  136.9040 O   0  0  0  0  0  0  0  0  0  0  0  0
  193.9240  174.0190  137.9750 O   0  0  0  0  0  1  0  0  0  0  0  0
  193.1440  174.6200  136.9880 C   0  0  0  0  0  2  0  0  0  0  0  0
  1  2  1  0  0  0  0
  2  3  1  0  0  0  0
  3 11  2  0  0  0  0
  4 15  1  0  0  0  0
  4  8  2  0  0  0  0
  5  2  2  0  0  0  0
  5 14  1  0  0  0  0
  6 17  1  6  0  0  0
  6  3  1  0  0  0  0
  6 10  1  0  0  0  0
  7 14  2  0  0  0  0
  8  5  1  0  0  0  0
 10 12  1  0  0  0  0
 11  9  1  0  0  0  0
 11 13  1  0  0  0  0
 12 13  1  0  0  0  0
 14 16  1  0  0  0  0
 15  1  2  0  0  0  0
 16  9  1  0  0  0  0
 17 18  1  0  0  0  0
 19 20  2  0  0  0  0
 19 35  1  0  0  0  0
 20 18  1  0  0  0  0
 21 22  1  0  0  0  0
 22 25  1  0  0  0  0
 23 26  1  0  0  0  0
 24 27  1  1  0  0  0
 24 34  1  0  0  0  0
 24 31  1  0  0  0  0
 25 30  1  0  0  0  0
 26 21  1  6  0  0  0
 26 28  1  0  0  0  0
 28 30  1  1  0  0  0
 28 32  1  0  0  0  0
 31 29  1  0  0  0  0
 32 19  1  0  0  0  0
 33 29  1  1  0  0  0
 33 32  1  0  0  0  0
 34 23  1  6  0  0  0
 34 33  1  0  0  0  0
 36 35  1  0  0  0  0
 37  4  1  0  0  0  0
 39 40  1  0  0  0  0
 40 49  1  0  0  0  0
 40 38  1  0  0  0  0
 41 46  2  0  0  0  0
 42 45  1  0  0  0  0
 43 38  1  0  0  0  0
 43 45  1  0  0  0  0
 43 37  1  0  0  0  0
 44 46  1  0  0  0  0
 44 47  1  0  0  0  0
 46 42  1  0  0  0  0
 47 40  1  0  0  0  0
 47 38  1  0  0  0  0
 48 46  2  0  0  0  0
 49 51  1  0  0  0  0
 51 50  1  0  0  0  0
M  END
>  <MODEL>
6

>  <REMARK>
 VINA RESULT:      -8.4      2.969      8.632
  Name = 
  9 active torsions:
  status: ('A' for Active; 'I' for Inactive)
    1  A    between atoms: O_1  and  C_18
    2  A    between atoms: C_2  and  C_15
    3  A    between atoms: C_2  and  C_35
    4  A    between atoms: O_8  and  C_12
    5  A    between atoms: O_8  and  C_41
    6  A    between atoms: C_14  and  C_25
    7  A    between atoms: C_15  and  C_17
    8  A    between atoms: C_18  and  N_44
    9  A    between atoms: C_25  and  C_34
                            x       y       z     vdW  Elec       q    Type
                         _______ _______ _______ _____ _____    ______ ____

>  <TORSDO>
F 9

$$$$
=
 OpenBabel10222417133D

 51 58  0  0  1  0  0  0  0  0999 V2000
  186.4780  178.0540  137.6050 C   0  0  0  0  0  3  0  0  0  0  0  0
  187.2210  176.9530  137.1500 C   0  0  0  0  0  0  0  0  0  0  0  0
  188.6540  176.8320  137.5730 C   0  0  0  0  0  0  0  0  0  0  0  0
  184.4500  177.1620  136.6540 C   0  0  0  0  0  0  0  0  0  0  0  0
  186.5520  175.9680  136.3810 C   0  0  0  0  0  0  0  0  0  0  0  0
  189.0360  176.9280  139.0650 C   0  0  1  0  0  3  0  0  0  0  0  0
  186.7110  173.7420  135.6020 O   0  0  0  0  0  0  0  0  0  0  0  0
  185.1710  176.0760  136.1620 C   0  0  0  0  0  3  0  0  0  0  0  0
  189.3800  176.1110  135.3490 N   0  0  0  0  0  2  0  0  0  0  0  0
  190.4000  177.2220  139.2680 O   0  0  0  0  0  0  0  0  0  0  0  0
  189.6300  176.4430  136.7150 C   0  0  0  0  0  0  0  0  0  0  0  0
  191.1350  176.1950  138.6670 C   0  0  0  0  0  2  0  0  0  0  0  0
  191.0630  176.3730  137.1610 C   0  0  0  0  0  2  0  0  0  0  0  0
  187.2540  174.8750  135.6980 C   0  0  0  0  0  0  0  0  0  0  0  0
  185.1100  178.1630  137.3610 C   0  0  0  0  0  3  0  0  0  0  0  0
  188.4470  175.1370  134.9680 N   0  0  0  0  0  2  0  0  0  0  0  0
  188.1780  177.8530  139.9320 C   0  0  0  0  0  2  0  0  0  0  0  0
  188.9980  178.6280  140.9630 C   0  0  0  0  0  2  0  0  0  0  0  0
  188.2040  177.5810  143.1320 C   0  0  0  0  0  0  0  0  0  0  0  0
  188.3220  178.6270  142.2960 C   0  0  0  0  0  3  0  0  0  0  0  0
  184.1820  178.6270  145.9390 C   0  0  0  0  0  2  0  0  0  0  0  0
  183.6120  178.7980  144.5920 N   0  0  0  0  0  2  0  0  0  0  0  0
  186.2910  177.8180  146.9870 N   0  0  0  0  0  2  0  0  0  0  0  0
  188.5730  177.3270  147.8530 C   0  0  2  0  0  3  0  0  0  0  0  0
  184.4270  179.6170  143.8610 O   0  0  0  0  0  0  0  0  0  0  0  0
  185.7060  178.5540  145.8630 C   0  0  1  0  0  3  0  0  0  0  0  0
  188.8860  178.2530  148.8480 O   0  0  0  0  0  1  0  0  0  0  0  0
  186.1180  177.9550  144.5030 C   0  0  1  0  0  3  0  0  0  0  0  0
  189.5530  177.1570  145.6660 O   0  0  0  0  0  0  0  0  0  0  0  0
  185.5070  178.8280  143.3890 C   0  0  0  0  0  2  0  0  0  0  0  0
  189.8280  176.9900  147.0450 C   0  0  0  0  0  2  0  0  0  0  0  0
  187.5830  177.7990  144.4110 N   0  0  0  0  0  0  0  0  0  0  0  0
  188.1580  177.1910  145.6160 C   0  0  2  0  0  3  0  0  0  0  0  0
  187.7290  177.9700  146.8130 C   0  0  1  0  0  3  0  0  0  0  0  0
  188.6540  176.2840  142.8270 O   0  0  0  0  0  0  0  0  0  0  0  0
  190.0160  175.8820  142.7540 C   0  0  0  0  0  1  0  0  0  0  0  0
  182.9780  177.2440  136.4300 C   0  0  0  0  0  2  0  0  0  0  0  0
  180.8340  178.0530  137.4440 C   0  0  1  0  0  3  0  0  0  0  0  0
  182.0010  180.2110  137.1350 F   0  0  0  0  0  0  0  0  0  0  0  0
  180.7770  179.5540  137.2020 C   0  0  2  0  0  0  0  0  0  0  0  0
  182.8710  178.0130  141.3480 O   0  0  0  0  0  0  0  0  0  0  0  0
  181.3120  176.4130  139.8460 C   0  0  0  0  0  2  0  0  0  0  0  0
  182.2540  177.5490  137.7340 C   0  0  1  0  0  3  0  0  0  0  0  0
  181.2580  179.3440  139.6620 C   0  0  0  0  0  2  0  0  0  0  0  0
  182.2620  176.3170  138.6480 C   0  0  0  0  0  2  0  0  0  0  0  0
  181.4950  177.9460  140.7470 S   0  0  0  0  0  0  0  0  0  0  0  0
  180.2790  179.0060  138.5310 C   0  0  2  0  0  3  0  0  0  0  0  0
  180.4720  177.9950  141.8460 O   0  0  0  0  0  0  0  0  0  0  0  0
  179.7880  179.9110  136.2760 O   0  0  0  0  0  0  0  0  0  0  0  0
  180.2880  181.8220  135.1350 O   0  0  0  0  0  1  0  0  0  0  0  0
  180.4620  180.4390  135.1700 C   0  0  0  0  0  2  0  0  0  0  0  0
  2  3  1  0  0  0  0
  2  1  2  0  0  0  0
  3  6  1  0  0  0  0
  4 15  2  0  0  0  0
  5  2  1  0  0  0  0
  6 10  1  0  0  0  0
  6 17  1  6  0  0  0
  7 14  2  0  0  0  0
  8  5  2  0  0  0  0
  8  4  1  0  0  0  0
  9 11  1  0  0  0  0
 11 13  1  0  0  0  0
 11  3  2  0  0  0  0
 12 10  1  0  0  0  0
 13 12  1  0  0  0  0
 14  5  1  0  0  0  0
 15  1  1  0  0  0  0
 16  9  1  0  0  0  0
 16 14  1  0  0  0  0
 17 18  1  0  0  0  0
 18 20  1  0  0  0  0
 19 32  1  0  0  0  0
 20 19  2  0  0  0  0
 22 21  1  0  0  0  0
 24 27  1  1  0  0  0
 25 22  1  0  0  0  0
 26 21  1  1  0  0  0
 26 23  1  0  0  0  0
 28 30  1  6  0  0  0
 28 26  1  0  0  0  0
 29 31  1  0  0  0  0
 30 25  1  0  0  0  0
 31 24  1  0  0  0  0
 32 28  1  0  0  0  0
 32 33  1  0  0  0  0
 33 29  1  6  0  0  0
 33 34  1  0  0  0  0
 34 23  1  1  0  0  0
 34 24  1  0  0  0  0
 35 19  1  0  0  0  0
 36 35  1  0  0  0  0
 37  4  1  0  0  0  0
 37 43  1  0  0  0  0
 38 43  1  0  0  0  0
 38 47  1  0  0  0  0
 39 40  1  0  0  0  0
 40 38  1  0  0  0  0
 40 47  1  0  0  0  0
 42 46  1  0  0  0  0
 43 45  1  0  0  0  0
 44 46  1  0  0  0  0
 45 42  1  0  0  0  0
 46 41  2  0  0  0  0
 46 48  2  0  0  0  0
 47 44  1  0  0  0  0
 49 40  1  0  0  0  0
 50 51  1  0  0  0  0
 51 49  1  0  0  0  0
M  END
>  <MODEL>
7

>  <REMARK>
 VINA RESULT:      -8.3      2.101      2.916
  Name = 
  9 active torsions:
  status: ('A' for Active; 'I' for Inactive)
    1  A    between atoms: O_1  and  C_18
    2  A    between atoms: C_2  and  C_15
    3  A    between atoms: C_2  and  C_35
    4  A    between atoms: O_8  and  C_12
    5  A    between atoms: O_8  and  C_41
    6  A    between atoms: C_14  and  C_25
    7  A    between atoms: C_15  and  C_17
    8  A    between atoms: C_18  and  N_44
    9  A    between atoms: C_25  and  C_34
                            x       y       z     vdW  Elec       q    Type
                         _______ _______ _______ _____ _____    ______ ____

>  <TORSDO>
F 9

$$$$
=
 OpenBabel10222417133D

 51 58  0  0  1  0  0  0  0  0999 V2000
  184.0070  179.0080  141.8000 C   0  0  0  0  0  3  0  0  0  0  0  0
  182.6080  178.9570  141.9100 C   0  0  0  0  0  0  0  0  0  0  0  0
  181.7910  178.9780  140.6530 C   0  0  0  0  0  0  0  0  0  0  0  0
  184.2720  178.6530  144.1700 C   0  0  0  0  0  0  0  0  0  0  0  0
  182.0450  178.8040  143.2020 C   0  0  0  0  0  0  0  0  0  0  0  0
  182.0940  177.9880  139.5100 C   0  0  1  0  0  3  0  0  0  0  0  0
  180.0670  178.2020  144.3460 O   0  0  0  0  0  0  0  0  0  0  0  0
  182.8860  178.6330  144.3110 C   0  0  0  0  0  3  0  0  0  0  0  0
  180.1340  180.5050  141.6100 N   0  0  0  0  0  2  0  0  0  0  0  0
  181.5560  178.3930  138.2720 O   0  0  0  0  0  0  0  0  0  0  0  0
  180.6520  179.7070  140.5450 C   0  0  0  0  0  0  0  0  0  0  0  0
  180.1710  178.4940  138.4400 C   0  0  0  0  0  2  0  0  0  0  0  0
  179.8790  179.7400  139.2580 C   0  0  0  0  0  2  0  0  0  0  0  0
  180.6070  178.9230  143.4650 C   0  0  0  0  0  0  0  0  0  0  0  0
  184.8340  178.8610  142.9130 C   0  0  0  0  0  3  0  0  0  0  0  0
  179.8570  179.9820  142.8800 N   0  0  0  0  0  2  0  0  0  0  0  0
  183.5610  177.5870  139.3250 C   0  0  0  0  0  2  0  0  0  0  0  0
  183.8840  177.1740  137.8890 C   0  0  0  0  0  2  0  0  0  0  0  0
  186.1100  176.6450  136.7950 C   0  0  0  0  0  0  0  0  0  0  0  0
  185.2330  176.5340  137.8070 C   0  0  0  0  0  3  0  0  0  0  0  0
  190.6720  176.3860  138.8630 C   0  0  0  0  0  2  0  0  0  0  0  0
  190.1950  177.6540  139.4400 N   0  0  0  0  0  2  0  0  0  0  0  0
  189.7810  174.4990  137.5020 N   0  0  0  0  0  2  0  0  0  0  0  0
  188.8470  172.8900  135.8480 C   0  0  2  0  0  3  0  0  0  0  0  0
  189.7140  178.4500  138.4380 O   0  0  0  0  0  0  0  0  0  0  0  0
  189.7580  175.9480  137.7190 C   0  0  1  0  0  3  0  0  0  0  0  0
  189.8180  172.6220  134.8830 O   0  0  0  0  0  1  0  0  0  0  0  0
  188.3310  176.4710  137.9810 C   0  0  1  0  0  3  0  0  0  0  0  0
  186.8020  174.1170  135.5510 O   0  0  0  0  0  0  0  0  0  0  0  0
  188.4010  178.0040  138.1360 C   0  0  0  0  0  2  0  0  0  0  0  0
  187.4620  172.9140  135.1980 C   0  0  0  0  0  2  0  0  0  0  0  0
  187.3950  176.0140  136.9370 N   0  0  0  0  0  0  0  0  0  0  0  0
  187.5440  174.5850  136.6380 C   0  0  2  0  0  3  0  0  0  0  0  0
  188.9700  174.2970  136.3090 C   0  0  1  0  0  3  0  0  0  0  0  0
  185.8430  177.3440  135.6040 O   0  0  0  0  0  0  0  0  0  0  0  0
  186.8030  178.0580  134.8370 C   0  0  0  0  0  1  0  0  0  0  0  0
  185.1470  178.4450  145.3590 C   0  0  0  0  0  2  0  0  0  0  0  0
  187.1450  177.0920  146.0310 C   0  0  1  0  0  3  0  0  0  0  0  0
  187.7760  179.2850  146.9830 F   0  0  0  0  0  0  0  0  0  0  0  0
  187.8870  177.9020  147.0840 C   0  0  2  0  0  0  0  0  0  0  0  0
  189.1530  178.5820  142.4070 O   0  0  0  0  0  0  0  0  0  0  0  0
  187.7070  176.4580  143.2080 C   0  0  0  0  0  2  0  0  0  0  0  0
  186.5270  177.9650  144.9320 C   0  0  1  0  0  3  0  0  0  0  0  0
  189.3390  178.0760  145.0380 C   0  0  0  0  0  2  0  0  0  0  0  0
  186.4440  177.2370  143.5840 C   0  0  0  0  0  2  0  0  0  0  0  0
  189.1940  177.4360  143.3770 S   0  0  0  0  0  0  0  0  0  0  0  0
  188.6940  177.1260  146.0540 C   0  0  2  0  0  3  0  0  0  0  0  0
  190.3860  176.5740  143.0750 O   0  0  0  0  0  0  0  0  0  0  0  0
  187.8050  177.3280  148.3590 O   0  0  0  0  0  0  0  0  0  0  0  0
  189.7490  178.3360  148.9990 O   0  0  0  0  0  1  0  0  0  0  0  0
  188.3780  178.2500  149.2410 C   0  0  0  0  0  2  0  0  0  0  0  0
  1  2  2  0  0  0  0
  1 15  1  0  0  0  0
  2  5  1  0  0  0  0
  3  2  1  0  0  0  0
  4  8  1  0  0  0  0
  4 37  1  0  0  0  0
  5 14  1  0  0  0  0
  5  8  2  0  0  0  0
  6 17  1  6  0  0  0
  6  3  1  0  0  0  0
  9 16  1  0  0  0  0
 10 12  1  0  0  0  0
 10  6  1  0  0  0  0
 11  3  2  0  0  0  0
 11  9  1  0  0  0  0
 12 13  1  0  0  0  0
 13 11  1  0  0  0  0
 14  7  2  0  0  0  0
 15  4  2  0  0  0  0
 16 14  1  0  0  0  0
 18 17  1  0  0  0  0
 19 32  1  0  0  0  0
 19 20  2  0  0  0  0
 20 18  1  0  0  0  0
 21 22  1  0  0  0  0
 23 26  1  0  0  0  0
 24 27  1  6  0  0  0
 24 34  1  0  0  0  0
 25 22  1  0  0  0  0
 26 28  1  0  0  0  0
 26 21  1  1  0  0  0
 28 30  1  6  0  0  0
 30 25  1  0  0  0  0
 31 29  1  0  0  0  0
 31 24  1  0  0  0  0
 32 28  1  0  0  0  0
 33 29  1  6  0  0  0
 33 32  1  0  0  0  0
 34 33  1  0  0  0  0
 34 23  1  1  0  0  0
 35 19  1  0  0  0  0
 36 35  1  0  0  0  0
 38 47  1  0  0  0  0
 38 40  1  0  0  0  0
 39 40  1  0  0  0  0
 40 49  1  0  0  0  0
 41 46  2  0  0  0  0
 42 46  1  0  0  0  0
 42 45  1  0  0  0  0
 43 37  1  0  0  0  0
 43 38  1  0  0  0  0
 44 47  1  0  0  0  0
 45 43  1  0  0  0  0
 46 44  1  0  0  0  0
 47 40  1  0  0  0  0
 48 46  2  0  0  0  0
 49 51  1  0  0  0  0
 50 51  1  0  0  0  0
M  END
>  <MODEL>
8

>  <REMARK>
 VINA RESULT:      -8.2      3.083      9.552
  Name = 
  9 active torsions:
  status: ('A' for Active; 'I' for Inactive)
    1  A    between atoms: O_1  and  C_18
    2  A    between atoms: C_2  and  C_15
    3  A    between atoms: C_2  and  C_35
    4  A    between atoms: O_8  and  C_12
    5  A    between atoms: O_8  and  C_41
    6  A    between atoms: C_14  and  C_25
    7  A    between atoms: C_15  and  C_17
    8  A    between atoms: C_18  and  N_44
    9  A    between atoms: C_25  and  C_34
                            x       y       z     vdW  Elec       q    Type
                         _______ _______ _______ _____ _____    ______ ____

>  <TORSDO>
F 9

$$$$
=
 OpenBabel10222417133D

 51 58  0  0  1  0  0  0  0  0999 V2000
  187.5400  177.8920  136.6270 C   0  0  0  0  0  3  0  0  0  0  0  0
  188.1780  176.6730  136.9070 C   0  0  0  0  0  0  0  0  0  0  0  0
  189.3980  176.6860  137.7780 C   0  0  0  0  0  0  0  0  0  0  0  0
  185.7260  176.7620  135.5100 C   0  0  0  0  0  0  0  0  0  0  0  0
  187.5850  175.4820  136.4170 C   0  0  0  0  0  0  0  0  0  0  0  0
  189.3690  177.3940  139.1480 C   0  0  1  0  0  3  0  0  0  0  0  0
  187.5660  173.1330  136.6730 O   0  0  0  0  0  0  0  0  0  0  0  0
  186.3560  175.5420  135.7440 C   0  0  0  0  0  3  0  0  0  0  0  0
  190.5680  175.0550  136.3770 N   0  0  0  0  0  2  0  0  0  0  0  0
  190.6550  177.6920  139.6430 O   0  0  0  0  0  0  0  0  0  0  0  0
  190.4890  175.9290  137.5040 C   0  0  0  0  0  0  0  0  0  0  0  0
  191.3380  176.4770  139.7650 C   0  0  0  0  0  2  0  0  0  0  0  0
  191.7110  175.9970  138.3740 C   0  0  0  0  0  2  0  0  0  0  0  0
  188.2480  174.1750  136.4830 C   0  0  0  0  0  0  0  0  0  0  0  0
  186.3300  177.9420  135.9360 C   0  0  0  0  0  3  0  0  0  0  0  0
  189.6220  174.0500  136.1330 N   0  0  0  0  0  2  0  0  0  0  0  0
  188.4780  178.6360  139.2560 C   0  0  0  0  0  2  0  0  0  0  0  0
  187.2900  178.4320  140.1960 C   0  0  0  0  0  2  0  0  0  0  0  0
  187.0000  177.9320  142.6650 C   0  0  0  0  0  0  0  0  0  0  0  0
  187.7430  178.3270  141.6170 C   0  0  0  0  0  3  0  0  0  0  0  0
  186.8530  178.1090  147.6750 C   0  0  0  0  0  2  0  0  0  0  0  0
  185.4860  178.5550  147.3570 N   0  0  0  0  0  2  0  0  0  0  0  0
  188.8410  177.1860  146.4900 N   0  0  0  0  0  2  0  0  0  0  0  0
  190.8410  176.6230  145.1200 C   0  0  2  0  0  3  0  0  0  0  0  0
  185.5470  179.5590  146.4310 O   0  0  0  0  0  0  0  0  0  0  0  0
  187.7220  178.1300  146.4180 C   0  0  1  0  0  3  0  0  0  0  0  0
  191.9430  177.3120  145.6270 O   0  0  0  0  0  1  0  0  0  0  0  0
  186.8340  177.8800  145.1830 C   0  0  1  0  0  3  0  0  0  0  0  0
  189.7270  177.0070  143.0250 O   0  0  0  0  0  0  0  0  0  0  0  0
  185.7270  178.9530  145.1610 C   0  0  0  0  0  2  0  0  0  0  0  0
  190.9370  176.5420  143.5950 C   0  0  0  0  0  2  0  0  0  0  0  0
  187.6400  177.8210  143.9480 N   0  0  0  0  0  0  0  0  0  0  0  0
  188.8350  176.9820  144.0990 C   0  0  2  0  0  3  0  0  0  0  0  0
  189.6140  177.4450  145.2840 C   0  0  1  0  0  3  0  0  0  0  0  0
  185.6310  177.6210  142.5780 O   0  0  0  0  0  0  0  0  0  0  0  0
  184.6050  178.5270  142.1940 C   0  0  0  0  0  1  0  0  0  0  0  0
  184.4080  176.8020  134.8130 C   0  0  0  0  0  2  0  0  0  0  0  0
  182.4260  177.1660  136.3010 C   0  0  1  0  0  3  0  0  0  0  0  0
  184.2400  177.2470  137.9800 F   0  0  0  0  0  0  0  0  0  0  0  0
  182.9660  177.6790  137.6280 C   0  0  2  0  0  0  0  0  0  0  0  0
  182.4650  172.8380  137.1160 O   0  0  0  0  0  0  0  0  0  0  0  0
  181.2740  174.5880  135.4530 C   0  0  0  0  0  2  0  0  0  0  0  0
  183.3380  176.1170  135.6510 C   0  0  1  0  0  3  0  0  0  0  0  0
  182.2530  175.3180  138.1240 C   0  0  0  0  0  2  0  0  0  0  0  0
  182.5570  175.1100  134.7980 C   0  0  0  0  0  2  0  0  0  0  0  0
  181.5380  174.0200  137.1270 S   0  0  0  0  0  0  0  0  0  0  0  0
  181.8000  176.7000  137.6390 C   0  0  2  0  0  3  0  0  0  0  0  0
  180.2210  173.6110  137.7210 O   0  0  0  0  0  0  0  0  0  0  0  0
  182.6410  179.0230  137.8550 O   0  0  0  0  0  0  0  0  0  0  0  0
  184.1050  180.3040  139.0460 O   0  0  0  0  0  1  0  0  0  0  0  0
  183.1140  179.3270  139.1360 C   0  0  0  0  0  2  0  0  0  0  0  0
  1  2  1  0  0  0  0
  2  3  1  0  0  0  0
  3  6  1  0  0  0  0
  4  8  2  0  0  0  0
  4 15  1  0  0  0  0
  5 14  1  0  0  0  0
  5  2  2  0  0  0  0
  6 17  1  6  0  0  0
  6 10  1  0  0  0  0
  8  5  1  0  0  0  0
  9 11  1  0  0  0  0
 10 12  1  0  0  0  0
 11  3  2  0  0  0  0
 11 13  1  0  0  0  0
 13 12  1  0  0  0  0
 14  7  2  0  0  0  0
 15  1  2  0  0  0  0
 16  9  1  0  0  0  0
 16 14  1  0  0  0  0
 17 18  1  0  0  0  0
 18 20  1  0  0  0  0
 19 32  1  0  0  0  0
 20 19  2  0  0  0  0
 22 21  1  0  0  0  0
 24 34  1  0  0  0  0
 24 27  1  6  0  0  0
 25 22  1  0  0  0  0
 26 23  1  0  0  0  0
 26 21  1  1  0  0  0
 28 30  1  6  0  0  0
 28 26  1  0  0  0  0
 29 31  1  0  0  0  0
 30 25  1  0  0  0  0
 31 24  1  0  0  0  0
 32 33  1  0  0  0  0
 32 28  1  0  0  0  0
 33 29  1  6  0  0  0
 33 34  1  0  0  0  0
 34 23  1  1  0  0  0
 35 19  1  0  0  0  0
 36 35  1  0  0  0  0
 37  4  1  0  0  0  0
 37 43  1  0  0  0  0
 38 40  1  0  0  0  0
 38 47  1  0  0  0  0
 40 47  1  0  0  0  0
 40 49  1  0  0  0  0
 40 39  1  0  0  0  0
 41 46  2  0  0  0  0
 42 46  1  0  0  0  0
 43 38  1  0  0  0  0
 45 42  1  0  0  0  0
 45 43  1  0  0  0  0
 46 48  2  0  0  0  0
 46 44  1  0  0  0  0
 47 44  1  0  0  0  0
 49 51  1  0  0  0  0
 50 51  1  0  0  0  0
M  END
>  <MODEL>
9

>  <REMARK>
 VINA RESULT:      -8.1      1.845      2.980
  Name = 
  9 active torsions:
  status: ('A' for Active; 'I' for Inactive)
    1  A    between atoms: O_1  and  C_18
    2  A    between atoms: C_2  and  C_15
    3  A    between atoms: C_2  and  C_35
    4  A    between atoms: O_8  and  C_12
    5  A    between atoms: O_8  and  C_41
    6  A    between atoms: C_14  and  C_25
    7  A    between atoms: C_15  and  C_17
    8  A    between atoms: C_18  and  N_44
    9  A    between atoms: C_25  and  C_34
                            x       y       z     vdW  Elec       q    Type
                         _______ _______ _______ _____ _____    ______ ____

>  <TORSDO>
F 9

$$$$
