=
 OpenBabel10222416563D

 28 32  0  0  1  0  0  0  0  0999 V2000
  191.9080  176.6570  140.0000 C   0  0  0  0  0  3  0  0  0  0  0  0
  188.3000  177.2840  142.7970 C   0  0  0  0  0  3  0  0  0  0  0  0
  189.6130  175.4710  135.5100 N   0  0  0  0  0  0  0  0  0  0  0  0
  192.3940  177.3500  141.1020 C   0  0  0  0  0  3  0  0  0  0  0  0
  189.6580  176.2240  137.7810 C   0  0  0  0  0  0  0  0  0  0  0  0
  190.1610  177.2800  141.1550 C   0  0  0  0  0  0  0  0  0  0  0  0
  189.5070  177.5550  137.3320 C   0  0  0  0  0  0  0  0  0  0  0  0
  189.7380  175.9140  139.1760 N   0  0  0  0  0  2  0  0  0  0  0  0
  189.7860  173.8310  137.2590 N   0  0  0  0  0  1  0  0  0  0  0  0
  184.4400  178.4360  142.6720 Cl  0  0  0  0  0  0  0  0  0  0  0  0
  186.9770  177.5500  143.1570 C   0  0  0  0  0  3  0  0  0  0  0  0
  189.4540  177.8090  135.9580 C   0  0  0  0  0  3  0  0  0  0  0  0
  189.5120  176.7480  135.0550 C   0  0  0  0  0  3  0  0  0  0  0  0
  187.8620  178.1190  140.5580 C   0  0  0  0  0  0  0  0  0  0  0  0
  188.7520  177.5540  141.4990 C   0  0  0  0  0  0  0  0  0  0  0  0
  189.3800  178.7140  138.2820 C   0  0  2  0  0  3  0  0  0  0  0  0
  190.5630  176.6370  140.0480 N   0  0  0  0  0  0  0  0  0  0  0  0
  188.2960  178.4780  139.2450 N   0  0  0  0  0  0  0  0  0  0  0  0
  188.2270  179.2970  138.1100 O   0  0  0  0  0  0  0  0  0  0  0  0
  189.6750  175.1870  136.8380 C   0  0  0  0  0  0  0  0  0  0  0  0
  186.0970  178.0990  142.2210 C   0  0  0  0  0  0  0  0  0  0  0  0
  191.2770  177.7410  141.8230 C   0  0  0  0  0  0  0  0  0  0  0  0
  186.5410  178.3890  140.9290 C   0  0  0  0  0  3  0  0  0  0  0  0
  191.3020  178.5240  143.0910 C   0  0  0  0  0  2  0  0  0  0  0  0
  191.5440  176.6300  146.4550 C   0  0  0  0  0  1  0  0  0  0  0  0
  189.9110  178.0890  145.5320 O   0  0  0  0  0  0  0  0  0  0  0  0
  191.0180  177.5060  145.3780 C   0  0  0  0  0  0  0  0  0  0  0  0
  191.7700  177.6790  144.1770 N   0  0  0  0  0  2  0  0  0  0  0  0
  1 17  1  0  0  0  0
  1  4  2  0  0  0  0
  2 11  1  0  0  0  0
  3 20  1  0  0  0  0
  4 22  1  0  0  0  0
  5  8  1  0  0  0  0
  6 15  1  0  0  0  0
  6 22  2  0  0  0  0
  7  5  1  0  0  0  0
  8 17  1  0  0  0  0
 12  7  2  0  0  0  0
 13  3  2  0  0  0  0
 13 12  1  0  0  0  0
 14 23  2  0  0  0  0
 14 15  1  0  0  0  0
 15  2  2  0  0  0  0
 16  7  1  6  0  0  0
 16 18  1  0  0  0  0
 17  6  1  0  0  0  0
 18 14  1  0  0  0  0
 19 16  1  0  0  0  0
 19 18  1  0  0  0  0
 20  9  1  0  0  0  0
 20  5  2  0  0  0  0
 21 10  1  0  0  0  0
 21 11  2  0  0  0  0
 22 24  1  0  0  0  0
 23 21  1  0  0  0  0
 24 28  1  0  0  0  0
 27 26  2  0  0  0  0
 27 25  1  0  0  0  0
 28 27  1  0  0  0  0
M  END
>  <MODEL>
1

>  <REMARK>
 VINA RESULT:      -7.6      0.000      0.000
  Name = 
  2 active torsions:
  status: ('A' for Active; 'I' for Inactive)
    1  A    between atoms: C_18  and  C_26
    2  A    between atoms: C_18  and  N_28
                            x       y       z     vdW  Elec       q    Type
                         _______ _______ _______ _____ _____    ______ ____

>  <TORSDO>
F 2

$$$$
=
 OpenBabel10222416563D

 28 32  0  0  1  0  0  0  0  0999 V2000
  184.4470  179.2580  141.8120 C   0  0  0  0  0  3  0  0  0  0  0  0
  188.4220  178.6280  139.5670 C   0  0  0  0  0  3  0  0  0  0  0  0
  181.1580  180.2700  137.9400 N   0  0  0  0  0  0  0  0  0  0  0  0
  185.2920  178.6050  142.7030 C   0  0  0  0  0  3  0  0  0  0  0  0
  183.2520  179.5800  138.8730 C   0  0  0  0  0  0  0  0  0  0  0  0
  186.1940  178.6280  140.6580 C   0  0  0  0  0  0  0  0  0  0  0  0
  182.9170  178.2340  138.6030 C   0  0  0  0  0  0  0  0  0  0  0  0
  184.5050  179.9290  139.4700 N   0  0  0  0  0  2  0  0  0  0  0  0
  182.6800  181.9600  138.7180 N   0  0  0  0  0  1  0  0  0  0  0  0
  189.8040  177.3880  135.9900 Cl  0  0  0  0  0  0  0  0  0  0  0  0
  189.2660  178.3420  138.4910 C   0  0  0  0  0  3  0  0  0  0  0  0
  181.6720  177.9420  138.0370 C   0  0  0  0  0  3  0  0  0  0  0  0
  180.7980  178.9800  137.7130 C   0  0  0  0  0  3  0  0  0  0  0  0
  186.5360  177.7220  138.3330 C   0  0  0  0  0  0  0  0  0  0  0  0
  187.0550  178.3320  139.4970 C   0  0  0  0  0  0  0  0  0  0  0  0
  183.8630  177.1000  138.8840 C   0  0  2  0  0  3  0  0  0  0  0  0
  185.0070  179.2490  140.5880 N   0  0  0  0  0  0  0  0  0  0  0  0
  185.1630  177.3380  138.2430 N   0  0  0  0  0  0  0  0  0  0  0  0
  184.1550  176.4870  137.7710 O   0  0  0  0  0  0  0  0  0  0  0  0
  182.3570  180.5910  138.4960 C   0  0  0  0  0  0  0  0  0  0  0  0
  188.7470  177.7490  137.3380 C   0  0  0  0  0  0  0  0  0  0  0  0
  186.3910  178.2090  141.9590 C   0  0  0  0  0  0  0  0  0  0  0  0
  187.3890  177.4340  137.2630 C   0  0  0  0  0  3  0  0  0  0  0  0
  187.5670  177.4620  142.4900 C   0  0  0  0  0  2  0  0  0  0  0  0
  188.2400  177.5030  146.2990 C   0  0  0  0  0  1  0  0  0  0  0  0
  189.4960  178.2470  144.4230 O   0  0  0  0  0  0  0  0  0  0  0  0
  188.4380  177.7060  144.8410 C   0  0  0  0  0  0  0  0  0  0  0  0
  187.4250  177.2870  143.9260 N   0  0  0  0  0  2  0  0  0  0  0  0
  1  4  2  0  0  0  0
  3 20  1  0  0  0  0
  5  8  1  0  0  0  0
  6 22  2  0  0  0  0
  7  5  1  0  0  0  0
  7 16  1  0  0  0  0
  8 17  1  0  0  0  0
 10 21  1  0  0  0  0
 11  2  2  0  0  0  0
 12  7  2  0  0  0  0
 13  3  2  0  0  0  0
 13 12  1  0  0  0  0
 14 15  2  0  0  0  0
 15  2  1  0  0  0  0
 15  6  1  0  0  0  0
 16 19  1  6  0  0  0
 17  6  1  0  0  0  0
 17  1  1  0  0  0  0
 18 14  1  0  0  0  0
 18 16  1  0  0  0  0
 19 18  1  0  0  0  0
 20  9  1  0  0  0  0
 20  5  2  0  0  0  0
 21 11  1  0  0  0  0
 22 24  1  0  0  0  0
 22  4  1  0  0  0  0
 23 21  2  0  0  0  0
 23 14  1  0  0  0  0
 24 28  1  0  0  0  0
 26 27  2  0  0  0  0
 27 25  1  0  0  0  0
 28 27  1  0  0  0  0
M  END
>  <MODEL>
2

>  <REMARK>
 VINA RESULT:      -6.8      4.002      6.267
  Name = 
  2 active torsions:
  status: ('A' for Active; 'I' for Inactive)
    1  A    between atoms: C_18  and  C_26
    2  A    between atoms: C_18  and  N_28
                            x       y       z     vdW  Elec       q    Type
                         _______ _______ _______ _____ _____    ______ ____

>  <TORSDO>
F 2

$$$$
=
 OpenBabel10222416563D

 28 32  0  0  1  0  0  0  0  0999 V2000
  182.0330  175.9130  138.7600 C   0  0  0  0  0  3  0  0  0  0  0  0
  179.6030  179.7850  138.1800 C   0  0  0  0  0  3  0  0  0  0  0  0
  186.4690  177.0370  136.3320 N   0  0  0  0  0  0  0  0  0  0  0  0
  181.0040  175.8630  139.6930 C   0  0  0  0  0  3  0  0  0  0  0  0
  184.3220  177.5500  137.2590 C   0  0  0  0  0  0  0  0  0  0  0  0
  181.0960  177.8880  138.7510 C   0  0  0  0  0  0  0  0  0  0  0  0
  184.9570  178.1460  138.3720 C   0  0  0  0  0  0  0  0  0  0  0  0
  182.8960  177.5200  137.1440 N   0  0  0  0  0  2  0  0  0  0  0  0
  184.5050  176.4520  135.0730 N   0  0  0  0  0  1  0  0  0  0  0  0
  180.1480  183.7480  137.6950 Cl  0  0  0  0  0  0  0  0  0  0  0  0
  179.3740  181.1410  137.9360 C   0  0  0  0  0  3  0  0  0  0  0  0
  186.3540  178.1320  138.4480 C   0  0  0  0  0  3  0  0  0  0  0  0
  187.0980  177.5660  137.4130 C   0  0  0  0  0  3  0  0  0  0  0  0
  181.9590  180.2460  138.5520 C   0  0  0  0  0  0  0  0  0  0  0  0
  180.8910  179.3230  138.4790 C   0  0  0  0  0  0  0  0  0  0  0  0
  184.1840  178.8180  139.4720 C   0  0  2  0  0  3  0  0  0  0  0  0
  182.0750  177.1430  138.2150 N   0  0  0  0  0  0  0  0  0  0  0  0
  183.2750  179.8330  138.9220 N   0  0  0  0  0  0  0  0  0  0  0  0
  184.5130  180.0780  139.5330 O   0  0  0  0  0  0  0  0  0  0  0  0
  185.1130  177.0260  136.2260 C   0  0  0  0  0  0  0  0  0  0  0  0
  180.4340  182.0490  137.9980 C   0  0  0  0  0  0  0  0  0  0  0  0
  180.4220  177.1200  139.6790 C   0  0  0  0  0  0  0  0  0  0  0  0
  181.7200  181.6020  138.3120 C   0  0  0  0  0  3  0  0  0  0  0  0
  179.2720  177.5460  140.5280 C   0  0  0  0  0  2  0  0  0  0  0  0
  180.6160  178.5850  144.0030 C   0  0  0  0  0  1  0  0  0  0  0  0
  180.4160  179.7360  141.9330 O   0  0  0  0  0  0  0  0  0  0  0  0
  180.2350  178.6630  142.5690 C   0  0  0  0  0  0  0  0  0  0  0  0
  179.6640  177.5230  141.9270 N   0  0  0  0  0  2  0  0  0  0  0  0
  1  4  2  0  0  0  0
  2 15  1  0  0  0  0
  3 13  1  0  0  0  0
  5  7  2  0  0  0  0
  6 22  2  0  0  0  0
  7 12  1  0  0  0  0
  8  5  1  0  0  0  0
  8 17  1  0  0  0  0
  9 20  1  0  0  0  0
 10 21  1  0  0  0  0
 11 21  1  0  0  0  0
 11  2  2  0  0  0  0
 13 12  2  0  0  0  0
 14 18  1  0  0  0  0
 15 14  2  0  0  0  0
 15  6  1  0  0  0  0
 16  7  1  6  0  0  0
 16 19  1  0  0  0  0
 17  6  1  0  0  0  0
 17  1  1  0  0  0  0
 18 16  1  0  0  0  0
 18 19  1  0  0  0  0
 20  3  2  0  0  0  0
 20  5  1  0  0  0  0
 21 23  2  0  0  0  0
 22  4  1  0  0  0  0
 22 24  1  0  0  0  0
 23 14  1  0  0  0  0
 24 28  1  0  0  0  0
 26 27  2  0  0  0  0
 27 25  1  0  0  0  0
 28 27  1  0  0  0  0
M  END
>  <MODEL>
3

>  <REMARK>
 VINA RESULT:      -6.4      6.013      8.375
  Name = 
  2 active torsions:
  status: ('A' for Active; 'I' for Inactive)
    1  A    between atoms: C_18  and  C_26
    2  A    between atoms: C_18  and  N_28
                            x       y       z     vdW  Elec       q    Type
                         _______ _______ _______ _____ _____    ______ ____

>  <TORSDO>
F 2

$$$$
=
 OpenBabel10222416563D

 28 32  0  0  1  0  0  0  0  0999 V2000
  188.0680  177.8890  138.8760 C   0  0  0  0  0  3  0  0  0  0  0  0
  192.4120  176.6720  137.9340 C   0  0  0  0  0  3  0  0  0  0  0  0
  185.5420  176.2600  134.6570 N   0  0  0  0  0  0  0  0  0  0  0  0
  188.7470  177.9230  140.0880 C   0  0  0  0  0  3  0  0  0  0  0  0
  187.4410  176.4440  136.1020 C   0  0  0  0  0  0  0  0  0  0  0  0
  190.0190  176.9700  138.5160 C   0  0  0  0  0  0  0  0  0  0  0  0
  187.2020  175.1310  136.5670 C   0  0  0  0  0  0  0  0  0  0  0  0
  188.5480  177.2130  136.5830 N   0  0  0  0  0  2  0  0  0  0  0  0
  186.8400  178.2830  134.5940 N   0  0  0  0  0  1  0  0  0  0  0  0
  194.4790  173.9070  135.8550 Cl  0  0  0  0  0  0  0  0  0  0  0  0
  193.4510  175.9680  137.3220 C   0  0  0  0  0  3  0  0  0  0  0  0
  186.0950  174.4280  136.0810 C   0  0  0  0  0  3  0  0  0  0  0  0
  185.2690  175.0130  135.1220 C   0  0  0  0  0  3  0  0  0  0  0  0
  190.8190  175.0180  137.1400 C   0  0  0  0  0  0  0  0  0  0  0  0
  191.0920  176.2140  137.8420 C   0  0  0  0  0  0  0  0  0  0  0  0
  188.1100  174.4510  137.5530 C   0  0  2  0  0  3  0  0  0  0  0  0
  188.8490  177.3020  137.9490 N   0  0  0  0  0  0  0  0  0  0  0  0
  189.5000  174.4740  137.0790 N   0  0  0  0  0  0  0  0  0  0  0  0
  188.6240  173.3830  137.0100 O   0  0  0  0  0  0  0  0  0  0  0  0
  186.6040  176.9770  135.1120 C   0  0  0  0  0  0  0  0  0  0  0  0
  193.1770  174.7920  136.6200 C   0  0  0  0  0  0  0  0  0  0  0  0
  189.9790  177.3360  139.8460 C   0  0  0  0  0  0  0  0  0  0  0  0
  191.8670  174.3160  136.5360 C   0  0  0  0  0  3  0  0  0  0  0  0
  191.0540  177.1420  140.8610 C   0  0  0  0  0  2  0  0  0  0  0  0
  189.6410  176.8820  144.4520 C   0  0  0  0  0  1  0  0  0  0  0  0
  190.2340  175.2560  142.8230 O   0  0  0  0  0  0  0  0  0  0  0  0
  190.1520  176.4790  143.1170 C   0  0  0  0  0  0  0  0  0  0  0  0
  190.5460  177.4810  142.1800 N   0  0  0  0  0  2  0  0  0  0  0  0
  1  4  2  0  0  0  0
  3 20  2  0  0  0  0
  3 13  1  0  0  0  0
  5  7  2  0  0  0  0
  5  8  1  0  0  0  0
  6 22  2  0  0  0  0
  8 17  1  0  0  0  0
  9 20  1  0  0  0  0
 10 21  1  0  0  0  0
 11  2  2  0  0  0  0
 12  7  1  0  0  0  0
 13 12  2  0  0  0  0
 14 15  2  0  0  0  0
 15  2  1  0  0  0  0
 15  6  1  0  0  0  0
 16  7  1  6  0  0  0
 17  6  1  0  0  0  0
 17  1  1  0  0  0  0
 18 14  1  0  0  0  0
 18 16  1  0  0  0  0
 19 18  1  0  0  0  0
 19 16  1  0  0  0  0
 20  5  1  0  0  0  0
 21 11  1  0  0  0  0
 22  4  1  0  0  0  0
 22 24  1  0  0  0  0
 23 21  2  0  0  0  0
 23 14  1  0  0  0  0
 24 28  1  0  0  0  0
 26 27  2  0  0  0  0
 27 25  1  0  0  0  0
 28 27  1  0  0  0  0
M  END
>  <MODEL>
4

>  <REMARK>
 VINA RESULT:      -6.1      3.675      5.382
  Name = 
  2 active torsions:
  status: ('A' for Active; 'I' for Inactive)
    1  A    between atoms: C_18  and  C_26
    2  A    between atoms: C_18  and  N_28
                            x       y       z     vdW  Elec       q    Type
                         _______ _______ _______ _____ _____    ______ ____

>  <TORSDO>
F 2

$$$$
=
 OpenBabel10222416563D

 28 32  0  0  1  0  0  0  0  0999 V2000
  189.7700  178.2560  140.2630 C   0  0  0  0  0  3  0  0  0  0  0  0
  185.4120  179.3460  141.2910 C   0  0  0  0  0  3  0  0  0  0  0  0
  191.9420  177.9110  144.9530 N   0  0  0  0  0  0  0  0  0  0  0  0
  189.0270  177.9880  139.1180 C   0  0  0  0  0  3  0  0  0  0  0  0
  190.1050  178.1180  143.4310 C   0  0  0  0  0  0  0  0  0  0  0  0
  187.6670  178.4160  140.8400 C   0  0  0  0  0  0  0  0  0  0  0  0
  189.7880  176.7580  143.6460 C   0  0  0  0  0  0  0  0  0  0  0  0
  189.3200  178.9370  142.5600 N   0  0  0  0  0  2  0  0  0  0  0  0
  191.5040  180.0600  143.9680 N   0  0  0  0  0  1  0  0  0  0  0  0
  182.6980  178.8460  144.2280 Cl  0  0  0  0  0  0  0  0  0  0  0  0
  184.2570  179.4500  142.0690 C   0  0  0  0  0  3  0  0  0  0  0  0
  190.5990  175.9940  144.4920 C   0  0  0  0  0  3  0  0  0  0  0  0
  191.6810  176.5910  145.1390 C   0  0  0  0  0  3  0  0  0  0  0  0
  186.3490  177.7730  142.8870 C   0  0  0  0  0  0  0  0  0  0  0  0
  186.4690  178.5190  141.6940 C   0  0  0  0  0  0  0  0  0  0  0  0
  188.5930  176.1030  143.0110 C   0  0  2  0  0  3  0  0  0  0  0  0
  188.9300  178.5000  141.2860 N   0  0  0  0  0  0  0  0  0  0  0  0
  187.3700  176.8630  143.3020 N   0  0  0  0  0  0  0  0  0  0  0  0
  187.7790  175.6840  143.9390 O   0  0  0  0  0  0  0  0  0  0  0  0
  191.1810  178.6830  144.1320 C   0  0  0  0  0  0  0  0  0  0  0  0
  184.1460  178.7180  143.2540 C   0  0  0  0  0  0  0  0  0  0  0  0
  187.6990  178.0900  139.4990 C   0  0  0  0  0  0  0  0  0  0  0  0
  185.1860  177.8780  143.6570 C   0  0  0  0  0  3  0  0  0  0  0  0
  186.5280  177.8780  138.6020 C   0  0  0  0  0  2  0  0  0  0  0  0
  187.1920  177.9100  134.7910 C   0  0  0  0  0  1  0  0  0  0  0  0
  186.5370  176.2010  136.3070 O   0  0  0  0  0  0  0  0  0  0  0  0
  186.8440  177.4120  136.1470 C   0  0  0  0  0  0  0  0  0  0  0  0
  186.8600  178.3120  137.2550 N   0  0  0  0  0  2  0  0  0  0  0  0
  1 17  1  0  0  0  0
  2 15  2  0  0  0  0
  2 11  1  0  0  0  0
  3 13  1  0  0  0  0
  4 22  1  0  0  0  0
  4  1  2  0  0  0  0
  5  7  2  0  0  0  0
  5 20  1  0  0  0  0
  6 17  1  0  0  0  0
  6 15  1  0  0  0  0
  7 12  1  0  0  0  0
  8  5  1  0  0  0  0
  9 20  1  0  0  0  0
 11 21  2  0  0  0  0
 12 13  2  0  0  0  0
 14 18  1  0  0  0  0
 14 23  2  0  0  0  0
 15 14  1  0  0  0  0
 16 18  1  0  0  0  0
 16  7  1  1  0  0  0
 16 19  1  0  0  0  0
 17  8  1  0  0  0  0
 18 19  1  0  0  0  0
 20  3  2  0  0  0  0
 21 23  1  0  0  0  0
 21 10  1  0  0  0  0
 22  6  2  0  0  0  0
 24 22  1  0  0  0  0
 25 27  1  0  0  0  0
 27 26  2  0  0  0  0
 27 28  1  0  0  0  0
 28 24  1  0  0  0  0
M  END
>  <MODEL>
5

>  <REMARK>
 VINA RESULT:      -6.1      2.499      6.617
  Name = 
  2 active torsions:
  status: ('A' for Active; 'I' for Inactive)
    1  A    between atoms: C_18  and  C_26
    2  A    between atoms: C_18  and  N_28
                            x       y       z     vdW  Elec       q    Type
                         _______ _______ _______ _____ _____    ______ ____

>  <TORSDO>
F 2

$$$$
=
 OpenBabel10222416563D

 28 32  0  0  1  0  0  0  0  0999 V2000
  184.3770  178.2140  138.4660 C   0  0  0  0  0  3  0  0  0  0  0  0
  182.3190  178.3680  142.5860 C   0  0  0  0  0  3  0  0  0  0  0  0
  180.3340  178.1750  135.2280 N   0  0  0  0  0  0  0  0  0  0  0  0
  185.3550  178.6190  139.3680 C   0  0  0  0  0  3  0  0  0  0  0  0
  181.3890  178.3970  137.3650 C   0  0  0  0  0  0  0  0  0  0  0  0
  183.3440  178.6440  140.3430 C   0  0  0  0  0  0  0  0  0  0  0  0
  181.2550  179.8000  137.2750 C   0  0  0  0  0  0  0  0  0  0  0  0
  181.9790  177.7790  138.5130 N   0  0  0  0  0  2  0  0  0  0  0  0
  180.9690  176.1780  136.4070 N   0  0  0  0  0  1  0  0  0  0  0  0
  178.9310  179.7010  144.3140 Cl  0  0  0  0  0  0  0  0  0  0  0  0
  181.3010  178.6100  143.5120 C   0  0  0  0  0  3  0  0  0  0  0  0
  180.6890  180.3580  136.1230 C   0  0  0  0  0  3  0  0  0  0  0  0
  180.2340  179.5240  135.1020 C   0  0  0  0  0  3  0  0  0  0  0  0
  181.1370  179.7040  140.9360 C   0  0  0  0  0  0  0  0  0  0  0  0
  182.2440  178.9010  141.2930 C   0  0  0  0  0  0  0  0  0  0  0  0
  181.6790  180.7210  138.3850 C   0  0  2  0  0  3  0  0  0  0  0  0
  183.1760  178.2470  139.0720 N   0  0  0  0  0  0  0  0  0  0  0  0
  181.0510  180.3270  139.6540 N   0  0  0  0  0  0  0  0  0  0  0  0
  180.6450  181.3820  138.8260 O   0  0  0  0  0  0  0  0  0  0  0  0
  180.8850  177.5980  136.3300 C   0  0  0  0  0  0  0  0  0  0  0  0
  180.2040  179.3950  143.1530 C   0  0  0  0  0  0  0  0  0  0  0  0
  184.6860  178.8910  140.5500 C   0  0  0  0  0  0  0  0  0  0  0  0
  180.1270  179.9460  141.8720 C   0  0  0  0  0  3  0  0  0  0  0  0
  185.3240  179.3670  141.8100 C   0  0  0  0  0  2  0  0  0  0  0  0
  187.7900  176.7390  143.2150 C   0  0  0  0  0  1  0  0  0  0  0  0
  188.0590  178.5950  141.7550 O   0  0  0  0  0  0  0  0  0  0  0  0
  187.2710  177.9060  142.4570 C   0  0  0  0  0  0  0  0  0  0  0  0
  185.8840  178.2360  142.5310 N   0  0  0  0  0  2  0  0  0  0  0  0
  1 17  1  0  0  0  0
  1  4  2  0  0  0  0
  2 11  1  0  0  0  0
  3 20  1  0  0  0  0
  4 22  1  0  0  0  0
  5  8  1  0  0  0  0
  6 22  2  0  0  0  0
  6 15  1  0  0  0  0
  7  5  1  0  0  0  0
  8 17  1  0  0  0  0
 12  7  2  0  0  0  0
 13  3  2  0  0  0  0
 13 12  1  0  0  0  0
 14 15  1  0  0  0  0
 14 23  2  0  0  0  0
 15  2  2  0  0  0  0
 16  7  1  6  0  0  0
 16 19  1  0  0  0  0
 16 18  1  0  0  0  0
 17  6  1  0  0  0  0
 18 14  1  0  0  0  0
 19 18  1  0  0  0  0
 20  9  1  0  0  0  0
 20  5  2  0  0  0  0
 21 11  2  0  0  0  0
 21 10  1  0  0  0  0
 22 24  1  0  0  0  0
 23 21  1  0  0  0  0
 24 28  1  0  0  0  0
 26 27  2  0  0  0  0
 27 28  1  0  0  0  0
 27 25  1  0  0  0  0
M  END
>  <MODEL>
6

>  <REMARK>
 VINA RESULT:      -5.9      5.668      7.366
  Name = 
  2 active torsions:
  status: ('A' for Active; 'I' for Inactive)
    1  A    between atoms: C_18  and  C_26
    2  A    between atoms: C_18  and  N_28
                            x       y       z     vdW  Elec       q    Type
                         _______ _______ _______ _____ _____    ______ ____

>  <TORSDO>
F 2

$$$$
=
 OpenBabel10222416563D

 28 32  0  0  1  0  0  0  0  0999 V2000
  182.6710  176.3300  139.7860 C   0  0  0  0  0  3  0  0  0  0  0  0
  181.1710  179.7560  137.0940 C   0  0  0  0  0  3  0  0  0  0  0  0
  184.6580  178.9030  143.8190 N   0  0  0  0  0  0  0  0  0  0  0  0
  181.7860  175.7500  138.8840 C   0  0  0  0  0  3  0  0  0  0  0  0
  183.4210  178.7040  141.7790 C   0  0  0  0  0  0  0  0  0  0  0  0
  181.6790  177.9780  138.7480 C   0  0  0  0  0  0  0  0  0  0  0  0
  182.2170  178.7880  142.5130 C   0  0  0  0  0  0  0  0  0  0  0  0
  183.4170  178.5800  140.3540 N   0  0  0  0  0  2  0  0  0  0  0  0
  185.8740  178.7550  141.7500 N   0  0  0  0  0  1  0  0  0  0  0  0
  179.7950  183.5350  137.3580 Cl  0  0  0  0  0  0  0  0  0  0  0  0
  180.7340  181.0410  136.7640 C   0  0  0  0  0  3  0  0  0  0  0  0
  182.2730  178.8890  143.9070 C   0  0  0  0  0  3  0  0  0  0  0  0
  183.5110  178.9420  144.5480 C   0  0  0  0  0  3  0  0  0  0  0  0
  180.8270  180.2420  139.4490 C   0  0  0  0  0  0  0  0  0  0  0  0
  181.2310  179.3480  138.4330 C   0  0  0  0  0  0  0  0  0  0  0  0
  180.8690  178.7960  141.8460 C   0  0  2  0  0  3  0  0  0  0  0  0
  182.5800  177.6700  139.6930 N   0  0  0  0  0  0  0  0  0  0  0  0
  180.8040  179.8480  140.8220 N   0  0  0  0  0  0  0  0  0  0  0  0
  180.2560  179.9160  142.1100 O   0  0  0  0  0  0  0  0  0  0  0  0
  184.6410  178.7980  142.4630 C   0  0  0  0  0  0  0  0  0  0  0  0
  180.3450  181.9260  137.7720 C   0  0  0  0  0  0  0  0  0  0  0  0
  181.1630  176.8040  138.2370 C   0  0  0  0  0  0  0  0  0  0  0  0
  180.3850  181.5240  139.1090 C   0  0  0  0  0  3  0  0  0  0  0  0
  180.1210  176.6700  137.1800 C   0  0  0  0  0  2  0  0  0  0  0  0
  180.4120  173.4420  135.0700 C   0  0  0  0  0  1  0  0  0  0  0  0
  178.9950  174.0790  136.8680 O   0  0  0  0  0  0  0  0  0  0  0  0
  179.9360  174.4050  136.0960 C   0  0  0  0  0  0  0  0  0  0  0  0
  180.5480  175.6900  136.1950 N   0  0  0  0  0  2  0  0  0  0  0  0
  2 15  1  0  0  0  0
  3 13  1  0  0  0  0
  4  1  2  0  0  0  0
  5 20  1  0  0  0  0
  5  7  2  0  0  0  0
  6 17  1  0  0  0  0
  7 12  1  0  0  0  0
  8  5  1  0  0  0  0
  9 20  1  0  0  0  0
 10 21  1  0  0  0  0
 11  2  2  0  0  0  0
 11 21  1  0  0  0  0
 12 13  2  0  0  0  0
 14 18  1  0  0  0  0
 15  6  1  0  0  0  0
 15 14  2  0  0  0  0
 16 19  1  1  0  0  0
 16  7  1  0  0  0  0
 17  1  1  0  0  0  0
 17  8  1  0  0  0  0
 18 16  1  0  0  0  0
 18 19  1  0  0  0  0
 20  3  2  0  0  0  0
 21 23  2  0  0  0  0
 22  6  2  0  0  0  0
 22  4  1  0  0  0  0
 23 14  1  0  0  0  0
 24 22  1  0  0  0  0
 25 27  1  0  0  0  0
 27 28  1  0  0  0  0
 27 26  2  0  0  0  0
 28 24  1  0  0  0  0
M  END
>  <MODEL>
7

>  <REMARK>
 VINA RESULT:      -5.9      6.744     10.200
  Name = 
  2 active torsions:
  status: ('A' for Active; 'I' for Inactive)
    1  A    between atoms: C_18  and  C_26
    2  A    between atoms: C_18  and  N_28
                            x       y       z     vdW  Elec       q    Type
                         _______ _______ _______ _____ _____    ______ ____

>  <TORSDO>
F 2

$$$$
=
 OpenBabel10222416563D

 28 32  0  0  1  0  0  0  0  0999 V2000
  184.0750  179.3230  141.8280 C   0  0  0  0  0  3  0  0  0  0  0  0
  186.7920  178.6270  138.1720 C   0  0  0  0  0  3  0  0  0  0  0  0
  179.3440  179.0990  139.7280 N   0  0  0  0  0  0  0  0  0  0  0  0
  185.3210  178.9770  142.3370 C   0  0  0  0  0  3  0  0  0  0  0  0
  181.7260  178.8560  139.7210 C   0  0  0  0  0  0  0  0  0  0  0  0
  185.2670  178.6380  140.1280 C   0  0  0  0  0  0  0  0  0  0  0  0
  181.5730  177.4560  139.8420 C   0  0  0  0  0  0  0  0  0  0  0  0
  183.0210  179.4580  139.6340 N   0  0  0  0  0  2  0  0  0  0  0  0
  180.6980  181.0690  139.4730 N   0  0  0  0  0  1  0  0  0  0  0  0
  186.7660  176.7720  134.5940 Cl  0  0  0  0  0  0  0  0  0  0  0  0
  187.1470  178.1980  136.8910 C   0  0  0  0  0  3  0  0  0  0  0  0
  180.2870  176.9170  139.9440 C   0  0  0  0  0  3  0  0  0  0  0  0
  179.1770  177.7600  139.8880 C   0  0  0  0  0  3  0  0  0  0  0  0
  184.7750  177.2770  138.0670 C   0  0  0  0  0  0  0  0  0  0  0  0
  185.6040  178.1820  138.7670 C   0  0  0  0  0  0  0  0  0  0  0  0
  182.7480  176.5180  139.8420 C   0  0  2  0  0  3  0  0  0  0  0  0
  184.0630  179.1000  140.5010 N   0  0  0  0  0  0  0  0  0  0  0  0
  183.5910  176.7420  138.6600 N   0  0  0  0  0  0  0  0  0  0  0  0
  182.6610  175.7060  138.8260 O   0  0  0  0  0  0  0  0  0  0  0  0
  180.5800  179.6590  139.6330 C   0  0  0  0  0  0  0  0  0  0  0  0
  186.3200  177.3120  136.1980 C   0  0  0  0  0  0  0  0  0  0  0  0
  186.0640  178.5430  141.2510 C   0  0  0  0  0  0  0  0  0  0  0  0
  185.1420  176.8480  136.7880 C   0  0  0  0  0  3  0  0  0  0  0  0
  187.4730  178.0600  141.3100 C   0  0  0  0  0  2  0  0  0  0  0  0
  188.7570  177.4560  144.9080 C   0  0  0  0  0  1  0  0  0  0  0  0
  187.9330  176.0030  143.2170 O   0  0  0  0  0  0  0  0  0  0  0  0
  188.2100  177.1850  143.5540 C   0  0  0  0  0  0  0  0  0  0  0  0
  188.0050  178.2680  142.6460 N   0  0  0  0  0  2  0  0  0  0  0  0
  1  4  2  0  0  0  0
  2 15  1  0  0  0  0
  3 13  1  0  0  0  0
  5  7  2  0  0  0  0
  6 17  1  0  0  0  0
  6 22  2  0  0  0  0
  7 12  1  0  0  0  0
  8  5  1  0  0  0  0
  8 17  1  0  0  0  0
  9 20  1  0  0  0  0
 10 21  1  0  0  0  0
 11  2  2  0  0  0  0
 13 12  2  0  0  0  0
 14 18  1  0  0  0  0
 14 15  2  0  0  0  0
 15  6  1  0  0  0  0
 16 19  1  6  0  0  0
 16  7  1  0  0  0  0
 17  1  1  0  0  0  0
 18 19  1  0  0  0  0
 18 16  1  0  0  0  0
 20  5  1  0  0  0  0
 20  3  2  0  0  0  0
 21 23  2  0  0  0  0
 21 11  1  0  0  0  0
 22 24  1  0  0  0  0
 22  4  1  0  0  0  0
 23 14  1  0  0  0  0
 24 28  1  0  0  0  0
 26 27  2  0  0  0  0
 27 25  1  0  0  0  0
 28 27  1  0  0  0  0
M  END
>  <MODEL>
8

>  <REMARK>
 VINA RESULT:      -5.8      4.791      7.251
  Name = 
  2 active torsions:
  status: ('A' for Active; 'I' for Inactive)
    1  A    between atoms: C_18  and  C_26
    2  A    between atoms: C_18  and  N_28
                            x       y       z     vdW  Elec       q    Type
                         _______ _______ _______ _____ _____    ______ ____

>  <TORSDO>
F 2

$$$$
=
 OpenBabel10222416563D

 28 32  0  0  1  0  0  0  0  0999 V2000
  188.3110  178.1600  139.5150 C   0  0  0  0  0  3  0  0  0  0  0  0
  190.0120  174.9230  136.7110 C   0  0  0  0  0  3  0  0  0  0  0  0
  190.4750  176.9160  144.0540 N   0  0  0  0  0  0  0  0  0  0  0  0
  188.1110  178.6290  138.2220 C   0  0  0  0  0  3  0  0  0  0  0  0
  190.1810  176.7560  141.6840 C   0  0  0  0  0  0  0  0  0  0  0  0
  189.4290  176.8240  138.1940 C   0  0  0  0  0  0  0  0  0  0  0  0
  191.3660  177.5030  141.4970 C   0  0  0  0  0  0  0  0  0  0  0  0
  189.4260  176.2670  140.5710 N   0  0  0  0  0  2  0  0  0  0  0  0
  188.6050  175.6620  143.2120 N   0  0  0  0  0  1  0  0  0  0  0  0
  193.2600  172.5740  136.2930 Cl  0  0  0  0  0  0  0  0  0  0  0  0
  190.8950  173.9370  136.2630 C   0  0  0  0  0  3  0  0  0  0  0  0
  192.0570  177.9760  142.6170 C   0  0  0  0  0  3  0  0  0  0  0  0
  191.5920  177.6730  143.8960 C   0  0  0  0  0  3  0  0  0  0  0  0
  191.6540  175.6530  138.3460 C   0  0  0  0  0  0  0  0  0  0  0  0
  190.3760  175.7800  137.7570 C   0  0  0  0  0  0  0  0  0  0  0  0
  191.9250  177.7920  140.1310 C   0  0  2  0  0  3  0  0  0  0  0  0
  189.1150  177.0810  139.4730 N   0  0  0  0  0  0  0  0  0  0  0  0
  192.0960  176.5490  139.3670 N   0  0  0  0  0  0  0  0  0  0  0  0
  193.1100  177.2600  140.0220 O   0  0  0  0  0  0  0  0  0  0  0  0
  189.7720  176.4460  142.9890 C   0  0  0  0  0  0  0  0  0  0  0  0
  192.1530  173.8070  136.8550 C   0  0  0  0  0  0  0  0  0  0  0  0
  188.8260  177.7760  137.3970 C   0  0  0  0  0  0  0  0  0  0  0  0
  192.5330  174.6670  137.8870 C   0  0  0  0  0  3  0  0  0  0  0  0
  188.9160  177.8890  135.9130 C   0  0  0  0  0  2  0  0  0  0  0  0
  185.3330  177.2610  134.5990 C   0  0  0  0  0  1  0  0  0  0  0  0
  187.0070  175.8270  135.4880 O   0  0  0  0  0  0  0  0  0  0  0  0
  186.6790  177.0020  135.1710 C   0  0  0  0  0  0  0  0  0  0  0  0
  187.5880  178.0860  135.3570 N   0  0  0  0  0  2  0  0  0  0  0  0
  2 15  1  0  0  0  0
  4  1  2  0  0  0  0
  5 20  1  0  0  0  0
  6 17  1  0  0  0  0
  7  5  2  0  0  0  0
  7 12  1  0  0  0  0
  8  5  1  0  0  0  0
 10 21  1  0  0  0  0
 11  2  2  0  0  0  0
 11 21  1  0  0  0  0
 12 13  2  0  0  0  0
 13  3  1  0  0  0  0
 14 18  1  0  0  0  0
 15  6  1  0  0  0  0
 15 14  2  0  0  0  0
 16 19  1  1  0  0  0
 16  7  1  0  0  0  0
 17  1  1  0  0  0  0
 17  8  1  0  0  0  0
 18 19  1  0  0  0  0
 18 16  1  0  0  0  0
 20  9  1  0  0  0  0
 20  3  2  0  0  0  0
 21 23  2  0  0  0  0
 22  6  2  0  0  0  0
 22  4  1  0  0  0  0
 23 14  1  0  0  0  0
 24 22  1  0  0  0  0
 25 27  1  0  0  0  0
 27 28  1  0  0  0  0
 27 26  2  0  0  0  0
 28 24  1  0  0  0  0
M  END
>  <MODEL>
9

>  <REMARK>
 VINA RESULT:      -5.7      3.292      7.327
  Name = 
  2 active torsions:
  status: ('A' for Active; 'I' for Inactive)
    1  A    between atoms: C_18  and  C_26
    2  A    between atoms: C_18  and  N_28
                            x       y       z     vdW  Elec       q    Type
                         _______ _______ _______ _____ _____    ______ ____

>  <TORSDO>
F 2

$$$$
