=
 OpenBabel10222418313D

 65 68  0  0  1  0  0  0  0  0999 V2000
  186.3090  177.2220  136.4010 C   0  0  1  0  0  3  0  0  0  0  0  0
  185.1210  176.2570  136.3100 C   0  0  0  0  0  2  0  0  0  0  0  0
  184.5850  176.1140  134.8900 C   0  0  0  0  0  2  0  0  0  0  0  0
  183.1370  176.5730  134.7890 C   0  0  0  0  0  2  0  0  0  0  0  0
  181.9180  173.6890  135.3990 C   0  0  0  0  0  3  0  0  0  0  0  0
  179.8630  173.6940  139.0950 O   0  0  0  0  0  1  0  0  0  0  0  0
  180.5060  173.7140  137.8630 C   0  0  0  0  0  0  0  0  0  0  0  0
  181.1460  176.1300  137.8830 N   0  0  0  0  0  0  0  0  0  0  0  0
  182.3190  176.1060  135.9520 C   0  0  0  0  0  0  0  0  0  0  0  0
  181.2990  172.5230  135.8780 C   0  0  0  0  0  3  0  0  0  0  0  0
  180.0170  171.3580  137.5620 O   0  0  0  0  0  1  0  0  0  0  0  0
  180.0800  177.8480  140.7200 C   0  0  0  0  0  0  0  0  0  0  0  0
  181.9040  176.8710  137.0330 C   0  0  0  0  0  0  0  0  0  0  0  0
  181.1000  174.8810  137.3510 C   0  0  0  0  0  0  0  0  0  0  0  0
  180.4750  176.6450  139.0440 C   0  0  0  0  0  0  0  0  0  0  0  0
  178.9690  177.0530  140.4920 C   0  0  0  0  0  3  0  0  0  0  0  0
  180.6020  172.5310  137.1030 C   0  0  0  0  0  0  0  0  0  0  0  0
  179.2310  176.2810  139.4180 N   0  0  0  0  0  0  0  0  0  0  0  0
  180.9820  177.5810  139.8080 O   0  0  0  0  0  0  0  0  0  0  0  0
  181.8060  174.8450  136.1680 C   0  0  0  0  0  0  0  0  0  0  0  0
  181.3190  178.4820  142.7540 C   0  0  0  0  0  1  0  0  0  0  0  0
  180.6050  180.2390  141.1700 C   0  0  0  0  0  1  0  0  0  0  0  0
  180.2320  178.9010  141.7830 C   0  0  0  0  0  0  0  0  0  0  0  0
  178.9310  179.0700  142.5480 C   0  0  0  0  0  1  0  0  0  0  0  0
  182.1430  178.3410  137.1710 C   0  0  0  0  0  2  0  0  0  0  0  0
  180.5850  178.8330  135.3150 C   0  0  0  0  0  1  0  0  0  0  0  0
  180.9000  179.1100  136.7700 C   0  0  0  0  0  2  0  0  0  0  0  0
  187.1040  177.2790  135.0980 C   0  0  0  0  0  2  0  0  0  0  0  0
  188.5930  177.5440  135.3180 C   0  0  0  0  0  2  0  0  0  0  0  0
  189.1250  176.8430  136.5680 C   0  0  2  0  0  3  0  0  0  0  0  0
  189.5220  177.8800  137.6140 C   0  0  0  0  0  1  0  0  0  0  0  0
  190.4270  175.7070  134.8770 O   0  0  0  0  0  1  0  0  0  0  0  0
  190.2860  175.8910  136.2550 C   0  0  2  0  0  3  0  0  0  0  0  0
  190.1450  174.5610  136.9380 C   0  0  0  0  0  0  0  0  0  0  0  0
  191.2450  173.6570  137.1040 N   0  0  0  0  0  2  0  0  0  0  0  0
  189.0100  174.2250  137.3690 O   0  0  0  0  0  0  0  0  0  0  0  0
  192.6120  173.9220  136.6720 C   0  0  2  0  0  3  0  0  0  0  0  0
  193.2750  172.6070  136.3050 C   0  0  0  0  0  1  0  0  0  0  0  0
  193.3260  174.5320  137.7080 O   0  0  0  0  0  0  0  0  0  0  0  0
  194.0220  175.5800  137.1020 C   0  0  0  0  0  1  0  0  0  0  0  0
  185.9390  178.6060  136.9280 C   0  0  0  0  0  2  0  0  0  0  0  0
  185.7100  178.5490  138.3650 N   0  0  0  0  0  2  0  0  0  0  0  0
  184.7470  179.5890  138.6970 C   0  0  0  0  0  2  0  0  0  0  0  0
  184.7850  179.8580  140.0680 O   0  0  0  0  0  0  0  0  0  0  0  0
  185.0750  178.6320  140.6660 C   0  0  0  0  0  2  0  0  0  0  0  0
  188.5130  178.1190  141.3600 N   0  0  0  0  0  2  0  0  0  0  0  0
  188.0780  177.1960  142.3970 C   0  0  2  0  0  3  0  0  0  0  0  0
  186.3800  177.6240  142.8350 S   0  0  0  0  0  0  0  0  0  0  0  0
  187.4440  178.3190  140.5470 O   0  0  0  0  0  0  0  0  0  0  0  0
  186.4030  178.7180  141.3950 C   0  0  1  0  0  3  0  0  0  0  0  0
  189.0000  177.2530  143.6170 C   0  0  2  0  0  3  0  0  0  0  0  0
  189.5150  176.7550  146.3680 O   0  0  0  0  0  0  0  0  0  0  0  0
  188.3330  177.9200  144.7300 N   0  0  0  0  0  2  0  0  0  0  0  0
  188.6890  177.6680  146.0920 C   0  0  0  0  0  0  0  0  0  0  0  0
  188.0990  178.5230  147.1760 C   0  0  2  0  0  3  0  0  0  0  0  0
  187.7280  177.6540  149.4760 C   0  0  0  0  0  1  0  0  0  0  0  0
  188.7640  178.1940  148.5030 C   0  0  0  0  0  2  0  0  0  0  0  0
  186.5860  178.3300  147.2850 C   0  0  0  0  0  2  0  0  0  0  0  0
  185.8400  179.1570  146.2460 C   0  0  0  0  0  2  0  0  0  0  0  0
  183.5530  179.3280  145.5670 O   0  0  0  0  0  1  0  0  0  0  0  0
  184.6070  178.4280  145.7360 C   0  0  0  0  0  2  0  0  0  0  0  0
  191.1160  177.1710  142.4540 O   0  0  0  0  0  1  0  0  0  0  0  0
  190.3190  177.9640  143.2820 C   0  0  2  0  0  3  0  0  0  0  0  0
  191.9880  179.5810  144.2770 C   0  0  0  0  0  1  0  0  0  0  0  0
  191.1010  178.3710  144.5290 C   0  0  0  0  0  2  0  0  0  0  0  0
  1 28  1  6  0  0  0
  1 41  1  0  0  0  0
  2  1  1  0  0  0  0
  3  2  1  0  0  0  0
  4  3  1  0  0  0  0
  4  9  1  0  0  0  0
  5 10  2  0  0  0  0
  5 20  1  0  0  0  0
  7  6  1  0  0  0  0
  8 15  1  0  0  0  0
  9 20  1  0  0  0  0
  9 13  2  0  0  0  0
 10 17  1  0  0  0  0
 12 23  1  0  0  0  0
 13 25  1  0  0  0  0
 13  8  1  0  0  0  0
 14  7  1  0  0  0  0
 14  8  1  0  0  0  0
 15 18  2  0  0  0  0
 15 19  1  0  0  0  0
 16 12  2  0  0  0  0
 17 11  1  0  0  0  0
 17  7  2  0  0  0  0
 18 16  1  0  0  0  0
 19 12  1  0  0  0  0
 20 14  2  0  0  0  0
 22 23  1  0  0  0  0
 23 24  1  0  0  0  0
 23 21  1  0  0  0  0
 26 27  1  0  0  0  0
 27 25  1  0  0  0  0
 28 29  1  0  0  0  0
 29 30  1  0  0  0  0
 30 31  1  1  0  0  0
 33 32  1  6  0  0  0
 33 30  1  0  0  0  0
 33 34  1  0  0  0  0
 34 35  1  0  0  0  0
 34 36  2  0  0  0  0
 37 38  1  1  0  0  0
 37 35  1  0  0  0  0
 37 39  1  0  0  0  0
 40 39  1  0  0  0  0
 41 42  1  0  0  0  0
 42 43  1  0  0  0  0
 43 44  1  0  0  0  0
 44 45  1  0  0  0  0
 46 47  1  0  0  0  0
 47 48  1  0  0  0  0
 47 51  1  1  0  0  0
 49 46  1  0  0  0  0
 49 50  1  0  0  0  0
 50 45  1  6  0  0  0
 50 48  1  0  0  0  0
 51 53  1  1  0  0  0
 53 54  1  0  0  0  0
 54 52  2  0  0  0  0
 54 55  1  0  0  0  0
 55 58  1  1  0  0  0
 55 57  1  0  0  0  0
 57 56  1  0  0  0  0
 59 58  1  0  0  0  0
 60 61  1  0  0  0  0
 61 59  1  0  0  0  0
 63 62  1  6  0  0  0
 63 51  1  0  0  0  0
 63 65  1  0  0  0  0
 64 65  1  0  0  0  0
M  END
>  <MODEL>
1

>  <REMARK>
 VINA RESULT:      -5.7      0.000      0.000
  Name = 
  29 active torsions:
  status: ('A' for Active; 'I' for Inactive)
    1  A    between atoms: N_1  and  C_23
    2  A    between atoms: N_1  and  C_41
    3  A    between atoms: C_2  and  N_15
    4  A    between atoms: C_2  and  O_25
    5  A    between atoms: C_4  and  C_60
    6  A    between atoms: C_5  and  C_6
    7  A    between atoms: C_5  and  C_12
    8  A    between atoms: C_5  and  C_23
    9  A    between atoms: C_6  and  C_14
   10  A    between atoms: C_11  and  C_49
   11  A    between atoms: C_12  and  C_40
   12  A    between atoms: C_14  and  C_43
   13  A    between atoms: C_19  and  C_21
   14  A    between atoms: C_19  and  C_58
   15  A    between atoms: C_21  and  C_26
   16  A    between atoms: N_22  and  C_49
   17  A    between atoms: C_27  and  C_43
   18  A    between atoms: C_29  and  C_40
   19  A    between atoms: C_29  and  C_60
   20  A    between atoms: C_33  and  C_47
   21  A    between atoms: C_36  and  C_56
   22  A    between atoms: C_37  and  O_46
   23  A    between atoms: C_37  and  C_65
   24  A    between atoms: C_41  and  O_46
   25  A    between atoms: C_45  and  C_56
   26  A    between atoms: C_49  and  C_52
   27  A    between atoms: C_52  and  C_64
   28  A    between atoms: C_58  and  C_61
   29  A    between atoms: C_58  and  C_62
                            x       y       z     vdW  Elec       q    Type
                         _______ _______ _______ _____ _____    ______ ____

>  <TORSDO>
F 29

$$$$
=
 OpenBabel10222418313D

 65 68  0  0  1  0  0  0  0  0999 V2000
  189.0690  176.7660  136.9600 C   0  0  1  0  0  3  0  0  0  0  0  0
  187.7160  176.7940  136.2400 C   0  0  0  0  0  2  0  0  0  0  0  0
  187.0120  175.4400  136.2520 C   0  0  0  0  0  2  0  0  0  0  0  0
  185.9080  175.3740  135.2070 C   0  0  0  0  0  2  0  0  0  0  0  0
  184.4430  172.5490  134.9860 C   0  0  0  0  0  3  0  0  0  0  0  0
  180.8380  172.5680  137.1970 O   0  0  0  0  0  1  0  0  0  0  0  0
  182.0030  172.5860  136.4410 C   0  0  0  0  0  0  0  0  0  0  0  0
  182.6380  174.9590  136.9000 N   0  0  0  0  0  0  0  0  0  0  0  0
  184.6070  174.9220  135.7930 C   0  0  0  0  0  0  0  0  0  0  0  0
  183.6260  171.4080  135.0380 C   0  0  0  0  0  3  0  0  0  0  0  0
  181.6400  170.2720  135.8140 O   0  0  0  0  0  1  0  0  0  0  0  0
  180.3790  176.6540  138.9390 C   0  0  0  0  0  0  0  0  0  0  0  0
  183.7430  175.6790  136.5710 C   0  0  0  0  0  0  0  0  0  0  0  0
  182.8150  173.7310  136.3490 C   0  0  0  0  0  0  0  0  0  0  0  0
  181.5020  175.4790  137.6100 C   0  0  0  0  0  0  0  0  0  0  0  0
  179.4950  175.9320  138.1550 C   0  0  0  0  0  3  0  0  0  0  0  0
  182.4180  171.4220  135.7630 C   0  0  0  0  0  0  0  0  0  0  0  0
  180.2220  175.1760  137.3070 N   0  0  0  0  0  0  0  0  0  0  0  0
  181.6020  176.3620  138.5730 O   0  0  0  0  0  0  0  0  0  0  0  0
  184.0090  173.6880  135.6620 C   0  0  0  0  0  0  0  0  0  0  0  0
  178.9360  178.5800  139.4730 C   0  0  0  0  0  1  0  0  0  0  0  0
  179.5350  176.9800  141.2590 C   0  0  0  0  0  1  0  0  0  0  0  0
  180.0270  177.6650  139.9960 C   0  0  0  0  0  0  0  0  0  0  0  0
  181.2430  178.5050  140.3480 C   0  0  0  0  0  1  0  0  0  0  0  0
  183.9360  177.1280  136.8880 C   0  0  0  0  0  2  0  0  0  0  0  0
  185.2660  178.5990  138.3640 C   0  0  0  0  0  1  0  0  0  0  0  0
  184.5240  177.2830  138.2760 C   0  0  0  0  0  2  0  0  0  0  0  0
  190.1610  176.1230  136.1060 C   0  0  0  0  0  2  0  0  0  0  0  0
  190.4620  174.6800  136.5100 C   0  0  0  0  0  2  0  0  0  0  0  0
  191.8210  174.2080  135.9930 C   0  0  2  0  0  3  0  0  0  0  0  0
  191.7120  172.7730  135.4860 C   0  0  0  0  0  1  0  0  0  0  0  0
  192.3990  174.7150  138.2850 O   0  0  0  0  0  1  0  0  0  0  0  0
  192.9280  174.3470  137.0450 C   0  0  2  0  0  3  0  0  0  0  0  0
  193.9960  175.3200  136.6360 C   0  0  0  0  0  0  0  0  0  0  0  0
  195.3910  175.0790  136.8640 N   0  0  0  0  0  2  0  0  0  0  0  0
  193.6480  176.3960  136.0810 O   0  0  0  0  0  0  0  0  0  0  0  0
  195.9360  173.8730  137.4770 C   0  0  2  0  0  3  0  0  0  0  0  0
  196.7730  174.2690  138.6790 C   0  0  0  0  0  1  0  0  0  0  0  0
  196.7370  173.1940  136.5540 O   0  0  0  0  0  0  0  0  0  0  0  0
  197.5430  172.3520  137.3220 C   0  0  0  0  0  1  0  0  0  0  0  0
  189.4880  178.1160  137.5350 C   0  0  0  0  0  2  0  0  0  0  0  0
  189.4170  178.0840  138.9890 N   0  0  0  0  0  2  0  0  0  0  0  0
  190.7120  177.6380  139.4830 C   0  0  0  0  0  2  0  0  0  0  0  0
  190.5410  176.7870  140.5780 O   0  0  0  0  0  0  0  0  0  0  0  0
  189.2410  177.0320  141.0220 C   0  0  0  0  0  2  0  0  0  0  0  0
  187.7670  176.4790  144.1980 N   0  0  0  0  0  2  0  0  0  0  0  0
  188.2990  177.7800  144.5760 C   0  0  2  0  0  3  0  0  0  0  0  0
  189.6740  178.1530  143.4680 S   0  0  0  0  0  0  0  0  0  0  0  0
  187.8130  176.4220  142.8420 O   0  0  0  0  0  0  0  0  0  0  0  0
  189.1390  176.7180  142.5040 C   0  0  1  0  0  3  0  0  0  0  0  0
  188.7430  177.7970  146.0410 C   0  0  2  0  0  3  0  0  0  0  0  0
  190.8410  178.0260  147.9440 O   0  0  0  0  0  0  0  0  0  0  0  0
  189.7800  176.7970  146.2700 N   0  0  0  0  0  2  0  0  0  0  0  0
  190.7680  176.9480  147.2930 C   0  0  0  0  0  0  0  0  0  0  0  0
  191.6870  175.8000  147.6020 C   0  0  2  0  0  3  0  0  0  0  0  0
  192.9910  175.9710  149.7110 C   0  0  0  0  0  1  0  0  0  0  0  0
  192.9650  176.3280  148.2340 C   0  0  0  0  0  2  0  0  0  0  0  0
  192.0170  174.9900  146.3490 C   0  0  0  0  0  2  0  0  0  0  0  0
  191.9220  175.8430  145.0900 C   0  0  0  0  0  2  0  0  0  0  0  0
  192.1000  173.6410  144.1750 O   0  0  0  0  0  1  0  0  0  0  0  0
  191.9890  174.9900  143.8330 C   0  0  0  0  0  2  0  0  0  0  0  0
  186.3490  177.5620  146.2760 O   0  0  0  0  0  1  0  0  0  0  0  0
  187.5540  177.5590  146.9820 C   0  0  2  0  0  3  0  0  0  0  0  0
  187.8620  177.9550  149.4600 C   0  0  0  0  0  1  0  0  0  0  0  0
  187.4940  178.5760  148.1210 C   0  0  0  0  0  2  0  0  0  0  0  0
  1 28  1  6  0  0  0
  1 41  1  0  0  0  0
  2  3  1  0  0  0  0
  2  1  1  0  0  0  0
  4  9  1  0  0  0  0
  4  3  1  0  0  0  0
  5 10  2  0  0  0  0
  5 20  1  0  0  0  0
  7  6  1  0  0  0  0
  8 15  1  0  0  0  0
  9 13  2  0  0  0  0
 10 17  1  0  0  0  0
 12 23  1  0  0  0  0
 13 25  1  0  0  0  0
 13  8  1  0  0  0  0
 14  7  1  0  0  0  0
 14  8  1  0  0  0  0
 15 19  1  0  0  0  0
 16 12  2  0  0  0  0
 17 11  1  0  0  0  0
 17  7  2  0  0  0  0
 18 15  2  0  0  0  0
 18 16  1  0  0  0  0
 19 12  1  0  0  0  0
 20  9  1  0  0  0  0
 20 14  2  0  0  0  0
 21 23  1  0  0  0  0
 23 24  1  0  0  0  0
 23 22  1  0  0  0  0
 25 27  1  0  0  0  0
 27 26  1  0  0  0  0
 28 29  1  0  0  0  0
 30 31  1  1  0  0  0
 30 29  1  0  0  0  0
 30 33  1  0  0  0  0
 33 32  1  1  0  0  0
 34 35  1  0  0  0  0
 34 33  1  0  0  0  0
 35 37  1  0  0  0  0
 36 34  2  0  0  0  0
 37 38  1  1  0  0  0
 39 40  1  0  0  0  0
 39 37  1  0  0  0  0
 41 42  1  0  0  0  0
 42 43  1  0  0  0  0
 43 44  1  0  0  0  0
 44 45  1  0  0  0  0
 46 47  1  0  0  0  0
 47 51  1  1  0  0  0
 48 47  1  0  0  0  0
 49 46  1  0  0  0  0
 50 45  1  6  0  0  0
 50 49  1  0  0  0  0
 50 48  1  0  0  0  0
 51 53  1  6  0  0  0
 51 63  1  0  0  0  0
 53 54  1  0  0  0  0
 54 55  1  0  0  0  0
 54 52  2  0  0  0  0
 55 58  1  6  0  0  0
 55 57  1  0  0  0  0
 57 56  1  0  0  0  0
 59 58  1  0  0  0  0
 61 60  1  0  0  0  0
 61 59  1  0  0  0  0
 63 62  1  6  0  0  0
 63 65  1  0  0  0  0
 65 64  1  0  0  0  0
M  END
>  <MODEL>
2

>  <REMARK>
 VINA RESULT:      -4.7      2.313      4.178
  Name = 
  29 active torsions:
  status: ('A' for Active; 'I' for Inactive)
    1  A    between atoms: N_1  and  C_23
    2  A    between atoms: N_1  and  C_41
    3  A    between atoms: C_2  and  N_15
    4  A    between atoms: C_2  and  O_25
    5  A    between atoms: C_4  and  C_60
    6  A    between atoms: C_5  and  C_6
    7  A    between atoms: C_5  and  C_12
    8  A    between atoms: C_5  and  C_23
    9  A    between atoms: C_6  and  C_14
   10  A    between atoms: C_11  and  C_49
   11  A    between atoms: C_12  and  C_40
   12  A    between atoms: C_14  and  C_43
   13  A    between atoms: C_19  and  C_21
   14  A    between atoms: C_19  and  C_58
   15  A    between atoms: C_21  and  C_26
   16  A    between atoms: N_22  and  C_49
   17  A    between atoms: C_27  and  C_43
   18  A    between atoms: C_29  and  C_40
   19  A    between atoms: C_29  and  C_60
   20  A    between atoms: C_33  and  C_47
   21  A    between atoms: C_36  and  C_56
   22  A    between atoms: C_37  and  O_46
   23  A    between atoms: C_37  and  C_65
   24  A    between atoms: C_41  and  O_46
   25  A    between atoms: C_45  and  C_56
   26  A    between atoms: C_49  and  C_52
   27  A    between atoms: C_52  and  C_64
   28  A    between atoms: C_58  and  C_61
   29  A    between atoms: C_58  and  C_62
                            x       y       z     vdW  Elec       q    Type
                         _______ _______ _______ _____ _____    ______ ____

>  <TORSDO>
F 29

$$$$
=
 OpenBabel10222418313D

 65 68  0  0  1  0  0  0  0  0999 V2000
  189.5630  177.3840  138.2890 C   0  0  1  0  0  3  0  0  0  0  0  0
  189.7200  176.3260  139.3880 C   0  0  0  0  0  2  0  0  0  0  0  0
  189.8640  176.9350  140.7780 C   0  0  0  0  0  2  0  0  0  0  0  0
  188.6200  177.7160  141.1790 C   0  0  0  0  0  2  0  0  0  0  0  0
  185.9910  178.3910  142.8560 C   0  0  0  0  0  3  0  0  0  0  0  0
  186.6880  177.8520  146.9920 O   0  0  0  0  0  1  0  0  0  0  0  0
  186.4830  178.0650  145.6350 C   0  0  0  0  0  0  0  0  0  0  0  0
  188.7930  177.4920  144.8740 N   0  0  0  0  0  0  0  0  0  0  0  0
  188.3960  177.6930  142.6590 C   0  0  0  0  0  0  0  0  0  0  0  0
  184.9720  178.6270  143.7920 C   0  0  0  0  0  3  0  0  0  0  0  0
  184.1780  178.6820  146.0740 O   0  0  0  0  0  1  0  0  0  0  0  0
  190.9580  176.6330  147.4640 C   0  0  0  0  0  0  0  0  0  0  0  0
  189.3320  177.3720  143.6320 C   0  0  0  0  0  0  0  0  0  0  0  0
  187.5010  177.8680  144.6860 C   0  0  0  0  0  0  0  0  0  0  0  0
  189.5200  177.3330  146.1030 C   0  0  0  0  0  0  0  0  0  0  0  0
  190.2740  177.6770  148.0630 C   0  0  0  0  0  3  0  0  0  0  0  0
  185.2110  178.4610  145.1710 C   0  0  0  0  0  0  0  0  0  0  0  0
  189.3500  178.1190  147.1860 N   0  0  0  0  0  0  0  0  0  0  0  0
  190.4800  176.4530  146.2580 O   0  0  0  0  0  0  0  0  0  0  0  0
  187.2390  178.0020  143.3400 C   0  0  0  0  0  0  0  0  0  0  0  0
  191.5840  174.6130  148.7310 C   0  0  0  0  0  1  0  0  0  0  0  0
  193.0900  175.4510  146.9600 C   0  0  0  0  0  1  0  0  0  0  0  0
  192.1090  175.8600  148.0450 C   0  0  0  0  0  0  0  0  0  0  0  0
  192.8510  176.7050  149.0670 C   0  0  0  0  0  1  0  0  0  0  0  0
  190.7700  177.0680  143.3580 C   0  0  0  0  0  2  0  0  0  0  0  0
  190.8590  179.4410  144.0460 C   0  0  0  0  0  1  0  0  0  0  0  0
  191.5630  178.3570  143.2590 C   0  0  0  0  0  2  0  0  0  0  0  0
  190.4570  177.0970  137.0830 C   0  0  0  0  0  2  0  0  0  0  0  0
  191.4450  175.9570  137.3310 C   0  0  0  0  0  2  0  0  0  0  0  0
  192.5710  175.9350  136.2980 C   0  0  2  0  0  3  0  0  0  0  0  0
  191.9830  175.9470  134.8910 C   0  0  0  0  0  1  0  0  0  0  0  0
  192.8580  173.6610  137.0690 O   0  0  0  0  0  1  0  0  0  0  0  0
  193.5230  174.7500  136.4970 C   0  0  2  0  0  3  0  0  0  0  0  0
  194.7260  175.1060  137.3220 C   0  0  0  0  0  0  0  0  0  0  0  0
  196.0680  174.9230  136.8510 N   0  0  0  0  0  2  0  0  0  0  0  0
  194.5450  175.5710  138.4780 O   0  0  0  0  0  0  0  0  0  0  0  0
  196.4240  174.4130  135.5330 C   0  0  2  0  0  3  0  0  0  0  0  0
  196.3030  172.9000  135.5410 C   0  0  0  0  0  1  0  0  0  0  0  0
  197.7400  174.7740  135.2250 O   0  0  0  0  0  0  0  0  0  0  0  0
  198.5160  174.2240  136.2460 C   0  0  0  0  0  1  0  0  0  0  0  0
  188.1130  177.6550  137.8980 C   0  0  0  0  0  2  0  0  0  0  0  0
  187.9940  177.7460  136.4500 N   0  0  0  0  0  2  0  0  0  0  0  0
  186.5870  177.9510  136.1370 C   0  0  0  0  0  2  0  0  0  0  0  0
  186.3000  177.4490  134.8650 O   0  0  0  0  0  0  0  0  0  0  0  0
  185.0540  176.8370  134.9940 C   0  0  0  0  0  2  0  0  0  0  0  0
  183.8400  175.0980  137.8350 N   0  0  0  0  0  2  0  0  0  0  0  0
  182.8630  176.1680  137.9650 C   0  0  2  0  0  3  0  0  0  0  0  0
  183.5150  177.6140  137.1050 S   0  0  0  0  0  0  0  0  0  0  0  0
  184.3460  175.1890  136.5780 O   0  0  0  0  0  0  0  0  0  0  0  0
  184.7920  176.5110  136.4530 C   0  0  1  0  0  3  0  0  0  0  0  0
  182.5720  176.4790  139.4360 C   0  0  2  0  0  3  0  0  0  0  0  0
  180.3600  176.0780  137.6960 O   0  0  0  0  0  0  0  0  0  0  0  0
  181.2850  175.9180  139.8310 N   0  0  0  0  0  2  0  0  0  0  0  0
  180.2360  175.6810  138.8880 C   0  0  0  0  0  0  0  0  0  0  0  0
  179.0120  174.9290  139.3230 C   0  0  2  0  0  3  0  0  0  0  0  0
  179.1680  173.4670  141.3270 C   0  0  0  0  0  1  0  0  0  0  0  0
  178.9510  174.8900  140.8420 C   0  0  0  0  0  2  0  0  0  0  0  0
  178.9950  173.5070  138.7610 C   0  0  0  0  0  2  0  0  0  0  0  0
  180.2980  173.1730  138.0450 C   0  0  0  0  0  2  0  0  0  0  0  0
  179.9400  171.8360  136.0950 O   0  0  0  0  0  1  0  0  0  0  0  0
  180.2640  171.7740  137.4510 C   0  0  0  0  0  2  0  0  0  0  0  0
  183.5490  178.3120  140.6700 O   0  0  0  0  0  1  0  0  0  0  0  0
  182.5990  177.9910  139.6980 C   0  0  2  0  0  3  0  0  0  0  0  0
  181.0570  179.9950  139.6790 C   0  0  0  0  0  1  0  0  0  0  0  0
  181.2330  178.5430  140.1000 C   0  0  0  0  0  2  0  0  0  0  0  0
  1 28  1  6  0  0  0
  1  2  1  0  0  0  0
  2  3  1  0  0  0  0
  3  4  1  0  0  0  0
  4  9  1  0  0  0  0
  5 20  2  0  0  0  0
  5 10  1  0  0  0  0
  7  6  1  0  0  0  0
  8 15  1  0  0  0  0
  9 20  1  0  0  0  0
  9 13  2  0  0  0  0
 10 17  2  0  0  0  0
 12 23  1  0  0  0  0
 12 16  2  0  0  0  0
 13  8  1  0  0  0  0
 14  8  1  0  0  0  0
 14  7  2  0  0  0  0
 15 19  1  0  0  0  0
 15 18  2  0  0  0  0
 17  7  1  0  0  0  0
 17 11  1  0  0  0  0
 18 16  1  0  0  0  0
 19 12  1  0  0  0  0
 20 14  1  0  0  0  0
 22 23  1  0  0  0  0
 23 21  1  0  0  0  0
 23 24  1  0  0  0  0
 25 13  1  0  0  0  0
 27 25  1  0  0  0  0
 27 26  1  0  0  0  0
 28 29  1  0  0  0  0
 30 31  1  6  0  0  0
 30 33  1  0  0  0  0
 30 29  1  0  0  0  0
 33 32  1  1  0  0  0
 33 34  1  0  0  0  0
 34 36  2  0  0  0  0
 35 34  1  0  0  0  0
 37 38  1  1  0  0  0
 37 35  1  0  0  0  0
 39 37  1  0  0  0  0
 39 40  1  0  0  0  0
 41  1  1  0  0  0  0
 42 41  1  0  0  0  0
 43 42  1  0  0  0  0
 44 45  1  0  0  0  0
 44 43  1  0  0  0  0
 46 47  1  0  0  0  0
 47 51  1  1  0  0  0
 48 47  1  0  0  0  0
 49 46  1  0  0  0  0
 50 45  1  6  0  0  0
 50 49  1  0  0  0  0
 50 48  1  0  0  0  0
 51 63  1  0  0  0  0
 51 53  1  6  0  0  0
 52 54  2  0  0  0  0
 54 55  1  0  0  0  0
 54 53  1  0  0  0  0
 55 58  1  6  0  0  0
 55 57  1  0  0  0  0
 57 56  1  0  0  0  0
 59 58  1  0  0  0  0
 60 61  1  0  0  0  0
 61 59  1  0  0  0  0
 63 65  1  0  0  0  0
 63 62  1  1  0  0  0
 64 65  1  0  0  0  0
M  END
>  <MODEL>
3

>  <REMARK>
 VINA RESULT:      -4.4      2.547      9.471
  Name = 
  29 active torsions:
  status: ('A' for Active; 'I' for Inactive)
    1  A    between atoms: N_1  and  C_23
    2  A    between atoms: N_1  and  C_41
    3  A    between atoms: C_2  and  N_15
    4  A    between atoms: C_2  and  O_25
    5  A    between atoms: C_4  and  C_60
    6  A    between atoms: C_5  and  C_6
    7  A    between atoms: C_5  and  C_12
    8  A    between atoms: C_5  and  C_23
    9  A    between atoms: C_6  and  C_14
   10  A    between atoms: C_11  and  C_49
   11  A    between atoms: C_12  and  C_40
   12  A    between atoms: C_14  and  C_43
   13  A    between atoms: C_19  and  C_21
   14  A    between atoms: C_19  and  C_58
   15  A    between atoms: C_21  and  C_26
   16  A    between atoms: N_22  and  C_49
   17  A    between atoms: C_27  and  C_43
   18  A    between atoms: C_29  and  C_40
   19  A    between atoms: C_29  and  C_60
   20  A    between atoms: C_33  and  C_47
   21  A    between atoms: C_36  and  C_56
   22  A    between atoms: C_37  and  O_46
   23  A    between atoms: C_37  and  C_65
   24  A    between atoms: C_41  and  O_46
   25  A    between atoms: C_45  and  C_56
   26  A    between atoms: C_49  and  C_52
   27  A    between atoms: C_52  and  C_64
   28  A    between atoms: C_58  and  C_61
   29  A    between atoms: C_58  and  C_62
                            x       y       z     vdW  Elec       q    Type
                         _______ _______ _______ _____ _____    ______ ____

>  <TORSDO>
F 29

$$$$
=
 OpenBabel10222418313D

 65 68  0  0  1  0  0  0  0  0999 V2000
  190.8660  177.6660  140.0480 C   0  0  1  0  0  3  0  0  0  0  0  0
  191.2150  178.0040  141.5020 C   0  0  0  0  0  2  0  0  0  0  0  0
  191.9250  176.8610  142.2210 C   0  0  0  0  0  2  0  0  0  0  0  0
  190.9330  175.8710  142.8150 C   0  0  0  0  0  2  0  0  0  0  0  0
  191.8450  176.4650  145.8140 C   0  0  0  0  0  3  0  0  0  0  0  0
  188.6960  178.2490  148.0000 O   0  0  0  0  0  1  0  0  0  0  0  0
  189.7100  177.6250  147.2840 C   0  0  0  0  0  0  0  0  0  0  0  0
  188.4520  177.3370  145.1440 N   0  0  0  0  0  0  0  0  0  0  0  0
  190.1600  176.4660  143.9510 C   0  0  0  0  0  0  0  0  0  0  0  0
  192.0170  176.8180  147.1610 C   0  0  0  0  0  3  0  0  0  0  0  0
  191.1670  177.7580  149.2190 O   0  0  0  0  0  1  0  0  0  0  0  0
  185.1780  178.5230  145.2630 C   0  0  0  0  0  0  0  0  0  0  0  0
  188.8370  176.8820  143.9230 C   0  0  0  0  0  0  0  0  0  0  0  0
  189.5440  177.2310  145.9450 C   0  0  0  0  0  0  0  0  0  0  0  0
  187.1160  177.7450  145.4840 C   0  0  0  0  0  0  0  0  0  0  0  0
  185.2680  177.9480  146.5190 C   0  0  0  0  0  3  0  0  0  0  0  0
  190.9620  177.3990  147.8920 C   0  0  0  0  0  0  0  0  0  0  0  0
  186.5150  177.4540  146.6560 N   0  0  0  0  0  0  0  0  0  0  0  0
  186.3250  178.3730  144.6480 O   0  0  0  0  0  0  0  0  0  0  0  0
  190.5980  176.6960  145.2370 C   0  0  0  0  0  0  0  0  0  0  0  0
  182.7720  178.9630  145.5670 C   0  0  0  0  0  1  0  0  0  0  0  0
  184.1800  180.6480  144.4350 C   0  0  0  0  0  1  0  0  0  0  0  0
  183.9620  179.1610  144.6490 C   0  0  0  0  0  0  0  0  0  0  0  0
  183.6550  178.5240  143.3040 C   0  0  0  0  0  1  0  0  0  0  0  0
  187.9230  176.7250  142.7500 C   0  0  0  0  0  2  0  0  0  0  0  0
  186.4580  177.9040  141.1450 C   0  0  0  0  0  1  0  0  0  0  0  0
  187.4630  178.0840  142.2630 C   0  0  0  0  0  2  0  0  0  0  0  0
  192.0950  177.2370  139.2480 C   0  0  0  0  0  2  0  0  0  0  0  0
  192.0850  175.7510  138.8900 C   0  0  0  0  0  2  0  0  0  0  0  0
  192.2960  175.5170  137.3940 C   0  0  2  0  0  3  0  0  0  0  0  0
  191.1490  174.6810  136.8340 C   0  0  0  0  0  1  0  0  0  0  0  0
  194.2100  174.3030  138.2360 O   0  0  0  0  0  1  0  0  0  0  0  0
  193.6560  174.8770  137.0890 C   0  0  2  0  0  3  0  0  0  0  0  0
  194.6280  175.8460  136.4810 C   0  0  0  0  0  0  0  0  0  0  0  0
  195.9300  175.4530  136.0260 N   0  0  0  0  0  2  0  0  0  0  0  0
  194.2880  177.0550  136.3790 O   0  0  0  0  0  0  0  0  0  0  0  0
  196.4480  174.0910  136.0650 C   0  0  2  0  0  3  0  0  0  0  0  0
  197.9110  174.1090  135.6620 C   0  0  0  0  0  1  0  0  0  0  0  0
  195.7290  173.2850  135.1760 O   0  0  0  0  0  0  0  0  0  0  0  0
  195.7450  172.0110  135.7450 C   0  0  0  0  0  1  0  0  0  0  0  0
  189.6990  176.6920  139.9050 C   0  0  0  0  0  2  0  0  0  0  0  0
  188.9680  176.9660  138.6760 N   0  0  0  0  0  2  0  0  0  0  0  0
  188.8670  178.4110  138.5370 C   0  0  0  0  0  2  0  0  0  0  0  0
  187.5250  178.8020  138.5530 O   0  0  0  0  0  0  0  0  0  0  0  0
  186.9400  178.1150  137.4900 C   0  0  0  0  0  2  0  0  0  0  0  0
  183.7550  179.3370  138.4580 N   0  0  0  0  0  2  0  0  0  0  0  0
  183.6650  178.1680  139.3210 C   0  0  2  0  0  3  0  0  0  0  0  0
  184.7950  176.9190  138.6730 S   0  0  0  0  0  0  0  0  0  0  0  0
  185.0630  179.4620  138.1140 O   0  0  0  0  0  0  0  0  0  0  0  0
  185.4280  178.2190  137.5840 C   0  0  1  0  0  3  0  0  0  0  0  0
  182.2300  177.6380  139.3920 C   0  0  2  0  0  3  0  0  0  0  0  0
  180.8280  175.1880  139.0600 O   0  0  0  0  0  0  0  0  0  0  0  0
  181.8340  177.0650  138.1110 N   0  0  0  0  0  2  0  0  0  0  0  0
  181.0700  175.8600  138.0200 C   0  0  0  0  0  0  0  0  0  0  0  0
  180.5340  175.4280  136.6860 C   0  0  2  0  0  3  0  0  0  0  0  0
  180.1200  176.7430  134.6170 C   0  0  0  0  0  1  0  0  0  0  0  0
  179.7230  176.5590  136.0720 C   0  0  0  0  0  2  0  0  0  0  0  0
  179.6720  174.1710  136.8050 C   0  0  0  0  0  2  0  0  0  0  0  0
  179.8760  173.2370  135.6180 C   0  0  0  0  0  2  0  0  0  0  0  0
  181.7110  171.7060  135.5520 O   0  0  0  0  0  1  0  0  0  0  0  0
  181.3530  173.0340  135.3180 C   0  0  0  0  0  2  0  0  0  0  0  0
  181.9380  179.8710  140.2690 O   0  0  0  0  0  1  0  0  0  0  0  0
  181.2520  178.7450  139.8090 C   0  0  2  0  0  3  0  0  0  0  0  0
  179.2720  179.3780  141.2480 C   0  0  0  0  0  1  0  0  0  0  0  0
  180.2480  178.2770  140.8620 C   0  0  0  0  0  2  0  0  0  0  0  0
  1 28  1  1  0  0  0
  1  2  1  0  0  0  0
  2  3  1  0  0  0  0
  3  4  1  0  0  0  0
  4  9  1  0  0  0  0
  5 10  1  0  0  0  0
  7 17  1  0  0  0  0
  7  6  1  0  0  0  0
  8 15  1  0  0  0  0
  8 14  1  0  0  0  0
  9 20  1  0  0  0  0
 10 17  2  0  0  0  0
 12 16  2  0  0  0  0
 13  9  2  0  0  0  0
 13  8  1  0  0  0  0
 14  7  2  0  0  0  0
 15 18  2  0  0  0  0
 16 18  1  0  0  0  0
 17 11  1  0  0  0  0
 19 12  1  0  0  0  0
 19 15  1  0  0  0  0
 20  5  2  0  0  0  0
 20 14  1  0  0  0  0
 22 23  1  0  0  0  0
 23 12  1  0  0  0  0
 23 21  1  0  0  0  0
 24 23  1  0  0  0  0
 25 13  1  0  0  0  0
 26 27  1  0  0  0  0
 27 25  1  0  0  0  0
 29 28  1  0  0  0  0
 30 31  1  1  0  0  0
 30 29  1  0  0  0  0
 33 30  1  0  0  0  0
 33 32  1  1  0  0  0
 34 33  1  0  0  0  0
 35 37  1  0  0  0  0
 35 34  1  0  0  0  0
 36 34  2  0  0  0  0
 37 38  1  6  0  0  0
 39 40  1  0  0  0  0
 39 37  1  0  0  0  0
 41  1  1  0  0  0  0
 42 41  1  0  0  0  0
 43 44  1  0  0  0  0
 43 42  1  0  0  0  0
 45 44  1  0  0  0  0
 46 47  1  0  0  0  0
 47 51  1  6  0  0  0
 48 47  1  0  0  0  0
 49 46  1  0  0  0  0
 50 45  1  1  0  0  0
 50 49  1  0  0  0  0
 50 48  1  0  0  0  0
 51 53  1  6  0  0  0
 51 63  1  0  0  0  0
 54 53  1  0  0  0  0
 54 52  2  0  0  0  0
 55 57  1  1  0  0  0
 55 58  1  0  0  0  0
 55 54  1  0  0  0  0
 56 57  1  0  0  0  0
 59 58  1  0  0  0  0
 61 60  1  0  0  0  0
 61 59  1  0  0  0  0
 63 62  1  1  0  0  0
 63 65  1  0  0  0  0
 65 64  1  0  0  0  0
M  END
>  <MODEL>
4

>  <REMARK>
 VINA RESULT:      -3.9      2.282      9.431
  Name = 
  29 active torsions:
  status: ('A' for Active; 'I' for Inactive)
    1  A    between atoms: N_1  and  C_23
    2  A    between atoms: N_1  and  C_41
    3  A    between atoms: C_2  and  N_15
    4  A    between atoms: C_2  and  O_25
    5  A    between atoms: C_4  and  C_60
    6  A    between atoms: C_5  and  C_6
    7  A    between atoms: C_5  and  C_12
    8  A    between atoms: C_5  and  C_23
    9  A    between atoms: C_6  and  C_14
   10  A    between atoms: C_11  and  C_49
   11  A    between atoms: C_12  and  C_40
   12  A    between atoms: C_14  and  C_43
   13  A    between atoms: C_19  and  C_21
   14  A    between atoms: C_19  and  C_58
   15  A    between atoms: C_21  and  C_26
   16  A    between atoms: N_22  and  C_49
   17  A    between atoms: C_27  and  C_43
   18  A    between atoms: C_29  and  C_40
   19  A    between atoms: C_29  and  C_60
   20  A    between atoms: C_33  and  C_47
   21  A    between atoms: C_36  and  C_56
   22  A    between atoms: C_37  and  O_46
   23  A    between atoms: C_37  and  C_65
   24  A    between atoms: C_41  and  O_46
   25  A    between atoms: C_45  and  C_56
   26  A    between atoms: C_49  and  C_52
   27  A    between atoms: C_52  and  C_64
   28  A    between atoms: C_58  and  C_61
   29  A    between atoms: C_58  and  C_62
                            x       y       z     vdW  Elec       q    Type
                         _______ _______ _______ _____ _____    ______ ____

>  <TORSDO>
F 29

$$$$
=
 OpenBabel10222418313D

 65 68  0  0  1  0  0  0  0  0999 V2000
  183.5430  179.2140  139.2480 C   0  0  1  0  0  3  0  0  0  0  0  0
  183.9840  178.9310  137.8080 C   0  0  0  0  0  2  0  0  0  0  0  0
  184.4570  177.4950  137.6060 C   0  0  0  0  0  2  0  0  0  0  0  0
  185.0390  177.2880  136.2140 C   0  0  0  0  0  2  0  0  0  0  0  0
  184.3830  174.1740  135.9920 C   0  0  0  0  0  3  0  0  0  0  0  0
  187.9510  171.9090  135.8620 O   0  0  0  0  0  1  0  0  0  0  0  0
  186.7860  172.6600  135.9470 C   0  0  0  0  0  0  0  0  0  0  0  0
  187.8710  174.8980  136.1850 N   0  0  0  0  0  0  0  0  0  0  0  0
  185.9680  176.1150  136.1640 C   0  0  0  0  0  0  0  0  0  0  0  0
  184.3420  172.7750  135.8910 C   0  0  0  0  0  3  0  0  0  0  0  0
  185.4610  170.6380  135.7420 O   0  0  0  0  0  1  0  0  0  0  0  0
  191.3530  174.7810  136.2140 C   0  0  0  0  0  0  0  0  0  0  0  0
  187.3540  176.1550  136.2180 C   0  0  0  0  0  0  0  0  0  0  0  0
  186.8080  174.0590  136.0840 C   0  0  0  0  0  0  0  0  0  0  0  0
  189.2650  174.5810  136.3280 C   0  0  0  0  0  0  0  0  0  0  0  0
  191.0710  173.6600  136.9760 C   0  0  0  0  0  3  0  0  0  0  0  0
  185.5320  172.0210  135.8630 C   0  0  0  0  0  0  0  0  0  0  0  0
  189.7300  173.5350  137.0410 N   0  0  0  0  0  0  0  0  0  0  0  0
  190.2230  175.3310  135.8410 O   0  0  0  0  0  0  0  0  0  0  0  0
  185.6350  174.7810  136.0760 C   0  0  0  0  0  0  0  0  0  0  0  0
  192.6590  176.1070  134.5970 C   0  0  0  0  0  1  0  0  0  0  0  0
  193.1730  176.2820  137.0080 C   0  0  0  0  0  1  0  0  0  0  0  0
  192.7130  175.3430  135.9070 C   0  0  0  0  0  0  0  0  0  0  0  0
  193.7300  174.2220  135.7770 C   0  0  0  0  0  1  0  0  0  0  0  0
  188.1590  177.3980  136.4230 C   0  0  0  0  0  2  0  0  0  0  0  0
  188.7100  177.0050  138.8010 C   0  0  0  0  0  1  0  0  0  0  0  0
  187.9730  177.9100  137.8380 C   0  0  0  0  0  2  0  0  0  0  0  0
  182.2470  180.0220  139.3040 C   0  0  0  0  0  2  0  0  0  0  0  0
  181.4450  179.9530  138.0050 C   0  0  0  0  0  2  0  0  0  0  0  0
  180.3980  178.8400  138.0330 C   0  0  2  0  0  3  0  0  0  0  0  0
  179.8280  178.6300  136.6330 C   0  0  0  0  0  1  0  0  0  0  0  0
  178.9910  180.4730  139.1290 O   0  0  0  0  0  1  0  0  0  0  0  0
  179.2860  179.1090  139.0550 C   0  0  2  0  0  3  0  0  0  0  0  0
  179.6170  178.5810  140.4220 C   0  0  0  0  0  0  0  0  0  0  0  0
  179.5150  177.1920  140.7600 N   0  0  0  0  0  2  0  0  0  0  0  0
  179.9860  179.3970  141.3070 O   0  0  0  0  0  0  0  0  0  0  0  0
  179.1200  176.1380  139.8330 C   0  0  2  0  0  3  0  0  0  0  0  0
  178.9310  174.8470  140.6090 C   0  0  0  0  0  1  0  0  0  0  0  0
  180.1140  175.9590  138.8660 O   0  0  0  0  0  0  0  0  0  0  0  0
  180.4170  174.5970  138.9020 C   0  0  0  0  0  1  0  0  0  0  0  0
  183.5030  177.9720  140.1350 C   0  0  0  0  0  2  0  0  0  0  0  0
  184.3970  178.1400  141.2720 N   0  0  0  0  0  2  0  0  0  0  0  0
  183.6130  177.9310  142.4810 C   0  0  0  0  0  2  0  0  0  0  0  0
  182.9880  179.1210  142.8600 O   0  0  0  0  0  0  0  0  0  0  0  0
  183.4560  179.3780  144.1480 C   0  0  0  0  0  2  0  0  0  0  0  0
  186.6510  177.8700  143.8530 N   0  0  0  0  0  2  0  0  0  0  0  0
  186.6810  177.8520  145.3080 C   0  0  2  0  0  3  0  0  0  0  0  0
  185.5290  179.1100  145.8970 S   0  0  0  0  0  0  0  0  0  0  0  0
  185.3570  178.0790  143.4970 O   0  0  0  0  0  0  0  0  0  0  0  0
  184.9670  179.2370  144.1810 C   0  0  1  0  0  3  0  0  0  0  0  0
  188.0950  178.0990  145.8390 C   0  0  2  0  0  3  0  0  0  0  0  0
  190.5360  179.2680  144.9680 O   0  0  0  0  0  0  0  0  0  0  0  0
  189.0820  177.4450  144.9860 N   0  0  0  0  0  2  0  0  0  0  0  0
  190.3210  178.0680  144.6410 C   0  0  0  0  0  0  0  0  0  0  0  0
  191.3700  177.2700  143.9200 C   0  0  2  0  0  3  0  0  0  0  0  0
  189.5910  177.6290  142.2220 C   0  0  0  0  0  1  0  0  0  0  0  0
  191.0350  177.2090  142.4390 C   0  0  0  0  0  2  0  0  0  0  0  0
  191.4910  175.8560  144.4890 C   0  0  0  0  0  2  0  0  0  0  0  0
  192.3380  175.8330  145.7560 C   0  0  0  0  0  2  0  0  0  0  0  0
  192.1770  176.0320  148.1340 O   0  0  0  0  0  1  0  0  0  0  0  0
  191.4800  175.6260  146.9950 C   0  0  0  0  0  2  0  0  0  0  0  0
  188.0470  176.2330  147.3730 O   0  0  0  0  0  1  0  0  0  0  0  0
  188.2360  177.6130  147.2880 C   0  0  2  0  0  3  0  0  0  0  0  0
  187.4780  179.8400  148.2150 C   0  0  0  0  0  1  0  0  0  0  0  0
  187.2840  178.3310  148.2430 C   0  0  0  0  0  2  0  0  0  0  0  0
  1  2  1  6  0  0  0
  1 28  1  0  0  0  0
  1 41  1  0  0  0  0
  3  2  1  0  0  0  0
  4  3  1  0  0  0  0
  5 20  1  0  0  0  0
  6  7  1  0  0  0  0
  7 14  1  0  0  0  0
  8 13  1  0  0  0  0
  8 15  1  0  0  0  0
  9  4  1  0  0  0  0
  9 13  2  0  0  0  0
 10  5  2  0  0  0  0
 11 17  1  0  0  0  0
 12 16  2  0  0  0  0
 13 25  1  0  0  0  0
 14  8  1  0  0  0  0
 15 18  2  0  0  0  0
 16 18  1  0  0  0  0
 17 10  1  0  0  0  0
 17  7  2  0  0  0  0
 19 12  1  0  0  0  0
 19 15  1  0  0  0  0
 20 14  2  0  0  0  0
 20  9  1  0  0  0  0
 21 23  1  0  0  0  0
 23 12  1  0  0  0  0
 23 22  1  0  0  0  0
 24 23  1  0  0  0  0
 25 27  1  0  0  0  0
 27 26  1  0  0  0  0
 29 30  1  0  0  0  0
 29 28  1  0  0  0  0
 30 31  1  6  0  0  0
 30 33  1  0  0  0  0
 33 32  1  1  0  0  0
 33 34  1  0  0  0  0
 34 35  1  0  0  0  0
 34 36  2  0  0  0  0
 37 38  1  1  0  0  0
 37 35  1  0  0  0  0
 39 40  1  0  0  0  0
 39 37  1  0  0  0  0
 41 42  1  0  0  0  0
 42 43  1  0  0  0  0
 43 44  1  0  0  0  0
 44 45  1  0  0  0  0
 46 47  1  0  0  0  0
 47 51  1  6  0  0  0
 47 48  1  0  0  0  0
 49 46  1  0  0  0  0
 49 50  1  0  0  0  0
 50 45  1  1  0  0  0
 50 48  1  0  0  0  0
 51 53  1  6  0  0  0
 51 63  1  0  0  0  0
 54 52  2  0  0  0  0
 54 53  1  0  0  0  0
 55 57  1  6  0  0  0
 55 58  1  0  0  0  0
 55 54  1  0  0  0  0
 56 57  1  0  0  0  0
 58 59  1  0  0  0  0
 59 61  1  0  0  0  0
 61 60  1  0  0  0  0
 63 62  1  6  0  0  0
 63 65  1  0  0  0  0
 64 65  1  0  0  0  0
M  END
>  <MODEL>
5

>  <REMARK>
 VINA RESULT:      -3.0      2.239      8.358
  Name = 
  29 active torsions:
  status: ('A' for Active; 'I' for Inactive)
    1  A    between atoms: N_1  and  C_23
    2  A    between atoms: N_1  and  C_41
    3  A    between atoms: C_2  and  N_15
    4  A    between atoms: C_2  and  O_25
    5  A    between atoms: C_4  and  C_60
    6  A    between atoms: C_5  and  C_6
    7  A    between atoms: C_5  and  C_12
    8  A    between atoms: C_5  and  C_23
    9  A    between atoms: C_6  and  C_14
   10  A    between atoms: C_11  and  C_49
   11  A    between atoms: C_12  and  C_40
   12  A    between atoms: C_14  and  C_43
   13  A    between atoms: C_19  and  C_21
   14  A    between atoms: C_19  and  C_58
   15  A    between atoms: C_21  and  C_26
   16  A    between atoms: N_22  and  C_49
   17  A    between atoms: C_27  and  C_43
   18  A    between atoms: C_29  and  C_40
   19  A    between atoms: C_29  and  C_60
   20  A    between atoms: C_33  and  C_47
   21  A    between atoms: C_36  and  C_56
   22  A    between atoms: C_37  and  O_46
   23  A    between atoms: C_37  and  C_65
   24  A    between atoms: C_41  and  O_46
   25  A    between atoms: C_45  and  C_56
   26  A    between atoms: C_49  and  C_52
   27  A    between atoms: C_52  and  C_64
   28  A    between atoms: C_58  and  C_61
   29  A    between atoms: C_58  and  C_62
                            x       y       z     vdW  Elec       q    Type
                         _______ _______ _______ _____ _____    ______ ____

>  <TORSDO>
F 29

$$$$
