=
 OpenBabel10222416283D

 38 40  0  0  1  0  0  0  0  0999 V2000
  190.6280  175.8450  143.0770 C   0  0  0  0  0  3  0  0  0  0  0  0
  188.6420  177.1100  142.2170 C   0  0  1  0  0  3  0  0  0  0  0  0
  189.2970  175.9870  142.9760 C   0  0  0  0  0  3  0  0  0  0  0  0
  190.3420  176.7140  140.4500 O   0  0  0  0  0  0  0  0  0  0  0  0
  189.0070  177.1140  140.7140 C   0  0  2  0  0  3  0  0  0  0  0  0
  191.2090  177.5140  141.2150 C   0  0  0  0  0  2  0  0  0  0  0  0
  191.6540  176.7860  142.4880 C   0  0  0  0  0  2  0  0  0  0  0  0
  187.1930  177.1520  142.4490 N   0  0  0  0  0  2  0  0  0  0  0  0
  186.8860  177.3310  143.8700 C   0  0  1  0  0  3  0  0  0  0  0  0
  187.8270  178.3550  144.5010 C   0  0  0  0  0  2  0  0  0  0  0  0
  188.5480  178.0600  149.0090 O   0  0  0  0  0  1  0  0  0  0  0  0
  187.6790  177.5990  146.8640 C   0  0  0  0  0  3  0  0  0  0  0  0
  188.5860  177.1440  147.9580 C   0  0  1  0  0  3  0  0  0  0  0  0
  188.3990  177.8540  145.7830 C   0  0  0  0  0  0  0  0  0  0  0  0
  189.8120  177.6180  146.0220 C   0  0  0  0  0  3  0  0  0  0  0  0
  189.9150  177.2100  147.2800 C   0  0  0  0  0  0  0  0  0  0  0  0
  191.1130  176.8760  147.9140 O   0  0  0  0  0  0  0  0  0  0  0  0
  192.0380  175.9520  147.3570 C   0  0  0  0  0  1  0  0  0  0  0  0
  185.4330  177.7690  144.0470 C   0  0  0  0  0  2  0  0  0  0  0  0
  185.2070  179.2080  143.5930 C   0  0  0  0  0  2  0  0  0  0  0  0
  183.9820  179.7920  144.2700 C   0  0  0  0  0  2  0  0  0  0  0  0
  183.6820  179.0510  145.4820 N   0  0  0  0  0  1  0  0  0  0  0  0
  188.7160  178.4150  140.1170 N   0  0  0  0  0  2  0  0  0  0  0  0
  188.2620  178.1950  138.7510 C   0  0  2  0  0  3  0  0  0  0  0  0
  186.2080  177.3790  137.8460 O   0  0  0  0  0  0  0  0  0  0  0  0
  186.0090  178.8030  139.7040 N   0  0  0  0  0  2  0  0  0  0  0  0
  186.7720  178.0860  138.7250 C   0  0  0  0  0  0  0  0  0  0  0  0
  180.3020  179.1340  139.9810 C   0  0  0  0  0  1  0  0  0  0  0  0
  182.5000  179.8810  139.0620 C   0  0  0  0  0  3  0  0  0  0  0  0
  183.8530  178.0270  140.6550 C   0  0  0  0  0  3  0  0  0  0  0  0
  181.7830  179.0410  139.9190 C   0  0  0  0  0  0  0  0  0  0  0  0
  182.4590  178.1130  140.7150 C   0  0  0  0  0  3  0  0  0  0  0  0
  184.5800  178.8670  139.7980 C   0  0  0  0  0  0  0  0  0  0  0  0
  183.8940  179.7920  139.0030 C   0  0  0  0  0  3  0  0  0  0  0  0
  188.9160  176.9440  138.1760 C   0  0  0  0  0  2  0  0  0  0  0  0
  189.8390  177.2880  137.0180 C   0  0  0  0  0  2  0  0  0  0  0  0
  189.9930  176.1840  136.1810 O   0  0  0  0  0  0  0  0  0  0  0  0
  189.5370  175.1050  136.9350 C   0  0  0  0  0  1  0  0  0  0  0  0
  2  8  1  6  0  0  0
  2  3  1  0  0  0  0
  3  1  2  0  0  0  0
  4  5  1  0  0  0  0
  4  6  1  0  0  0  0
  5 23  1  1  0  0  0
  5  2  1  0  0  0  0
  6  7  1  0  0  0  0
  7  1  1  0  0  0  0
  8  9  1  0  0  0  0
  9 19  1  6  0  0  0
  9 10  1  0  0  0  0
 10 14  1  0  0  0  0
 12 13  1  0  0  0  0
 13 11  1  1  0  0  0
 14 15  1  0  0  0  0
 14 12  2  0  0  0  0
 15 16  2  0  0  0  0
 16 17  1  0  0  0  0
 16 13  1  0  0  0  0
 18 17  1  0  0  0  0
 20 19  1  0  0  0  0
 20 21  1  0  0  0  0
 21 22  1  0  0  0  0
 24 35  1  1  0  0  0
 24 23  1  0  0  0  0
 25 27  2  0  0  0  0
 26 33  1  0  0  0  0
 27 24  1  0  0  0  0
 27 26  1  0  0  0  0
 29 31  1  0  0  0  0
 30 32  1  0  0  0  0
 31 28  1  0  0  0  0
 31 32  2  0  0  0  0
 33 30  2  0  0  0  0
 34 29  2  0  0  0  0
 34 33  1  0  0  0  0
 36 35  1  0  0  0  0
 37 38  1  0  0  0  0
 37 36  1  0  0  0  0
M  END
>  <MODEL>
1

>  <REMARK>
 VINA RESULT:      -7.5      0.000      0.000
  Name = 
  15 active torsions:
  status: ('A' for Active; 'I' for Inactive)
    1  A    between atoms: O_5  and  C_12
    2  A    between atoms: C_6  and  N_14
    3  A    between atoms: C_9  and  C_13
    4  A    between atoms: C_9  and  C_23
    5  A    between atoms: C_10  and  C_16
    6  A    between atoms: C_10  and  N_30
    7  A    between atoms: C_10  and  C_38
    8  A    between atoms: C_12  and  C_16
    9  A    between atoms: N_14  and  C_28
   10  A    between atoms: C_15  and  C_24
   11  A    between atoms: C_15  and  C_28
   12  A    between atoms: O_22  and  C_36
   13  A    between atoms: C_23  and  C_28
   14  A    between atoms: C_25  and  N_30
   15  A    between atoms: N_27  and  C_29
                            x       y       z     vdW  Elec       q    Type
                         _______ _______ _______ _____ _____    ______ ____

>  <TORSDO>
F 15

$$$$
=
 OpenBabel10222416283D

 38 40  0  0  1  0  0  0  0  0999 V2000
  183.3590  178.6720  144.3750 C   0  0  0  0  0  3  0  0  0  0  0  0
  184.6490  179.1330  142.2760 C   0  0  1  0  0  3  0  0  0  0  0  0
  183.4040  178.7620  143.0370 C   0  0  0  0  0  3  0  0  0  0  0  0
  185.8670  177.6090  143.8140 O   0  0  0  0  0  0  0  0  0  0  0  0
  185.8090  178.1340  142.4970 C   0  0  2  0  0  3  0  0  0  0  0  0
  185.9020  178.6820  144.7220 C   0  0  0  0  0  2  0  0  0  0  0  0
  184.5130  178.9550  145.3090 C   0  0  0  0  0  2  0  0  0  0  0  0
  184.3690  179.3720  140.8550 N   0  0  0  0  0  2  0  0  0  0  0  0
  184.2460  178.1130  140.1180 C   0  0  1  0  0  3  0  0  0  0  0  0
  182.7790  177.7770  139.8620 C   0  0  0  0  0  2  0  0  0  0  0  0
  181.9330  182.0460  138.4540 O   0  0  0  0  0  1  0  0  0  0  0  0
  182.1330  179.6950  138.4200 C   0  0  0  0  0  3  0  0  0  0  0  0
  181.2000  180.8600  138.4490 C   0  0  1  0  0  3  0  0  0  0  0  0
  181.9880  178.9970  139.5350 C   0  0  0  0  0  0  0  0  0  0  0  0
  180.9900  179.5940  140.4050 C   0  0  0  0  0  3  0  0  0  0  0  0
  180.5400  180.6700  139.7740 C   0  0  0  0  0  0  0  0  0  0  0  0
  179.5640  181.5360  140.2720 O   0  0  0  0  0  0  0  0  0  0  0  0
  178.9320  181.3300  141.5280 C   0  0  0  0  0  1  0  0  0  0  0  0
  185.0080  178.1960  138.7960 C   0  0  0  0  0  2  0  0  0  0  0  0
  184.7320  176.9940  137.8970 C   0  0  0  0  0  2  0  0  0  0  0  0
  184.8250  177.3910  136.4360 C   0  0  0  0  0  2  0  0  0  0  0  0
  186.0500  176.8700  135.8560 N   0  0  0  0  0  1  0  0  0  0  0  0
  187.0840  178.7320  142.1080 N   0  0  0  0  0  2  0  0  0  0  0  0
  187.9280  177.6810  141.5560 C   0  0  2  0  0  3  0  0  0  0  0  0
  188.4040  175.7380  142.8600 O   0  0  0  0  0  0  0  0  0  0  0  0
  189.5440  177.6920  143.4910 N   0  0  0  0  0  2  0  0  0  0  0  0
  188.6290  176.9620  142.6630 C   0  0  0  0  0  0  0  0  0  0  0  0
  192.2980  175.7270  148.1070 C   0  0  0  0  0  1  0  0  0  0  0  0
  190.4380  177.0080  147.0430 C   0  0  0  0  0  3  0  0  0  0  0  0
  191.4160  176.4120  144.4950 C   0  0  0  0  0  3  0  0  0  0  0  0
  191.5930  176.2340  146.9020 C   0  0  0  0  0  0  0  0  0  0  0  0
  192.0820  175.9340  145.6280 C   0  0  0  0  0  3  0  0  0  0  0  0
  190.2570  177.1910  144.6290 C   0  0  0  0  0  0  0  0  0  0  0  0
  189.7740  177.4840  145.9080 C   0  0  0  0  0  3  0  0  0  0  0  0
  188.9240  178.2730  140.5670 C   0  0  0  0  0  2  0  0  0  0  0  0
  188.4060  178.1780  139.1410 C   0  0  0  0  0  2  0  0  0  0  0  0
  188.9770  179.1770  138.3540 O   0  0  0  0  0  0  0  0  0  0  0  0
  188.9830  178.6480  137.0640 C   0  0  0  0  0  1  0  0  0  0  0  0
  1  7  1  0  0  0  0
  2  8  1  6  0  0  0
  2  5  1  0  0  0  0
  2  3  1  0  0  0  0
  3  1  2  0  0  0  0
  4  6  1  0  0  0  0
  5 23  1  1  0  0  0
  5  4  1  0  0  0  0
  6  7  1  0  0  0  0
  9 19  1  6  0  0  0
  9  8  1  0  0  0  0
 10  9  1  0  0  0  0
 12 13  1  0  0  0  0
 12 14  2  0  0  0  0
 13 11  1  1  0  0  0
 13 16  1  0  0  0  0
 14 10  1  0  0  0  0
 14 15  1  0  0  0  0
 16 17  1  0  0  0  0
 16 15  2  0  0  0  0
 17 18  1  0  0  0  0
 20 19  1  0  0  0  0
 21 20  1  0  0  0  0
 22 21  1  0  0  0  0
 24 35  1  6  0  0  0
 24 23  1  0  0  0  0
 24 27  1  0  0  0  0
 26 33  1  0  0  0  0
 27 25  2  0  0  0  0
 27 26  1  0  0  0  0
 30 33  2  0  0  0  0
 30 32  1  0  0  0  0
 31 29  1  0  0  0  0
 31 28  1  0  0  0  0
 32 31  2  0  0  0  0
 33 34  1  0  0  0  0
 34 29  2  0  0  0  0
 36 35  1  0  0  0  0
 37 36  1  0  0  0  0
 38 37  1  0  0  0  0
M  END
>  <MODEL>
2

>  <REMARK>
 VINA RESULT:      -7.1      2.601      8.619
  Name = 
  15 active torsions:
  status: ('A' for Active; 'I' for Inactive)
    1  A    between atoms: O_5  and  C_12
    2  A    between atoms: C_6  and  N_14
    3  A    between atoms: C_9  and  C_13
    4  A    between atoms: C_9  and  C_23
    5  A    between atoms: C_10  and  C_16
    6  A    between atoms: C_10  and  N_30
    7  A    between atoms: C_10  and  C_38
    8  A    between atoms: C_12  and  C_16
    9  A    between atoms: N_14  and  C_28
   10  A    between atoms: C_15  and  C_24
   11  A    between atoms: C_15  and  C_28
   12  A    between atoms: O_22  and  C_36
   13  A    between atoms: C_23  and  C_28
   14  A    between atoms: C_25  and  N_30
   15  A    between atoms: N_27  and  C_29
                            x       y       z     vdW  Elec       q    Type
                         _______ _______ _______ _____ _____    ______ ____

>  <TORSDO>
F 15

$$$$
=
 OpenBabel10222416283D

 38 40  0  0  1  0  0  0  0  0999 V2000
  184.1250  179.7010  144.3260 C   0  0  0  0  0  3  0  0  0  0  0  0
  184.9560  178.6010  142.2330 C   0  0  1  0  0  3  0  0  0  0  0  0
  185.0580  179.5820  143.3690 C   0  0  0  0  0  3  0  0  0  0  0  0
  182.5710  179.2730  142.0590 O   0  0  0  0  0  0  0  0  0  0  0  0
  183.7150  178.8400  141.3400 C   0  0  2  0  0  3  0  0  0  0  0  0
  182.3190  178.3550  143.0940 C   0  0  0  0  0  2  0  0  0  0  0  0
  182.8700  178.8640  144.4300 C   0  0  0  0  0  2  0  0  0  0  0  0
  186.2030  178.5270  141.4610 N   0  0  0  0  0  2  0  0  0  0  0  0
  187.3660  178.3920  142.3410 C   0  0  1  0  0  3  0  0  0  0  0  0
  187.3480  177.0430  143.0560 C   0  0  0  0  0  2  0  0  0  0  0  0
  186.7470  178.6600  147.2930 O   0  0  0  0  0  1  0  0  0  0  0  0
  186.5830  177.2450  145.4120 C   0  0  0  0  0  3  0  0  0  0  0  0
  187.1670  177.4370  146.7720 C   0  0  1  0  0  3  0  0  0  0  0  0
  187.5620  177.2000  144.5230 C   0  0  0  0  0  0  0  0  0  0  0  0
  188.8590  177.3590  145.1570 C   0  0  0  0  0  3  0  0  0  0  0  0
  188.6250  177.4980  146.4560 C   0  0  0  0  0  0  0  0  0  0  0  0
  189.6100  177.6790  147.4280 O   0  0  0  0  0  0  0  0  0  0  0  0
  190.8020  176.9050  147.4580 C   0  0  0  0  0  1  0  0  0  0  0  0
  188.6570  178.5490  141.5390 C   0  0  0  0  0  2  0  0  0  0  0  0
  189.3730  177.2160  141.3370 C   0  0  0  0  0  2  0  0  0  0  0  0
  190.8570  177.3640  141.6110 C   0  0  0  0  0  2  0  0  0  0  0  0
  191.2430  176.5220  142.7290 N   0  0  0  0  0  1  0  0  0  0  0  0
  183.4210  177.6550  140.5390 N   0  0  0  0  0  2  0  0  0  0  0  0
  183.2480  178.0760  139.1550 C   0  0  2  0  0  3  0  0  0  0  0  0
  184.2020  176.3260  137.8400 O   0  0  0  0  0  0  0  0  0  0  0  0
  185.5090  178.2660  138.0570 N   0  0  0  0  0  2  0  0  0  0  0  0
  184.3310  177.4890  138.3100 C   0  0  0  0  0  0  0  0  0  0  0  0
  190.1890  176.5570  135.2400 C   0  0  0  0  0  1  0  0  0  0  0  0
  188.9170  176.9330  137.3560 C   0  0  0  0  0  3  0  0  0  0  0  0
  186.7290  177.9190  135.9250 C   0  0  0  0  0  3  0  0  0  0  0  0
  188.9700  177.0060  135.9610 C   0  0  0  0  0  0  0  0  0  0  0  0
  187.8760  177.4980  135.2450 C   0  0  0  0  0  3  0  0  0  0  0  0
  186.6690  177.8510  137.3250 C   0  0  0  0  0  0  0  0  0  0  0  0
  187.7690  177.3540  138.0330 C   0  0  0  0  0  3  0  0  0  0  0  0
  183.2430  179.5970  139.0660 C   0  0  0  0  0  2  0  0  0  0  0  0
  182.0030  180.1020  138.3460 C   0  0  0  0  0  2  0  0  0  0  0  0
  181.8270  181.4640  138.5890 O   0  0  0  0  0  0  0  0  0  0  0  0
  180.4940  181.7100  138.2640 C   0  0  0  0  0  1  0  0  0  0  0  0
  1  7  1  0  0  0  0
  2  8  1  6  0  0  0
  2  3  1  0  0  0  0
  3  1  2  0  0  0  0
  4  6  1  0  0  0  0
  5 23  1  1  0  0  0
  5  4  1  0  0  0  0
  5  2  1  0  0  0  0
  6  7  1  0  0  0  0
  8  9  1  0  0  0  0
  9 19  1  6  0  0  0
  9 10  1  0  0  0  0
 10 14  1  0  0  0  0
 12 13  1  0  0  0  0
 13 11  1  6  0  0  0
 14 15  1  0  0  0  0
 14 12  2  0  0  0  0
 15 16  2  0  0  0  0
 16 13  1  0  0  0  0
 16 17  1  0  0  0  0
 17 18  1  0  0  0  0
 20 19  1  0  0  0  0
 20 21  1  0  0  0  0
 21 22  1  0  0  0  0
 24 35  1  1  0  0  0
 24 23  1  0  0  0  0
 25 27  2  0  0  0  0
 26 27  1  0  0  0  0
 27 24  1  0  0  0  0
 28 31  1  0  0  0  0
 29 34  1  0  0  0  0
 30 33  1  0  0  0  0
 31 29  2  0  0  0  0
 32 30  2  0  0  0  0
 32 31  1  0  0  0  0
 33 34  2  0  0  0  0
 33 26  1  0  0  0  0
 36 37  1  0  0  0  0
 36 35  1  0  0  0  0
 38 37  1  0  0  0  0
M  END
>  <MODEL>
3

>  <REMARK>
 VINA RESULT:      -7.1      2.202      6.004
  Name = 
  15 active torsions:
  status: ('A' for Active; 'I' for Inactive)
    1  A    between atoms: O_5  and  C_12
    2  A    between atoms: C_6  and  N_14
    3  A    between atoms: C_9  and  C_13
    4  A    between atoms: C_9  and  C_23
    5  A    between atoms: C_10  and  C_16
    6  A    between atoms: C_10  and  N_30
    7  A    between atoms: C_10  and  C_38
    8  A    between atoms: C_12  and  C_16
    9  A    between atoms: N_14  and  C_28
   10  A    between atoms: C_15  and  C_24
   11  A    between atoms: C_15  and  C_28
   12  A    between atoms: O_22  and  C_36
   13  A    between atoms: C_23  and  C_28
   14  A    between atoms: C_25  and  N_30
   15  A    between atoms: N_27  and  C_29
                            x       y       z     vdW  Elec       q    Type
                         _______ _______ _______ _____ _____    ______ ____

>  <TORSDO>
F 15

$$$$
=
 OpenBabel10222416283D

 38 40  0  0  1  0  0  0  0  0999 V2000
  188.2250  176.1370  136.2440 C   0  0  0  0  0  3  0  0  0  0  0  0
  187.6680  177.2940  138.3960 C   0  0  1  0  0  3  0  0  0  0  0  0
  188.1810  176.1360  137.5850 C   0  0  0  0  0  3  0  0  0  0  0  0
  185.8220  177.4470  136.7410 O   0  0  0  0  0  0  0  0  0  0  0  0
  186.1860  177.6270  138.1000 C   0  0  2  0  0  3  0  0  0  0  0  0
  186.7090  178.1870  135.9390 C   0  0  0  0  0  2  0  0  0  0  0  0
  187.8080  177.2900  135.3580 C   0  0  0  0  0  2  0  0  0  0  0  0
  187.9340  177.1180  139.8290 N   0  0  0  0  0  2  0  0  0  0  0  0
  189.2840  177.5640  140.1790 C   0  0  1  0  0  3  0  0  0  0  0  0
  189.9720  176.5460  141.0850 C   0  0  0  0  0  2  0  0  0  0  0  0
  191.6160  179.4600  144.2050 O   0  0  0  0  0  1  0  0  0  0  0  0
  190.1030  178.3970  142.7390 C   0  0  0  0  0  3  0  0  0  0  0  0
  190.5120  178.6090  144.1590 C   0  0  1  0  0  3  0  0  0  0  0  0
  190.2590  177.1190  142.4310 C   0  0  0  0  0  0  0  0  0  0  0  0
  190.7770  176.3630  143.5580 C   0  0  0  0  0  3  0  0  0  0  0  0
  190.9230  177.2290  144.5520 C   0  0  0  0  0  0  0  0  0  0  0  0
  191.4020  176.9090  145.8240 O   0  0  0  0  0  0  0  0  0  0  0  0
  190.5660  176.8970  146.9730 C   0  0  0  0  0  1  0  0  0  0  0  0
  190.1120  177.7900  138.9140 C   0  0  0  0  0  2  0  0  0  0  0  0
  191.4730  177.1050  138.9890 C   0  0  0  0  0  2  0  0  0  0  0  0
  191.7100  176.2580  137.7530 C   0  0  0  0  0  2  0  0  0  0  0  0
  191.4660  174.8590  138.0540 N   0  0  0  0  0  1  0  0  0  0  0  0
  185.8590  178.9730  138.5630 N   0  0  0  0  0  2  0  0  0  0  0  0
  184.8210  178.8620  139.5790 C   0  0  2  0  0  3  0  0  0  0  0  0
  186.4080  179.7650  141.1180 O   0  0  0  0  0  0  0  0  0  0  0  0
  184.8840  178.2180  142.0150 N   0  0  0  0  0  2  0  0  0  0  0  0
  185.4280  178.9920  140.9380 C   0  0  0  0  0  0  0  0  0  0  0  0
  186.9290  177.9670  147.3550 C   0  0  0  0  0  1  0  0  0  0  0  0
  187.1030  177.4720  144.9140 C   0  0  0  0  0  3  0  0  0  0  0  0
  184.6570  178.7310  144.4320 C   0  0  0  0  0  3  0  0  0  0  0  0
  186.3880  178.0360  145.9740 C   0  0  0  0  0  0  0  0  0  0  0  0
  185.1650  178.6660  145.7330 C   0  0  0  0  0  3  0  0  0  0  0  0
  185.3680  178.1660  143.3630 C   0  0  0  0  0  0  0  0  0  0  0  0
  186.5930  177.5380  143.6130 C   0  0  0  0  0  3  0  0  0  0  0  0
  184.0810  177.5380  139.4310 C   0  0  0  0  0  2  0  0  0  0  0  0
  182.6470  177.7570  138.9750 C   0  0  0  0  0  2  0  0  0  0  0  0
  182.1340  176.5850  138.4220 O   0  0  0  0  0  0  0  0  0  0  0  0
  181.7620  175.8110  139.5200 C   0  0  0  0  0  1  0  0  0  0  0  0
  1  3  2  0  0  0  0
  2  8  1  1  0  0  0
  3  2  1  0  0  0  0
  4  5  1  0  0  0  0
  5  2  1  0  0  0  0
  5 23  1  6  0  0  0
  6  4  1  0  0  0  0
  7  6  1  0  0  0  0
  7  1  1  0  0  0  0
  8  9  1  0  0  0  0
  9 19  1  6  0  0  0
  9 10  1  0  0  0  0
 10 14  1  0  0  0  0
 12 13  1  0  0  0  0
 13 11  1  6  0  0  0
 13 16  1  0  0  0  0
 14 12  2  0  0  0  0
 14 15  1  0  0  0  0
 15 16  2  0  0  0  0
 16 17  1  0  0  0  0
 17 18  1  0  0  0  0
 19 20  1  0  0  0  0
 21 22  1  0  0  0  0
 21 20  1  0  0  0  0
 23 24  1  0  0  0  0
 24 35  1  1  0  0  0
 24 27  1  0  0  0  0
 26 33  1  0  0  0  0
 27 25  2  0  0  0  0
 27 26  1  0  0  0  0
 29 31  1  0  0  0  0
 30 32  1  0  0  0  0
 31 28  1  0  0  0  0
 32 31  2  0  0  0  0
 33 34  1  0  0  0  0
 33 30  2  0  0  0  0
 34 29  2  0  0  0  0
 36 35  1  0  0  0  0
 37 36  1  0  0  0  0
 37 38  1  0  0  0  0
M  END
>  <MODEL>
4

>  <REMARK>
 VINA RESULT:      -7.1      2.131      6.014
  Name = 
  15 active torsions:
  status: ('A' for Active; 'I' for Inactive)
    1  A    between atoms: O_5  and  C_12
    2  A    between atoms: C_6  and  N_14
    3  A    between atoms: C_9  and  C_13
    4  A    between atoms: C_9  and  C_23
    5  A    between atoms: C_10  and  C_16
    6  A    between atoms: C_10  and  N_30
    7  A    between atoms: C_10  and  C_38
    8  A    between atoms: C_12  and  C_16
    9  A    between atoms: N_14  and  C_28
   10  A    between atoms: C_15  and  C_24
   11  A    between atoms: C_15  and  C_28
   12  A    between atoms: O_22  and  C_36
   13  A    between atoms: C_23  and  C_28
   14  A    between atoms: C_25  and  N_30
   15  A    between atoms: N_27  and  C_29
                            x       y       z     vdW  Elec       q    Type
                         _______ _______ _______ _____ _____    ______ ____

>  <TORSDO>
F 15

$$$$
=
 OpenBabel10222416283D

 38 40  0  0  1  0  0  0  0  0999 V2000
  190.4750  176.5380  139.2620 C   0  0  0  0  0  3  0  0  0  0  0  0
  188.4590  177.9320  139.7850 C   0  0  1  0  0  3  0  0  0  0  0  0
  189.4910  176.8850  140.1050 C   0  0  0  0  0  3  0  0  0  0  0  0
  188.3350  176.9090  137.5240 O   0  0  0  0  0  0  0  0  0  0  0  0
  187.6070  177.5770  138.5430 C   0  0  2  0  0  3  0  0  0  0  0  0
  189.4620  177.6840  137.2000 C   0  0  0  0  0  2  0  0  0  0  0  0
  190.7170  177.1550  137.9020 C   0  0  0  0  0  2  0  0  0  0  0  0
  187.6400  178.2670  140.9570 N   0  0  0  0  0  2  0  0  0  0  0  0
  188.1670  177.6430  142.1710 C   0  0  1  0  0  3  0  0  0  0  0  0
  189.0340  178.6280  142.9530 C   0  0  0  0  0  2  0  0  0  0  0  0
  191.8650  175.2420  144.1550 O   0  0  0  0  0  1  0  0  0  0  0  0
  191.0590  177.1960  143.1050 C   0  0  0  0  0  3  0  0  0  0  0  0
  191.9620  176.6330  144.1520 C   0  0  1  0  0  3  0  0  0  0  0  0
  190.1260  177.9300  143.6890 C   0  0  0  0  0  0  0  0  0  0  0  0
  190.2840  177.9360  145.1330 C   0  0  0  0  0  3  0  0  0  0  0  0
  191.3450  177.1830  145.3950 C   0  0  0  0  0  0  0  0  0  0  0  0
  191.8420  176.9250  146.6730 O   0  0  0  0  0  0  0  0  0  0  0  0
  192.1700  175.6140  147.1140 C   0  0  0  0  0  1  0  0  0  0  0  0
  187.0220  177.1360  143.0470 C   0  0  0  0  0  2  0  0  0  0  0  0
  186.5730  178.1790  144.0650 C   0  0  0  0  0  2  0  0  0  0  0  0
  186.4190  177.5500  145.4370 C   0  0  0  0  0  2  0  0  0  0  0  0
  185.6410  178.4200  146.3000 N   0  0  0  0  0  1  0  0  0  0  0  0
  186.9360  178.7660  138.0230 N   0  0  0  0  0  2  0  0  0  0  0  0
  185.5570  178.4100  137.7170 C   0  0  2  0  0  3  0  0  0  0  0  0
  184.5530  180.1280  139.0370 O   0  0  0  0  0  0  0  0  0  0  0  0
  183.9330  177.9290  139.5840 N   0  0  0  0  0  2  0  0  0  0  0  0
  184.6570  178.8920  138.8080 C   0  0  0  0  0  0  0  0  0  0  0  0
  180.6110  179.0360  144.1110 C   0  0  0  0  0  1  0  0  0  0  0  0
  182.8540  178.7290  143.0600 C   0  0  0  0  0  3  0  0  0  0  0  0
  181.6780  178.2170  140.5780 C   0  0  0  0  0  3  0  0  0  0  0  0
  181.4630  178.7450  142.9300 C   0  0  0  0  0  0  0  0  0  0  0  0
  180.8750  178.4900  141.6890 C   0  0  0  0  0  3  0  0  0  0  0  0
  183.0760  178.1980  140.7010 C   0  0  0  0  0  0  0  0  0  0  0  0
  183.6560  178.4560  141.9470 C   0  0  0  0  0  3  0  0  0  0  0  0
  185.4340  176.9030  137.5280 C   0  0  0  0  0  2  0  0  0  0  0  0
  185.0420  176.5570  136.1010 C   0  0  0  0  0  2  0  0  0  0  0  0
  185.8020  175.4840  135.6390 O   0  0  0  0  0  0  0  0  0  0  0  0
  185.3920  174.4020  136.4160 C   0  0  0  0  0  1  0  0  0  0  0  0
  1  3  2  0  0  0  0
  2  3  1  0  0  0  0
  2  8  1  1  0  0  0
  4  5  1  0  0  0  0
  5 23  1  6  0  0  0
  5  2  1  0  0  0  0
  6  4  1  0  0  0  0
  6  7  1  0  0  0  0
  7  1  1  0  0  0  0
  8  9  1  0  0  0  0
  9 10  1  1  0  0  0
  9 19  1  0  0  0  0
 10 14  1  0  0  0  0
 12 14  2  0  0  0  0
 12 13  1  0  0  0  0
 13 11  1  1  0  0  0
 13 16  1  0  0  0  0
 14 15  1  0  0  0  0
 15 16  2  0  0  0  0
 16 17  1  0  0  0  0
 17 18  1  0  0  0  0
 19 20  1  0  0  0  0
 20 21  1  0  0  0  0
 21 22  1  0  0  0  0
 24 35  1  1  0  0  0
 24 23  1  0  0  0  0
 24 27  1  0  0  0  0
 26 33  1  0  0  0  0
 27 25  2  0  0  0  0
 27 26  1  0  0  0  0
 30 33  2  0  0  0  0
 30 32  1  0  0  0  0
 31 29  1  0  0  0  0
 31 28  1  0  0  0  0
 32 31  2  0  0  0  0
 33 34  1  0  0  0  0
 34 29  2  0  0  0  0
 36 35  1  0  0  0  0
 37 36  1  0  0  0  0
 37 38  1  0  0  0  0
M  END
>  <MODEL>
5

>  <REMARK>
 VINA RESULT:      -7.0      2.029      3.310
  Name = 
  15 active torsions:
  status: ('A' for Active; 'I' for Inactive)
    1  A    between atoms: O_5  and  C_12
    2  A    between atoms: C_6  and  N_14
    3  A    between atoms: C_9  and  C_13
    4  A    between atoms: C_9  and  C_23
    5  A    between atoms: C_10  and  C_16
    6  A    between atoms: C_10  and  N_30
    7  A    between atoms: C_10  and  C_38
    8  A    between atoms: C_12  and  C_16
    9  A    between atoms: N_14  and  C_28
   10  A    between atoms: C_15  and  C_24
   11  A    between atoms: C_15  and  C_28
   12  A    between atoms: O_22  and  C_36
   13  A    between atoms: C_23  and  C_28
   14  A    between atoms: C_25  and  N_30
   15  A    between atoms: N_27  and  C_29
                            x       y       z     vdW  Elec       q    Type
                         _______ _______ _______ _____ _____    ______ ____

>  <TORSDO>
F 15

$$$$
=
 OpenBabel10222416283D

 38 40  0  0  1  0  0  0  0  0999 V2000
  183.4260  178.6320  144.4980 C   0  0  0  0  0  3  0  0  0  0  0  0
  184.6840  179.1160  142.3860 C   0  0  1  0  0  3  0  0  0  0  0  0
  183.4460  178.7560  143.1630 C   0  0  0  0  0  3  0  0  0  0  0  0
  185.8950  177.5220  143.8580 O   0  0  0  0  0  0  0  0  0  0  0  0
  185.8230  178.0830  142.5560 C   0  0  2  0  0  3  0  0  0  0  0  0
  185.9750  178.5700  144.7920 C   0  0  0  0  0  2  0  0  0  0  0  0
  184.6060  178.8610  145.4150 C   0  0  0  0  0  2  0  0  0  0  0  0
  184.3810  179.3980  140.9770 N   0  0  0  0  0  2  0  0  0  0  0  0
  184.3450  178.1690  140.1830 C   0  0  1  0  0  3  0  0  0  0  0  0
  182.9070  177.7850  139.8450 C   0  0  0  0  0  2  0  0  0  0  0  0
  179.0920  180.3030  139.6560 O   0  0  0  0  0  1  0  0  0  0  0  0
  181.0820  179.3460  140.4870 C   0  0  0  0  0  3  0  0  0  0  0  0
  180.4230  180.5800  139.9670 C   0  0  1  0  0  3  0  0  0  0  0  0
  182.0500  178.9900  139.6570 C   0  0  0  0  0  0  0  0  0  0  0  0
  182.1390  179.9000  138.5280 C   0  0  0  0  0  3  0  0  0  0  0  0
  181.1960  180.8150  138.7120 C   0  0  0  0  0  0  0  0  0  0  0  0
  180.9410  181.8800  137.8460 O   0  0  0  0  0  0  0  0  0  0  0  0
  180.8120  181.7070  136.4410 C   0  0  0  0  0  1  0  0  0  0  0  0
  185.1610  178.3400  138.9030 C   0  0  0  0  0  2  0  0  0  0  0  0
  185.0240  177.1420  137.9690 C   0  0  0  0  0  2  0  0  0  0  0  0
  185.4940  177.5010  136.5720 C   0  0  0  0  0  2  0  0  0  0  0  0
  186.7460  178.2320  136.6400 N   0  0  0  0  0  1  0  0  0  0  0  0
  187.1040  178.6590  142.1560 N   0  0  0  0  0  2  0  0  0  0  0  0
  187.9300  177.5900  141.6100 C   0  0  2  0  0  3  0  0  0  0  0  0
  188.5670  175.6480  142.8460 O   0  0  0  0  0  0  0  0  0  0  0  0
  189.4450  177.6840  143.6230 N   0  0  0  0  0  2  0  0  0  0  0  0
  188.6580  176.8990  142.7170 C   0  0  0  0  0  0  0  0  0  0  0  0
  192.3930  175.7530  148.1330 C   0  0  0  0  0  1  0  0  0  0  0  0
  192.0590  175.9930  145.6700 C   0  0  0  0  0  3  0  0  0  0  0  0
  189.7240  177.4710  146.0790 C   0  0  0  0  0  3  0  0  0  0  0  0
  191.6190  176.2560  146.9700 C   0  0  0  0  0  0  0  0  0  0  0  0
  190.4510  176.9970  147.1740 C   0  0  0  0  0  3  0  0  0  0  0  0
  190.1600  177.2080  144.7710 C   0  0  0  0  0  0  0  0  0  0  0  0
  191.3310  176.4680  144.5760 C   0  0  0  0  0  3  0  0  0  0  0  0
  188.9020  178.1530  140.5800 C   0  0  0  0  0  2  0  0  0  0  0  0
  188.7680  177.4330  139.2470 C   0  0  0  0  0  2  0  0  0  0  0  0
  190.0280  177.2090  138.6930 O   0  0  0  0  0  0  0  0  0  0  0  0
  190.8380  176.8880  139.7800 C   0  0  0  0  0  1  0  0  0  0  0  0
  1  7  1  0  0  0  0
  2  8  1  6  0  0  0
  2  5  1  0  0  0  0
  2  3  1  0  0  0  0
  3  1  2  0  0  0  0
  4  6  1  0  0  0  0
  5 23  1  1  0  0  0
  5  4  1  0  0  0  0
  6  7  1  0  0  0  0
  9 19  1  6  0  0  0
  9  8  1  0  0  0  0
 10  9  1  0  0  0  0
 13 11  1  6  0  0  0
 13 12  1  0  0  0  0
 14 10  1  0  0  0  0
 14 12  2  0  0  0  0
 15 16  2  0  0  0  0
 15 14  1  0  0  0  0
 16 13  1  0  0  0  0
 17 16  1  0  0  0  0
 18 17  1  0  0  0  0
 20 19  1  0  0  0  0
 21 22  1  0  0  0  0
 21 20  1  0  0  0  0
 24 35  1  6  0  0  0
 24 23  1  0  0  0  0
 24 27  1  0  0  0  0
 26 33  1  0  0  0  0
 27 25  2  0  0  0  0
 27 26  1  0  0  0  0
 29 31  1  0  0  0  0
 30 32  1  0  0  0  0
 31 32  2  0  0  0  0
 31 28  1  0  0  0  0
 33 30  2  0  0  0  0
 34 33  1  0  0  0  0
 34 29  2  0  0  0  0
 36 35  1  0  0  0  0
 37 36  1  0  0  0  0
 37 38  1  0  0  0  0
M  END
>  <MODEL>
6

>  <REMARK>
 VINA RESULT:      -7.0      2.521      8.649
  Name = 
  15 active torsions:
  status: ('A' for Active; 'I' for Inactive)
    1  A    between atoms: O_5  and  C_12
    2  A    between atoms: C_6  and  N_14
    3  A    between atoms: C_9  and  C_13
    4  A    between atoms: C_9  and  C_23
    5  A    between atoms: C_10  and  C_16
    6  A    between atoms: C_10  and  N_30
    7  A    between atoms: C_10  and  C_38
    8  A    between atoms: C_12  and  C_16
    9  A    between atoms: N_14  and  C_28
   10  A    between atoms: C_15  and  C_24
   11  A    between atoms: C_15  and  C_28
   12  A    between atoms: O_22  and  C_36
   13  A    between atoms: C_23  and  C_28
   14  A    between atoms: C_25  and  N_30
   15  A    between atoms: N_27  and  C_29
                            x       y       z     vdW  Elec       q    Type
                         _______ _______ _______ _____ _____    ______ ____

>  <TORSDO>
F 15

$$$$
=
 OpenBabel10222416283D

 38 40  0  0  1  0  0  0  0  0999 V2000
  186.0900  178.7920  145.8110 C   0  0  0  0  0  3  0  0  0  0  0  0
  186.0830  177.8330  143.4960 C   0  0  1  0  0  3  0  0  0  0  0  0
  186.7520  178.4420  144.6980 C   0  0  0  0  0  3  0  0  0  0  0  0
  184.2910  179.5220  143.8190 O   0  0  0  0  0  0  0  0  0  0  0  0
  185.0150  178.7590  142.8670 C   0  0  2  0  0  3  0  0  0  0  0  0
  183.7460  178.6440  144.7740 C   0  0  0  0  0  2  0  0  0  0  0  0
  184.6070  178.6020  146.0410 C   0  0  0  0  0  2  0  0  0  0  0  0
  187.0620  177.3480  142.5140 N   0  0  0  0  0  2  0  0  0  0  0  0
  188.4280  177.6950  142.9090 C   0  0  1  0  0  3  0  0  0  0  0  0
  189.2000  176.4490  143.3360 C   0  0  0  0  0  2  0  0  0  0  0  0
  192.1050  175.6180  146.7710 O   0  0  0  0  0  1  0  0  0  0  0  0
  191.2440  176.4800  144.7500 C   0  0  0  0  0  3  0  0  0  0  0  0
  191.6310  176.7790  146.1600 C   0  0  1  0  0  3  0  0  0  0  0  0
  189.9420  176.6750  144.6080 C   0  0  0  0  0  0  0  0  0  0  0  0
  189.3330  177.0990  145.8570 C   0  0  0  0  0  3  0  0  0  0  0  0
  190.3120  177.1550  146.7500 C   0  0  0  0  0  0  0  0  0  0  0  0
  190.1510  177.5220  148.0870 O   0  0  0  0  0  0  0  0  0  0  0  0
  188.9460  178.0910  148.5820 C   0  0  0  0  0  1  0  0  0  0  0  0
  189.1500  178.3950  141.7580 C   0  0  0  0  0  2  0  0  0  0  0  0
  189.8120  177.4030  140.8060 C   0  0  0  0  0  2  0  0  0  0  0  0
  189.4030  177.6890  139.3740 C   0  0  0  0  0  2  0  0  0  0  0  0
  188.7580  178.9870  139.2900 N   0  0  0  0  0  1  0  0  0  0  0  0
  184.1170  177.9980  142.0030 N   0  0  0  0  0  2  0  0  0  0  0  0
  183.6340  178.8870  140.9560 C   0  0  2  0  0  3  0  0  0  0  0  0
  181.6790  178.8400  139.5860 O   0  0  0  0  0  0  0  0  0  0  0  0
  182.6980  176.7610  139.9780 N   0  0  0  0  0  2  0  0  0  0  0  0
  182.6080  178.1830  140.1290 C   0  0  0  0  0  0  0  0  0  0  0  0
  178.9420  173.3910  137.2770 C   0  0  0  0  0  1  0  0  0  0  0  0
  179.6940  174.6680  139.2870 C   0  0  0  0  0  3  0  0  0  0  0  0
  182.0030  175.5040  137.9550 C   0  0  0  0  0  3  0  0  0  0  0  0
  179.9250  174.2630  137.9690 C   0  0  0  0  0  0  0  0  0  0  0  0
  181.0790  174.6820  137.3030 C   0  0  0  0  0  3  0  0  0  0  0  0
  181.7780  175.9120  139.2790 C   0  0  0  0  0  0  0  0  0  0  0  0
  180.6190  175.4900  139.9370 C   0  0  0  0  0  3  0  0  0  0  0  0
  184.7990  179.3660  140.0970 C   0  0  0  0  0  2  0  0  0  0  0  0
  184.7380  178.7640  138.7020 C   0  0  0  0  0  2  0  0  0  0  0  0
  185.6740  177.7370  138.5800 O   0  0  0  0  0  0  0  0  0  0  0  0
  186.0220  177.7380  137.2310 C   0  0  0  0  0  1  0  0  0  0  0  0
  1  7  1  0  0  0  0
  2  8  1  6  0  0  0
  2  3  1  0  0  0  0
  3  1  2  0  0  0  0
  4  6  1  0  0  0  0
  5 23  1  1  0  0  0
  5  2  1  0  0  0  0
  5  4  1  0  0  0  0
  6  7  1  0  0  0  0
  8  9  1  0  0  0  0
  9 19  1  6  0  0  0
  9 10  1  0  0  0  0
 10 14  1  0  0  0  0
 12 13  1  0  0  0  0
 13 16  1  0  0  0  0
 13 11  1  1  0  0  0
 14 12  2  0  0  0  0
 14 15  1  0  0  0  0
 15 16  2  0  0  0  0
 16 17  1  0  0  0  0
 17 18  1  0  0  0  0
 20 19  1  0  0  0  0
 21 20  1  0  0  0  0
 22 21  1  0  0  0  0
 24 35  1  6  0  0  0
 24 23  1  0  0  0  0
 25 27  2  0  0  0  0
 26 27  1  0  0  0  0
 27 24  1  0  0  0  0
 28 31  1  0  0  0  0
 29 34  1  0  0  0  0
 30 33  1  0  0  0  0
 31 29  2  0  0  0  0
 32 30  2  0  0  0  0
 32 31  1  0  0  0  0
 33 34  2  0  0  0  0
 33 26  1  0  0  0  0
 36 35  1  0  0  0  0
 37 36  1  0  0  0  0
 38 37  1  0  0  0  0
M  END
>  <MODEL>
7

>  <REMARK>
 VINA RESULT:      -6.9      2.751      4.998
  Name = 
  15 active torsions:
  status: ('A' for Active; 'I' for Inactive)
    1  A    between atoms: O_5  and  C_12
    2  A    between atoms: C_6  and  N_14
    3  A    between atoms: C_9  and  C_13
    4  A    between atoms: C_9  and  C_23
    5  A    between atoms: C_10  and  C_16
    6  A    between atoms: C_10  and  N_30
    7  A    between atoms: C_10  and  C_38
    8  A    between atoms: C_12  and  C_16
    9  A    between atoms: N_14  and  C_28
   10  A    between atoms: C_15  and  C_24
   11  A    between atoms: C_15  and  C_28
   12  A    between atoms: O_22  and  C_36
   13  A    between atoms: C_23  and  C_28
   14  A    between atoms: C_25  and  N_30
   15  A    between atoms: N_27  and  C_29
                            x       y       z     vdW  Elec       q    Type
                         _______ _______ _______ _____ _____    ______ ____

>  <TORSDO>
F 15

$$$$
=
 OpenBabel10222416283D

 38 40  0  0  1  0  0  0  0  0999 V2000
  188.8500  177.3350  145.0830 C   0  0  0  0  0  3  0  0  0  0  0  0
  187.3570  177.7670  143.1160 C   0  0  1  0  0  3  0  0  0  0  0  0
  187.7050  177.1040  144.4220 C   0  0  0  0  0  3  0  0  0  0  0  0
  189.7070  177.3320  142.4360 O   0  0  0  0  0  0  0  0  0  0  0  0
  188.3650  177.4410  141.9880 C   0  0  2  0  0  3  0  0  0  0  0  0
  190.0420  178.5060  143.1340 C   0  0  0  0  0  2  0  0  0  0  0  0
  189.9300  178.3000  144.6480 C   0  0  0  0  0  2  0  0  0  0  0  0
  185.9660  177.5060  142.7260 N   0  0  0  0  0  2  0  0  0  0  0  0
  185.1540  178.7220  142.8090 C   0  0  1  0  0  3  0  0  0  0  0  0
  183.7000  178.4260  142.4500 C   0  0  0  0  0  2  0  0  0  0  0  0
  182.2750  179.6730  138.2860 O   0  0  0  0  0  1  0  0  0  0  0  0
  183.6840  179.3810  140.1560 C   0  0  0  0  0  3  0  0  0  0  0  0
  183.3700  178.9520  138.7620 C   0  0  1  0  0  3  0  0  0  0  0  0
  183.5040  178.3560  140.9750 C   0  0  0  0  0  0  0  0  0  0  0  0
  183.0560  177.1770  140.2540 C   0  0  0  0  0  3  0  0  0  0  0  0
  182.9790  177.5270  138.9770 C   0  0  0  0  0  0  0  0  0  0  0  0
  182.5820  176.6790  137.9420 O   0  0  0  0  0  0  0  0  0  0  0  0
  183.1650  176.7330  136.6460 C   0  0  0  0  0  1  0  0  0  0  0  0
  185.2410  179.3230  144.2110 C   0  0  0  0  0  2  0  0  0  0  0  0
  184.1980  178.7330  145.1550 C   0  0  0  0  0  2  0  0  0  0  0  0
  184.8430  178.3090  146.4610 C   0  0  0  0  0  2  0  0  0  0  0  0
  185.6820  179.3780  146.9710 N   0  0  0  0  0  1  0  0  0  0  0  0
  188.2470  178.4050  140.8980 N   0  0  0  0  0  2  0  0  0  0  0  0
  188.0360  177.6660  139.6600 C   0  0  2  0  0  3  0  0  0  0  0  0
  189.7090  178.7720  138.3630 O   0  0  0  0  0  0  0  0  0  0  0  0
  189.9790  176.4520  138.6100 N   0  0  0  0  0  2  0  0  0  0  0  0
  189.2860  177.6850  138.8420 C   0  0  0  0  0  0  0  0  0  0  0  0
  194.5890  175.7080  135.3010 C   0  0  0  0  0  1  0  0  0  0  0  0
  192.1160  175.7960  135.6290 C   0  0  0  0  0  3  0  0  0  0  0  0
  192.4440  176.3710  138.3430 C   0  0  0  0  0  3  0  0  0  0  0  0
  193.4000  175.9010  136.1690 C   0  0  0  0  0  0  0  0  0  0  0  0
  193.5650  176.1890  137.5260 C   0  0  0  0  0  3  0  0  0  0  0  0
  191.1520  176.2650  137.8070 C   0  0  0  0  0  0  0  0  0  0  0  0
  190.9970  175.9780  136.4470 C   0  0  0  0  0  3  0  0  0  0  0  0
  186.8640  178.2600  138.8880 C   0  0  0  0  0  2  0  0  0  0  0  0
  186.6000  177.4850  137.6080 C   0  0  0  0  0  2  0  0  0  0  0  0
  186.8110  178.3020  136.4980 O   0  0  0  0  0  0  0  0  0  0  0  0
  187.4650  177.4840  135.5780 C   0  0  0  0  0  1  0  0  0  0  0  0
  2  8  1  6  0  0  0
  2  3  1  0  0  0  0
  3  1  2  0  0  0  0
  4  6  1  0  0  0  0
  5 23  1  6  0  0  0
  5  4  1  0  0  0  0
  5  2  1  0  0  0  0
  6  7  1  0  0  0  0
  7  1  1  0  0  0  0
  8  9  1  0  0  0  0
  9 10  1  1  0  0  0
  9 19  1  0  0  0  0
 12 14  2  0  0  0  0
 13 11  1  1  0  0  0
 13 16  1  0  0  0  0
 13 12  1  0  0  0  0
 14 10  1  0  0  0  0
 15 14  1  0  0  0  0
 16 15  2  0  0  0  0
 17 16  1  0  0  0  0
 18 17  1  0  0  0  0
 19 20  1  0  0  0  0
 20 21  1  0  0  0  0
 21 22  1  0  0  0  0
 24 35  1  6  0  0  0
 24 23  1  0  0  0  0
 25 27  2  0  0  0  0
 26 27  1  0  0  0  0
 27 24  1  0  0  0  0
 28 31  1  0  0  0  0
 29 31  2  0  0  0  0
 29 34  1  0  0  0  0
 31 32  1  0  0  0  0
 32 30  2  0  0  0  0
 33 30  1  0  0  0  0
 33 26  1  0  0  0  0
 34 33  2  0  0  0  0
 36 35  1  0  0  0  0
 37 36  1  0  0  0  0
 38 37  1  0  0  0  0
M  END
>  <MODEL>
8

>  <REMARK>
 VINA RESULT:      -6.8      2.368      7.232
  Name = 
  15 active torsions:
  status: ('A' for Active; 'I' for Inactive)
    1  A    between atoms: O_5  and  C_12
    2  A    between atoms: C_6  and  N_14
    3  A    between atoms: C_9  and  C_13
    4  A    between atoms: C_9  and  C_23
    5  A    between atoms: C_10  and  C_16
    6  A    between atoms: C_10  and  N_30
    7  A    between atoms: C_10  and  C_38
    8  A    between atoms: C_12  and  C_16
    9  A    between atoms: N_14  and  C_28
   10  A    between atoms: C_15  and  C_24
   11  A    between atoms: C_15  and  C_28
   12  A    between atoms: O_22  and  C_36
   13  A    between atoms: C_23  and  C_28
   14  A    between atoms: C_25  and  N_30
   15  A    between atoms: N_27  and  C_29
                            x       y       z     vdW  Elec       q    Type
                         _______ _______ _______ _____ _____    ______ ____

>  <TORSDO>
F 15

$$$$
=
 OpenBabel10222416283D

 38 40  0  0  1  0  0  0  0  0999 V2000
  189.3900  177.8970  136.1970 C   0  0  0  0  0  3  0  0  0  0  0  0
  187.6230  178.0300  137.9700 C   0  0  1  0  0  3  0  0  0  0  0  0
  188.2620  178.4470  136.6730 C   0  0  0  0  0  3  0  0  0  0  0  0
  189.9160  178.0160  138.9260 O   0  0  0  0  0  0  0  0  0  0  0  0
  188.5430  178.2550  139.1930 C   0  0  2  0  0  3  0  0  0  0  0  0
  190.0480  176.7250  138.3840 C   0  0  0  0  0  2  0  0  0  0  0  0
  190.1600  176.7750  136.8570 C   0  0  0  0  0  2  0  0  0  0  0  0
  186.2940  178.6310  138.1420 N   0  0  0  0  0  2  0  0  0  0  0  0
  185.2470  177.6090  138.1680 C   0  0  1  0  0  3  0  0  0  0  0  0
  183.8950  178.2100  137.7910 C   0  0  0  0  0  2  0  0  0  0  0  0
  180.4600  176.8570  140.4910 O   0  0  0  0  0  1  0  0  0  0  0  0
  182.6480  177.1430  139.6570 C   0  0  0  0  0  3  0  0  0  0  0  0
  181.6650  177.5220  140.7140 C   0  0  1  0  0  3  0  0  0  0  0  0
  182.9580  178.2180  138.9490 C   0  0  0  0  0  0  0  0  0  0  0  0
  182.2400  179.3880  139.4250 C   0  0  0  0  0  3  0  0  0  0  0  0
  181.4940  178.9800  140.4430 C   0  0  0  0  0  0  0  0  0  0  0  0
  180.6430  179.8000  141.1860 O   0  0  0  0  0  0  0  0  0  0  0  0
  179.7460  180.7200  140.5760 C   0  0  0  0  0  1  0  0  0  0  0  0
  185.6000  176.4640  137.2190 C   0  0  0  0  0  2  0  0  0  0  0  0
  184.3580  175.7470  136.6970 C   0  0  0  0  0  2  0  0  0  0  0  0
  184.1880  174.4090  137.3910 C   0  0  0  0  0  2  0  0  0  0  0  0
  185.4830  173.7840  137.5920 N   0  0  0  0  0  1  0  0  0  0  0  0
  188.0810  177.4710  140.3360 N   0  0  0  0  0  2  0  0  0  0  0  0
  187.9610  178.3650  141.4800 C   0  0  2  0  0  3  0  0  0  0  0  0
  190.2510  178.2560  142.1470 O   0  0  0  0  0  0  0  0  0  0  0  0
  188.6860  177.5750  143.7610 N   0  0  0  0  0  2  0  0  0  0  0  0
  189.0450  178.0720  142.4650 C   0  0  0  0  0  0  0  0  0  0  0  0
  192.1760  176.0240  148.0240 C   0  0  0  0  0  1  0  0  0  0  0  0
  189.9990  176.9130  147.1850 C   0  0  0  0  0  3  0  0  0  0  0  0
  190.8700  176.6930  144.5400 C   0  0  0  0  0  3  0  0  0  0  0  0
  191.2800  176.4260  146.9100 C   0  0  0  0  0  0  0  0  0  0  0  0
  191.7150  176.3150  145.5870 C   0  0  0  0  0  3  0  0  0  0  0  0
  189.5840  177.1850  144.8080 C   0  0  0  0  0  0  0  0  0  0  0  0
  189.1560  177.2910  146.1360 C   0  0  0  0  0  3  0  0  0  0  0  0
  186.5840  178.2190  142.1170 C   0  0  0  0  0  2  0  0  0  0  0  0
  185.6740  179.3740  141.7310 C   0  0  0  0  0  2  0  0  0  0  0  0
  184.4030  179.1860  142.2710 O   0  0  0  0  0  0  0  0  0  0  0  0
  184.6130  179.1040  143.6460 C   0  0  0  0  0  1  0  0  0  0  0  0
  1  3  2  0  0  0  0
  1  7  1  0  0  0  0
  2  8  1  1  0  0  0
  2  5  1  0  0  0  0
  3  2  1  0  0  0  0
  4  5  1  0  0  0  0
  5 23  1  1  0  0  0
  6  4  1  0  0  0  0
  7  6  1  0  0  0  0
  8  9  1  0  0  0  0
  9 19  1  6  0  0  0
 10  9  1  0  0  0  0
 10 14  1  0  0  0  0
 12 13  1  0  0  0  0
 13 11  1  6  0  0  0
 14 15  1  0  0  0  0
 14 12  2  0  0  0  0
 15 16  2  0  0  0  0
 16 13  1  0  0  0  0
 16 17  1  0  0  0  0
 18 17  1  0  0  0  0
 20 19  1  0  0  0  0
 20 21  1  0  0  0  0
 21 22  1  0  0  0  0
 23 24  1  0  0  0  0
 24 35  1  1  0  0  0
 24 27  1  0  0  0  0
 25 27  2  0  0  0  0
 26 33  1  0  0  0  0
 27 26  1  0  0  0  0
 30 33  2  0  0  0  0
 30 32  1  0  0  0  0
 31 29  1  0  0  0  0
 31 28  1  0  0  0  0
 32 31  2  0  0  0  0
 33 34  1  0  0  0  0
 34 29  2  0  0  0  0
 36 35  1  0  0  0  0
 36 37  1  0  0  0  0
 37 38  1  0  0  0  0
M  END
>  <MODEL>
9

>  <REMARK>
 VINA RESULT:      -6.7      2.578      8.423
  Name = 
  15 active torsions:
  status: ('A' for Active; 'I' for Inactive)
    1  A    between atoms: O_5  and  C_12
    2  A    between atoms: C_6  and  N_14
    3  A    between atoms: C_9  and  C_13
    4  A    between atoms: C_9  and  C_23
    5  A    between atoms: C_10  and  C_16
    6  A    between atoms: C_10  and  N_30
    7  A    between atoms: C_10  and  C_38
    8  A    between atoms: C_12  and  C_16
    9  A    between atoms: N_14  and  C_28
   10  A    between atoms: C_15  and  C_24
   11  A    between atoms: C_15  and  C_28
   12  A    between atoms: O_22  and  C_36
   13  A    between atoms: C_23  and  C_28
   14  A    between atoms: C_25  and  N_30
   15  A    between atoms: N_27  and  C_29
                            x       y       z     vdW  Elec       q    Type
                         _______ _______ _______ _____ _____    ______ ____

>  <TORSDO>
F 15

$$$$
