=
 OpenBabel10222419413D

 36 41  0  0  1  0  0  0  0  0999 V2000
  181.9780  178.2580  141.1490 C   0  0  0  0  0  0  0  0  0  0  0  0
  184.1340  178.5900  142.4180 C   0  0  0  0  0  0  0  0  0  0  0  0
  183.4990  177.8530  139.1850 C   0  0  0  0  0  0  0  0  0  0  0  0
  184.2090  179.1330  139.4480 C   0  0  0  0  0  2  0  0  0  0  0  0
  184.1280  178.5610  143.8830 C   0  0  0  0  0  0  0  0  0  0  0  0
  183.2350  175.8590  137.8170 C   0  0  0  0  0  0  0  0  0  0  0  0
  187.5890  177.8490  144.5150 N   0  0  0  0  0  0  0  0  0  0  0  0
  183.8950  177.0620  138.1000 C   0  0  0  0  0  3  0  0  0  0  0  0
  185.2660  178.3610  146.0590 C   0  0  0  0  0  3  0  0  0  0  0  0
  180.5510  178.2440  141.6100 C   0  0  0  0  0  3  0  0  0  0  0  0
  185.2910  178.5250  141.7110 C   0  0  0  0  0  0  0  0  0  0  0  0
  185.2310  178.3190  144.5950 C   0  0  0  0  0  0  0  0  0  0  0  0
  186.4910  178.1060  143.8670 C   0  0  0  0  0  0  0  0  0  0  0  0
  185.4650  178.8660  140.2540 C   0  0  0  0  0  2  0  0  0  0  0  0
  182.4450  177.4360  140.0140 C   0  0  0  0  0  0  0  0  0  0  0  0
  186.4000  178.0770  146.6980 C   0  0  0  0  0  3  0  0  0  0  0  0
  182.7380  178.8560  142.0630 C   0  0  2  0  0  3  0  0  0  0  0  0
  182.7700  178.9020  144.4190 C   0  0  0  0  0  2  0  0  0  0  0  0
  180.6090  178.8070  143.0350 C   0  0  1  0  0  3  0  0  0  0  0  0
  187.6510  177.6400  145.9690 C   0  0  0  0  0  2  0  0  0  0  0  0
  181.7740  176.2420  139.7140 C   0  0  0  0  0  3  0  0  0  0  0  0
  186.5030  178.2540  142.4390 N   0  0  0  0  0  2  0  0  0  0  0  0
  182.1670  175.4570  138.6280 C   0  0  0  0  0  3  0  0  0  0  0  0
  181.9960  179.1900  143.2160 N   0  0  2  0  0  0  0  0  0  0  0  0
  183.4810  173.7810  136.6980 O   0  0  0  0  0  1  0  0  0  0  0  0
  184.2320  175.6150  135.5560 O   0  0  0  0  0  0  0  0  0  0  0  0
  183.6510  175.0280  136.6750 C   0  0  0  0  0  0  0  0  0  0  0  0
  179.7230  180.0330  143.1490 C   0  0  0  0  0  2  0  0  0  0  0  0
  178.9680  180.2450  141.8510 C   0  0  0  0  0  2  0  0  0  0  0  0
  179.3160  181.5420  141.2950 N   0  0  0  0  0  2  0  0  0  0  0  0
  179.2000  181.4350  139.8510 C   0  0  0  0  0  2  0  0  0  0  0  0
  180.5760  181.2300  139.2360 C   0  0  0  0  0  2  0  0  0  0  0  0
  180.6630  181.9220  137.9580 N   0  0  0  0  0  0  0  0  0  0  0  0
  181.0290  180.9920  137.0450 O   0  0  0  0  0  1  0  0  0  0  0  0
  181.2940  183.9010  137.2850 C   0  0  0  0  0  1  0  0  0  0  0  0
  181.6900  182.8050  138.0540 O   0  0  0  0  0  0  0  0  0  0  0  0
  1 10  2  0  0  0  0
  2  5  1  0  0  0  0
  3  4  1  0  0  0  0
  3 15  1  0  0  0  0
  4 14  1  0  0  0  0
  5 18  1  0  0  0  0
  5 12  2  0  0  0  0
  6  8  1  0  0  0  0
  6 23  2  0  0  0  0
  7 20  1  0  0  0  0
  8  3  2  0  0  0  0
  9 16  2  0  0  0  0
 10 19  1  0  0  0  0
 11  2  2  0  0  0  0
 11 22  1  0  0  0  0
 12  9  1  0  0  0  0
 13  7  2  0  0  0  0
 13 12  1  0  0  0  0
 14 11  1  0  0  0  0
 15  1  1  0  0  0  0
 17  1  1  1  0  0  0
 17  2  1  0  0  0  0
 17 24  1  0  0  0  0
 19 28  1  6  0  0  0
 19 24  1  0  0  0  0
 20 16  1  0  0  0  0
 21 15  2  0  0  0  0
 22 13  1  0  0  0  0
 23 21  1  0  0  0  0
 24 18  1  1  0  0  0
 26 27  2  0  0  0  0
 27 25  1  0  0  0  0
 27  6  1  0  0  0  0
 29 28  1  0  0  0  0
 30 29  1  0  0  0  0
 31 30  1  0  0  0  0
 32 31  1  0  0  0  0
 33 36  1  0  0  0  0
 33 32  1  0  0  0  0
 34 33  1  0  0  0  0
 35 36  1  0  0  0  0
M  END
>  <MODEL>
1

>  <REMARK>
 VINA RESULT:      -7.8      0.000      0.000
  Name = 
  8 active torsions:
  status: ('A' for Active; 'I' for Inactive)
    1  A    between atoms: N_2  and  C_16
    2  A    between atoms: N_2  and  O_24
    3  A    between atoms: C_8  and  C_33
    4  A    between atoms: N_9  and  C_22
    5  A    between atoms: N_9  and  C_29
    6  A    between atoms: C_16  and  C_29
    7  A    between atoms: C_22  and  C_31
    8  A    between atoms: C_27  and  C_31
                            x       y       z     vdW  Elec       q    Type
                         _______ _______ _______ _____ _____    ______ ____

>  <TORSDO>
F 8

$$$$
=
 OpenBabel10222419413D

 36 41  0  0  1  0  0  0  0  0999 V2000
  190.4290  176.5490  138.0730 C   0  0  0  0  0  0  0  0  0  0  0  0
  190.6340  177.2530  140.4880 C   0  0  0  0  0  0  0  0  0  0  0  0
  192.8990  176.1020  138.2640 C   0  0  0  0  0  0  0  0  0  0  0  0
  193.1230  177.4740  138.7930 C   0  0  0  0  0  2  0  0  0  0  0  0
  189.4290  177.3840  141.3120 C   0  0  0  0  0  0  0  0  0  0  0  0
  193.8150  173.9550  137.5840 C   0  0  0  0  0  0  0  0  0  0  0  0
  190.8770  177.1320  144.5870 N   0  0  0  0  0  0  0  0  0  0  0  0
  193.9930  175.2470  138.0960 C   0  0  0  0  0  3  0  0  0  0  0  0
  188.2940  177.5500  143.4930 C   0  0  0  0  0  3  0  0  0  0  0  0
  189.2340  176.4280  137.1760 C   0  0  0  0  0  3  0  0  0  0  0  0
  191.8740  177.2400  141.0390 C   0  0  0  0  0  0  0  0  0  0  0  0
  189.4730  177.3450  142.6460 C   0  0  0  0  0  0  0  0  0  0  0  0
  190.7850  177.1940  143.2920 C   0  0  0  0  0  0  0  0  0  0  0  0
  193.1770  177.4380  140.3080 C   0  0  0  0  0  2  0  0  0  0  0  0
  191.6050  175.6650  137.9390 C   0  0  0  0  0  0  0  0  0  0  0  0
  188.4130  177.4640  144.8170 C   0  0  0  0  0  3  0  0  0  0  0  0
  190.1320  177.3230  139.1130 C   0  0  2  0  0  3  0  0  0  0  0  0
  188.2210  177.6300  140.4600 C   0  0  0  0  0  2  0  0  0  0  0  0
  188.1150  177.1460  137.9400 C   0  0  1  0  0  3  0  0  0  0  0  0
  189.7150  177.0910  145.4900 C   0  0  0  0  0  2  0  0  0  0  0  0
  191.4340  174.3790  137.4080 C   0  0  0  0  0  3  0  0  0  0  0  0
  191.9650  177.1850  142.4750 N   0  0  0  0  0  2  0  0  0  0  0  0
  192.5280  173.5280  137.2360 C   0  0  0  0  0  3  0  0  0  0  0  0
  188.7710  177.6970  139.1100 N   0  0  2  0  0  0  0  0  0  0  0  0
  195.4250  172.8250  136.2570 O   0  0  0  0  0  0  0  0  0  0  0  0
  195.5660  172.4570  138.5100 O   0  0  0  0  0  1  0  0  0  0  0  0
  194.9670  173.0550  137.4070 C   0  0  0  0  0  0  0  0  0  0  0  0
  187.5460  178.2720  137.0970 C   0  0  0  0  0  2  0  0  0  0  0  0
  186.1910  177.8700  136.5470 C   0  0  0  0  0  2  0  0  0  0  0  0
  185.4020  177.2580  137.6040 N   0  0  0  0  0  2  0  0  0  0  0  0
  184.3900  178.2220  137.9970 C   0  0  0  0  0  2  0  0  0  0  0  0
  184.1770  178.1630  139.5020 C   0  0  0  0  0  2  0  0  0  0  0  0
  184.2410  179.5010  140.0720 N   0  0  0  0  0  0  0  0  0  0  0  0
  184.3420  180.3570  139.0280 O   0  0  0  0  0  1  0  0  0  0  0  0
  185.0980  179.1270  142.0450 C   0  0  0  0  0  1  0  0  0  0  0  0
  185.4070  179.5830  140.7620 O   0  0  0  0  0  0  0  0  0  0  0  0
  2 11  2  0  0  0  0
  2  5  1  0  0  0  0
  3  4  1  0  0  0  0
  4 14  1  0  0  0  0
  5 12  2  0  0  0  0
  6  8  2  0  0  0  0
  7 20  1  0  0  0  0
  8  3  1  0  0  0  0
  9 16  2  0  0  0  0
 10 19  1  0  0  0  0
 10  1  2  0  0  0  0
 11 22  1  0  0  0  0
 12 13  1  0  0  0  0
 12  9  1  0  0  0  0
 13  7  2  0  0  0  0
 14 11  1  0  0  0  0
 15  1  1  0  0  0  0
 15  3  2  0  0  0  0
 16 20  1  0  0  0  0
 17  1  1  1  0  0  0
 17  2  1  0  0  0  0
 18  5  1  0  0  0  0
 19 28  1  6  0  0  0
 19 24  1  0  0  0  0
 21 15  1  0  0  0  0
 22 13  1  0  0  0  0
 23 21  2  0  0  0  0
 23  6  1  0  0  0  0
 24 17  1  0  0  0  0
 24 18  1  1  0  0  0
 25 27  2  0  0  0  0
 27  6  1  0  0  0  0
 27 26  1  0  0  0  0
 29 28  1  0  0  0  0
 29 30  1  0  0  0  0
 30 31  1  0  0  0  0
 31 32  1  0  0  0  0
 32 33  1  0  0  0  0
 33 36  1  0  0  0  0
 34 33  1  0  0  0  0
 36 35  1  0  0  0  0
M  END
>  <MODEL>
2

>  <REMARK>
 VINA RESULT:      -7.6      6.201      8.035
  Name = 
  8 active torsions:
  status: ('A' for Active; 'I' for Inactive)
    1  A    between atoms: N_2  and  C_16
    2  A    between atoms: N_2  and  O_24
    3  A    between atoms: C_8  and  C_33
    4  A    between atoms: N_9  and  C_22
    5  A    between atoms: N_9  and  C_29
    6  A    between atoms: C_16  and  C_29
    7  A    between atoms: C_22  and  C_31
    8  A    between atoms: C_27  and  C_31
                            x       y       z     vdW  Elec       q    Type
                         _______ _______ _______ _____ _____    ______ ____

>  <TORSDO>
F 8

$$$$
=
 OpenBabel10222419413D

 36 41  0  0  1  0  0  0  0  0999 V2000
  185.8410  178.0210  138.2370 C   0  0  0  0  0  0  0  0  0  0  0  0
  187.0730  178.2900  140.4230 C   0  0  0  0  0  0  0  0  0  0  0  0
  188.1260  177.5160  137.3100 C   0  0  0  0  0  0  0  0  0  0  0  0
  188.6630  178.7710  137.9000 C   0  0  0  0  0  2  0  0  0  0  0  0
  186.3270  178.2910  141.6840 C   0  0  0  0  0  0  0  0  0  0  0  0
  188.5000  175.5080  135.9890 C   0  0  0  0  0  0  0  0  0  0  0  0
  188.9580  177.4510  143.9760 N   0  0  0  0  0  0  0  0  0  0  0  0
  188.9800  176.6880  136.5710 C   0  0  0  0  0  3  0  0  0  0  0  0
  186.1990  178.0880  144.1360 C   0  0  0  0  0  3  0  0  0  0  0  0
  184.3780  178.0750  137.9130 C   0  0  0  0  0  3  0  0  0  0  0  0
  188.4250  178.1640  140.3970 C   0  0  0  0  0  0  0  0  0  0  0  0
  186.9070  178.0180  142.8550 C   0  0  0  0  0  0  0  0  0  0  0  0
  188.3510  177.7390  142.8630 C   0  0  0  0  0  0  0  0  0  0  0  0
  189.3270  178.4700  139.2300 C   0  0  0  0  0  2  0  0  0  0  0  0
  186.7800  177.1590  137.4910 C   0  0  0  0  0  0  0  0  0  0  0  0
  186.8410  177.7700  145.2600 C   0  0  0  0  0  3  0  0  0  0  0  0
  186.0620  178.6060  139.4120 C   0  0  2  0  0  3  0  0  0  0  0  0
  184.9010  178.6980  141.4610 C   0  0  0  0  0  2  0  0  0  0  0  0
  183.7340  178.6630  139.1740 C   0  0  1  0  0  3  0  0  0  0  0  0
  188.2680  177.2680  145.2620 C   0  0  0  0  0  2  0  0  0  0  0  0
  186.2990  175.9880  136.8880 C   0  0  0  0  0  3  0  0  0  0  0  0
  189.0890  177.8580  141.6370 N   0  0  0  0  0  2  0  0  0  0  0  0
  187.1520  175.1660  136.1480 C   0  0  0  0  0  3  0  0  0  0  0  0
  184.8550  178.9930  140.0330 N   0  0  2  0  0  0  0  0  0  0  0  0
  189.0040  173.5130  134.8070 O   0  0  0  0  0  0  0  0  0  0  0  0
  190.6900  175.0560  134.9110 O   0  0  0  0  0  1  0  0  0  0  0  0
  189.3980  174.6390  135.2120 C   0  0  0  0  0  0  0  0  0  0  0  0
  182.9680  179.9260  138.8290 C   0  0  0  0  0  2  0  0  0  0  0  0
  181.4770  179.6500  138.8630 C   0  0  0  0  0  2  0  0  0  0  0  0
  181.2220  178.4680  139.6680 N   0  0  0  0  0  2  0  0  0  0  0  0
  179.9000  178.6210  140.2500 C   0  0  0  0  0  2  0  0  0  0  0  0
  179.7910  179.9750  140.9350 C   0  0  0  0  0  2  0  0  0  0  0  0
  179.4560  179.8020  142.3410 N   0  0  0  0  0  0  0  0  0  0  0  0
  180.1130  180.7760  143.0140 O   0  0  0  0  0  1  0  0  0  0  0  0
  179.7730  178.5660  144.1120 C   0  0  0  0  0  1  0  0  0  0  0  0
  179.9940  178.6190  142.7350 O   0  0  0  0  0  0  0  0  0  0  0  0
  2  5  1  0  0  0  0
  3 15  1  0  0  0  0
  3  4  1  0  0  0  0
  4 14  1  0  0  0  0
  5 12  2  0  0  0  0
  6 23  2  0  0  0  0
  6  8  1  0  0  0  0
  7 20  1  0  0  0  0
  8  3  2  0  0  0  0
  9 16  2  0  0  0  0
 10  1  2  0  0  0  0
 10 19  1  0  0  0  0
 11  2  2  0  0  0  0
 11 22  1  0  0  0  0
 12 13  1  0  0  0  0
 12  9  1  0  0  0  0
 13  7  2  0  0  0  0
 14 11  1  0  0  0  0
 15  1  1  0  0  0  0
 16 20  1  0  0  0  0
 17  1  1  1  0  0  0
 17 24  1  0  0  0  0
 17  2  1  0  0  0  0
 18  5  1  0  0  0  0
 19 28  1  6  0  0  0
 19 24  1  0  0  0  0
 21 15  2  0  0  0  0
 22 13  1  0  0  0  0
 23 21  1  0  0  0  0
 24 18  1  1  0  0  0
 25 27  2  0  0  0  0
 26 27  1  0  0  0  0
 27  6  1  0  0  0  0
 28 29  1  0  0  0  0
 29 30  1  0  0  0  0
 30 31  1  0  0  0  0
 31 32  1  0  0  0  0
 32 33  1  0  0  0  0
 33 36  1  0  0  0  0
 33 34  1  0  0  0  0
 36 35  1  0  0  0  0
M  END
>  <MODEL>
3

>  <REMARK>
 VINA RESULT:      -6.9      3.271      4.607
  Name = 
  8 active torsions:
  status: ('A' for Active; 'I' for Inactive)
    1  A    between atoms: N_2  and  C_16
    2  A    between atoms: N_2  and  O_24
    3  A    between atoms: C_8  and  C_33
    4  A    between atoms: N_9  and  C_22
    5  A    between atoms: N_9  and  C_29
    6  A    between atoms: C_16  and  C_29
    7  A    between atoms: C_22  and  C_31
    8  A    between atoms: C_27  and  C_31
                            x       y       z     vdW  Elec       q    Type
                         _______ _______ _______ _____ _____    ______ ____

>  <TORSDO>
F 8

$$$$
=
 OpenBabel10222419413D

 36 41  0  0  1  0  0  0  0  0999 V2000
  190.4420  176.7560  137.8500 C   0  0  0  0  0  0  0  0  0  0  0  0
  190.3740  177.3610  140.3000 C   0  0  0  0  0  0  0  0  0  0  0  0
  192.8510  176.1990  138.3220 C   0  0  0  0  0  0  0  0  0  0  0  0
  193.0600  177.5400  138.9320 C   0  0  0  0  0  2  0  0  0  0  0  0
  189.0820  177.5120  140.9760 C   0  0  0  0  0  0  0  0  0  0  0  0
  193.7640  174.0410  137.6700 C   0  0  0  0  0  0  0  0  0  0  0  0
  190.1040  177.0770  144.3890 N   0  0  0  0  0  0  0  0  0  0  0  0
  193.9250  175.3050  138.2530 C   0  0  0  0  0  3  0  0  0  0  0  0
  187.6930  177.6440  143.0060 C   0  0  0  0  0  3  0  0  0  0  0  0
  189.3640  176.7190  136.8100 C   0  0  0  0  0  3  0  0  0  0  0  0
  191.5350  177.2750  140.9970 C   0  0  0  0  0  0  0  0  0  0  0  0
  188.9590  177.4210  142.3020 C   0  0  0  0  0  0  0  0  0  0  0  0
  190.1750  177.1910  143.0960 C   0  0  0  0  0  0  0  0  0  0  0  0
  192.9250  177.4450  140.4390 C   0  0  0  0  0  2  0  0  0  0  0  0
  191.5920  175.8290  137.8240 C   0  0  0  0  0  0  0  0  0  0  0  0
  187.6440  177.5040  144.3310 C   0  0  0  0  0  3  0  0  0  0  0  0
  190.0480  177.5030  138.8780 C   0  0  2  0  0  3  0  0  0  0  0  0
  187.9990  177.8400  139.9930 C   0  0  0  0  0  2  0  0  0  0  0  0
  188.1860  177.4560  137.4610 C   0  0  1  0  0  3  0  0  0  0  0  0
  188.8390  177.0520  145.1410 C   0  0  0  0  0  2  0  0  0  0  0  0
  191.4410  174.5720  137.2220 C   0  0  0  0  0  3  0  0  0  0  0  0
  191.4460  177.1630  142.4300 N   0  0  0  0  0  2  0  0  0  0  0  0
  192.5150  173.6830  137.1490 C   0  0  0  0  0  3  0  0  0  0  0  0
  188.7130  177.9350  138.7240 N   0  0  2  0  0  0  0  0  0  0  0  0
  195.2690  172.4720  138.6210 O   0  0  0  0  0  1  0  0  0  0  0  0
  195.5570  172.8940  136.3910 O   0  0  0  0  0  0  0  0  0  0  0  0
  194.8950  173.1020  137.5960 C   0  0  0  0  0  0  0  0  0  0  0  0
  187.7680  178.6340  136.6030 C   0  0  0  0  0  2  0  0  0  0  0  0
  187.0200  178.1420  135.3800 C   0  0  0  0  0  2  0  0  0  0  0  0
  185.9330  177.2720  135.7950 N   0  0  0  0  0  2  0  0  0  0  0  0
  185.9510  176.1130  134.9190 C   0  0  0  0  0  2  0  0  0  0  0  0
  185.2870  174.9320  135.6110 C   0  0  0  0  0  2  0  0  0  0  0  0
  185.5990  174.9430  137.0330 N   0  0  0  0  0  0  0  0  0  0  0  0
  186.7140  174.1900  137.1860 O   0  0  0  0  0  1  0  0  0  0  0  0
  185.0280  172.9650  137.7590 C   0  0  0  0  0  1  0  0  0  0  0  0
  184.5920  174.2880  137.6660 O   0  0  0  0  0  0  0  0  0  0  0  0
  2  5  1  0  0  0  0
  2 11  2  0  0  0  0
  3  4  1  0  0  0  0
  4 14  1  0  0  0  0
  5 12  2  0  0  0  0
  6  8  2  0  0  0  0
  7 20  1  0  0  0  0
  8  3  1  0  0  0  0
  9 16  2  0  0  0  0
 10 19  1  0  0  0  0
 10  1  2  0  0  0  0
 11 22  1  0  0  0  0
 12  9  1  0  0  0  0
 12 13  1  0  0  0  0
 13  7  2  0  0  0  0
 14 11  1  0  0  0  0
 15  1  1  0  0  0  0
 15  3  2  0  0  0  0
 16 20  1  0  0  0  0
 17  1  1  6  0  0  0
 17  2  1  0  0  0  0
 18  5  1  0  0  0  0
 19 28  1  6  0  0  0
 19 24  1  0  0  0  0
 21 15  1  0  0  0  0
 22 13  1  0  0  0  0
 23 21  2  0  0  0  0
 23  6  1  0  0  0  0
 24 17  1  0  0  0  0
 24 18  1  1  0  0  0
 26 27  2  0  0  0  0
 27  6  1  0  0  0  0
 27 25  1  0  0  0  0
 29 30  1  0  0  0  0
 29 28  1  0  0  0  0
 31 32  1  0  0  0  0
 31 30  1  0  0  0  0
 32 33  1  0  0  0  0
 33 34  1  0  0  0  0
 33 36  1  0  0  0  0
 36 35  1  0  0  0  0
M  END
>  <MODEL>
4

>  <REMARK>
 VINA RESULT:      -6.8      6.223      8.645
  Name = 
  8 active torsions:
  status: ('A' for Active; 'I' for Inactive)
    1  A    between atoms: N_2  and  C_16
    2  A    between atoms: N_2  and  O_24
    3  A    between atoms: C_8  and  C_33
    4  A    between atoms: N_9  and  C_22
    5  A    between atoms: N_9  and  C_29
    6  A    between atoms: C_16  and  C_29
    7  A    between atoms: C_22  and  C_31
    8  A    between atoms: C_27  and  C_31
                            x       y       z     vdW  Elec       q    Type
                         _______ _______ _______ _____ _____    ______ ____

>  <TORSDO>
F 8

$$$$
=
 OpenBabel10222419413D

 36 41  0  0  1  0  0  0  0  0999 V2000
  184.0250  178.3890  141.4810 C   0  0  0  0  0  0  0  0  0  0  0  0
  186.2980  178.4890  140.3890 C   0  0  0  0  0  0  0  0  0  0  0  0
  183.1710  178.4990  139.1160 C   0  0  0  0  0  0  0  0  0  0  0  0
  184.0000  179.7060  138.8540 C   0  0  0  0  0  2  0  0  0  0  0  0
  187.4910  178.1230  141.1570 C   0  0  0  0  0  0  0  0  0  0  0  0
  181.5540  176.8680  138.3170 C   0  0  0  0  0  0  0  0  0  0  0  0
  189.7680  177.3980  138.4780 N   0  0  0  0  0  0  0  0  0  0  0  0
  182.3580  177.9930  138.0960 C   0  0  0  0  0  3  0  0  0  0  0  0
  189.8600  177.4630  141.3120 C   0  0  0  0  0  3  0  0  0  0  0  0
  183.6240  178.2230  142.9160 C   0  0  0  0  0  3  0  0  0  0  0  0
  186.3370  178.6280  139.0390 C   0  0  0  0  0  0  0  0  0  0  0  0
  188.6330  177.7600  140.5680 C   0  0  0  0  0  0  0  0  0  0  0  0
  188.6840  177.7610  139.0980 C   0  0  0  0  0  0  0  0  0  0  0  0
  185.2970  179.3020  138.1820 C   0  0  0  0  0  2  0  0  0  0  0  0
  183.2040  177.8680  140.3700 C   0  0  0  0  0  0  0  0  0  0  0  0
  190.9520  177.0760  140.6530 C   0  0  0  0  0  3  0  0  0  0  0  0
  185.2940  178.7850  141.4140 C   0  0  2  0  0  3  0  0  0  0  0  0
  187.2520  178.2870  142.6280 C   0  0  0  0  0  2  0  0  0  0  0  0
  184.9240  178.4440  143.7000 C   0  0  1  0  0  3  0  0  0  0  0  0
  190.9580  176.8610  139.1560 C   0  0  0  0  0  2  0  0  0  0  0  0
  182.3820  176.7540  140.5940 C   0  0  0  0  0  3  0  0  0  0  0  0
  187.5460  178.2350  138.3630 N   0  0  0  0  0  2  0  0  0  0  0  0
  181.5670  176.2540  139.5750 C   0  0  0  0  0  3  0  0  0  0  0  0
  185.8950  178.8190  142.6910 N   0  0  2  0  0  0  0  0  0  0  0  0
  180.3870  177.0590  136.2600 O   0  0  0  0  0  0  0  0  0  0  0  0
  180.2300  175.0290  137.3020 O   0  0  0  0  0  1  0  0  0  0  0  0
  180.6980  176.3370  137.2430 C   0  0  0  0  0  0  0  0  0  0  0  0
  184.7510  179.5800  144.6890 C   0  0  0  0  0  2  0  0  0  0  0  0
  185.3510  179.1940  146.0270 C   0  0  0  0  0  2  0  0  0  0  0  0
  185.9990  177.8980  145.9110 N   0  0  0  0  0  2  0  0  0  0  0  0
  187.1180  177.8940  146.8380 C   0  0  0  0  0  2  0  0  0  0  0  0
  188.3930  177.5030  146.1070 C   0  0  0  0  0  2  0  0  0  0  0  0
  189.3690  176.9720  147.0470 N   0  0  0  0  0  0  0  0  0  0  0  0
  189.4260  177.8500  148.0760 O   0  0  0  0  0  1  0  0  0  0  0  0
  191.4630  176.4250  147.3370 C   0  0  0  0  0  1  0  0  0  0  0  0
  190.5770  177.0110  146.4300 O   0  0  0  0  0  0  0  0  0  0  0  0
  1 10  2  0  0  0  0
  2  5  1  0  0  0  0
  3 15  1  0  0  0  0
  4  3  1  0  0  0  0
  5 18  1  0  0  0  0
  6 23  2  0  0  0  0
  7 13  2  0  0  0  0
  7 20  1  0  0  0  0
  8  6  1  0  0  0  0
  8  3  2  0  0  0  0
 10 19  1  0  0  0  0
 11  2  2  0  0  0  0
 12  5  2  0  0  0  0
 12  9  1  0  0  0  0
 13 12  1  0  0  0  0
 14  4  1  0  0  0  0
 14 11  1  0  0  0  0
 15 21  2  0  0  0  0
 15  1  1  0  0  0  0
 16  9  2  0  0  0  0
 17  2  1  6  0  0  0
 17  1  1  0  0  0  0
 17 24  1  0  0  0  0
 19 28  1  1  0  0  0
 20 16  1  0  0  0  0
 22 11  1  0  0  0  0
 22 13  1  0  0  0  0
 23 21  1  0  0  0  0
 24 18  1  6  0  0  0
 24 19  1  0  0  0  0
 25 27  2  0  0  0  0
 27 26  1  0  0  0  0
 27  6  1  0  0  0  0
 28 29  1  0  0  0  0
 30 29  1  0  0  0  0
 30 31  1  0  0  0  0
 32 31  1  0  0  0  0
 32 33  1  0  0  0  0
 33 34  1  0  0  0  0
 36 33  1  0  0  0  0
 36 35  1  0  0  0  0
M  END
>  <MODEL>
5

>  <REMARK>
 VINA RESULT:      -6.7      4.033      6.874
  Name = 
  8 active torsions:
  status: ('A' for Active; 'I' for Inactive)
    1  A    between atoms: N_2  and  C_16
    2  A    between atoms: N_2  and  O_24
    3  A    between atoms: C_8  and  C_33
    4  A    between atoms: N_9  and  C_22
    5  A    between atoms: N_9  and  C_29
    6  A    between atoms: C_16  and  C_29
    7  A    between atoms: C_22  and  C_31
    8  A    between atoms: C_27  and  C_31
                            x       y       z     vdW  Elec       q    Type
                         _______ _______ _______ _____ _____    ______ ____

>  <TORSDO>
F 8

$$$$
=
 OpenBabel10222419413D

 36 41  0  0  1  0  0  0  0  0999 V2000
  189.9810  176.8020  138.7290 C   0  0  0  0  0  0  0  0  0  0  0  0
  188.5560  175.4090  137.1800 C   0  0  0  0  0  0  0  0  0  0  0  0
  187.8200  177.9940  139.2240 C   0  0  0  0  0  0  0  0  0  0  0  0
  187.5840  178.2070  137.7710 C   0  0  0  0  0  2  0  0  0  0  0  0
  189.0660  174.1330  136.6730 C   0  0  0  0  0  0  0  0  0  0  0  0
  187.0920  178.3140  141.5220 C   0  0  0  0  0  0  0  0  0  0  0  0
  185.9810  172.5380  135.7630 N   0  0  0  0  0  0  0  0  0  0  0  0
  186.8900  178.4850  140.1470 C   0  0  0  0  0  3  0  0  0  0  0  0
  188.7470  171.9250  135.6270 C   0  0  0  0  0  3  0  0  0  0  0  0
  191.4290  176.6960  139.1030 C   0  0  0  0  0  3  0  0  0  0  0  0
  187.2460  175.7490  137.0630 C   0  0  0  0  0  0  0  0  0  0  0  0
  188.2570  173.1770  136.2090 C   0  0  0  0  0  0  0  0  0  0  0  0
  186.8110  173.4440  136.1880 C   0  0  0  0  0  0  0  0  0  0  0  0
  186.6640  177.1270  137.2370 C   0  0  0  0  0  2  0  0  0  0  0  0
  188.9610  177.3070  139.6690 C   0  0  0  0  0  0  0  0  0  0  0  0
  187.8740  171.0050  135.2150 C   0  0  0  0  0  3  0  0  0  0  0  0
  189.7590  176.1290  137.6020 C   0  0  2  0  0  3  0  0  0  0  0  0
  190.5650  174.1100  136.6920 C   0  0  0  0  0  2  0  0  0  0  0  0
  192.0120  175.7120  138.0810 C   0  0  1  0  0  3  0  0  0  0  0  0
  186.3810  171.1730  135.3870 C   0  0  0  0  0  2  0  0  0  0  0  0
  189.1700  177.1570  141.0480 C   0  0  0  0  0  3  0  0  0  0  0  0
  186.3380  174.7420  136.5770 N   0  0  0  0  0  2  0  0  0  0  0  0
  188.2420  177.6520  141.9670 C   0  0  0  0  0  3  0  0  0  0  0  0
  190.9150  175.4420  137.1720 N   0  0  2  0  0  0  0  0  0  0  0  0
  185.3330  179.7670  142.1740 O   0  0  0  0  0  0  0  0  0  0  0  0
  186.0360  178.2860  143.7690 O   0  0  0  0  0  1  0  0  0  0  0  0
  186.1130  178.8310  142.4920 C   0  0  0  0  0  0  0  0  0  0  0  0
  193.1540  176.3620  137.3240 C   0  0  0  0  0  2  0  0  0  0  0  0
  194.2590  175.3500  137.0900 C   0  0  0  0  0  2  0  0  0  0  0  0
  195.0220  175.1750  138.3150 N   0  0  0  0  0  2  0  0  0  0  0  0
  195.7220  173.9070  138.2070 C   0  0  0  0  0  2  0  0  0  0  0  0
  196.9070  174.0500  137.2640 C   0  0  0  0  0  2  0  0  0  0  0  0
  197.6560  175.2580  137.5780 N   0  0  0  0  0  0  0  0  0  0  0  0
  197.6860  175.9950  136.4430 O   0  0  0  0  0  1  0  0  0  0  0  0
  199.1730  173.8120  136.9650 C   0  0  0  0  0  1  0  0  0  0  0  0
  198.9340  174.8780  137.8350 O   0  0  0  0  0  0  0  0  0  0  0  0
  1 10  2  0  0  0  0
  1 15  1  0  0  0  0
  3 15  2  0  0  0  0
  3  8  1  0  0  0  0
  4  3  1  0  0  0  0
  5 18  1  0  0  0  0
  5  2  1  0  0  0  0
  6 23  1  0  0  0  0
  6 27  1  0  0  0  0
  7 13  2  0  0  0  0
  8  6  2  0  0  0  0
  9 12  1  0  0  0  0
 11  2  2  0  0  0  0
 11 14  1  0  0  0  0
 12  5  2  0  0  0  0
 13 12  1  0  0  0  0
 13 22  1  0  0  0  0
 14  4  1  0  0  0  0
 15 21  1  0  0  0  0
 16 20  1  0  0  0  0
 16  9  2  0  0  0  0
 17  2  1  1  0  0  0
 17  1  1  0  0  0  0
 19 28  1  6  0  0  0
 19 10  1  0  0  0  0
 20  7  1  0  0  0  0
 21 23  2  0  0  0  0
 22 11  1  0  0  0  0
 24 18  1  1  0  0  0
 24 17  1  0  0  0  0
 24 19  1  0  0  0  0
 25 27  2  0  0  0  0
 27 26  1  0  0  0  0
 29 28  1  0  0  0  0
 29 30  1  0  0  0  0
 31 30  1  0  0  0  0
 32 33  1  0  0  0  0
 32 31  1  0  0  0  0
 33 36  1  0  0  0  0
 34 33  1  0  0  0  0
 35 36  1  0  0  0  0
M  END
>  <MODEL>
6

>  <REMARK>
 VINA RESULT:      -6.5      7.686     11.868
  Name = 
  8 active torsions:
  status: ('A' for Active; 'I' for Inactive)
    1  A    between atoms: N_2  and  C_16
    2  A    between atoms: N_2  and  O_24
    3  A    between atoms: C_8  and  C_33
    4  A    between atoms: N_9  and  C_22
    5  A    between atoms: N_9  and  C_29
    6  A    between atoms: C_16  and  C_29
    7  A    between atoms: C_22  and  C_31
    8  A    between atoms: C_27  and  C_31
                            x       y       z     vdW  Elec       q    Type
                         _______ _______ _______ _____ _____    ______ ____

>  <TORSDO>
F 8

$$$$
=
 OpenBabel10222419413D

 36 41  0  0  1  0  0  0  0  0999 V2000
  191.2010  176.8120  138.6940 C   0  0  0  0  0  0  0  0  0  0  0  0
  189.3750  175.7720  137.2970 C   0  0  0  0  0  0  0  0  0  0  0  0
  189.2860  177.8230  139.9770 C   0  0  0  0  0  0  0  0  0  0  0  0
  188.6970  178.3490  138.7170 C   0  0  0  0  0  2  0  0  0  0  0  0
  189.6880  174.6500  136.4070 C   0  0  0  0  0  0  0  0  0  0  0  0
  189.1800  177.6100  142.3970 C   0  0  0  0  0  0  0  0  0  0  0  0
  186.4130  173.2400  135.9920 N   0  0  0  0  0  0  0  0  0  0  0  0
  188.6410  178.0780  141.1920 C   0  0  0  0  0  3  0  0  0  0  0  0
  189.0270  172.7240  135.0200 C   0  0  0  0  0  3  0  0  0  0  0  0
  192.6910  176.6520  138.6510 C   0  0  0  0  0  3  0  0  0  0  0  0
  188.0930  176.1040  137.5970 C   0  0  0  0  0  0  0  0  0  0  0  0
  188.7510  173.8060  135.9690 C   0  0  0  0  0  0  0  0  0  0  0  0
  187.3590  174.0440  136.3790 C   0  0  0  0  0  0  0  0  0  0  0  0
  187.6290  177.3980  138.2130 C   0  0  0  0  0  2  0  0  0  0  0  0
  190.4740  177.0750  139.9520 C   0  0  0  0  0  0  0  0  0  0  0  0
  188.0430  171.9040  134.6540 C   0  0  0  0  0  3  0  0  0  0  0  0
  190.6740  176.4020  137.5430 C   0  0  2  0  0  3  0  0  0  0  0  0
  191.1400  174.6520  136.0350 C   0  0  0  0  0  2  0  0  0  0  0  0
  192.9560  175.9320  137.3230 C   0  0  1  0  0  3  0  0  0  0  0  0
  186.6510  172.0000  135.2360 C   0  0  0  0  0  2  0  0  0  0  0  0
  191.0220  176.6270  141.1630 C   0  0  0  0  0  3  0  0  0  0  0  0
  187.0520  175.2140  137.1520 N   0  0  0  0  0  2  0  0  0  0  0  0
  190.3790  176.8860  142.3750 C   0  0  0  0  0  3  0  0  0  0  0  0
  191.6540  175.8500  136.6910 N   0  0  2  0  0  0  0  0  0  0  0  0
  189.1700  178.1210  144.7140 O   0  0  0  0  0  1  0  0  0  0  0  0
  187.1130  177.8760  143.7460 O   0  0  0  0  0  0  0  0  0  0  0  0
  188.5010  177.8790  143.6750 C   0  0  0  0  0  0  0  0  0  0  0  0
  193.8920  176.7550  136.4600 C   0  0  0  0  0  2  0  0  0  0  0  0
  194.7630  175.8370  135.6240 C   0  0  0  0  0  2  0  0  0  0  0  0
  196.0230  175.6070  136.3110 N   0  0  0  0  0  2  0  0  0  0  0  0
  196.0180  174.2280  136.7660 C   0  0  0  0  0  2  0  0  0  0  0  0
  196.9930  174.0620  137.9220 C   0  0  0  0  0  2  0  0  0  0  0  0
  196.2720  173.7530  139.1480 N   0  0  0  0  0  0  0  0  0  0  0  0
  195.1320  173.1260  138.7730 O   0  0  0  0  0  1  0  0  0  0  0  0
  196.9380  175.2540  140.5870 C   0  0  0  0  0  1  0  0  0  0  0  0
  195.9050  174.9370  139.7020 O   0  0  0  0  0  0  0  0  0  0  0  0
  1 15  1  0  0  0  0
  2 11  2  0  0  0  0
  3  8  1  0  0  0  0
  4  3  1  0  0  0  0
  5  2  1  0  0  0  0
  6 27  1  0  0  0  0
  7 13  2  0  0  0  0
  8  6  2  0  0  0  0
  9 12  1  0  0  0  0
 10  1  2  0  0  0  0
 11 14  1  0  0  0  0
 12 13  1  0  0  0  0
 12  5  2  0  0  0  0
 13 22  1  0  0  0  0
 14  4  1  0  0  0  0
 15  3  2  0  0  0  0
 15 21  1  0  0  0  0
 16  9  2  0  0  0  0
 16 20  1  0  0  0  0
 17  2  1  1  0  0  0
 17  1  1  0  0  0  0
 18  5  1  0  0  0  0
 19 28  1  6  0  0  0
 19 10  1  0  0  0  0
 20  7  1  0  0  0  0
 21 23  2  0  0  0  0
 22 11  1  0  0  0  0
 23  6  1  0  0  0  0
 24 18  1  1  0  0  0
 24 19  1  0  0  0  0
 24 17  1  0  0  0  0
 27 26  2  0  0  0  0
 27 25  1  0  0  0  0
 29 30  1  0  0  0  0
 29 28  1  0  0  0  0
 30 31  1  0  0  0  0
 31 32  1  0  0  0  0
 32 33  1  0  0  0  0
 33 36  1  0  0  0  0
 34 33  1  0  0  0  0
 36 35  1  0  0  0  0
M  END
>  <MODEL>
7

>  <REMARK>
 VINA RESULT:      -6.5      7.775     12.092
  Name = 
  8 active torsions:
  status: ('A' for Active; 'I' for Inactive)
    1  A    between atoms: N_2  and  C_16
    2  A    between atoms: N_2  and  O_24
    3  A    between atoms: C_8  and  C_33
    4  A    between atoms: N_9  and  C_22
    5  A    between atoms: N_9  and  C_29
    6  A    between atoms: C_16  and  C_29
    7  A    between atoms: C_22  and  C_31
    8  A    between atoms: C_27  and  C_31
                            x       y       z     vdW  Elec       q    Type
                         _______ _______ _______ _____ _____    ______ ____

>  <TORSDO>
F 8

$$$$
=
 OpenBabel10222419413D

 36 41  0  0  1  0  0  0  0  0999 V2000
  186.1000  178.0090  138.4640 C   0  0  0  0  0  0  0  0  0  0  0  0
  187.1100  178.2740  140.7620 C   0  0  0  0  0  0  0  0  0  0  0  0
  188.4430  177.3830  137.7910 C   0  0  0  0  0  0  0  0  0  0  0  0
  188.9730  178.6270  138.4110 C   0  0  0  0  0  2  0  0  0  0  0  0
  186.2380  178.3360  141.9380 C   0  0  0  0  0  0  0  0  0  0  0  0
  188.8590  175.3310  136.5530 C   0  0  0  0  0  0  0  0  0  0  0  0
  188.5760  177.4340  144.5070 N   0  0  0  0  0  0  0  0  0  0  0  0
  189.3300  176.5030  137.1610 C   0  0  0  0  0  3  0  0  0  0  0  0
  185.8480  178.1950  144.3660 C   0  0  0  0  0  3  0  0  0  0  0  0
  184.6830  178.1190  137.9890 C   0  0  0  0  0  3  0  0  0  0  0  0
  188.4500  178.0880  140.8800 C   0  0  0  0  0  0  0  0  0  0  0  0
  186.6810  178.0650  143.1680 C   0  0  0  0  0  0  0  0  0  0  0  0
  188.1020  177.7230  143.3320 C   0  0  0  0  0  0  0  0  0  0  0  0
  189.4810  178.3270  139.8080 C   0  0  0  0  0  2  0  0  0  0  0  0
  187.0710  177.0900  137.8370 C   0  0  0  0  0  0  0  0  0  0  0  0
  186.3540  177.8750  145.5570 C   0  0  0  0  0  3  0  0  0  0  0  0
  186.2240  178.6100  139.6450 C   0  0  2  0  0  3  0  0  0  0  0  0
  184.8630  178.8000  141.5600 C   0  0  0  0  0  2  0  0  0  0  0  0
  183.9390  178.7640  139.1640 C   0  0  1  0  0  3  0  0  0  0  0  0
  187.7490  177.3110  145.7170 C   0  0  0  0  0  2  0  0  0  0  0  0
  186.6020  175.9270  137.2090 C   0  0  0  0  0  3  0  0  0  0  0  0
  188.9670  177.7820  142.1890 N   0  0  0  0  0  2  0  0  0  0  0  0
  187.4880  175.0520  136.5760 C   0  0  0  0  0  3  0  0  0  0  0  0
  184.9790  179.0640  140.1300 N   0  0  2  0  0  0  0  0  0  0  0  0
  189.6340  174.0990  134.6790 O   0  0  0  0  0  0  0  0  0  0  0  0
  190.8630  173.8660  136.5940 O   0  0  0  0  0  1  0  0  0  0  0  0
  189.7920  174.4060  135.8900 C   0  0  0  0  0  0  0  0  0  0  0  0
  183.2710  180.0510  138.7180 C   0  0  0  0  0  2  0  0  0  0  0  0
  181.8030  180.0280  139.0950 C   0  0  0  0  0  2  0  0  0  0  0  0
  181.4340  178.6880  139.5210 N   0  0  0  0  0  2  0  0  0  0  0  0
  180.2950  178.2800  138.7170 C   0  0  0  0  0  2  0  0  0  0  0  0
  180.2720  176.7650  138.5860 C   0  0  0  0  0  2  0  0  0  0  0  0
  181.3300  176.1740  139.3930 N   0  0  0  0  0  0  0  0  0  0  0  0
  182.1310  175.4980  138.5370 O   0  0  0  0  0  1  0  0  0  0  0  0
  179.9370  174.4940  139.3500 C   0  0  0  0  0  1  0  0  0  0  0  0
  180.7470  175.2510  140.1990 O   0  0  0  0  0  0  0  0  0  0  0  0
  2 11  2  0  0  0  0
  2  5  1  0  0  0  0
  3 15  1  0  0  0  0
  3  4  1  0  0  0  0
  4 14  1  0  0  0  0
  5 12  2  0  0  0  0
  6 23  2  0  0  0  0
  6  8  1  0  0  0  0
  7 20  1  0  0  0  0
  8  3  2  0  0  0  0
  9 16  2  0  0  0  0
 10  1  2  0  0  0  0
 10 19  1  0  0  0  0
 11 22  1  0  0  0  0
 12 13  1  0  0  0  0
 12  9  1  0  0  0  0
 13  7  2  0  0  0  0
 14 11  1  0  0  0  0
 15  1  1  0  0  0  0
 16 20  1  0  0  0  0
 17  1  1  6  0  0  0
 17 24  1  0  0  0  0
 17  2  1  0  0  0  0
 18  5  1  0  0  0  0
 19 28  1  6  0  0  0
 19 24  1  0  0  0  0
 21 15  2  0  0  0  0
 22 13  1  0  0  0  0
 23 21  1  0  0  0  0
 24 18  1  1  0  0  0
 25 27  2  0  0  0  0
 27  6  1  0  0  0  0
 27 26  1  0  0  0  0
 28 29  1  0  0  0  0
 29 30  1  0  0  0  0
 31 30  1  0  0  0  0
 32 31  1  0  0  0  0
 32 33  1  0  0  0  0
 33 36  1  0  0  0  0
 34 33  1  0  0  0  0
 35 36  1  0  0  0  0
M  END
>  <MODEL>
8

>  <REMARK>
 VINA RESULT:      -6.5      3.306      4.864
  Name = 
  8 active torsions:
  status: ('A' for Active; 'I' for Inactive)
    1  A    between atoms: N_2  and  C_16
    2  A    between atoms: N_2  and  O_24
    3  A    between atoms: C_8  and  C_33
    4  A    between atoms: N_9  and  C_22
    5  A    between atoms: N_9  and  C_29
    6  A    between atoms: C_16  and  C_29
    7  A    between atoms: C_22  and  C_31
    8  A    between atoms: C_27  and  C_31
                            x       y       z     vdW  Elec       q    Type
                         _______ _______ _______ _____ _____    ______ ____

>  <TORSDO>
F 8

$$$$
=
 OpenBabel10222419413D

 36 41  0  0  1  0  0  0  0  0999 V2000
  184.3080  178.0250  138.6640 C   0  0  0  0  0  0  0  0  0  0  0  0
  183.4390  175.9640  137.4950 C   0  0  0  0  0  0  0  0  0  0  0  0
  181.9010  178.3450  139.3290 C   0  0  0  0  0  0  0  0  0  0  0  0
  181.4740  178.2190  137.9100 C   0  0  0  0  0  2  0  0  0  0  0  0
  184.3760  174.9240  137.0620 C   0  0  0  0  0  0  0  0  0  0  0  0
  181.3080  178.7120  141.6590 C   0  0  0  0  0  0  0  0  0  0  0  0
  182.1340  172.1350  136.7770 N   0  0  0  0  0  0  0  0  0  0  0  0
  180.9350  178.5730  140.3160 C   0  0  0  0  0  3  0  0  0  0  0  0
  184.8880  172.6320  136.3180 C   0  0  0  0  0  3  0  0  0  0  0  0
  185.7010  178.5490  138.8390 C   0  0  0  0  0  3  0  0  0  0  0  0
  182.1000  175.7450  137.5280 C   0  0  0  0  0  0  0  0  0  0  0  0
  183.9860  173.6690  136.8240 C   0  0  0  0  0  0  0  0  0  0  0  0
  182.5590  173.3470  136.9800 C   0  0  0  0  0  0  0  0  0  0  0  0
  181.0270  176.7980  137.6330 C   0  0  0  0  0  2  0  0  0  0  0  0
  183.2560  178.2340  139.6800 C   0  0  0  0  0  0  0  0  0  0  0  0
  184.4300  171.3930  136.1360 C   0  0  0  0  0  3  0  0  0  0  0  0
  184.2800  177.1520  137.6600 C   0  0  2  0  0  3  0  0  0  0  0  0
  185.7510  175.4880  136.8700 C   0  0  0  0  0  2  0  0  0  0  0  0
  186.5410  177.7230  137.8570 C   0  0  1  0  0  3  0  0  0  0  0  0
  183.0180  170.9920  136.5000 C   0  0  0  0  0  2  0  0  0  0  0  0
  183.6270  178.3950  141.0230 C   0  0  0  0  0  3  0  0  0  0  0  0
  181.6380  174.4020  137.2890 N   0  0  0  0  0  2  0  0  0  0  0  0
  182.6620  178.6270  142.0050 C   0  0  0  0  0  3  0  0  0  0  0  0
  185.5730  176.9100  137.1480 N   0  0  2  0  0  0  0  0  0  0  0  0
  179.6850  177.9870  143.2310 O   0  0  0  0  0  1  0  0  0  0  0  0
  179.9970  180.2500  143.1020 O   0  0  0  0  0  0  0  0  0  0  0  0
  180.2920  178.9520  142.6960 C   0  0  0  0  0  0  0  0  0  0  0  0
  187.2520  178.6390  136.8790 C   0  0  0  0  0  2  0  0  0  0  0  0
  188.7500  178.5700  137.1040 C   0  0  0  0  0  2  0  0  0  0  0  0
  189.0560  178.9910  138.4610 N   0  0  0  0  0  2  0  0  0  0  0  0
  189.7580  177.8950  139.1040 C   0  0  0  0  0  2  0  0  0  0  0  0
  189.2180  177.6880  140.5100 C   0  0  0  0  0  2  0  0  0  0  0  0
  190.3030  177.3580  141.4220 N   0  0  0  0  0  0  0  0  0  0  0  0
  191.4510  177.5020  140.7190 O   0  0  0  0  0  1  0  0  0  0  0  0
  189.8380  176.0030  143.0700 C   0  0  0  0  0  1  0  0  0  0  0  0
  190.1860  176.0380  141.7180 O   0  0  0  0  0  0  0  0  0  0  0  0
  1 10  2  0  0  0  0
  1 15  1  0  0  0  0
  2 11  2  0  0  0  0
  3 15  2  0  0  0  0
  3  8  1  0  0  0  0
  4  3  1  0  0  0  0
  5  2  1  0  0  0  0
  6 23  1  0  0  0  0
  6 27  1  0  0  0  0
  7 13  2  0  0  0  0
  8  6  2  0  0  0  0
  9 12  1  0  0  0  0
 11 14  1  0  0  0  0
 12 13  1  0  0  0  0
 12  5  2  0  0  0  0
 13 22  1  0  0  0  0
 14  4  1  0  0  0  0
 15 21  1  0  0  0  0
 16  9  2  0  0  0  0
 16 20  1  0  0  0  0
 17  2  1  1  0  0  0
 17  1  1  0  0  0  0
 18  5  1  0  0  0  0
 19 28  1  6  0  0  0
 19 10  1  0  0  0  0
 20  7  1  0  0  0  0
 21 23  2  0  0  0  0
 22 11  1  0  0  0  0
 24 18  1  1  0  0  0
 24 17  1  0  0  0  0
 24 19  1  0  0  0  0
 27 26  2  0  0  0  0
 27 25  1  0  0  0  0
 28 29  1  0  0  0  0
 29 30  1  0  0  0  0
 30 31  1  0  0  0  0
 31 32  1  0  0  0  0
 32 33  1  0  0  0  0
 33 36  1  0  0  0  0
 34 33  1  0  0  0  0
 36 35  1  0  0  0  0
M  END
>  <MODEL>
9

>  <REMARK>
 VINA RESULT:      -6.5      4.160      8.577
  Name = 
  8 active torsions:
  status: ('A' for Active; 'I' for Inactive)
    1  A    between atoms: N_2  and  C_16
    2  A    between atoms: N_2  and  O_24
    3  A    between atoms: C_8  and  C_33
    4  A    between atoms: N_9  and  C_22
    5  A    between atoms: N_9  and  C_29
    6  A    between atoms: C_16  and  C_29
    7  A    between atoms: C_22  and  C_31
    8  A    between atoms: C_27  and  C_31
                            x       y       z     vdW  Elec       q    Type
                         _______ _______ _______ _____ _____    ______ ____

>  <TORSDO>
F 8

$$$$
