=
 OpenBabel10222418163D

 59 67  0  0  1  0  0  0  0  0999 V2000
  191.2630  179.7960  143.8280 C   0  0  0  0  0  1  0  0  0  0  0  0
  190.4240  178.6260  143.3410 C   0  0  2  0  0  0  0  0  0  0  0  0
  190.9200  178.2100  141.9470 C   0  0  1  0  0  3  0  0  0  0  0  0
  189.0840  179.0240  143.3680 O   0  0  0  0  0  1  0  0  0  0  0  0
  191.8310  176.6520  143.6080 C   0  0  0  0  0  2  0  0  0  0  0  0
  190.6860  177.4250  144.2480 C   0  0  2  0  0  3  0  0  0  0  0  0
  192.1190  177.3130  142.2680 C   0  0  0  0  0  2  0  0  0  0  0  0
  190.3180  177.2260  139.5650 C   0  0  1  0  0  3  0  0  0  0  0  0
  190.1420  176.0750  140.5460 C   0  0  0  0  0  2  0  0  0  0  0  0
  189.8780  177.5020  141.0070 C   0  0  1  0  0  0  0  0  0  0  0  0
  192.4950  176.7470  138.3830 C   0  0  0  0  0  0  0  0  0  0  0  0
  191.8870  175.6950  137.6290 N   0  0  0  0  0  2  0  0  0  0  0  0
  191.7350  177.4760  139.3450 N   0  0  0  0  0  2  0  0  0  0  0  0
  193.7030  177.0450  138.1980 O   0  0  0  0  0  0  0  0  0  0  0  0
  192.6370  174.9040  136.6630 C   0  0  0  0  0  2  0  0  0  0  0  0
  193.4380  173.8120  137.3600 C   0  0  0  0  0  2  0  0  0  0  0  0
  194.8930  172.5400  135.4460 O   0  0  0  0  0  0  0  0  0  0  0  0
  195.5850  175.0090  135.8950 O   0  0  0  0  0  1  0  0  0  0  0  0
  195.0520  173.5480  136.5590 P   0  0  1  0  0  0  0  0  0  0  0  0
  196.2760  172.9380  137.7850 C   0  0  1  0  0  3  0  0  0  0  0  0
  195.6300  174.8350  139.3740 C   0  0  0  0  0  1  0  0  0  0  0  0
  197.7260  174.8540  138.0820 N   0  0  0  0  0  0  0  0  0  0  0  0
  199.0700  174.6540  136.0670 C   0  0  0  0  0  1  0  0  0  0  0  0
  197.7670  172.4070  136.9150 S   0  0  0  0  0  0  0  0  0  0  0  0
  196.7520  174.0090  138.7570 C   0  0  2  0  0  3  0  0  0  0  0  0
  198.6150  173.9670  137.3390 C   0  0  2  0  0  3  0  0  0  0  0  0
  198.4770  175.4410  139.0440 O   0  0  0  0  0  1  0  0  0  0  0  0
  188.4430  177.9350  141.0030 C   0  0  0  0  0  0  0  0  0  0  0  0
  187.5700  177.2480  141.5970 O   0  0  0  0  0  1  0  0  0  0  0  0
  188.0820  179.1210  140.3800 O   0  0  0  0  0  0  0  0  0  0  0  0
  189.2310  176.3270  144.3900 S   0  0  0  0  0  0  0  0  0  0  0  0
  187.5910  178.5570  148.1030 C   0  0  0  0  0  3  0  0  0  0  0  0
  189.3930  177.4660  146.9250 C   0  0  0  0  0  0  0  0  0  0  0  0
  188.5830  177.1990  145.8180 C   0  0  0  0  0  0  0  0  0  0  0  0
  190.8330  177.1740  147.2040 C   0  0  1  0  0  3  0  0  0  0  0  0
  186.7460  178.2860  147.0170 C   0  0  0  0  0  3  0  0  0  0  0  0
  187.2310  177.6070  145.8740 C   0  0  0  0  0  0  0  0  0  0  0  0
  189.9310  178.3000  148.9780 N   0  0  0  0  0  0  0  0  0  0  0  0
  191.0040  177.7730  148.5370 N   0  0  0  0  0  0  0  0  0  0  0  0
  188.9130  178.1340  148.0140 C   0  0  0  0  0  0  0  0  0  0  0  0
  191.0690  175.6710  147.2880 C   0  0  0  0  0  3  0  0  0  0  0  0
  192.3810  175.3910  148.0010 C   0  0  0  0  0  2  0  0  0  0  0  0
  192.3100  175.3110  146.4920 C   0  0  0  0  0  2  0  0  0  0  0  0
  186.3590  177.3480  144.7670 N   0  0  0  0  0  2  0  0  0  0  0  0
  185.2300  178.1420  144.5120 N   0  0  0  0  0  2  0  0  0  0  0  0
  185.2910  178.5290  143.1130 C   0  0  0  0  0  2  0  0  0  0  0  0
  182.8430  180.1560  143.9940 Cl  0  0  0  0  0  0  0  0  0  0  0  0
  183.9790  178.1630  142.4370 C   0  0  2  0  0  3  0  0  0  0  0  0
  182.4180  178.5080  140.6570 C   0  0  2  0  0  3  0  0  0  0  0  0
  181.3160  178.4970  142.1150 S   0  0  0  0  0  0  0  0  0  0  0  0
  183.8440  178.7970  141.0730 C   0  0  0  0  0  2  0  0  0  0  0  0
  182.7390  178.5280  143.2480 C   0  0  2  0  0  3  0  0  0  0  0  0
  181.2280  178.4860  138.2800 C   0  0  1  0  0  3  0  0  0  0  0  0
  182.5600  179.2020  138.0430 C   0  0  1  0  0  3  0  0  0  0  0  0
  181.8990  177.1590  137.9680 C   0  0  0  0  0  2  0  0  0  0  0  0
  181.8890  179.2680  139.4130 C   0  0  2  0  0  0  0  0  0  0  0  0
  183.2140  177.8670  137.7390 C   0  0  0  0  0  2  0  0  0  0  0  0
  181.4800  181.3280  138.5960 C   0  0  0  0  0  1  0  0  0  0  0  0
  181.2030  180.4670  139.6670 O   0  0  0  0  0  0  0  0  0  0  0  0
  2  4  1  0  0  0  0
  2  1  1  1  0  0  0
  2  6  1  0  0  0  0
  3  7  1  1  0  0  0
  3  2  1  0  0  0  0
  5  6  1  0  0  0  0
  6 31  1  6  0  0  0
  7  5  1  0  0  0  0
  8 13  1  1  0  0  0
  8  9  1  0  0  0  0
  8 10  1  0  0  0  0
  9 10  1  0  0  0  0
 10 28  1  1  0  0  0
 10  3  1  0  0  0  0
 11 13  1  0  0  0  0
 12 11  1  0  0  0  0
 14 11  2  0  0  0  0
 15 16  1  0  0  0  0
 15 12  1  0  0  0  0
 18 19  1  0  0  0  0
 19 17  2  6  0  0  0
 19 16  1  0  0  0  0
 20 19  1  6  0  0  0
 20 25  1  0  0  0  0
 22 25  1  0  0  0  0
 22 27  1  0  0  0  0
 24 26  1  0  0  0  0
 24 20  1  0  0  0  0
 25 21  1  6  0  0  0
 26 23  1  6  0  0  0
 26 22  1  0  0  0  0
 28 29  1  0  0  0  0
 30 28  2  0  0  0  0
 31 34  1  0  0  0  0
 33 35  1  0  0  0  0
 33 40  2  0  0  0  0
 34 37  2  0  0  0  0
 34 33  1  0  0  0  0
 35 41  1  1  0  0  0
 35 39  1  0  0  0  0
 36 32  2  0  0  0  0
 37 36  1  0  0  0  0
 39 38  2  0  0  0  0
 40 32  1  0  0  0  0
 40 38  1  0  0  0  0
 41 42  1  0  0  0  0
 43 41  1  0  0  0  0
 43 42  1  0  0  0  0
 44 37  1  0  0  0  0
 45 44  1  0  0  0  0
 46 45  1  0  0  0  0
 48 46  1  1  0  0  0
 48 52  1  0  0  0  0
 49 51  1  1  0  0  0
 49 50  1  0  0  0  0
 50 52  1  0  0  0  0
 51 48  1  0  0  0  0
 52 47  1  6  0  0  0
 53 55  1  1  0  0  0
 53 56  1  0  0  0  0
 54 57  1  1  0  0  0
 54 53  1  0  0  0  0
 54 56  1  0  0  0  0
 56 59  1  1  0  0  0
 56 49  1  0  0  0  0
 57 55  1  0  0  0  0
 58 59  1  0  0  0  0
M  END
>  <MODEL>
1

>  <REMARK>
 VINA RESULT:      -6.8      0.000      0.000
  Name = 
  16 active torsions:
  status: ('A' for Active; 'I' for Inactive)
    1  A    between atoms: C_1  and  C_15
    2  A    between atoms: C_1  and  P_32
    3  A    between atoms: S_3  and  C_27
    4  A    between atoms: S_3  and  C_54
    5  A    between atoms: C_4  and  N_39
    6  A    between atoms: C_5  and  C_53
    7  A    between atoms: C_10  and  P_32
    8  A    between atoms: N_11  and  N_23
    9  A    between atoms: N_11  and  C_25
   10  A    between atoms: C_13  and  C_25
   11  A    between atoms: C_15  and  N_36
   12  A    between atoms: O_16  and  C_40
   13  A    between atoms: C_19  and  C_28
   14  A    between atoms: C_20  and  C_40
   15  A    between atoms: N_23  and  C_31
   16  A    between atoms: C_43  and  C_53
                            x       y       z     vdW  Elec       q    Type
                         _______ _______ _______ _____ _____    ______ ____

>  <TORSDO>
F 16

$$$$
=
 OpenBabel10222418163D

 59 67  0  0  1  0  0  0  0  0999 V2000
  191.1780  179.6800  143.6860 C   0  0  0  0  0  1  0  0  0  0  0  0
  190.3450  178.5940  143.0260 C   0  0  2  0  0  0  0  0  0  0  0  0
  191.0170  178.1920  141.7030 C   0  0  1  0  0  3  0  0  0  0  0  0
  189.0470  179.0890  142.8710 O   0  0  0  0  0  1  0  0  0  0  0  0
  191.5570  176.5120  143.4080 C   0  0  0  0  0  2  0  0  0  0  0  0
  190.3830  177.3450  143.9060 C   0  0  2  0  0  3  0  0  0  0  0  0
  192.0890  177.1970  142.1580 C   0  0  0  0  0  2  0  0  0  0  0  0
  190.7680  177.0300  139.3380 C   0  0  1  0  0  3  0  0  0  0  0  0
  190.0940  176.0950  140.3330 C   0  0  0  0  0  2  0  0  0  0  0  0
  190.0840  177.5960  140.5880 C   0  0  1  0  0  0  0  0  0  0  0  0
  193.0650  176.6350  138.3700 C   0  0  0  0  0  0  0  0  0  0  0  0
  192.5060  176.3570  137.0840 N   0  0  0  0  0  2  0  0  0  0  0  0
  192.2150  176.9380  139.4750 N   0  0  0  0  0  2  0  0  0  0  0  0
  194.3110  176.6230  138.5370 O   0  0  0  0  0  0  0  0  0  0  0  0
  193.3370  176.0090  135.9390 C   0  0  0  0  0  2  0  0  0  0  0  0
  193.9310  174.6170  136.1040 C   0  0  0  0  0  2  0  0  0  0  0  0
  196.1960  173.7950  134.8400 O   0  0  0  0  0  0  0  0  0  0  0  0
  196.2610  176.2380  135.7380 O   0  0  0  0  0  1  0  0  0  0  0  0
  195.7490  174.6480  136.0040 P   0  0  1  0  0  0  0  0  0  0  0  0
  196.4820  174.0110  137.5630 C   0  0  1  0  0  3  0  0  0  0  0  0
  198.7160  173.6580  136.3690 C   0  0  0  0  0  1  0  0  0  0  0  0
  197.2140  171.7910  136.9350 N   0  0  0  0  0  0  0  0  0  0  0  0
  195.0800  170.6300  137.0120 C   0  0  0  0  0  1  0  0  0  0  0  0
  195.2670  172.9740  138.4050 S   0  0  0  0  0  0  0  0  0  0  0  0
  197.6850  173.1040  137.3460 C   0  0  2  0  0  3  0  0  0  0  0  0
  196.0810  171.4590  137.7920 C   0  0  2  0  0  3  0  0  0  0  0  0
  198.1960  170.9050  137.2290 O   0  0  0  0  0  1  0  0  0  0  0  0
  188.8390  178.3210  140.1740 C   0  0  0  0  0  0  0  0  0  0  0  0
  188.8830  179.1930  139.2660 O   0  0  0  0  0  0  0  0  0  0  0  0
  187.6240  178.0000  140.7630 O   0  0  0  0  0  1  0  0  0  0  0  0
  188.8530  176.3540  143.7790 S   0  0  0  0  0  0  0  0  0  0  0  0
  186.8300  178.5690  147.3070 C   0  0  0  0  0  3  0  0  0  0  0  0
  188.7530  177.5030  146.3120 C   0  0  0  0  0  0  0  0  0  0  0  0
  188.0570  177.2210  145.1340 C   0  0  0  0  0  0  0  0  0  0  0  0
  190.1640  177.2340  146.7290 C   0  0  1  0  0  3  0  0  0  0  0  0
  186.0970  178.2820  146.1460 C   0  0  0  0  0  3  0  0  0  0  0  0
  186.7000  177.6080  145.0580 C   0  0  0  0  0  0  0  0  0  0  0  0
  189.0780  178.3520  148.4040 N   0  0  0  0  0  0  0  0  0  0  0  0
  190.1960  177.8410  148.0710 N   0  0  0  0  0  0  0  0  0  0  0  0
  188.1600  178.1670  147.3480 C   0  0  0  0  0  0  0  0  0  0  0  0
  190.4130  175.7360  146.8430 C   0  0  0  0  0  3  0  0  0  0  0  0
  191.5270  175.4690  147.8410 C   0  0  0  0  0  2  0  0  0  0  0  0
  191.8160  175.4210  146.3580 C   0  0  0  0  0  2  0  0  0  0  0  0
  185.9420  177.3310  143.8740 N   0  0  0  0  0  2  0  0  0  0  0  0
  184.9230  178.1870  143.4300 N   0  0  0  0  0  2  0  0  0  0  0  0
  185.1230  178.3830  142.0050 C   0  0  0  0  0  2  0  0  0  0  0  0
  185.1560  178.6400  138.9480 Cl  0  0  0  0  0  0  0  0  0  0  0  0
  183.7950  178.7470  141.3610 C   0  0  2  0  0  3  0  0  0  0  0  0
  181.7360  178.0500  140.3590 C   0  0  2  0  0  3  0  0  0  0  0  0
  182.3090  179.3200  139.1760 S   0  0  0  0  0  0  0  0  0  0  0  0
  182.8920  177.5470  141.1980 C   0  0  0  0  0  2  0  0  0  0  0  0
  183.9290  179.4210  139.9980 C   0  0  2  0  0  3  0  0  0  0  0  0
  181.3050  175.5800  139.4760 C   0  0  1  0  0  3  0  0  0  0  0  0
  180.8220  176.4900  138.3430 C   0  0  1  0  0  3  0  0  0  0  0  0
  182.6930  175.5690  138.8610 C   0  0  0  0  0  2  0  0  0  0  0  0
  180.7720  176.9770  139.7890 C   0  0  2  0  0  0  0  0  0  0  0  0
  182.2180  176.4690  137.7450 C   0  0  0  0  0  2  0  0  0  0  0  0
  179.3250  175.5940  140.8240 C   0  0  0  0  0  1  0  0  0  0  0  0
  179.5000  176.9130  140.3800 O   0  0  0  0  0  0  0  0  0  0  0  0
  2  1  1  1  0  0  0
  2  6  1  0  0  0  0
  3  7  1  1  0  0  0
  3  2  1  0  0  0  0
  4  2  1  0  0  0  0
  5  6  1  0  0  0  0
  6 31  1  6  0  0  0
  7  5  1  0  0  0  0
  8 13  1  1  0  0  0
  8  9  1  0  0  0  0
  8 10  1  0  0  0  0
  9 10  1  0  0  0  0
 10 28  1  6  0  0  0
 10  3  1  0  0  0  0
 11 14  2  0  0  0  0
 11 13  1  0  0  0  0
 12 11  1  0  0  0  0
 15 16  1  0  0  0  0
 15 12  1  0  0  0  0
 18 19  1  0  0  0  0
 19 17  2  6  0  0  0
 19 16  1  0  0  0  0
 20 19  1  6  0  0  0
 20 24  1  0  0  0  0
 22 27  1  0  0  0  0
 22 25  1  0  0  0  0
 22 26  1  0  0  0  0
 25 21  1  6  0  0  0
 25 20  1  0  0  0  0
 26 23  1  6  0  0  0
 26 24  1  0  0  0  0
 28 30  1  0  0  0  0
 29 28  2  0  0  0  0
 31 34  1  0  0  0  0
 32 40  1  0  0  0  0
 33 35  1  0  0  0  0
 33 40  2  0  0  0  0
 34 33  1  0  0  0  0
 35 41  1  1  0  0  0
 35 39  1  0  0  0  0
 36 32  2  0  0  0  0
 37 34  2  0  0  0  0
 37 36  1  0  0  0  0
 39 38  2  0  0  0  0
 40 38  1  0  0  0  0
 41 42  1  0  0  0  0
 43 41  1  0  0  0  0
 43 42  1  0  0  0  0
 44 37  1  0  0  0  0
 45 44  1  0  0  0  0
 46 45  1  0  0  0  0
 48 46  1  6  0  0  0
 49 51  1  6  0  0  0
 50 52  1  0  0  0  0
 50 49  1  0  0  0  0
 51 48  1  0  0  0  0
 52 47  1  6  0  0  0
 52 48  1  0  0  0  0
 53 55  1  6  0  0  0
 53 56  1  0  0  0  0
 54 57  1  6  0  0  0
 54 53  1  0  0  0  0
 54 56  1  0  0  0  0
 56 49  1  0  0  0  0
 56 59  1  1  0  0  0
 57 55  1  0  0  0  0
 59 58  1  0  0  0  0
M  END
>  <MODEL>
2

>  <REMARK>
 VINA RESULT:      -6.2      1.740      2.300
  Name = 
  16 active torsions:
  status: ('A' for Active; 'I' for Inactive)
    1  A    between atoms: C_1  and  C_15
    2  A    between atoms: C_1  and  P_32
    3  A    between atoms: S_3  and  C_27
    4  A    between atoms: S_3  and  C_54
    5  A    between atoms: C_4  and  N_39
    6  A    between atoms: C_5  and  C_53
    7  A    between atoms: C_10  and  P_32
    8  A    between atoms: N_11  and  N_23
    9  A    between atoms: N_11  and  C_25
   10  A    between atoms: C_13  and  C_25
   11  A    between atoms: C_15  and  N_36
   12  A    between atoms: O_16  and  C_40
   13  A    between atoms: C_19  and  C_28
   14  A    between atoms: C_20  and  C_40
   15  A    between atoms: N_23  and  C_31
   16  A    between atoms: C_43  and  C_53
                            x       y       z     vdW  Elec       q    Type
                         _______ _______ _______ _____ _____    ______ ____

>  <TORSDO>
F 16

$$$$
=
 OpenBabel10222418163D

 59 67  0  0  1  0  0  0  0  0999 V2000
  191.1810  179.6700  143.7830 C   0  0  0  0  0  1  0  0  0  0  0  0
  190.3390  178.5870  143.1280 C   0  0  2  0  0  0  0  0  0  0  0  0
  190.9660  178.2290  141.7710 C   0  0  1  0  0  3  0  0  0  0  0  0
  189.0300  179.0660  143.0360 O   0  0  0  0  0  1  0  0  0  0  0  0
  191.5960  176.5160  143.4100 C   0  0  0  0  0  2  0  0  0  0  0  0
  190.4310  177.3180  143.9740 C   0  0  2  0  0  3  0  0  0  0  0  0
  192.0690  177.2400  142.1580 C   0  0  0  0  0  2  0  0  0  0  0  0
  190.6340  177.1940  139.3570 C   0  0  1  0  0  3  0  0  0  0  0  0
  190.0730  176.1660  140.3310 C   0  0  0  0  0  2  0  0  0  0  0  0
  189.9990  177.6470  140.6770 C   0  0  1  0  0  0  0  0  0  0  0  0
  192.8600  176.2100  138.6920 C   0  0  0  0  0  0  0  0  0  0  0  0
  192.2120  175.1810  137.9390 N   0  0  0  0  0  2  0  0  0  0  0  0
  192.0890  177.1760  139.4040 N   0  0  0  0  0  2  0  0  0  0  0  0
  194.1150  176.2780  138.7260 O   0  0  0  0  0  0  0  0  0  0  0  0
  192.9630  174.1560  137.2270 C   0  0  0  0  0  2  0  0  0  0  0  0
  192.4290  173.9770  135.8120 C   0  0  0  0  0  2  0  0  0  0  0  0
  190.6110  171.9830  135.4650 O   0  0  0  0  0  0  0  0  0  0  0  0
  190.0430  173.6720  137.3630 O   0  0  0  0  0  1  0  0  0  0  0  0
  190.6850  173.4510  135.8140 P   0  0  1  0  0  0  0  0  0  0  0  0
  189.7240  174.4330  134.5960 C   0  0  1  0  0  3  0  0  0  0  0  0
  191.3350  176.3950  134.9070 C   0  0  0  0  0  1  0  0  0  0  0  0
  189.0740  176.3790  135.8810 N   0  0  0  0  0  0  0  0  0  0  0  0
  187.2300  175.4260  137.1440 C   0  0  0  0  0  1  0  0  0  0  0  0
  187.9620  174.1300  134.8530 S   0  0  0  0  0  0  0  0  0  0  0  0
  189.8890  175.9380  134.7600 C   0  0  2  0  0  3  0  0  0  0  0  0
  187.7870  175.7030  135.7630 C   0  0  2  0  0  3  0  0  0  0  0  0
  188.8370  177.7010  135.7050 O   0  0  0  0  0  1  0  0  0  0  0  0
  188.6940  178.3230  140.3820 C   0  0  0  0  0  0  0  0  0  0  0  0
  187.6440  177.9680  140.9800 O   0  0  0  0  0  1  0  0  0  0  0  0
  188.6500  179.3740  139.4760 O   0  0  0  0  0  0  0  0  0  0  0  0
  188.9110  176.3060  143.8800 S   0  0  0  0  0  0  0  0  0  0  0  0
  186.8820  178.5850  147.3660 C   0  0  0  0  0  3  0  0  0  0  0  0
  188.8090  177.5080  146.3890 C   0  0  0  0  0  0  0  0  0  0  0  0
  188.1130  177.1970  145.2180 C   0  0  0  0  0  0  0  0  0  0  0  0
  190.2230  177.2560  146.8090 C   0  0  1  0  0  3  0  0  0  0  0  0
  186.1490  178.2690  146.2120 C   0  0  0  0  0  3  0  0  0  0  0  0
  186.7530  177.5750  145.1370 C   0  0  0  0  0  0  0  0  0  0  0  0
  189.1340  178.4030  148.4620 N   0  0  0  0  0  0  0  0  0  0  0  0
  190.2540  177.8910  148.1370 N   0  0  0  0  0  0  0  0  0  0  0  0
  188.2150  178.1910  147.4120 C   0  0  0  0  0  0  0  0  0  0  0  0
  190.4800  175.7620  146.9540 C   0  0  0  0  0  3  0  0  0  0  0  0
  191.7250  175.5290  147.7930 C   0  0  0  0  0  2  0  0  0  0  0  0
  191.7970  175.4120  146.2870 C   0  0  0  0  0  2  0  0  0  0  0  0
  185.9950  177.2700  143.9610 N   0  0  0  0  0  2  0  0  0  0  0  0
  185.0090  178.1390  143.4690 N   0  0  0  0  0  2  0  0  0  0  0  0
  184.8440  177.8380  142.0570 C   0  0  0  0  0  2  0  0  0  0  0  0
  184.4050  177.5980  139.0300 Cl  0  0  0  0  0  0  0  0  0  0  0  0
  183.8040  178.7760  141.4660 C   0  0  2  0  0  3  0  0  0  0  0  0
  181.5340  179.1910  140.8330 C   0  0  2  0  0  3  0  0  0  0  0  0
  182.4380  179.7530  139.3480 S   0  0  0  0  0  0  0  0  0  0  0  0
  182.3970  178.2610  141.6590 C   0  0  0  0  0  2  0  0  0  0  0  0
  183.9980  179.0640  139.9800 C   0  0  2  0  0  3  0  0  0  0  0  0
  178.9310  179.7110  140.9830 C   0  0  1  0  0  3  0  0  0  0  0  0
  179.1110  178.3950  141.7450 C   0  0  1  0  0  3  0  0  0  0  0  0
  179.1690  180.4770  142.2720 C   0  0  0  0  0  2  0  0  0  0  0  0
  180.0620  178.7560  140.6070 C   0  0  2  0  0  0  0  0  0  0  0  0
  179.3500  179.1790  143.0230 C   0  0  0  0  0  2  0  0  0  0  0  0
  179.2420  176.8540  139.7180 C   0  0  0  0  0  1  0  0  0  0  0  0
  179.7910  178.1020  139.3930 O   0  0  0  0  0  0  0  0  0  0  0  0
  2  1  1  1  0  0  0
  2  6  1  0  0  0  0
  3  7  1  1  0  0  0
  3  2  1  0  0  0  0
  4  2  1  0  0  0  0
  5  6  1  0  0  0  0
  6 31  1  6  0  0  0
  7  5  1  0  0  0  0
  8 13  1  1  0  0  0
  8  9  1  0  0  0  0
  8 10  1  0  0  0  0
  9 10  1  0  0  0  0
 10 28  1  6  0  0  0
 10  3  1  0  0  0  0
 11 14  2  0  0  0  0
 11 13  1  0  0  0  0
 12 11  1  0  0  0  0
 15 12  1  0  0  0  0
 16 19  1  0  0  0  0
 16 15  1  0  0  0  0
 19 17  2  6  0  0  0
 19 18  1  0  0  0  0
 20 25  1  0  0  0  0
 20 24  1  0  0  0  0
 20 19  1  1  0  0  0
 24 26  1  0  0  0  0
 25 21  1  1  0  0  0
 25 22  1  0  0  0  0
 26 22  1  0  0  0  0
 26 23  1  1  0  0  0
 27 22  1  0  0  0  0
 28 29  1  0  0  0  0
 30 28  2  0  0  0  0
 31 34  1  0  0  0  0
 32 40  1  0  0  0  0
 33 35  1  0  0  0  0
 33 40  2  0  0  0  0
 34 33  1  0  0  0  0
 35 41  1  1  0  0  0
 35 39  1  0  0  0  0
 36 32  2  0  0  0  0
 37 34  2  0  0  0  0
 37 36  1  0  0  0  0
 39 38  2  0  0  0  0
 40 38  1  0  0  0  0
 41 42  1  0  0  0  0
 43 41  1  0  0  0  0
 43 42  1  0  0  0  0
 44 37  1  0  0  0  0
 45 44  1  0  0  0  0
 46 45  1  0  0  0  0
 48 51  1  0  0  0  0
 48 46  1  6  0  0  0
 49 51  1  6  0  0  0
 50 52  1  0  0  0  0
 50 49  1  0  0  0  0
 52 47  1  6  0  0  0
 52 48  1  0  0  0  0
 53 54  1  0  0  0  0
 53 55  1  1  0  0  0
 54 57  1  1  0  0  0
 55 57  1  0  0  0  0
 56 59  1  6  0  0  0
 56 49  1  0  0  0  0
 56 53  1  0  0  0  0
 56 54  1  0  0  0  0
 59 58  1  0  0  0  0
M  END
>  <MODEL>
3

>  <REMARK>
 VINA RESULT:      -6.0      2.704      4.200
  Name = 
  16 active torsions:
  status: ('A' for Active; 'I' for Inactive)
    1  A    between atoms: C_1  and  C_15
    2  A    between atoms: C_1  and  P_32
    3  A    between atoms: S_3  and  C_27
    4  A    between atoms: S_3  and  C_54
    5  A    between atoms: C_4  and  N_39
    6  A    between atoms: C_5  and  C_53
    7  A    between atoms: C_10  and  P_32
    8  A    between atoms: N_11  and  N_23
    9  A    between atoms: N_11  and  C_25
   10  A    between atoms: C_13  and  C_25
   11  A    between atoms: C_15  and  N_36
   12  A    between atoms: O_16  and  C_40
   13  A    between atoms: C_19  and  C_28
   14  A    between atoms: C_20  and  C_40
   15  A    between atoms: N_23  and  C_31
   16  A    between atoms: C_43  and  C_53
                            x       y       z     vdW  Elec       q    Type
                         _______ _______ _______ _____ _____    ______ ____

>  <TORSDO>
F 16

$$$$
=
 OpenBabel10222418163D

 59 67  0  0  1  0  0  0  0  0999 V2000
  188.0880  179.1190  139.2980 C   0  0  0  0  0  1  0  0  0  0  0  0
  187.9790  177.8750  138.4320 C   0  0  2  0  0  0  0  0  0  0  0  0
  186.9880  178.1540  137.2910 C   0  0  1  0  0  3  0  0  0  0  0  0
  187.6020  176.8140  139.2600 O   0  0  0  0  0  1  0  0  0  0  0  0
  189.2730  178.3570  136.4210 C   0  0  0  0  0  2  0  0  0  0  0  0
  189.3280  177.6280  137.7580 C   0  0  2  0  0  3  0  0  0  0  0  0
  187.8540  178.8840  136.2610 C   0  0  0  0  0  2  0  0  0  0  0  0
  184.8770  176.5570  137.2600 C   0  0  1  0  0  3  0  0  0  0  0  0
  184.9880  177.1260  135.8520 C   0  0  0  0  0  2  0  0  0  0  0  0
  186.2500  176.9100  136.6760 C   0  0  1  0  0  0  0  0  0  0  0  0
  182.9690  177.8070  138.3400 C   0  0  0  0  0  0  0  0  0  0  0  0
  182.0140  177.0660  137.5750 N   0  0  0  0  0  2  0  0  0  0  0  0
  184.3660  177.5760  138.1660 N   0  0  0  0  0  2  0  0  0  0  0  0
  182.5870  178.6630  139.1770 O   0  0  0  0  0  0  0  0  0  0  0  0
  180.5810  177.2970  137.6970 C   0  0  0  0  0  2  0  0  0  0  0  0
  179.9370  176.2500  138.5960 C   0  0  0  0  0  2  0  0  0  0  0  0
  181.7690  174.3850  137.8430 O   0  0  0  0  0  0  0  0  0  0  0  0
  179.7250  173.4510  139.1580 O   0  0  0  0  0  1  0  0  0  0  0  0
  180.2780  174.5600  138.0070 P   0  0  1  0  0  0  0  0  0  0  0  0
  179.4330  174.2660  136.4030 C   0  0  1  0  0  3  0  0  0  0  0  0
  178.9400  171.8570  137.1050 C   0  0  0  0  0  1  0  0  0  0  0  0
  180.6940  172.4200  135.4720 N   0  0  0  0  0  0  0  0  0  0  0  0
  182.6390  173.6340  134.6630 C   0  0  0  0  0  1  0  0  0  0  0  0
  180.3620  175.0840  135.0880 S   0  0  0  0  0  0  0  0  0  0  0  0
  179.3910  172.7990  135.9960 C   0  0  2  0  0  3  0  0  0  0  0  0
  181.1310  173.5030  134.5960 C   0  0  2  0  0  3  0  0  0  0  0  0
  180.5070  171.3340  134.6840 O   0  0  0  0  0  1  0  0  0  0  0  0
  187.0010  175.6430  136.4000 C   0  0  0  0  0  0  0  0  0  0  0  0
  187.7480  175.5530  135.3910 O   0  0  0  0  0  0  0  0  0  0  0  0
  186.9060  174.5770  137.2850 O   0  0  0  0  0  1  0  0  0  0  0  0
  189.6430  175.8540  137.4560 S   0  0  0  0  0  0  0  0  0  0  0  0
  194.1510  176.1620  138.4740 C   0  0  0  0  0  3  0  0  0  0  0  0
  192.3620  175.4490  137.0190 C   0  0  0  0  0  0  0  0  0  0  0  0
  191.3870  175.9890  137.8610 C   0  0  0  0  0  0  0  0  0  0  0  0
  192.2680  174.7280  135.7120 C   0  0  1  0  0  3  0  0  0  0  0  0
  193.1950  176.6960  139.3510 C   0  0  0  0  0  3  0  0  0  0  0  0
  191.8140  176.6120  139.0550 C   0  0  0  0  0  0  0  0  0  0  0  0
  194.4680  174.9540  136.2960 N   0  0  0  0  0  0  0  0  0  0  0  0
  193.6880  174.4950  135.4000 N   0  0  0  0  0  0  0  0  0  0  0  0
  193.6920  175.5510  137.3130 C   0  0  0  0  0  0  0  0  0  0  0  0
  191.5610  173.3900  135.8870 C   0  0  0  0  0  3  0  0  0  0  0  0
  192.0510  172.4030  134.8420 C   0  0  0  0  0  2  0  0  0  0  0  0
  190.7220  173.1000  134.6570 C   0  0  0  0  0  2  0  0  0  0  0  0
  190.8500  177.1720  139.9540 N   0  0  0  0  0  2  0  0  0  0  0  0
  190.5850  176.5990  141.2070 N   0  0  0  0  0  2  0  0  0  0  0  0
  190.1600  177.6740  142.0850 C   0  0  0  0  0  2  0  0  0  0  0  0
  190.2330  178.2250  145.1030 Cl  0  0  0  0  0  0  0  0  0  0  0  0
  188.9350  177.2260  142.8670 C   0  0  2  0  0  3  0  0  0  0  0  0
  186.7720  177.7230  143.7620 C   0  0  2  0  0  3  0  0  0  0  0  0
  187.5940  176.9450  145.1970 S   0  0  0  0  0  0  0  0  0  0  0  0
  187.7990  178.2170  142.7660 C   0  0  0  0  0  2  0  0  0  0  0  0
  189.2020  176.9670  144.3470 C   0  0  2  0  0  3  0  0  0  0  0  0
  184.2130  178.4000  143.5250 C   0  0  1  0  0  3  0  0  0  0  0  0
  184.9880  179.6380  143.0670 C   0  0  1  0  0  3  0  0  0  0  0  0
  184.2180  177.8820  142.0980 C   0  0  0  0  0  2  0  0  0  0  0  0
  185.6020  178.6870  144.0900 C   0  0  2  0  0  0  0  0  0  0  0  0
  184.9860  179.1020  141.6470 C   0  0  0  0  0  2  0  0  0  0  0  0
  184.2730  178.7390  145.9090 C   0  0  0  0  0  1  0  0  0  0  0  0
  185.5260  179.1340  145.4190 O   0  0  0  0  0  0  0  0  0  0  0  0
  2  4  1  0  0  0  0
  2  1  1  1  0  0  0
  3  7  1  6  0  0  0
  3  2  1  0  0  0  0
  5  6  1  0  0  0  0
  6 31  1  6  0  0  0
  6  2  1  0  0  0  0
  7  5  1  0  0  0  0
  8 13  1  1  0  0  0
  9 10  1  0  0  0  0
  9  8  1  0  0  0  0
 10 28  1  6  0  0  0
 10  8  1  0  0  0  0
 10  3  1  0  0  0  0
 11 14  2  0  0  0  0
 12 15  1  0  0  0  0
 12 11  1  0  0  0  0
 13 11  1  0  0  0  0
 15 16  1  0  0  0  0
 19 17  2  6  0  0  0
 19 16  1  0  0  0  0
 19 18  1  0  0  0  0
 20 19  1  1  0  0  0
 22 25  1  0  0  0  0
 24 20  1  0  0  0  0
 25 20  1  0  0  0  0
 25 21  1  1  0  0  0
 26 23  1  1  0  0  0
 26 24  1  0  0  0  0
 26 22  1  0  0  0  0
 27 22  1  0  0  0  0
 28 30  1  0  0  0  0
 29 28  2  0  0  0  0
 31 34  1  0  0  0  0
 32 36  1  0  0  0  0
 33 40  1  0  0  0  0
 33 34  2  0  0  0  0
 34 37  1  0  0  0  0
 35 41  1  1  0  0  0
 35 33  1  0  0  0  0
 37 36  2  0  0  0  0
 37 44  1  0  0  0  0
 38 40  1  0  0  0  0
 39 35  1  0  0  0  0
 39 38  2  0  0  0  0
 40 32  2  0  0  0  0
 42 41  1  0  0  0  0
 43 42  1  0  0  0  0
 43 41  1  0  0  0  0
 44 45  1  0  0  0  0
 45 46  1  0  0  0  0
 48 46  1  1  0  0  0
 48 52  1  0  0  0  0
 49 51  1  1  0  0  0
 49 56  1  0  0  0  0
 49 50  1  0  0  0  0
 51 48  1  0  0  0  0
 52 47  1  1  0  0  0
 52 50  1  0  0  0  0
 53 55  1  6  0  0  0
 53 56  1  0  0  0  0
 54 57  1  6  0  0  0
 54 53  1  0  0  0  0
 54 56  1  0  0  0  0
 56 59  1  1  0  0  0
 57 55  1  0  0  0  0
 59 58  1  0  0  0  0
M  END
>  <MODEL>
4

>  <REMARK>
 VINA RESULT:      -5.2      4.621     10.597
  Name = 
  16 active torsions:
  status: ('A' for Active; 'I' for Inactive)
    1  A    between atoms: C_1  and  C_15
    2  A    between atoms: C_1  and  P_32
    3  A    between atoms: S_3  and  C_27
    4  A    between atoms: S_3  and  C_54
    5  A    between atoms: C_4  and  N_39
    6  A    between atoms: C_5  and  C_53
    7  A    between atoms: C_10  and  P_32
    8  A    between atoms: N_11  and  N_23
    9  A    between atoms: N_11  and  C_25
   10  A    between atoms: C_13  and  C_25
   11  A    between atoms: C_15  and  N_36
   12  A    between atoms: O_16  and  C_40
   13  A    between atoms: C_19  and  C_28
   14  A    between atoms: C_20  and  C_40
   15  A    between atoms: N_23  and  C_31
   16  A    between atoms: C_43  and  C_53
                            x       y       z     vdW  Elec       q    Type
                         _______ _______ _______ _____ _____    ______ ____

>  <TORSDO>
F 16

$$$$
=
 OpenBabel10222418163D

 59 67  0  0  1  0  0  0  0  0999 V2000
  190.9370  174.4730  143.5920 C   0  0  0  0  0  1  0  0  0  0  0  0
  190.7360  175.9240  143.1900 C   0  0  2  0  0  0  0  0  0  0  0  0
  190.4050  175.9790  141.6900 C   0  0  1  0  0  3  0  0  0  0  0  0
  191.8940  176.6250  143.5390 O   0  0  0  0  0  1  0  0  0  0  0  0
  188.3240  176.2180  142.9680 C   0  0  0  0  0  2  0  0  0  0  0  0
  189.4990  176.4630  143.9070 C   0  0  2  0  0  3  0  0  0  0  0  0
  188.9020  175.6870  141.6640 C   0  0  0  0  0  2  0  0  0  0  0  0
  190.5390  177.3310  139.4180 C   0  0  1  0  0  3  0  0  0  0  0  0
  189.6510  178.1550  140.3400 C   0  0  0  0  0  2  0  0  0  0  0  0
  190.7680  177.3090  140.9340 C   0  0  1  0  0  0  0  0  0  0  0  0
  190.0180  175.6240  137.6350 C   0  0  0  0  0  0  0  0  0  0  0  0
  190.9320  176.2490  136.7300 N   0  0  0  0  0  2  0  0  0  0  0  0
  189.8080  176.1680  138.9370 N   0  0  0  0  0  2  0  0  0  0  0  0
  189.3970  174.5850  137.2950 O   0  0  0  0  0  0  0  0  0  0  0  0
  191.1480  175.7460  135.3800 C   0  0  0  0  0  2  0  0  0  0  0  0
  192.2090  174.6530  135.3720 C   0  0  0  0  0  2  0  0  0  0  0  0
  194.0560  176.5860  135.8720 O   0  0  0  0  0  0  0  0  0  0  0  0
  193.4070  175.1260  137.9270 O   0  0  0  0  0  1  0  0  0  0  0  0
  193.7100  175.1690  136.2640 P   0  0  1  0  0  0  0  0  0  0  0  0
  195.1070  174.0480  135.8570 C   0  0  1  0  0  3  0  0  0  0  0  0
  193.6450  172.0250  136.4110 C   0  0  0  0  0  1  0  0  0  0  0  0
  195.4190  172.8210  137.9200 N   0  0  0  0  0  0  0  0  0  0  0  0
  196.6310  174.4940  139.2000 C   0  0  0  0  0  1  0  0  0  0  0  0
  196.6410  174.7670  136.4810 S   0  0  0  0  0  0  0  0  0  0  0  0
  195.0120  172.6860  136.5300 C   0  0  2  0  0  3  0  0  0  0  0  0
  196.6120  173.6620  137.9330 C   0  0  2  0  0  3  0  0  0  0  0  0
  195.8040  171.5930  138.3430 O   0  0  0  0  0  1  0  0  0  0  0  0
  192.0430  178.0330  141.2440 C   0  0  0  0  0  0  0  0  0  0  0  0
  192.0620  178.9410  142.1170 O   0  0  0  0  0  1  0  0  0  0  0  0
  193.2170  177.6720  140.5980 O   0  0  0  0  0  0  0  0  0  0  0  0
  189.6190  178.2540  144.2550 S   0  0  0  0  0  0  0  0  0  0  0  0
  185.8870  178.2200  146.9990 C   0  0  0  0  0  3  0  0  0  0  0  0
  188.2760  178.0700  146.6860 C   0  0  0  0  0  0  0  0  0  0  0  0
  188.1630  178.2520  145.3050 C   0  0  0  0  0  0  0  0  0  0  0  0
  189.4630  177.8790  147.5770 C   0  0  1  0  0  3  0  0  0  0  0  0
  185.7390  178.3840  145.6140 C   0  0  0  0  0  3  0  0  0  0  0  0
  186.8670  178.3980  144.7610 C   0  0  0  0  0  0  0  0  0  0  0  0
  187.5590  177.9000  148.8450 N   0  0  0  0  0  0  0  0  0  0  0  0
  188.8270  177.7940  148.9020 N   0  0  0  0  0  0  0  0  0  0  0  0
  187.1770  178.0730  147.4970 C   0  0  0  0  0  0  0  0  0  0  0  0
  190.1610  176.5620  147.2630 C   0  0  0  0  0  3  0  0  0  0  0  0
  191.4290  176.4370  148.0900 C   0  0  0  0  0  2  0  0  0  0  0  0
  191.5130  176.8470  146.6370 C   0  0  0  0  0  2  0  0  0  0  0  0
  186.7010  178.5770  143.3490 N   0  0  0  0  0  2  0  0  0  0  0  0
  185.5560  178.1260  142.6750 N   0  0  0  0  0  2  0  0  0  0  0  0
  185.6360  178.6300  141.3160 C   0  0  0  0  0  2  0  0  0  0  0  0
  185.1140  178.2630  138.3150 Cl  0  0  0  0  0  0  0  0  0  0  0  0
  184.2420  179.0040  140.8400 C   0  0  2  0  0  3  0  0  0  0  0  0
  181.9860  178.3550  140.3740 C   0  0  2  0  0  3  0  0  0  0  0  0
  182.4190  179.2890  138.8630 S   0  0  0  0  0  0  0  0  0  0  0  0
  183.2380  177.9050  141.0960 C   0  0  0  0  0  2  0  0  0  0  0  0
  184.1670  179.3720  139.3600 C   0  0  2  0  0  3  0  0  0  0  0  0
  179.4810  177.7490  139.7260 C   0  0  1  0  0  3  0  0  0  0  0  0
  179.6510  177.2280  141.1550 C   0  0  1  0  0  3  0  0  0  0  0  0
  179.0240  179.0870  140.2800 C   0  0  0  0  0  2  0  0  0  0  0  0
  180.8560  177.3050  140.2210 C   0  0  2  0  0  0  0  0  0  0  0  0
  179.1960  178.5740  141.6900 C   0  0  0  0  0  2  0  0  0  0  0  0
  180.0940  175.5770  138.9890 C   0  0  0  0  0  1  0  0  0  0  0  0
  181.2270  176.0770  139.6490 O   0  0  0  0  0  0  0  0  0  0  0  0
  2  4  1  0  0  0  0
  2  1  1  1  0  0  0
  2  6  1  0  0  0  0
  3  7  1  1  0  0  0
  3  2  1  0  0  0  0
  5  6  1  0  0  0  0
  6 31  1  6  0  0  0
  7  5  1  0  0  0  0
  8 13  1  1  0  0  0
  8  9  1  0  0  0  0
  8 10  1  0  0  0  0
  9 10  1  0  0  0  0
 10 28  1  1  0  0  0
 10  3  1  0  0  0  0
 11 13  1  0  0  0  0
 12 11  1  0  0  0  0
 14 11  2  0  0  0  0
 15 12  1  0  0  0  0
 16 15  1  0  0  0  0
 16 19  1  0  0  0  0
 19 17  2  6  0  0  0
 19 18  1  0  0  0  0
 20 19  1  1  0  0  0
 20 24  1  0  0  0  0
 20 25  1  0  0  0  0
 22 26  1  0  0  0  0
 22 27  1  0  0  0  0
 24 26  1  0  0  0  0
 25 21  1  1  0  0  0
 25 22  1  0  0  0  0
 26 23  1  1  0  0  0
 28 29  1  0  0  0  0
 30 28  2  0  0  0  0
 31 34  1  0  0  0  0
 32 40  1  0  0  0  0
 33 40  2  0  0  0  0
 33 35  1  0  0  0  0
 34 33  1  0  0  0  0
 35 41  1  6  0  0  0
 35 39  1  0  0  0  0
 36 32  2  0  0  0  0
 37 34  2  0  0  0  0
 37 36  1  0  0  0  0
 38 39  2  0  0  0  0
 40 38  1  0  0  0  0
 41 42  1  0  0  0  0
 43 41  1  0  0  0  0
 43 42  1  0  0  0  0
 44 37  1  0  0  0  0
 45 44  1  0  0  0  0
 46 45  1  0  0  0  0
 48 51  1  0  0  0  0
 48 46  1  6  0  0  0
 49 51  1  6  0  0  0
 50 52  1  0  0  0  0
 50 49  1  0  0  0  0
 52 47  1  6  0  0  0
 52 48  1  0  0  0  0
 53 56  1  0  0  0  0
 53 55  1  1  0  0  0
 53 54  1  0  0  0  0
 54 57  1  1  0  0  0
 55 57  1  0  0  0  0
 56 59  1  6  0  0  0
 56 49  1  0  0  0  0
 56 54  1  0  0  0  0
 58 59  1  0  0  0  0
M  END
>  <MODEL>
5

>  <REMARK>
 VINA RESULT:      -4.9      2.357      3.177
  Name = 
  16 active torsions:
  status: ('A' for Active; 'I' for Inactive)
    1  A    between atoms: C_1  and  C_15
    2  A    between atoms: C_1  and  P_32
    3  A    between atoms: S_3  and  C_27
    4  A    between atoms: S_3  and  C_54
    5  A    between atoms: C_4  and  N_39
    6  A    between atoms: C_5  and  C_53
    7  A    between atoms: C_10  and  P_32
    8  A    between atoms: N_11  and  N_23
    9  A    between atoms: N_11  and  C_25
   10  A    between atoms: C_13  and  C_25
   11  A    between atoms: C_15  and  N_36
   12  A    between atoms: O_16  and  C_40
   13  A    between atoms: C_19  and  C_28
   14  A    between atoms: C_20  and  C_40
   15  A    between atoms: N_23  and  C_31
   16  A    between atoms: C_43  and  C_53
                            x       y       z     vdW  Elec       q    Type
                         _______ _______ _______ _____ _____    ______ ____

>  <TORSDO>
F 16

$$$$
=
 OpenBabel10222418163D

 59 67  0  0  1  0  0  0  0  0999 V2000
  190.9250  174.4900  143.6350 C   0  0  0  0  0  1  0  0  0  0  0  0
  190.7290  175.9370  143.2140 C   0  0  2  0  0  0  0  0  0  0  0  0
  190.4860  175.9800  141.6960 C   0  0  1  0  0  3  0  0  0  0  0  0
  191.8550  176.6550  143.6260 O   0  0  0  0  0  1  0  0  0  0  0  0
  188.3310  176.1960  142.8490 C   0  0  0  0  0  2  0  0  0  0  0  0
  189.4440  176.4620  143.8530 C   0  0  2  0  0  3  0  0  0  0  0  0
  188.9910  175.6670  141.5840 C   0  0  0  0  0  2  0  0  0  0  0  0
  190.7700  177.3110  139.4260 C   0  0  1  0  0  3  0  0  0  0  0  0
  189.7890  178.1210  140.2630 C   0  0  0  0  0  2  0  0  0  0  0  0
  190.8750  177.3110  140.9560 C   0  0  1  0  0  0  0  0  0  0  0  0
  190.7420  175.2570  137.9620 C   0  0  0  0  0  0  0  0  0  0  0  0
  192.0440  175.5630  137.4580 N   0  0  0  0  0  2  0  0  0  0  0  0
  190.1100  176.1240  138.9020 N   0  0  0  0  0  2  0  0  0  0  0  0
  190.1440  174.2160  137.5860 O   0  0  0  0  0  0  0  0  0  0  0  0
  192.7080  174.7230  136.4700 C   0  0  0  0  0  2  0  0  0  0  0  0
  193.3510  173.5120  137.1330 C   0  0  0  0  0  2  0  0  0  0  0  0
  195.2210  175.3410  137.8810 O   0  0  0  0  0  0  0  0  0  0  0  0
  195.3870  173.0400  139.0880 O   0  0  0  0  0  1  0  0  0  0  0  0
  195.0650  173.8570  137.6430 P   0  0  1  0  0  0  0  0  0  0  0  0
  196.2380  173.3070  136.3410 C   0  0  1  0  0  3  0  0  0  0  0  0
  198.2040  173.8380  137.8880 C   0  0  0  0  0  1  0  0  0  0  0  0
  197.5970  175.2780  135.9860 N   0  0  0  0  0  0  0  0  0  0  0  0
  196.0710  176.5700  134.6040 C   0  0  0  0  0  1  0  0  0  0  0  0
  195.6440  173.8740  134.7340 S   0  0  0  0  0  0  0  0  0  0  0  0
  197.6290  173.9100  136.4790 C   0  0  2  0  0  3  0  0  0  0  0  0
  196.8270  175.2640  134.7460 C   0  0  2  0  0  3  0  0  0  0  0  0
  198.8670  175.6100  135.6510 O   0  0  0  0  0  1  0  0  0  0  0  0
  192.1020  178.0720  141.3590 C   0  0  0  0  0  0  0  0  0  0  0  0
  193.1930  177.8820  140.7590 O   0  0  0  0  0  0  0  0  0  0  0  0
  192.0250  179.0210  142.3690 O   0  0  0  0  0  1  0  0  0  0  0  0
  189.5200  178.2560  144.1980 S   0  0  0  0  0  0  0  0  0  0  0  0
  185.8750  178.1130  147.0530 C   0  0  0  0  0  3  0  0  0  0  0  0
  188.2590  178.0920  146.6740 C   0  0  0  0  0  0  0  0  0  0  0  0
  188.0970  178.2100  145.2910 C   0  0  0  0  0  0  0  0  0  0  0  0
  189.4790  178.0070  147.5350 C   0  0  1  0  0  3  0  0  0  0  0  0
  185.6780  178.2110  145.6670 C   0  0  0  0  0  3  0  0  0  0  0  0
  186.7800  178.2570  144.7810 C   0  0  0  0  0  0  0  0  0  0  0  0
  187.6140  177.9670  148.8580 N   0  0  0  0  0  0  0  0  0  0  0  0
  188.8870  177.9380  148.8810 N   0  0  0  0  0  0  0  0  0  0  0  0
  187.1850  178.0620  147.5170 C   0  0  0  0  0  0  0  0  0  0  0  0
  190.2470  176.7220  147.2510 C   0  0  0  0  0  3  0  0  0  0  0  0
  191.5340  176.6980  148.0580 C   0  0  0  0  0  2  0  0  0  0  0  0
  191.5700  177.0620  146.5900 C   0  0  0  0  0  2  0  0  0  0  0  0
  186.5640  178.3690  143.3690 N   0  0  0  0  0  2  0  0  0  0  0  0
  185.3940  178.9370  142.8410 N   0  0  0  0  0  2  0  0  0  0  0  0
  185.4870  178.8360  141.3960 C   0  0  0  0  0  2  0  0  0  0  0  0
  185.3220  178.5920  138.3420 Cl  0  0  0  0  0  0  0  0  0  0  0  0
  184.1140  179.0770  140.7890 C   0  0  2  0  0  3  0  0  0  0  0  0
  182.0120  178.2040  140.0520 C   0  0  2  0  0  3  0  0  0  0  0  0
  182.4820  179.2700  138.6430 S   0  0  0  0  0  0  0  0  0  0  0  0
  183.2280  177.8570  140.8830 C   0  0  0  0  0  2  0  0  0  0  0  0
  184.1480  179.5210  139.3300 C   0  0  2  0  0  3  0  0  0  0  0  0
  181.5890  175.6340  139.5210 C   0  0  1  0  0  3  0  0  0  0  0  0
  180.9450  176.3850  138.3530 C   0  0  1  0  0  3  0  0  0  0  0  0
  182.8990  175.5870  138.7550 C   0  0  0  0  0  2  0  0  0  0  0  0
  181.0360  177.0430  139.7270 C   0  0  2  0  0  0  0  0  0  0  0  0
  182.2640  176.3310  137.6040 C   0  0  0  0  0  2  0  0  0  0  0  0
  179.6350  175.6830  140.8530 C   0  0  0  0  0  1  0  0  0  0  0  0
  179.8420  177.0140  140.4660 O   0  0  0  0  0  0  0  0  0  0  0  0
  2  4  1  0  0  0  0
  2  1  1  1  0  0  0
  2  6  1  0  0  0  0
  3  7  1  1  0  0  0
  3  2  1  0  0  0  0
  5  6  1  0  0  0  0
  6 31  1  6  0  0  0
  7  5  1  0  0  0  0
  8 13  1  1  0  0  0
  8  9  1  0  0  0  0
  8 10  1  0  0  0  0
  9 10  1  0  0  0  0
 10 28  1  1  0  0  0
 10  3  1  0  0  0  0
 11 13  1  0  0  0  0
 12 11  1  0  0  0  0
 14 11  2  0  0  0  0
 15 16  1  0  0  0  0
 15 12  1  0  0  0  0
 16 19  1  0  0  0  0
 19 17  2  1  0  0  0
 19 18  1  0  0  0  0
 20 25  1  0  0  0  0
 20 19  1  1  0  0  0
 22 25  1  0  0  0  0
 24 26  1  0  0  0  0
 24 20  1  0  0  0  0
 25 21  1  1  0  0  0
 26 23  1  1  0  0  0
 26 22  1  0  0  0  0
 27 22  1  0  0  0  0
 28 30  1  0  0  0  0
 29 28  2  0  0  0  0
 31 34  1  0  0  0  0
 32 40  1  0  0  0  0
 33 40  2  0  0  0  0
 33 35  1  0  0  0  0
 34 33  1  0  0  0  0
 35 41  1  6  0  0  0
 35 39  1  0  0  0  0
 36 32  2  0  0  0  0
 37 34  2  0  0  0  0
 37 36  1  0  0  0  0
 38 39  2  0  0  0  0
 40 38  1  0  0  0  0
 41 42  1  0  0  0  0
 43 41  1  0  0  0  0
 43 42  1  0  0  0  0
 44 37  1  0  0  0  0
 45 44  1  0  0  0  0
 46 45  1  0  0  0  0
 48 51  1  0  0  0  0
 48 46  1  6  0  0  0
 49 51  1  6  0  0  0
 50 52  1  0  0  0  0
 50 49  1  0  0  0  0
 52 47  1  6  0  0  0
 52 48  1  0  0  0  0
 53 55  1  6  0  0  0
 53 56  1  0  0  0  0
 54 57  1  6  0  0  0
 54 53  1  0  0  0  0
 54 56  1  0  0  0  0
 56 49  1  0  0  0  0
 56 59  1  1  0  0  0
 57 55  1  0  0  0  0
 59 58  1  0  0  0  0
M  END
>  <MODEL>
6

>  <REMARK>
 VINA RESULT:      -4.8      2.243      2.921
  Name = 
  16 active torsions:
  status: ('A' for Active; 'I' for Inactive)
    1  A    between atoms: C_1  and  C_15
    2  A    between atoms: C_1  and  P_32
    3  A    between atoms: S_3  and  C_27
    4  A    between atoms: S_3  and  C_54
    5  A    between atoms: C_4  and  N_39
    6  A    between atoms: C_5  and  C_53
    7  A    between atoms: C_10  and  P_32
    8  A    between atoms: N_11  and  N_23
    9  A    between atoms: N_11  and  C_25
   10  A    between atoms: C_13  and  C_25
   11  A    between atoms: C_15  and  N_36
   12  A    between atoms: O_16  and  C_40
   13  A    between atoms: C_19  and  C_28
   14  A    between atoms: C_20  and  C_40
   15  A    between atoms: N_23  and  C_31
   16  A    between atoms: C_43  and  C_53
                            x       y       z     vdW  Elec       q    Type
                         _______ _______ _______ _____ _____    ______ ____

>  <TORSDO>
F 16

$$$$
=
 OpenBabel10222418163D

 59 67  0  0  1  0  0  0  0  0999 V2000
  190.9870  174.5740  143.7410 C   0  0  0  0  0  1  0  0  0  0  0  0
  190.7510  176.0010  143.2740 C   0  0  2  0  0  0  0  0  0  0  0  0
  190.5360  175.9930  141.7520 C   0  0  1  0  0  3  0  0  0  0  0  0
  191.8450  176.7680  143.6860 O   0  0  0  0  0  1  0  0  0  0  0  0
  188.3540  176.1700  142.8580 C   0  0  0  0  0  2  0  0  0  0  0  0
  189.4390  176.5020  143.8750 C   0  0  2  0  0  3  0  0  0  0  0  0
  189.0550  175.6280  141.6220 C   0  0  0  0  0  2  0  0  0  0  0  0
  190.8010  177.2740  139.4510 C   0  0  1  0  0  3  0  0  0  0  0  0
  189.7930  178.0790  140.2600 C   0  0  0  0  0  2  0  0  0  0  0  0
  190.8960  177.3150  140.9810 C   0  0  1  0  0  0  0  0  0  0  0  0
  190.5910  175.4320  137.7390 C   0  0  0  0  0  0  0  0  0  0  0  0
  191.6150  176.0240  136.9350 N   0  0  0  0  0  2  0  0  0  0  0  0
  190.1770  176.0570  138.9530 N   0  0  0  0  0  2  0  0  0  0  0  0
  190.0520  174.3530  137.3870 O   0  0  0  0  0  0  0  0  0  0  0  0
  192.0410  175.4380  135.6720 C   0  0  0  0  0  2  0  0  0  0  0  0
  193.5450  175.1970  135.6650 C   0  0  0  0  0  2  0  0  0  0  0  0
  194.3260  173.7690  137.8450 O   0  0  0  0  0  1  0  0  0  0  0  0
  192.6240  172.5600  136.2880 O   0  0  0  0  0  0  0  0  0  0  0  0
  193.9690  173.5810  136.3890 P   0  0  1  0  0  0  0  0  0  0  0  0
  195.3860  172.8350  135.4900 C   0  0  1  0  0  3  0  0  0  0  0  0
  195.1030  170.6780  136.8340 C   0  0  0  0  0  1  0  0  0  0  0  0
  196.9170  172.2810  137.2810 N   0  0  0  0  0  0  0  0  0  0  0  0
  197.8500  174.4850  137.7040 C   0  0  0  0  0  1  0  0  0  0  0  0
  196.6710  174.0840  135.2720 S   0  0  0  0  0  0  0  0  0  0  0  0
  196.0660  171.7050  136.2520 C   0  0  2  0  0  3  0  0  0  0  0  0
  197.6250  173.4000  136.6690 C   0  0  2  0  0  3  0  0  0  0  0  0
  197.8530  171.3510  137.5900 O   0  0  0  0  0  1  0  0  0  0  0  0
  192.0990  178.1180  141.3720 C   0  0  0  0  0  0  0  0  0  0  0  0
  192.0190  178.9760  142.2910 O   0  0  0  0  0  1  0  0  0  0  0  0
  193.3170  177.8850  140.7490 O   0  0  0  0  0  0  0  0  0  0  0  0
  189.4480  178.3060  144.1690 S   0  0  0  0  0  0  0  0  0  0  0  0
  185.8350  178.1020  147.0600 C   0  0  0  0  0  3  0  0  0  0  0  0
  188.2150  178.0850  146.6540 C   0  0  0  0  0  0  0  0  0  0  0  0
  188.0380  178.2370  145.2770 C   0  0  0  0  0  0  0  0  0  0  0  0
  189.4450  177.9780  147.4990 C   0  0  1  0  0  3  0  0  0  0  0  0
  185.6230  178.2330  145.6800 C   0  0  0  0  0  3  0  0  0  0  0  0
  186.7150  178.2980  144.7820 C   0  0  0  0  0  0  0  0  0  0  0  0
  187.5940  177.9100  148.8420 N   0  0  0  0  0  0  0  0  0  0  0  0
  188.8670  177.8790  148.8500 N   0  0  0  0  0  0  0  0  0  0  0  0
  187.1500  178.0380  147.5080 C   0  0  0  0  0  0  0  0  0  0  0  0
  190.2060  176.6980  147.1770 C   0  0  0  0  0  3  0  0  0  0  0  0
  191.4300  176.5840  148.0700 C   0  0  0  0  0  2  0  0  0  0  0  0
  191.5800  177.0530  146.6400 C   0  0  0  0  0  2  0  0  0  0  0  0
  186.4840  178.4440  143.3760 N   0  0  0  0  0  2  0  0  0  0  0  0
  185.1920  178.4040  142.8300 N   0  0  0  0  0  2  0  0  0  0  0  0
  185.2140  179.2150  141.6260 C   0  0  0  0  0  2  0  0  0  0  0  0
  183.3740  180.1330  139.3480 Cl  0  0  0  0  0  0  0  0  0  0  0  0
  185.1660  178.3030  140.4100 C   0  0  2  0  0  3  0  0  0  0  0  0
  186.0110  177.7090  138.2510 C   0  0  2  0  0  3  0  0  0  0  0  0
  184.2070  177.6850  137.9590 S   0  0  0  0  0  0  0  0  0  0  0  0
  186.3380  178.5260  139.4830 C   0  0  0  0  0  2  0  0  0  0  0  0
  183.8870  178.4300  139.5870 C   0  0  2  0  0  3  0  0  0  0  0  0
  186.4170  177.4650  135.6360 C   0  0  1  0  0  3  0  0  0  0  0  0
  187.6540  176.8350  136.2830 C   0  0  1  0  0  3  0  0  0  0  0  0
  185.7270  176.1120  135.6660 C   0  0  0  0  0  2  0  0  0  0  0  0
  186.8980  177.9500  137.0020 C   0  0  2  0  0  0  0  0  0  0  0  0
  186.9460  175.4930  136.3080 C   0  0  0  0  0  2  0  0  0  0  0  0
  188.8830  179.0030  136.8370 C   0  0  0  0  0  1  0  0  0  0  0  0
  187.4990  179.2160  136.9060 O   0  0  0  0  0  0  0  0  0  0  0  0
  2  4  1  0  0  0  0
  2  1  1  1  0  0  0
  2  6  1  0  0  0  0
  3  7  1  1  0  0  0
  3  2  1  0  0  0  0
  5  6  1  0  0  0  0
  6 31  1  6  0  0  0
  7  5  1  0  0  0  0
  8 13  1  1  0  0  0
  8  9  1  0  0  0  0
  8 10  1  0  0  0  0
  9 10  1  0  0  0  0
 10 28  1  1  0  0  0
 10  3  1  0  0  0  0
 11 13  1  0  0  0  0
 12 11  1  0  0  0  0
 14 11  2  0  0  0  0
 15 12  1  0  0  0  0
 16 15  1  0  0  0  0
 16 19  1  0  0  0  0
 19 18  2  6  0  0  0
 19 17  1  0  0  0  0
 20 25  1  0  0  0  0
 20 19  1  1  0  0  0
 22 27  1  0  0  0  0
 24 20  1  0  0  0  0
 24 26  1  0  0  0  0
 25 21  1  1  0  0  0
 25 22  1  0  0  0  0
 26 22  1  0  0  0  0
 26 23  1  1  0  0  0
 28 29  1  0  0  0  0
 30 28  2  0  0  0  0
 31 34  1  0  0  0  0
 32 40  1  0  0  0  0
 33 35  1  0  0  0  0
 33 40  2  0  0  0  0
 34 33  1  0  0  0  0
 35 41  1  6  0  0  0
 35 39  1  0  0  0  0
 36 32  2  0  0  0  0
 37 34  2  0  0  0  0
 37 36  1  0  0  0  0
 38 39  2  0  0  0  0
 40 38  1  0  0  0  0
 41 42  1  0  0  0  0
 43 41  1  0  0  0  0
 43 42  1  0  0  0  0
 44 37  1  0  0  0  0
 45 44  1  0  0  0  0
 46 45  1  0  0  0  0
 48 46  1  1  0  0  0
 49 51  1  1  0  0  0
 50 49  1  0  0  0  0
 50 52  1  0  0  0  0
 51 48  1  0  0  0  0
 52 47  1  6  0  0  0
 52 48  1  0  0  0  0
 53 55  1  1  0  0  0
 53 54  1  0  0  0  0
 53 56  1  0  0  0  0
 54 57  1  1  0  0  0
 54 56  1  0  0  0  0
 55 57  1  0  0  0  0
 56 59  1  6  0  0  0
 56 49  1  0  0  0  0
 58 59  1  0  0  0  0
M  END
>  <MODEL>
7

>  <REMARK>
 VINA RESULT:      -4.8      2.471      3.443
  Name = 
  16 active torsions:
  status: ('A' for Active; 'I' for Inactive)
    1  A    between atoms: C_1  and  C_15
    2  A    between atoms: C_1  and  P_32
    3  A    between atoms: S_3  and  C_27
    4  A    between atoms: S_3  and  C_54
    5  A    between atoms: C_4  and  N_39
    6  A    between atoms: C_5  and  C_53
    7  A    between atoms: C_10  and  P_32
    8  A    between atoms: N_11  and  N_23
    9  A    between atoms: N_11  and  C_25
   10  A    between atoms: C_13  and  C_25
   11  A    between atoms: C_15  and  N_36
   12  A    between atoms: O_16  and  C_40
   13  A    between atoms: C_19  and  C_28
   14  A    between atoms: C_20  and  C_40
   15  A    between atoms: N_23  and  C_31
   16  A    between atoms: C_43  and  C_53
                            x       y       z     vdW  Elec       q    Type
                         _______ _______ _______ _____ _____    ______ ____

>  <TORSDO>
F 16

$$$$
=
 OpenBabel10222418163D

 59 67  0  0  1  0  0  0  0  0999 V2000
  188.1750  176.8170  139.2860 C   0  0  0  0  0  1  0  0  0  0  0  0
  187.5090  176.8360  137.9200 C   0  0  2  0  0  0  0  0  0  0  0  0
  188.1750  175.7730  137.0320 C   0  0  1  0  0  3  0  0  0  0  0  0
  187.6100  178.1350  137.4170 O   0  0  0  0  0  1  0  0  0  0  0  0
  186.0490  174.8810  137.8740 C   0  0  0  0  0  2  0  0  0  0  0  0
  186.0560  176.3910  138.0790 C   0  0  2  0  0  3  0  0  0  0  0  0
  187.4550  174.4860  137.4470 C   0  0  0  0  0  2  0  0  0  0  0  0
  188.9280  175.0520  134.5990 C   0  0  1  0  0  3  0  0  0  0  0  0
  187.4060  175.0000  134.5950 C   0  0  0  0  0  2  0  0  0  0  0  0
  188.1200  176.0130  135.4800 C   0  0  1  0  0  0  0  0  0  0  0  0
  190.8560  173.6320  135.3910 C   0  0  0  0  0  0  0  0  0  0  0  0
  191.7860  174.4390  134.6650 N   0  0  0  0  0  2  0  0  0  0  0  0
  189.4590  173.9160  135.3370 N   0  0  0  0  0  2  0  0  0  0  0  0
  191.2620  172.6680  136.0900 O   0  0  0  0  0  0  0  0  0  0  0  0
  193.2160  174.1610  134.6650 C   0  0  0  0  0  2  0  0  0  0  0  0
  193.9400  175.0400  135.6770 C   0  0  0  0  0  2  0  0  0  0  0  0
  196.0550  173.6860  134.6310 O   0  0  0  0  0  0  0  0  0  0  0  0
  196.5690  176.1300  135.3690 O   0  0  0  0  0  1  0  0  0  0  0  0
  195.7290  174.7000  135.7020 P   0  0  1  0  0  0  0  0  0  0  0  0
  196.2280  174.0540  137.3480 C   0  0  1  0  0  3  0  0  0  0  0  0
  198.6760  174.5580  136.8020 C   0  0  0  0  0  1  0  0  0  0  0  0
  197.7630  172.2720  136.7730 N   0  0  0  0  0  0  0  0  0  0  0  0
  196.1610  170.5510  136.1570 C   0  0  0  0  0  1  0  0  0  0  0  0
  195.2450  172.5890  137.7300 S   0  0  0  0  0  0  0  0  0  0  0  0
  197.6740  173.5800  137.4040 C   0  0  2  0  0  3  0  0  0  0  0  0
  196.6240  171.4930  137.2500 C   0  0  2  0  0  3  0  0  0  0  0  0
  198.8760  171.6710  137.2580 O   0  0  0  0  0  1  0  0  0  0  0  0
  188.2380  177.3990  134.9230 C   0  0  0  0  0  0  0  0  0  0  0  0
  187.2050  178.0800  134.6860 O   0  0  0  0  0  0  0  0  0  0  0  0
  189.4930  177.9520  134.7070 O   0  0  0  0  0  1  0  0  0  0  0  0
  184.9500  177.1640  136.8460 S   0  0  0  0  0  0  0  0  0  0  0  0
  181.3490  177.3590  139.7520 C   0  0  0  0  0  3  0  0  0  0  0  0
  182.4540  176.4160  137.8250 C   0  0  0  0  0  0  0  0  0  0  0  0
  183.5660  177.2460  137.9860 C   0  0  0  0  0  0  0  0  0  0  0  0
  182.1370  175.3510  136.8230 C   0  0  1  0  0  3  0  0  0  0  0  0
  182.4410  178.2210  139.9290 C   0  0  0  0  0  3  0  0  0  0  0  0
  183.5500  178.1740  139.0520 C   0  0  0  0  0  0  0  0  0  0  0  0
  180.4210  175.5120  138.3270 N   0  0  0  0  0  0  0  0  0  0  0  0
  180.8230  174.8850  137.2930 N   0  0  0  0  0  0  0  0  0  0  0  0
  181.3980  176.4650  138.6890 C   0  0  0  0  0  0  0  0  0  0  0  0
  181.9950  175.9500  135.4300 C   0  0  0  0  0  3  0  0  0  0  0  0
  181.0210  177.1150  135.4630 C   0  0  0  0  0  2  0  0  0  0  0  0
  180.5680  175.7670  134.9480 C   0  0  0  0  0  2  0  0  0  0  0  0
  184.6640  179.0530  139.2510 N   0  0  0  0  0  2  0  0  0  0  0  0
  184.9640  179.5940  140.5110 N   0  0  0  0  0  2  0  0  0  0  0  0
  185.1690  178.4770  141.4150 C   0  0  0  0  0  2  0  0  0  0  0  0
  183.4540  178.0620  143.9260 Cl  0  0  0  0  0  0  0  0  0  0  0  0
  185.7690  178.9910  142.7150 C   0  0  2  0  0  3  0  0  0  0  0  0
  187.0880  178.5890  144.6700 C   0  0  2  0  0  3  0  0  0  0  0  0
  185.6180  179.4110  145.3810 S   0  0  0  0  0  0  0  0  0  0  0  0
  186.7700  178.0240  143.3020 C   0  0  0  0  0  2  0  0  0  0  0  0
  184.7370  179.3100  143.7930 C   0  0  2  0  0  3  0  0  0  0  0  0
  189.3450  177.9910  145.9410 C   0  0  1  0  0  3  0  0  0  0  0  0
  188.9830  176.7200  145.1680 C   0  0  1  0  0  3  0  0  0  0  0  0
  190.1370  178.4810  144.7420 C   0  0  0  0  0  2  0  0  0  0  0  0
  187.8830  177.6700  145.6340 C   0  0  2  0  0  0  0  0  0  0  0  0
  189.7770  177.2290  143.9780 C   0  0  0  0  0  2  0  0  0  0  0  0
  188.1800  176.8320  147.7050 C   0  0  0  0  0  1  0  0  0  0  0  0
  187.2040  177.2500  146.7890 O   0  0  0  0  0  0  0  0  0  0  0  0
  2  6  1  0  0  0  0
  2  1  1  1  0  0  0
  3  7  1  6  0  0  0
  3  2  1  0  0  0  0
  4  2  1  0  0  0  0
  5  6  1  0  0  0  0
  6 31  1  6  0  0  0
  7  5  1  0  0  0  0
  8 13  1  1  0  0  0
  8 10  1  0  0  0  0
  9  8  1  0  0  0  0
  9 10  1  0  0  0  0
 10 28  1  6  0  0  0
 10  3  1  0  0  0  0
 11 14  2  0  0  0  0
 12 11  1  0  0  0  0
 13 11  1  0  0  0  0
 15 12  1  0  0  0  0
 15 16  1  0  0  0  0
 16 19  1  0  0  0  0
 18 19  1  0  0  0  0
 19 17  2  6  0  0  0
 20 19  1  6  0  0  0
 20 25  1  0  0  0  0
 20 24  1  0  0  0  0
 22 26  1  0  0  0  0
 22 27  1  0  0  0  0
 22 25  1  0  0  0  0
 25 21  1  6  0  0  0
 26 23  1  6  0  0  0
 26 24  1  0  0  0  0
 29 28  2  0  0  0  0
 30 28  1  0  0  0  0
 31 34  1  0  0  0  0
 32 36  1  0  0  0  0
 33 34  2  0  0  0  0
 33 40  1  0  0  0  0
 34 37  1  0  0  0  0
 35 41  1  6  0  0  0
 35 39  1  0  0  0  0
 35 33  1  0  0  0  0
 37 44  1  0  0  0  0
 37 36  2  0  0  0  0
 38 40  1  0  0  0  0
 39 38  2  0  0  0  0
 40 32  2  0  0  0  0
 41 42  1  0  0  0  0
 43 41  1  0  0  0  0
 43 42  1  0  0  0  0
 44 45  1  0  0  0  0
 45 46  1  0  0  0  0
 48 46  1  6  0  0  0
 48 51  1  0  0  0  0
 48 52  1  0  0  0  0
 49 51  1  6  0  0  0
 49 50  1  0  0  0  0
 49 56  1  0  0  0  0
 52 47  1  1  0  0  0
 52 50  1  0  0  0  0
 53 55  1  6  0  0  0
 54 57  1  6  0  0  0
 54 56  1  0  0  0  0
 54 53  1  0  0  0  0
 56 53  1  0  0  0  0
 56 59  1  1  0  0  0
 57 55  1  0  0  0  0
 59 58  1  0  0  0  0
M  END
>  <MODEL>
8

>  <REMARK>
 VINA RESULT:      -4.4      3.445      7.994
  Name = 
  16 active torsions:
  status: ('A' for Active; 'I' for Inactive)
    1  A    between atoms: C_1  and  C_15
    2  A    between atoms: C_1  and  P_32
    3  A    between atoms: S_3  and  C_27
    4  A    between atoms: S_3  and  C_54
    5  A    between atoms: C_4  and  N_39
    6  A    between atoms: C_5  and  C_53
    7  A    between atoms: C_10  and  P_32
    8  A    between atoms: N_11  and  N_23
    9  A    between atoms: N_11  and  C_25
   10  A    between atoms: C_13  and  C_25
   11  A    between atoms: C_15  and  N_36
   12  A    between atoms: O_16  and  C_40
   13  A    between atoms: C_19  and  C_28
   14  A    between atoms: C_20  and  C_40
   15  A    between atoms: N_23  and  C_31
   16  A    between atoms: C_43  and  C_53
                            x       y       z     vdW  Elec       q    Type
                         _______ _______ _______ _____ _____    ______ ____

>  <TORSDO>
F 16

$$$$
=
 OpenBabel10222418163D

 59 67  0  0  1  0  0  0  0  0999 V2000
  187.8880  177.5220  134.7470 C   0  0  0  0  0  1  0  0  0  0  0  0
  188.0390  177.1490  136.2120 C   0  0  2  0  0  0  0  0  0  0  0  0
  189.3720  177.7130  136.7300 C   0  0  1  0  0  3  0  0  0  0  0  0
  187.9380  175.7590  136.3090 O   0  0  0  0  0  1  0  0  0  0  0  0
  187.5530  179.1870  137.4620 C   0  0  0  0  0  2  0  0  0  0  0  0
  186.9500  177.8620  137.0130 C   0  0  2  0  0  3  0  0  0  0  0  0
  189.0200  179.1670  137.0590 C   0  0  0  0  0  2  0  0  0  0  0  0
  190.2140  175.4510  137.8160 C   0  0  1  0  0  3  0  0  0  0  0  0
  191.4240  176.3760  137.7910 C   0  0  0  0  0  2  0  0  0  0  0  0
  190.0300  176.9680  137.9470 C   0  0  1  0  0  0  0  0  0  0  0  0
  190.8250  174.0700  135.7950 C   0  0  0  0  0  0  0  0  0  0  0  0
  192.0550  173.6700  136.4050 N   0  0  0  0  0  2  0  0  0  0  0  0
  189.9400  174.9600  136.4730 N   0  0  0  0  0  2  0  0  0  0  0  0
  190.5090  173.6350  134.6580 O   0  0  0  0  0  0  0  0  0  0  0  0
  193.0020  172.7920  135.7310 C   0  0  0  0  0  2  0  0  0  0  0  0
  193.8990  173.5830  134.7880 C   0  0  0  0  0  2  0  0  0  0  0  0
  196.5810  173.1650  134.5970 O   0  0  0  0  0  0  0  0  0  0  0  0
  195.8950  175.4840  135.5600 O   0  0  0  0  0  1  0  0  0  0  0  0
  195.5610  173.8280  135.4930 P   0  0  1  0  0  0  0  0  0  0  0  0
  195.6480  173.1060  137.1800 C   0  0  1  0  0  3  0  0  0  0  0  0
  194.5610  175.2140  138.1360 C   0  0  0  0  0  1  0  0  0  0  0  0
  196.9630  174.7410  138.3870 N   0  0  0  0  0  0  0  0  0  0  0  0
  199.1790  174.1310  137.5970 C   0  0  0  0  0  1  0  0  0  0  0  0
  197.2200  172.2400  137.3710 S   0  0  0  0  0  0  0  0  0  0  0  0
  195.6380  174.1480  138.2900 C   0  0  2  0  0  3  0  0  0  0  0  0
  197.9250  173.6470  138.2960 C   0  0  2  0  0  3  0  0  0  0  0  0
  197.0780  175.2570  139.6340 O   0  0  0  0  0  1  0  0  0  0  0  0
  189.6080  177.2870  139.3490 C   0  0  0  0  0  0  0  0  0  0  0  0
  190.3820  177.9170  140.1180 O   0  0  0  0  0  1  0  0  0  0  0  0
  188.3430  176.9250  139.7900 O   0  0  0  0  0  0  0  0  0  0  0  0
  186.4320  176.9130  138.4860 S   0  0  0  0  0  0  0  0  0  0  0  0
  181.9410  177.8100  137.7930 C   0  0  0  0  0  3  0  0  0  0  0  0
  183.8640  176.3700  137.5580 C   0  0  0  0  0  0  0  0  0  0  0  0
  184.6920  177.2720  138.2330 C   0  0  0  0  0  0  0  0  0  0  0  0
  184.1290  175.0260  136.9570 C   0  0  1  0  0  3  0  0  0  0  0  0
  182.7490  178.7450  138.4550 C   0  0  0  0  0  3  0  0  0  0  0  0
  184.1230  178.4870  138.6770 C   0  0  0  0  0  0  0  0  0  0  0  0
  181.9210  175.5560  136.6860 N   0  0  0  0  0  0  0  0  0  0  0  0
  182.7950  174.6580  136.4560 N   0  0  0  0  0  0  0  0  0  0  0  0
  182.5370  176.6290  137.3650 C   0  0  0  0  0  0  0  0  0  0  0  0
  185.0960  175.1450  135.7850 C   0  0  0  0  0  3  0  0  0  0  0  0
  184.4360  175.8980  134.6430 C   0  0  0  0  0  2  0  0  0  0  0  0
  184.5360  174.3900  134.5940 C   0  0  0  0  0  2  0  0  0  0  0  0
  184.9340  179.4460  139.3660 N   0  0  0  0  0  2  0  0  0  0  0  0
  185.5880  179.1370  140.5680 N   0  0  0  0  0  2  0  0  0  0  0  0
  184.6030  179.2480  141.6290 C   0  0  0  0  0  2  0  0  0  0  0  0
  183.0830  178.4600  144.1750 Cl  0  0  0  0  0  0  0  0  0  0  0  0
  185.3140  179.5470  142.9400 C   0  0  2  0  0  3  0  0  0  0  0  0
  186.7740  178.8310  144.6950 C   0  0  2  0  0  3  0  0  0  0  0  0
  185.3820  179.5440  145.6420 S   0  0  0  0  0  0  0  0  0  0  0  0
  186.3370  178.4910  143.2860 C   0  0  0  0  0  2  0  0  0  0  0  0
  184.3770  179.7010  144.1340 C   0  0  2  0  0  3  0  0  0  0  0  0
  189.1440  177.8950  145.4500 C   0  0  1  0  0  3  0  0  0  0  0  0
  188.4800  176.7280  144.7160 C   0  0  1  0  0  3  0  0  0  0  0  0
  189.7390  178.3690  144.1350 C   0  0  0  0  0  2  0  0  0  0  0  0
  187.6230  177.7660  145.4360 C   0  0  2  0  0  0  0  0  0  0  0  0
  189.0790  177.2200  143.4110 C   0  0  0  0  0  2  0  0  0  0  0  0
  188.2540  177.2070  147.5270 C   0  0  0  0  0  1  0  0  0  0  0  0
  187.1390  177.3520  146.6890 O   0  0  0  0  0  0  0  0  0  0  0  0
  2  1  1  6  0  0  0
  2  4  1  0  0  0  0
  2  3  1  0  0  0  0
  2  6  1  0  0  0  0
  3  7  1  1  0  0  0
  3 10  1  0  0  0  0
  6  5  1  0  0  0  0
  6 31  1  1  0  0  0
  7  5  1  0  0  0  0
  8 13  1  6  0  0  0
  8 10  1  0  0  0  0
  9  8  1  0  0  0  0
  9 10  1  0  0  0  0
 10 28  1  1  0  0  0
 11 12  1  0  0  0  0
 11 13  1  0  0  0  0
 14 11  2  0  0  0  0
 15 12  1  0  0  0  0
 16 19  1  0  0  0  0
 16 15  1  0  0  0  0
 19 17  2  6  0  0  0
 19 18  1  0  0  0  0
 20 19  1  6  0  0  0
 20 24  1  0  0  0  0
 20 25  1  0  0  0  0
 22 27  1  0  0  0  0
 24 26  1  0  0  0  0
 25 21  1  6  0  0  0
 25 22  1  0  0  0  0
 26 23  1  6  0  0  0
 26 22  1  0  0  0  0
 28 30  2  0  0  0  0
 28 29  1  0  0  0  0
 32 36  1  0  0  0  0
 33 34  2  0  0  0  0
 34 31  1  0  0  0  0
 34 37  1  0  0  0  0
 35 41  1  6  0  0  0
 35 33  1  0  0  0  0
 36 37  2  0  0  0  0
 37 44  1  0  0  0  0
 38 40  1  0  0  0  0
 39 38  2  0  0  0  0
 39 35  1  0  0  0  0
 40 33  1  0  0  0  0
 40 32  2  0  0  0  0
 42 41  1  0  0  0  0
 43 42  1  0  0  0  0
 43 41  1  0  0  0  0
 44 45  1  0  0  0  0
 45 46  1  0  0  0  0
 48 46  1  6  0  0  0
 48 51  1  0  0  0  0
 48 52  1  0  0  0  0
 49 51  1  6  0  0  0
 49 56  1  0  0  0  0
 49 50  1  0  0  0  0
 52 47  1  1  0  0  0
 52 50  1  0  0  0  0
 53 55  1  6  0  0  0
 54 57  1  6  0  0  0
 54 56  1  0  0  0  0
 54 53  1  0  0  0  0
 56 53  1  0  0  0  0
 56 59  1  1  0  0  0
 57 55  1  0  0  0  0
 59 58  1  0  0  0  0
M  END
>  <MODEL>
9

>  <REMARK>
 VINA RESULT:      -4.3      3.181      7.462
  Name = 
  16 active torsions:
  status: ('A' for Active; 'I' for Inactive)
    1  A    between atoms: C_1  and  C_15
    2  A    between atoms: C_1  and  P_32
    3  A    between atoms: S_3  and  C_27
    4  A    between atoms: S_3  and  C_54
    5  A    between atoms: C_4  and  N_39
    6  A    between atoms: C_5  and  C_53
    7  A    between atoms: C_10  and  P_32
    8  A    between atoms: N_11  and  N_23
    9  A    between atoms: N_11  and  C_25
   10  A    between atoms: C_13  and  C_25
   11  A    between atoms: C_15  and  N_36
   12  A    between atoms: O_16  and  C_40
   13  A    between atoms: C_19  and  C_28
   14  A    between atoms: C_20  and  C_40
   15  A    between atoms: N_23  and  C_31
   16  A    between atoms: C_43  and  C_53
                            x       y       z     vdW  Elec       q    Type
                         _______ _______ _______ _____ _____    ______ ____

>  <TORSDO>
F 16

$$$$
