=
 OpenBabel10222419373D

 39 44  0  0  1  0  0  0  0  0999 V2000
  191.4850  176.3400  137.7820 N   0  0  0  0  0  2  0  0  0  0  0  0
  191.1420  177.3020  140.5950 N   0  0  0  0  0  0  0  0  0  0  0  0
  192.8420  176.7590  138.1150 C   0  0  1  0  0  3  0  0  0  0  0  0
  189.1660  176.9170  137.4210 C   0  0  0  0  0  3  0  0  0  0  0  0
  190.0950  177.3690  139.6110 C   0  0  0  0  0  0  0  0  0  0  0  0
  192.4400  177.7330  140.2780 N   0  0  0  0  0  2  0  0  0  0  0  0
  187.9300  177.3920  137.8520 C   0  0  0  0  0  3  0  0  0  0  0  0
  188.8650  177.8140  140.0000 N   0  0  0  0  0  0  0  0  0  0  0  0
  187.7930  177.8490  139.1630 C   0  0  0  0  0  0  0  0  0  0  0  0
  193.1090  176.6420  139.5990 C   0  0  0  0  0  2  0  0  0  0  0  0
  190.2680  176.9110  138.2790 C   0  0  0  0  0  0  0  0  0  0  0  0
  191.9640  176.4640  142.7390 C   0  0  0  0  0  2  0  0  0  0  0  0
  190.2620  178.3170  142.6890 C   0  0  0  0  0  2  0  0  0  0  0  0
  191.1650  176.8730  145.0830 C   0  0  0  0  0  2  0  0  0  0  0  0
  189.3470  177.9690  143.8210 C   0  0  0  0  0  3  0  0  0  0  0  0
  190.7700  177.0530  141.9910 C   0  0  1  0  0  3  0  0  0  0  0  0
  189.7330  177.3000  144.9100 C   0  0  0  0  0  0  0  0  0  0  0  0
  191.5500  175.8170  144.0540 C   0  0  0  0  0  2  0  0  0  0  0  0
  188.7450  177.0330  145.9160 N   0  0  0  0  0  2  0  0  0  0  0  0
  186.4970  177.6790  145.0780 C   0  0  0  0  0  3  0  0  0  0  0  0
  187.4640  177.6560  146.0920 C   0  0  0  0  0  0  0  0  0  0  0  0
  185.2760  178.3180  145.3030 C   0  0  0  0  0  3  0  0  0  0  0  0
  185.9530  178.9110  147.4970 C   0  0  0  0  0  3  0  0  0  0  0  0
  187.1860  178.2830  147.3090 C   0  0  0  0  0  3  0  0  0  0  0  0
  185.0290  178.9160  146.4990 N   0  0  0  0  0  0  0  0  0  0  0  0
  184.9010  179.1610  141.1310 C   0  0  0  0  0  3  0  0  0  0  0  0
  184.1230  179.1220  139.9760 C   0  0  0  0  0  3  0  0  0  0  0  0
  185.1040  178.5450  138.7370 S   0  0  0  0  0  0  0  0  0  0  0  0
  186.2230  178.7300  140.9560 C   0  0  0  0  0  3  0  0  0  0  0  0
  186.4980  178.3460  139.6520 C   0  0  0  0  0  0  0  0  0  0  0  0
  193.8540  175.9480  137.3130 C   0  0  0  0  0  2  0  0  0  0  0  0
  193.7460  174.4470  137.5980 C   0  0  0  0  0  2  0  0  0  0  0  0
  197.9200  174.7000  138.0100 C   0  0  0  0  0  2  0  0  0  0  0  0
  194.9280  172.2490  137.6300 C   0  0  0  0  0  1  0  0  0  0  0  0
  195.7380  174.0960  139.0610 C   0  0  0  0  0  3  0  0  0  0  0  0
  195.9730  174.2200  136.5480 C   0  0  0  0  0  2  0  0  0  0  0  0
  195.1050  173.7580  137.7260 C   0  0  2  0  0  0  0  0  0  0  0  0
  197.4470  173.9140  136.7940 C   0  0  0  0  0  2  0  0  0  0  0  0
  197.0180  174.4800  139.1960 C   0  0  0  0  0  3  0  0  0  0  0  0
  1  3  1  0  0  0  0
  1 11  1  0  0  0  0
  3 31  1  6  0  0  0
  3 10  1  0  0  0  0
  4  7  2  0  0  0  0
  4 11  1  0  0  0  0
  5  8  1  0  0  0  0
  5  2  1  0  0  0  0
  6  2  1  0  0  0  0
  7  9  1  0  0  0  0
  9 30  1  0  0  0  0
  9  8  2  0  0  0  0
 10  6  1  0  0  0  0
 11  5  2  0  0  0  0
 12 18  1  0  0  0  0
 13 15  1  0  0  0  0
 15 17  2  0  0  0  0
 16  2  1  6  0  0  0
 16 13  1  0  0  0  0
 16 12  1  0  0  0  0
 17 14  1  0  0  0  0
 17 19  1  0  0  0  0
 18 14  1  0  0  0  0
 19 21  1  0  0  0  0
 20 22  2  0  0  0  0
 20 21  1  0  0  0  0
 21 24  2  0  0  0  0
 22 25  1  0  0  0  0
 24 23  1  0  0  0  0
 25 23  2  0  0  0  0
 27 26  2  0  0  0  0
 28 30  1  0  0  0  0
 28 27  1  0  0  0  0
 29 26  1  0  0  0  0
 30 29  2  0  0  0  0
 31 32  1  0  0  0  0
 32 37  1  0  0  0  0
 33 39  1  0  0  0  0
 35 39  2  0  0  0  0
 36 38  1  0  0  0  0
 36 37  1  0  0  0  0
 37 34  1  6  0  0  0
 37 35  1  0  0  0  0
 38 33  1  0  0  0  0
M  END
>  <MODEL>
1

>  <REMARK>
 VINA RESULT:      -8.9      0.000      0.000
  Name = 
  7 active torsions:
  status: ('A' for Active; 'I' for Inactive)
    1  A    between atoms: C_3  and  N_13
    2  A    between atoms: N_5  and  C_31
    3  A    between atoms: N_13  and  C_33
    4  A    between atoms: C_15  and  C_18
    5  A    between atoms: C_18  and  C_34
    6  A    between atoms: C_27  and  C_34
    7  A    between atoms: C_30  and  C_32
                            x       y       z     vdW  Elec       q    Type
                         _______ _______ _______ _____ _____    ______ ____

>  <TORSDO>
F 7

$$$$
=
 OpenBabel10222419373D

 39 44  0  0  1  0  0  0  0  0999 V2000
  187.0530  177.7200  144.2490 N   0  0  0  0  0  2  0  0  0  0  0  0
  184.9520  178.9550  142.5120 N   0  0  0  0  0  0  0  0  0  0  0  0
  186.3740  178.5990  145.1930 C   0  0  1  0  0  3  0  0  0  0  0  0
  188.3890  177.4570  142.2510 C   0  0  0  0  0  3  0  0  0  0  0  0
  186.2290  178.5240  142.0100 C   0  0  0  0  0  0  0  0  0  0  0  0
  184.8740  179.7240  143.6850 N   0  0  0  0  0  2  0  0  0  0  0  0
  188.5940  177.5720  140.8790 C   0  0  0  0  0  3  0  0  0  0  0  0
  186.4620  178.6070  140.6680 N   0  0  0  0  0  0  0  0  0  0  0  0
  187.6090  178.1620  140.0880 C   0  0  0  0  0  0  0  0  0  0  0  0
  184.9260  178.8110  144.8090 C   0  0  0  0  0  2  0  0  0  0  0  0
  187.2190  177.9420  142.8420 C   0  0  0  0  0  0  0  0  0  0  0  0
  183.8670  177.5120  140.8650 C   0  0  0  0  0  2  0  0  0  0  0  0
  182.4660  178.9120  142.4170 C   0  0  0  0  0  2  0  0  0  0  0  0
  181.4730  177.3690  140.1220 C   0  0  0  0  0  2  0  0  0  0  0  0
  181.3560  179.3920  141.5340 C   0  0  0  0  0  3  0  0  0  0  0  0
  183.7810  178.8250  141.6390 C   0  0  1  0  0  3  0  0  0  0  0  0
  180.9010  178.7130  140.4780 C   0  0  0  0  0  0  0  0  0  0  0  0
  182.9220  177.4920  139.6700 C   0  0  0  0  0  2  0  0  0  0  0  0
  179.8310  179.2970  139.7190 N   0  0  0  0  0  2  0  0  0  0  0  0
  178.9310  181.5800  139.3330 C   0  0  0  0  0  3  0  0  0  0  0  0
  179.8200  180.5460  139.0130 C   0  0  0  0  0  0  0  0  0  0  0  0
  178.9560  182.7660  138.5960 C   0  0  0  0  0  3  0  0  0  0  0  0
  180.7070  181.9230  137.2370 C   0  0  0  0  0  3  0  0  0  0  0  0
  180.7120  180.7230  137.9510 C   0  0  0  0  0  3  0  0  0  0  0  0
  179.8360  182.9130  137.5700 N   0  0  0  0  0  0  0  0  0  0  0  0
  188.8510  178.6820  136.6020 C   0  0  0  0  0  3  0  0  0  0  0  0
  187.5790  178.3710  136.1250 C   0  0  0  0  0  3  0  0  0  0  0  0
  186.6140  178.0410  137.4620 S   0  0  0  0  0  0  0  0  0  0  0  0
  188.9740  178.6380  137.9980 C   0  0  0  0  0  3  0  0  0  0  0  0
  187.7920  178.2890  138.6340 C   0  0  0  0  0  0  0  0  0  0  0  0
  186.4850  178.0400  146.6070 C   0  0  0  0  0  2  0  0  0  0  0  0
  187.5120  176.9070  146.7000 C   0  0  0  0  0  2  0  0  0  0  0  0
  191.6530  176.7280  146.0120 C   0  0  0  0  0  2  0  0  0  0  0  0
  188.8770  178.4310  148.1310 C   0  0  0  0  0  1  0  0  0  0  0  0
  189.5410  178.0360  145.7820 C   0  0  0  0  0  3  0  0  0  0  0  0
  189.7400  176.1940  147.5000 C   0  0  0  0  0  2  0  0  0  0  0  0
  188.9260  177.4000  147.0130 C   0  0  2  0  0  0  0  0  0  0  0  0
  191.2380  176.4850  147.4570 C   0  0  0  0  0  2  0  0  0  0  0  0
  190.7840  177.7670  145.3540 C   0  0  0  0  0  3  0  0  0  0  0  0
  1  3  1  0  0  0  0
  2  6  1  0  0  0  0
  3 31  1  1  0  0  0
  4 11  1  0  0  0  0
  5  2  1  0  0  0  0
  5 11  2  0  0  0  0
  6 10  1  0  0  0  0
  7  4  2  0  0  0  0
  8  5  1  0  0  0  0
  9  8  2  0  0  0  0
  9  7  1  0  0  0  0
 10  3  1  0  0  0  0
 11  1  1  0  0  0  0
 14 17  1  0  0  0  0
 15 13  1  0  0  0  0
 16 12  1  1  0  0  0
 16 13  1  0  0  0  0
 16  2  1  0  0  0  0
 17 15  2  0  0  0  0
 18 14  1  0  0  0  0
 18 12  1  0  0  0  0
 19 17  1  0  0  0  0
 21 20  1  0  0  0  0
 21 19  1  0  0  0  0
 22 20  2  0  0  0  0
 23 25  2  0  0  0  0
 23 24  1  0  0  0  0
 24 21  2  0  0  0  0
 25 22  1  0  0  0  0
 26 29  1  0  0  0  0
 27 26  2  0  0  0  0
 27 28  1  0  0  0  0
 28 30  1  0  0  0  0
 29 30  2  0  0  0  0
 30  9  1  0  0  0  0
 31 32  1  0  0  0  0
 32 37  1  0  0  0  0
 33 38  1  0  0  0  0
 35 37  1  0  0  0  0
 37 36  1  0  0  0  0
 37 34  1  1  0  0  0
 38 36  1  0  0  0  0
 39 35  2  0  0  0  0
 39 33  1  0  0  0  0
M  END
>  <MODEL>
2

>  <REMARK>
 VINA RESULT:      -8.8      4.646      9.041
  Name = 
  7 active torsions:
  status: ('A' for Active; 'I' for Inactive)
    1  A    between atoms: C_3  and  N_13
    2  A    between atoms: N_5  and  C_31
    3  A    between atoms: N_13  and  C_33
    4  A    between atoms: C_15  and  C_18
    5  A    between atoms: C_18  and  C_34
    6  A    between atoms: C_27  and  C_34
    7  A    between atoms: C_30  and  C_32
                            x       y       z     vdW  Elec       q    Type
                         _______ _______ _______ _____ _____    ______ ____

>  <TORSDO>
F 7

$$$$
=
 OpenBabel10222419373D

 39 44  0  0  1  0  0  0  0  0999 V2000
  184.2230  178.1880  143.3640 N   0  0  0  0  0  2  0  0  0  0  0  0
  186.6940  178.4410  141.6950 N   0  0  0  0  0  0  0  0  0  0  0  0
  183.8010  179.1600  142.3630 C   0  0  1  0  0  3  0  0  0  0  0  0
  185.6680  177.6090  145.2140 C   0  0  0  0  0  3  0  0  0  0  0  0
  186.7260  178.1320  143.1000 C   0  0  0  0  0  0  0  0  0  0  0  0
  185.8920  179.4900  141.2190 N   0  0  0  0  0  2  0  0  0  0  0  0
  186.9180  177.3550  145.7720 C   0  0  0  0  0  3  0  0  0  0  0  0
  187.9320  177.8620  143.6790 N   0  0  0  0  0  0  0  0  0  0  0  0
  188.0590  177.4910  144.9820 C   0  0  0  0  0  0  0  0  0  0  0  0
  184.5480  178.9730  141.0610 C   0  0  0  0  0  2  0  0  0  0  0  0
  185.5490  178.0160  143.8830 C   0  0  0  0  0  0  0  0  0  0  0  0
  187.4170  178.1980  139.3730 C   0  0  0  0  0  2  0  0  0  0  0  0
  189.1300  178.2780  141.2150 C   0  0  0  0  0  2  0  0  0  0  0  0
  189.6620  177.6430  138.3960 C   0  0  0  0  0  2  0  0  0  0  0  0
  190.1360  177.2550  140.7890 C   0  0  0  0  0  3  0  0  0  0  0  0
  187.7140  177.8430  140.8280 C   0  0  1  0  0  3  0  0  0  0  0  0
  190.3820  176.9410  139.5140 C   0  0  0  0  0  0  0  0  0  0  0  0
  188.1770  177.3040  138.4020 C   0  0  0  0  0  2  0  0  0  0  0  0
  191.3740  175.9370  139.2530 N   0  0  0  0  0  2  0  0  0  0  0  0
  191.6390  174.5430  137.2130 C   0  0  0  0  0  3  0  0  0  0  0  0
  192.0230  175.6290  138.0110 C   0  0  0  0  0  0  0  0  0  0  0  0
  192.3230  174.2840  136.0230 C   0  0  0  0  0  3  0  0  0  0  0  0
  193.7540  176.1370  136.4040 C   0  0  0  0  0  3  0  0  0  0  0  0
  193.0940  176.4270  137.6000 C   0  0  0  0  0  3  0  0  0  0  0  0
  193.3590  175.0800  135.6450 N   0  0  0  0  0  0  0  0  0  0  0  0
  191.6850  176.8350  145.6020 C   0  0  0  0  0  3  0  0  0  0  0  0
  191.4150  176.7470  146.9660 C   0  0  0  0  0  3  0  0  0  0  0  0
  189.7640  177.0010  147.1620 S   0  0  0  0  0  0  0  0  0  0  0  0
  190.5630  177.0980  144.8030 C   0  0  0  0  0  3  0  0  0  0  0  0
  189.3940  177.2190  145.5390 C   0  0  0  0  0  0  0  0  0  0  0  0
  182.2950  179.0700  142.1450 C   0  0  0  0  0  2  0  0  0  0  0  0
  181.9390  178.2160  140.9250 C   0  0  0  0  0  2  0  0  0  0  0  0
  180.8320  181.6440  138.7620 C   0  0  0  0  0  2  0  0  0  0  0  0
  179.8440  177.9780  139.5880 C   0  0  0  0  0  1  0  0  0  0  0  0
  181.7230  179.3140  138.6940 C   0  0  0  0  0  3  0  0  0  0  0  0
  180.3960  180.1330  140.6820 C   0  0  0  0  0  2  0  0  0  0  0  0
  180.9840  178.9160  139.9560 C   0  0  2  0  0  0  0  0  0  0  0  0
  179.7560  181.1080  139.6970 C   0  0  0  0  0  2  0  0  0  0  0  0
  181.6220  180.5290  138.1310 C   0  0  0  0  0  3  0  0  0  0  0  0
  1 11  1  0  0  0  0
  2  5  1  0  0  0  0
  3 31  1  6  0  0  0
  3  1  1  0  0  0  0
  4  7  1  0  0  0  0
  5  8  2  0  0  0  0
  5 11  1  0  0  0  0
  6  2  1  0  0  0  0
  8  9  1  0  0  0  0
  9 30  1  0  0  0  0
  9  7  2  0  0  0  0
 10  6  1  0  0  0  0
 10  3  1  0  0  0  0
 11  4  2  0  0  0  0
 14 18  1  0  0  0  0
 14 17  1  0  0  0  0
 15 13  1  0  0  0  0
 16 12  1  6  0  0  0
 16 13  1  0  0  0  0
 16  2  1  0  0  0  0
 17 15  2  0  0  0  0
 18 12  1  0  0  0  0
 19 17  1  0  0  0  0
 20 21  1  0  0  0  0
 21 19  1  0  0  0  0
 22 20  2  0  0  0  0
 23 24  1  0  0  0  0
 24 21  2  0  0  0  0
 25 22  1  0  0  0  0
 25 23  2  0  0  0  0
 26 27  2  0  0  0  0
 27 28  1  0  0  0  0
 29 30  2  0  0  0  0
 29 26  1  0  0  0  0
 30 28  1  0  0  0  0
 32 31  1  0  0  0  0
 33 38  1  0  0  0  0
 35 37  1  0  0  0  0
 37 34  1  6  0  0  0
 37 36  1  0  0  0  0
 37 32  1  0  0  0  0
 38 36  1  0  0  0  0
 39 35  2  0  0  0  0
 39 33  1  0  0  0  0
M  END
>  <MODEL>
3

>  <REMARK>
 VINA RESULT:      -8.8      2.796     10.619
  Name = 
  7 active torsions:
  status: ('A' for Active; 'I' for Inactive)
    1  A    between atoms: C_3  and  N_13
    2  A    between atoms: N_5  and  C_31
    3  A    between atoms: N_13  and  C_33
    4  A    between atoms: C_15  and  C_18
    5  A    between atoms: C_18  and  C_34
    6  A    between atoms: C_27  and  C_34
    7  A    between atoms: C_30  and  C_32
                            x       y       z     vdW  Elec       q    Type
                         _______ _______ _______ _____ _____    ______ ____

>  <TORSDO>
F 7

$$$$
=
 OpenBabel10222419373D

 39 44  0  0  1  0  0  0  0  0999 V2000
  187.1720  177.8230  144.2640 N   0  0  0  0  0  2  0  0  0  0  0  0
  184.9240  178.7430  142.5150 N   0  0  0  0  0  0  0  0  0  0  0  0
  186.4070  178.6560  145.1850 C   0  0  1  0  0  3  0  0  0  0  0  0
  188.5060  177.6360  142.2580 C   0  0  0  0  0  3  0  0  0  0  0  0
  186.2370  178.4420  142.0100 C   0  0  0  0  0  0  0  0  0  0  0  0
  184.7720  179.5440  143.6590 N   0  0  0  0  0  2  0  0  0  0  0  0
  188.6820  177.7200  140.8790 C   0  0  0  0  0  3  0  0  0  0  0  0
  186.4440  178.4980  140.6620 N   0  0  0  0  0  0  0  0  0  0  0  0
  187.6280  178.1640  140.0820 C   0  0  0  0  0  0  0  0  0  0  0  0
  184.9410  178.6880  144.8160 C   0  0  0  0  0  2  0  0  0  0  0  0
  187.2960  178.0080  142.8480 C   0  0  0  0  0  0  0  0  0  0  0  0
  182.5020  178.9990  142.3190 C   0  0  0  0  0  2  0  0  0  0  0  0
  183.9330  179.0030  140.2480 C   0  0  0  0  0  2  0  0  0  0  0  0
  180.9960  178.9340  140.3120 C   0  0  0  0  0  2  0  0  0  0  0  0
  183.1170  178.2160  139.2700 C   0  0  0  0  0  3  0  0  0  0  0  0
  183.7670  178.4480  141.6650 C   0  0  1  0  0  3  0  0  0  0  0  0
  181.7830  178.1590  139.2910 C   0  0  0  0  0  0  0  0  0  0  0  0
  181.2400  178.3950  141.7160 C   0  0  0  0  0  2  0  0  0  0  0  0
  181.1330  177.3610  138.2900 N   0  0  0  0  0  2  0  0  0  0  0  0
  180.5500  175.1600  137.2970 C   0  0  0  0  0  3  0  0  0  0  0  0
  180.6480  176.0150  138.4020 C   0  0  0  0  0  0  0  0  0  0  0  0
  180.0510  173.8670  137.4660 C   0  0  0  0  0  3  0  0  0  0  0  0
  179.7420  174.2550  139.7860 C   0  0  0  0  0  3  0  0  0  0  0  0
  180.2350  175.5550  139.6550 C   0  0  0  0  0  3  0  0  0  0  0  0
  179.6600  173.4430  138.6980 N   0  0  0  0  0  0  0  0  0  0  0  0
  188.7840  178.6250  136.5590 C   0  0  0  0  0  3  0  0  0  0  0  0
  187.5170  178.2520  136.1160 C   0  0  0  0  0  3  0  0  0  0  0  0
  186.5910  177.9260  137.4810 S   0  0  0  0  0  0  0  0  0  0  0  0
  188.9350  178.6270  137.9530 C   0  0  0  0  0  3  0  0  0  0  0  0
  187.7790  178.2530  138.6210 C   0  0  0  0  0  0  0  0  0  0  0  0
  186.5980  178.1680  146.6170 C   0  0  0  0  0  2  0  0  0  0  0  0
  187.5660  176.9850  146.7000 C   0  0  0  0  0  2  0  0  0  0  0  0
  191.6810  176.7270  145.8910 C   0  0  0  0  0  2  0  0  0  0  0  0
  189.0160  178.3380  148.2150 C   0  0  0  0  0  1  0  0  0  0  0  0
  189.6110  178.1180  145.8250 C   0  0  0  0  0  3  0  0  0  0  0  0
  189.7860  176.1340  147.3790 C   0  0  0  0  0  2  0  0  0  0  0  0
  189.0030  177.4020  147.0150 C   0  0  2  0  0  0  0  0  0  0  0  0
  191.2910  176.3780  147.3210 C   0  0  0  0  0  2  0  0  0  0  0  0
  190.8340  177.8450  145.3440 C   0  0  0  0  0  3  0  0  0  0  0  0
  1  3  1  0  0  0  0
  2  6  1  0  0  0  0
  3 31  1  1  0  0  0
  4 11  1  0  0  0  0
  5  2  1  0  0  0  0
  5 11  2  0  0  0  0
  6 10  1  0  0  0  0
  7  4  2  0  0  0  0
  8  5  1  0  0  0  0
  9  8  2  0  0  0  0
  9  7  1  0  0  0  0
 10  3  1  0  0  0  0
 11  1  1  0  0  0  0
 14 18  1  0  0  0  0
 15 17  2  0  0  0  0
 15 13  1  0  0  0  0
 16 13  1  6  0  0  0
 16 12  1  0  0  0  0
 16  2  1  0  0  0  0
 17 14  1  0  0  0  0
 18 12  1  0  0  0  0
 19 21  1  0  0  0  0
 19 17  1  0  0  0  0
 20 22  2  0  0  0  0
 20 21  1  0  0  0  0
 21 24  2  0  0  0  0
 22 25  1  0  0  0  0
 24 23  1  0  0  0  0
 25 23  2  0  0  0  0
 26 29  1  0  0  0  0
 27 26  2  0  0  0  0
 27 28  1  0  0  0  0
 28 30  1  0  0  0  0
 29 30  2  0  0  0  0
 30  9  1  0  0  0  0
 31 32  1  0  0  0  0
 32 37  1  0  0  0  0
 33 38  1  0  0  0  0
 35 37  1  0  0  0  0
 37 36  1  0  0  0  0
 37 34  1  1  0  0  0
 38 36  1  0  0  0  0
 39 35  2  0  0  0  0
 39 33  1  0  0  0  0
M  END
>  <MODEL>
4

>  <REMARK>
 VINA RESULT:      -8.5      4.630      8.973
  Name = 
  7 active torsions:
  status: ('A' for Active; 'I' for Inactive)
    1  A    between atoms: C_3  and  N_13
    2  A    between atoms: N_5  and  C_31
    3  A    between atoms: N_13  and  C_33
    4  A    between atoms: C_15  and  C_18
    5  A    between atoms: C_18  and  C_34
    6  A    between atoms: C_27  and  C_34
    7  A    between atoms: C_30  and  C_32
                            x       y       z     vdW  Elec       q    Type
                         _______ _______ _______ _____ _____    ______ ____

>  <TORSDO>
F 7

$$$$
=
 OpenBabel10222419373D

 39 44  0  0  1  0  0  0  0  0999 V2000
  183.8870  179.4800  138.9010 N   0  0  0  0  0  2  0  0  0  0  0  0
  184.7560  178.2930  141.5070 N   0  0  0  0  0  0  0  0  0  0  0  0
  182.6280  178.9570  139.4180 C   0  0  1  0  0  3  0  0  0  0  0  0
  186.1290  179.0680  138.0960 C   0  0  0  0  0  3  0  0  0  0  0  0
  185.6170  178.3730  140.3570 C   0  0  0  0  0  0  0  0  0  0  0  0
  183.4410  177.8190  141.3760 N   0  0  0  0  0  2  0  0  0  0  0  0
  187.4390  178.6280  138.2610 C   0  0  0  0  0  3  0  0  0  0  0  0
  186.9130  177.9640  140.4850 N   0  0  0  0  0  0  0  0  0  0  0  0
  187.8220  178.0650  139.4790 C   0  0  0  0  0  0  0  0  0  0  0  0
  182.6210  178.9270  140.9300 C   0  0  0  0  0  2  0  0  0  0  0  0
  185.1940  178.9360  139.1260 C   0  0  0  0  0  0  0  0  0  0  0  0
  184.2770  178.8270  143.8440 C   0  0  0  0  0  2  0  0  0  0  0  0
  186.0840  177.1670  143.2850 C   0  0  0  0  0  2  0  0  0  0  0  0
  185.5220  178.2690  145.9500 C   0  0  0  0  0  2  0  0  0  0  0  0
  187.1610  177.4910  144.2730 C   0  0  0  0  0  3  0  0  0  0  0  0
  185.3560  178.4380  142.8370 C   0  0  1  0  0  3  0  0  0  0  0  0
  186.9280  178.0060  145.4830 C   0  0  0  0  0  0  0  0  0  0  0  0
  184.8710  179.3780  145.1330 C   0  0  0  0  0  2  0  0  0  0  0  0
  188.0590  178.2690  146.3260 N   0  0  0  0  0  2  0  0  0  0  0  0
  190.1890  177.8360  145.1230 C   0  0  0  0  0  3  0  0  0  0  0  0
  189.3740  177.6990  146.2540 C   0  0  0  0  0  0  0  0  0  0  0  0
  191.4520  177.2410  145.1060 C   0  0  0  0  0  3  0  0  0  0  0  0
  191.1120  176.3780  147.2880 C   0  0  0  0  0  3  0  0  0  0  0  0
  189.8430  176.9580  147.3420 C   0  0  0  0  0  3  0  0  0  0  0  0
  191.8860  176.5290  146.1800 N   0  0  0  0  0  0  0  0  0  0  0  0
  191.1560  177.0300  140.8110 C   0  0  0  0  0  3  0  0  0  0  0  0
  191.5660  176.7500  139.5090 C   0  0  0  0  0  3  0  0  0  0  0  0
  190.2710  177.0980  138.4950 S   0  0  0  0  0  0  0  0  0  0  0  0
  189.8410  177.5040  140.9160 C   0  0  0  0  0  3  0  0  0  0  0  0
  189.2020  177.6000  139.6890 C   0  0  0  0  0  0  0  0  0  0  0  0
  181.4590  179.7780  138.8840 C   0  0  0  0  0  2  0  0  0  0  0  0
  181.8330  181.2480  138.6780 C   0  0  0  0  0  2  0  0  0  0  0  0
  180.8050  183.3330  135.1780 C   0  0  0  0  0  2  0  0  0  0  0  0
  179.5150  182.1740  138.6550 C   0  0  0  0  0  1  0  0  0  0  0  0
  180.4990  181.2840  136.5690 C   0  0  0  0  0  3  0  0  0  0  0  0
  181.3750  183.4220  137.5920 C   0  0  0  0  0  2  0  0  0  0  0  0
  180.8020  182.0240  137.8570 C   0  0  2  0  0  0  0  0  0  0  0  0
  180.6210  184.1240  136.4670 C   0  0  0  0  0  2  0  0  0  0  0  0
  180.4580  181.8800  135.3670 C   0  0  0  0  0  3  0  0  0  0  0  0
  1 11  1  0  0  0  0
  1  3  1  0  0  0  0
  3 31  1  1  0  0  0
  3 10  1  0  0  0  0
  4  7  2  0  0  0  0
  4 11  1  0  0  0  0
  5  8  1  0  0  0  0
  5  2  1  0  0  0  0
  6  2  1  0  0  0  0
  7  9  1  0  0  0  0
  9 30  1  0  0  0  0
  9  8  2  0  0  0  0
 10  6  1  0  0  0  0
 11  5  2  0  0  0  0
 12 18  1  0  0  0  0
 13 15  1  0  0  0  0
 15 17  2  0  0  0  0
 16  2  1  6  0  0  0
 16 13  1  0  0  0  0
 16 12  1  0  0  0  0
 17 14  1  0  0  0  0
 17 19  1  0  0  0  0
 18 14  1  0  0  0  0
 20 21  1  0  0  0  0
 21 19  1  0  0  0  0
 21 24  2  0  0  0  0
 22 20  2  0  0  0  0
 22 25  1  0  0  0  0
 23 24  1  0  0  0  0
 25 23  2  0  0  0  0
 26 29  1  0  0  0  0
 27 26  2  0  0  0  0
 28 27  1  0  0  0  0
 28 30  1  0  0  0  0
 30 29  2  0  0  0  0
 32 31  1  0  0  0  0
 33 39  1  0  0  0  0
 33 38  1  0  0  0  0
 35 37  1  0  0  0  0
 36 37  1  0  0  0  0
 37 34  1  1  0  0  0
 37 32  1  0  0  0  0
 38 36  1  0  0  0  0
 39 35  2  0  0  0  0
M  END
>  <MODEL>
5

>  <REMARK>
 VINA RESULT:      -8.4      3.407      9.732
  Name = 
  7 active torsions:
  status: ('A' for Active; 'I' for Inactive)
    1  A    between atoms: C_3  and  N_13
    2  A    between atoms: N_5  and  C_31
    3  A    between atoms: N_13  and  C_33
    4  A    between atoms: C_15  and  C_18
    5  A    between atoms: C_18  and  C_34
    6  A    between atoms: C_27  and  C_34
    7  A    between atoms: C_30  and  C_32
                            x       y       z     vdW  Elec       q    Type
                         _______ _______ _______ _____ _____    ______ ____

>  <TORSDO>
F 7

$$$$
=
 OpenBabel10222419373D

 39 44  0  0  1  0  0  0  0  0999 V2000
  181.2060  179.5980  137.0390 N   0  0  0  0  0  2  0  0  0  0  0  0
  182.3180  178.5240  139.6010 N   0  0  0  0  0  0  0  0  0  0  0  0
  180.2570  180.1240  138.0130 C   0  0  1  0  0  3  0  0  0  0  0  0
  182.2050  177.6930  135.9370 C   0  0  0  0  0  3  0  0  0  0  0  0
  182.4610  177.8470  138.3400 C   0  0  0  0  0  0  0  0  0  0  0  0
  181.0690  179.0300  139.9950 N   0  0  0  0  0  2  0  0  0  0  0  0
  182.9610  176.5240  135.9350 C   0  0  0  0  0  3  0  0  0  0  0  0
  183.2070  176.7050  138.2950 N   0  0  0  0  0  0  0  0  0  0  0  0
  183.4590  176.0310  137.1410 C   0  0  0  0  0  0  0  0  0  0  0  0
  180.9040  180.3240  139.3650 C   0  0  0  0  0  2  0  0  0  0  0  0
  181.9280  178.3640  137.1310 C   0  0  0  0  0  0  0  0  0  0  0  0
  184.6290  179.1790  140.0500 C   0  0  0  0  0  2  0  0  0  0  0  0
  183.0040  178.9360  141.9560 C   0  0  0  0  0  2  0  0  0  0  0  0
  185.9010  179.3570  142.2070 C   0  0  0  0  0  2  0  0  0  0  0  0
  183.8290  178.2920  143.0270 C   0  0  0  0  0  3  0  0  0  0  0  0
  183.4110  178.4220  140.5730 C   0  0  1  0  0  3  0  0  0  0  0  0
  185.1480  178.4580  143.1490 C   0  0  0  0  0  0  0  0  0  0  0  0
  185.9020  178.7910  140.7930 C   0  0  0  0  0  2  0  0  0  0  0  0
  185.8110  177.7760  144.2240 N   0  0  0  0  0  2  0  0  0  0  0  0
  187.8740  176.6860  143.3720 C   0  0  0  0  0  3  0  0  0  0  0  0
  187.2010  177.4390  144.3420 C   0  0  0  0  0  0  0  0  0  0  0  0
  189.2230  176.3740  143.5530 C   0  0  0  0  0  3  0  0  0  0  0  0
  189.2450  177.5260  145.6260 C   0  0  0  0  0  3  0  0  0  0  0  0
  187.8960  177.8570  145.4800 C   0  0  0  0  0  3  0  0  0  0  0  0
  189.8770  176.7970  144.6680 N   0  0  0  0  0  0  0  0  0  0  0  0
  184.7800  172.5380  137.2520 C   0  0  0  0  0  3  0  0  0  0  0  0
  186.0760  173.0480  137.2040 C   0  0  0  0  0  3  0  0  0  0  0  0
  185.9470  174.7230  137.1390 S   0  0  0  0  0  0  0  0  0  0  0  0
  183.7720  173.5110  137.2340 C   0  0  0  0  0  3  0  0  0  0  0  0
  184.2700  174.8040  137.1710 C   0  0  0  0  0  0  0  0  0  0  0  0
  179.6470  181.4260  137.5030 C   0  0  0  0  0  2  0  0  0  0  0  0
  180.3870  181.9680  136.2770 C   0  0  0  0  0  2  0  0  0  0  0  0
  180.0310  185.7380  138.0980 C   0  0  0  0  0  2  0  0  0  0  0  0
  180.3820  183.8980  134.6930 C   0  0  0  0  0  1  0  0  0  0  0  0
  181.4960  184.1180  136.8900 C   0  0  0  0  0  3  0  0  0  0  0  0
  178.9790  183.9480  136.7370 C   0  0  0  0  0  2  0  0  0  0  0  0
  180.3250  183.4920  136.1590 C   0  0  2  0  0  0  0  0  0  0  0  0
  178.9840  185.4460  137.0310 C   0  0  0  0  0  2  0  0  0  0  0  0
  181.3710  185.1580  137.7300 C   0  0  0  0  0  3  0  0  0  0  0  0
  1 11  1  0  0  0  0
  1  3  1  0  0  0  0
  2  6  1  0  0  0  0
  3 31  1  6  0  0  0
  3 10  1  0  0  0  0
  4 11  1  0  0  0  0
  5  2  1  0  0  0  0
  7  4  2  0  0  0  0
  7  9  1  0  0  0  0
  8  5  1  0  0  0  0
  9 30  1  0  0  0  0
  9  8  2  0  0  0  0
 10  6  1  0  0  0  0
 11  5  2  0  0  0  0
 12 16  1  0  0  0  0
 12 18  1  0  0  0  0
 13 15  1  0  0  0  0
 14 17  1  0  0  0  0
 15 17  2  0  0  0  0
 16  2  1  6  0  0  0
 16 13  1  0  0  0  0
 17 19  1  0  0  0  0
 18 14  1  0  0  0  0
 19 21  1  0  0  0  0
 20 22  2  0  0  0  0
 20 21  1  0  0  0  0
 21 24  2  0  0  0  0
 22 25  1  0  0  0  0
 24 23  1  0  0  0  0
 25 23  2  0  0  0  0
 27 26  2  0  0  0  0
 28 30  1  0  0  0  0
 28 27  1  0  0  0  0
 29 26  1  0  0  0  0
 30 29  2  0  0  0  0
 32 31  1  0  0  0  0
 35 39  2  0  0  0  0
 36 38  1  0  0  0  0
 37 34  1  6  0  0  0
 37 32  1  0  0  0  0
 37 36  1  0  0  0  0
 37 35  1  0  0  0  0
 38 33  1  0  0  0  0
 39 33  1  0  0  0  0
M  END
>  <MODEL>
6

>  <REMARK>
 VINA RESULT:      -8.4      5.366     10.938
  Name = 
  7 active torsions:
  status: ('A' for Active; 'I' for Inactive)
    1  A    between atoms: C_3  and  N_13
    2  A    between atoms: N_5  and  C_31
    3  A    between atoms: N_13  and  C_33
    4  A    between atoms: C_15  and  C_18
    5  A    between atoms: C_18  and  C_34
    6  A    between atoms: C_27  and  C_34
    7  A    between atoms: C_30  and  C_32
                            x       y       z     vdW  Elec       q    Type
                         _______ _______ _______ _____ _____    ______ ____

>  <TORSDO>
F 7

$$$$
=
 OpenBabel10222419373D

 39 44  0  0  1  0  0  0  0  0999 V2000
  183.2110  178.6270  141.4210 N   0  0  0  0  0  2  0  0  0  0  0  0
  185.9570  178.6260  140.2310 N   0  0  0  0  0  0  0  0  0  0  0  0
  183.0230  179.4770  140.2510 C   0  0  1  0  0  3  0  0  0  0  0  0
  184.2620  178.2520  143.5650 C   0  0  0  0  0  3  0  0  0  0  0  0
  185.7150  178.4910  141.6430 C   0  0  0  0  0  0  0  0  0  0  0  0
  185.3010  179.6240  139.4920 N   0  0  0  0  0  2  0  0  0  0  0  0
  185.3760  178.0430  144.3750 C   0  0  0  0  0  3  0  0  0  0  0  0
  186.7800  178.2700  142.4670 N   0  0  0  0  0  0  0  0  0  0  0  0
  186.6480  178.0600  143.8040 C   0  0  0  0  0  0  0  0  0  0  0  0
  183.9890  179.1180  139.1450 C   0  0  0  0  0  2  0  0  0  0  0  0
  184.4090  178.4940  142.1970 C   0  0  0  0  0  0  0  0  0  0  0  0
  186.9660  177.9010  138.1270 C   0  0  0  0  0  2  0  0  0  0  0  0
  188.4370  178.5020  140.0780 C   0  0  0  0  0  2  0  0  0  0  0  0
  189.3300  177.2710  137.5640 C   0  0  0  0  0  2  0  0  0  0  0  0
  189.5200  177.4690  140.0190 C   0  0  0  0  0  3  0  0  0  0  0  0
  187.0940  177.9070  139.6480 C   0  0  1  0  0  3  0  0  0  0  0  0
  189.9290  176.8870  138.8890 C   0  0  0  0  0  0  0  0  0  0  0  0
  187.8670  176.8540  137.4830 C   0  0  0  0  0  2  0  0  0  0  0  0
  190.9770  175.9100  138.9830 N   0  0  0  0  0  2  0  0  0  0  0  0
  191.6480  174.2690  137.2430 C   0  0  0  0  0  3  0  0  0  0  0  0
  191.8670  175.4570  137.9530 C   0  0  0  0  0  0  0  0  0  0  0  0
  192.5610  173.8710  136.2640 C   0  0  0  0  0  3  0  0  0  0  0  0
  193.8950  175.7870  136.6830 C   0  0  0  0  0  3  0  0  0  0  0  0
  193.0050  176.2170  137.6690 C   0  0  0  0  0  3  0  0  0  0  0  0
  193.6580  174.6320  136.0050 N   0  0  0  0  0  0  0  0  0  0  0  0
  189.1340  177.4370  146.5240 C   0  0  0  0  0  3  0  0  0  0  0  0
  190.1540  177.4950  145.5770 C   0  0  0  0  0  3  0  0  0  0  0  0
  189.4310  177.7810  144.0860 S   0  0  0  0  0  0  0  0  0  0  0  0
  187.8460  177.6240  146.0020 C   0  0  0  0  0  3  0  0  0  0  0  0
  187.8430  177.8320  144.6310 C   0  0  0  0  0  0  0  0  0  0  0  0
  181.5800  179.3910  139.7640 C   0  0  0  0  0  2  0  0  0  0  0  0
  181.4830  179.4410  138.2370 C   0  0  0  0  0  2  0  0  0  0  0  0
  180.7770  183.0390  136.1860 C   0  0  0  0  0  2  0  0  0  0  0  0
  179.0950  180.1640  138.1860 C   0  0  0  0  0  1  0  0  0  0  0  0
  180.5350  180.5560  136.2150 C   0  0  0  0  0  3  0  0  0  0  0  0
  180.9110  181.8440  138.3560 C   0  0  0  0  0  2  0  0  0  0  0  0
  180.5060  180.5030  137.7290 C   0  0  2  0  0  0  0  0  0  0  0  0
  180.2650  183.0140  137.6200 C   0  0  0  0  0  2  0  0  0  0  0  0
  180.6140  181.7000  135.5170 C   0  0  0  0  0  3  0  0  0  0  0  0
  1 11  1  0  0  0  0
  2  5  1  0  0  0  0
  3 31  1  6  0  0  0
  3  1  1  0  0  0  0
  4  7  1  0  0  0  0
  5 11  1  0  0  0  0
  5  8  2  0  0  0  0
  6  2  1  0  0  0  0
  8  9  1  0  0  0  0
  9  7  2  0  0  0  0
  9 30  1  0  0  0  0
 10  6  1  0  0  0  0
 10  3  1  0  0  0  0
 11  4  2  0  0  0  0
 14 17  1  0  0  0  0
 15 13  1  0  0  0  0
 16 12  1  6  0  0  0
 16 13  1  0  0  0  0
 16  2  1  0  0  0  0
 17 19  1  0  0  0  0
 17 15  2  0  0  0  0
 18 14  1  0  0  0  0
 18 12  1  0  0  0  0
 20 21  1  0  0  0  0
 21 19  1  0  0  0  0
 22 20  2  0  0  0  0
 23 24  1  0  0  0  0
 24 21  2  0  0  0  0
 25 22  1  0  0  0  0
 25 23  2  0  0  0  0
 27 26  2  0  0  0  0
 28 30  1  0  0  0  0
 28 27  1  0  0  0  0
 29 26  1  0  0  0  0
 30 29  2  0  0  0  0
 32 31  1  0  0  0  0
 33 38  1  0  0  0  0
 35 37  1  0  0  0  0
 37 34  1  1  0  0  0
 37 32  1  0  0  0  0
 37 36  1  0  0  0  0
 38 36  1  0  0  0  0
 39 33  1  0  0  0  0
 39 35  2  0  0  0  0
M  END
>  <MODEL>
7

>  <REMARK>
 VINA RESULT:      -8.4      3.166     10.804
  Name = 
  7 active torsions:
  status: ('A' for Active; 'I' for Inactive)
    1  A    between atoms: C_3  and  N_13
    2  A    between atoms: N_5  and  C_31
    3  A    between atoms: N_13  and  C_33
    4  A    between atoms: C_15  and  C_18
    5  A    between atoms: C_18  and  C_34
    6  A    between atoms: C_27  and  C_34
    7  A    between atoms: C_30  and  C_32
                            x       y       z     vdW  Elec       q    Type
                         _______ _______ _______ _____ _____    ______ ____

>  <TORSDO>
F 7

$$$$
=
 OpenBabel10222419373D

 39 44  0  0  1  0  0  0  0  0999 V2000
  190.9770  175.8000  136.5180 N   0  0  0  0  0  2  0  0  0  0  0  0
  190.2330  176.9340  139.1860 N   0  0  0  0  0  0  0  0  0  0  0  0
  192.2520  176.3460  136.9690 C   0  0  1  0  0  3  0  0  0  0  0  0
  188.6840  176.1690  135.8480 C   0  0  0  0  0  3  0  0  0  0  0  0
  189.3090  176.8480  138.0860 C   0  0  0  0  0  0  0  0  0  0  0  0
  191.5270  177.4400  138.9860 N   0  0  0  0  0  2  0  0  0  0  0  0
  187.3760  176.5760  136.0940 C   0  0  0  0  0  3  0  0  0  0  0  0
  188.0140  177.2240  138.2930 N   0  0  0  0  0  0  0  0  0  0  0  0
  187.0510  177.1150  137.3390 C   0  0  0  0  0  0  0  0  0  0  0  0
  192.3450  176.3570  138.4790 C   0  0  0  0  0  2  0  0  0  0  0  0
  189.6730  176.3100  136.8240 C   0  0  0  0  0  0  0  0  0  0  0  0
  190.8710  176.4780  141.5000 C   0  0  0  0  0  2  0  0  0  0  0  0
  188.9020  177.9690  141.0150 C   0  0  0  0  0  2  0  0  0  0  0  0
  189.6870  176.9600  143.6610 C   0  0  0  0  0  2  0  0  0  0  0  0
  187.9070  177.5700  142.0600 C   0  0  0  0  0  3  0  0  0  0  0  0
  189.7130  176.7590  140.5450 C   0  0  1  0  0  3  0  0  0  0  0  0
  188.2430  177.0950  143.2620 C   0  0  0  0  0  0  0  0  0  0  0  0
  190.3900  175.8980  142.8240 C   0  0  0  0  0  2  0  0  0  0  0  0
  187.1810  176.7500  144.1640 N   0  0  0  0  0  2  0  0  0  0  0  0
  187.0570  177.7600  146.4300 C   0  0  0  0  0  3  0  0  0  0  0  0
  186.5380  177.5810  145.1410 C   0  0  0  0  0  0  0  0  0  0  0  0
  186.3740  178.5670  147.3430 C   0  0  0  0  0  3  0  0  0  0  0  0
  184.6830  179.0080  145.7400 C   0  0  0  0  0  3  0  0  0  0  0  0
  185.3380  178.2090  144.8000 C   0  0  0  0  0  3  0  0  0  0  0  0
  185.2100  179.1700  146.9830 N   0  0  0  0  0  0  0  0  0  0  0  0
  183.9270  178.6840  138.6580 C   0  0  0  0  0  3  0  0  0  0  0  0
  183.1890  177.9320  137.7460 C   0  0  0  0  0  3  0  0  0  0  0  0
  184.2820  177.0030  136.8690 S   0  0  0  0  0  0  0  0  0  0  0  0
  185.3120  178.4720  138.5990 C   0  0  0  0  0  3  0  0  0  0  0  0
  185.6750  177.5450  137.6340 C   0  0  0  0  0  0  0  0  0  0  0  0
  193.4070  175.5590  136.3580 C   0  0  0  0  0  2  0  0  0  0  0  0
  193.3160  174.0630  136.6730 C   0  0  0  0  0  2  0  0  0  0  0  0
  197.2950  174.4380  137.9690 C   0  0  0  0  0  2  0  0  0  0  0  0
  194.6400  171.9480  136.6100 C   0  0  0  0  0  1  0  0  0  0  0  0
  195.0060  173.5680  138.4430 C   0  0  0  0  0  3  0  0  0  0  0  0
  195.7160  174.1190  136.0810 C   0  0  0  0  0  2  0  0  0  0  0  0
  194.6750  173.4270  136.9700 C   0  0  2  0  0  0  0  0  0  0  0  0
  197.1340  173.8450  136.5760 C   0  0  0  0  0  2  0  0  0  0  0  0
  196.2000  173.9820  138.8950 C   0  0  0  0  0  3  0  0  0  0  0  0
  1 11  1  0  0  0  0
  1  3  1  0  0  0  0
  3 31  1  6  0  0  0
  3 10  1  0  0  0  0
  4  7  2  0  0  0  0
  4 11  1  0  0  0  0
  5  8  1  0  0  0  0
  5  2  1  0  0  0  0
  6  2  1  0  0  0  0
  7  9  1  0  0  0  0
  9 30  1  0  0  0  0
  9  8  2  0  0  0  0
 10  6  1  0  0  0  0
 11  5  2  0  0  0  0
 12 18  1  0  0  0  0
 13 15  1  0  0  0  0
 15 17  2  0  0  0  0
 16  2  1  6  0  0  0
 16 13  1  0  0  0  0
 16 12  1  0  0  0  0
 17 14  1  0  0  0  0
 17 19  1  0  0  0  0
 18 14  1  0  0  0  0
 19 21  1  0  0  0  0
 20 22  1  0  0  0  0
 21 20  2  0  0  0  0
 23 25  1  0  0  0  0
 24 21  1  0  0  0  0
 24 23  2  0  0  0  0
 25 22  2  0  0  0  0
 27 26  2  0  0  0  0
 28 30  1  0  0  0  0
 28 27  1  0  0  0  0
 29 26  1  0  0  0  0
 30 29  2  0  0  0  0
 31 32  1  0  0  0  0
 32 37  1  0  0  0  0
 33 39  1  0  0  0  0
 35 39  2  0  0  0  0
 36 38  1  0  0  0  0
 36 37  1  0  0  0  0
 37 34  1  6  0  0  0
 37 35  1  0  0  0  0
 38 33  1  0  0  0  0
M  END
>  <MODEL>
8

>  <REMARK>
 VINA RESULT:      -8.3      1.416      1.837
  Name = 
  7 active torsions:
  status: ('A' for Active; 'I' for Inactive)
    1  A    between atoms: C_3  and  N_13
    2  A    between atoms: N_5  and  C_31
    3  A    between atoms: N_13  and  C_33
    4  A    between atoms: C_15  and  C_18
    5  A    between atoms: C_18  and  C_34
    6  A    between atoms: C_27  and  C_34
    7  A    between atoms: C_30  and  C_32
                            x       y       z     vdW  Elec       q    Type
                         _______ _______ _______ _____ _____    ______ ____

>  <TORSDO>
F 7

$$$$
=
 OpenBabel10222419373D

 39 44  0  0  1  0  0  0  0  0999 V2000
  182.8200  178.7450  141.3200 N   0  0  0  0  0  2  0  0  0  0  0  0
  185.5760  178.6960  140.1550 N   0  0  0  0  0  0  0  0  0  0  0  0
  182.6550  179.5900  140.1430 C   0  0  1  0  0  3  0  0  0  0  0  0
  183.8470  178.3690  143.4760 C   0  0  0  0  0  3  0  0  0  0  0  0
  185.3200  178.5740  141.5660 C   0  0  0  0  0  0  0  0  0  0  0  0
  184.9420  179.6980  139.4040 N   0  0  0  0  0  2  0  0  0  0  0  0
  184.9500  178.1500  144.2970 C   0  0  0  0  0  3  0  0  0  0  0  0
  186.3740  178.3440  142.4010 N   0  0  0  0  0  0  0  0  0  0  0  0
  186.2270  178.1440  143.7380 C   0  0  0  0  0  0  0  0  0  0  0  0
  183.6250  179.2090  139.0480 C   0  0  0  0  0  2  0  0  0  0  0  0
  184.0090  178.6000  142.1080 C   0  0  0  0  0  0  0  0  0  0  0  0
  186.6040  177.9580  138.0640 C   0  0  0  0  0  2  0  0  0  0  0  0
  188.0550  178.5220  140.0410 C   0  0  0  0  0  2  0  0  0  0  0  0
  188.9630  177.2820  137.5370 C   0  0  0  0  0  2  0  0  0  0  0  0
  189.1180  177.4690  139.9950 C   0  0  0  0  0  3  0  0  0  0  0  0
  186.7070  177.9560  139.5870 C   0  0  1  0  0  3  0  0  0  0  0  0
  189.5330  176.8820  138.8690 C   0  0  0  0  0  0  0  0  0  0  0  0
  187.4930  176.8960  137.4310 C   0  0  0  0  0  2  0  0  0  0  0  0
  190.5600  175.8840  138.9760 N   0  0  0  0  0  2  0  0  0  0  0  0
  191.5030  174.3510  137.2640 C   0  0  0  0  0  3  0  0  0  0  0  0
  191.5640  175.5340  138.0130 C   0  0  0  0  0  0  0  0  0  0  0  0
  192.5220  174.0560  136.3550 C   0  0  0  0  0  3  0  0  0  0  0  0
  193.6530  176.0630  136.9210 C   0  0  0  0  0  3  0  0  0  0  0  0
  192.6530  176.3910  137.8400 C   0  0  0  0  0  3  0  0  0  0  0  0
  193.5690  174.9110  136.2030 N   0  0  0  0  0  0  0  0  0  0  0  0
  188.6930  177.6060  146.4930 C   0  0  0  0  0  3  0  0  0  0  0  0
  189.6990  177.4750  145.5390 C   0  0  0  0  0  3  0  0  0  0  0  0
  188.9800  177.6600  144.0310 S   0  0  0  0  0  0  0  0  0  0  0  0
  187.4180  177.8460  145.9630 C   0  0  0  0  0  3  0  0  0  0  0  0
  187.4120  177.9050  144.5770 C   0  0  0  0  0  0  0  0  0  0  0  0
  181.2150  179.5210  139.6440 C   0  0  0  0  0  2  0  0  0  0  0  0
  181.1080  178.8140  138.2900 C   0  0  0  0  0  2  0  0  0  0  0  0
  180.1810  175.1820  140.1870 C   0  0  0  0  0  2  0  0  0  0  0  0
  179.3680  177.4460  137.1360 C   0  0  0  0  0  1  0  0  0  0  0  0
  179.4480  177.4950  139.6070 C   0  0  0  0  0  3  0  0  0  0  0  0
  181.2700  176.3470  138.2850 C   0  0  0  0  0  2  0  0  0  0  0  0
  180.2880  177.5240  138.3460 C   0  0  2  0  0  0  0  0  0  0  0  0
  180.6030  175.0480  138.7300 C   0  0  0  0  0  2  0  0  0  0  0  0
  179.3650  176.4260  140.4150 C   0  0  0  0  0  3  0  0  0  0  0  0
  1 11  1  0  0  0  0
  2  5  1  0  0  0  0
  3 31  1  6  0  0  0
  3  1  1  0  0  0  0
  4  7  1  0  0  0  0
  5 11  1  0  0  0  0
  5  8  2  0  0  0  0
  6  2  1  0  0  0  0
  8  9  1  0  0  0  0
  9  7  2  0  0  0  0
  9 30  1  0  0  0  0
 10  6  1  0  0  0  0
 10  3  1  0  0  0  0
 11  4  2  0  0  0  0
 14 17  1  0  0  0  0
 15 13  1  0  0  0  0
 16 12  1  6  0  0  0
 16 13  1  0  0  0  0
 16  2  1  0  0  0  0
 17 19  1  0  0  0  0
 17 15  2  0  0  0  0
 18 14  1  0  0  0  0
 18 12  1  0  0  0  0
 20 21  1  0  0  0  0
 21 19  1  0  0  0  0
 22 20  2  0  0  0  0
 23 24  1  0  0  0  0
 24 21  2  0  0  0  0
 25 22  1  0  0  0  0
 25 23  2  0  0  0  0
 27 26  2  0  0  0  0
 28 30  1  0  0  0  0
 28 27  1  0  0  0  0
 29 26  1  0  0  0  0
 30 29  2  0  0  0  0
 32 37  1  0  0  0  0
 32 31  1  0  0  0  0
 33 39  1  0  0  0  0
 35 39  2  0  0  0  0
 36 37  1  0  0  0  0
 36 38  1  0  0  0  0
 37 34  1  6  0  0  0
 37 35  1  0  0  0  0
 38 33  1  0  0  0  0
M  END
>  <MODEL>
9

>  <REMARK>
 VINA RESULT:      -8.2      3.105     10.476
  Name = 
  7 active torsions:
  status: ('A' for Active; 'I' for Inactive)
    1  A    between atoms: C_3  and  N_13
    2  A    between atoms: N_5  and  C_31
    3  A    between atoms: N_13  and  C_33
    4  A    between atoms: C_15  and  C_18
    5  A    between atoms: C_18  and  C_34
    6  A    between atoms: C_27  and  C_34
    7  A    between atoms: C_30  and  C_32
                            x       y       z     vdW  Elec       q    Type
                         _______ _______ _______ _____ _____    ______ ____

>  <TORSDO>
F 7

$$$$
