=
 OpenBabel10222416183D

 46 50  0  0  1  0  0  0  0  0999 V2000
  190.7220  176.0900  138.1380 C   0  0  0  0  0  1  0  0  0  0  0  0
  188.5260  175.0450  137.5980 C   0  0  0  0  0  2  0  0  0  0  0  0
  186.6030  176.5420  136.9490 C   0  0  0  0  0  0  0  0  0  0  0  0
  184.4850  175.6030  136.2160 C   0  0  0  0  0  0  0  0  0  0  0  0
  187.1310  175.2480  137.0830 C   0  0  0  0  0  0  0  0  0  0  0  0
  183.0680  175.8680  135.8420 C   0  0  0  0  0  1  0  0  0  0  0  0
  185.0150  174.2920  136.3360 C   0  0  0  0  0  0  0  0  0  0  0  0
  188.6850  177.5570  137.8350 C   0  0  2  0  0  3  0  0  0  0  0  0
  187.3930  177.6630  137.2250 O   0  0  0  0  0  0  0  0  0  0  0  0
  189.4220  176.2750  137.3670 C   0  0  1  0  0  0  0  0  0  0  0  0
  185.2860  176.7100  136.5210 C   0  0  0  0  0  3  0  0  0  0  0  0
  186.3370  174.1400  136.7880 C   0  0  0  0  0  3  0  0  0  0  0  0
  187.6710  178.0210  142.2800 N   0  0  0  0  0  0  0  0  0  0  0  0
  188.6480  176.9400  142.2570 C   0  0  0  0  0  2  0  0  0  0  0  0
  189.7960  177.5500  140.1480 C   0  0  0  0  0  3  0  0  0  0  0  0
  185.4290  179.4270  139.8180 N   0  0  0  0  0  2  0  0  0  0  0  0
  185.9180  179.3960  141.2110 C   0  0  2  0  0  3  0  0  0  0  0  0
  188.5680  177.7160  139.3340 C   0  0  1  0  0  3  0  0  0  0  0  0
  187.4090  178.1650  139.8490 C   0  0  0  0  0  0  0  0  0  0  0  0
  191.1910  177.1850  142.0980 C   0  0  0  0  0  1  0  0  0  0  0  0
  187.1270  178.5240  141.2130 C   0  0  0  0  0  0  0  0  0  0  0  0
  186.3530  178.6800  139.0630 N   0  0  0  0  0  0  0  0  0  0  0  0
  189.8550  177.2920  141.4560 C   0  0  0  0  0  0  0  0  0  0  0  0
  182.8350  178.2990  144.1270 O   0  0  0  0  0  0  0  0  0  0  0  0
  185.0120  178.9320  143.5350 N   0  0  0  0  0  2  0  0  0  0  0  0
  183.8220  178.3420  141.6040 O   0  0  0  0  0  0  0  0  0  0  0  0
  184.0010  178.5990  144.4930 C   0  0  0  0  0  0  0  0  0  0  0  0
  184.8590  178.8470  142.1120 C   0  0  0  0  0  0  0  0  0  0  0  0
  184.3220  178.6610  145.9480 C   0  0  0  0  0  2  0  0  0  0  0  0
  186.4900  177.4550  146.1440 C   0  0  0  0  0  1  0  0  0  0  0  0
  186.0610  179.4680  147.5150 C   0  0  0  0  0  1  0  0  0  0  0  0
  185.8160  178.8150  146.1680 C   0  0  0  0  0  3  0  0  0  0  0  0
  183.1920  172.6560  136.9190 C   0  0  0  0  0  2  0  0  0  0  0  0
  183.2130  170.5460  135.7720 O   0  0  0  0  0  0  0  0  0  0  0  0
  184.4480  170.8280  135.1630 C   0  0  0  0  0  2  0  0  0  0  0  0
  184.2520  173.1110  136.0140 N   0  0  0  0  0  0  0  0  0  0  0  0
  184.5260  172.3150  134.8150 C   0  0  0  0  0  2  0  0  0  0  0  0
  183.2530  171.1350  137.0490 C   0  0  0  0  0  2  0  0  0  0  0  0
  189.7570  176.4300  135.8770 C   0  0  0  0  0  2  0  0  0  0  0  0
  190.7240  175.3660  135.3750 C   0  0  0  0  0  2  0  0  0  0  0  0
  191.8690  175.9980  134.7480 N   0  0  0  0  0  2  0  0  0  0  0  0
  193.0450  175.3360  135.2840 C   0  0  0  0  0  2  0  0  0  0  0  0
  194.5510  175.7040  137.0810 O   0  0  0  0  0  1  0  0  0  0  0  0
  193.9190  176.3390  136.0120 C   0  0  1  0  0  3  0  0  0  0  0  0
  195.3820  178.1580  135.5290 O   0  0  0  0  0  1  0  0  0  0  0  0
  194.9640  176.9100  135.0680 C   0  0  0  0  0  2  0  0  0  0  0  0
  3  5  1  0  0  0  0
  3  9  1  0  0  0  0
  4  7  2  0  0  0  0
  4 11  1  0  0  0  0
  5  2  1  0  0  0  0
  6  4  1  0  0  0  0
  7 12  1  0  0  0  0
  8  9  1  6  0  0  0
  8 18  1  0  0  0  0
 10  2  1  0  0  0  0
 10  8  1  0  0  0  0
 10  1  1  1  0  0  0
 11  3  2  0  0  0  0
 12  5  2  0  0  0  0
 14 13  1  0  0  0  0
 15 23  2  0  0  0  0
 16 17  1  0  0  0  0
 17 21  1  0  0  0  0
 17 28  1  1  0  0  0
 18 19  1  0  0  0  0
 18 15  1  6  0  0  0
 19 21  1  0  0  0  0
 21 13  2  0  0  0  0
 22 16  1  0  0  0  0
 22 19  2  0  0  0  0
 23 20  1  0  0  0  0
 23 14  1  0  0  0  0
 24 27  2  0  0  0  0
 25 27  1  0  0  0  0
 26 28  2  0  0  0  0
 27 29  1  0  0  0  0
 28 25  1  0  0  0  0
 29 32  1  0  0  0  0
 30 32  1  0  0  0  0
 32 31  1  0  0  0  0
 33 38  1  0  0  0  0
 34 38  1  0  0  0  0
 35 34  1  0  0  0  0
 36  7  1  0  0  0  0
 36 33  1  0  0  0  0
 37 35  1  0  0  0  0
 37 36  1  0  0  0  0
 39 10  1  0  0  0  0
 40 39  1  0  0  0  0
 41 42  1  0  0  0  0
 41 40  1  0  0  0  0
 42 44  1  0  0  0  0
 44 43  1  1  0  0  0
 46 45  1  0  0  0  0
 46 44  1  0  0  0  0
M  END
>  <MODEL>
1

>  <REMARK>
 VINA RESULT:      -8.0      0.000      0.000
  Name = 
  11 active torsions:
  status: ('A' for Active; 'I' for Inactive)
    1  A    between atoms: C_4  and  C_34
    2  A    between atoms: C_4  and  C_42
    3  A    between atoms: N_6  and  C_42
    4  A    between atoms: N_6  and  C_44
    5  A    between atoms: N_18  and  C_22
    6  A    between atoms: C_23  and  C_40
    7  A    between atoms: C_24  and  C_46
    8  A    between atoms: C_25  and  C_33
    9  A    between atoms: C_25  and  C_44
   10  A    between atoms: C_27  and  C_29
   11  A    between atoms: C_37  and  C_46
                            x       y       z     vdW  Elec       q    Type
                         _______ _______ _______ _____ _____    ______ ____

>  <TORSDO>
F 11

$$$$
=
 OpenBabel10222416183D

 46 50  0  0  1  0  0  0  0  0999 V2000
  182.8420  178.3260  142.2560 C   0  0  0  0  0  1  0  0  0  0  0  0
  185.1530  177.5370  142.7530 C   0  0  0  0  0  2  0  0  0  0  0  0
  187.0840  178.6130  141.5390 C   0  0  0  0  0  0  0  0  0  0  0  0
  189.3790  178.0480  142.1000 C   0  0  0  0  0  0  0  0  0  0  0  0
  186.6240  177.7470  142.5440 C   0  0  0  0  0  0  0  0  0  0  0  0
  190.8190  178.1970  141.7520 C   0  0  0  0  0  1  0  0  0  0  0  0
  188.9240  177.1800  143.1270 C   0  0  0  0  0  0  0  0  0  0  0  0
  184.7660  179.1150  140.8160 C   0  0  2  0  0  3  0  0  0  0  0  0
  186.1780  179.3470  140.7650 O   0  0  0  0  0  0  0  0  0  0  0  0
  184.3130  178.7230  142.2470 C   0  0  1  0  0  0  0  0  0  0  0  0
  188.4540  178.7540  141.3230 C   0  0  0  0  0  3  0  0  0  0  0  0
  187.5390  177.0350  143.3190 C   0  0  0  0  0  3  0  0  0  0  0  0
  184.1760  176.1640  137.3600 N   0  0  0  0  0  0  0  0  0  0  0  0
  183.4760  175.5380  138.4750 C   0  0  0  0  0  2  0  0  0  0  0  0
  182.9840  177.5890  139.7740 C   0  0  0  0  0  3  0  0  0  0  0  0
  186.7970  178.6410  137.1170 N   0  0  0  0  0  2  0  0  0  0  0  0
  185.8960  177.6830  136.4450 C   0  0  2  0  0  3  0  0  0  0  0  0
  184.3570  178.1470  139.7290 C   0  0  1  0  0  3  0  0  0  0  0  0
  185.1820  177.9630  138.6820 C   0  0  0  0  0  0  0  0  0  0  0  0
  181.1240  176.1050  139.3100 C   0  0  0  0  0  1  0  0  0  0  0  0
  184.9340  177.2110  137.4820 C   0  0  0  0  0  0  0  0  0  0  0  0
  186.3230  178.7620  138.4380 N   0  0  0  0  0  0  0  0  0  0  0  0
  182.5520  176.4870  139.1600 C   0  0  0  0  0  0  0  0  0  0  0  0
  188.1210  174.0780  135.3170 O   0  0  0  0  0  0  0  0  0  0  0  0
  187.7590  175.9730  136.6480 N   0  0  0  0  0  2  0  0  0  0  0  0
  186.3780  176.0770  134.7580 O   0  0  0  0  0  0  0  0  0  0  0  0
  188.4730  174.7820  136.3000 C   0  0  0  0  0  0  0  0  0  0  0  0
  186.6870  176.5440  135.8870 C   0  0  0  0  0  0  0  0  0  0  0  0
  189.6200  174.3420  137.1450 C   0  0  0  0  0  2  0  0  0  0  0  0
  192.0520  174.8640  137.0800 C   0  0  0  0  0  1  0  0  0  0  0  0
  190.5630  176.0770  138.6380 C   0  0  0  0  0  1  0  0  0  0  0  0
  190.6600  175.4420  137.2650 C   0  0  0  0  0  3  0  0  0  0  0  0
  190.0600  176.8960  145.3550 C   0  0  0  0  0  2  0  0  0  0  0  0
  191.9860  175.4630  145.4230 O   0  0  0  0  0  0  0  0  0  0  0  0
  191.9890  175.3120  144.0250 C   0  0  0  0  0  2  0  0  0  0  0  0
  189.8240  176.4440  143.9810 N   0  0  0  0  0  0  0  0  0  0  0  0
  190.5510  175.2650  143.5060 C   0  0  0  0  0  2  0  0  0  0  0  0
  191.5480  176.7740  145.6820 C   0  0  0  0  0  2  0  0  0  0  0  0
  184.4930  179.9450  143.1590 C   0  0  0  0  0  2  0  0  0  0  0  0
  183.4790  179.9890  144.2940 C   0  0  0  0  0  2  0  0  0  0  0  0
  183.9050  179.1120  145.3690 N   0  0  0  0  0  2  0  0  0  0  0  0
  185.3250  179.3550  145.5550 C   0  0  0  0  0  2  0  0  0  0  0  0
  184.7200  178.1810  147.5270 O   0  0  0  0  0  1  0  0  0  0  0  0
  185.7480  178.9220  146.9450 C   0  0  1  0  0  3  0  0  0  0  0  0
  187.6310  178.0510  148.1200 O   0  0  0  0  0  1  0  0  0  0  0  0
  187.0090  178.0760  146.8720 C   0  0  0  0  0  2  0  0  0  0  0  0
  3  5  1  0  0  0  0
  4  7  2  0  0  0  0
  5  2  1  0  0  0  0
  5 12  2  0  0  0  0
  6  4  1  0  0  0  0
  7 12  1  0  0  0  0
  7 36  1  0  0  0  0
  8  9  1  1  0  0  0
  8 10  1  0  0  0  0
  9  3  1  0  0  0  0
 10  1  1  6  0  0  0
 10  2  1  0  0  0  0
 10 39  1  0  0  0  0
 11  3  2  0  0  0  0
 11  4  1  0  0  0  0
 13 21  2  0  0  0  0
 13 14  1  0  0  0  0
 14 23  1  0  0  0  0
 16 22  1  0  0  0  0
 17 28  1  1  0  0  0
 17 16  1  0  0  0  0
 17 21  1  0  0  0  0
 18 15  1  6  0  0  0
 18  8  1  0  0  0  0
 19 18  1  0  0  0  0
 21 19  1  0  0  0  0
 22 19  2  0  0  0  0
 23 20  1  0  0  0  0
 23 15  2  0  0  0  0
 24 27  2  0  0  0  0
 26 28  2  0  0  0  0
 27 25  1  0  0  0  0
 27 29  1  0  0  0  0
 28 25  1  0  0  0  0
 29 32  1  0  0  0  0
 30 32  1  0  0  0  0
 32 31  1  0  0  0  0
 33 38  1  0  0  0  0
 34 38  1  0  0  0  0
 35 34  1  0  0  0  0
 36 33  1  0  0  0  0
 37 36  1  0  0  0  0
 37 35  1  0  0  0  0
 39 40  1  0  0  0  0
 40 41  1  0  0  0  0
 41 42  1  0  0  0  0
 42 44  1  0  0  0  0
 44 43  1  6  0  0  0
 46 44  1  0  0  0  0
 46 45  1  0  0  0  0
M  END
>  <MODEL>
2

>  <REMARK>
 VINA RESULT:      -7.9      3.036      9.539
  Name = 
  11 active torsions:
  status: ('A' for Active; 'I' for Inactive)
    1  A    between atoms: C_4  and  C_34
    2  A    between atoms: C_4  and  C_42
    3  A    between atoms: N_6  and  C_42
    4  A    between atoms: N_6  and  C_44
    5  A    between atoms: N_18  and  C_22
    6  A    between atoms: C_23  and  C_40
    7  A    between atoms: C_24  and  C_46
    8  A    between atoms: C_25  and  C_33
    9  A    between atoms: C_25  and  C_44
   10  A    between atoms: C_27  and  C_29
   11  A    between atoms: C_37  and  C_46
                            x       y       z     vdW  Elec       q    Type
                         _______ _______ _______ _____ _____    ______ ____

>  <TORSDO>
F 11

$$$$
=
 OpenBabel10222416183D

 46 50  0  0  1  0  0  0  0  0999 V2000
  187.9170  179.2940  136.8440 C   0  0  0  0  0  1  0  0  0  0  0  0
  189.9620  177.9090  136.5150 C   0  0  0  0  0  2  0  0  0  0  0  0
  189.8290  175.4310  136.9660 C   0  0  0  0  0  0  0  0  0  0  0  0
  191.7120  173.9740  136.4850 C   0  0  0  0  0  0  0  0  0  0  0  0
  190.5510  176.5290  136.4750 C   0  0  0  0  0  0  0  0  0  0  0  0
  192.2890  172.6060  136.6000 C   0  0  0  0  0  1  0  0  0  0  0  0
  192.4460  175.0770  135.9750 C   0  0  0  0  0  0  0  0  0  0  0  0
  187.9310  176.8870  137.6210 C   0  0  2  0  0  3  0  0  0  0  0  0
  188.5200  175.5950  137.4350 O   0  0  0  0  0  0  0  0  0  0  0  0
  188.4230  177.8890  136.5440 C   0  0  1  0  0  0  0  0  0  0  0  0
  190.4130  174.1650  136.9710 C   0  0  0  0  0  3  0  0  0  0  0  0
  191.8490  176.3490  135.9960 C   0  0  0  0  0  3  0  0  0  0  0  0
  187.8290  178.2330  142.0000 N   0  0  0  0  0  0  0  0  0  0  0  0
  188.8180  177.1620  141.9880 C   0  0  0  0  0  2  0  0  0  0  0  0
  189.4900  177.3340  139.6100 C   0  0  0  0  0  3  0  0  0  0  0  0
  185.0850  179.1370  139.8290 N   0  0  0  0  0  0  0  0  0  0  0  0
  185.8490  179.3800  141.0690 C   0  0  2  0  0  3  0  0  0  0  0  0
  188.1170  177.3430  139.0510 C   0  0  0  0  0  0  0  0  0  0  0  0
  187.0730  177.8930  139.6960 C   0  0  0  0  0  0  0  0  0  0  0  0
  191.2650  177.3540  141.2620 C   0  0  0  0  0  1  0  0  0  0  0  0
  187.0620  178.5170  140.9910 C   0  0  0  0  0  0  0  0  0  0  0  0
  185.8610  178.2480  139.0600 N   0  0  0  0  0  0  0  0  0  0  0  0
  189.8240  177.3390  140.9020 C   0  0  0  0  0  0  0  0  0  0  0  0
  183.5590  178.8670  144.7720 O   0  0  0  0  0  0  0  0  0  0  0  0
  185.5550  179.1680  143.5800 N   0  0  0  0  0  2  0  0  0  0  0  0
  183.8290  178.6420  142.0850 O   0  0  0  0  0  0  0  0  0  0  0  0
  184.8080  179.0260  144.7930 C   0  0  0  0  0  0  0  0  0  0  0  0
  185.0150  179.0290  142.2600 C   0  0  0  0  0  0  0  0  0  0  0  0
  185.5140  179.1220  146.1030 C   0  0  0  0  0  2  0  0  0  0  0  0
  186.6270  177.0210  145.3690 C   0  0  0  0  0  1  0  0  0  0  0  0
  187.2920  178.1020  147.4920 C   0  0  0  0  0  1  0  0  0  0  0  0
  186.8230  178.3530  146.0720 C   0  0  0  0  0  3  0  0  0  0  0  0
  194.1130  173.7910  134.5940 C   0  0  0  0  0  2  0  0  0  0  0  0
  196.4330  174.3160  134.9180 O   0  0  0  0  0  0  0  0  0  0  0  0
  196.1450  175.1700  135.9980 C   0  0  0  0  0  2  0  0  0  0  0  0
  193.7770  174.9430  135.4360 N   0  0  0  0  0  0  0  0  0  0  0  0
  194.8340  175.9120  135.7350 C   0  0  0  0  0  2  0  0  0  0  0  0
  195.4970  173.2690  134.9750 C   0  0  0  0  0  2  0  0  0  0  0  0
  187.8610  177.4480  135.1850 C   0  0  0  0  0  2  0  0  0  0  0  0
  186.3810  177.7700  135.0270 C   0  0  0  0  0  2  0  0  0  0  0  0
  185.6140  176.5400  134.9640 N   0  0  0  0  0  2  0  0  0  0  0  0
  184.4140  176.7670  135.7490 C   0  0  0  0  0  2  0  0  0  0  0  0
  183.3640  176.2490  137.8140 O   0  0  0  0  0  1  0  0  0  0  0  0
  184.4340  175.8970  136.9910 C   0  0  1  0  0  3  0  0  0  0  0  0
  184.4480  173.6360  137.7490 O   0  0  0  0  0  1  0  0  0  0  0  0
  184.3230  174.4300  136.6090 C   0  0  0  0  0  2  0  0  0  0  0  0
  2 10  1  0  0  0  0
  3 11  1  0  0  0  0
  3  9  1  0  0  0  0
  4  6  1  0  0  0  0
  4 11  2  0  0  0  0
  5  2  1  0  0  0  0
  5  3  2  0  0  0  0
  7 12  2  0  0  0  0
  7  4  1  0  0  0  0
  8 18  1  1  0  0  0
  9  8  1  0  0  0  0
 10  1  1  1  0  0  0
 10  8  1  0  0  0  0
 12  5  1  0  0  0  0
 14 13  1  0  0  0  0
 15 23  2  0  0  0  0
 16 17  1  0  0  0  0
 17 28  1  1  0  0  0
 18 15  1  0  0  0  0
 18 19  2  0  0  0  0
 19 21  1  0  0  0  0
 21 17  1  0  0  0  0
 21 13  2  0  0  0  0
 22 19  1  0  0  0  0
 22 16  2  0  0  0  0
 23 20  1  0  0  0  0
 23 14  1  0  0  0  0
 24 27  2  0  0  0  0
 25 27  1  0  0  0  0
 26 28  2  0  0  0  0
 27 29  1  0  0  0  0
 28 25  1  0  0  0  0
 30 32  1  0  0  0  0
 32 29  1  0  0  0  0
 32 31  1  0  0  0  0
 33 38  1  0  0  0  0
 33 36  1  0  0  0  0
 34 38  1  0  0  0  0
 34 35  1  0  0  0  0
 36 37  1  0  0  0  0
 36  7  1  0  0  0  0
 37 35  1  0  0  0  0
 39 10  1  0  0  0  0
 40 39  1  0  0  0  0
 41 40  1  0  0  0  0
 41 42  1  0  0  0  0
 42 44  1  0  0  0  0
 44 43  1  1  0  0  0
 46 44  1  0  0  0  0
 46 45  1  0  0  0  0
M  END
>  <MODEL>
3

>  <REMARK>
 VINA RESULT:      -7.3      1.787      6.310
  Name = 
  11 active torsions:
  status: ('A' for Active; 'I' for Inactive)
    1  A    between atoms: C_4  and  C_34
    2  A    between atoms: C_4  and  C_42
    3  A    between atoms: N_6  and  C_42
    4  A    between atoms: N_6  and  C_44
    5  A    between atoms: N_18  and  C_22
    6  A    between atoms: C_23  and  C_40
    7  A    between atoms: C_24  and  C_46
    8  A    between atoms: C_25  and  C_33
    9  A    between atoms: C_25  and  C_44
   10  A    between atoms: C_27  and  C_29
   11  A    between atoms: C_37  and  C_46
                            x       y       z     vdW  Elec       q    Type
                         _______ _______ _______ _____ _____    ______ ____

>  <TORSDO>
F 11

$$$$
=
 OpenBabel10222416183D

 46 50  0  0  1  0  0  0  0  0999 V2000
  180.7500  178.0730  138.5380 C   0  0  0  0  0  1  0  0  0  0  0  0
  182.3860  177.8810  140.4080 C   0  0  0  0  0  2  0  0  0  0  0  0
  184.7900  178.5110  139.9790 C   0  0  0  0  0  0  0  0  0  0  0  0
  186.4110  178.5440  141.7880 C   0  0  0  0  0  0  0  0  0  0  0  0
  183.7830  178.1480  140.8870 C   0  0  0  0  0  0  0  0  0  0  0  0
  187.8420  178.6900  142.1760 C   0  0  0  0  0  1  0  0  0  0  0  0
  185.3970  178.1900  142.7150 C   0  0  0  0  0  0  0  0  0  0  0  0
  183.2200  178.3470  138.0670 C   0  0  2  0  0  3  0  0  0  0  0  0
  184.4910  178.6980  138.6250 O   0  0  0  0  0  0  0  0  0  0  0  0
  182.0730  178.5970  139.0820 C   0  0  1  0  0  0  0  0  0  0  0  0
  186.0940  178.7030  140.4340 C   0  0  0  0  0  3  0  0  0  0  0  0
  184.0920  177.9820  142.2370 C   0  0  0  0  0  3  0  0  0  0  0  0
  184.0380  174.2020  136.2930 N   0  0  0  0  0  0  0  0  0  0  0  0
  183.1930  173.9250  137.4480 C   0  0  0  0  0  2  0  0  0  0  0  0
  182.0470  176.1170  137.5750 C   0  0  0  0  0  3  0  0  0  0  0  0
  186.1770  176.9600  135.3540 N   0  0  0  0  0  2  0  0  0  0  0  0
  185.6530  175.6100  135.0620 C   0  0  2  0  0  3  0  0  0  0  0  0
  183.2720  176.9490  137.4920 C   0  0  1  0  0  3  0  0  0  0  0  0
  184.3550  176.5790  136.7860 C   0  0  0  0  0  0  0  0  0  0  0  0
  180.6450  174.1390  137.5590 C   0  0  0  0  0  1  0  0  0  0  0  0
  184.5530  175.3670  136.0390 C   0  0  0  0  0  0  0  0  0  0  0  0
  185.3680  177.4790  136.3830 N   0  0  0  0  0  0  0  0  0  0  0  0
  181.9780  174.7890  137.4730 C   0  0  0  0  0  0  0  0  0  0  0  0
  188.7720  172.7030  136.0820 O   0  0  0  0  0  0  0  0  0  0  0  0
  187.8500  174.8580  136.0840 N   0  0  0  0  0  2  0  0  0  0  0  0
  186.6510  173.5010  134.5960 O   0  0  0  0  0  0  0  0  0  0  0  0
  188.8580  173.9060  136.4410 C   0  0  0  0  0  0  0  0  0  0  0  0
  186.7410  174.5950  135.2150 C   0  0  0  0  0  0  0  0  0  0  0  0
  190.0010  174.3380  137.2960 C   0  0  0  0  0  2  0  0  0  0  0  0
  191.2540  176.3420  136.5170 C   0  0  0  0  0  1  0  0  0  0  0  0
  190.3030  176.2810  138.7990 C   0  0  0  0  0  1  0  0  0  0  0  0
  190.0900  175.8520  137.3610 C   0  0  0  0  0  3  0  0  0  0  0  0
  184.8480  178.7840  145.0990 C   0  0  0  0  0  2  0  0  0  0  0  0
  186.5030  178.2680  146.7610 O   0  0  0  0  0  0  0  0  0  0  0  0
  187.4390  177.8810  145.7860 C   0  0  0  0  0  2  0  0  0  0  0  0
  185.6510  178.0370  144.1270 N   0  0  0  0  0  0  0  0  0  0  0  0
  186.7240  177.1770  144.6320 C   0  0  0  0  0  2  0  0  0  0  0  0
  185.7570  179.3210  146.2040 C   0  0  0  0  0  2  0  0  0  0  0  0
  181.9460  180.1110  139.2990 C   0  0  0  0  0  2  0  0  0  0  0  0
  181.7450  180.8790  137.9990 C   0  0  0  0  0  2  0  0  0  0  0  0
  180.8150  181.9710  138.2120 N   0  0  0  0  0  2  0  0  0  0  0  0
  180.5010  182.5020  136.8970 C   0  0  0  0  0  2  0  0  0  0  0  0
  179.6410  184.1730  138.3460 O   0  0  0  0  0  1  0  0  0  0  0  0
  179.9920  183.9250  137.0190 C   0  0  1  0  0  3  0  0  0  0  0  0
  182.1700  184.8070  137.4310 O   0  0  0  0  0  1  0  0  0  0  0  0
  181.0660  184.9080  136.5840 C   0  0  0  0  0  2  0  0  0  0  0  0
  2  5  1  0  0  0  0
  3 11  2  0  0  0  0
  3  5  1  0  0  0  0
  4  6  1  0  0  0  0
  4  7  2  0  0  0  0
  5 12  2  0  0  0  0
  7 36  1  0  0  0  0
  8  9  1  1  0  0  0
  8 10  1  0  0  0  0
  9  3  1  0  0  0  0
 10  1  1  6  0  0  0
 10 39  1  0  0  0  0
 10  2  1  0  0  0  0
 11  4  1  0  0  0  0
 12  7  1  0  0  0  0
 13 14  1  0  0  0  0
 14 23  1  0  0  0  0
 16 22  1  0  0  0  0
 17 28  1  1  0  0  0
 17 16  1  0  0  0  0
 17 21  1  0  0  0  0
 18 15  1  6  0  0  0
 18  8  1  0  0  0  0
 19 18  1  0  0  0  0
 21 13  2  0  0  0  0
 21 19  1  0  0  0  0
 22 19  2  0  0  0  0
 23 20  1  0  0  0  0
 23 15  2  0  0  0  0
 24 27  2  0  0  0  0
 25 27  1  0  0  0  0
 26 28  2  0  0  0  0
 27 29  1  0  0  0  0
 28 25  1  0  0  0  0
 29 32  1  0  0  0  0
 30 32  1  0  0  0  0
 32 31  1  0  0  0  0
 33 38  1  0  0  0  0
 35 34  1  0  0  0  0
 36 37  1  0  0  0  0
 36 33  1  0  0  0  0
 37 35  1  0  0  0  0
 38 34  1  0  0  0  0
 40 41  1  0  0  0  0
 40 39  1  0  0  0  0
 42 44  1  0  0  0  0
 42 41  1  0  0  0  0
 44 43  1  1  0  0  0
 46 44  1  0  0  0  0
 46 45  1  0  0  0  0
M  END
>  <MODEL>
4

>  <REMARK>
 VINA RESULT:      -7.2      3.726      9.933
  Name = 
  11 active torsions:
  status: ('A' for Active; 'I' for Inactive)
    1  A    between atoms: C_4  and  C_34
    2  A    between atoms: C_4  and  C_42
    3  A    between atoms: N_6  and  C_42
    4  A    between atoms: N_6  and  C_44
    5  A    between atoms: N_18  and  C_22
    6  A    between atoms: C_23  and  C_40
    7  A    between atoms: C_24  and  C_46
    8  A    between atoms: C_25  and  C_33
    9  A    between atoms: C_25  and  C_44
   10  A    between atoms: C_27  and  C_29
   11  A    between atoms: C_37  and  C_46
                            x       y       z     vdW  Elec       q    Type
                         _______ _______ _______ _____ _____    ______ ____

>  <TORSDO>
F 11

$$$$
=
 OpenBabel10222416183D

 46 50  0  0  1  0  0  0  0  0999 V2000
  183.9760  172.5570  135.9050 C   0  0  0  0  0  1  0  0  0  0  0  0
  183.5890  174.2670  137.6750 C   0  0  0  0  0  2  0  0  0  0  0  0
  184.0900  176.6820  137.1520 C   0  0  0  0  0  0  0  0  0  0  0  0
  183.5590  178.4380  138.7450 C   0  0  0  0  0  0  0  0  0  0  0  0
  183.5500  175.7250  138.0260 C   0  0  0  0  0  0  0  0  0  0  0  0
  183.6740  179.8820  139.0910 C   0  0  0  0  0  1  0  0  0  0  0  0
  182.9990  177.4790  139.6290 C   0  0  0  0  0  0  0  0  0  0  0  0
  184.7950  174.9230  135.5530 C   0  0  2  0  0  3  0  0  0  0  0  0
  184.6080  176.2970  135.9100 O   0  0  0  0  0  0  0  0  0  0  0  0
  183.6810  174.0290  136.1570 C   0  0  1  0  0  0  0  0  0  0  0  0
  184.0930  178.0280  137.5180 C   0  0  0  0  0  3  0  0  0  0  0  0
  183.0210  176.1250  139.2530 C   0  0  0  0  0  3  0  0  0  0  0  0
  189.1230  174.1810  136.8630 N   0  0  0  0  0  0  0  0  0  0  0  0
  188.4360  172.9460  137.2170 C   0  0  0  0  0  2  0  0  0  0  0  0
  186.5890  173.0880  135.5720 C   0  0  0  0  0  3  0  0  0  0  0  0
  188.0330  177.5750  136.2690 N   0  0  0  0  0  0  0  0  0  0  0  0
  189.1410  176.6070  136.3970 C   0  0  2  0  0  3  0  0  0  0  0  0
  186.2070  174.4890  135.8740 C   0  0  0  0  0  0  0  0  0  0  0  0
  187.1000  175.4200  136.2550 C   0  0  0  0  0  0  0  0  0  0  0  0
  187.8510  171.0190  135.6370 C   0  0  0  0  0  1  0  0  0  0  0  0
  188.5130  175.2570  136.4660 C   0  0  0  0  0  0  0  0  0  0  0  0
  186.8530  176.8110  136.1910 N   0  0  0  0  0  0  0  0  0  0  0  0
  187.6190  172.4150  136.0880 C   0  0  0  0  0  0  0  0  0  0  0  0
  191.0970  177.0880  140.2910 O   0  0  0  0  0  0  0  0  0  0  0  0
  189.2590  177.2560  138.8470 N   0  0  0  0  0  2  0  0  0  0  0  0
  191.1860  176.7880  137.5980 O   0  0  0  0  0  0  0  0  0  0  0  0
  189.8870  177.3910  140.1270 C   0  0  0  0  0  0  0  0  0  0  0  0
  189.9310  176.8960  137.6330 C   0  0  0  0  0  0  0  0  0  0  0  0
  189.0790  177.8470  141.2940 C   0  0  0  0  0  2  0  0  0  0  0  0
  188.4420  176.3870  143.2060 C   0  0  0  0  0  1  0  0  0  0  0  0
  190.0070  178.2710  143.5500 C   0  0  0  0  0  1  0  0  0  0  0  0
  189.5630  177.1950  142.5770 C   0  0  0  0  0  3  0  0  0  0  0  0
  180.9830  178.1700  140.9680 C   0  0  0  0  0  2  0  0  0  0  0  0
  181.3880  179.1310  143.1320 O   0  0  0  0  0  0  0  0  0  0  0  0
  182.7770  179.1560  142.9200 C   0  0  0  0  0  2  0  0  0  0  0  0
  182.4090  177.8380  140.8950 N   0  0  0  0  0  0  0  0  0  0  0  0
  183.2020  177.9220  142.1230 C   0  0  0  0  0  2  0  0  0  0  0  0
  180.7890  179.3780  141.8840 C   0  0  0  0  0  2  0  0  0  0  0  0
  182.3540  174.3860  135.4710 C   0  0  0  0  0  2  0  0  0  0  0  0
  181.3430  173.2470  135.5150 C   0  0  0  0  0  2  0  0  0  0  0  0
  180.0170  173.7760  135.7750 N   0  0  0  0  0  2  0  0  0  0  0  0
  180.2090  175.1180  136.2960 C   0  0  0  0  0  2  0  0  0  0  0  0
  180.0340  174.4480  138.5660 O   0  0  0  0  0  1  0  0  0  0  0  0
  179.4600  175.2790  137.6040 C   0  0  1  0  0  3  0  0  0  0  0  0
  180.3600  177.4560  137.2310 O   0  0  0  0  0  1  0  0  0  0  0  0
  179.5250  176.7230  138.0740 C   0  0  0  0  0  2  0  0  0  0  0  0
  2  5  1  0  0  0  0
  3 11  2  0  0  0  0
  3  5  1  0  0  0  0
  4  6  1  0  0  0  0
  4  7  2  0  0  0  0
  5 12  2  0  0  0  0
  7 36  1  0  0  0  0
  8 18  1  1  0  0  0
  8  9  1  0  0  0  0
  8 10  1  0  0  0  0
  9  3  1  0  0  0  0
 10  1  1  6  0  0  0
 10  2  1  0  0  0  0
 11  4  1  0  0  0  0
 12  7  1  0  0  0  0
 13 14  1  0  0  0  0
 15 18  1  0  0  0  0
 15 23  2  0  0  0  0
 16 17  1  0  0  0  0
 17 21  1  0  0  0  0
 17 28  1  1  0  0  0
 18 19  2  0  0  0  0
 19 21  1  0  0  0  0
 20 23  1  0  0  0  0
 21 13  2  0  0  0  0
 22 19  1  0  0  0  0
 22 16  2  0  0  0  0
 23 14  1  0  0  0  0
 25 27  1  0  0  0  0
 26 28  2  0  0  0  0
 27 24  2  0  0  0  0
 27 29  1  0  0  0  0
 28 25  1  0  0  0  0
 29 32  1  0  0  0  0
 32 30  1  0  0  0  0
 32 31  1  0  0  0  0
 33 38  1  0  0  0  0
 35 34  1  0  0  0  0
 36 33  1  0  0  0  0
 36 37  1  0  0  0  0
 37 35  1  0  0  0  0
 38 34  1  0  0  0  0
 39 40  1  0  0  0  0
 39 10  1  0  0  0  0
 40 41  1  0  0  0  0
 41 42  1  0  0  0  0
 42 44  1  0  0  0  0
 44 46  1  0  0  0  0
 44 43  1  1  0  0  0
 45 46  1  0  0  0  0
M  END
>  <MODEL>
5

>  <REMARK>
 VINA RESULT:      -6.4      2.923      8.167
  Name = 
  11 active torsions:
  status: ('A' for Active; 'I' for Inactive)
    1  A    between atoms: C_4  and  C_34
    2  A    between atoms: C_4  and  C_42
    3  A    between atoms: N_6  and  C_42
    4  A    between atoms: N_6  and  C_44
    5  A    between atoms: N_18  and  C_22
    6  A    between atoms: C_23  and  C_40
    7  A    between atoms: C_24  and  C_46
    8  A    between atoms: C_25  and  C_33
    9  A    between atoms: C_25  and  C_44
   10  A    between atoms: C_27  and  C_29
   11  A    between atoms: C_37  and  C_46
                            x       y       z     vdW  Elec       q    Type
                         _______ _______ _______ _____ _____    ______ ____

>  <TORSDO>
F 11

$$$$
=
 OpenBabel10222416183D

 46 50  0  0  1  0  0  0  0  0999 V2000
  189.7740  175.7390  137.8460 C   0  0  0  0  0  1  0  0  0  0  0  0
  187.3870  175.0740  137.5870 C   0  0  0  0  0  2  0  0  0  0  0  0
  185.6830  176.8630  137.0770 C   0  0  0  0  0  0  0  0  0  0  0  0
  183.3700  176.2850  136.6140 C   0  0  0  0  0  0  0  0  0  0  0  0
  185.9970  175.5020  137.2130 C   0  0  0  0  0  0  0  0  0  0  0  0
  181.9850  176.7800  136.3800 C   0  0  0  0  0  1  0  0  0  0  0  0
  183.6810  174.9050  136.7360 C   0  0  0  0  0  0  0  0  0  0  0  0
  187.9920  177.5260  137.6930 C   0  0  2  0  0  3  0  0  0  0  0  0
  186.6770  177.8380  137.2190 O   0  0  0  0  0  0  0  0  0  0  0  0
  188.4460  176.1250  137.2080 C   0  0  1  0  0  0  0  0  0  0  0  0
  184.3740  177.2440  136.7830 C   0  0  0  0  0  3  0  0  0  0  0  0
  185.0010  174.5390  137.0530 C   0  0  0  0  0  3  0  0  0  0  0  0
  187.5650  178.1550  142.2120 N   0  0  0  0  0  0  0  0  0  0  0  0
  188.5410  177.0790  142.1020 C   0  0  0  0  0  2  0  0  0  0  0  0
  189.3970  177.6140  139.8390 C   0  0  0  0  0  3  0  0  0  0  0  0
  185.0060  179.4570  140.0160 N   0  0  0  0  0  2  0  0  0  0  0  0
  185.6740  179.4810  141.3330 C   0  0  2  0  0  3  0  0  0  0  0  0
  188.0710  177.7430  139.1880 C   0  0  1  0  0  3  0  0  0  0  0  0
  186.9860  178.2060  139.8340 C   0  0  0  0  0  0  0  0  0  0  0  0
  191.0390  177.3300  141.6010 C   0  0  0  0  0  1  0  0  0  0  0  0
  186.8810  178.6150  141.2080 C   0  0  0  0  0  0  0  0  0  0  0  0
  185.8310  178.6850  139.1740 N   0  0  0  0  0  0  0  0  0  0  0  0
  189.6290  177.4050  141.1360 C   0  0  0  0  0  0  0  0  0  0  0  0
  183.1910  178.3600  144.7670 O   0  0  0  0  0  0  0  0  0  0  0  0
  185.2520  178.6250  143.6840 N   0  0  0  0  0  2  0  0  0  0  0  0
  183.5190  178.8570  142.1230 O   0  0  0  0  0  0  0  0  0  0  0  0
  184.4460  178.2830  144.8170 C   0  0  0  0  0  0  0  0  0  0  0  0
  184.7470  178.9620  142.3850 C   0  0  0  0  0  0  0  0  0  0  0  0
  185.1080  177.8780  146.0900 C   0  0  0  0  0  2  0  0  0  0  0  0
  187.5660  177.6010  146.3640 C   0  0  0  0  0  1  0  0  0  0  0  0
  186.3820  179.4230  147.5450 C   0  0  0  0  0  1  0  0  0  0  0  0
  186.4290  178.6040  146.2700 C   0  0  0  0  0  3  0  0  0  0  0  0
  182.9160  172.8300  135.5350 C   0  0  0  0  0  2  0  0  0  0  0  0
  180.5920  172.2540  135.7210 O   0  0  0  0  0  0  0  0  0  0  0  0
  180.2950  173.4520  136.3950 C   0  0  0  0  0  2  0  0  0  0  0  0
  182.6990  173.8660  136.5490 N   0  0  0  0  0  0  0  0  0  0  0  0
  181.4540  173.8280  137.3190 C   0  0  0  0  0  2  0  0  0  0  0  0
  181.6060  172.5580  134.7960 C   0  0  0  0  0  2  0  0  0  0  0  0
  188.6340  176.1810  135.6860 C   0  0  0  0  0  2  0  0  0  0  0  0
  190.0990  176.1340  135.2700 C   0  0  0  0  0  2  0  0  0  0  0  0
  190.4100  174.8310  134.7130 N   0  0  0  0  0  2  0  0  0  0  0  0
  191.8570  174.7740  134.5940 C   0  0  0  0  0  2  0  0  0  0  0  0
  192.9860  173.4030  136.1670 O   0  0  0  0  0  1  0  0  0  0  0  0
  192.4880  174.6910  135.9690 C   0  0  1  0  0  3  0  0  0  0  0  0
  194.4420  175.3570  137.1650 O   0  0  0  0  0  1  0  0  0  0  0  0
  193.6190  175.6990  136.0910 C   0  0  0  0  0  2  0  0  0  0  0  0
  3  5  1  0  0  0  0
  3  9  1  0  0  0  0
  4  7  2  0  0  0  0
  4 11  1  0  0  0  0
  5  2  1  0  0  0  0
  6  4  1  0  0  0  0
  7 12  1  0  0  0  0
  8  9  1  1  0  0  0
  8 18  1  0  0  0  0
 10  2  1  0  0  0  0
 10  8  1  0  0  0  0
 10  1  1  1  0  0  0
 11  3  2  0  0  0  0
 12  5  2  0  0  0  0
 14 13  1  0  0  0  0
 15 23  2  0  0  0  0
 16 17  1  0  0  0  0
 17 28  1  1  0  0  0
 18 19  1  0  0  0  0
 18 15  1  6  0  0  0
 19 21  1  0  0  0  0
 21 17  1  0  0  0  0
 21 13  2  0  0  0  0
 22 19  2  0  0  0  0
 22 16  1  0  0  0  0
 23 20  1  0  0  0  0
 23 14  1  0  0  0  0
 24 27  2  0  0  0  0
 25 27  1  0  0  0  0
 26 28  2  0  0  0  0
 27 29  1  0  0  0  0
 28 25  1  0  0  0  0
 29 32  1  0  0  0  0
 32 30  1  0  0  0  0
 32 31  1  0  0  0  0
 33 36  1  0  0  0  0
 34 35  1  0  0  0  0
 35 37  1  0  0  0  0
 36  7  1  0  0  0  0
 36 37  1  0  0  0  0
 38 33  1  0  0  0  0
 38 34  1  0  0  0  0
 39 10  1  0  0  0  0
 40 39  1  0  0  0  0
 41 40  1  0  0  0  0
 42 41  1  0  0  0  0
 42 44  1  0  0  0  0
 44 46  1  0  0  0  0
 44 43  1  6  0  0  0
 46 45  1  0  0  0  0
M  END
>  <MODEL>
6

>  <REMARK>
 VINA RESULT:      -6.3      1.251      1.674
  Name = 
  11 active torsions:
  status: ('A' for Active; 'I' for Inactive)
    1  A    between atoms: C_4  and  C_34
    2  A    between atoms: C_4  and  C_42
    3  A    between atoms: N_6  and  C_42
    4  A    between atoms: N_6  and  C_44
    5  A    between atoms: N_18  and  C_22
    6  A    between atoms: C_23  and  C_40
    7  A    between atoms: C_24  and  C_46
    8  A    between atoms: C_25  and  C_33
    9  A    between atoms: C_25  and  C_44
   10  A    between atoms: C_27  and  C_29
   11  A    between atoms: C_37  and  C_46
                            x       y       z     vdW  Elec       q    Type
                         _______ _______ _______ _____ _____    ______ ____

>  <TORSDO>
F 11

$$$$
=
 OpenBabel10222416183D

 46 50  0  0  1  0  0  0  0  0999 V2000
  187.9300  172.2880  137.0160 C   0  0  0  0  0  1  0  0  0  0  0  0
  185.8420  173.5840  137.4260 C   0  0  0  0  0  2  0  0  0  0  0  0
  185.2690  175.4800  135.8660 C   0  0  0  0  0  0  0  0  0  0  0  0
  183.1610  176.6680  136.0690 C   0  0  0  0  0  0  0  0  0  0  0  0
  184.8980  174.6370  136.9250 C   0  0  0  0  0  0  0  0  0  0  0  0
  182.3300  177.8180  135.6150 C   0  0  0  0  0  1  0  0  0  0  0  0
  182.7710  175.8130  137.1330 C   0  0  0  0  0  0  0  0  0  0  0  0
  187.5000  174.4080  135.7060 C   0  0  2  0  0  3  0  0  0  0  0  0
  186.4960  175.3030  135.2150 O   0  0  0  0  0  0  0  0  0  0  0  0
  186.8630  173.1540  136.3590 C   0  0  1  0  0  0  0  0  0  0  0  0
  184.4020  176.4890  135.4480 C   0  0  0  0  0  3  0  0  0  0  0  0
  183.6660  174.8140  137.5540 C   0  0  0  0  0  3  0  0  0  0  0  0
  190.9390  176.4650  137.9300 N   0  0  0  0  0  0  0  0  0  0  0  0
  189.9440  177.5190  137.7780 C   0  0  0  0  0  2  0  0  0  0  0  0
  187.9350  176.0800  137.6050 C   0  0  0  0  0  3  0  0  0  0  0  0
  191.5840  173.3560  136.2030 N   0  0  0  0  0  2  0  0  0  0  0  0
  191.9850  174.3390  137.2310 C   0  0  2  0  0  3  0  0  0  0  0  0
  188.4810  175.1560  136.5810 C   0  0  1  0  0  3  0  0  0  0  0  0
  189.7850  174.8320  136.5160 C   0  0  0  0  0  0  0  0  0  0  0  0
  187.8680  177.8770  139.2310 C   0  0  0  0  0  1  0  0  0  0  0  0
  190.8570  175.3060  137.3490 C   0  0  0  0  0  0  0  0  0  0  0  0
  190.2750  173.7040  135.8190 N   0  0  0  0  0  0  0  0  0  0  0  0
  188.5870  177.0750  138.2080 C   0  0  0  0  0  0  0  0  0  0  0  0
  195.8770  175.8340  135.8770 O   0  0  0  0  0  0  0  0  0  0  0  0
  194.5110  174.5600  137.2930 N   0  0  0  0  0  2  0  0  0  0  0  0
  193.1750  176.0020  136.0170 O   0  0  0  0  0  0  0  0  0  0  0  0
  195.7860  175.0250  136.8370 C   0  0  0  0  0  0  0  0  0  0  0  0
  193.2440  175.0290  136.8150 C   0  0  0  0  0  0  0  0  0  0  0  0
  197.0280  174.5030  137.4780 C   0  0  0  0  0  2  0  0  0  0  0  0
  198.0970  172.2720  137.2180 C   0  0  0  0  0  1  0  0  0  0  0  0
  199.0820  174.2560  136.1180 C   0  0  0  0  0  1  0  0  0  0  0  0
  197.7840  173.5890  136.5300 C   0  0  0  0  0  3  0  0  0  0  0  0
  181.3860  176.7000  139.0380 C   0  0  0  0  0  2  0  0  0  0  0  0
  179.2600  175.6510  139.4220 O   0  0  0  0  0  0  0  0  0  0  0  0
  179.5160  174.6570  138.4610 C   0  0  0  0  0  2  0  0  0  0  0  0
  181.4960  175.9270  137.7970 N   0  0  0  0  0  0  0  0  0  0  0  0
  180.2960  175.2580  137.2910 C   0  0  0  0  0  2  0  0  0  0  0  0
  180.4940  175.9500  140.0270 C   0  0  0  0  0  2  0  0  0  0  0  0
  186.1810  172.3320  135.2550 C   0  0  0  0  0  2  0  0  0  0  0  0
  186.7630  170.9310  135.1180 C   0  0  0  0  0  2  0  0  0  0  0  0
  185.6990  169.9480  135.1940 N   0  0  0  0  0  2  0  0  0  0  0  0
  184.4550  170.6790  135.0320 C   0  0  0  0  0  2  0  0  0  0  0  0
  183.2620  171.1490  137.0300 O   0  0  0  0  0  1  0  0  0  0  0  0
  183.4290  170.1870  136.0340 C   0  0  1  0  0  3  0  0  0  0  0  0
  181.1580  170.8660  135.7740 O   0  0  0  0  0  1  0  0  0  0  0  0
  182.0990  169.9310  135.3440 C   0  0  0  0  0  2  0  0  0  0  0  0
  3  5  1  0  0  0  0
  4  7  2  0  0  0  0
  5  2  1  0  0  0  0
  5 12  2  0  0  0  0
  6  4  1  0  0  0  0
  7 12  1  0  0  0  0
  7 36  1  0  0  0  0
  8  9  1  1  0  0  0
  8 10  1  0  0  0  0
  8 18  1  0  0  0  0
  9  3  1  0  0  0  0
 10  1  1  1  0  0  0
 10  2  1  0  0  0  0
 11  3  2  0  0  0  0
 11  4  1  0  0  0  0
 14 13  1  0  0  0  0
 14 23  1  0  0  0  0
 15 23  2  0  0  0  0
 16 17  1  0  0  0  0
 17 28  1  6  0  0  0
 17 21  1  0  0  0  0
 18 15  1  1  0  0  0
 19 18  1  0  0  0  0
 19 21  1  0  0  0  0
 21 13  2  0  0  0  0
 22 16  1  0  0  0  0
 22 19  2  0  0  0  0
 23 20  1  0  0  0  0
 24 27  2  0  0  0  0
 26 28  2  0  0  0  0
 27 25  1  0  0  0  0
 27 29  1  0  0  0  0
 28 25  1  0  0  0  0
 31 32  1  0  0  0  0
 32 30  1  0  0  0  0
 32 29  1  0  0  0  0
 33 38  1  0  0  0  0
 34 38  1  0  0  0  0
 35 34  1  0  0  0  0
 36 33  1  0  0  0  0
 37 36  1  0  0  0  0
 37 35  1  0  0  0  0
 39 10  1  0  0  0  0
 40 41  1  0  0  0  0
 40 39  1  0  0  0  0
 42 41  1  0  0  0  0
 42 44  1  0  0  0  0
 44 43  1  1  0  0  0
 46 45  1  0  0  0  0
 46 44  1  0  0  0  0
M  END
>  <MODEL>
7

>  <REMARK>
 VINA RESULT:      -6.3      3.780      8.909
  Name = 
  11 active torsions:
  status: ('A' for Active; 'I' for Inactive)
    1  A    between atoms: C_4  and  C_34
    2  A    between atoms: C_4  and  C_42
    3  A    between atoms: N_6  and  C_42
    4  A    between atoms: N_6  and  C_44
    5  A    between atoms: N_18  and  C_22
    6  A    between atoms: C_23  and  C_40
    7  A    between atoms: C_24  and  C_46
    8  A    between atoms: C_25  and  C_33
    9  A    between atoms: C_25  and  C_44
   10  A    between atoms: C_27  and  C_29
   11  A    between atoms: C_37  and  C_46
                            x       y       z     vdW  Elec       q    Type
                         _______ _______ _______ _____ _____    ______ ____

>  <TORSDO>
F 11

$$$$
=
 OpenBabel10222416183D

 46 50  0  0  1  0  0  0  0  0999 V2000
  191.1290  177.1470  141.4180 C   0  0  0  0  0  1  0  0  0  0  0  0
  190.0290  175.8950  139.5660 C   0  0  0  0  0  2  0  0  0  0  0  0
  188.6710  177.1830  137.8760 C   0  0  0  0  0  0  0  0  0  0  0  0
  187.7280  176.0760  135.9310 C   0  0  0  0  0  0  0  0  0  0  0  0
  189.2560  175.9740  138.2820 C   0  0  0  0  0  0  0  0  0  0  0  0
  186.8380  176.1900  134.7420 C   0  0  0  0  0  1  0  0  0  0  0  0
  188.3260  174.8520  136.3260 C   0  0  0  0  0  0  0  0  0  0  0  0
  189.4760  178.3360  139.9190 C   0  0  2  0  0  3  0  0  0  0  0  0
  188.8600  178.3500  138.6260 O   0  0  0  0  0  0  0  0  0  0  0  0
  190.5910  177.2610  139.9980 C   0  0  1  0  0  0  0  0  0  0  0  0
  187.9110  177.2250  136.7080 C   0  0  0  0  0  3  0  0  0  0  0  0
  189.0740  174.8220  137.5170 C   0  0  0  0  0  3  0  0  0  0  0  0
  185.8480  177.9400  142.6900 N   0  0  0  0  0  0  0  0  0  0  0  0
  186.8390  177.0540  143.2860 C   0  0  0  0  0  2  0  0  0  0  0  0
  188.8730  178.1620  142.4080 C   0  0  0  0  0  3  0  0  0  0  0  0
  185.3790  179.3130  139.3800 N   0  0  0  0  0  2  0  0  0  0  0  0
  184.8870  179.1510  140.7630 C   0  0  2  0  0  3  0  0  0  0  0  0
  188.4210  178.2430  140.9980 C   0  0  1  0  0  3  0  0  0  0  0  0
  187.1300  178.4090  140.6570 C   0  0  0  0  0  0  0  0  0  0  0  0
  188.7900  177.7410  144.7940 C   0  0  0  0  0  1  0  0  0  0  0  0
  185.9900  178.5030  141.5280 C   0  0  0  0  0  0  0  0  0  0  0  0
  186.7110  178.8540  139.3820 N   0  0  0  0  0  0  0  0  0  0  0  0
  188.1630  177.7200  143.4470 C   0  0  0  0  0  0  0  0  0  0  0  0
  181.6360  176.2100  140.7290 O   0  0  0  0  0  0  0  0  0  0  0  0
  183.4610  177.3120  139.7540 N   0  0  0  0  0  2  0  0  0  0  0  0
  182.8150  178.4500  141.6980 O   0  0  0  0  0  0  0  0  0  0  0  0
  182.4160  176.3320  139.7490 C   0  0  0  0  0  0  0  0  0  0  0  0
  183.6560  178.3030  140.7710 C   0  0  0  0  0  0  0  0  0  0  0  0
  182.2850  175.4080  138.5860 C   0  0  0  0  0  2  0  0  0  0  0  0
  182.8610  175.9720  136.2320 C   0  0  0  0  0  1  0  0  0  0  0  0
  184.2260  174.3350  137.4860 C   0  0  0  0  0  1  0  0  0  0  0  0
  183.4190  175.6140  137.5980 C   0  0  0  0  0  3  0  0  0  0  0  0
  187.0280  172.7760  135.7410 C   0  0  0  0  0  2  0  0  0  0  0  0
  188.2180  171.0310  134.5970 O   0  0  0  0  0  0  0  0  0  0  0  0
  189.4460  171.7010  134.7410 C   0  0  0  0  0  2  0  0  0  0  0  0
  188.1990  173.6380  135.5570 N   0  0  0  0  0  0  0  0  0  0  0  0
  189.2320  173.2090  134.6110 C   0  0  0  0  0  2  0  0  0  0  0  0
  187.4710  171.3130  135.7540 C   0  0  0  0  0  2  0  0  0  0  0  0
  191.7400  177.6920  139.0750 C   0  0  0  0  0  2  0  0  0  0  0  0
  193.0870  177.1290  139.5070 C   0  0  0  0  0  2  0  0  0  0  0  0
  193.5780  176.2020  138.5050 N   0  0  0  0  0  2  0  0  0  0  0  0
  193.0950  176.6910  137.2260 C   0  0  0  0  0  2  0  0  0  0  0  0
  193.3500  175.5640  135.1530 O   0  0  0  0  0  1  0  0  0  0  0  0
  192.6520  175.5290  136.3600 C   0  0  1  0  0  3  0  0  0  0  0  0
  192.1420  173.2040  136.5000 O   0  0  0  0  0  1  0  0  0  0  0  0
  192.9220  174.2110  137.0670 C   0  0  0  0  0  2  0  0  0  0  0  0
  2 10  1  0  0  0  0
  3  5  1  0  0  0  0
  3  9  1  0  0  0  0
  4  7  2  0  0  0  0
  4 11  1  0  0  0  0
  5  2  1  0  0  0  0
  6  4  1  0  0  0  0
  7 12  1  0  0  0  0
  8  9  1  6  0  0  0
  8 10  1  0  0  0  0
  8 18  1  0  0  0  0
 10  1  1  1  0  0  0
 11  3  2  0  0  0  0
 12  5  2  0  0  0  0
 13 14  1  0  0  0  0
 14 23  1  0  0  0  0
 15 23  2  0  0  0  0
 16 22  1  0  0  0  0
 16 17  1  0  0  0  0
 17 28  1  6  0  0  0
 17 21  1  0  0  0  0
 18 15  1  1  0  0  0
 19 18  1  0  0  0  0
 19 21  1  0  0  0  0
 21 13  2  0  0  0  0
 22 19  2  0  0  0  0
 23 20  1  0  0  0  0
 25 28  1  0  0  0  0
 27 25  1  0  0  0  0
 27 24  2  0  0  0  0
 28 26  2  0  0  0  0
 29 27  1  0  0  0  0
 30 32  1  0  0  0  0
 31 32  1  0  0  0  0
 32 29  1  0  0  0  0
 33 38  1  0  0  0  0
 34 35  1  0  0  0  0
 34 38  1  0  0  0  0
 36 33  1  0  0  0  0
 36  7  1  0  0  0  0
 37 35  1  0  0  0  0
 37 36  1  0  0  0  0
 39 40  1  0  0  0  0
 39 10  1  0  0  0  0
 41 40  1  0  0  0  0
 42 41  1  0  0  0  0
 44 43  1  6  0  0  0
 44 46  1  0  0  0  0
 44 42  1  0  0  0  0
 45 46  1  0  0  0  0
M  END
>  <MODEL>
8

>  <REMARK>
 VINA RESULT:      -6.1      2.304      4.347
  Name = 
  11 active torsions:
  status: ('A' for Active; 'I' for Inactive)
    1  A    between atoms: C_4  and  C_34
    2  A    between atoms: C_4  and  C_42
    3  A    between atoms: N_6  and  C_42
    4  A    between atoms: N_6  and  C_44
    5  A    between atoms: N_18  and  C_22
    6  A    between atoms: C_23  and  C_40
    7  A    between atoms: C_24  and  C_46
    8  A    between atoms: C_25  and  C_33
    9  A    between atoms: C_25  and  C_44
   10  A    between atoms: C_27  and  C_29
   11  A    between atoms: C_37  and  C_46
                            x       y       z     vdW  Elec       q    Type
                         _______ _______ _______ _____ _____    ______ ____

>  <TORSDO>
F 11

$$$$
=
 OpenBabel10222416183D

 46 50  0  0  1  0  0  0  0  0999 V2000
  188.3700  179.3550  137.0260 C   0  0  0  0  0  1  0  0  0  0  0  0
  190.3570  177.9190  136.5810 C   0  0  0  0  0  2  0  0  0  0  0  0
  190.1460  175.4280  136.9140 C   0  0  0  0  0  0  0  0  0  0  0  0
  191.9640  173.9320  136.3190 C   0  0  0  0  0  0  0  0  0  0  0  0
  190.8960  176.5230  136.4600 C   0  0  0  0  0  0  0  0  0  0  0  0
  192.4950  172.5410  136.3530 C   0  0  0  0  0  1  0  0  0  0  0  0
  192.7260  175.0320  135.8450 C   0  0  0  0  0  0  0  0  0  0  0  0
  188.3160  176.9140  137.6840 C   0  0  2  0  0  3  0  0  0  0  0  0
  188.8540  175.6140  137.4220 O   0  0  0  0  0  0  0  0  0  0  0  0
  188.8190  177.9510  136.6460 C   0  0  1  0  0  0  0  0  0  0  0  0
  190.6840  174.1440  136.8440 C   0  0  0  0  0  3  0  0  0  0  0  0
  192.1750  176.3220  135.9420 C   0  0  0  0  0  3  0  0  0  0  0  0
  188.3600  178.0300  142.1290 N   0  0  0  0  0  0  0  0  0  0  0  0
  189.3320  176.9490  142.0320 C   0  0  0  0  0  2  0  0  0  0  0  0
  189.9380  177.2360  139.6470 C   0  0  0  0  0  3  0  0  0  0  0  0
  185.5680  179.0820  140.0890 N   0  0  0  0  0  0  0  0  0  0  0  0
  186.3710  179.2500  141.3180 C   0  0  2  0  0  3  0  0  0  0  0  0
  188.5500  177.2920  139.1300 C   0  0  0  0  0  0  0  0  0  0  0  0
  187.5330  177.8210  139.8340 C   0  0  0  0  0  0  0  0  0  0  0  0
  191.7600  177.1460  141.2450 C   0  0  0  0  0  1  0  0  0  0  0  0
  187.5690  178.3770  141.1590 C   0  0  0  0  0  0  0  0  0  0  0  0
  186.3090  178.2250  139.2530 N   0  0  0  0  0  0  0  0  0  0  0  0
  190.3090  177.1700  140.9270 C   0  0  0  0  0  0  0  0  0  0  0  0
  183.5920  177.9370  144.4430 O   0  0  0  0  0  0  0  0  0  0  0  0
  184.2290  179.3360  142.6740 N   0  0  0  0  0  2  0  0  0  0  0  0
  186.0700  178.0530  143.3510 O   0  0  0  0  0  0  0  0  0  0  0  0
  183.3070  178.8940  143.6760 C   0  0  0  0  0  0  0  0  0  0  0  0
  185.5660  178.8480  142.5120 C   0  0  0  0  0  0  0  0  0  0  0  0
  181.9690  179.5440  143.7780 C   0  0  0  0  0  2  0  0  0  0  0  0
  180.4380  178.7320  141.9930 C   0  0  0  0  0  1  0  0  0  0  0  0
  179.6690  178.8220  144.3420 C   0  0  0  0  0  1  0  0  0  0  0  0
  180.8610  178.5620  143.4410 C   0  0  0  0  0  3  0  0  0  0  0  0
  194.4070  173.6220  134.6120 C   0  0  0  0  0  2  0  0  0  0  0  0
  196.7040  174.3130  134.7270 O   0  0  0  0  0  0  0  0  0  0  0  0
  196.4110  175.3190  135.6650 C   0  0  0  0  0  2  0  0  0  0  0  0
  194.0390  174.8800  135.2690 N   0  0  0  0  0  0  0  0  0  0  0  0
  195.0480  175.9380  135.3510 C   0  0  0  0  0  2  0  0  0  0  0  0
  195.8350  173.2430  135.0030 C   0  0  0  0  0  2  0  0  0  0  0  0
  188.2120  177.5970  135.2810 C   0  0  0  0  0  2  0  0  0  0  0  0
  186.7190  177.3030  135.3580 C   0  0  0  0  0  2  0  0  0  0  0  0
  186.4550  175.9660  134.8610 N   0  0  0  0  0  2  0  0  0  0  0  0
  185.1130  175.6260  135.3010 C   0  0  0  0  0  2  0  0  0  0  0  0
  184.1990  176.1440  137.4290 O   0  0  0  0  0  1  0  0  0  0  0  0
  185.1170  175.3150  136.7850 C   0  0  1  0  0  3  0  0  0  0  0  0
  183.8460  173.4410  136.0370 O   0  0  0  0  0  1  0  0  0  0  0  0
  184.7430  173.8600  137.0190 C   0  0  0  0  0  2  0  0  0  0  0  0
  2 10  1  0  0  0  0
  3  9  1  0  0  0  0
  4  6  1  0  0  0  0
  4 11  2  0  0  0  0
  5  2  1  0  0  0  0
  5  3  2  0  0  0  0
  7 12  2  0  0  0  0
  7  4  1  0  0  0  0
  8 18  1  1  0  0  0
  9  8  1  0  0  0  0
 10  1  1  1  0  0  0
 10  8  1  0  0  0  0
 11  3  1  0  0  0  0
 12  5  1  0  0  0  0
 14 13  1  0  0  0  0
 15 23  2  0  0  0  0
 16 17  1  0  0  0  0
 17 28  1  1  0  0  0
 18 15  1  0  0  0  0
 18 19  2  0  0  0  0
 19 21  1  0  0  0  0
 21 17  1  0  0  0  0
 21 13  2  0  0  0  0
 22 19  1  0  0  0  0
 22 16  2  0  0  0  0
 23 20  1  0  0  0  0
 23 14  1  0  0  0  0
 25 27  1  0  0  0  0
 27 29  1  0  0  0  0
 27 24  2  0  0  0  0
 28 25  1  0  0  0  0
 28 26  2  0  0  0  0
 30 32  1  0  0  0  0
 32 29  1  0  0  0  0
 32 31  1  0  0  0  0
 33 38  1  0  0  0  0
 33 36  1  0  0  0  0
 34 38  1  0  0  0  0
 34 35  1  0  0  0  0
 36 37  1  0  0  0  0
 36  7  1  0  0  0  0
 37 35  1  0  0  0  0
 39 40  1  0  0  0  0
 39 10  1  0  0  0  0
 41 42  1  0  0  0  0
 41 40  1  0  0  0  0
 42 44  1  0  0  0  0
 44 46  1  0  0  0  0
 44 43  1  1  0  0  0
 45 46  1  0  0  0  0
M  END
>  <MODEL>
9

>  <REMARK>
 VINA RESULT:      -5.9      2.115      6.579
  Name = 
  11 active torsions:
  status: ('A' for Active; 'I' for Inactive)
    1  A    between atoms: C_4  and  C_34
    2  A    between atoms: C_4  and  C_42
    3  A    between atoms: N_6  and  C_42
    4  A    between atoms: N_6  and  C_44
    5  A    between atoms: N_18  and  C_22
    6  A    between atoms: C_23  and  C_40
    7  A    between atoms: C_24  and  C_46
    8  A    between atoms: C_25  and  C_33
    9  A    between atoms: C_25  and  C_44
   10  A    between atoms: C_27  and  C_29
   11  A    between atoms: C_37  and  C_46
                            x       y       z     vdW  Elec       q    Type
                         _______ _______ _______ _____ _____    ______ ____

>  <TORSDO>
F 11

$$$$
