=
 OpenBabel10222419583D

 36 38  0  0  1  0  0  0  0  0999 V2000
  186.3520  177.9060  143.6770 C   0  0  0  0  0  3  0  0  0  0  0  0
  186.6340  178.6140  141.3450 C   0  0  0  0  0  0  0  0  0  0  0  0
  188.6120  178.4280  142.8030 C   0  0  2  0  0  3  0  0  0  0  0  0
  185.7890  178.4030  142.5610 C   0  0  0  0  0  0  0  0  0  0  0  0
  187.7950  177.4820  143.7070 C   0  0  2  0  0  3  0  0  0  0  0  0
  187.8950  176.0260  143.2730 C   0  0  0  0  0  1  0  0  0  0  0  0
  187.9680  178.6040  141.4540 C   0  0  0  0  0  2  0  0  0  0  0  0
  181.2320  176.9000  140.1300 C   0  0  0  0  0  3  0  0  0  0  0  0
  183.3240  178.2720  141.9000 C   0  0  0  0  0  0  0  0  0  0  0  0
  182.4620  179.8050  143.4080 N   0  0  0  0  0  0  0  0  0  0  0  0
  183.4880  177.3960  140.9590 N   0  0  0  0  0  0  0  0  0  0  0  0
  183.0640  175.7740  139.1900 N   0  0  0  0  0  1  0  0  0  0  0  0
  180.4680  177.7750  140.9590 N   0  0  0  0  0  2  0  0  0  0  0  0
  180.8290  178.6560  142.0270 C   0  0  0  0  0  0  0  0  0  0  0  0
  182.1000  178.8610  142.4030 C   0  0  0  0  0  0  0  0  0  0  0  0
  183.9130  179.8060  143.5740 C   0  0  0  0  0  3  0  0  0  0  0  0
  184.4240  178.8500  142.5980 N   0  0  0  0  0  0  0  0  0  0  0  0
  182.5490  176.7160  140.1230 C   0  0  0  0  0  0  0  0  0  0  0  0
  179.3140  178.9410  143.9990 C   0  0  0  0  0  1  0  0  0  0  0  0
  179.2880  180.6540  142.1990 C   0  0  0  0  0  1  0  0  0  0  0  0
  179.7600  179.3640  142.6820 N   0  0  0  0  0  0  0  0  0  0  0  0
  186.0660  178.7450  140.0390 N   0  0  0  0  0  0  0  0  0  0  0  0
  186.8390  178.6460  138.8720 N   0  0  0  0  0  0  0  0  0  0  0  0
  186.3340  178.2470  137.7450 C   0  0  0  0  0  3  0  0  0  0  0  0
  184.8990  177.8490  137.6030 C   0  0  0  0  0  2  0  0  0  0  0  0
  184.6880  177.1160  136.2920 C   0  0  0  0  0  1  0  0  0  0  0  0
  190.1060  178.1180  142.7270 C   0  0  0  0  0  2  0  0  0  0  0  0
  190.8510  178.8220  143.7620 N   0  0  0  0  0  2  0  0  0  0  0  0
  191.8290  177.8910  144.2940 C   0  0  0  0  0  2  0  0  0  0  0  0
  191.1200  176.7610  145.0210 C   0  0  0  0  0  2  0  0  0  0  0  0
  191.1470  176.9900  146.5250 C   0  0  2  0  0  3  0  0  0  0  0  0
  192.6760  176.3310  148.3940 O   0  0  0  0  0  1  0  0  0  0  0  0
  192.4080  174.9710  146.5700 O   0  0  0  0  0  0  0  0  0  0  0  0
  192.1080  176.0410  147.1590 C   0  0  0  0  0  0  0  0  0  0  0  0
  189.7640  176.7980  147.1320 C   0  0  0  0  0  2  0  0  0  0  0  0
  189.5230  177.7720  148.1020 O   0  0  0  0  0  1  0  0  0  0  0  0
  1  5  1  0  0  0  0
  2  7  1  0  0  0  0
  2  4  1  0  0  0  0
  3 27  1  6  0  0  0
  3  5  1  0  0  0  0
  4 17  1  0  0  0  0
  4  1  2  0  0  0  0
  5  6  1  6  0  0  0
  7  3  1  0  0  0  0
  8 13  1  0  0  0  0
  9 15  1  0  0  0  0
  9 17  1  0  0  0  0
 10 16  2  0  0  0  0
 11  9  2  0  0  0  0
 12 18  1  0  0  0  0
 13 14  1  0  0  0  0
 14 15  2  0  0  0  0
 14 21  1  0  0  0  0
 15 10  1  0  0  0  0
 17 16  1  0  0  0  0
 18  8  2  0  0  0  0
 18 11  1  0  0  0  0
 20 21  1  0  0  0  0
 21 19  1  0  0  0  0
 22  2  2  0  0  0  0
 23 22  1  0  0  0  0
 24 23  2  0  0  0  0
 25 24  1  0  0  0  0
 26 25  1  0  0  0  0
 27 28  1  0  0  0  0
 28 29  1  0  0  0  0
 29 30  1  0  0  0  0
 31 30  1  6  0  0  0
 31 35  1  0  0  0  0
 31 34  1  0  0  0  0
 33 34  2  0  0  0  0
 34 32  1  0  0  0  0
 35 36  1  0  0  0  0
M  END
>  <MODEL>
1

>  <REMARK>
 VINA RESULT:      -7.2      0.000      0.000
  Name = 
  12 active torsions:
  status: ('A' for Active; 'I' for Inactive)
    1  A    between atoms: C_3  and  C_35
    2  A    between atoms: N_4  and  C_22
    3  A    between atoms: N_4  and  C_34
    4  A    between atoms: C_5  and  C_31
    5  A    between atoms: N_10  and  N_13
    6  A    between atoms: N_13  and  C_16
    7  A    between atoms: C_17  and  C_22
    8  A    between atoms: C_19  and  N_27
    9  A    between atoms: C_21  and  N_33
   10  A    between atoms: C_25  and  C_35
   11  A    between atoms: C_32  and  C_34
   12  A    between atoms: C_32  and  C_35
                            x       y       z     vdW  Elec       q    Type
                         _______ _______ _______ _____ _____    ______ ____

>  <TORSDO>
F 12

$$$$
=
 OpenBabel10222419583D

 36 38  0  0  1  0  0  0  0  0999 V2000
  186.7220  178.1290  137.3320 C   0  0  0  0  0  3  0  0  0  0  0  0
  186.9080  178.3360  139.7700 C   0  0  0  0  0  0  0  0  0  0  0  0
  188.6880  177.1890  138.5100 C   0  0  2  0  0  3  0  0  0  0  0  0
  186.1060  178.3540  138.5070 C   0  0  0  0  0  0  0  0  0  0  0  0
  188.2110  177.9370  137.2500 C   0  0  2  0  0  3  0  0  0  0  0  0
  188.8790  179.2950  137.0870 C   0  0  0  0  0  1  0  0  0  0  0  0
  188.1360  177.8060  139.7680 C   0  0  0  0  0  3  0  0  0  0  0  0
  181.9980  174.9150  138.0240 C   0  0  0  0  0  3  0  0  0  0  0  0
  183.7340  177.4060  138.4450 C   0  0  0  0  0  0  0  0  0  0  0  0
  182.5670  179.3060  139.0700 N   0  0  0  0  0  0  0  0  0  0  0  0
  184.0820  176.2120  138.0760 N   0  0  0  0  0  0  0  0  0  0  0  0
  184.0200  173.8460  137.4990 N   0  0  0  0  0  1  0  0  0  0  0  0
  181.0680  175.9300  138.4010 N   0  0  0  0  0  2  0  0  0  0  0  0
  181.2310  177.2990  138.7830 C   0  0  0  0  0  0  0  0  0  0  0  0
  182.4210  177.9190  138.7740 C   0  0  0  0  0  0  0  0  0  0  0  0
  183.9730  179.6820  138.9590 C   0  0  0  0  0  3  0  0  0  0  0  0
  184.6740  178.4720  138.5430 N   0  0  0  0  0  0  0  0  0  0  0  0
  183.3180  175.0190  137.8860 C   0  0  0  0  0  0  0  0  0  0  0  0
  179.1780  178.5650  138.1180 C   0  0  0  0  0  1  0  0  0  0  0  0
  179.5270  178.0030  140.5130 C   0  0  0  0  0  1  0  0  0  0  0  0
  180.0430  178.0230  139.1520 N   0  0  0  0  0  0  0  0  0  0  0  0
  186.4390  178.9460  140.9750 N   0  0  0  0  0  2  0  0  0  0  0  0
  186.5940  178.3390  142.2310 N   0  0  0  0  0  0  0  0  0  0  0  0
  185.5850  178.1210  143.0180 C   0  0  0  0  0  3  0  0  0  0  0  0
  184.1860  178.5110  142.6580 C   0  0  0  0  0  2  0  0  0  0  0  0
  183.4830  179.1030  143.8650 C   0  0  0  0  0  1  0  0  0  0  0  0
  190.1920  176.9230  138.5730 C   0  0  0  0  0  2  0  0  0  0  0  0
  190.5910  176.4190  139.8800 N   0  0  0  0  0  2  0  0  0  0  0  0
  191.4710  177.4110  140.4700 C   0  0  0  0  0  2  0  0  0  0  0  0
  191.5440  177.2040  141.9740 C   0  0  0  0  0  2  0  0  0  0  0  0
  190.2050  177.5180  142.6240 C   0  0  2  0  0  3  0  0  0  0  0  0
  189.5910  178.3010  144.9210 O   0  0  0  0  0  1  0  0  0  0  0  0
  191.3510  179.2450  143.7970 O   0  0  0  0  0  0  0  0  0  0  0  0
  190.4170  178.4010  143.8080 C   0  0  0  0  0  0  0  0  0  0  0  0
  189.4960  176.2430  143.0590 C   0  0  0  0  0  2  0  0  0  0  0  0
  190.3680  175.1560  142.9870 O   0  0  0  0  0  1  0  0  0  0  0  0
  1  4  2  0  0  0  0
  2 22  1  0  0  0  0
  3 27  1  1  0  0  0
  3  7  1  0  0  0  0
  4 17  1  0  0  0  0
  4  2  1  0  0  0  0
  5  6  1  1  0  0  0
  5  1  1  0  0  0  0
  5  3  1  0  0  0  0
  7  2  2  0  0  0  0
  8 13  1  0  0  0  0
  9 17  1  0  0  0  0
  9 15  1  0  0  0  0
 11  9  2  0  0  0  0
 12 18  1  0  0  0  0
 13 14  1  0  0  0  0
 14 21  1  0  0  0  0
 15 14  2  0  0  0  0
 15 10  1  0  0  0  0
 16 10  2  0  0  0  0
 17 16  1  0  0  0  0
 18  8  2  0  0  0  0
 18 11  1  0  0  0  0
 19 21  1  0  0  0  0
 21 20  1  0  0  0  0
 22 23  1  0  0  0  0
 23 24  2  0  0  0  0
 25 24  1  0  0  0  0
 25 26  1  0  0  0  0
 27 28  1  0  0  0  0
 28 29  1  0  0  0  0
 29 30  1  0  0  0  0
 31 30  1  1  0  0  0
 31 35  1  0  0  0  0
 31 34  1  0  0  0  0
 33 34  2  0  0  0  0
 34 32  1  0  0  0  0
 36 35  1  0  0  0  0
M  END
>  <MODEL>
2

>  <REMARK>
 VINA RESULT:      -6.8      2.628      4.440
  Name = 
  12 active torsions:
  status: ('A' for Active; 'I' for Inactive)
    1  A    between atoms: C_3  and  C_35
    2  A    between atoms: N_4  and  C_22
    3  A    between atoms: N_4  and  C_34
    4  A    between atoms: C_5  and  C_31
    5  A    between atoms: N_10  and  N_13
    6  A    between atoms: N_13  and  C_16
    7  A    between atoms: C_17  and  C_22
    8  A    between atoms: C_19  and  N_27
    9  A    between atoms: C_21  and  N_33
   10  A    between atoms: C_25  and  C_35
   11  A    between atoms: C_32  and  C_34
   12  A    between atoms: C_32  and  C_35
                            x       y       z     vdW  Elec       q    Type
                         _______ _______ _______ _____ _____    ______ ____

>  <TORSDO>
F 12

$$$$
=
 OpenBabel10222419583D

 36 38  0  0  1  0  0  0  0  0999 V2000
  190.9260  177.5140  141.1800 C   0  0  0  0  0  3  0  0  0  0  0  0
  188.8240  176.9240  142.3010 C   0  0  0  0  0  0  0  0  0  0  0  0
  190.9680  176.2330  143.3010 C   0  0  2  0  0  3  0  0  0  0  0  0
  189.5930  177.3520  141.0910 C   0  0  0  0  0  0  0  0  0  0  0  0
  191.6510  177.3500  142.4870 C   0  0  2  0  0  3  0  0  0  0  0  0
  191.6640  178.6840  143.2200 C   0  0  0  0  0  1  0  0  0  0  0  0
  189.4740  176.4150  143.3540 C   0  0  0  0  0  3  0  0  0  0  0  0
  190.1540  174.8880  136.3430 C   0  0  0  0  0  3  0  0  0  0  0  0
  189.2150  176.6600  138.6610 C   0  0  0  0  0  0  0  0  0  0  0  0
  187.3050  177.8960  138.2240 N   0  0  0  0  0  0  0  0  0  0  0  0
  190.2470  175.8790  138.5870 N   0  0  0  0  0  0  0  0  0  0  0  0
  191.8880  174.2610  137.7950 N   0  0  0  0  0  1  0  0  0  0  0  0
  188.9820  175.5300  135.8400 N   0  0  0  0  0  0  0  0  0  0  0  0
  188.0460  176.4360  136.4310 C   0  0  0  0  0  0  0  0  0  0  0  0
  188.1920  176.9250  137.6710 C   0  0  0  0  0  0  0  0  0  0  0  0
  187.7390  178.2360  139.5760 C   0  0  0  0  0  3  0  0  0  0  0  0
  188.9520  177.4610  139.8100 N   0  0  0  0  0  0  0  0  0  0  0  0
  190.7140  175.0230  137.5420 C   0  0  2  0  0  3  0  0  0  0  0  0
  185.6470  176.1850  135.7650 C   0  0  0  0  0  1  0  0  0  0  0  0
  186.9620  178.0830  134.8480 C   0  0  0  0  0  1  0  0  0  0  0  0
  186.9310  176.8490  135.6180 N   0  0  0  0  0  0  0  0  0  0  0  0
  187.4110  177.1160  142.4100 N   0  0  0  0  0  2  0  0  0  0  0  0
  186.8540  178.1720  143.1470 N   0  0  0  0  0  0  0  0  0  0  0  0
  185.6760  178.6480  142.8820 C   0  0  0  0  0  3  0  0  0  0  0  0
  184.8280  178.1220  141.7680 C   0  0  0  0  0  2  0  0  0  0  0  0
  183.3970  178.5980  141.9310 C   0  0  0  0  0  1  0  0  0  0  0  0
  191.5950  175.9510  144.6660 C   0  0  0  0  0  2  0  0  0  0  0  0
  191.4170  177.0740  145.5770 N   0  0  0  0  0  2  0  0  0  0  0  0
  190.3700  176.7040  146.5110 C   0  0  0  0  0  2  0  0  0  0  0  0
  189.2860  177.7680  146.5160 C   0  0  0  0  0  2  0  0  0  0  0  0
  188.1210  177.3440  147.3990 C   0  0  2  0  0  3  0  0  0  0  0  0
  186.2510  178.9890  147.1520 O   0  0  0  0  0  1  0  0  0  0  0  0
  186.2780  177.0580  145.9190 O   0  0  0  0  0  0  0  0  0  0  0  0
  186.8370  177.7850  146.7810 C   0  0  0  0  0  0  0  0  0  0  0  0
  188.2480  177.9410  148.7940 C   0  0  0  0  0  2  0  0  0  0  0  0
  189.4690  178.6020  148.9270 O   0  0  0  0  0  1  0  0  0  0  0  0
  1  5  1  0  0  0  0
  2 22  1  0  0  0  0
  2  7  2  0  0  0  0
  3  7  1  0  0  0  0
  3 27  1  1  0  0  0
  4  1  2  0  0  0  0
  4  2  1  0  0  0  0
  5  6  1  1  0  0  0
  5  3  1  0  0  0  0
  8 18  1  0  0  0  0
  9 17  1  0  0  0  0
 10 16  2  0  0  0  0
 11  9  2  0  0  0  0
 13  8  2  0  0  0  0
 13 14  1  0  0  0  0
 14 15  2  0  0  0  0
 15 10  1  0  0  0  0
 15  9  1  0  0  0  0
 16 17  1  0  0  0  0
 17  4  1  0  0  0  0
 18 12  1  6  0  0  0
 18 11  1  0  0  0  0
 20 21  1  0  0  0  0
 21 19  1  0  0  0  0
 21 14  1  0  0  0  0
 22 23  1  0  0  0  0
 24 23  2  0  0  0  0
 25 26  1  0  0  0  0
 25 24  1  0  0  0  0
 27 28  1  0  0  0  0
 28 29  1  0  0  0  0
 29 30  1  0  0  0  0
 31 30  1  6  0  0  0
 31 35  1  0  0  0  0
 33 34  2  0  0  0  0
 34 32  1  0  0  0  0
 34 31  1  0  0  0  0
 35 36  1  0  0  0  0
M  END
>  <MODEL>
3

>  <REMARK>
 VINA RESULT:      -6.7      3.076      6.385
  Name = 
  12 active torsions:
  status: ('A' for Active; 'I' for Inactive)
    1  A    between atoms: C_3  and  C_35
    2  A    between atoms: N_4  and  C_22
    3  A    between atoms: N_4  and  C_34
    4  A    between atoms: C_5  and  C_31
    5  A    between atoms: N_10  and  N_13
    6  A    between atoms: N_13  and  C_16
    7  A    between atoms: C_17  and  C_22
    8  A    between atoms: C_19  and  N_27
    9  A    between atoms: C_21  and  N_33
   10  A    between atoms: C_25  and  C_35
   11  A    between atoms: C_32  and  C_34
   12  A    between atoms: C_32  and  C_35
                            x       y       z     vdW  Elec       q    Type
                         _______ _______ _______ _____ _____    ______ ____

>  <TORSDO>
F 12

$$$$
=
 OpenBabel10222419583D

 36 38  0  0  1  0  0  0  0  0999 V2000
  184.4370  177.7080  141.6310 C   0  0  0  0  0  3  0  0  0  0  0  0
  182.2590  178.8320  141.7460 C   0  0  0  0  0  0  0  0  0  0  0  0
  183.6010  178.5750  143.7970 C   0  0  2  0  0  3  0  0  0  0  0  0
  183.2390  177.9340  141.0610 C   0  0  0  0  0  0  0  0  0  0  0  0
  184.8450  178.4010  142.9020 C   0  0  2  0  0  3  0  0  0  0  0  0
  185.5070  179.7270  142.5560 C   0  0  0  0  0  1  0  0  0  0  0  0
  182.4410  179.1540  143.0320 C   0  0  0  0  0  2  0  0  0  0  0  0
  185.4970  177.1030  136.2490 C   0  0  0  0  0  3  0  0  0  0  0  0
  183.6500  177.0590  138.6950 C   0  0  0  0  0  0  0  0  0  0  0  0
  181.8670  175.5890  138.5370 N   0  0  0  0  0  0  0  0  0  0  0  0
  184.7050  177.7800  138.4720 N   0  0  0  0  0  0  0  0  0  0  0  0
  186.7030  178.7230  137.4450 N   0  0  0  0  0  1  0  0  0  0  0  0
  184.5010  176.1360  135.9180 N   0  0  0  0  0  0  0  0  0  0  0  0
  183.3850  175.6090  136.6410 C   0  0  0  0  0  0  0  0  0  0  0  0
  183.0310  176.0530  137.8570 C   0  0  0  0  0  0  0  0  0  0  0  0
  181.7490  176.2720  139.8220 C   0  0  0  0  0  3  0  0  0  0  0  0
  182.8710  177.2040  139.8790 N   0  0  0  0  0  0  0  0  0  0  0  0
  185.6050  177.8230  137.3630 C   0  0  2  0  0  3  0  0  0  0  0  0
  181.6100  174.9550  135.0030 C   0  0  0  0  0  1  0  0  0  0  0  0
  182.9640  173.1780  136.0890 C   0  0  0  0  0  1  0  0  0  0  0  0
  182.6070  174.5850  135.9930 N   0  0  0  0  0  0  0  0  0  0  0  0
  181.1670  179.4360  141.0480 N   0  0  0  0  0  0  0  0  0  0  0  0
  180.2590  180.2980  141.6810 N   0  0  0  0  0  0  0  0  0  0  0  0
  179.3780  180.9780  141.0140 C   0  0  0  0  0  3  0  0  0  0  0  0
  179.2690  180.9110  139.5240 C   0  0  0  0  0  2  0  0  0  0  0  0
  179.3730  182.3020  138.9280 C   0  0  0  0  0  1  0  0  0  0  0  0
  183.8580  179.2720  145.1320 C   0  0  0  0  0  2  0  0  0  0  0  0
  184.3620  178.3420  146.1330 N   0  0  0  0  0  2  0  0  0  0  0  0
  185.7710  178.6370  146.3200 C   0  0  0  0  0  2  0  0  0  0  0  0
  186.6040  177.4220  145.9500 C   0  0  0  0  0  2  0  0  0  0  0  0
  188.0220  177.8350  145.5830 C   0  0  2  0  0  3  0  0  0  0  0  0
  187.6490  176.3350  143.6130 O   0  0  0  0  0  0  0  0  0  0  0  0
  189.7700  176.7820  144.3560 O   0  0  0  0  0  1  0  0  0  0  0  0
  188.5310  176.9590  144.4870 C   0  0  0  0  0  0  0  0  0  0  0  0
  188.9490  177.7390  146.7860 C   0  0  0  0  0  2  0  0  0  0  0  0
  188.4820  176.7740  147.6800 O   0  0  0  0  0  1  0  0  0  0  0  0
  1  5  1  0  0  0  0
  2  7  1  0  0  0  0
  3 27  1  1  0  0  0
  4  1  2  0  0  0  0
  4  2  1  0  0  0  0
  5  6  1  6  0  0  0
  5  3  1  0  0  0  0
  7  3  1  0  0  0  0
  8 18  1  0  0  0  0
  9 17  1  0  0  0  0
 10 16  2  0  0  0  0
 11  9  2  0  0  0  0
 13  8  2  0  0  0  0
 13 14  1  0  0  0  0
 14 15  2  0  0  0  0
 15 10  1  0  0  0  0
 15  9  1  0  0  0  0
 16 17  1  0  0  0  0
 17  4  1  0  0  0  0
 18 12  1  6  0  0  0
 18 11  1  0  0  0  0
 19 21  1  0  0  0  0
 21 20  1  0  0  0  0
 21 14  1  0  0  0  0
 22 23  1  0  0  0  0
 22  2  2  0  0  0  0
 24 23  2  0  0  0  0
 25 24  1  0  0  0  0
 26 25  1  0  0  0  0
 27 28  1  0  0  0  0
 28 29  1  0  0  0  0
 30 29  1  0  0  0  0
 31 30  1  1  0  0  0
 31 35  1  0  0  0  0
 32 34  2  0  0  0  0
 33 34  1  0  0  0  0
 34 31  1  0  0  0  0
 35 36  1  0  0  0  0
M  END
>  <MODEL>
4

>  <REMARK>
 VINA RESULT:      -6.6      2.429      5.821
  Name = 
  12 active torsions:
  status: ('A' for Active; 'I' for Inactive)
    1  A    between atoms: C_3  and  C_35
    2  A    between atoms: N_4  and  C_22
    3  A    between atoms: N_4  and  C_34
    4  A    between atoms: C_5  and  C_31
    5  A    between atoms: N_10  and  N_13
    6  A    between atoms: N_13  and  C_16
    7  A    between atoms: C_17  and  C_22
    8  A    between atoms: C_19  and  N_27
    9  A    between atoms: C_21  and  N_33
   10  A    between atoms: C_25  and  C_35
   11  A    between atoms: C_32  and  C_34
   12  A    between atoms: C_32  and  C_35
                            x       y       z     vdW  Elec       q    Type
                         _______ _______ _______ _____ _____    ______ ____

>  <TORSDO>
F 12

$$$$
=
 OpenBabel10222419583D

 36 38  0  0  1  0  0  0  0  0999 V2000
  186.4270  177.9370  142.5370 C   0  0  0  0  0  3  0  0  0  0  0  0
  187.7400  178.3870  140.5140 C   0  0  0  0  0  0  0  0  0  0  0  0
  188.7820  178.6850  142.7270 C   0  0  2  0  0  3  0  0  0  0  0  0
  186.4340  178.2020  141.2180 C   0  0  0  0  0  0  0  0  0  0  0  0
  187.7060  177.7450  143.3060 C   0  0  2  0  0  3  0  0  0  0  0  0
  188.1110  176.2800  143.2390 C   0  0  0  0  0  1  0  0  0  0  0  0
  188.8540  178.5940  141.2260 C   0  0  0  0  0  3  0  0  0  0  0  0
  181.3890  179.2300  142.7770 C   0  0  0  0  0  3  0  0  0  0  0  0
  183.9390  178.7510  141.1450 C   0  0  0  0  0  0  0  0  0  0  0  0
  183.7050  179.0740  138.8640 N   0  0  0  0  0  0  0  0  0  0  0  0
  183.7430  178.6330  142.4210 N   0  0  0  0  0  0  0  0  0  0  0  0
  182.7140  178.6640  144.6300 N   0  0  0  0  0  1  0  0  0  0  0  0
  180.9970  179.4930  141.4300 N   0  0  0  0  0  0  0  0  0  0  0  0
  181.7190  179.5000  140.1950 C   0  0  0  0  0  0  0  0  0  0  0  0
  183.0120  179.1510  140.1070 C   0  0  0  0  0  0  0  0  0  0  0  0
  185.0820  178.6520  139.0990 C   0  0  0  0  0  3  0  0  0  0  0  0
  185.1890  178.4360  140.5380 N   0  0  0  0  0  0  0  0  0  0  0  0
  182.5860  178.8620  143.2280 C   0  0  2  0  0  3  0  0  0  0  0  0
  180.1420  178.8870  138.3520 C   0  0  0  0  0  1  0  0  0  0  0  0
  180.8510  181.2560  138.5970 C   0  0  0  0  0  1  0  0  0  0  0  0
  180.9890  179.8670  139.0100 N   0  0  0  0  0  0  0  0  0  0  0  0
  187.8610  178.2680  139.0940 N   0  0  0  0  0  2  0  0  0  0  0  0
  188.7890  179.0170  138.3550 N   0  0  0  0  0  0  0  0  0  0  0  0
  189.0200  178.7820  137.1000 C   0  0  0  0  0  3  0  0  0  0  0  0
  188.3300  177.6880  136.3470 C   0  0  0  0  0  2  0  0  0  0  0  0
  187.1060  178.2350  135.6370 C   0  0  0  0  0  1  0  0  0  0  0  0
  190.1480  178.6000  143.4070 C   0  0  0  0  0  2  0  0  0  0  0  0
  191.0250  177.6570  142.7280 N   0  0  0  0  0  2  0  0  0  0  0  0
  191.6640  176.8530  143.7540 C   0  0  0  0  0  2  0  0  0  0  0  0
  191.4220  177.4750  145.1190 C   0  0  0  0  0  2  0  0  0  0  0  0
  190.8530  176.4440  146.0850 C   0  0  2  0  0  3  0  0  0  0  0  0
  188.9600  176.2580  147.7120 O   0  0  0  0  0  1  0  0  0  0  0  0
  189.2980  178.1910  146.5310 O   0  0  0  0  0  0  0  0  0  0  0  0
  189.6660  177.0150  146.7840 C   0  0  0  0  0  0  0  0  0  0  0  0
  191.8960  176.0220  147.1100 C   0  0  0  0  0  2  0  0  0  0  0  0
  192.0950  177.0400  148.0440 O   0  0  0  0  0  1  0  0  0  0  0  0
  1  5  1  0  0  0  0
  2  4  1  0  0  0  0
  2  7  2  0  0  0  0
  3  5  1  0  0  0  0
  3 27  1  1  0  0  0
  4  1  2  0  0  0  0
  5  6  1  6  0  0  0
  7  3  1  0  0  0  0
  8 18  1  0  0  0  0
  9 11  2  0  0  0  0
 10 16  2  0  0  0  0
 10 15  1  0  0  0  0
 11 18  1  0  0  0  0
 13  8  2  0  0  0  0
 14 13  1  0  0  0  0
 15 14  2  0  0  0  0
 15  9  1  0  0  0  0
 16 17  1  0  0  0  0
 17  9  1  0  0  0  0
 17  4  1  0  0  0  0
 18 12  1  6  0  0  0
 19 21  1  0  0  0  0
 20 21  1  0  0  0  0
 21 14  1  0  0  0  0
 22  2  1  0  0  0  0
 23 22  1  0  0  0  0
 24 23  2  0  0  0  0
 25 24  1  0  0  0  0
 26 25  1  0  0  0  0
 28 27  1  0  0  0  0
 28 29  1  0  0  0  0
 29 30  1  0  0  0  0
 31 30  1  6  0  0  0
 31 34  1  0  0  0  0
 31 35  1  0  0  0  0
 33 34  2  0  0  0  0
 34 32  1  0  0  0  0
 35 36  1  0  0  0  0
M  END
>  <MODEL>
5

>  <REMARK>
 VINA RESULT:      -6.5      1.684      2.896
  Name = 
  12 active torsions:
  status: ('A' for Active; 'I' for Inactive)
    1  A    between atoms: C_3  and  C_35
    2  A    between atoms: N_4  and  C_22
    3  A    between atoms: N_4  and  C_34
    4  A    between atoms: C_5  and  C_31
    5  A    between atoms: N_10  and  N_13
    6  A    between atoms: N_13  and  C_16
    7  A    between atoms: C_17  and  C_22
    8  A    between atoms: C_19  and  N_27
    9  A    between atoms: C_21  and  N_33
   10  A    between atoms: C_25  and  C_35
   11  A    between atoms: C_32  and  C_34
   12  A    between atoms: C_32  and  C_35
                            x       y       z     vdW  Elec       q    Type
                         _______ _______ _______ _____ _____    ______ ____

>  <TORSDO>
F 12

$$$$
=
 OpenBabel10222419583D

 36 38  0  0  1  0  0  0  0  0999 V2000
  186.8110  178.4050  141.9050 C   0  0  0  0  0  3  0  0  0  0  0  0
  186.3610  177.5980  144.1780 C   0  0  0  0  0  0  0  0  0  0  0  0
  188.2930  176.7070  142.9350 C   0  0  2  0  0  3  0  0  0  0  0  0
  185.9300  178.2700  142.9130 C   0  0  0  0  0  0  0  0  0  0  0  0
  188.2430  177.9680  142.0500 C   0  0  2  0  0  3  0  0  0  0  0  0
  189.0580  179.1190  142.6230 C   0  0  0  0  0  1  0  0  0  0  0  0
  187.4890  176.8780  144.1960 C   0  0  0  0  0  3  0  0  0  0  0  0
  182.6370  178.4580  138.6640 C   0  0  0  0  0  3  0  0  0  0  0  0
  183.8340  178.5740  141.4830 C   0  0  0  0  0  0  0  0  0  0  0  0
  182.3090  179.0270  143.1660 N   0  0  0  0  0  0  0  0  0  0  0  0
  184.4220  178.3660  140.3460 N   0  0  0  0  0  0  0  0  0  0  0  0
  184.8340  178.0090  137.9710 N   0  0  0  0  0  1  0  0  0  0  0  0
  181.5200  178.7390  139.5070 N   0  0  0  0  0  2  0  0  0  0  0  0
  181.3870  178.8700  140.9250 C   0  0  0  0  0  0  0  0  0  0  0  0
  182.4330  178.8080  141.7630 C   0  0  0  0  0  0  0  0  0  0  0  0
  183.6210  178.9080  143.7950 C   0  0  0  0  0  3  0  0  0  0  0  0
  184.5580  178.6460  142.7080 N   0  0  0  0  0  0  0  0  0  0  0  0
  183.9080  178.2830  139.0150 C   0  0  0  0  0  0  0  0  0  0  0  0
  179.2680  178.0080  141.9390 C   0  0  0  0  0  1  0  0  0  0  0  0
  179.5950  180.4620  141.7310 C   0  0  0  0  0  1  0  0  0  0  0  0
  180.0640  179.1150  141.4400 N   0  0  0  0  0  0  0  0  0  0  0  0
  185.6500  177.7670  145.4080 N   0  0  0  0  0  2  0  0  0  0  0  0
  185.8130  178.9010  146.2170 N   0  0  0  0  0  0  0  0  0  0  0  0
  186.6060  178.9040  147.2440 C   0  0  0  0  0  3  0  0  0  0  0  0
  187.3940  177.7010  147.6550 C   0  0  0  0  0  2  0  0  0  0  0  0
  188.5190  178.1060  148.5890 C   0  0  0  0  0  1  0  0  0  0  0  0
  189.6920  176.1430  143.1780 C   0  0  0  0  0  2  0  0  0  0  0  0
  190.4180  175.9570  141.9290 N   0  0  0  0  0  2  0  0  0  0  0  0
  191.4320  176.9940  141.8650 C   0  0  0  0  0  2  0  0  0  0  0  0
  191.7130  177.3490  140.4150 C   0  0  0  0  0  2  0  0  0  0  0  0
  190.6570  176.7470  139.5000 C   0  0  2  0  0  3  0  0  0  0  0  0
  192.2520  176.6060  137.5760 O   0  0  0  0  0  0  0  0  0  0  0  0
  191.0310  174.7760  138.2180 O   0  0  0  0  0  1  0  0  0  0  0  0
  191.3200  175.9870  138.4010 C   0  0  0  0  0  0  0  0  0  0  0  0
  189.7660  177.8300  138.9070 C   0  0  0  0  0  2  0  0  0  0  0  0
  188.5150  177.3030  138.5830 O   0  0  0  0  0  1  0  0  0  0  0  0
  1  5  1  0  0  0  0
  1  4  2  0  0  0  0
  2  7  2  0  0  0  0
  2 22  1  0  0  0  0
  3 27  1  1  0  0  0
  3  7  1  0  0  0  0
  4  2  1  0  0  0  0
  5  6  1  1  0  0  0
  5  3  1  0  0  0  0
  8 18  2  0  0  0  0
  8 13  1  0  0  0  0
  9 15  1  0  0  0  0
  9 17  1  0  0  0  0
 10 16  2  0  0  0  0
 11  9  2  0  0  0  0
 12 18  1  0  0  0  0
 13 14  1  0  0  0  0
 14 21  1  0  0  0  0
 14 15  2  0  0  0  0
 15 10  1  0  0  0  0
 17  4  1  0  0  0  0
 17 16  1  0  0  0  0
 18 11  1  0  0  0  0
 21 20  1  0  0  0  0
 21 19  1  0  0  0  0
 22 23  1  0  0  0  0
 23 24  2  0  0  0  0
 24 25  1  0  0  0  0
 25 26  1  0  0  0  0
 28 27  1  0  0  0  0
 29 28  1  0  0  0  0
 30 29  1  0  0  0  0
 31 35  1  6  0  0  0
 31 30  1  0  0  0  0
 32 34  2  0  0  0  0
 33 34  1  0  0  0  0
 34 31  1  0  0  0  0
 36 35  1  0  0  0  0
M  END
>  <MODEL>
6

>  <REMARK>
 VINA RESULT:      -6.4      3.346      5.406
  Name = 
  12 active torsions:
  status: ('A' for Active; 'I' for Inactive)
    1  A    between atoms: C_3  and  C_35
    2  A    between atoms: N_4  and  C_22
    3  A    between atoms: N_4  and  C_34
    4  A    between atoms: C_5  and  C_31
    5  A    between atoms: N_10  and  N_13
    6  A    between atoms: N_13  and  C_16
    7  A    between atoms: C_17  and  C_22
    8  A    between atoms: C_19  and  N_27
    9  A    between atoms: C_21  and  N_33
   10  A    between atoms: C_25  and  C_35
   11  A    between atoms: C_32  and  C_34
   12  A    between atoms: C_32  and  C_35
                            x       y       z     vdW  Elec       q    Type
                         _______ _______ _______ _____ _____    ______ ____

>  <TORSDO>
F 12

$$$$
=
 OpenBabel10222419583D

 36 38  0  0  1  0  0  0  0  0999 V2000
  186.9220  179.0060  141.6680 C   0  0  0  0  0  3  0  0  0  0  0  0
  186.8760  177.4870  143.5950 C   0  0  0  0  0  0  0  0  0  0  0  0
  188.5240  177.1200  141.8000 C   0  0  2  0  0  3  0  0  0  0  0  0
  186.2370  178.5180  142.7190 C   0  0  0  0  0  0  0  0  0  0  0  0
  188.3450  178.5990  141.4000 C   0  0  2  0  0  3  0  0  0  0  0  0
  189.2800  179.5290  142.1600 C   0  0  0  0  0  1  0  0  0  0  0  0
  187.9690  176.8420  143.1720 C   0  0  0  0  0  3  0  0  0  0  0  0
  181.6570  177.5420  140.0720 C   0  0  0  0  0  3  0  0  0  0  0  0
  183.7590  178.4760  142.0980 C   0  0  0  0  0  0  0  0  0  0  0  0
  182.8970  179.5300  143.9720 N   0  0  0  0  0  0  0  0  0  0  0  0
  183.9210  177.8840  140.9560 N   0  0  0  0  0  0  0  0  0  0  0  0
  183.4930  176.7670  138.8330 N   0  0  0  0  0  1  0  0  0  0  0  0
  180.8920  178.1420  141.1180 N   0  0  0  0  0  2  0  0  0  0  0  0
  181.2580  178.7250  142.3720 C   0  0  0  0  0  0  0  0  0  0  0  0
  182.5340  178.8700  142.7620 C   0  0  0  0  0  0  0  0  0  0  0  0
  184.3510  179.5390  144.1030 C   0  0  0  0  0  3  0  0  0  0  0  0
  184.8610  178.8910  142.9000 N   0  0  0  0  0  0  0  0  0  0  0  0
  182.9780  177.4130  139.9900 C   0  0  0  0  0  0  0  0  0  0  0  0
  179.4110  180.3570  142.8050 C   0  0  0  0  0  1  0  0  0  0  0  0
  179.6770  178.4050  144.3190 C   0  0  0  0  0  1  0  0  0  0  0  0
  180.1890  179.1990  143.2110 N   0  0  0  0  0  0  0  0  0  0  0  0
  186.4060  177.2200  144.9190 N   0  0  0  0  0  2  0  0  0  0  0  0
  186.5190  178.1580  145.9570 N   0  0  0  0  0  0  0  0  0  0  0  0
  187.4700  178.0960  146.8380 C   0  0  0  0  0  3  0  0  0  0  0  0
  188.5070  177.0190  146.8280 C   0  0  0  0  0  2  0  0  0  0  0  0
  189.8090  177.5520  146.2610 C   0  0  0  0  0  1  0  0  0  0  0  0
  189.9300  176.5600  141.5880 C   0  0  0  0  0  2  0  0  0  0  0  0
  190.5940  177.1960  140.4590 N   0  0  0  0  0  2  0  0  0  0  0  0
  190.5560  176.2550  139.3550 C   0  0  0  0  0  2  0  0  0  0  0  0
  190.2830  176.9960  138.0570 C   0  0  0  0  0  2  0  0  0  0  0  0
  188.7870  177.0680  137.7850 C   0  0  2  0  0  3  0  0  0  0  0  0
  189.0370  176.1200  135.4820 O   0  0  0  0  0  0  0  0  0  0  0  0
  187.5480  175.2080  136.9650 O   0  0  0  0  0  1  0  0  0  0  0  0
  188.4220  176.0810  136.7280 C   0  0  0  0  0  0  0  0  0  0  0  0
  188.3790  178.4660  137.3410 C   0  0  0  0  0  2  0  0  0  0  0  0
  189.0530  179.4280  138.0940 O   0  0  0  0  0  1  0  0  0  0  0  0
  1  4  2  0  0  0  0
  2 22  1  0  0  0  0
  3 27  1  1  0  0  0
  3  7  1  0  0  0  0
  4 17  1  0  0  0  0
  4  2  1  0  0  0  0
  5  1  1  0  0  0  0
  5  3  1  0  0  0  0
  5  6  1  1  0  0  0
  7  2  2  0  0  0  0
  8 13  1  0  0  0  0
  9 15  1  0  0  0  0
  9 17  1  0  0  0  0
 10 16  2  0  0  0  0
 11  9  2  0  0  0  0
 12 18  1  0  0  0  0
 13 14  1  0  0  0  0
 14 15  2  0  0  0  0
 14 21  1  0  0  0  0
 15 10  1  0  0  0  0
 17 16  1  0  0  0  0
 18  8  2  0  0  0  0
 18 11  1  0  0  0  0
 19 21  1  0  0  0  0
 21 20  1  0  0  0  0
 22 23  1  0  0  0  0
 23 24  2  0  0  0  0
 25 24  1  0  0  0  0
 26 25  1  0  0  0  0
 28 27  1  0  0  0  0
 29 28  1  0  0  0  0
 30 29  1  0  0  0  0
 31 35  1  6  0  0  0
 31 30  1  0  0  0  0
 32 34  2  0  0  0  0
 34 33  1  0  0  0  0
 34 31  1  0  0  0  0
 35 36  1  0  0  0  0
M  END
>  <MODEL>
7

>  <REMARK>
 VINA RESULT:      -6.3      3.644      5.886
  Name = 
  12 active torsions:
  status: ('A' for Active; 'I' for Inactive)
    1  A    between atoms: C_3  and  C_35
    2  A    between atoms: N_4  and  C_22
    3  A    between atoms: N_4  and  C_34
    4  A    between atoms: C_5  and  C_31
    5  A    between atoms: N_10  and  N_13
    6  A    between atoms: N_13  and  C_16
    7  A    between atoms: C_17  and  C_22
    8  A    between atoms: C_19  and  N_27
    9  A    between atoms: C_21  and  N_33
   10  A    between atoms: C_25  and  C_35
   11  A    between atoms: C_32  and  C_34
   12  A    between atoms: C_32  and  C_35
                            x       y       z     vdW  Elec       q    Type
                         _______ _______ _______ _____ _____    ______ ____

>  <TORSDO>
F 12

$$$$
=
 OpenBabel10222419583D

 36 38  0  0  1  0  0  0  0  0999 V2000
  186.2610  178.3910  143.1390 C   0  0  0  0  0  3  0  0  0  0  0  0
  184.9550  179.0750  141.1770 C   0  0  0  0  0  0  0  0  0  0  0  0
  183.7850  178.2990  143.2020 C   0  0  2  0  0  3  0  0  0  0  0  0
  186.2330  178.6310  141.8150 C   0  0  0  0  0  0  0  0  0  0  0  0
  185.0570  178.6360  144.0060 C   0  0  2  0  0  3  0  0  0  0  0  0
  185.0780  180.0790  144.4910 C   0  0  0  0  0  1  0  0  0  0  0  0
  183.8010  178.9400  141.8400 C   0  0  0  0  0  2  0  0  0  0  0  0
  191.3940  177.5380  142.8680 C   0  0  0  0  0  3  0  0  0  0  0  0
  188.6910  178.0060  141.5010 C   0  0  0  0  0  0  0  0  0  0  0  0
  188.6640  177.5590  139.2280 N   0  0  0  0  0  0  0  0  0  0  0  0
  189.0290  178.1840  142.7400 N   0  0  0  0  0  0  0  0  0  0  0  0
  190.2950  178.2370  144.8210 N   0  0  0  0  0  1  0  0  0  0  0  0
  191.6280  177.1930  141.5030 N   0  0  0  0  0  0  0  0  0  0  0  0
  190.7740  177.1440  140.3570 C   0  0  0  0  0  0  0  0  0  0  0  0
  189.4880  177.5260  140.3910 C   0  0  0  0  0  0  0  0  0  0  0  0
  187.3310  178.0330  139.5900 C   0  0  0  0  0  3  0  0  0  0  0  0
  187.3890  178.3250  141.0180 N   0  0  0  0  0  0  0  0  0  0  0  0
  190.2630  177.9630  143.4260 C   0  0  2  0  0  3  0  0  0  0  0  0
  192.7020  177.1210  138.7620 C   0  0  0  0  0  1  0  0  0  0  0  0
  190.7710  175.6140  138.3440 C   0  0  0  0  0  1  0  0  0  0  0  0
  191.3600  176.6950  139.1210 N   0  0  0  0  0  0  0  0  0  0  0  0
  184.9290  179.7250  139.9030 N   0  0  0  0  0  0  0  0  0  0  0  0
  183.7300  180.0080  139.2320 N   0  0  0  0  0  0  0  0  0  0  0  0
  183.2250  179.1960  138.3550 C   0  0  0  0  0  3  0  0  0  0  0  0
  183.8830  177.9070  137.9790 C   0  0  0  0  0  2  0  0  0  0  0  0
  183.1660  177.2770  136.8000 C   0  0  0  0  0  1  0  0  0  0  0  0
  182.4710  178.5040  143.9550 C   0  0  0  0  0  2  0  0  0  0  0  0
  181.5610  179.3690  143.2160 N   0  0  0  0  0  2  0  0  0  0  0  0
  180.2130  178.9080  143.4950 C   0  0  0  0  0  2  0  0  0  0  0  0
  179.3910  178.9210  142.2170 C   0  0  0  0  0  2  0  0  0  0  0  0
  180.2970  178.8760  140.9960 C   0  0  2  0  0  3  0  0  0  0  0  0
  179.5690  179.7730  138.7750 O   0  0  0  0  0  0  0  0  0  0  0  0
  180.0530  181.1940  140.5060 O   0  0  0  0  0  1  0  0  0  0  0  0
  179.9670  180.0110  140.0850 C   0  0  0  0  0  0  0  0  0  0  0  0
  180.1420  177.5600  140.2470 C   0  0  0  0  0  2  0  0  0  0  0  0
  181.3620  176.8850  140.1980 O   0  0  0  0  0  1  0  0  0  0  0  0
  1  5  1  0  0  0  0
  2  4  1  0  0  0  0
  2  7  1  0  0  0  0
  3 27  1  1  0  0  0
  3  5  1  0  0  0  0
  4  1  2  0  0  0  0
  5  6  1  6  0  0  0
  7  3  1  0  0  0  0
  8 18  1  0  0  0  0
  9 11  2  0  0  0  0
 10 16  2  0  0  0  0
 10 15  1  0  0  0  0
 11 18  1  0  0  0  0
 13  8  2  0  0  0  0
 14 15  2  0  0  0  0
 14 13  1  0  0  0  0
 15  9  1  0  0  0  0
 16 17  1  0  0  0  0
 17  9  1  0  0  0  0
 17  4  1  0  0  0  0
 18 12  1  6  0  0  0
 19 21  1  0  0  0  0
 20 21  1  0  0  0  0
 21 14  1  0  0  0  0
 22  2  2  0  0  0  0
 23 22  1  0  0  0  0
 24 23  2  0  0  0  0
 25 24  1  0  0  0  0
 26 25  1  0  0  0  0
 28 29  1  0  0  0  0
 28 27  1  0  0  0  0
 30 29  1  0  0  0  0
 31 35  1  6  0  0  0
 31 30  1  0  0  0  0
 32 34  2  0  0  0  0
 34 33  1  0  0  0  0
 34 31  1  0  0  0  0
 36 35  1  0  0  0  0
M  END
>  <MODEL>
8

>  <REMARK>
 VINA RESULT:      -6.1      4.240      9.050
  Name = 
  12 active torsions:
  status: ('A' for Active; 'I' for Inactive)
    1  A    between atoms: C_3  and  C_35
    2  A    between atoms: N_4  and  C_22
    3  A    between atoms: N_4  and  C_34
    4  A    between atoms: C_5  and  C_31
    5  A    between atoms: N_10  and  N_13
    6  A    between atoms: N_13  and  C_16
    7  A    between atoms: C_17  and  C_22
    8  A    between atoms: C_19  and  N_27
    9  A    between atoms: C_21  and  N_33
   10  A    between atoms: C_25  and  C_35
   11  A    between atoms: C_32  and  C_34
   12  A    between atoms: C_32  and  C_35
                            x       y       z     vdW  Elec       q    Type
                         _______ _______ _______ _____ _____    ______ ____

>  <TORSDO>
F 12

$$$$
=
 OpenBabel10222419583D

 36 38  0  0  1  0  0  0  0  0999 V2000
  189.9920  176.3530  136.5350 C   0  0  0  0  0  3  0  0  0  0  0  0
  189.9180  176.7610  138.9530 C   0  0  0  0  0  0  0  0  0  0  0  0
  188.3440  177.9470  137.4740 C   0  0  2  0  0  3  0  0  0  0  0  0
  190.6180  176.2760  137.7240 C   0  0  0  0  0  0  0  0  0  0  0  0
  188.5740  176.8420  136.4240 C   0  0  2  0  0  3  0  0  0  0  0  0
  187.6260  175.6630  136.5980 C   0  0  0  0  0  1  0  0  0  0  0  0
  188.8310  177.5320  138.8370 C   0  0  0  0  0  3  0  0  0  0  0  0
  193.4450  172.2440  135.5580 C   0  0  0  0  0  3  0  0  0  0  0  0
  192.5710  174.7640  137.0680 C   0  0  0  0  0  0  0  0  0  0  0  0
  194.3050  175.9920  137.9900 N   0  0  0  0  0  0  0  0  0  0  0  0
  191.8470  173.8710  136.4690 N   0  0  0  0  0  0  0  0  0  0  0  0
  191.1520  171.9300  135.1700 N   0  0  0  0  0  1  0  0  0  0  0  0
  194.6680  172.8180  136.0170 N   0  0  0  0  0  2  0  0  0  0  0  0
  194.9640  174.0190  136.7370 C   0  0  0  0  0  0  0  0  0  0  0  0
  194.0110  174.8440  137.1980 C   0  0  0  0  0  0  0  0  0  0  0  0
  193.0620  176.6680  138.3470 C   0  0  0  0  0  3  0  0  0  0  0  0
  191.9920  175.8590  137.7720 N   0  0  0  0  0  0  0  0  0  0  0  0
  192.2060  172.6960  135.7380 C   0  0  0  0  0  0  0  0  0  0  0  0
  197.0350  173.6470  138.0910 C   0  0  0  0  0  1  0  0  0  0  0  0
  197.1730  175.0240  136.0270 C   0  0  0  0  0  1  0  0  0  0  0  0
  196.3520  174.3060  136.9910 N   0  0  0  0  0  0  0  0  0  0  0  0
  190.3220  176.3590  140.2650 N   0  0  0  0  0  2  0  0  0  0  0  0
  190.8640  177.2620  141.1910 N   0  0  0  0  0  0  0  0  0  0  0  0
  190.6900  177.1220  142.4700 C   0  0  0  0  0  3  0  0  0  0  0  0
  189.8890  176.0030  143.0550 C   0  0  0  0  0  2  0  0  0  0  0  0
  188.4510  176.4400  143.2590 C   0  0  0  0  0  1  0  0  0  0  0  0
  186.9370  178.5440  137.4870 C   0  0  0  0  0  2  0  0  0  0  0  0
  186.4040  178.6270  138.8400 N   0  0  0  0  0  2  0  0  0  0  0  0
  185.0170  178.2020  138.7800 C   0  0  0  0  0  2  0  0  0  0  0  0
  184.1710  179.0810  139.6850 C   0  0  0  0  0  2  0  0  0  0  0  0
  183.7260  178.3090  140.9190 C   0  0  2  0  0  3  0  0  0  0  0  0
  181.3900  179.0310  140.3790 O   0  0  0  0  0  0  0  0  0  0  0  0
  182.1030  178.9140  142.5530 O   0  0  0  0  0  1  0  0  0  0  0  0
  182.3660  178.7650  141.3320 C   0  0  0  0  0  0  0  0  0  0  0  0
  184.7020  178.5070  142.0700 C   0  0  0  0  0  2  0  0  0  0  0  0
  185.3220  179.7530  141.9680 O   0  0  0  0  0  1  0  0  0  0  0  0
  1  4  2  0  0  0  0
  2 22  1  0  0  0  0
  3 27  1  1  0  0  0
  3  7  1  0  0  0  0
  4 17  1  0  0  0  0
  4  2  1  0  0  0  0
  5  1  1  0  0  0  0
  5  6  1  1  0  0  0
  5  3  1  0  0  0  0
  7  2  2  0  0  0  0
  8 18  2  0  0  0  0
  8 13  1  0  0  0  0
  9 15  1  0  0  0  0
  9 17  1  0  0  0  0
 10 16  2  0  0  0  0
 11  9  2  0  0  0  0
 12 18  1  0  0  0  0
 13 14  1  0  0  0  0
 14 21  1  0  0  0  0
 14 15  2  0  0  0  0
 15 10  1  0  0  0  0
 17 16  1  0  0  0  0
 18 11  1  0  0  0  0
 20 21  1  0  0  0  0
 21 19  1  0  0  0  0
 22 23  1  0  0  0  0
 23 24  2  0  0  0  0
 24 25  1  0  0  0  0
 25 26  1  0  0  0  0
 27 28  1  0  0  0  0
 29 28  1  0  0  0  0
 29 30  1  0  0  0  0
 31 30  1  6  0  0  0
 31 34  1  0  0  0  0
 31 35  1  0  0  0  0
 32 34  2  0  0  0  0
 34 33  1  0  0  0  0
 36 35  1  0  0  0  0
M  END
>  <MODEL>
9

>  <REMARK>
 VINA RESULT:      -6.1      6.202     10.827
  Name = 
  12 active torsions:
  status: ('A' for Active; 'I' for Inactive)
    1  A    between atoms: C_3  and  C_35
    2  A    between atoms: N_4  and  C_22
    3  A    between atoms: N_4  and  C_34
    4  A    between atoms: C_5  and  C_31
    5  A    between atoms: N_10  and  N_13
    6  A    between atoms: N_13  and  C_16
    7  A    between atoms: C_17  and  C_22
    8  A    between atoms: C_19  and  N_27
    9  A    between atoms: C_21  and  N_33
   10  A    between atoms: C_25  and  C_35
   11  A    between atoms: C_32  and  C_34
   12  A    between atoms: C_32  and  C_35
                            x       y       z     vdW  Elec       q    Type
                         _______ _______ _______ _____ _____    ______ ____

>  <TORSDO>
F 12

$$$$
