=
 OpenBabel10222415383D

 40 46  0  0  1  0  0  0  0  0999 V2000
  189.3560  177.2080  145.0920 C   0  0  0  0  0  0  0  0  0  0  0  0
  190.5690  176.7560  144.6140 C   0  0  0  0  0  0  0  0  0  0  0  0
  189.1040  177.2150  146.4670 C   0  0  0  0  0  3  0  0  0  0  0  0
  190.1100  176.7870  147.3470 C   0  0  0  0  0  3  0  0  0  0  0  0
  191.5720  176.2880  145.4660 C   0  0  0  0  0  3  0  0  0  0  0  0
  191.3380  176.3200  146.8470 C   0  0  0  0  0  0  0  0  0  0  0  0
  188.1360  177.6050  142.4810 C   0  0  2  0  0  3  0  0  0  0  0  0
  187.7860  176.1010  143.9920 O   0  0  0  0  0  1  0  0  0  0  0  0
  192.5820  175.7750  147.9500 Cl  0  0  0  0  0  0  0  0  0  0  0  0
  188.3030  177.4010  144.0220 C   0  0  2  0  0  0  0  0  0  0  0  0
  189.4370  177.9040  143.0000 C   0  0  1  0  0  0  0  0  0  0  0  0
  190.5610  176.8630  143.1480 C   0  0  1  0  0  3  0  0  0  0  0  0
  191.1490  179.5430  143.8780 C   0  0  0  0  0  1  0  0  0  0  0  0
  189.7920  179.3960  143.2110 C   0  0  0  0  0  2  0  0  0  0  0  0
  187.2080  178.7940  142.2400 C   0  0  0  0  0  2  0  0  0  0  0  0
  181.5420  178.7930  142.1800 C   0  0  0  0  0  2  0  0  0  0  0  0
  185.0570  178.8570  140.9300 C   0  0  0  0  0  2  0  0  0  0  0  0
  183.6410  178.4640  140.8970 N   0  0  0  0  0  2  0  0  0  0  0  0
  185.7570  178.3360  142.2010 C   0  0  2  0  0  3  0  0  0  0  0  0
  181.2810  178.7660  143.6800 C   0  0  0  0  0  2  0  0  0  0  0  0
  183.5700  178.2940  143.2620 N   0  0  1  0  0  0  0  0  0  0  0  0
  185.0840  180.2100  143.8090 C   0  0  0  0  0  1  0  0  0  0  0  0
  184.9600  178.7170  143.4710 C   0  0  2  0  0  3  0  0  0  0  0  0
  182.6540  178.6410  144.3360 C   0  0  0  0  0  2  0  0  0  0  0  0
  183.0310  178.9920  142.1090 C   0  0  2  0  0  3  0  0  0  0  0  0
  191.9120  177.1990  142.4890 C   0  0  0  0  0  2  0  0  0  0  0  0
  192.0510  176.6780  141.1300 N   0  0  0  0  0  0  0  0  0  0  0  0
  192.7510  177.6720  140.3270 C   0  0  0  0  0  2  0  0  0  0  0  0
  193.8900  177.1010  139.7600 O   0  0  0  0  0  1  0  0  0  0  0  0
  190.7730  176.4580  140.5770 N   0  0  0  0  0  2  0  0  0  0  0  0
  187.7050  178.2030  137.5750 C   0  0  0  0  0  0  0  0  0  0  0  0
  190.4160  176.4980  139.1830 C   0  0  0  0  0  0  0  0  0  0  0  0
  190.8180  175.5460  138.2440 C   0  0  0  0  0  3  0  0  0  0  0  0
  188.4350  178.2450  138.9050 C   0  0  0  0  0  2  0  0  0  0  0  0
  189.4560  176.9870  137.2740 N   0  0  0  0  0  0  0  0  0  0  0  0
  188.2950  177.4670  136.6820 N   0  0  0  0  0  0  0  0  0  0  0  0
  189.5730  177.3660  138.5260 C   0  0  0  0  0  0  0  0  0  0  0  0
  190.1490  175.8590  137.0550 C   0  0  0  0  0  3  0  0  0  0  0  0
  185.3350  178.3290  137.6680 F   0  0  0  0  0  0  0  0  0  0  0  0
  186.5140  178.8700  137.3140 O   0  0  0  0  0  0  0  0  0  0  0  0
  1  3  1  0  0  0  0
  2  1  2  0  0  0  0
  2  5  1  0  0  0  0
  3  4  2  0  0  0  0
  5  6  2  0  0  0  0
  6  4  1  0  0  0  0
  6  9  1  0  0  0  0
  7 15  1  1  0  0  0
  7 11  1  0  0  0  0
  7 10  1  0  0  0  0
 10  8  1  6  0  0  0
 10  1  1  0  0  0  0
 11 12  1  0  0  0  0
 11 14  1  1  0  0  0
 11 10  1  0  0  0  0
 12 26  1  1  0  0  0
 12  2  1  0  0  0  0
 14 13  1  0  0  0  0
 16 20  1  0  0  0  0
 17 19  1  0  0  0  0
 18 17  1  0  0  0  0
 18 25  1  0  0  0  0
 19 15  1  1  0  0  0
 19 23  1  0  0  0  0
 20 24  1  0  0  0  0
 21 23  1  0  0  0  0
 21 24  1  1  0  0  0
 23 22  1  6  0  0  0
 25 16  1  6  0  0  0
 25 21  1  0  0  0  0
 27 26  1  0  0  0  0
 28 27  1  0  0  0  0
 29 28  1  0  0  0  0
 30 27  1  0  0  0  0
 31 34  1  0  0  0  0
 32 30  1  0  0  0  0
 33 32  1  0  0  0  0
 35 37  1  0  0  0  0
 36 35  1  0  0  0  0
 36 31  2  0  0  0  0
 37 34  1  0  0  0  0
 37 32  2  0  0  0  0
 38 35  1  0  0  0  0
 38 33  2  0  0  0  0
 40 31  1  0  0  0  0
 40 39  1  0  0  0  0
M  END
>  <MODEL>
1

>  <REMARK>
 VINA RESULT:      -8.5      0.000      0.000
  Name = 
  9 active torsions:
  status: ('A' for Active; 'I' for Inactive)
    1  A    between atoms: C_4  and  O_33
    2  A    between atoms: C_9  and  N_21
    3  A    between atoms: C_11  and  C_32
    4  A    between atoms: C_12  and  N_19
    5  A    between atoms: C_15  and  C_37
    6  A    between atoms: N_19  and  N_21
    7  A    between atoms: N_19  and  C_35
    8  A    between atoms: C_23  and  C_32
    9  A    between atoms: C_35  and  C_38
                            x       y       z     vdW  Elec       q    Type
                         _______ _______ _______ _____ _____    ______ ____

>  <TORSDO>
F 9

$$$$
=
 OpenBabel10222415383D

 40 46  0  0  1  0  0  0  0  0999 V2000
  181.6970  176.0260  136.8310 C   0  0  0  0  0  0  0  0  0  0  0  0
  182.7230  175.9520  137.7500 C   0  0  0  0  0  0  0  0  0  0  0  0
  181.4070  174.9280  136.0160 C   0  0  0  0  0  3  0  0  0  0  0  0
  182.1520  173.7480  136.1700 C   0  0  0  0  0  3  0  0  0  0  0  0
  183.5040  174.8040  137.8960 C   0  0  0  0  0  3  0  0  0  0  0  0
  183.2010  173.6880  137.1040 C   0  0  0  0  0  0  0  0  0  0  0  0
  181.0850  178.8320  137.2930 C   0  0  2  0  0  3  0  0  0  0  0  0
  182.0510  177.8500  135.6280 O   0  0  0  0  0  1  0  0  0  0  0  0
  184.1340  172.2190  137.2790 Cl  0  0  0  0  0  0  0  0  0  0  0  0
  181.1570  177.4240  136.6180 C   0  0  2  0  0  0  0  0  0  0  0  0
  181.3780  177.7440  138.1770 C   0  0  1  0  0  0  0  0  0  0  0  0
  182.8010  177.2340  138.4660 C   0  0  1  0  0  3  0  0  0  0  0  0
  180.0540  178.0460  140.3090 C   0  0  0  0  0  1  0  0  0  0  0  0
  180.2190  177.2080  139.0530 C   0  0  0  0  0  2  0  0  0  0  0  0
  179.6370  179.3170  137.2640 C   0  0  0  0  0  2  0  0  0  0  0  0
  180.7790  184.7220  136.0040 C   0  0  0  0  0  2  0  0  0  0  0  0
  180.7740  180.9980  135.7720 C   0  0  0  0  0  2  0  0  0  0  0  0
  180.7380  182.3630  135.2300 N   0  0  0  0  0  2  0  0  0  0  0  0
  179.5570  180.7180  136.6750 C   0  0  2  0  0  3  0  0  0  0  0  0
  180.0500  185.4020  137.1550 C   0  0  0  0  0  2  0  0  0  0  0  0
  179.4150  183.1160  137.0490 N   0  0  1  0  0  0  0  0  0  0  0  0
  180.4510  181.7240  138.8520 C   0  0  0  0  0  1  0  0  0  0  0  0
  179.3920  181.8230  137.7450 C   0  0  2  0  0  3  0  0  0  0  0  0
  179.3440  184.2810  137.9160 C   0  0  0  0  0  2  0  0  0  0  0  0
  180.6900  183.2660  136.3720 C   0  0  2  0  0  3  0  0  0  0  0  0
  183.2270  177.1570  139.9440 C   0  0  0  0  0  2  0  0  0  0  0  0
  183.7870  178.4030  140.4620 N   0  0  0  0  0  0  0  0  0  0  0  0
  184.7020  178.9450  139.4650 C   0  0  0  0  0  2  0  0  0  0  0  0
  184.3260  180.2480  139.1400 O   0  0  0  0  0  1  0  0  0  0  0  0
  184.5040  178.1410  141.6480 N   0  0  0  0  0  2  0  0  0  0  0  0
  185.9440  178.1100  146.0510 C   0  0  0  0  0  0  0  0  0  0  0  0
  184.1560  178.5650  142.9790 C   0  0  0  0  0  0  0  0  0  0  0  0
  182.8580  178.8750  143.3880 C   0  0  0  0  0  3  0  0  0  0  0  0
  186.2220  178.0330  144.5610 C   0  0  0  0  0  2  0  0  0  0  0  0
  184.2120  178.9950  145.1270 N   0  0  0  0  0  0  0  0  0  0  0  0
  184.7920  178.6380  146.3380 N   0  0  0  0  0  0  0  0  0  0  0  0
  184.9540  178.6560  144.0980 C   0  0  0  0  0  0  0  0  0  0  0  0
  182.9230  179.0940  144.7690 C   0  0  0  0  0  3  0  0  0  0  0  0
  187.9030  178.3750  147.3680 F   0  0  0  0  0  0  0  0  0  0  0  0
  186.8140  177.6580  147.0360 O   0  0  0  0  0  0  0  0  0  0  0  0
  1  2  1  0  0  0  0
  2  5  2  0  0  0  0
  2 12  1  0  0  0  0
  3  4  1  0  0  0  0
  3  1  2  0  0  0  0
  4  6  2  0  0  0  0
  6  9  1  0  0  0  0
  6  5  1  0  0  0  0
  7 15  1  1  0  0  0
  7 11  1  0  0  0  0
 10  8  1  6  0  0  0
 10  1  1  0  0  0  0
 10  7  1  0  0  0  0
 10 11  1  0  0  0  0
 11 12  1  0  0  0  0
 11 14  1  1  0  0  0
 12 26  1  1  0  0  0
 14 13  1  0  0  0  0
 16 20  1  0  0  0  0
 17 19  1  0  0  0  0
 18 17  1  0  0  0  0
 18 25  1  0  0  0  0
 19 15  1  1  0  0  0
 19 23  1  0  0  0  0
 20 24  1  0  0  0  0
 21 23  1  0  0  0  0
 21 24  1  1  0  0  0
 23 22  1  1  0  0  0
 25 16  1  6  0  0  0
 25 21  1  0  0  0  0
 26 27  1  0  0  0  0
 27 30  1  0  0  0  0
 28 27  1  0  0  0  0
 29 28  1  0  0  0  0
 30 32  1  0  0  0  0
 31 36  2  0  0  0  0
 31 40  1  0  0  0  0
 32 33  1  0  0  0  0
 32 37  2  0  0  0  0
 33 38  2  0  0  0  0
 34 31  1  0  0  0  0
 35 36  1  0  0  0  0
 37 34  1  0  0  0  0
 37 35  1  0  0  0  0
 38 35  1  0  0  0  0
 40 39  1  0  0  0  0
M  END
>  <MODEL>
2

>  <REMARK>
 VINA RESULT:      -8.3      5.608      9.730
  Name = 
  9 active torsions:
  status: ('A' for Active; 'I' for Inactive)
    1  A    between atoms: C_4  and  O_33
    2  A    between atoms: C_9  and  N_21
    3  A    between atoms: C_11  and  C_32
    4  A    between atoms: C_12  and  N_19
    5  A    between atoms: C_15  and  C_37
    6  A    between atoms: N_19  and  N_21
    7  A    between atoms: N_19  and  C_35
    8  A    between atoms: C_23  and  C_32
    9  A    between atoms: C_35  and  C_38
                            x       y       z     vdW  Elec       q    Type
                         _______ _______ _______ _____ _____    ______ ____

>  <TORSDO>
F 9

$$$$
=
 OpenBabel10222415383D

 40 46  0  0  1  0  0  0  0  0999 V2000
  184.4860  178.3700  141.3590 C   0  0  0  0  0  0  0  0  0  0  0  0
  183.2840  178.6800  141.9640 C   0  0  0  0  0  0  0  0  0  0  0  0
  185.6310  178.1750  142.1370 C   0  0  0  0  0  3  0  0  0  0  0  0
  185.5310  178.2660  143.5340 C   0  0  0  0  0  3  0  0  0  0  0  0
  183.1670  178.8160  143.3490 C   0  0  0  0  0  3  0  0  0  0  0  0
  184.3040  178.5920  144.1380 C   0  0  0  0  0  0  0  0  0  0  0  0
  183.5210  178.6370  138.6280 C   0  0  2  0  0  3  0  0  0  0  0  0
  184.8250  179.9020  139.7980 O   0  0  0  0  0  1  0  0  0  0  0  0
  184.1910  178.7190  145.8790 Cl  0  0  0  0  0  0  0  0  0  0  0  0
  184.4840  178.5450  139.8560 C   0  0  2  0  0  0  0  0  0  0  0  0
  182.9610  178.0340  139.8000 C   0  0  1  0  0  0  0  0  0  0  0  0
  182.2610  178.8250  140.9190 C   0  0  1  0  0  3  0  0  0  0  0  0
  181.6100  176.0120  139.1130 C   0  0  0  0  0  1  0  0  0  0  0  0
  182.8630  176.4890  139.8270 C   0  0  0  0  0  2  0  0  0  0  0  0
  184.0180  177.6850  137.5410 C   0  0  0  0  0  2  0  0  0  0  0  0
  189.4510  176.6210  136.3380 C   0  0  0  0  0  2  0  0  0  0  0  0
  186.2990  178.5370  136.8980 C   0  0  0  0  0  2  0  0  0  0  0  0
  187.7490  178.3100  136.9780 N   0  0  0  0  0  2  0  0  0  0  0  0
  185.5170  177.4610  137.6760 C   0  0  2  0  0  3  0  0  0  0  0  0
  189.4350  175.1030  136.4540 C   0  0  0  0  0  2  0  0  0  0  0  0
  187.4270  175.9910  137.3570 N   0  0  1  0  0  0  0  0  0  0  0  0
  185.4450  175.6520  135.8660 C   0  0  0  0  0  1  0  0  0  0  0  0
  185.9630  176.0390  137.2600 C   0  0  2  0  0  3  0  0  0  0  0  0
  188.0300  174.7400  136.9290 C   0  0  0  0  0  2  0  0  0  0  0  0
  187.9930  176.9740  136.4520 C   0  0  2  0  0  3  0  0  0  0  0  0
  180.8380  178.3760  141.3020 C   0  0  0  0  0  2  0  0  0  0  0  0
  179.8690  179.4700  141.3560 N   0  0  0  0  0  0  0  0  0  0  0  0
  178.9890  179.2480  142.4960 C   0  0  0  0  0  2  0  0  0  0  0  0
  179.3650  178.0810  143.1610 O   0  0  0  0  0  1  0  0  0  0  0  0
  179.0990  179.4740  140.1750 N   0  0  0  0  0  2  0  0  0  0  0  0
  180.8140  182.3940  137.0130 C   0  0  0  0  0  0  0  0  0  0  0  0
  179.5880  179.5550  138.8240 C   0  0  0  0  0  0  0  0  0  0  0  0
  179.2950  178.6230  137.8270 C   0  0  0  0  0  3  0  0  0  0  0  0
  180.5420  182.0060  138.4550 C   0  0  0  0  0  2  0  0  0  0  0  0
  180.4740  180.2700  136.9500 N   0  0  0  0  0  0  0  0  0  0  0  0
  180.7460  181.3960  136.1850 N   0  0  0  0  0  0  0  0  0  0  0  0
  180.3220  180.5540  138.2230 C   0  0  0  0  0  0  0  0  0  0  0  0
  179.8310  179.1330  136.6400 C   0  0  0  0  0  3  0  0  0  0  0  0
  181.9670  184.4550  137.2720 F   0  0  0  0  0  0  0  0  0  0  0  0
  181.0990  183.6870  136.5900 O   0  0  0  0  0  0  0  0  0  0  0  0
  1  2  2  0  0  0  0
  1  3  1  0  0  0  0
  2  5  1  0  0  0  0
  3  4  2  0  0  0  0
  4  6  1  0  0  0  0
  5  6  2  0  0  0  0
  6  9  1  0  0  0  0
  7 15  1  6  0  0  0
  7 11  1  0  0  0  0
  7 10  1  0  0  0  0
 10  8  1  1  0  0  0
 10  1  1  0  0  0  0
 11 14  1  6  0  0  0
 11 10  1  0  0  0  0
 11 12  1  0  0  0  0
 12 26  1  1  0  0  0
 12  2  1  0  0  0  0
 13 14  1  0  0  0  0
 16 20  1  0  0  0  0
 17 18  1  0  0  0  0
 17 19  1  0  0  0  0
 19 15  1  6  0  0  0
 20 24  1  0  0  0  0
 21 24  1  6  0  0  0
 23 22  1  6  0  0  0
 23 21  1  0  0  0  0
 23 19  1  0  0  0  0
 25 16  1  1  0  0  0
 25 18  1  0  0  0  0
 25 21  1  0  0  0  0
 26 27  1  0  0  0  0
 27 28  1  0  0  0  0
 28 29  1  0  0  0  0
 30 27  1  0  0  0  0
 31 34  1  0  0  0  0
 32 30  1  0  0  0  0
 33 32  1  0  0  0  0
 35 37  1  0  0  0  0
 36 35  1  0  0  0  0
 36 31  2  0  0  0  0
 37 34  1  0  0  0  0
 37 32  2  0  0  0  0
 38 35  1  0  0  0  0
 38 33  2  0  0  0  0
 40 31  1  0  0  0  0
 40 39  1  0  0  0  0
M  END
>  <MODEL>
3

>  <REMARK>
 VINA RESULT:      -8.3      4.460      9.023
  Name = 
  9 active torsions:
  status: ('A' for Active; 'I' for Inactive)
    1  A    between atoms: C_4  and  O_33
    2  A    between atoms: C_9  and  N_21
    3  A    between atoms: C_11  and  C_32
    4  A    between atoms: C_12  and  N_19
    5  A    between atoms: C_15  and  C_37
    6  A    between atoms: N_19  and  N_21
    7  A    between atoms: N_19  and  C_35
    8  A    between atoms: C_23  and  C_32
    9  A    between atoms: C_35  and  C_38
                            x       y       z     vdW  Elec       q    Type
                         _______ _______ _______ _____ _____    ______ ____

>  <TORSDO>
F 9

$$$$
=
 OpenBabel10222415383D

 40 46  0  0  1  0  0  0  0  0999 V2000
  180.9410  177.6730  139.9410 C   0  0  0  0  0  0  0  0  0  0  0  0
  181.6580  178.0770  141.0490 C   0  0  0  0  0  0  0  0  0  0  0  0
  179.5800  177.9740  139.8400 C   0  0  0  0  0  3  0  0  0  0  0  0
  178.9670  178.7150  140.8630 C   0  0  0  0  0  3  0  0  0  0  0  0
  181.0630  178.7810  142.0980 C   0  0  0  0  0  3  0  0  0  0  0  0
  179.7050  179.1120  141.9910 C   0  0  0  0  0  0  0  0  0  0  0  0
  183.1090  176.1680  138.7170 C   0  0  2  0  0  3  0  0  0  0  0  0
  181.3050  175.5030  139.7040 O   0  0  0  0  0  1  0  0  0  0  0  0
  178.9310  180.0230  143.2680 Cl  0  0  0  0  0  0  0  0  0  0  0  0
  181.6740  176.6880  139.0560 C   0  0  2  0  0  0  0  0  0  0  0  0
  183.0580  177.4450  139.3630 C   0  0  1  0  0  0  0  0  0  0  0  0
  183.0500  177.6340  140.8900 C   0  0  1  0  0  3  0  0  0  0  0  0
  184.6940  179.1570  138.4780 C   0  0  0  0  0  1  0  0  0  0  0  0
  183.2460  178.6990  138.4730 C   0  0  0  0  0  2  0  0  0  0  0  0
  183.2890  176.1760  137.2000 C   0  0  0  0  0  2  0  0  0  0  0  0
  187.3430  172.2500  136.7020 C   0  0  0  0  0  2  0  0  0  0  0  0
  184.2650  173.9690  137.9210 C   0  0  0  0  0  2  0  0  0  0  0  0
  185.0660  172.8050  137.5200 N   0  0  0  0  0  2  0  0  0  0  0  0
  184.0800  174.9560  136.7520 C   0  0  2  0  0  3  0  0  0  0  0  0
  188.2130  172.9270  135.6510 C   0  0  0  0  0  2  0  0  0  0  0  0
  186.1260  174.0500  135.8010 N   0  0  1  0  0  0  0  0  0  0  0  0
  186.2770  176.2490  136.9870 C   0  0  0  0  0  1  0  0  0  0  0  0
  185.4390  175.3120  136.1040 C   0  0  2  0  0  3  0  0  0  0  0  0
  187.4630  174.1960  135.2490 C   0  0  0  0  0  2  0  0  0  0  0  0
  186.3400  173.3200  137.0370 C   0  0  2  0  0  3  0  0  0  0  0  0
  184.1250  178.5640  141.4820 C   0  0  0  0  0  2  0  0  0  0  0  0
  184.7960  178.0160  142.6590 N   0  0  0  0  0  0  0  0  0  0  0  0
  184.1790  178.5900  143.8480 C   0  0  0  0  0  2  0  0  0  0  0  0
  184.5760  179.9200  143.9880 O   0  0  0  0  0  1  0  0  0  0  0  0
  186.1600  178.3730  142.6320 N   0  0  0  0  0  2  0  0  0  0  0  0
  188.5420  177.5940  146.5300 C   0  0  0  0  0  0  0  0  0  0  0  0
  187.2600  177.6250  143.1840 C   0  0  0  0  0  0  0  0  0  0  0  0
  188.2950  177.0790  142.4230 C   0  0  0  0  0  3  0  0  0  0  0  0
  187.2810  178.0340  145.8080 C   0  0  0  0  0  2  0  0  0  0  0  0
  188.7140  176.7380  144.5630 N   0  0  0  0  0  0  0  0  0  0  0  0
  189.3410  176.8830  145.7940 N   0  0  0  0  0  0  0  0  0  0  0  0
  187.5730  177.3830  144.5030 C   0  0  0  0  0  0  0  0  0  0  0  0
  189.2260  176.5670  143.3340 C   0  0  0  0  0  3  0  0  0  0  0  0
  188.1040  178.8200  148.5170 F   0  0  0  0  0  0  0  0  0  0  0  0
  188.8430  177.9170  147.8480 O   0  0  0  0  0  0  0  0  0  0  0  0
  1  2  1  0  0  0  0
  2  5  2  0  0  0  0
  3  1  2  0  0  0  0
  3  4  1  0  0  0  0
  4  6  2  0  0  0  0
  6  5  1  0  0  0  0
  6  9  1  0  0  0  0
  7 15  1  6  0  0  0
  7 10  1  0  0  0  0
  7 11  1  0  0  0  0
 10 11  1  0  0  0  0
 10  8  1  1  0  0  0
 10  1  1  0  0  0  0
 11 14  1  6  0  0  0
 11 12  1  0  0  0  0
 12  2  1  0  0  0  0
 12 26  1  6  0  0  0
 14 13  1  0  0  0  0
 18 17  1  0  0  0  0
 19 15  1  1  0  0  0
 19 17  1  0  0  0  0
 20 16  1  0  0  0  0
 21 24  1  1  0  0  0
 21 23  1  0  0  0  0
 21 25  1  0  0  0  0
 23 19  1  0  0  0  0
 23 22  1  1  0  0  0
 24 20  1  0  0  0  0
 25 16  1  6  0  0  0
 25 18  1  0  0  0  0
 26 27  1  0  0  0  0
 27 28  1  0  0  0  0
 28 29  1  0  0  0  0
 30 27  1  0  0  0  0
 30 32  1  0  0  0  0
 31 40  1  0  0  0  0
 32 37  2  0  0  0  0
 33 32  1  0  0  0  0
 33 38  2  0  0  0  0
 34 31  1  0  0  0  0
 35 36  1  0  0  0  0
 36 31  2  0  0  0  0
 37 35  1  0  0  0  0
 37 34  1  0  0  0  0
 38 35  1  0  0  0  0
 40 39  1  0  0  0  0
M  END
>  <MODEL>
4

>  <REMARK>
 VINA RESULT:      -8.2      4.520      9.033
  Name = 
  9 active torsions:
  status: ('A' for Active; 'I' for Inactive)
    1  A    between atoms: C_4  and  O_33
    2  A    between atoms: C_9  and  N_21
    3  A    between atoms: C_11  and  C_32
    4  A    between atoms: C_12  and  N_19
    5  A    between atoms: C_15  and  C_37
    6  A    between atoms: N_19  and  N_21
    7  A    between atoms: N_19  and  C_35
    8  A    between atoms: C_23  and  C_32
    9  A    between atoms: C_35  and  C_38
                            x       y       z     vdW  Elec       q    Type
                         _______ _______ _______ _____ _____    ______ ____

>  <TORSDO>
F 9

$$$$
=
 OpenBabel10222415383D

 40 46  0  0  1  0  0  0  0  0999 V2000
  191.3120  177.0810  139.8580 C   0  0  0  0  0  0  0  0  0  0  0  0
  190.8910  176.4720  138.6920 C   0  0  0  0  0  0  0  0  0  0  0  0
  192.6650  177.3760  140.0430 C   0  0  0  0  0  3  0  0  0  0  0  0
  193.5770  177.0750  139.0190 C   0  0  0  0  0  3  0  0  0  0  0  0
  191.7830  176.1260  137.6750 C   0  0  0  0  0  3  0  0  0  0  0  0
  193.1370  176.4460  137.8410 C   0  0  0  0  0  0  0  0  0  0  0  0
  188.7210  177.0190  141.1780 C   0  0  2  0  0  3  0  0  0  0  0  0
  190.5160  175.8690  141.5310 O   0  0  0  0  0  1  0  0  0  0  0  0
  194.2820  176.0610  136.5750 Cl  0  0  0  0  0  0  0  0  0  0  0  0
  190.2640  177.1170  140.9490 C   0  0  2  0  0  0  0  0  0  0  0  0
  189.1210  177.3390  139.8410 C   0  0  1  0  0  0  0  0  0  0  0  0
  189.4350  176.2850  138.7640 C   0  0  1  0  0  3  0  0  0  0  0  0
  189.0530  178.9430  137.8890 C   0  0  0  0  0  1  0  0  0  0  0  0
  189.0130  178.8200  139.4020 C   0  0  0  0  0  2  0  0  0  0  0  0
  188.2780  178.1870  142.0560 C   0  0  0  0  0  2  0  0  0  0  0  0
  187.5540  177.8660  147.6670 C   0  0  0  0  0  2  0  0  0  0  0  0
  186.8490  178.6280  144.0830 C   0  0  0  0  0  2  0  0  0  0  0  0
  186.5010  178.1940  145.4430 N   0  0  0  0  0  2  0  0  0  0  0  0
  187.8960  177.6940  143.4440 C   0  0  2  0  0  3  0  0  0  0  0  0
  188.8870  177.2380  148.0510 C   0  0  0  0  0  2  0  0  0  0  0  0
  188.5940  177.1080  145.6990 N   0  0  1  0  0  0  0  0  0  0  0  0
  190.0080  178.7440  144.4390 C   0  0  0  0  0  1  0  0  0  0  0  0
  189.1110  177.4980  144.3810 C   0  0  2  0  0  3  0  0  0  0  0  0
  189.6020  176.9510  146.7320 C   0  0  0  0  0  2  0  0  0  0  0  0
  187.7420  178.1680  146.2050 C   0  0  2  0  0  3  0  0  0  0  0  0
  188.6730  176.4030  137.4310 C   0  0  0  0  0  2  0  0  0  0  0  0
  187.8850  175.2190  137.0950 N   0  0  0  0  0  0  0  0  0  0  0  0
  188.6770  174.3780  136.2060 C   0  0  0  0  0  2  0  0  0  0  0  0
  189.2650  173.3450  136.9360 O   0  0  0  0  0  1  0  0  0  0  0  0
  186.7070  175.6110  136.4270 N   0  0  0  0  0  2  0  0  0  0  0  0
  184.5260  178.6570  139.1540 C   0  0  0  0  0  0  0  0  0  0  0  0
  185.4350  175.9190  137.0280 C   0  0  0  0  0  0  0  0  0  0  0  0
  184.4180  174.9850  137.2300 C   0  0  0  0  0  3  0  0  0  0  0  0
  185.6490  178.2930  138.1990 C   0  0  0  0  0  2  0  0  0  0  0  0
  183.8100  176.9160  138.1090 N   0  0  0  0  0  0  0  0  0  0  0  0
  183.5110  177.8470  139.0950 N   0  0  0  0  0  0  0  0  0  0  0  0
  185.0040  177.0980  137.5930 C   0  0  0  0  0  0  0  0  0  0  0  0
  183.4220  175.6390  137.9630 C   0  0  0  0  0  3  0  0  0  0  0  0
  185.3980  179.7470  141.0750 F   0  0  0  0  0  0  0  0  0  0  0  0
  184.5580  179.7390  140.0250 O   0  0  0  0  0  0  0  0  0  0  0  0
  1  3  1  0  0  0  0
  1 10  1  0  0  0  0
  2 12  1  0  0  0  0
  2  1  2  0  0  0  0
  4  3  2  0  0  0  0
  5  6  2  0  0  0  0
  5  2  1  0  0  0  0
  6  4  1  0  0  0  0
  7 15  1  1  0  0  0
  9  6  1  0  0  0  0
 10  7  1  0  0  0  0
 10  8  1  6  0  0  0
 11 14  1  6  0  0  0
 11 10  1  0  0  0  0
 11  7  1  0  0  0  0
 12 26  1  6  0  0  0
 12 11  1  0  0  0  0
 13 14  1  0  0  0  0
 16 20  1  0  0  0  0
 17 18  1  0  0  0  0
 18 25  1  0  0  0  0
 19 15  1  6  0  0  0
 19 17  1  0  0  0  0
 19 23  1  0  0  0  0
 21 25  1  0  0  0  0
 21 24  1  1  0  0  0
 23 22  1  1  0  0  0
 23 21  1  0  0  0  0
 24 20  1  0  0  0  0
 25 16  1  1  0  0  0
 27 26  1  0  0  0  0
 28 29  1  0  0  0  0
 28 27  1  0  0  0  0
 30 32  1  0  0  0  0
 30 27  1  0  0  0  0
 31 40  1  0  0  0  0
 32 33  1  0  0  0  0
 32 37  2  0  0  0  0
 33 38  2  0  0  0  0
 34 31  1  0  0  0  0
 35 36  1  0  0  0  0
 36 31  2  0  0  0  0
 37 35  1  0  0  0  0
 37 34  1  0  0  0  0
 38 35  1  0  0  0  0
 40 39  1  0  0  0  0
M  END
>  <MODEL>
5

>  <REMARK>
 VINA RESULT:      -8.1      3.191      5.939
  Name = 
  9 active torsions:
  status: ('A' for Active; 'I' for Inactive)
    1  A    between atoms: C_4  and  O_33
    2  A    between atoms: C_9  and  N_21
    3  A    between atoms: C_11  and  C_32
    4  A    between atoms: C_12  and  N_19
    5  A    between atoms: C_15  and  C_37
    6  A    between atoms: N_19  and  N_21
    7  A    between atoms: N_19  and  C_35
    8  A    between atoms: C_23  and  C_32
    9  A    between atoms: C_35  and  C_38
                            x       y       z     vdW  Elec       q    Type
                         _______ _______ _______ _____ _____    ______ ____

>  <TORSDO>
F 9

$$$$
=
 OpenBabel10222415383D

 40 46  0  0  1  0  0  0  0  0999 V2000
  180.9150  177.8340  140.3680 C   0  0  0  0  0  0  0  0  0  0  0  0
  181.6730  178.1790  141.4690 C   0  0  0  0  0  0  0  0  0  0  0  0
  179.5330  178.0390  140.3780 C   0  0  0  0  0  3  0  0  0  0  0  0
  178.9380  178.6260  141.5060 C   0  0  0  0  0  3  0  0  0  0  0  0
  181.1000  178.7270  142.6180 C   0  0  0  0  0  3  0  0  0  0  0  0
  179.7190  178.9630  142.6250 C   0  0  0  0  0  0  0  0  0  0  0  0
  183.0980  176.6280  138.8700 C   0  0  2  0  0  3  0  0  0  0  0  0
  181.4140  175.7330  139.8850 O   0  0  0  0  0  1  0  0  0  0  0  0
  178.9670  179.6800  144.0330 Cl  0  0  0  0  0  0  0  0  0  0  0  0
  181.6560  177.0010  139.3440 C   0  0  2  0  0  0  0  0  0  0  0  0
  183.0010  177.8270  139.6480 C   0  0  1  0  0  0  0  0  0  0  0  0
  183.0800  177.8610  141.1840 C   0  0  1  0  0  3  0  0  0  0  0  0
  184.4500  179.7450  138.8660 C   0  0  0  0  0  1  0  0  0  0  0  0
  183.0420  179.1740  138.8850 C   0  0  0  0  0  2  0  0  0  0  0  0
  183.1780  176.8020  137.3550 C   0  0  0  0  0  2  0  0  0  0  0  0
  187.1540  172.9080  136.2910 C   0  0  0  0  0  2  0  0  0  0  0  0
  184.0920  174.4840  137.7250 C   0  0  0  0  0  2  0  0  0  0  0  0
  184.8750  173.3800  137.1540 N   0  0  0  0  0  2  0  0  0  0  0  0
  183.9510  175.6510  136.7280 C   0  0  2  0  0  3  0  0  0  0  0  0
  188.0580  173.7230  135.3760 C   0  0  0  0  0  2  0  0  0  0  0  0
  185.9940  174.8580  135.6740 N   0  0  1  0  0  0  0  0  0  0  0  0
  186.1700  176.8340  137.2010 C   0  0  0  0  0  1  0  0  0  0  0  0
  185.3290  176.0720  136.1660 C   0  0  2  0  0  3  0  0  0  0  0  0
  187.3430  175.0580  135.1730 C   0  0  0  0  0  2  0  0  0  0  0  0
  186.1690  173.9340  136.7790 C   0  0  2  0  0  3  0  0  0  0  0  0
  184.1230  178.8070  141.8070 C   0  0  0  0  0  2  0  0  0  0  0  0
  185.0320  178.1480  142.7430 N   0  0  0  0  0  0  0  0  0  0  0  0
  184.5840  178.4380  144.0990 C   0  0  0  0  0  2  0  0  0  0  0  0
  184.1340  179.7570  144.1740 O   0  0  0  0  0  1  0  0  0  0  0  0
  186.3360  178.6580  142.5720 N   0  0  0  0  0  2  0  0  0  0  0  0
  189.5640  177.1980  139.5860 C   0  0  0  0  0  0  0  0  0  0  0  0
  187.5540  177.8980  142.4690 C   0  0  0  0  0  0  0  0  0  0  0  0
  187.9630  176.9440  143.4030 C   0  0  0  0  0  3  0  0  0  0  0  0
  188.4690  178.1680  139.9900 C   0  0  0  0  0  2  0  0  0  0  0  0
  189.3890  176.9640  141.7190 N   0  0  0  0  0  0  0  0  0  0  0  0
  190.0480  176.5170  140.5800 N   0  0  0  0  0  0  0  0  0  0  0  0
  188.4760  177.8670  141.4460 C   0  0  0  0  0  0  0  0  0  0  0  0
  189.1050  176.3360  142.8700 C   0  0  0  0  0  3  0  0  0  0  0  0
  190.1570  178.0830  137.4630 F   0  0  0  0  0  0  0  0  0  0  0  0
  190.0170  177.0260  138.2830 O   0  0  0  0  0  0  0  0  0  0  0  0
  1  3  2  0  0  0  0
  1  2  1  0  0  0  0
  2  5  2  0  0  0  0
  3  4  1  0  0  0  0
  4  6  2  0  0  0  0
  5  6  1  0  0  0  0
  6  9  1  0  0  0  0
  7 15  1  6  0  0  0
  7 10  1  0  0  0  0
  7 11  1  0  0  0  0
 10 11  1  0  0  0  0
 10  8  1  1  0  0  0
 10  1  1  0  0  0  0
 11 14  1  6  0  0  0
 11 12  1  0  0  0  0
 12  2  1  0  0  0  0
 12 26  1  6  0  0  0
 13 14  1  0  0  0  0
 18 17  1  0  0  0  0
 19 15  1  1  0  0  0
 19 17  1  0  0  0  0
 20 16  1  0  0  0  0
 21 24  1  1  0  0  0
 21 23  1  0  0  0  0
 21 25  1  0  0  0  0
 23 19  1  0  0  0  0
 23 22  1  1  0  0  0
 24 20  1  0  0  0  0
 25 16  1  6  0  0  0
 25 18  1  0  0  0  0
 26 27  1  0  0  0  0
 27 28  1  0  0  0  0
 28 29  1  0  0  0  0
 30 27  1  0  0  0  0
 31 34  1  0  0  0  0
 31 36  2  0  0  0  0
 32 30  1  0  0  0  0
 32 33  1  0  0  0  0
 34 37  1  0  0  0  0
 35 38  1  0  0  0  0
 36 35  1  0  0  0  0
 37 35  1  0  0  0  0
 37 32  2  0  0  0  0
 38 33  2  0  0  0  0
 39 40  1  0  0  0  0
 40 31  1  0  0  0  0
M  END
>  <MODEL>
6

>  <REMARK>
 VINA RESULT:      -7.9      3.903      8.216
  Name = 
  9 active torsions:
  status: ('A' for Active; 'I' for Inactive)
    1  A    between atoms: C_4  and  O_33
    2  A    between atoms: C_9  and  N_21
    3  A    between atoms: C_11  and  C_32
    4  A    between atoms: C_12  and  N_19
    5  A    between atoms: C_15  and  C_37
    6  A    between atoms: N_19  and  N_21
    7  A    between atoms: N_19  and  C_35
    8  A    between atoms: C_23  and  C_32
    9  A    between atoms: C_35  and  C_38
                            x       y       z     vdW  Elec       q    Type
                         _______ _______ _______ _____ _____    ______ ____

>  <TORSDO>
F 9

$$$$
=
 OpenBabel10222415383D

 40 46  0  0  1  0  0  0  0  0999 V2000
  184.4460  174.0600  136.4560 C   0  0  0  0  0  0  0  0  0  0  0  0
  184.0580  175.1480  137.2110 C   0  0  0  0  0  0  0  0  0  0  0  0
  183.5010  173.1050  136.0680 C   0  0  0  0  0  3  0  0  0  0  0  0
  182.1570  173.2900  136.4290 C   0  0  0  0  0  3  0  0  0  0  0  0
  182.7350  175.3330  137.6170 C   0  0  0  0  0  3  0  0  0  0  0  0
  181.7760  174.3970  137.2070 C   0  0  0  0  0  0  0  0  0  0  0  0
  187.2920  174.6550  136.5150 C   0  0  2  0  0  3  0  0  0  0  0  0
  186.1460  173.1220  137.5180 O   0  0  0  0  0  1  0  0  0  0  0  0
  180.1020  174.6110  137.6650 Cl  0  0  0  0  0  0  0  0  0  0  0  0
  185.9440  173.8780  136.3570 C   0  0  2  0  0  0  0  0  0  0  0  0
  186.1340  175.4740  136.3220 C   0  0  1  0  0  0  0  0  0  0  0  0
  185.2420  175.9810  137.4690 C   0  0  1  0  0  3  0  0  0  0  0  0
  186.5460  177.4270  134.7720 C   0  0  0  0  0  1  0  0  0  0  0  0
  185.9040  176.0570  134.9070 C   0  0  0  0  0  2  0  0  0  0  0  0
  188.1570  174.3940  135.2830 C   0  0  0  0  0  2  0  0  0  0  0  0
  193.3470  175.5380  137.2490 C   0  0  0  0  0  2  0  0  0  0  0  0
  189.7870  174.4200  137.2030 C   0  0  0  0  0  2  0  0  0  0  0  0
  191.2000  174.3420  137.6000 N   0  0  0  0  0  2  0  0  0  0  0  0
  189.6200  174.2630  135.6790 C   0  0  2  0  0  3  0  0  0  0  0  0
  193.9680  176.1110  135.9830 C   0  0  0  0  0  2  0  0  0  0  0  0
  191.9070  175.0600  135.4520 N   0  0  1  0  0  0  0  0  0  0  0  0
  190.0630  176.6880  134.9900 C   0  0  0  0  0  1  0  0  0  0  0  0
  190.5510  175.2340  134.9140 C   0  0  2  0  0  3  0  0  0  0  0  0
  192.9080  175.9530  134.8950 C   0  0  0  0  0  2  0  0  0  0  0  0
  191.9000  175.3870  136.8660 C   0  0  2  0  0  3  0  0  0  0  0  0
  184.9950  177.4990  137.5400 C   0  0  0  0  0  2  0  0  0  0  0  0
  185.4660  178.1160  138.7800 N   0  0  0  0  0  0  0  0  0  0  0  0
  184.5680  179.2140  139.1160 C   0  0  0  0  0  2  0  0  0  0  0  0
  184.9260  179.7510  140.3520 O   0  0  0  0  0  1  0  0  0  0  0  0
  186.7650  178.6270  138.5870 N   0  0  0  0  0  2  0  0  0  0  0  0
  189.1610  178.0020  142.5030 C   0  0  0  0  0  0  0  0  0  0  0  0
  187.9920  178.0920  139.1170 C   0  0  0  0  0  0  0  0  0  0  0  0
  189.1440  177.8740  138.3590 C   0  0  0  0  0  3  0  0  0  0  0  0
  187.8530  178.2200  141.7660 C   0  0  0  0  0  2  0  0  0  0  0  0
  189.5750  177.4140  140.4740 N   0  0  0  0  0  0  0  0  0  0  0  0
  190.1200  177.5670  141.7420 N   0  0  0  0  0  0  0  0  0  0  0  0
  188.3180  177.7900  140.4210 C   0  0  0  0  0  0  0  0  0  0  0  0
  190.1430  177.4910  139.2610 C   0  0  0  0  0  3  0  0  0  0  0  0
  190.4990  178.7740  144.3080 F   0  0  0  0  0  0  0  0  0  0  0  0
  189.3470  178.2440  143.8590 O   0  0  0  0  0  0  0  0  0  0  0  0
  1  2  1  0  0  0  0
  2 12  1  0  0  0  0
  2  5  2  0  0  0  0
  3  4  1  0  0  0  0
  3  1  2  0  0  0  0
  4  6  2  0  0  0  0
  6  5  1  0  0  0  0
  6  9  1  0  0  0  0
  7 15  1  6  0  0  0
 10  1  1  0  0  0  0
 10  7  1  0  0  0  0
 10  8  1  1  0  0  0
 11 14  1  6  0  0  0
 11 10  1  0  0  0  0
 11  7  1  0  0  0  0
 11 12  1  0  0  0  0
 12 26  1  6  0  0  0
 13 14  1  0  0  0  0
 17 18  1  0  0  0  0
 19 15  1  1  0  0  0
 19 17  1  0  0  0  0
 20 16  1  0  0  0  0
 21 24  1  6  0  0  0
 21 25  1  0  0  0  0
 23 22  1  1  0  0  0
 23 21  1  0  0  0  0
 23 19  1  0  0  0  0
 24 20  1  0  0  0  0
 25 16  1  1  0  0  0
 25 18  1  0  0  0  0
 26 27  1  0  0  0  0
 27 28  1  0  0  0  0
 28 29  1  0  0  0  0
 30 27  1  0  0  0  0
 30 32  1  0  0  0  0
 31 40  1  0  0  0  0
 32 37  2  0  0  0  0
 33 32  1  0  0  0  0
 33 38  2  0  0  0  0
 34 31  1  0  0  0  0
 35 36  1  0  0  0  0
 36 31  2  0  0  0  0
 37 35  1  0  0  0  0
 37 34  1  0  0  0  0
 38 35  1  0  0  0  0
 40 39  1  0  0  0  0
M  END
>  <MODEL>
7

>  <REMARK>
 VINA RESULT:      -7.8      4.522      9.439
  Name = 
  9 active torsions:
  status: ('A' for Active; 'I' for Inactive)
    1  A    between atoms: C_4  and  O_33
    2  A    between atoms: C_9  and  N_21
    3  A    between atoms: C_11  and  C_32
    4  A    between atoms: C_12  and  N_19
    5  A    between atoms: C_15  and  C_37
    6  A    between atoms: N_19  and  N_21
    7  A    between atoms: N_19  and  C_35
    8  A    between atoms: C_23  and  C_32
    9  A    between atoms: C_35  and  C_38
                            x       y       z     vdW  Elec       q    Type
                         _______ _______ _______ _____ _____    ______ ____

>  <TORSDO>
F 9

$$$$
=
 OpenBabel10222415383D

 40 46  0  0  1  0  0  0  0  0999 V2000
  184.4480  176.3570  135.9030 C   0  0  0  0  0  0  0  0  0  0  0  0
  184.2230  177.1700  136.9950 C   0  0  0  0  0  0  0  0  0  0  0  0
  183.4410  176.1650  134.9540 C   0  0  0  0  0  3  0  0  0  0  0  0
  182.2170  176.8350  135.1120 C   0  0  0  0  0  3  0  0  0  0  0  0
  183.0010  177.8160  137.1970 C   0  0  0  0  0  3  0  0  0  0  0  0
  181.9960  177.6530  136.2340 C   0  0  0  0  0  0  0  0  0  0  0  0
  187.0860  175.4600  136.7400 C   0  0  2  0  0  3  0  0  0  0  0  0
  185.1890  174.4260  136.6910 O   0  0  0  0  0  1  0  0  0  0  0  0
  180.4630  178.4720  136.4320 Cl  0  0  0  0  0  0  0  0  0  0  0  0
  185.7100  175.5270  136.0010 C   0  0  2  0  0  0  0  0  0  0  0  0
  186.4500  176.7430  136.7470 C   0  0  1  0  0  0  0  0  0  0  0  0
  185.4410  177.1930  137.8180 C   0  0  1  0  0  3  0  0  0  0  0  0
  188.0870  178.6320  136.3770 C   0  0  0  0  0  1  0  0  0  0  0  0
  186.9790  177.8030  135.7510 C   0  0  0  0  0  2  0  0  0  0  0  0
  188.1900  175.2510  135.7060 C   0  0  0  0  0  2  0  0  0  0  0  0
  193.4050  175.3210  137.9200 C   0  0  0  0  0  2  0  0  0  0  0  0
  189.6920  175.6160  137.6940 C   0  0  0  0  0  2  0  0  0  0  0  0
  190.9600  175.2530  138.3430 N   0  0  0  0  0  2  0  0  0  0  0  0
  189.4830  174.8270  136.3860 C   0  0  2  0  0  3  0  0  0  0  0  0
  194.2060  174.9750  136.6720 C   0  0  0  0  0  2  0  0  0  0  0  0
  191.9000  174.5810  136.2720 N   0  0  1  0  0  0  0  0  0  0  0  0
  190.8430  176.3190  134.8140 C   0  0  0  0  0  1  0  0  0  0  0  0
  190.7230  174.9350  135.4670 C   0  0  2  0  0  3  0  0  0  0  0  0
  193.1730  174.6990  135.5820 C   0  0  0  0  0  2  0  0  0  0  0  0
  192.0160  175.5160  137.3750 C   0  0  2  0  0  3  0  0  0  0  0  0
  185.7400  178.5190  138.5430 C   0  0  0  0  0  2  0  0  0  0  0  0
  185.6710  178.4230  140.0000 N   0  0  0  0  0  0  0  0  0  0  0  0
  184.5740  179.2630  140.4640 C   0  0  0  0  0  2  0  0  0  0  0  0
  184.1810  180.1290  139.4440 O   0  0  0  0  0  1  0  0  0  0  0  0
  186.8770  178.8930  140.5600 N   0  0  0  0  0  2  0  0  0  0  0  0
  188.4960  177.1850  144.5510 C   0  0  0  0  0  0  0  0  0  0  0  0
  187.9320  178.0970  141.1320 C   0  0  0  0  0  0  0  0  0  0  0  0
  189.1650  177.8720  140.5170 C   0  0  0  0  0  3  0  0  0  0  0  0
  187.3610  177.7240  143.6990 C   0  0  0  0  0  2  0  0  0  0  0  0
  189.1800  176.9530  142.5230 N   0  0  0  0  0  0  0  0  0  0  0  0
  189.5170  176.7770  143.8590 N   0  0  0  0  0  0  0  0  0  0  0  0
  187.9980  177.5050  142.3730 C   0  0  0  0  0  0  0  0  0  0  0  0
  189.9500  177.1850  141.4490 C   0  0  0  0  0  3  0  0  0  0  0  0
  187.3880  177.5280  146.6240 F   0  0  0  0  0  0  0  0  0  0  0  0
  188.4750  177.1290  145.9390 O   0  0  0  0  0  0  0  0  0  0  0  0
  1 10  1  0  0  0  0
  1  2  1  0  0  0  0
  2  5  2  0  0  0  0
  2 12  1  0  0  0  0
  3  4  1  0  0  0  0
  3  1  2  0  0  0  0
  4  6  2  0  0  0  0
  6  9  1  0  0  0  0
  6  5  1  0  0  0  0
  7 15  1  6  0  0  0
  7 11  1  0  0  0  0
 10  8  1  1  0  0  0
 10  7  1  0  0  0  0
 10 11  1  0  0  0  0
 11 14  1  6  0  0  0
 11 12  1  0  0  0  0
 12 26  1  6  0  0  0
 14 13  1  0  0  0  0
 17 18  1  0  0  0  0
 19 15  1  6  0  0  0
 19 17  1  0  0  0  0
 20 16  1  0  0  0  0
 21 24  1  6  0  0  0
 21 25  1  0  0  0  0
 23 22  1  1  0  0  0
 23 21  1  0  0  0  0
 23 19  1  0  0  0  0
 24 20  1  0  0  0  0
 25 16  1  1  0  0  0
 25 18  1  0  0  0  0
 26 27  1  0  0  0  0
 27 28  1  0  0  0  0
 27 30  1  0  0  0  0
 29 28  1  0  0  0  0
 30 32  1  0  0  0  0
 31 40  1  0  0  0  0
 32 37  2  0  0  0  0
 33 32  1  0  0  0  0
 33 38  2  0  0  0  0
 34 31  1  0  0  0  0
 35 36  1  0  0  0  0
 36 31  2  0  0  0  0
 37 35  1  0  0  0  0
 37 34  1  0  0  0  0
 38 35  1  0  0  0  0
 40 39  1  0  0  0  0
M  END
>  <MODEL>
8

>  <REMARK>
 VINA RESULT:      -7.8      4.250      9.531
  Name = 
  9 active torsions:
  status: ('A' for Active; 'I' for Inactive)
    1  A    between atoms: C_4  and  O_33
    2  A    between atoms: C_9  and  N_21
    3  A    between atoms: C_11  and  C_32
    4  A    between atoms: C_12  and  N_19
    5  A    between atoms: C_15  and  C_37
    6  A    between atoms: N_19  and  N_21
    7  A    between atoms: N_19  and  C_35
    8  A    between atoms: C_23  and  C_32
    9  A    between atoms: C_35  and  C_38
                            x       y       z     vdW  Elec       q    Type
                         _______ _______ _______ _____ _____    ______ ____

>  <TORSDO>
F 9

$$$$
=
 OpenBabel10222415383D

 40 46  0  0  1  0  0  0  0  0999 V2000
  184.5410  175.9130  135.9650 C   0  0  0  0  0  0  0  0  0  0  0  0
  183.9920  176.7850  136.8830 C   0  0  0  0  0  0  0  0  0  0  0  0
  183.7480  175.3790  134.9460 C   0  0  0  0  0  3  0  0  0  0  0  0
  182.4020  175.7680  134.8530 C   0  0  0  0  0  3  0  0  0  0  0  0
  182.6470  177.1570  136.8370 C   0  0  0  0  0  3  0  0  0  0  0  0
  181.8520  176.6500  135.8000 C   0  0  0  0  0  0  0  0  0  0  0  0
  187.1530  175.7500  137.2350 C   0  0  2  0  0  3  0  0  0  0  0  0
  185.5410  174.3150  137.1260 O   0  0  0  0  0  1  0  0  0  0  0  0
  180.1700  177.1180  135.6870 Cl  0  0  0  0  0  0  0  0  0  0  0  0
  185.9190  175.4090  136.3390 C   0  0  2  0  0  0  0  0  0  0  0  0
  186.2710  176.8460  136.9680 C   0  0  1  0  0  0  0  0  0  0  0  0
  185.0430  177.1870  137.8290 C   0  0  1  0  0  3  0  0  0  0  0  0
  187.5570  178.9700  136.4940 C   0  0  0  0  0  1  0  0  0  0  0  0
  186.7100  177.8640  135.8870 C   0  0  0  0  0  2  0  0  0  0  0  0
  188.4180  175.6670  136.3830 C   0  0  0  0  0  2  0  0  0  0  0  0
  193.7510  175.7450  138.2950 C   0  0  0  0  0  2  0  0  0  0  0  0
  190.2610  176.8710  137.6070 C   0  0  0  0  0  2  0  0  0  0  0  0
  191.4750  176.7270  138.4230 N   0  0  0  0  0  2  0  0  0  0  0  0
  189.6450  175.4990  137.2670 C   0  0  2  0  0  3  0  0  0  0  0  0
  194.2230  174.3990  137.7610 C   0  0  0  0  0  2  0  0  0  0  0  0
  191.8610  174.5460  137.5740 N   0  0  1  0  0  0  0  0  0  0  0  0
  191.0810  174.9270  135.2270 C   0  0  0  0  0  1  0  0  0  0  0  0
  190.7060  174.5470  136.6670 C   0  0  2  0  0  3  0  0  0  0  0  0
  192.9930  173.7530  137.1260 C   0  0  0  0  0  2  0  0  0  0  0  0
  192.3950  175.8920  137.6620 C   0  0  2  0  0  3  0  0  0  0  0  0
  184.9490  178.6270  138.3680 C   0  0  0  0  0  2  0  0  0  0  0  0
  184.3900  178.7170  139.7160 N   0  0  0  0  0  0  0  0  0  0  0  0
  183.1580  179.4930  139.6510 C   0  0  0  0  0  2  0  0  0  0  0  0
  183.2990  180.5210  138.7190 O   0  0  0  0  0  1  0  0  0  0  0  0
  185.3040  179.3770  140.5620 N   0  0  0  0  0  2  0  0  0  0  0  0
  189.1560  177.1260  141.8120 C   0  0  0  0  0  0  0  0  0  0  0  0
  185.9970  178.8150  141.6920 C   0  0  0  0  0  0  0  0  0  0  0  0
  185.3800  178.4580  142.8910 C   0  0  0  0  0  3  0  0  0  0  0  0
  188.3930  178.0270  140.8580 C   0  0  0  0  0  2  0  0  0  0  0  0
  187.5080  177.8800  142.9750 N   0  0  0  0  0  0  0  0  0  0  0  0
  188.6190  177.0460  142.9920 N   0  0  0  0  0  0  0  0  0  0  0  0
  187.3160  178.4330  141.8000 C   0  0  0  0  0  0  0  0  0  0  0  0
  186.3580  177.8220  143.6640 C   0  0  0  0  0  3  0  0  0  0  0  0
  191.4920  176.7610  142.0370 F   0  0  0  0  0  0  0  0  0  0  0  0
  190.3130  176.4330  141.4790 O   0  0  0  0  0  0  0  0  0  0  0  0
  1 10  1  0  0  0  0
  1  2  1  0  0  0  0
  2 12  1  0  0  0  0
  3  1  2  0  0  0  0
  4  3  1  0  0  0  0
  4  6  2  0  0  0  0
  5  2  2  0  0  0  0
  6  5  1  0  0  0  0
  7 15  1  6  0  0  0
  9  6  1  0  0  0  0
 10 11  1  0  0  0  0
 10  8  1  1  0  0  0
 10  7  1  0  0  0  0
 11 14  1  6  0  0  0
 11  7  1  0  0  0  0
 11 12  1  0  0  0  0
 12 26  1  6  0  0  0
 14 13  1  0  0  0  0
 17 18  1  0  0  0  0
 19 15  1  6  0  0  0
 19 17  1  0  0  0  0
 20 16  1  0  0  0  0
 21 24  1  6  0  0  0
 21 25  1  0  0  0  0
 23 22  1  6  0  0  0
 23 19  1  0  0  0  0
 23 21  1  0  0  0  0
 24 20  1  0  0  0  0
 25 16  1  1  0  0  0
 25 18  1  0  0  0  0
 26 27  1  0  0  0  0
 27 30  1  0  0  0  0
 28 27  1  0  0  0  0
 29 28  1  0  0  0  0
 30 32  1  0  0  0  0
 31 36  2  0  0  0  0
 32 37  2  0  0  0  0
 32 33  1  0  0  0  0
 33 38  2  0  0  0  0
 34 37  1  0  0  0  0
 34 31  1  0  0  0  0
 35 36  1  0  0  0  0
 35 38  1  0  0  0  0
 37 35  1  0  0  0  0
 40 31  1  0  0  0  0
 40 39  1  0  0  0  0
M  END
>  <MODEL>
9

>  <REMARK>
 VINA RESULT:      -7.7      4.303      9.581
  Name = 
  9 active torsions:
  status: ('A' for Active; 'I' for Inactive)
    1  A    between atoms: C_4  and  O_33
    2  A    between atoms: C_9  and  N_21
    3  A    between atoms: C_11  and  C_32
    4  A    between atoms: C_12  and  N_19
    5  A    between atoms: C_15  and  C_37
    6  A    between atoms: N_19  and  N_21
    7  A    between atoms: N_19  and  C_35
    8  A    between atoms: C_23  and  C_32
    9  A    between atoms: C_35  and  C_38
                            x       y       z     vdW  Elec       q    Type
                         _______ _______ _______ _____ _____    ______ ____

>  <TORSDO>
F 9

$$$$
