=
 OpenBabel10222415103D

 69 77  0  0  1  0  0  0  0  0999 V2000
  188.0980  176.6590  138.0040 C   0  0  2  0  0  3  0  0  0  0  0  0
  193.4580  175.6870  134.7250 C   0  0  0  0  0  2  0  0  0  0  0  0
  190.1170  176.4700  134.5940 S   0  0  0  0  0  0  0  0  0  0  0  0
  189.1040  176.3980  136.9250 C   0  0  0  0  0  0  0  0  0  0  0  0
  190.4430  176.0360  137.0790 C   0  0  0  0  0  0  0  0  0  0  0  0
  188.7800  176.6620  135.6080 C   0  0  0  0  0  0  0  0  0  0  0  0
  192.4680  175.3700  138.2460 C   0  0  0  0  0  3  0  0  0  0  0  0
  191.0950  175.7010  138.2810 C   0  0  0  0  0  3  0  0  0  0  0  0
  192.4870  175.7230  135.8430 C   0  0  0  0  0  0  0  0  0  0  0  0
  191.1380  176.0410  135.8680 C   0  0  0  0  0  0  0  0  0  0  0  0
  195.9650  175.1130  134.8850 N   0  0  0  0  0  2  0  0  0  0  0  0
  193.1310  175.3910  137.0090 C   0  0  0  0  0  0  0  0  0  0  0  0
  186.7730  176.7090  137.4470 O   0  0  0  0  0  0  0  0  0  0  0  0
  186.4990  177.0010  136.0960 C   0  0  0  0  0  0  0  0  0  0  0  0
  194.6860  175.2770  135.5000 C   0  0  0  0  0  0  0  0  0  0  0  0
  194.4960  175.1080  136.7760 N   0  0  0  0  0  0  0  0  0  0  0  0
  187.4510  176.9870  135.2050 N   0  0  0  0  0  0  0  0  0  0  0  0
  197.1320  174.6260  135.6130 C   0  0  2  0  0  3  0  0  0  0  0  0
  198.3630  175.4160  135.1850 C   0  0  0  0  0  1  0  0  0  0  0  0
  197.6990  171.2480  136.8890 C   0  0  0  0  0  2  0  0  0  0  0  0
  198.7600  172.6910  135.2800 C   0  0  0  0  0  2  0  0  0  0  0  0
  199.0430  171.8230  136.4920 C   0  0  0  0  0  2  0  0  0  0  0  0
  196.6850  172.3160  136.5380 C   0  0  0  0  0  2  0  0  0  0  0  0
  197.2980  173.1140  135.3960 C   0  0  0  0  0  3  0  0  0  0  0  0
  185.1000  177.2900  135.6720 C   0  0  0  0  0  2  0  0  0  0  0  0
  184.2880  176.0070  135.6660 C   0  0  0  0  0  2  0  0  0  0  0  0
  182.8740  176.3050  136.1420 C   0  0  0  0  0  2  0  0  0  0  0  0
  182.8940  176.8470  137.5660 C   0  0  0  0  0  2  0  0  0  0  0  0
  181.5960  176.5460  138.3040 C   0  0  0  0  0  2  0  0  0  0  0  0
  180.4730  176.6240  137.3850 N   0  0  0  0  0  2  0  0  0  0  0  0
  179.4850  175.6530  137.8330 C   0  0  0  0  0  2  0  0  0  0  0  0
  179.6650  173.6240  139.0790 O   0  0  0  0  0  1  0  0  0  0  0  0
  180.0970  174.2580  137.9100 C   0  0  1  0  0  3  0  0  0  0  0  0
  179.7340  173.4240  136.6770 C   0  0  2  0  0  3  0  0  0  0  0  0
  180.8100  171.5170  137.6750 O   0  0  0  0  0  1  0  0  0  0  0  0
  180.7070  172.2560  136.4910 C   0  0  2  0  0  3  0  0  0  0  0  0
  183.1390  172.3680  137.0590 C   0  0  0  0  0  2  0  0  0  0  0  0
  184.0610  171.4530  136.4130 N   0  0  0  0  0  0  0  0  0  0  0  0
  182.4570  172.1380  134.7850 N   0  0  0  0  0  2  0  0  0  0  0  0
  185.2900  172.1970  136.1740 C   0  0  0  0  0  1  0  0  0  0  0  0
  182.0820  172.7540  136.0470 C   0  0  1  0  0  3  0  0  0  0  0  0
  183.4810  171.1480  135.1100 C   0  0  0  0  0  2  0  0  0  0  0  0
  178.9340  173.6050  134.6860 O   0  0  0  0  0  1  0  0  0  0  0  0
  179.7280  174.2290  135.5330 O   0  0  0  0  0  0  0  0  0  0  0  0
  188.4370  177.9950  138.6580 C   0  0  0  0  0  2  0  0  0  0  0  0
  185.2200  177.9990  141.8230 C   0  0  1  0  0  3  0  0  0  0  0  0
  185.7950  179.2750  141.2320 C   0  0  0  0  0  2  0  0  0  0  0  0
  189.7160  178.9840  142.1300 C   0  0  0  0  0  2  0  0  0  0  0  0
  188.4970  177.9560  140.1810 C   0  0  1  0  0  3  0  0  0  0  0  0
  186.7350  178.2050  141.7510 C   0  0  1  0  0  0  0  0  0  0  0  0
  189.0420  179.2560  140.7820 C   0  0  0  0  0  2  0  0  0  0  0  0
  188.9130  178.2070  143.0880 N   0  0  0  0  0  0  0  0  0  0  0  0
  187.4720  178.5070  143.0810 C   0  0  0  0  0  2  0  0  0  0  0  0
  187.3260  177.3840  140.7600 O   0  0  0  0  0  0  0  0  0  0  0  0
  189.1570  176.7800  142.9380 C   0  0  0  0  0  2  0  0  0  0  0  0
  191.1950  175.7340  143.5540 O   0  0  0  0  0  0  0  0  0  0  0  0
  189.9700  176.6860  145.3200 N   0  0  0  0  0  2  0  0  0  0  0  0
  190.1650  176.3460  143.9400 C   0  0  0  0  0  0  0  0  0  0  0  0
  191.8430  175.4640  146.2840 C   0  0  0  0  0  3  0  0  0  0  0  0
  191.8580  177.1160  148.5360 C   0  0  0  0  0  3  0  0  0  0  0  0
  192.7680  175.2430  147.3070 C   0  0  0  0  0  3  0  0  0  0  0  0
  190.9280  177.3320  147.5150 C   0  0  0  0  0  3  0  0  0  0  0  0
  190.9170  176.5060  146.3810 C   0  0  0  0  0  0  0  0  0  0  0  0
  192.7750  176.0710  148.4320 C   0  0  0  0  0  3  0  0  0  0  0  0
  184.6250  178.3080  143.1900 C   0  0  0  0  0  2  0  0  0  0  0  0
  183.1780  178.3860  143.0860 N   0  0  0  0  0  2  0  0  0  0  0  0
  182.9710  179.1980  145.3840 O   0  0  0  0  0  1  0  0  0  0  0  0
  181.1350  178.9830  144.0220 O   0  0  0  0  0  0  0  0  0  0  0  0
  182.3820  178.8640  144.1690 C   0  0  0  0  0  0  0  0  0  0  0  0
  1 45  1  6  0  0  0
  2 15  1  0  0  0  0
  2  9  1  0  0  0  0
  3  6  1  0  0  0  0
  3 10  1  0  0  0  0
  4  5  1  0  0  0  0
  4  1  1  0  0  0  0
  5  8  1  0  0  0  0
  6  4  2  0  0  0  0
  7  8  2  0  0  0  0
  9 10  1  0  0  0  0
  9 12  2  0  0  0  0
 10  5  2  0  0  0  0
 11 15  1  0  0  0  0
 11 18  1  0  0  0  0
 12  7  1  0  0  0  0
 13  1  1  0  0  0  0
 14 13  1  0  0  0  0
 15 16  2  0  0  0  0
 16 12  1  0  0  0  0
 17  6  1  0  0  0  0
 17 14  2  0  0  0  0
 18 19  1  6  0  0  0
 21 24  1  0  0  0  0
 21 22  1  0  0  0  0
 22 20  1  0  0  0  0
 23 20  1  0  0  0  0
 24 18  1  0  0  0  0
 24 23  1  0  0  0  0
 25 14  1  0  0  0  0
 26 25  1  0  0  0  0
 26 27  1  0  0  0  0
 27 28  1  0  0  0  0
 28 29  1  0  0  0  0
 30 31  1  0  0  0  0
 30 29  1  0  0  0  0
 31 33  1  0  0  0  0
 33 32  1  1  0  0  0
 34 44  1  6  0  0  0
 34 33  1  0  0  0  0
 36 34  1  0  0  0  0
 36 35  1  1  0  0  0
 38 37  1  0  0  0  0
 39 42  1  0  0  0  0
 39 41  1  0  0  0  0
 40 38  1  0  0  0  0
 41 36  1  1  0  0  0
 41 37  1  0  0  0  0
 42 38  1  0  0  0  0
 43 44  1  0  0  0  0
 46 65  1  1  0  0  0
 47 46  1  0  0  0  0
 48 52  1  0  0  0  0
 49 45  1  6  0  0  0
 49 54  1  0  0  0  0
 49 51  1  0  0  0  0
 50 47  1  6  0  0  0
 50 46  1  0  0  0  0
 50 53  1  0  0  0  0
 51 48  1  0  0  0  0
 53 52  1  0  0  0  0
 54 50  1  0  0  0  0
 55 52  1  0  0  0  0
 55 58  1  0  0  0  0
 56 58  2  0  0  0  0
 57 63  1  0  0  0  0
 58 57  1  0  0  0  0
 59 63  2  0  0  0  0
 59 61  1  0  0  0  0
 61 64  2  0  0  0  0
 62 60  2  0  0  0  0
 63 62  1  0  0  0  0
 64 60  1  0  0  0  0
 66 65  1  0  0  0  0
 66 69  1  0  0  0  0
 68 69  2  0  0  0  0
 69 67  1  0  0  0  0
M  END
>  <MODEL>
1

>  <REMARK>
 VINA RESULT:      -4.7      0.000      0.000
  Name = 
  21 active torsions:
  status: ('A' for Active; 'I' for Inactive)
    1  A    between atoms: C_1  and  C_32
    2  A    between atoms: C_2  and  C_8
    3  A    between atoms: C_8  and  N_16
    4  A    between atoms: C_12  and  C_35
    5  A    between atoms: C_12  and  O_58
    6  A    between atoms: C_12  and  C_61
    7  A    between atoms: C_15  and  C_32
    8  A    between atoms: N_25  and  C_49
    9  A    between atoms: C_28  and  N_50
   10  A    between atoms: C_28  and  C_52
   11  A    between atoms: C_29  and  N_46
   12  A    between atoms: C_29  and  C_61
   13  A    between atoms: C_33  and  N_44
   14  A    between atoms: C_33  and  C_67
   15  A    between atoms: C_34  and  C_40
   16  A    between atoms: C_34  and  N_46
   17  A    between atoms: C_35  and  C_59
   18  A    between atoms: C_40  and  C_56
   19  A    between atoms: C_55  and  C_62
   20  A    between atoms: C_56  and  C_69
   21  A    between atoms: C_62  and  C_69
                            x       y       z     vdW  Elec       q    Type
                         _______ _______ _______ _____ _____    ______ ____

>  <TORSDO>
F 21

$$$$
=
 OpenBabel10222415103D

 69 77  0  0  1  0  0  0  0  0999 V2000
  187.3970  176.5830  137.7600 C   0  0  2  0  0  3  0  0  0  0  0  0
  193.0120  175.1730  135.1300 C   0  0  0  0  0  2  0  0  0  0  0  0
  189.7290  176.0340  134.5980 S   0  0  0  0  0  0  0  0  0  0  0  0
  188.4920  176.1990  136.8140 C   0  0  0  0  0  0  0  0  0  0  0  0
  189.7960  175.8160  137.1310 C   0  0  0  0  0  0  0  0  0  0  0  0
  188.3080  176.3530  135.4530 C   0  0  0  0  0  0  0  0  0  0  0  0
  191.6720  175.2000  138.5480 C   0  0  0  0  0  3  0  0  0  0  0  0
  190.3150  175.5710  138.4170 C   0  0  0  0  0  3  0  0  0  0  0  0
  191.9380  175.3360  136.1380 C   0  0  0  0  0  0  0  0  0  0  0  0
  190.6050  175.6930  136.0000 C   0  0  0  0  0  0  0  0  0  0  0  0
  195.4690  174.5470  135.5890 N   0  0  0  0  0  2  0  0  0  0  0  0
  192.4530  175.0920  137.3870 C   0  0  0  0  0  0  0  0  0  0  0  0
  186.1350  176.6200  137.0700 O   0  0  0  0  0  0  0  0  0  0  0  0
  186.0040  176.7970  135.6790 C   0  0  0  0  0  0  0  0  0  0  0  0
  194.1430  174.8010  136.0570 C   0  0  0  0  0  0  0  0  0  0  0  0
  193.8240  174.7520  137.3160 N   0  0  0  0  0  0  0  0  0  0  0  0
  187.0370  176.6780  134.8920 N   0  0  0  0  0  0  0  0  0  0  0  0
  196.5400  174.0950  136.4690 C   0  0  2  0  0  3  0  0  0  0  0  0
  197.5230  175.2370  136.7000 C   0  0  0  0  0  1  0  0  0  0  0  0
  196.7820  170.4690  136.0690 C   0  0  0  0  0  2  0  0  0  0  0  0
  198.2400  172.2280  136.8300 C   0  0  0  0  0  2  0  0  0  0  0  0
  197.6870  170.8690  137.2160 C   0  0  0  0  0  2  0  0  0  0  0  0
  196.1980  171.7660  135.5480 C   0  0  0  0  0  2  0  0  0  0  0  0
  197.2160  172.8470  135.8820 C   0  0  0  0  0  3  0  0  0  0  0  0
  184.6650  177.0860  135.0940 C   0  0  0  0  0  2  0  0  0  0  0  0
  183.9540  175.7850  134.7670 C   0  0  0  0  0  2  0  0  0  0  0  0
  183.2240  175.2870  136.0060 C   0  0  0  0  0  2  0  0  0  0  0  0
  182.0260  174.4310  135.6110 C   0  0  0  0  0  2  0  0  0  0  0  0
  180.9900  174.3580  136.7250 C   0  0  0  0  0  2  0  0  0  0  0  0
  181.6530  174.3380  138.0180 N   0  0  0  0  0  2  0  0  0  0  0  0
  180.8560  175.1560  138.9200 C   0  0  0  0  0  2  0  0  0  0  0  0
  178.9600  176.5250  138.4400 O   0  0  0  0  0  1  0  0  0  0  0  0
  180.3310  176.3950  138.2020 C   0  0  1  0  0  3  0  0  0  0  0  0
  181.0790  177.6550  138.6510 C   0  0  2  0  0  3  0  0  0  0  0  0
  180.5990  179.8280  139.5660 O   0  0  0  0  0  1  0  0  0  0  0  0
  180.2410  178.4760  139.6350 C   0  0  2  0  0  3  0  0  0  0  0  0
  181.5290  178.6700  141.7700 C   0  0  0  0  0  2  0  0  0  0  0  0
  180.9580  179.4120  142.8780 N   0  0  0  0  0  0  0  0  0  0  0  0
  179.1910  178.2010  141.8280 N   0  0  0  0  0  2  0  0  0  0  0  0
  181.3300  178.7030  144.0940 C   0  0  0  0  0  1  0  0  0  0  0  0
  180.4010  177.9520  141.0620 C   0  0  1  0  0  3  0  0  0  0  0  0
  179.5100  179.2980  142.7370 C   0  0  0  0  0  2  0  0  0  0  0  0
  182.7330  178.5220  137.5790 O   0  0  0  0  0  1  0  0  0  0  0  0
  181.4180  178.4370  137.5420 O   0  0  0  0  0  0  0  0  0  0  0  0
  187.7180  177.9620  138.3260 C   0  0  0  0  0  2  0  0  0  0  0  0
  185.4560  178.2500  142.2200 C   0  0  1  0  0  3  0  0  0  0  0  0
  185.9240  179.4720  141.4490 C   0  0  0  0  0  2  0  0  0  0  0  0
  189.9210  178.9520  141.2990 C   0  0  0  0  0  2  0  0  0  0  0  0
  188.1760  177.9570  139.7810 C   0  0  1  0  0  3  0  0  0  0  0  0
  186.9070  178.3560  141.7460 C   0  0  1  0  0  0  0  0  0  0  0  0
  188.9320  179.2330  140.1650 C   0  0  0  0  0  2  0  0  0  0  0  0
  189.3580  178.2520  142.4650 N   0  0  0  0  0  0  0  0  0  0  0  0
  187.9840  178.6430  142.8230 C   0  0  0  0  0  2  0  0  0  0  0  0
  187.1690  177.4750  140.6690 O   0  0  0  0  0  0  0  0  0  0  0  0
  189.4740  176.8090  142.3140 C   0  0  0  0  0  2  0  0  0  0  0  0
  190.2560  174.9900  143.6220 O   0  0  0  0  0  0  0  0  0  0  0  0
  190.3370  177.0970  144.6630 N   0  0  0  0  0  2  0  0  0  0  0  0
  190.0250  176.2270  143.5660 C   0  0  0  0  0  0  0  0  0  0  0  0
  192.0420  175.7690  145.7890 C   0  0  0  0  0  3  0  0  0  0  0  0
  191.4060  176.9130  148.2570 C   0  0  0  0  0  3  0  0  0  0  0  0
  192.7260  175.3730  146.9390 C   0  0  0  0  0  3  0  0  0  0  0  0
  190.7170  177.3030  147.1050 C   0  0  0  0  0  3  0  0  0  0  0  0
  191.0330  176.7330  145.8630 C   0  0  0  0  0  0  0  0  0  0  0  0
  192.4090  175.9470  148.1720 C   0  0  0  0  0  3  0  0  0  0  0  0
  185.2610  178.6300  143.6820 C   0  0  0  0  0  2  0  0  0  0  0  0
  185.9600  177.6810  144.5310 N   0  0  0  0  0  2  0  0  0  0  0  0
  185.4330  178.9640  146.5460 O   0  0  0  0  0  0  0  0  0  0  0  0
  186.5570  176.9650  146.6610 O   0  0  0  0  0  1  0  0  0  0  0  0
  186.0010  177.8440  145.9470 C   0  0  0  0  0  0  0  0  0  0  0  0
  1 45  1  6  0  0  0
  2 15  1  0  0  0  0
  2  9  1  0  0  0  0
  3  6  1  0  0  0  0
  3 10  1  0  0  0  0
  4  5  1  0  0  0  0
  4  1  1  0  0  0  0
  5  8  1  0  0  0  0
  6  4  2  0  0  0  0
  8  7  2  0  0  0  0
  9 12  2  0  0  0  0
 10  9  1  0  0  0  0
 10  5  2  0  0  0  0
 11 15  1  0  0  0  0
 11 18  1  0  0  0  0
 12  7  1  0  0  0  0
 13  1  1  0  0  0  0
 14 13  1  0  0  0  0
 15 16  2  0  0  0  0
 16 12  1  0  0  0  0
 17  6  1  0  0  0  0
 17 14  2  0  0  0  0
 18 19  1  6  0  0  0
 20 22  1  0  0  0  0
 21 22  1  0  0  0  0
 23 24  1  0  0  0  0
 23 20  1  0  0  0  0
 24 18  1  0  0  0  0
 24 21  1  0  0  0  0
 25 14  1  0  0  0  0
 26 25  1  0  0  0  0
 26 27  1  0  0  0  0
 28 27  1  0  0  0  0
 28 29  1  0  0  0  0
 29 30  1  0  0  0  0
 30 31  1  0  0  0  0
 33 32  1  1  0  0  0
 33 34  1  0  0  0  0
 33 31  1  0  0  0  0
 34 44  1  6  0  0  0
 34 36  1  0  0  0  0
 36 35  1  1  0  0  0
 37 38  1  0  0  0  0
 38 40  1  0  0  0  0
 39 42  1  0  0  0  0
 41 36  1  6  0  0  0
 41 37  1  0  0  0  0
 41 39  1  0  0  0  0
 42 38  1  0  0  0  0
 44 43  1  0  0  0  0
 46 65  1  1  0  0  0
 47 46  1  0  0  0  0
 48 52  1  0  0  0  0
 49 45  1  6  0  0  0
 49 51  1  0  0  0  0
 49 54  1  0  0  0  0
 50 47  1  6  0  0  0
 50 46  1  0  0  0  0
 50 53  1  0  0  0  0
 51 48  1  0  0  0  0
 52 53  1  0  0  0  0
 54 50  1  0  0  0  0
 55 52  1  0  0  0  0
 55 58  1  0  0  0  0
 57 63  1  0  0  0  0
 58 56  2  0  0  0  0
 58 57  1  0  0  0  0
 59 63  2  0  0  0  0
 59 61  1  0  0  0  0
 61 64  2  0  0  0  0
 62 60  2  0  0  0  0
 63 62  1  0  0  0  0
 64 60  1  0  0  0  0
 65 66  1  0  0  0  0
 66 69  1  0  0  0  0
 69 67  2  0  0  0  0
 69 68  1  0  0  0  0
M  END
>  <MODEL>
2

>  <REMARK>
 VINA RESULT:      -4.1      1.850      3.736
  Name = 
  21 active torsions:
  status: ('A' for Active; 'I' for Inactive)
    1  A    between atoms: C_1  and  C_32
    2  A    between atoms: C_2  and  C_8
    3  A    between atoms: C_8  and  N_16
    4  A    between atoms: C_12  and  C_35
    5  A    between atoms: C_12  and  O_58
    6  A    between atoms: C_12  and  C_61
    7  A    between atoms: C_15  and  C_32
    8  A    between atoms: N_25  and  C_49
    9  A    between atoms: C_28  and  N_50
   10  A    between atoms: C_28  and  C_52
   11  A    between atoms: C_29  and  N_46
   12  A    between atoms: C_29  and  C_61
   13  A    between atoms: C_33  and  N_44
   14  A    between atoms: C_33  and  C_67
   15  A    between atoms: C_34  and  C_40
   16  A    between atoms: C_34  and  N_46
   17  A    between atoms: C_35  and  C_59
   18  A    between atoms: C_40  and  C_56
   19  A    between atoms: C_55  and  C_62
   20  A    between atoms: C_56  and  C_69
   21  A    between atoms: C_62  and  C_69
                            x       y       z     vdW  Elec       q    Type
                         _______ _______ _______ _____ _____    ______ ____

>  <TORSDO>
F 21

$$$$
=
 OpenBabel10222415103D

 69 77  0  0  1  0  0  0  0  0999 V2000
  187.3830  176.8480  137.9650 C   0  0  2  0  0  3  0  0  0  0  0  0
  192.7940  175.8120  134.7910 C   0  0  0  0  0  2  0  0  0  0  0  0
  189.4620  176.6230  134.5940 S   0  0  0  0  0  0  0  0  0  0  0  0
  188.4060  176.5730  136.9070 C   0  0  0  0  0  0  0  0  0  0  0  0
  189.7390  176.2010  137.0870 C   0  0  0  0  0  0  0  0  0  0  0  0
  188.1080  176.8330  135.5820 C   0  0  0  0  0  0  0  0  0  0  0  0
  191.7360  175.5230  138.2940 C   0  0  0  0  0  3  0  0  0  0  0  0
  190.3660  175.8660  138.3030 C   0  0  0  0  0  3  0  0  0  0  0  0
  191.8020  175.8630  135.8900 C   0  0  0  0  0  0  0  0  0  0  0  0
  190.4560  176.1930  135.8890 C   0  0  0  0  0  0  0  0  0  0  0  0
  195.2930  175.2180  135.0000 N   0  0  0  0  0  2  0  0  0  0  0  0
  192.4220  175.5320  137.0700 C   0  0  0  0  0  0  0  0  0  0  0  0
  186.0690  176.9060  137.3840 O   0  0  0  0  0  0  0  0  0  0  0  0
  185.8220  177.1930  136.0260 C   0  0  0  0  0  0  0  0  0  0  0  0
  194.0040  175.3970  135.5910 C   0  0  0  0  0  0  0  0  0  0  0  0
  193.7890  175.2370  136.8630 N   0  0  0  0  0  0  0  0  0  0  0  0
  186.7900  177.1670  135.1530 N   0  0  0  0  0  0  0  0  0  0  0  0
  196.4410  174.7250  135.7520 C   0  0  2  0  0  3  0  0  0  0  0  0
  197.7090  175.4030  135.2440 C   0  0  0  0  0  1  0  0  0  0  0  0
  194.8740  171.4660  135.2220 C   0  0  0  0  0  2  0  0  0  0  0  0
  196.1570  172.5050  136.9750 C   0  0  0  0  0  2  0  0  0  0  0  0
  194.8720  171.7430  136.7120 C   0  0  0  0  0  2  0  0  0  0  0  0
  195.5750  172.6520  134.5940 C   0  0  0  0  0  2  0  0  0  0  0  0
  196.5160  173.1940  135.6610 C   0  0  0  0  0  3  0  0  0  0  0  0
  184.4340  177.4920  135.5750 C   0  0  0  0  0  2  0  0  0  0  0  0
  183.5850  176.2360  135.6550 C   0  0  0  0  0  2  0  0  0  0  0  0
  183.0220  176.0980  137.0620 C   0  0  0  0  0  2  0  0  0  0  0  0
  181.7980  175.1900  137.0610 C   0  0  0  0  0  2  0  0  0  0  0  0
  180.9190  175.4230  138.2820 C   0  0  0  0  0  2  0  0  0  0  0  0
  181.7210  175.9400  139.3790 N   0  0  0  0  0  2  0  0  0  0  0  0
  180.9220  176.9520  140.0530 C   0  0  0  0  0  2  0  0  0  0  0  0
  178.9330  178.1740  139.5510 O   0  0  0  0  0  1  0  0  0  0  0  0
  180.1850  177.8210  139.0390 C   0  0  1  0  0  3  0  0  0  0  0  0
  180.9960  179.0710  138.6850 C   0  0  2  0  0  3  0  0  0  0  0  0
  181.5220  179.8360  136.4660 O   0  0  0  0  0  1  0  0  0  0  0  0
  180.4830  179.7190  137.3960 C   0  0  2  0  0  3  0  0  0  0  0  0
  180.9320  182.1030  137.9990 C   0  0  0  0  0  2  0  0  0  0  0  0
  180.9110  183.1150  136.9590 N   0  0  0  0  0  0  0  0  0  0  0  0
  179.1510  181.5690  136.5050 N   0  0  0  0  0  2  0  0  0  0  0  0
  180.3200  184.3080  137.5480 C   0  0  0  0  0  1  0  0  0  0  0  0
  179.8590  181.0850  137.6790 C   0  0  1  0  0  3  0  0  0  0  0  0
  179.9830  182.6290  135.9430 C   0  0  0  0  0  2  0  0  0  0  0  0
  182.9930  179.7520  139.1130 O   0  0  0  0  0  1  0  0  0  0  0  0
  182.3510  178.7480  138.5520 O   0  0  0  0  0  0  0  0  0  0  0  0
  187.7210  178.1850  138.6180 C   0  0  0  0  0  2  0  0  0  0  0  0
  185.3190  177.8210  142.4210 C   0  0  1  0  0  3  0  0  0  0  0  0
  185.6630  179.1590  141.7900 C   0  0  0  0  0  2  0  0  0  0  0  0
  189.6960  179.1190  141.7640 C   0  0  0  0  0  2  0  0  0  0  0  0
  188.1300  178.0870  140.0840 C   0  0  1  0  0  3  0  0  0  0  0  0
  186.7610  178.1400  142.0220 C   0  0  1  0  0  0  0  0  0  0  0  0
  188.7170  179.3970  140.6200 C   0  0  0  0  0  2  0  0  0  0  0  0
  189.1830  178.2470  142.8320 N   0  0  0  0  0  0  0  0  0  0  0  0
  187.7630  178.4390  143.1670 C   0  0  0  0  0  2  0  0  0  0  0  0
  187.1600  177.4060  140.8780 O   0  0  0  0  0  0  0  0  0  0  0  0
  189.4740  176.8490  142.5490 C   0  0  0  0  0  2  0  0  0  0  0  0
  191.1200  175.3700  143.4060 O   0  0  0  0  0  0  0  0  0  0  0  0
  190.1520  176.8300  144.9750 N   0  0  0  0  0  2  0  0  0  0  0  0
  190.2890  176.2830  143.6560 C   0  0  0  0  0  0  0  0  0  0  0  0
  190.8830  177.3410  147.2420 C   0  0  0  0  0  3  0  0  0  0  0  0
  192.6860  175.2080  147.2200 C   0  0  0  0  0  3  0  0  0  0  0  0
  191.6860  177.0940  148.3570 C   0  0  0  0  0  3  0  0  0  0  0  0
  191.8860  175.4610  146.1020 C   0  0  0  0  0  3  0  0  0  0  0  0
  190.9780  176.5300  146.1080 C   0  0  0  0  0  0  0  0  0  0  0  0
  192.5860  176.0260  148.3450 C   0  0  0  0  0  3  0  0  0  0  0  0
  185.0340  178.0280  143.9020 C   0  0  0  0  0  2  0  0  0  0  0  0
  184.3780  179.3100  144.0980 N   0  0  0  0  0  2  0  0  0  0  0  0
  182.2290  178.4230  143.3380 O   0  0  0  0  0  0  0  0  0  0  0  0
  182.4310  180.5810  144.0940 O   0  0  0  0  0  1  0  0  0  0  0  0
  182.9830  179.4740  143.8490 C   0  0  0  0  0  0  0  0  0  0  0  0
  1 45  1  6  0  0  0
  2 15  1  0  0  0  0
  2  9  1  0  0  0  0
  3  6  1  0  0  0  0
  3 10  1  0  0  0  0
  4  5  1  0  0  0  0
  4  1  1  0  0  0  0
  5  8  1  0  0  0  0
  6  4  2  0  0  0  0
  7  8  2  0  0  0  0
  9 12  2  0  0  0  0
 10  9  1  0  0  0  0
 10  5  2  0  0  0  0
 11 15  1  0  0  0  0
 11 18  1  0  0  0  0
 12  7  1  0  0  0  0
 13  1  1  0  0  0  0
 14 13  1  0  0  0  0
 15 16  2  0  0  0  0
 16 12  1  0  0  0  0
 17  6  1  0  0  0  0
 17 14  2  0  0  0  0
 18 19  1  6  0  0  0
 20 22  1  0  0  0  0
 22 21  1  0  0  0  0
 23 20  1  0  0  0  0
 23 24  1  0  0  0  0
 24 18  1  0  0  0  0
 24 21  1  0  0  0  0
 25 26  1  0  0  0  0
 25 14  1  0  0  0  0
 26 27  1  0  0  0  0
 28 27  1  0  0  0  0
 28 29  1  0  0  0  0
 29 30  1  0  0  0  0
 30 31  1  0  0  0  0
 33 32  1  1  0  0  0
 33 31  1  0  0  0  0
 34 44  1  6  0  0  0
 34 33  1  0  0  0  0
 36 35  1  6  0  0  0
 36 34  1  0  0  0  0
 38 40  1  0  0  0  0
 38 37  1  0  0  0  0
 39 41  1  0  0  0  0
 41 36  1  6  0  0  0
 41 37  1  0  0  0  0
 42 39  1  0  0  0  0
 42 38  1  0  0  0  0
 44 43  1  0  0  0  0
 46 65  1  1  0  0  0
 47 46  1  0  0  0  0
 48 52  1  0  0  0  0
 49 45  1  6  0  0  0
 49 51  1  0  0  0  0
 49 54  1  0  0  0  0
 50 47  1  6  0  0  0
 50 46  1  0  0  0  0
 50 53  1  0  0  0  0
 51 48  1  0  0  0  0
 52 53  1  0  0  0  0
 54 50  1  0  0  0  0
 55 52  1  0  0  0  0
 55 58  1  0  0  0  0
 56 58  2  0  0  0  0
 57 63  1  0  0  0  0
 58 57  1  0  0  0  0
 59 61  1  0  0  0  0
 60 64  1  0  0  0  0
 62 63  1  0  0  0  0
 62 60  2  0  0  0  0
 63 59  2  0  0  0  0
 64 61  2  0  0  0  0
 65 66  1  0  0  0  0
 67 69  2  0  0  0  0
 69 68  1  0  0  0  0
 69 66  1  0  0  0  0
M  END
>  <MODEL>
3

>  <REMARK>
 VINA RESULT:      -4.0      2.459      4.122
  Name = 
  21 active torsions:
  status: ('A' for Active; 'I' for Inactive)
    1  A    between atoms: C_1  and  C_32
    2  A    between atoms: C_2  and  C_8
    3  A    between atoms: C_8  and  N_16
    4  A    between atoms: C_12  and  C_35
    5  A    between atoms: C_12  and  O_58
    6  A    between atoms: C_12  and  C_61
    7  A    between atoms: C_15  and  C_32
    8  A    between atoms: N_25  and  C_49
    9  A    between atoms: C_28  and  N_50
   10  A    between atoms: C_28  and  C_52
   11  A    between atoms: C_29  and  N_46
   12  A    between atoms: C_29  and  C_61
   13  A    between atoms: C_33  and  N_44
   14  A    between atoms: C_33  and  C_67
   15  A    between atoms: C_34  and  C_40
   16  A    between atoms: C_34  and  N_46
   17  A    between atoms: C_35  and  C_59
   18  A    between atoms: C_40  and  C_56
   19  A    between atoms: C_55  and  C_62
   20  A    between atoms: C_56  and  C_69
   21  A    between atoms: C_62  and  C_69
                            x       y       z     vdW  Elec       q    Type
                         _______ _______ _______ _____ _____    ______ ____

>  <TORSDO>
F 21

$$$$
=
 OpenBabel10222415103D

 69 77  0  0  1  0  0  0  0  0999 V2000
  189.7120  177.6780  139.1940 C   0  0  2  0  0  3  0  0  0  0  0  0
  195.4180  174.9390  138.5890 C   0  0  0  0  0  2  0  0  0  0  0  0
  193.1280  176.3570  140.7200 S   0  0  0  0  0  0  0  0  0  0  0  0
  191.1120  177.1940  139.4140 C   0  0  0  0  0  0  0  0  0  0  0  0
  191.9910  176.6700  138.4660 C   0  0  0  0  0  0  0  0  0  0  0  0
  191.6080  177.0930  140.7010 C   0  0  0  0  0  0  0  0  0  0  0  0
  192.7980  176.0360  136.2630 C   0  0  0  0  0  3  0  0  0  0  0  0
  191.7970  176.6180  137.0720 C   0  0  0  0  0  3  0  0  0  0  0  0
  194.1290  175.5820  138.2430 C   0  0  0  0  0  0  0  0  0  0  0  0
  193.1550  176.1580  139.0430 C   0  0  0  0  0  0  0  0  0  0  0  0
  197.0910  173.8680  136.9460 N   0  0  0  0  0  2  0  0  0  0  0  0
  193.9500  175.5290  136.8830 C   0  0  0  0  0  0  0  0  0  0  0  0
  189.2520  178.4110  140.3430 O   0  0  0  0  0  0  0  0  0  0  0  0
  189.7840  178.2560  141.6380 C   0  0  0  0  0  0  0  0  0  0  0  0
  195.8680  174.5630  137.1980 C   0  0  0  0  0  0  0  0  0  0  0  0
  195.0460  174.9000  136.2480 N   0  0  0  0  0  0  0  0  0  0  0  0
  190.9090  177.6220  141.8250 N   0  0  0  0  0  0  0  0  0  0  0  0
  197.5740  173.5880  135.5990 C   0  0  2  0  0  3  0  0  0  0  0  0
  196.7830  174.4190  134.5950 C   0  0  0  0  0  1  0  0  0  0  0  0
  196.3190  170.2410  136.3630 C   0  0  0  0  0  2  0  0  0  0  0  0
  198.4850  171.2670  136.1340 C   0  0  0  0  0  2  0  0  0  0  0  0
  197.6520  170.4060  137.0650 C   0  0  0  0  0  2  0  0  0  0  0  0
  196.1030  171.5320  135.6020 C   0  0  0  0  0  2  0  0  0  0  0  0
  197.4920  172.0820  135.3100 C   0  0  0  0  0  3  0  0  0  0  0  0
  189.0750  178.8540  142.8050 C   0  0  0  0  0  2  0  0  0  0  0  0
  188.1060  177.8430  143.3910 C   0  0  0  0  0  2  0  0  0  0  0  0
  187.0280  177.5270  142.3650 C   0  0  0  0  0  2  0  0  0  0  0  0
  185.7240  178.2270  142.7300 C   0  0  0  0  0  2  0  0  0  0  0  0
  185.0270  178.8000  141.5030 C   0  0  0  0  0  2  0  0  0  0  0  0
  183.8690  177.9880  141.1660 N   0  0  0  0  0  2  0  0  0  0  0  0
  182.7260  178.8870  141.0860 C   0  0  0  0  0  2  0  0  0  0  0  0
  181.7550  177.0080  139.9770 O   0  0  0  0  0  1  0  0  0  0  0  0
  181.7350  178.4050  140.0320 C   0  0  1  0  0  3  0  0  0  0  0  0
  180.3200  178.9140  140.3260 C   0  0  2  0  0  3  0  0  0  0  0  0
  180.0760  179.0970  137.9400 O   0  0  0  0  0  1  0  0  0  0  0  0
  179.7650  179.7240  139.1510 C   0  0  2  0  0  3  0  0  0  0  0  0
  181.1860  181.4050  137.9660 C   0  0  0  0  0  2  0  0  0  0  0  0
  180.5500  182.4240  137.1520 N   0  0  0  0  0  0  0  0  0  0  0  0
  179.2070  182.1060  139.0980 N   0  0  0  0  0  2  0  0  0  0  0  0
  181.3210  183.6460  137.3320 C   0  0  0  0  0  1  0  0  0  0  0  0
  180.3040  181.1540  139.1690 C   0  0  1  0  0  3  0  0  0  0  0  0
  179.2360  182.6510  137.7440 C   0  0  0  0  0  2  0  0  0  0  0  0
  179.6570  178.9750  142.3740 O   0  0  0  0  0  1  0  0  0  0  0  0
  180.3180  179.6930  141.4880 O   0  0  0  0  0  0  0  0  0  0  0  0
  188.8190  176.4630  138.9630 C   0  0  0  0  0  2  0  0  0  0  0  0
  186.9060  173.5340  136.1120 C   0  0  1  0  0  3  0  0  0  0  0  0
  188.2290  174.2220  135.8200 C   0  0  0  0  0  2  0  0  0  0  0  0
  187.2340  178.1300  135.9010 C   0  0  0  0  0  2  0  0  0  0  0  0
  187.7900  176.6370  137.8510 C   0  0  1  0  0  3  0  0  0  0  0  0
  187.0360  175.0520  136.2540 C   0  0  1  0  0  0  0  0  0  0  0  0
  188.3530  177.3930  136.6420 C   0  0  0  0  0  2  0  0  0  0  0  0
  186.0600  177.3100  135.5620 N   0  0  0  0  0  0  0  0  0  0  0  0
  186.3600  175.9240  135.1660 C   0  0  0  0  0  2  0  0  0  0  0  0
  187.0360  175.4510  137.6130 O   0  0  0  0  0  0  0  0  0  0  0  0
  185.0690  177.3530  136.6270 C   0  0  0  0  0  2  0  0  0  0  0  0
  183.3420  177.4330  135.0010 O   0  0  0  0  0  0  0  0  0  0  0  0
  182.9910  175.9370  136.7810 N   0  0  0  0  0  2  0  0  0  0  0  0
  183.7480  176.9380  136.0860 C   0  0  0  0  0  0  0  0  0  0  0  0
  181.8400  174.6010  135.1010 C   0  0  0  0  0  3  0  0  0  0  0  0
  179.4410  174.7440  136.5250 C   0  0  0  0  0  3  0  0  0  0  0  0
  180.6920  173.9840  134.6000 C   0  0  0  0  0  3  0  0  0  0  0  0
  180.5890  175.3670  137.0220 C   0  0  0  0  0  3  0  0  0  0  0  0
  181.7970  175.2980  136.3110 C   0  0  0  0  0  0  0  0  0  0  0  0
  179.4940  174.0550  135.3140 C   0  0  0  0  0  3  0  0  0  0  0  0
  186.2750  173.0940  134.7990 C   0  0  0  0  0  2  0  0  0  0  0  0
  185.8090  171.7220  134.9160 N   0  0  0  0  0  2  0  0  0  0  0  0
  184.1500  172.3390  136.6030 O   0  0  0  0  0  1  0  0  0  0  0  0
  184.3080  170.1890  135.8120 O   0  0  0  0  0  0  0  0  0  0  0  0
  184.7330  171.3770  135.7850 C   0  0  0  0  0  0  0  0  0  0  0  0
  1 45  1  1  0  0  0
  1  4  1  0  0  0  0
  1 13  1  0  0  0  0
  4  6  2  0  0  0  0
  5 10  1  0  0  0  0
  5  4  1  0  0  0  0
  6  3  1  0  0  0  0
  6 17  1  0  0  0  0
  7 12  2  0  0  0  0
  7  8  1  0  0  0  0
  8  5  2  0  0  0  0
  9  2  1  0  0  0  0
  9 10  2  0  0  0  0
 10  3  1  0  0  0  0
 11 15  1  0  0  0  0
 12  9  1  0  0  0  0
 13 14  1  0  0  0  0
 14 17  2  0  0  0  0
 14 25  1  0  0  0  0
 15  2  1  0  0  0  0
 16 12  1  0  0  0  0
 16 15  2  0  0  0  0
 18 19  1  6  0  0  0
 18 11  1  0  0  0  0
 20 22  1  0  0  0  0
 21 22  1  0  0  0  0
 23 20  1  0  0  0  0
 24 18  1  0  0  0  0
 24 23  1  0  0  0  0
 24 21  1  0  0  0  0
 25 26  1  0  0  0  0
 27 28  1  0  0  0  0
 27 26  1  0  0  0  0
 29 28  1  0  0  0  0
 30 29  1  0  0  0  0
 31 30  1  0  0  0  0
 33 32  1  1  0  0  0
 33 34  1  0  0  0  0
 33 31  1  0  0  0  0
 34 44  1  1  0  0  0
 36 35  1  6  0  0  0
 36 34  1  0  0  0  0
 37 41  1  0  0  0  0
 38 40  1  0  0  0  0
 38 42  1  0  0  0  0
 38 37  1  0  0  0  0
 39 41  1  0  0  0  0
 41 36  1  6  0  0  0
 42 39  1  0  0  0  0
 44 43  1  0  0  0  0
 46 65  1  6  0  0  0
 46 50  1  0  0  0  0
 47 46  1  0  0  0  0
 47 50  1  0  0  0  0
 48 51  1  0  0  0  0
 49 45  1  1  0  0  0
 50 53  1  6  0  0  0
 50 54  1  0  0  0  0
 51 49  1  0  0  0  0
 52 48  1  0  0  0  0
 52 55  1  0  0  0  0
 53 52  1  0  0  0  0
 54 49  1  0  0  0  0
 56 58  2  0  0  0  0
 58 55  1  0  0  0  0
 58 57  1  0  0  0  0
 59 63  1  0  0  0  0
 60 62  1  0  0  0  0
 61 59  2  0  0  0  0
 61 64  1  0  0  0  0
 63 57  1  0  0  0  0
 63 62  2  0  0  0  0
 64 60  2  0  0  0  0
 65 66  1  0  0  0  0
 66 69  1  0  0  0  0
 69 68  2  0  0  0  0
 69 67  1  0  0  0  0
M  END
>  <MODEL>
4

>  <REMARK>
 VINA RESULT:      -4.0      2.806      8.302
  Name = 
  21 active torsions:
  status: ('A' for Active; 'I' for Inactive)
    1  A    between atoms: C_1  and  C_32
    2  A    between atoms: C_2  and  C_8
    3  A    between atoms: C_8  and  N_16
    4  A    between atoms: C_12  and  C_35
    5  A    between atoms: C_12  and  O_58
    6  A    between atoms: C_12  and  C_61
    7  A    between atoms: C_15  and  C_32
    8  A    between atoms: N_25  and  C_49
    9  A    between atoms: C_28  and  N_50
   10  A    between atoms: C_28  and  C_52
   11  A    between atoms: C_29  and  N_46
   12  A    between atoms: C_29  and  C_61
   13  A    between atoms: C_33  and  N_44
   14  A    between atoms: C_33  and  C_67
   15  A    between atoms: C_34  and  C_40
   16  A    between atoms: C_34  and  N_46
   17  A    between atoms: C_35  and  C_59
   18  A    between atoms: C_40  and  C_56
   19  A    between atoms: C_55  and  C_62
   20  A    between atoms: C_56  and  C_69
   21  A    between atoms: C_62  and  C_69
                            x       y       z     vdW  Elec       q    Type
                         _______ _______ _______ _____ _____    ______ ____

>  <TORSDO>
F 21

$$$$
=
 OpenBabel10222415103D

 69 77  0  0  1  0  0  0  0  0999 V2000
  190.1780  177.8790  139.9880 C   0  0  2  0  0  3  0  0  0  0  0  0
  195.6710  174.9360  138.7270 C   0  0  0  0  0  2  0  0  0  0  0  0
  193.6680  176.3690  141.1200 S   0  0  0  0  0  0  0  0  0  0  0  0
  191.5700  177.3320  140.0520 C   0  0  0  0  0  0  0  0  0  0  0  0
  192.3270  176.8070  139.0030 C   0  0  0  0  0  0  0  0  0  0  0  0
  192.1870  177.1660  141.2780 C   0  0  0  0  0  0  0  0  0  0  0  0
  192.8840  176.2190  136.7120 C   0  0  0  0  0  3  0  0  0  0  0  0
  191.9940  176.8120  137.6350 C   0  0  0  0  0  3  0  0  0  0  0  0
  194.3830  175.6420  138.5330 C   0  0  0  0  0  0  0  0  0  0  0  0
  193.5190  176.2280  139.4450 C   0  0  0  0  0  0  0  0  0  0  0  0
  197.1240  173.8570  136.8920 N   0  0  0  0  0  2  0  0  0  0  0  0
  194.0680  175.6450  137.1970 C   0  0  0  0  0  0  0  0  0  0  0  0
  189.8680  178.5900  141.2000 O   0  0  0  0  0  0  0  0  0  0  0  0
  190.5180  178.3680  142.4300 C   0  0  0  0  0  0  0  0  0  0  0  0
  195.9640  174.5920  137.2870 C   0  0  0  0  0  0  0  0  0  0  0  0
  195.0670  174.9950  136.4360 N   0  0  0  0  0  0  0  0  0  0  0  0
  191.6270  177.6830  142.4830 N   0  0  0  0  0  0  0  0  0  0  0  0
  197.4580  173.6050  135.4950 C   0  0  2  0  0  3  0  0  0  0  0  0
  196.3410  174.1360  134.6030 C   0  0  0  0  0  1  0  0  0  0  0  0
  196.3700  170.1160  135.5350 C   0  0  0  0  0  2  0  0  0  0  0  0
  198.1410  171.3890  136.5550 C   0  0  0  0  0  2  0  0  0  0  0  0
  197.0240  170.4110  136.8690 C   0  0  0  0  0  2  0  0  0  0  0  0
  196.4930  171.3950  134.7350 C   0  0  0  0  0  2  0  0  0  0  0  0
  197.7250  172.1090  135.2750 C   0  0  0  0  0  3  0  0  0  0  0  0
  189.9550  178.9530  143.6790 C   0  0  0  0  0  2  0  0  0  0  0  0
  189.0600  177.9360  144.3650 C   0  0  0  0  0  2  0  0  0  0  0  0
  188.5550  176.9360  143.3360 C   0  0  0  0  0  2  0  0  0  0  0  0
  187.0330  176.8610  143.3680 C   0  0  0  0  0  2  0  0  0  0  0  0
  186.3920  178.1770  142.9480 C   0  0  0  0  0  2  0  0  0  0  0  0
  185.3710  177.9320  141.9420 N   0  0  0  0  0  2  0  0  0  0  0  0
  184.2490  178.8080  142.2500 C   0  0  0  0  0  2  0  0  0  0  0  0
  183.3850  177.5230  140.4320 O   0  0  0  0  0  1  0  0  0  0  0  0
  183.1530  178.6690  141.1980 C   0  0  1  0  0  3  0  0  0  0  0  0
  181.7660  178.6140  141.8460 C   0  0  2  0  0  3  0  0  0  0  0  0
  179.8800  177.9830  140.4930 O   0  0  0  0  0  1  0  0  0  0  0  0
  180.6780  179.0690  140.8690 C   0  0  2  0  0  3  0  0  0  0  0  0
  180.9140  178.9840  138.3820 C   0  0  0  0  0  2  0  0  0  0  0  0
  180.1040  179.8650  137.5620 N   0  0  0  0  0  0  0  0  0  0  0  0
  180.7810  181.0900  139.4940 N   0  0  0  0  0  2  0  0  0  0  0  0
  180.9400  180.2860  136.4460 C   0  0  0  0  0  1  0  0  0  0  0  0
  181.2920  179.7370  139.6390 C   0  0  1  0  0  3  0  0  0  0  0  0
  179.8420  181.0470  138.3760 C   0  0  0  0  0  2  0  0  0  0  0  0
  180.6100  180.0850  142.9120 O   0  0  0  0  0  1  0  0  0  0  0  0
  181.7380  179.4080  142.9980 O   0  0  0  0  0  0  0  0  0  0  0  0
  189.2140  176.7100  139.8110 C   0  0  0  0  0  2  0  0  0  0  0  0
  188.4050  174.1040  136.2170 C   0  0  1  0  0  3  0  0  0  0  0  0
  189.4950  175.1620  136.2370 C   0  0  0  0  0  2  0  0  0  0  0  0
  187.4310  178.5500  136.9640 C   0  0  0  0  0  2  0  0  0  0  0  0
  188.2560  176.8550  138.6340 C   0  0  1  0  0  3  0  0  0  0  0  0
  188.0900  175.5300  136.6720 C   0  0  1  0  0  0  0  0  0  0  0  0
  188.6600  177.9850  137.6810 C   0  0  0  0  0  2  0  0  0  0  0  0
  186.5620  177.5500  136.3230 N   0  0  0  0  0  0  0  0  0  0  0  0
  187.2680  176.4170  135.7020 C   0  0  0  0  0  2  0  0  0  0  0  0
  187.8860  175.5980  138.0720 O   0  0  0  0  0  0  0  0  0  0  0  0
  185.5310  177.0900  137.2420 C   0  0  0  0  0  2  0  0  0  0  0  0
  184.1220  176.6220  135.3910 O   0  0  0  0  0  0  0  0  0  0  0  0
  184.1980  174.9610  137.0520 N   0  0  0  0  0  2  0  0  0  0  0  0
  184.5630  176.2360  136.5050 C   0  0  0  0  0  0  0  0  0  0  0  0
  182.0910  174.2110  136.0870 C   0  0  0  0  0  3  0  0  0  0  0  0
  183.1840  171.7210  135.4510 C   0  0  0  0  0  3  0  0  0  0  0  0
  181.3020  173.2390  135.4690 C   0  0  0  0  0  3  0  0  0  0  0  0
  183.9710  172.6920  136.0760 C   0  0  0  0  0  3  0  0  0  0  0  0
  183.4270  173.9450  136.3970 C   0  0  0  0  0  0  0  0  0  0  0  0
  181.8500  171.9950  135.1500 C   0  0  0  0  0  3  0  0  0  0  0  0
  188.0140  173.8220  134.7730 C   0  0  0  0  0  2  0  0  0  0  0  0
  187.7800  172.3980  134.6000 N   0  0  0  0  0  2  0  0  0  0  0  0
  190.1550  171.8860  134.8830 O   0  0  0  0  0  1  0  0  0  0  0  0
  188.5980  170.2220  134.6060 O   0  0  0  0  0  0  0  0  0  0  0  0
  188.8460  171.4550  134.6940 C   0  0  0  0  0  0  0  0  0  0  0  0
  1 45  1  1  0  0  0
  1  4  1  0  0  0  0
  1 13  1  0  0  0  0
  3  6  1  0  0  0  0
  4  6  2  0  0  0  0
  5 10  1  0  0  0  0
  5  4  1  0  0  0  0
  6 17  1  0  0  0  0
  7 12  2  0  0  0  0
  7  8  1  0  0  0  0
  8  5  2  0  0  0  0
  9  2  1  0  0  0  0
  9 10  2  0  0  0  0
 10  3  1  0  0  0  0
 11 15  1  0  0  0  0
 12  9  1  0  0  0  0
 13 14  1  0  0  0  0
 14 17  2  0  0  0  0
 14 25  1  0  0  0  0
 15  2  1  0  0  0  0
 16 12  1  0  0  0  0
 16 15  2  0  0  0  0
 18 19  1  6  0  0  0
 18 11  1  0  0  0  0
 20 22  1  0  0  0  0
 21 22  1  0  0  0  0
 23 24  1  0  0  0  0
 23 20  1  0  0  0  0
 24 18  1  0  0  0  0
 24 21  1  0  0  0  0
 25 26  1  0  0  0  0
 27 28  1  0  0  0  0
 27 26  1  0  0  0  0
 29 28  1  0  0  0  0
 30 31  1  0  0  0  0
 30 29  1  0  0  0  0
 33 32  1  1  0  0  0
 33 34  1  0  0  0  0
 33 31  1  0  0  0  0
 34 44  1  1  0  0  0
 36 35  1  6  0  0  0
 36 34  1  0  0  0  0
 37 41  1  0  0  0  0
 38 42  1  0  0  0  0
 38 37  1  0  0  0  0
 39 41  1  0  0  0  0
 40 38  1  0  0  0  0
 41 36  1  1  0  0  0
 42 39  1  0  0  0  0
 43 44  1  0  0  0  0
 46 65  1  6  0  0  0
 46 47  1  0  0  0  0
 46 50  1  0  0  0  0
 47 50  1  0  0  0  0
 48 51  1  0  0  0  0
 49 45  1  1  0  0  0
 50 53  1  6  0  0  0
 50 54  1  0  0  0  0
 51 49  1  0  0  0  0
 52 48  1  0  0  0  0
 52 55  1  0  0  0  0
 53 52  1  0  0  0  0
 54 49  1  0  0  0  0
 56 58  2  0  0  0  0
 58 57  1  0  0  0  0
 58 55  1  0  0  0  0
 59 63  1  0  0  0  0
 60 62  1  0  0  0  0
 61 59  2  0  0  0  0
 62 63  2  0  0  0  0
 63 57  1  0  0  0  0
 64 60  2  0  0  0  0
 64 61  1  0  0  0  0
 66 69  1  0  0  0  0
 66 65  1  0  0  0  0
 68 69  2  0  0  0  0
 69 67  1  0  0  0  0
M  END
>  <MODEL>
5

>  <REMARK>
 VINA RESULT:      -3.4      2.772      8.316
  Name = 
  21 active torsions:
  status: ('A' for Active; 'I' for Inactive)
    1  A    between atoms: C_1  and  C_32
    2  A    between atoms: C_2  and  C_8
    3  A    between atoms: C_8  and  N_16
    4  A    between atoms: C_12  and  C_35
    5  A    between atoms: C_12  and  O_58
    6  A    between atoms: C_12  and  C_61
    7  A    between atoms: C_15  and  C_32
    8  A    between atoms: N_25  and  C_49
    9  A    between atoms: C_28  and  N_50
   10  A    between atoms: C_28  and  C_52
   11  A    between atoms: C_29  and  N_46
   12  A    between atoms: C_29  and  C_61
   13  A    between atoms: C_33  and  N_44
   14  A    between atoms: C_33  and  C_67
   15  A    between atoms: C_34  and  C_40
   16  A    between atoms: C_34  and  N_46
   17  A    between atoms: C_35  and  C_59
   18  A    between atoms: C_40  and  C_56
   19  A    between atoms: C_55  and  C_62
   20  A    between atoms: C_56  and  C_69
   21  A    between atoms: C_62  and  C_69
                            x       y       z     vdW  Elec       q    Type
                         _______ _______ _______ _____ _____    ______ ____

>  <TORSDO>
F 21

$$$$
=
 OpenBabel10222415103D

 69 77  0  0  1  0  0  0  0  0999 V2000
  189.6060  175.2490  135.2420 C   0  0  2  0  0  3  0  0  0  0  0  0
  184.0560  173.2800  137.6400 C   0  0  0  0  0  2  0  0  0  0  0  0
  187.4750  173.3100  137.9690 S   0  0  0  0  0  0  0  0  0  0  0  0
  188.5380  174.5350  136.0100 C   0  0  0  0  0  0  0  0  0  0  0  0
  187.1630  174.5480  135.7690 C   0  0  0  0  0  0  0  0  0  0  0  0
  188.8580  173.8830  137.1860 C   0  0  0  0  0  0  0  0  0  0  0  0
  185.0950  175.0480  134.5940 C   0  0  0  0  0  3  0  0  0  0  0  0
  186.5040  175.1220  134.6650 C   0  0  0  0  0  3  0  0  0  0  0  0
  185.0570  173.8500  136.7060 C   0  0  0  0  0  0  0  0  0  0  0  0
  186.4390  173.9110  136.7790 C   0  0  0  0  0  0  0  0  0  0  0  0
  181.4960  173.3070  137.3520 N   0  0  0  0  0  2  0  0  0  0  0  0
  184.4050  174.4040  135.6330 C   0  0  0  0  0  0  0  0  0  0  0  0
  190.9030  174.7490  135.6120 O   0  0  0  0  0  0  0  0  0  0  0  0
  191.1780  174.1060  136.8350 C   0  0  0  0  0  0  0  0  0  0  0  0
  182.8040  173.6210  136.8710 C   0  0  0  0  0  0  0  0  0  0  0  0
  183.0050  174.2450  135.7470 N   0  0  0  0  0  0  0  0  0  0  0  0
  190.2080  173.6910  137.6020 N   0  0  0  0  0  0  0  0  0  0  0  0
  180.2900  173.5490  136.5690 C   0  0  2  0  0  3  0  0  0  0  0  0
  179.1230  173.8310  137.5080 C   0  0  0  0  0  1  0  0  0  0  0  0
  179.6380  169.9970  136.0070 C   0  0  0  0  0  2  0  0  0  0  0  0
  181.2850  171.5910  135.2720 C   0  0  0  0  0  2  0  0  0  0  0  0
  181.1320  170.2160  135.8930 C   0  0  0  0  0  2  0  0  0  0  0  0
  179.0490  171.3680  136.2600 C   0  0  0  0  0  2  0  0  0  0  0  0
  180.0180  172.3610  135.6340 C   0  0  0  0  0  3  0  0  0  0  0  0
  192.5910  173.8620  137.2410 C   0  0  0  0  0  2  0  0  0  0  0  0
  193.5280  174.6340  136.3300 C   0  0  0  0  0  2  0  0  0  0  0  0
  193.2330  176.1220  136.4510 C   0  0  0  0  0  2  0  0  0  0  0  0
  193.4020  176.8110  135.1020 C   0  0  0  0  0  2  0  0  0  0  0  0
  194.8590  176.8390  134.6590 C   0  0  0  0  0  2  0  0  0  0  0  0
  195.6680  176.0390  135.5640 N   0  0  0  0  0  2  0  0  0  0  0  0
  197.0620  176.3330  135.2660 C   0  0  0  0  0  2  0  0  0  0  0  0
  199.1420  175.3470  134.6330 O   0  0  0  0  0  1  0  0  0  0  0  0
  197.7690  175.0970  134.7200 C   0  0  1  0  0  3  0  0  0  0  0  0
  197.4980  173.8700  135.5950 C   0  0  2  0  0  3  0  0  0  0  0  0
  199.1780  172.1640  135.8310 O   0  0  0  0  0  1  0  0  0  0  0  0
  198.7680  173.4110  136.3170 C   0  0  2  0  0  3  0  0  0  0  0  0
  198.7730  174.7130  138.4510 C   0  0  0  0  0  2  0  0  0  0  0  0
  197.5110  175.1580  139.0130 N   0  0  0  0  0  0  0  0  0  0  0  0
  197.1780  172.9700  138.1240 N   0  0  0  0  0  2  0  0  0  0  0  0
  197.6340  175.0420  140.4590 C   0  0  0  0  0  1  0  0  0  0  0  0
  198.5490  173.3520  137.8280 C   0  0  1  0  0  3  0  0  0  0  0  0
  196.5130  174.1850  138.5840 C   0  0  0  0  0  2  0  0  0  0  0  0
  196.3720  172.0360  135.6780 O   0  0  0  0  0  1  0  0  0  0  0  0
  196.9840  172.8260  134.8190 O   0  0  0  0  0  0  0  0  0  0  0  0
  189.5130  176.7370  135.5670 C   0  0  0  0  0  2  0  0  0  0  0  0
  185.6230  177.2640  137.7920 C   0  0  1  0  0  3  0  0  0  0  0  0
  186.3200  178.4060  137.0720 C   0  0  0  0  0  2  0  0  0  0  0  0
  189.9060  178.5580  138.9130 C   0  0  0  0  0  2  0  0  0  0  0  0
  189.2000  177.0460  137.0270 C   0  0  1  0  0  3  0  0  0  0  0  0
  187.1080  177.5380  138.0340 C   0  0  1  0  0  0  0  0  0  0  0  0
  189.5790  178.4780  137.4190 C   0  0  0  0  0  2  0  0  0  0  0  0
  188.8960  177.9720  139.8090 N   0  0  0  0  0  0  0  0  0  0  0  0
  187.4990  178.1750  139.3920 C   0  0  0  0  0  2  0  0  0  0  0  0
  187.9250  176.5510  137.4300 O   0  0  0  0  0  0  0  0  0  0  0  0
  189.1730  176.5640  140.0580 C   0  0  0  0  0  2  0  0  0  0  0  0
  189.9660  175.3270  141.9200 O   0  0  0  0  0  0  0  0  0  0  0  0
  188.8700  177.3430  142.4340 N   0  0  0  0  0  2  0  0  0  0  0  0
  189.3510  176.3500  141.5170 C   0  0  0  0  0  0  0  0  0  0  0  0
  188.0420  177.6440  144.7050 C   0  0  0  0  0  3  0  0  0  0  0  0
  190.5950  177.2460  145.7670 C   0  0  0  0  0  3  0  0  0  0  0  0
  188.2430  177.7130  146.0850 C   0  0  0  0  0  3  0  0  0  0  0  0
  190.3930  177.1850  144.3850 C   0  0  0  0  0  3  0  0  0  0  0  0
  189.1130  177.3830  143.8460 C   0  0  0  0  0  0  0  0  0  0  0  0
  189.5200  177.5120  146.6150 C   0  0  0  0  0  3  0  0  0  0  0  0
  184.7120  177.8380  138.8690 C   0  0  0  0  0  2  0  0  0  0  0  0
  183.6020  178.5400  138.2460 N   0  0  0  0  0  2  0  0  0  0  0  0
  182.9000  179.5010  140.3830 O   0  0  0  0  0  1  0  0  0  0  0  0
  181.8300  180.0350  138.4220 O   0  0  0  0  0  0  0  0  0  0  0  0
  182.7410  179.3870  139.0050 C   0  0  0  0  0  0  0  0  0  0  0  0
  1 45  1  1  0  0  0
  1 13  1  0  0  0  0
  1  4  1  0  0  0  0
  4  6  2  0  0  0  0
  5  4  1  0  0  0  0
  5 10  1  0  0  0  0
  6 17  1  0  0  0  0
  6  3  1  0  0  0  0
  7  8  1  0  0  0  0
  7 12  2  0  0  0  0
  8  5  2  0  0  0  0
  9 10  2  0  0  0  0
  9  2  1  0  0  0  0
 10  3  1  0  0  0  0
 12 16  1  0  0  0  0
 12  9  1  0  0  0  0
 13 14  1  0  0  0  0
 14 25  1  0  0  0  0
 14 17  2  0  0  0  0
 15 11  1  0  0  0  0
 15  2  1  0  0  0  0
 16 15  2  0  0  0  0
 18 11  1  0  0  0  0
 18 19  1  1  0  0  0
 20 23  1  0  0  0  0
 21 24  1  0  0  0  0
 21 22  1  0  0  0  0
 22 20  1  0  0  0  0
 24 23  1  0  0  0  0
 24 18  1  0  0  0  0
 26 27  1  0  0  0  0
 26 25  1  0  0  0  0
 28 27  1  0  0  0  0
 29 28  1  0  0  0  0
 29 30  1  0  0  0  0
 31 30  1  0  0  0  0
 33 32  1  1  0  0  0
 33 31  1  0  0  0  0
 33 34  1  0  0  0  0
 34 44  1  6  0  0  0
 34 36  1  0  0  0  0
 36 35  1  6  0  0  0
 37 38  1  0  0  0  0
 38 40  1  0  0  0  0
 39 42  1  0  0  0  0
 41 36  1  6  0  0  0
 41 39  1  0  0  0  0
 41 37  1  0  0  0  0
 42 38  1  0  0  0  0
 44 43  1  0  0  0  0
 46 50  1  0  0  0  0
 46 65  1  1  0  0  0
 47 46  1  0  0  0  0
 48 52  1  0  0  0  0
 49 45  1  6  0  0  0
 49 51  1  0  0  0  0
 49 54  1  0  0  0  0
 50 47  1  6  0  0  0
 50 53  1  0  0  0  0
 51 48  1  0  0  0  0
 52 55  1  0  0  0  0
 53 52  1  0  0  0  0
 54 50  1  0  0  0  0
 55 58  1  0  0  0  0
 57 63  1  0  0  0  0
 58 56  2  0  0  0  0
 58 57  1  0  0  0  0
 59 61  1  0  0  0  0
 60 64  1  0  0  0  0
 61 64  2  0  0  0  0
 62 60  2  0  0  0  0
 63 62  1  0  0  0  0
 63 59  2  0  0  0  0
 66 65  1  0  0  0  0
 66 69  1  0  0  0  0
 68 69  2  0  0  0  0
 69 67  1  0  0  0  0
M  END
>  <MODEL>
6

>  <REMARK>
 VINA RESULT:      -3.0      3.573     11.037
  Name = 
  21 active torsions:
  status: ('A' for Active; 'I' for Inactive)
    1  A    between atoms: C_1  and  C_32
    2  A    between atoms: C_2  and  C_8
    3  A    between atoms: C_8  and  N_16
    4  A    between atoms: C_12  and  C_35
    5  A    between atoms: C_12  and  O_58
    6  A    between atoms: C_12  and  C_61
    7  A    between atoms: C_15  and  C_32
    8  A    between atoms: N_25  and  C_49
    9  A    between atoms: C_28  and  N_50
   10  A    between atoms: C_28  and  C_52
   11  A    between atoms: C_29  and  N_46
   12  A    between atoms: C_29  and  C_61
   13  A    between atoms: C_33  and  N_44
   14  A    between atoms: C_33  and  C_67
   15  A    between atoms: C_34  and  C_40
   16  A    between atoms: C_34  and  N_46
   17  A    between atoms: C_35  and  C_59
   18  A    between atoms: C_40  and  C_56
   19  A    between atoms: C_55  and  C_62
   20  A    between atoms: C_56  and  C_69
   21  A    between atoms: C_62  and  C_69
                            x       y       z     vdW  Elec       q    Type
                         _______ _______ _______ _____ _____    ______ ____

>  <TORSDO>
F 21

$$$$
=
 OpenBabel10222415103D

 69 77  0  0  1  0  0  0  0  0999 V2000
  187.3410  177.0450  138.2820 C   0  0  2  0  0  3  0  0  0  0  0  0
  190.5560  178.1470  143.6570 C   0  0  0  0  0  2  0  0  0  0  0  0
  190.6250  178.1370  140.2220 S   0  0  0  0  0  0  0  0  0  0  0  0
  188.4130  177.2870  139.3000 C   0  0  0  0  0  0  0  0  0  0  0  0
  188.2980  177.2220  140.6890 C   0  0  0  0  0  0  0  0  0  0  0  0
  189.6440  177.7690  138.8970 C   0  0  0  0  0  0  0  0  0  0  0  0
  187.2440  176.7920  142.8360 C   0  0  0  0  0  3  0  0  0  0  0  0
  187.1840  176.7760  141.4250 C   0  0  0  0  0  3  0  0  0  0  0  0
  189.4970  177.6930  142.7250 C   0  0  0  0  0  0  0  0  0  0  0  0
  189.4490  177.6720  141.3400 C   0  0  0  0  0  0  0  0  0  0  0  0
  190.4400  178.1530  146.2310 N   0  0  0  0  0  2  0  0  0  0  0  0
  188.4160  177.2560  143.4520 C   0  0  0  0  0  0  0  0  0  0  0  0
  187.9200  176.9140  136.9720 O   0  0  0  0  0  0  0  0  0  0  0  0
  189.1760  177.4420  136.6110 C   0  0  0  0  0  0  0  0  0  0  0  0
  189.8520  177.8660  144.9610 C   0  0  0  0  0  0  0  0  0  0  0  0
  188.6580  177.3630  144.8410 N   0  0  0  0  0  0  0  0  0  0  0  0
  190.0090  177.8600  137.5220 N   0  0  0  0  0  0  0  0  0  0  0  0
  189.8030  177.7960  147.4930 C   0  0  2  0  0  3  0  0  0  0  0  0
  189.7830  179.0110  148.4130 C   0  0  0  0  0  1  0  0  0  0  0  0
  192.8140  175.8160  148.1070 C   0  0  0  0  0  2  0  0  0  0  0  0
  190.6340  175.4060  147.1690 C   0  0  0  0  0  2  0  0  0  0  0  0
  192.1160  175.2320  146.8950 C   0  0  0  0  0  2  0  0  0  0  0  0
  191.9270  176.9510  148.5730 C   0  0  0  0  0  2  0  0  0  0  0  0
  190.5170  176.5910  148.1240 C   0  0  0  0  0  3  0  0  0  0  0  0
  189.5720  177.4880  135.1750 C   0  0  0  0  0  2  0  0  0  0  0  0
  190.7430  176.5520  134.9350 C   0  0  0  0  0  2  0  0  0  0  0  0
  190.2840  175.1140  135.1260 C   0  0  0  0  0  2  0  0  0  0  0  0
  191.4850  174.1800  135.2310 C   0  0  0  0  0  2  0  0  0  0  0  0
  191.4860  173.4050  136.5420 C   0  0  0  0  0  2  0  0  0  0  0  0
  192.1790  174.1670  137.5680 N   0  0  0  0  0  2  0  0  0  0  0  0
  193.5820  173.7830  137.5110 C   0  0  0  0  0  2  0  0  0  0  0  0
  195.1830  175.1630  138.6230 O   0  0  0  0  0  1  0  0  0  0  0  0
  194.4750  175.0160  137.4260 C   0  0  1  0  0  3  0  0  0  0  0  0
  195.4380  174.9240  136.2380 C   0  0  2  0  0  3  0  0  0  0  0  0
  197.6670  175.8240  136.3330 O   0  0  0  0  0  1  0  0  0  0  0  0
  196.8830  174.7280  136.7080 C   0  0  2  0  0  3  0  0  0  0  0  0
  197.7590  172.4550  137.2700 C   0  0  0  0  0  2  0  0  0  0  0  0
  196.9030  171.2990  137.0860 N   0  0  0  0  0  0  0  0  0  0  0  0
  196.5150  172.7880  135.2630 N   0  0  0  0  0  2  0  0  0  0  0  0
  197.7550  170.2180  136.6100 C   0  0  0  0  0  1  0  0  0  0  0  0
  197.4690  173.4310  136.1510 C   0  0  1  0  0  3  0  0  0  0  0  0
  195.9920  171.6400  135.9990 C   0  0  0  0  0  2  0  0  0  0  0  0
  194.6420  176.9230  136.1710 O   0  0  0  0  0  1  0  0  0  0  0  0
  195.3440  176.0740  135.4480 O   0  0  0  0  0  0  0  0  0  0  0  0
  186.3830  178.2320  138.3090 C   0  0  0  0  0  2  0  0  0  0  0  0
  183.9220  174.4610  138.0130 C   0  0  1  0  0  3  0  0  0  0  0  0
  184.9610  174.8490  136.9750 C   0  0  0  0  0  2  0  0  0  0  0  0
  183.6190  178.4200  135.6640 C   0  0  0  0  0  2  0  0  0  0  0  0
  185.0100  177.9480  137.7100 C   0  0  1  0  0  3  0  0  0  0  0  0
  183.9180  175.8630  137.4010 C   0  0  1  0  0  0  0  0  0  0  0  0
  185.0070  178.0290  136.1790 C   0  0  0  0  0  2  0  0  0  0  0  0
  182.5040  177.6170  136.1930 N   0  0  0  0  0  0  0  0  0  0  0  0
  182.7990  176.1870  136.3790 C   0  0  0  0  0  2  0  0  0  0  0  0
  184.3620  176.8380  138.3280 O   0  0  0  0  0  0  0  0  0  0  0  0
  181.9670  178.2080  137.4100 C   0  0  0  0  0  2  0  0  0  0  0  0
  180.0210  179.1150  136.3980 O   0  0  0  0  0  0  0  0  0  0  0  0
  181.3990  180.6600  137.5120 N   0  0  0  0  0  2  0  0  0  0  0  0
  181.0740  179.3410  137.0520 C   0  0  0  0  0  0  0  0  0  0  0  0
  180.5890  182.5660  136.2300 C   0  0  0  0  0  3  0  0  0  0  0  0
  178.9620  183.3910  138.3450 C   0  0  0  0  0  3  0  0  0  0  0  0
  179.8090  183.7180  136.1030 C   0  0  0  0  0  3  0  0  0  0  0  0
  179.7480  182.2430  138.4720 C   0  0  0  0  0  3  0  0  0  0  0  0
  180.5670  181.8230  137.4130 C   0  0  0  0  0  0  0  0  0  0  0  0
  178.9940  184.1280  137.1610 C   0  0  0  0  0  3  0  0  0  0  0  0
  182.9140  173.5140  137.3770 C   0  0  0  0  0  2  0  0  0  0  0  0
  183.5270  172.2110  137.1780 N   0  0  0  0  0  2  0  0  0  0  0  0
  183.3220  172.3900  134.7480 O   0  0  0  0  0  0  0  0  0  0  0  0
  184.3480  170.5870  135.7310 O   0  0  0  0  0  1  0  0  0  0  0  0
  183.7530  171.6900  135.8700 C   0  0  0  0  0  0  0  0  0  0  0  0
  1 45  1  6  0  0  0
  1  4  1  0  0  0  0
  2 15  1  0  0  0  0
  3 10  1  0  0  0  0
  4  5  1  0  0  0  0
  5 10  2  0  0  0  0
  5  8  1  0  0  0  0
  6  4  2  0  0  0  0
  6  3  1  0  0  0  0
  7 12  1  0  0  0  0
  8  7  2  0  0  0  0
  9 12  2  0  0  0  0
  9  2  1  0  0  0  0
 10  9  1  0  0  0  0
 11 18  1  0  0  0  0
 12 16  1  0  0  0  0
 13  1  1  0  0  0  0
 14 13  1  0  0  0  0
 14 17  2  0  0  0  0
 15 11  1  0  0  0  0
 16 15  2  0  0  0  0
 17  6  1  0  0  0  0
 18 24  1  0  0  0  0
 18 19  1  1  0  0  0
 20 23  1  0  0  0  0
 21 24  1  0  0  0  0
 22 21  1  0  0  0  0
 22 20  1  0  0  0  0
 24 23  1  0  0  0  0
 25 14  1  0  0  0  0
 26 27  1  0  0  0  0
 26 25  1  0  0  0  0
 27 28  1  0  0  0  0
 28 29  1  0  0  0  0
 29 30  1  0  0  0  0
 31 30  1  0  0  0  0
 33 31  1  0  0  0  0
 33 32  1  1  0  0  0
 34 44  1  1  0  0  0
 34 36  1  0  0  0  0
 34 33  1  0  0  0  0
 36 35  1  6  0  0  0
 38 37  1  0  0  0  0
 39 42  1  0  0  0  0
 39 41  1  0  0  0  0
 40 38  1  0  0  0  0
 41 36  1  1  0  0  0
 41 37  1  0  0  0  0
 42 38  1  0  0  0  0
 44 43  1  0  0  0  0
 46 65  1  6  0  0  0
 47 50  1  0  0  0  0
 47 46  1  0  0  0  0
 48 51  1  0  0  0  0
 48 52  1  0  0  0  0
 49 45  1  6  0  0  0
 49 54  1  0  0  0  0
 50 53  1  6  0  0  0
 50 46  1  0  0  0  0
 50 54  1  0  0  0  0
 51 49  1  0  0  0  0
 52 53  1  0  0  0  0
 52 55  1  0  0  0  0
 56 58  2  0  0  0  0
 58 55  1  0  0  0  0
 58 57  1  0  0  0  0
 59 63  1  0  0  0  0
 60 62  1  0  0  0  0
 61 59  2  0  0  0  0
 61 64  1  0  0  0  0
 63 57  1  0  0  0  0
 63 62  2  0  0  0  0
 64 60  2  0  0  0  0
 66 65  1  0  0  0  0
 67 69  2  0  0  0  0
 68 69  1  0  0  0  0
 69 66  1  0  0  0  0
M  END
>  <MODEL>
7

>  <REMARK>
 VINA RESULT:      -2.8      3.481     11.515
  Name = 
  21 active torsions:
  status: ('A' for Active; 'I' for Inactive)
    1  A    between atoms: C_1  and  C_32
    2  A    between atoms: C_2  and  C_8
    3  A    between atoms: C_8  and  N_16
    4  A    between atoms: C_12  and  C_35
    5  A    between atoms: C_12  and  O_58
    6  A    between atoms: C_12  and  C_61
    7  A    between atoms: C_15  and  C_32
    8  A    between atoms: N_25  and  C_49
    9  A    between atoms: C_28  and  N_50
   10  A    between atoms: C_28  and  C_52
   11  A    between atoms: C_29  and  N_46
   12  A    between atoms: C_29  and  C_61
   13  A    between atoms: C_33  and  N_44
   14  A    between atoms: C_33  and  C_67
   15  A    between atoms: C_34  and  C_40
   16  A    between atoms: C_34  and  N_46
   17  A    between atoms: C_35  and  C_59
   18  A    between atoms: C_40  and  C_56
   19  A    between atoms: C_55  and  C_62
   20  A    between atoms: C_56  and  C_69
   21  A    between atoms: C_62  and  C_69
                            x       y       z     vdW  Elec       q    Type
                         _______ _______ _______ _____ _____    ______ ____

>  <TORSDO>
F 21

$$$$
=
 OpenBabel10222415103D

 69 77  0  0  1  0  0  0  0  0999 V2000
  189.2300  177.4560  139.3540 C   0  0  2  0  0  3  0  0  0  0  0  0
  189.7360  176.8520  145.6640 C   0  0  0  0  0  2  0  0  0  0  0  0
  187.7330  177.7390  143.0180 S   0  0  0  0  0  0  0  0  0  0  0  0
  189.0240  177.5490  140.8350 C   0  0  0  0  0  0  0  0  0  0  0  0
  189.9250  177.2030  141.8420 C   0  0  0  0  0  0  0  0  0  0  0  0
  187.7770  177.8720  141.3340 C   0  0  0  0  0  0  0  0  0  0  0  0
  192.0340  176.4970  142.8220 C   0  0  0  0  0  3  0  0  0  0  0  0
  191.2720  176.8270  141.6790 C   0  0  0  0  0  3  0  0  0  0  0  0
  190.1000  176.9200  144.2290 C   0  0  0  0  0  0  0  0  0  0  0  0
  189.3480  177.2530  143.1130 C   0  0  0  0  0  0  0  0  0  0  0  0
  191.2780  176.1560  147.6080 N   0  0  0  0  0  2  0  0  0  0  0  0
  191.4150  176.5560  144.0800 C   0  0  0  0  0  0  0  0  0  0  0  0
  188.1970  178.1790  138.6620 O   0  0  0  0  0  0  0  0  0  0  0  0
  186.9330  178.4670  139.2160 C   0  0  0  0  0  0  0  0  0  0  0  0
  191.0680  176.4080  146.2170 C   0  0  0  0  0  0  0  0  0  0  0  0
  192.0040  176.2490  145.3290 N   0  0  0  0  0  0  0  0  0  0  0  0
  186.7160  178.3190  140.4930 N   0  0  0  0  0  0  0  0  0  0  0  0
  192.5860  175.8190  148.1590 C   0  0  2  0  0  3  0  0  0  0  0  0
  192.4280  174.7210  149.2040 C   0  0  0  0  0  1  0  0  0  0  0  0
  193.9060  177.7650  150.9570 C   0  0  0  0  0  2  0  0  0  0  0  0
  192.2590  178.1090  149.2350 C   0  0  0  0  0  2  0  0  0  0  0  0
  192.4690  178.1910  150.7350 C   0  0  0  0  0  2  0  0  0  0  0  0
  194.1910  176.7390  149.8820 C   0  0  0  0  0  2  0  0  0  0  0  0
  193.2620  177.0770  148.7240 C   0  0  0  0  0  3  0  0  0  0  0  0
  185.8430  178.9820  138.3400 C   0  0  0  0  0  2  0  0  0  0  0  0
  184.9900  177.8270  137.8470 C   0  0  0  0  0  2  0  0  0  0  0  0
  183.6890  177.7910  138.6370 C   0  0  0  0  0  2  0  0  0  0  0  0
  182.4940  177.7500  137.6920 C   0  0  0  0  0  2  0  0  0  0  0  0
  181.7020  176.4570  137.8390 C   0  0  0  0  0  2  0  0  0  0  0  0
  181.2270  176.3180  139.2060 N   0  0  0  0  0  2  0  0  0  0  0  0
  181.4250  177.6040  139.8600 C   0  0  0  0  0  2  0  0  0  0  0  0
  179.6430  176.9200  141.2940 O   0  0  0  0  0  1  0  0  0  0  0  0
  180.1680  178.0230  140.6150 C   0  0  1  0  0  3  0  0  0  0  0  0
  180.4620  179.1680  141.5890 C   0  0  2  0  0  3  0  0  0  0  0  0
  179.9240  178.7330  143.8940 O   0  0  0  0  0  1  0  0  0  0  0  0
  180.9450  178.6360  142.9420 C   0  0  2  0  0  3  0  0  0  0  0  0
  182.6950  178.8120  144.7180 C   0  0  0  0  0  2  0  0  0  0  0  0
  184.0090  178.2440  144.4780 N   0  0  0  0  0  0  0  0  0  0  0  0
  183.2630  179.2370  142.4410 N   0  0  0  0  0  2  0  0  0  0  0  0
  184.9730  179.1470  145.0930 C   0  0  0  0  0  1  0  0  0  0  0  0
  182.1910  179.3850  143.4120 C   0  0  1  0  0  3  0  0  0  0  0  0
  184.2170  178.3050  143.0360 C   0  0  0  0  0  2  0  0  0  0  0  0
  179.7700  181.1970  141.7950 O   0  0  0  0  0  1  0  0  0  0  0  0
  179.3210  179.9580  141.7660 O   0  0  0  0  0  0  0  0  0  0  0  0
  189.1850  175.9830  138.9590 C   0  0  0  0  0  2  0  0  0  0  0  0
  193.4410  175.3910  137.5840 C   0  0  1  0  0  3  0  0  0  0  0  0
  192.7840  176.7590  137.6580 C   0  0  0  0  0  2  0  0  0  0  0  0
  189.6310  176.3630  135.1730 C   0  0  0  0  0  2  0  0  0  0  0  0
  189.7880  175.6780  137.5920 C   0  0  1  0  0  3  0  0  0  0  0  0
  192.0710  175.6250  136.9460 C   0  0  1  0  0  0  0  0  0  0  0  0
  189.6750  176.8590  136.6210 C   0  0  0  0  0  2  0  0  0  0  0  0
  190.6970  175.4200  134.8000 N   0  0  0  0  0  0  0  0  0  0  0  0
  192.0130  175.6980  135.3990 C   0  0  0  0  0  2  0  0  0  0  0  0
  191.0380  174.9980  137.6850 O   0  0  0  0  0  0  0  0  0  0  0  0
  190.2870  174.0450  135.0410 C   0  0  0  0  0  2  0  0  0  0  0  0
  188.0780  174.7880  134.5960 O   0  0  0  0  0  0  0  0  0  0  0  0
  188.2630  173.0200  136.1340 N   0  0  0  0  0  2  0  0  0  0  0  0
  188.8160  174.0000  135.2460 C   0  0  0  0  0  0  0  0  0  0  0  0
  186.1990  173.2700  137.4050 C   0  0  0  0  0  3  0  0  0  0  0  0
  184.8220  171.6040  135.6370 C   0  0  0  0  0  3  0  0  0  0  0  0
  184.8500  172.9850  137.6220 C   0  0  0  0  0  3  0  0  0  0  0  0
  186.1740  171.8840  135.4260 C   0  0  0  0  0  3  0  0  0  0  0  0
  186.8710  172.7220  136.3100 C   0  0  0  0  0  0  0  0  0  0  0  0
  184.1620  172.1530  136.7360 C   0  0  0  0  0  3  0  0  0  0  0  0
  194.5950  175.4490  136.5920 C   0  0  0  0  0  2  0  0  0  0  0  0
  195.8490  175.2090  137.2870 N   0  0  0  0  0  2  0  0  0  0  0  0
  195.2700  172.8690  137.7030 O   0  0  0  0  0  0  0  0  0  0  0  0
  197.3040  173.7270  138.3320 O   0  0  0  0  0  1  0  0  0  0  0  0
  196.1790  173.9180  137.7950 C   0  0  0  0  0  0  0  0  0  0  0  0
  1 45  1  6  0  0  0
  1  4  1  0  0  0  0
  2 15  1  0  0  0  0
  3 10  1  0  0  0  0
  4  6  2  0  0  0  0
  4  5  1  0  0  0  0
  5 10  1  0  0  0  0
  6  3  1  0  0  0  0
  7 12  2  0  0  0  0
  8  5  2  0  0  0  0
  8  7  1  0  0  0  0
  9  2  1  0  0  0  0
 10  9  2  0  0  0  0
 11 18  1  0  0  0  0
 12  9  1  0  0  0  0
 12 16  1  0  0  0  0
 13 14  1  0  0  0  0
 13  1  1  0  0  0  0
 14 17  2  0  0  0  0
 15 11  1  0  0  0  0
 16 15  2  0  0  0  0
 17  6  1  0  0  0  0
 18 24  1  0  0  0  0
 18 19  1  1  0  0  0
 21 22  1  0  0  0  0
 22 20  1  0  0  0  0
 23 20  1  0  0  0  0
 24 21  1  0  0  0  0
 24 23  1  0  0  0  0
 25 14  1  0  0  0  0
 26 25  1  0  0  0  0
 26 27  1  0  0  0  0
 28 29  1  0  0  0  0
 28 27  1  0  0  0  0
 29 30  1  0  0  0  0
 30 31  1  0  0  0  0
 31 33  1  0  0  0  0
 33 32  1  1  0  0  0
 33 34  1  0  0  0  0
 34 44  1  1  0  0  0
 34 36  1  0  0  0  0
 36 35  1  1  0  0  0
 38 37  1  0  0  0  0
 38 40  1  0  0  0  0
 39 42  1  0  0  0  0
 39 41  1  0  0  0  0
 41 36  1  6  0  0  0
 41 37  1  0  0  0  0
 42 38  1  0  0  0  0
 44 43  1  0  0  0  0
 46 65  1  6  0  0  0
 46 47  1  0  0  0  0
 48 51  1  0  0  0  0
 49 54  1  0  0  0  0
 49 45  1  1  0  0  0
 50 53  1  6  0  0  0
 50 46  1  0  0  0  0
 50 47  1  0  0  0  0
 50 54  1  0  0  0  0
 51 49  1  0  0  0  0
 52 55  1  0  0  0  0
 52 48  1  0  0  0  0
 52 53  1  0  0  0  0
 55 58  1  0  0  0  0
 56 58  2  0  0  0  0
 57 63  1  0  0  0  0
 58 57  1  0  0  0  0
 59 61  1  0  0  0  0
 60 64  1  0  0  0  0
 62 60  2  0  0  0  0
 62 63  1  0  0  0  0
 63 59  2  0  0  0  0
 64 61  2  0  0  0  0
 65 66  1  0  0  0  0
 66 69  1  0  0  0  0
 67 69  2  0  0  0  0
 69 68  1  0  0  0  0
M  END
>  <MODEL>
8

>  <REMARK>
 VINA RESULT:      -2.6      2.902      9.978
  Name = 
  21 active torsions:
  status: ('A' for Active; 'I' for Inactive)
    1  A    between atoms: C_1  and  C_32
    2  A    between atoms: C_2  and  C_8
    3  A    between atoms: C_8  and  N_16
    4  A    between atoms: C_12  and  C_35
    5  A    between atoms: C_12  and  O_58
    6  A    between atoms: C_12  and  C_61
    7  A    between atoms: C_15  and  C_32
    8  A    between atoms: N_25  and  C_49
    9  A    between atoms: C_28  and  N_50
   10  A    between atoms: C_28  and  C_52
   11  A    between atoms: C_29  and  N_46
   12  A    between atoms: C_29  and  C_61
   13  A    between atoms: C_33  and  N_44
   14  A    between atoms: C_33  and  C_67
   15  A    between atoms: C_34  and  C_40
   16  A    between atoms: C_34  and  N_46
   17  A    between atoms: C_35  and  C_59
   18  A    between atoms: C_40  and  C_56
   19  A    between atoms: C_55  and  C_62
   20  A    between atoms: C_56  and  C_69
   21  A    between atoms: C_62  and  C_69
                            x       y       z     vdW  Elec       q    Type
                         _______ _______ _______ _____ _____    ______ ____

>  <TORSDO>
F 21

$$$$
=
 OpenBabel10222415103D

 69 77  0  0  1  0  0  0  0  0999 V2000
  187.6410  178.2050  141.0280 C   0  0  2  0  0  3  0  0  0  0  0  0
  183.6790  177.7210  136.0780 C   0  0  0  0  0  2  0  0  0  0  0  0
  186.8640  177.2210  137.2640 S   0  0  0  0  0  0  0  0  0  0  0  0
  187.0520  178.0540  139.6600 C   0  0  0  0  0  0  0  0  0  0  0  0
  185.7430  178.3290  139.2610 C   0  0  0  0  0  0  0  0  0  0  0  0
  187.7880  177.4470  138.6600 C   0  0  0  0  0  0  0  0  0  0  0  0
  183.4580  179.1300  139.4610 C   0  0  0  0  0  3  0  0  0  0  0  0
  184.7370  178.9420  140.0310 C   0  0  0  0  0  3  0  0  0  0  0  0
  184.2270  178.0940  137.4030 C   0  0  0  0  0  0  0  0  0  0  0  0
  185.4870  177.9140  137.9530 C   0  0  0  0  0  0  0  0  0  0  0  0
  181.2690  178.1010  135.2490 N   0  0  0  0  0  2  0  0  0  0  0  0
  183.2400  178.6950  138.1450 C   0  0  0  0  0  0  0  0  0  0  0  0
  189.0750  178.1080  140.9660 O   0  0  0  0  0  0  0  0  0  0  0  0
  189.7740  177.4610  139.9280 C   0  0  0  0  0  0  0  0  0  0  0  0
  182.2710  178.2320  136.2590 C   0  0  0  0  0  0  0  0  0  0  0  0
  182.0320  178.7790  137.4140 N   0  0  0  0  0  0  0  0  0  0  0  0
  189.1700  177.1330  138.8210 N   0  0  0  0  0  0  0  0  0  0  0  0
  179.9360  178.6770  135.3830 C   0  0  2  0  0  3  0  0  0  0  0  0
  178.9310  177.8060  134.6380 C   0  0  0  0  0  1  0  0  0  0  0  0
  181.0960  182.1370  135.5970 C   0  0  0  0  0  2  0  0  0  0  0  0
  178.9650  181.0190  135.6610 C   0  0  0  0  0  2  0  0  0  0  0  0
  179.8200  182.0270  136.4060 C   0  0  0  0  0  2  0  0  0  0  0  0
  181.3170  180.7610  135.0050 C   0  0  0  0  0  2  0  0  0  0  0  0
  179.9360  180.1310  134.8870 C   0  0  0  0  0  3  0  0  0  0  0  0
  191.2300  177.1810  140.0820 C   0  0  0  0  0  2  0  0  0  0  0  0
  192.0000  177.8230  138.9420 C   0  0  0  0  0  2  0  0  0  0  0  0
  192.5760  176.7340  138.0480 C   0  0  0  0  0  2  0  0  0  0  0  0
  194.0820  176.6190  138.2510 C   0  0  0  0  0  2  0  0  0  0  0  0
  194.4600  175.3200  138.9510 C   0  0  0  0  0  2  0  0  0  0  0  0
  195.7840  174.8940  138.5260 N   0  0  0  0  0  2  0  0  0  0  0  0
  195.6770  174.4970  137.1300 C   0  0  0  0  0  2  0  0  0  0  0  0
  195.3010  172.2520  137.8500 O   0  0  0  0  0  1  0  0  0  0  0  0
  196.0470  173.0280  136.9570 C   0  0  1  0  0  3  0  0  0  0  0  0
  195.8180  172.5630  135.5160 C   0  0  2  0  0  3  0  0  0  0  0  0
  195.1790  170.3570  134.8000 O   0  0  0  0  0  1  0  0  0  0  0  0
  194.7100  171.5080  135.4420 C   0  0  2  0  0  3  0  0  0  0  0  0
  192.2250  171.7710  135.5270 C   0  0  0  0  0  2  0  0  0  0  0  0
  191.6590  173.0410  135.9400 N   0  0  0  0  0  0  0  0  0  0  0  0
  193.5740  173.5020  134.5940 N   0  0  0  0  0  2  0  0  0  0  0  0
  190.4730  173.2560  135.1250 C   0  0  0  0  0  1  0  0  0  0  0  0
  193.4770  172.0580  134.7260 C   0  0  1  0  0  3  0  0  0  0  0  0
  192.6340  174.0590  135.5630 C   0  0  0  0  0  2  0  0  0  0  0  0
  197.7240  171.7020  136.0250 O   0  0  0  0  0  1  0  0  0  0  0  0
  197.0030  172.0500  134.9780 O   0  0  0  0  0  0  0  0  0  0  0  0
  187.0840  177.0920  141.9110 C   0  0  0  0  0  2  0  0  0  0  0  0
  190.4690  178.0900  144.7230 C   0  0  1  0  0  3  0  0  0  0  0  0
  190.0550  176.6620  144.4100 C   0  0  0  0  0  2  0  0  0  0  0  0
  186.2020  176.5750  145.6030 C   0  0  0  0  0  2  0  0  0  0  0  0
  187.1210  177.3940  143.4060 C   0  0  1  0  0  3  0  0  0  0  0  0
  189.0020  177.6710  144.8270 C   0  0  1  0  0  0  0  0  0  0  0  0
  186.8180  176.1610  144.2630 C   0  0  0  0  0  2  0  0  0  0  0  0
  186.9430  177.6120  146.3400 N   0  0  0  0  0  0  0  0  0  0  0  0
  188.4090  177.5140  146.2500 C   0  0  0  0  0  2  0  0  0  0  0  0
  188.2290  178.2140  143.7710 O   0  0  0  0  0  0  0  0  0  0  0  0
  186.4780  178.9420  145.9760 C   0  0  0  0  0  2  0  0  0  0  0  0
  184.2050  178.9820  146.6540 O   0  0  0  0  0  0  0  0  0  0  0  0
  184.5700  178.8090  144.3380 N   0  0  0  0  0  2  0  0  0  0  0  0
  185.0190  178.8940  145.6970 C   0  0  0  0  0  0  0  0  0  0  0  0
  182.9850  179.3420  142.5660 C   0  0  0  0  0  3  0  0  0  0  0  0
  180.8170  178.8140  144.2460 C   0  0  0  0  0  3  0  0  0  0  0  0
  181.6810  179.4940  142.0920 C   0  0  0  0  0  3  0  0  0  0  0  0
  182.1230  178.6690  144.7220 C   0  0  0  0  0  3  0  0  0  0  0  0
  183.2170  178.9320  143.8820 C   0  0  0  0  0  0  0  0  0  0  0  0
  180.5980  179.2280  142.9330 C   0  0  0  0  0  3  0  0  0  0  0  0
  191.1940  178.1130  146.0620 C   0  0  0  0  0  2  0  0  0  0  0  0
  191.7690  176.8050  146.3290 N   0  0  0  0  0  2  0  0  0  0  0  0
  192.3930  177.4480  148.6050 O   0  0  0  0  0  1  0  0  0  0  0  0
  192.7510  175.3190  147.8240 O   0  0  0  0  0  0  0  0  0  0  0  0
  192.3220  176.4850  147.6040 C   0  0  0  0  0  0  0  0  0  0  0  0
  1 45  1  1  0  0  0
  2 15  1  0  0  0  0
  2  9  1  0  0  0  0
  3 10  1  0  0  0  0
  3  6  1  0  0  0  0
  4  1  1  0  0  0  0
  5  4  1  0  0  0  0
  5  8  1  0  0  0  0
  6 17  1  0  0  0  0
  6  4  2  0  0  0  0
  7  8  2  0  0  0  0
  9 10  1  0  0  0  0
  9 12  2  0  0  0  0
 10  5  2  0  0  0  0
 11 18  1  0  0  0  0
 11 15  1  0  0  0  0
 12  7  1  0  0  0  0
 13  1  1  0  0  0  0
 14 25  1  0  0  0  0
 14 13  1  0  0  0  0
 15 16  2  0  0  0  0
 16 12  1  0  0  0  0
 17 14  2  0  0  0  0
 18 19  1  6  0  0  0
 20 22  1  0  0  0  0
 21 22  1  0  0  0  0
 23 20  1  0  0  0  0
 24 23  1  0  0  0  0
 24 18  1  0  0  0  0
 24 21  1  0  0  0  0
 26 25  1  0  0  0  0
 27 28  1  0  0  0  0
 27 26  1  0  0  0  0
 28 29  1  0  0  0  0
 30 29  1  0  0  0  0
 31 30  1  0  0  0  0
 33 31  1  0  0  0  0
 33 32  1  1  0  0  0
 34 44  1  1  0  0  0
 34 33  1  0  0  0  0
 36 35  1  6  0  0  0
 36 34  1  0  0  0  0
 37 38  1  0  0  0  0
 39 41  1  0  0  0  0
 39 42  1  0  0  0  0
 40 38  1  0  0  0  0
 41 36  1  1  0  0  0
 41 37  1  0  0  0  0
 42 38  1  0  0  0  0
 44 43  1  0  0  0  0
 46 50  1  0  0  0  0
 46 65  1  1  0  0  0
 47 46  1  0  0  0  0
 48 52  1  0  0  0  0
 49 45  1  6  0  0  0
 49 54  1  0  0  0  0
 49 51  1  0  0  0  0
 50 47  1  6  0  0  0
 50 53  1  0  0  0  0
 51 48  1  0  0  0  0
 53 52  1  0  0  0  0
 54 50  1  0  0  0  0
 55 52  1  0  0  0  0
 57 58  1  0  0  0  0
 58 55  1  0  0  0  0
 58 56  2  0  0  0  0
 59 63  1  0  0  0  0
 60 62  1  0  0  0  0
 61 59  2  0  0  0  0
 61 64  1  0  0  0  0
 63 57  1  0  0  0  0
 63 62  2  0  0  0  0
 64 60  2  0  0  0  0
 65 66  1  0  0  0  0
 66 69  1  0  0  0  0
 69 68  2  0  0  0  0
 69 67  1  0  0  0  0
M  END
>  <MODEL>
9

>  <REMARK>
 VINA RESULT:      -2.4      4.064     11.367
  Name = 
  21 active torsions:
  status: ('A' for Active; 'I' for Inactive)
    1  A    between atoms: C_1  and  C_32
    2  A    between atoms: C_2  and  C_8
    3  A    between atoms: C_8  and  N_16
    4  A    between atoms: C_12  and  C_35
    5  A    between atoms: C_12  and  O_58
    6  A    between atoms: C_12  and  C_61
    7  A    between atoms: C_15  and  C_32
    8  A    between atoms: N_25  and  C_49
    9  A    between atoms: C_28  and  N_50
   10  A    between atoms: C_28  and  C_52
   11  A    between atoms: C_29  and  N_46
   12  A    between atoms: C_29  and  C_61
   13  A    between atoms: C_33  and  N_44
   14  A    between atoms: C_33  and  C_67
   15  A    between atoms: C_34  and  C_40
   16  A    between atoms: C_34  and  N_46
   17  A    between atoms: C_35  and  C_59
   18  A    between atoms: C_40  and  C_56
   19  A    between atoms: C_55  and  C_62
   20  A    between atoms: C_56  and  C_69
   21  A    between atoms: C_62  and  C_69
                            x       y       z     vdW  Elec       q    Type
                         _______ _______ _______ _____ _____    ______ ____

>  <TORSDO>
F 21

$$$$
