=
 OpenBabel10222418153D

 59 64  0  0  1  0  0  0  0  0999 V2000
  192.6850  174.7260  135.8210 C   0  0  0  0  0  3  0  0  0  0  0  0
  191.5170  176.0750  137.9950 C   0  0  0  0  0  0  0  0  0  0  0  0
  189.4640  176.2890  136.6880 C   0  0  0  0  0  3  0  0  0  0  0  0
  193.4430  174.9680  136.9710 C   0  0  0  0  0  0  0  0  0  0  0  0
  189.5690  177.1980  138.9200 C   0  0  0  0  0  3  0  0  0  0  0  0
  192.8550  175.6460  138.0530 C   0  0  0  0  0  3  0  0  0  0  0  0
  190.7780  175.8390  136.8060 C   0  0  0  0  0  0  0  0  0  0  0  0
  188.8590  176.9790  137.7360 C   0  0  0  0  0  0  0  0  0  0  0  0
  191.3630  175.1600  135.7370 C   0  0  0  0  0  3  0  0  0  0  0  0
  190.8860  176.7520  139.0730 C   0  0  0  0  0  0  0  0  0  0  0  0
  196.1940  170.7520  137.6640 C   0  0  0  0  0  3  0  0  0  0  0  0
  195.7860  175.4630  136.1960 C   0  0  0  0  0  2  0  0  0  0  0  0
  197.3680  171.5380  135.2530 C   0  0  0  0  0  3  0  0  0  0  0  0
  196.4530  172.1070  137.4330 C   0  0  0  0  0  0  0  0  0  0  0  0
  195.4870  174.1690  138.3000 C   0  0  0  0  0  0  0  0  0  0  0  0
  196.1450  173.0550  138.4670 N   0  0  0  0  0  0  0  0  0  0  0  0
  196.6230  174.7180  135.2590 N   0  0  0  0  0  2  0  0  0  0  0  0
  197.4500  173.8580  135.9990 N   0  0  0  0  0  2  0  0  0  0  0  0
  197.0750  170.1920  135.4820 C   0  0  0  0  0  3  0  0  0  0  0  0
  194.8780  174.5160  136.9670 C   0  0  1  0  0  3  0  0  0  0  0  0
  197.0690  172.5000  136.2240 C   0  0  0  0  0  0  0  0  0  0  0  0
  196.4950  169.7970  136.6900 C   0  0  0  0  0  3  0  0  0  0  0  0
  195.3900  175.0850  139.3510 O   0  0  0  0  0  0  0  0  0  0  0  0
  196.3850  175.1870  140.3540 C   0  0  0  0  0  1  0  0  0  0  0  0
  190.8360  177.3930  141.4820 C   0  0  0  0  0  3  0  0  0  0  0  0
  191.4930  177.0250  140.3920 C   0  0  0  0  0  3  0  0  0  0  0  0
  191.2910  177.0350  143.8130 C   0  0  0  0  0  0  0  0  0  0  0  0
  190.9860  176.4340  144.9300 C   0  0  0  0  0  3  0  0  0  0  0  0
  191.5960  177.6440  142.7020 C   0  0  0  0  0  3  0  0  0  0  0  0
  190.8630  177.2140  146.1930 C   0  0  2  0  0  3  0  0  0  0  0  0
  192.2870  177.0500  148.1000 O   0  0  0  0  0  1  0  0  0  0  0  0
  191.4670  176.4680  147.3440 C   0  0  0  0  0  0  0  0  0  0  0  0
  191.1430  175.1370  147.5770 O   0  0  0  0  0  0  0  0  0  0  0  0
  189.4180  177.6870  146.4310 C   0  0  2  0  0  3  0  0  0  0  0  0
  189.0710  177.6930  147.8860 C   0  0  0  0  0  0  0  0  0  0  0  0
  188.3270  176.8010  148.3750 O   0  0  0  0  0  0  0  0  0  0  0  0
  189.5780  178.6910  148.7050 O   0  0  0  0  0  1  0  0  0  0  0  0
  188.3620  176.9330  145.6210 C   0  0  0  0  0  2  0  0  0  0  0  0
  186.2160  178.1350  146.1230 C   0  0  0  0  0  1  0  0  0  0  0  0
  187.2950  177.8750  145.0760 C   0  0  2  0  0  3  0  0  0  0  0  0
  187.8240  177.0450  142.7640 C   0  0  0  0  0  1  0  0  0  0  0  0
  186.7190  177.3420  143.7600 C   0  0  0  0  0  3  0  0  0  0  0  0
  185.6980  178.2830  143.1370 C   0  0  0  0  0  1  0  0  0  0  0  0
  187.4400  177.4330  137.5890 C   0  0  1  0  0  3  0  0  0  0  0  0
  188.3920  179.4430  137.0500 O   0  0  0  0  0  0  0  0  0  0  0  0
  187.3920  178.7980  137.1290 N   0  0  0  0  0  0  0  0  0  0  0  0
  186.5340  176.3580  136.4310 S   0  0  0  0  0  0  0  0  0  0  0  0
  185.1580  177.5350  136.2430 C   0  0  0  0  0  2  0  0  0  0  0  0
  183.8280  176.9060  136.6450 C   0  0  0  0  0  2  0  0  0  0  0  0
  183.7440  176.7420  138.0970 N   0  0  0  0  0  2  0  0  0  0  0  0
  181.4700  176.4260  137.5460 O   0  0  0  0  0  1  0  0  0  0  0  0
  182.4630  176.1500  138.4910 C   0  0  2  0  0  3  0  0  0  0  0  0
  179.9360  178.4050  141.9070 C   0  0  0  0  0  3  0  0  0  0  0  0
  179.9170  177.1530  141.0780 C   0  0  0  0  0  2  0  0  0  0  0  0
  182.3260  178.5660  141.3820 C   0  0  0  0  0  2  0  0  0  0  0  0
  182.0280  176.6040  139.8770 C   0  0  2  0  0  3  0  0  0  0  0  0
  181.0820  179.0760  142.0520 C   0  0  0  0  0  3  0  0  0  0  0  0
  180.7070  177.3440  139.7760 C   0  0  2  0  0  3  0  0  0  0  0  0
  182.0320  178.1190  139.9420 C   0  0  1  0  0  3  0  0  0  0  0  0
  1  4  1  0  0  0  0
  2  6  1  0  0  0  0
  2 10  1  0  0  0  0
  3  7  1  0  0  0  0
  3  8  2  0  0  0  0
  4  6  2  0  0  0  0
  5 10  2  0  0  0  0
  7  2  2  0  0  0  0
  8  5  1  0  0  0  0
  9  1  2  0  0  0  0
  9  7  1  0  0  0  0
 10 26  1  0  0  0  0
 12 20  1  0  0  0  0
 13 19  2  0  0  0  0
 13 21  1  0  0  0  0
 14 11  1  0  0  0  0
 14 16  1  0  0  0  0
 15 16  2  0  0  0  0
 15 23  1  0  0  0  0
 17 18  1  0  0  0  0
 17 12  1  0  0  0  0
 18 21  1  0  0  0  0
 19 22  1  0  0  0  0
 20  4  1  1  0  0  0
 20 15  1  0  0  0  0
 21 14  2  0  0  0  0
 22 11  2  0  0  0  0
 23 24  1  0  0  0  0
 25 29  1  0  0  0  0
 26 25  2  0  0  0  0
 27 28  2  0  0  0  0
 29 27  2  0  0  0  0
 30 28  1  6  0  0  0
 30 34  1  0  0  0  0
 30 32  1  0  0  0  0
 32 33  2  0  0  0  0
 32 31  1  0  0  0  0
 34 38  1  6  0  0  0
 34 35  1  0  0  0  0
 35 36  2  0  0  0  0
 35 37  1  0  0  0  0
 40 38  1  0  0  0  0
 40 39  1  1  0  0  0
 41 42  1  0  0  0  0
 42 40  1  0  0  0  0
 43 42  1  0  0  0  0
 44 47  1  6  0  0  0
 44  8  1  0  0  0  0
 45 46  2  0  0  0  0
 46 44  1  0  0  0  0
 48 47  1  0  0  0  0
 48 49  1  0  0  0  0
 49 50  1  0  0  0  0
 50 52  1  0  0  0  0
 52 51  1  6  0  0  0
 53 57  2  0  0  0  0
 54 53  1  0  0  0  0
 55 57  1  0  0  0  0
 56 52  1  6  0  0  0
 56 59  1  0  0  0  0
 58 56  1  0  0  0  0
 58 59  1  0  0  0  0
 58 54  1  1  0  0  0
 59 55  1  1  0  0  0
M  END
>  <MODEL>
1

>  <REMARK>
 VINA RESULT:      -8.5      0.000      0.000
  Name = 
  19 active torsions:
  status: ('A' for Active; 'I' for Inactive)
    1  A    between atoms: C_4  and  C_53
    2  A    between atoms: C_6  and  C_37
    3  A    between atoms: N_8  and  C_43
    4  A    between atoms: N_8  and  C_58
    5  A    between atoms: C_9  and  C_32
    6  A    between atoms: C_9  and  C_53
    7  A    between atoms: C_14  and  O_18
    8  A    between atoms: C_16  and  C_46
    9  A    between atoms: C_17  and  C_54
   10  A    between atoms: S_21  and  C_28
   11  A    between atoms: S_21  and  C_31
   12  A    between atoms: C_27  and  C_58
   13  A    between atoms: C_28  and  C_35
   14  A    between atoms: C_28  and  N_36
   15  A    between atoms: C_31  and  C_43
   16  A    between atoms: C_32  and  C_52
   17  A    between atoms: C_34  and  C_37
   18  A    between atoms: C_37  and  C_53
   19  A    between atoms: C_42  and  C_59
                            x       y       z     vdW  Elec       q    Type
                         _______ _______ _______ _____ _____    ______ ____

>  <TORSDO>
F 19

$$$$
=
 OpenBabel10222418153D

 59 64  0  0  1  0  0  0  0  0999 V2000
  191.2320  175.6940  135.5730 C   0  0  0  0  0  3  0  0  0  0  0  0
  189.6530  176.7610  137.6420 C   0  0  0  0  0  0  0  0  0  0  0  0
  187.6990  176.5330  136.1940 C   0  0  0  0  0  3  0  0  0  0  0  0
  191.8380  176.0910  136.7690 C   0  0  0  0  0  0  0  0  0  0  0  0
  187.4520  177.4420  138.4150 C   0  0  0  0  0  3  0  0  0  0  0  0
  191.0450  176.6280  137.7980 C   0  0  0  0  0  3  0  0  0  0  0  0
  189.0670  176.3740  136.4080 C   0  0  0  0  0  0  0  0  0  0  0  0
  186.8890  177.0780  137.1880 C   0  0  0  0  0  0  0  0  0  0  0  0
  189.8570  175.8360  135.3920 C   0  0  0  0  0  3  0  0  0  0  0  0
  188.8190  177.2870  138.6650 C   0  0  0  0  0  0  0  0  0  0  0  0
  195.3390  172.8480  138.5130 C   0  0  0  0  0  3  0  0  0  0  0  0
  194.0680  176.8370  135.8700 C   0  0  0  0  0  2  0  0  0  0  0  0
  196.4400  173.2090  135.9700 C   0  0  0  0  0  3  0  0  0  0  0  0
  195.3340  174.1210  137.9340 C   0  0  0  0  0  0  0  0  0  0  0  0
  193.9390  176.0950  138.2420 C   0  0  0  0  0  0  0  0  0  0  0  0
  194.7970  175.2200  138.6870 N   0  0  0  0  0  0  0  0  0  0  0  0
  195.0780  176.0630  135.1530 N   0  0  0  0  0  2  0  0  0  0  0  0
  196.0250  175.6090  136.0830 N   0  0  0  0  0  2  0  0  0  0  0  0
  196.4110  171.9360  136.5450 C   0  0  0  0  0  3  0  0  0  0  0  0
  193.3330  175.9560  136.8700 C   0  0  1  0  0  3  0  0  0  0  0  0
  195.9120  174.3060  136.6590 C   0  0  0  0  0  0  0  0  0  0  0  0
  195.8680  171.7570  137.8200 C   0  0  0  0  0  3  0  0  0  0  0  0
  193.6150  177.2110  139.0170 O   0  0  0  0  0  0  0  0  0  0  0  0
  193.5040  177.1400  140.4290 C   0  0  0  0  0  1  0  0  0  0  0  0
  188.6260  177.4050  141.1480 C   0  0  0  0  0  3  0  0  0  0  0  0
  189.2600  177.6830  140.0170 C   0  0  0  0  0  3  0  0  0  0  0  0
  188.7020  177.5080  143.5460 C   0  0  0  0  0  0  0  0  0  0  0  0
  188.2110  177.1320  144.6950 C   0  0  0  0  0  3  0  0  0  0  0  0
  189.1910  177.8920  142.4020 C   0  0  0  0  0  3  0  0  0  0  0  0
  187.9110  178.1420  145.7490 C   0  0  2  0  0  3  0  0  0  0  0  0
  187.9670  176.4230  147.4020 O   0  0  0  0  0  0  0  0  0  0  0  0
  188.2510  177.6130  147.1090 C   0  0  0  0  0  0  0  0  0  0  0  0
  188.8650  178.4250  148.0540 O   0  0  0  0  0  1  0  0  0  0  0  0
  186.4780  178.6900  145.6200 C   0  0  2  0  0  3  0  0  0  0  0  0
  185.8480  178.9050  146.9600 C   0  0  0  0  0  0  0  0  0  0  0  0
  185.0550  178.0540  147.4430 O   0  0  0  0  0  0  0  0  0  0  0  0
  186.1430  180.0560  147.6760 O   0  0  0  0  0  1  0  0  0  0  0  0
  185.5630  177.8670  144.7120 C   0  0  0  0  0  2  0  0  0  0  0  0
  183.2360  178.7550  144.3970 C   0  0  0  0  0  1  0  0  0  0  0  0
  184.6660  178.7600  143.8640 C   0  0  2  0  0  3  0  0  0  0  0  0
  185.7820  179.1880  141.6540 C   0  0  0  0  0  1  0  0  0  0  0  0
  184.7420  178.3610  142.3860 C   0  0  0  0  0  3  0  0  0  0  0  0
  183.4000  178.4660  141.6750 C   0  0  0  0  0  1  0  0  0  0  0  0
  185.4200  177.2180  136.9380 C   0  0  1  0  0  3  0  0  0  0  0  0
  185.4220  174.9370  137.1220 O   0  0  0  0  0  0  0  0  0  0  0  0
  184.7880  175.9230  136.9030 N   0  0  0  0  0  0  0  0  0  0  0  0
  184.6420  178.2500  138.2220 S   0  0  0  0  0  0  0  0  0  0  0  0
  183.0320  177.4120  138.0750 C   0  0  0  0  0  2  0  0  0  0  0  0
  181.9580  178.3560  137.5460 C   0  0  0  0  0  2  0  0  0  0  0  0
  180.6400  177.9950  138.0660 N   0  0  0  0  0  2  0  0  0  0  0  0
  180.4830  180.3440  137.8840 O   0  0  0  0  0  1  0  0  0  0  0  0
  179.7960  179.1810  138.2450 C   0  0  2  0  0  3  0  0  0  0  0  0
  179.6760  180.1740  142.9500 C   0  0  0  0  0  3  0  0  0  0  0  0
  179.4600  180.8260  141.6150 C   0  0  0  0  0  2  0  0  0  0  0  0
  179.3720  178.0250  141.8090 C   0  0  0  0  0  2  0  0  0  0  0  0
  179.2620  179.2890  139.6660 C   0  0  2  0  0  3  0  0  0  0  0  0
  179.6340  178.8420  143.0420 C   0  0  0  0  0  3  0  0  0  0  0  0
  180.2340  180.0910  140.5120 C   0  0  2  0  0  3  0  0  0  0  0  0
  180.1850  178.5520  140.6170 C   0  0  1  0  0  3  0  0  0  0  0  0
  1  4  1  0  0  0  0
  2  6  1  0  0  0  0
  2 10  1  0  0  0  0
  3  7  1  0  0  0  0
  3  8  2  0  0  0  0
  4  6  2  0  0  0  0
  5 10  2  0  0  0  0
  7  2  2  0  0  0  0
  8  5  1  0  0  0  0
  9  1  2  0  0  0  0
  9  7  1  0  0  0  0
 10 26  1  0  0  0  0
 12 20  1  0  0  0  0
 13 19  2  0  0  0  0
 13 21  1  0  0  0  0
 14 11  1  0  0  0  0
 14 16  1  0  0  0  0
 15 16  2  0  0  0  0
 15 23  1  0  0  0  0
 17 12  1  0  0  0  0
 17 18  1  0  0  0  0
 18 21  1  0  0  0  0
 19 22  1  0  0  0  0
 20  4  1  1  0  0  0
 20 15  1  0  0  0  0
 21 14  2  0  0  0  0
 22 11  2  0  0  0  0
 23 24  1  0  0  0  0
 25 29  1  0  0  0  0
 26 25  2  0  0  0  0
 27 28  2  0  0  0  0
 29 27  2  0  0  0  0
 30 28  1  6  0  0  0
 30 32  1  0  0  0  0
 32 31  2  0  0  0  0
 32 33  1  0  0  0  0
 34 38  1  6  0  0  0
 34 30  1  0  0  0  0
 34 35  1  0  0  0  0
 35 36  2  0  0  0  0
 35 37  1  0  0  0  0
 40 39  1  1  0  0  0
 40 38  1  0  0  0  0
 41 42  1  0  0  0  0
 42 40  1  0  0  0  0
 43 42  1  0  0  0  0
 44 46  1  1  0  0  0
 44  8  1  0  0  0  0
 44 47  1  0  0  0  0
 46 45  2  0  0  0  0
 48 47  1  0  0  0  0
 49 50  1  0  0  0  0
 49 48  1  0  0  0  0
 50 52  1  0  0  0  0
 52 51  1  1  0  0  0
 53 57  2  0  0  0  0
 54 53  1  0  0  0  0
 55 57  1  0  0  0  0
 56 52  1  6  0  0  0
 56 58  1  0  0  0  0
 56 59  1  0  0  0  0
 58 59  1  0  0  0  0
 58 54  1  1  0  0  0
 59 55  1  1  0  0  0
M  END
>  <MODEL>
2

>  <REMARK>
 VINA RESULT:      -8.3      2.030      2.885
  Name = 
  19 active torsions:
  status: ('A' for Active; 'I' for Inactive)
    1  A    between atoms: C_4  and  C_53
    2  A    between atoms: C_6  and  C_37
    3  A    between atoms: N_8  and  C_43
    4  A    between atoms: N_8  and  C_58
    5  A    between atoms: C_9  and  C_32
    6  A    between atoms: C_9  and  C_53
    7  A    between atoms: C_14  and  O_18
    8  A    between atoms: C_16  and  C_46
    9  A    between atoms: C_17  and  C_54
   10  A    between atoms: S_21  and  C_28
   11  A    between atoms: S_21  and  C_31
   12  A    between atoms: C_27  and  C_58
   13  A    between atoms: C_28  and  C_35
   14  A    between atoms: C_28  and  N_36
   15  A    between atoms: C_31  and  C_43
   16  A    between atoms: C_32  and  C_52
   17  A    between atoms: C_34  and  C_37
   18  A    between atoms: C_37  and  C_53
   19  A    between atoms: C_42  and  C_59
                            x       y       z     vdW  Elec       q    Type
                         _______ _______ _______ _____ _____    ______ ____

>  <TORSDO>
F 19

$$$$
=
 OpenBabel10222418153D

 59 64  0  0  1  0  0  0  0  0999 V2000
  190.2370  176.1780  137.7350 C   0  0  0  0  0  3  0  0  0  0  0  0
  189.2400  177.5090  140.0040 C   0  0  0  0  0  0  0  0  0  0  0  0
  191.3120  176.9530  141.1720 C   0  0  0  0  0  3  0  0  0  0  0  0
  188.9560  176.7380  137.7000 C   0  0  0  0  0  0  0  0  0  0  0  0
  189.5870  178.1990  142.3080 C   0  0  0  0  0  3  0  0  0  0  0  0
  188.4610  177.3980  138.8380 C   0  0  0  0  0  3  0  0  0  0  0  0
  190.5260  176.9090  140.0220 C   0  0  0  0  0  0  0  0  0  0  0  0
  190.8430  177.5860  142.3220 C   0  0  0  0  0  0  0  0  0  0  0  0
  191.0160  176.2600  138.8880 C   0  0  0  0  0  3  0  0  0  0  0  0
  188.7780  178.1800  141.1680 C   0  0  0  0  0  0  0  0  0  0  0  0
  186.8430  173.0500  134.9150 C   0  0  0  0  0  3  0  0  0  0  0  0
  187.4380  177.8390  136.0210 C   0  0  0  0  0  2  0  0  0  0  0  0
  184.5980  174.7100  135.0510 C   0  0  0  0  0  3  0  0  0  0  0  0
  187.0030  174.4360  134.8110 C   0  0  0  0  0  0  0  0  0  0  0  0
  188.8620  175.9460  135.2610 C   0  0  0  0  0  0  0  0  0  0  0  0
  188.3200  174.9640  134.5940 N   0  0  0  0  0  0  0  0  0  0  0  0
  186.0330  177.5640  135.7300 N   0  0  0  0  0  2  0  0  0  0  0  0
  185.9760  176.6800  134.6410 N   0  0  0  0  0  2  0  0  0  0  0  0
  184.4540  173.3270  135.1840 C   0  0  0  0  0  3  0  0  0  0  0  0
  188.1540  176.5630  136.4380 C   0  0  1  0  0  3  0  0  0  0  0  0
  185.8650  175.2710  134.8550 C   0  0  0  0  0  0  0  0  0  0  0  0
  185.5750  172.4960  135.1090 C   0  0  0  0  0  3  0  0  0  0  0  0
  190.0870  176.4750  134.8500 O   0  0  0  0  0  0  0  0  0  0  0  0
  191.2140  175.6540  134.5940 C   0  0  0  0  0  1  0  0  0  0  0  0
  186.2940  178.3790  141.0850 C   0  0  0  0  0  3  0  0  0  0  0  0
  187.4950  178.8990  141.2950 C   0  0  0  0  0  3  0  0  0  0  0  0
  183.9260  178.7330  141.2810 C   0  0  0  0  0  0  0  0  0  0  0  0
  182.7230  178.2310  141.3190 C   0  0  0  0  0  3  0  0  0  0  0  0
  185.1250  179.2400  141.2360 C   0  0  0  0  0  3  0  0  0  0  0  0
  181.6390  178.8160  140.4810 C   0  0  2  0  0  3  0  0  0  0  0  0
  179.3000  179.2510  140.6580 O   0  0  0  0  0  0  0  0  0  0  0  0
  180.3520  178.8910  141.2460 C   0  0  0  0  0  0  0  0  0  0  0  0
  180.3120  178.5810  142.6000 O   0  0  0  0  0  1  0  0  0  0  0  0
  181.5270  178.1070  139.1190 C   0  0  2  0  0  3  0  0  0  0  0  0
  181.2120  179.0710  138.0190 C   0  0  0  0  0  0  0  0  0  0  0  0
  180.4180  178.7570  137.0930 O   0  0  0  0  0  0  0  0  0  0  0  0
  181.8020  180.3270  138.0220 O   0  0  0  0  0  1  0  0  0  0  0  0
  180.5620  176.9210  139.0980 C   0  0  0  0  0  2  0  0  0  0  0  0
  182.7390  175.8030  138.5380 C   0  0  0  0  0  1  0  0  0  0  0  0
  181.3070  175.5940  139.0220 C   0  0  2  0  0  3  0  0  0  0  0  0
  179.6820  173.6770  139.0190 C   0  0  0  0  0  1  0  0  0  0  0  0
  180.5380  174.5880  138.1590 C   0  0  0  0  0  3  0  0  0  0  0  0
  181.4480  173.7550  137.2680 C   0  0  0  0  0  1  0  0  0  0  0  0
  191.7170  177.6360  143.5360 C   0  0  1  0  0  3  0  0  0  0  0  0
  191.4070  179.8460  144.0470 O   0  0  0  0  0  0  0  0  0  0  0  0
  191.3100  178.7120  144.4060 N   0  0  0  0  0  0  0  0  0  0  0  0
  191.6580  176.0550  144.4400 S   0  0  0  0  0  0  0  0  0  0  0  0
  191.3120  176.8560  146.0380 C   0  0  0  0  0  2  0  0  0  0  0  0
  189.8210  177.1120  146.2220 C   0  0  0  0  0  2  0  0  0  0  0  0
  189.4500  177.0570  147.6370 N   0  0  0  0  0  2  0  0  0  0  0  0
  188.0570  177.9910  149.2990 O   0  0  0  0  0  1  0  0  0  0  0  0
  188.3450  177.9740  147.9310 C   0  0  2  0  0  3  0  0  0  0  0  0
  185.0020  178.2530  144.4830 C   0  0  0  0  0  3  0  0  0  0  0  0
  186.3610  177.6710  144.7450 C   0  0  0  0  0  2  0  0  0  0  0  0
  184.7400  178.4120  146.9160 C   0  0  0  0  0  2  0  0  0  0  0  0
  187.0990  177.6400  147.1230 C   0  0  2  0  0  3  0  0  0  0  0  0
  184.2310  178.6050  145.5160 C   0  0  0  0  0  3  0  0  0  0  0  0
  187.0930  178.4550  145.8420 C   0  0  2  0  0  3  0  0  0  0  0  0
  186.2040  178.8620  147.0370 C   0  0  1  0  0  3  0  0  0  0  0  0
  1  9  1  0  0  0  0
  2  7  1  0  0  0  0
  2 10  1  0  0  0  0
  3  8  2  0  0  0  0
  4  1  2  0  0  0  0
  4  6  1  0  0  0  0
  5  8  1  0  0  0  0
  6  2  2  0  0  0  0
  7  3  1  0  0  0  0
  8 44  1  0  0  0  0
  9  7  2  0  0  0  0
 10 26  1  0  0  0  0
 10  5  2  0  0  0  0
 11 22  1  0  0  0  0
 12 20  1  0  0  0  0
 13 19  1  0  0  0  0
 14 21  1  0  0  0  0
 14 11  2  0  0  0  0
 15 20  1  0  0  0  0
 16 14  1  0  0  0  0
 16 15  2  0  0  0  0
 17 12  1  0  0  0  0
 18 21  1  0  0  0  0
 18 17  1  0  0  0  0
 20  4  1  1  0  0  0
 21 13  2  0  0  0  0
 22 19  2  0  0  0  0
 23 15  1  0  0  0  0
 24 23  1  0  0  0  0
 25 29  1  0  0  0  0
 25 26  2  0  0  0  0
 27 28  2  0  0  0  0
 29 27  2  0  0  0  0
 30 32  1  0  0  0  0
 30 28  1  1  0  0  0
 31 32  2  0  0  0  0
 32 33  1  0  0  0  0
 34 38  1  1  0  0  0
 34 30  1  0  0  0  0
 35 37  1  0  0  0  0
 35 34  1  0  0  0  0
 36 35  2  0  0  0  0
 40 39  1  6  0  0  0
 40 38  1  0  0  0  0
 42 41  1  0  0  0  0
 42 40  1  0  0  0  0
 43 42  1  0  0  0  0
 44 46  1  1  0  0  0
 44 47  1  0  0  0  0
 45 46  2  0  0  0  0
 47 48  1  0  0  0  0
 48 49  1  0  0  0  0
 49 50  1  0  0  0  0
 50 52  1  0  0  0  0
 52 51  1  1  0  0  0
 53 54  1  0  0  0  0
 53 57  2  0  0  0  0
 56 52  1  1  0  0  0
 57 55  1  0  0  0  0
 58 54  1  6  0  0  0
 58 59  1  0  0  0  0
 58 56  1  0  0  0  0
 59 55  1  6  0  0  0
 59 56  1  0  0  0  0
M  END
>  <MODEL>
3

>  <REMARK>
 VINA RESULT:      -8.2      4.059      9.205
  Name = 
  19 active torsions:
  status: ('A' for Active; 'I' for Inactive)
    1  A    between atoms: C_4  and  C_53
    2  A    between atoms: C_6  and  C_37
    3  A    between atoms: N_8  and  C_43
    4  A    between atoms: N_8  and  C_58
    5  A    between atoms: C_9  and  C_32
    6  A    between atoms: C_9  and  C_53
    7  A    between atoms: C_14  and  O_18
    8  A    between atoms: C_16  and  C_46
    9  A    between atoms: C_17  and  C_54
   10  A    between atoms: S_21  and  C_28
   11  A    between atoms: S_21  and  C_31
   12  A    between atoms: C_27  and  C_58
   13  A    between atoms: C_28  and  C_35
   14  A    between atoms: C_28  and  N_36
   15  A    between atoms: C_31  and  C_43
   16  A    between atoms: C_32  and  C_52
   17  A    between atoms: C_34  and  C_37
   18  A    between atoms: C_37  and  C_53
   19  A    between atoms: C_42  and  C_59
                            x       y       z     vdW  Elec       q    Type
                         _______ _______ _______ _____ _____    ______ ____

>  <TORSDO>
F 19

$$$$
=
 OpenBabel10222418153D

 59 64  0  0  1  0  0  0  0  0999 V2000
  189.9120  176.2850  137.6860 C   0  0  0  0  0  3  0  0  0  0  0  0
  188.9280  177.4040  140.0720 C   0  0  0  0  0  0  0  0  0  0  0  0
  191.1280  177.0570  141.0760 C   0  0  0  0  0  3  0  0  0  0  0  0
  188.5750  176.6890  137.7590 C   0  0  0  0  0  0  0  0  0  0  0  0
  189.3530  178.0460  142.3770 C   0  0  0  0  0  3  0  0  0  0  0  0
  188.0880  177.2440  138.9550 C   0  0  0  0  0  3  0  0  0  0  0  0
  190.2740  176.9610  139.9790 C   0  0  0  0  0  0  0  0  0  0  0  0
  190.6700  177.5870  142.2810 C   0  0  0  0  0  0  0  0  0  0  0  0
  190.7550  176.4180  138.7880 C   0  0  0  0  0  3  0  0  0  0  0  0
  188.4740  177.9720  141.2920 C   0  0  0  0  0  0  0  0  0  0  0  0
  185.7820  173.0390  135.5910 C   0  0  0  0  0  3  0  0  0  0  0  0
  187.2050  177.7680  135.9440 C   0  0  0  0  0  2  0  0  0  0  0  0
  183.8510  175.0580  135.4900 C   0  0  0  0  0  3  0  0  0  0  0  0
  186.1670  174.3460  135.2750 C   0  0  0  0  0  0  0  0  0  0  0  0
  188.2660  175.5680  135.4720 C   0  0  0  0  0  0  0  0  0  0  0  0
  187.5460  174.6040  134.9680 N   0  0  0  0  0  0  0  0  0  0  0  0
  185.7650  177.6960  135.7100 N   0  0  0  0  0  2  0  0  0  0  0  0
  185.5240  176.6810  134.7710 N   0  0  0  0  0  2  0  0  0  0  0  0
  183.4840  173.7550  135.8360 C   0  0  0  0  0  3  0  0  0  0  0  0
  187.7120  176.4660  136.5460 C   0  0  1  0  0  3  0  0  0  0  0  0
  185.1860  175.3600  135.2000 C   0  0  0  0  0  0  0  0  0  0  0  0
  184.4470  172.7440  135.8800 C   0  0  0  0  0  3  0  0  0  0  0  0
  189.5480  175.8140  134.9740 O   0  0  0  0  0  0  0  0  0  0  0  0
  190.4320  174.7640  134.6200 C   0  0  0  0  0  1  0  0  0  0  0  0
  186.2090  178.7580  140.6080 C   0  0  0  0  0  3  0  0  0  0  0  0
  187.1280  178.5280  141.5350 C   0  0  0  0  0  3  0  0  0  0  0  0
  183.8660  178.5900  141.1100 C   0  0  0  0  0  0  0  0  0  0  0  0
  182.7940  177.8530  141.1950 C   0  0  0  0  0  3  0  0  0  0  0  0
  184.9320  179.3330  141.0200 C   0  0  0  0  0  3  0  0  0  0  0  0
  181.5160  178.3130  140.5820 C   0  0  2  0  0  3  0  0  0  0  0  0
  179.7240  177.4770  141.9170 O   0  0  0  0  0  0  0  0  0  0  0  0
  180.4470  178.4630  141.6230 C   0  0  0  0  0  0  0  0  0  0  0  0
  180.2370  179.6820  142.2550 O   0  0  0  0  0  1  0  0  0  0  0  0
  181.1140  177.4400  139.3800 C   0  0  2  0  0  3  0  0  0  0  0  0
  182.3010  176.7690  138.7640 C   0  0  0  0  0  0  0  0  0  0  0  0
  183.0280  177.3790  137.9360 O   0  0  0  0  0  0  0  0  0  0  0  0
  182.6020  175.4600  139.1120 O   0  0  0  0  0  1  0  0  0  0  0  0
  180.2850  178.1650  138.3190 C   0  0  0  0  0  2  0  0  0  0  0  0
  179.1850  180.3730  138.7860 C   0  0  0  0  0  1  0  0  0  0  0  0
  180.4820  179.6750  138.3890 C   0  0  2  0  0  3  0  0  0  0  0  0
  180.5160  181.5940  136.7680 C   0  0  0  0  0  1  0  0  0  0  0  0
  181.0570  180.2100  137.0740 C   0  0  0  0  0  3  0  0  0  0  0  0
  180.8030  179.2820  135.8950 C   0  0  0  0  0  1  0  0  0  0  0  0
  191.6150  177.6960  143.4370 C   0  0  1  0  0  3  0  0  0  0  0  0
  191.7350  179.8500  144.2020 O   0  0  0  0  0  0  0  0  0  0  0  0
  191.2240  178.7770  144.3070 N   0  0  0  0  0  0  0  0  0  0  0  0
  191.6720  176.1360  144.3750 S   0  0  0  0  0  0  0  0  0  0  0  0
  191.1440  176.9250  145.9290 C   0  0  0  0  0  2  0  0  0  0  0  0
  190.3030  175.9770  146.7770 C   0  0  0  0  0  2  0  0  0  0  0  0
  189.6170  176.7010  147.8480 N   0  0  0  0  0  2  0  0  0  0  0  0
  188.8760  178.8970  148.3050 O   0  0  0  0  0  1  0  0  0  0  0  0
  188.9390  177.8940  147.3320 C   0  0  2  0  0  3  0  0  0  0  0  0
  185.0190  178.1090  144.5520 C   0  0  0  0  0  3  0  0  0  0  0  0
  186.3770  177.4720  144.6040 C   0  0  0  0  0  2  0  0  0  0  0  0
  185.2280  178.4580  146.9700 C   0  0  0  0  0  2  0  0  0  0  0  0
  187.5500  177.5730  146.7990 C   0  0  2  0  0  3  0  0  0  0  0  0
  184.4720  178.5770  145.6780 C   0  0  0  0  0  3  0  0  0  0  0  0
  187.3360  178.2920  145.4790 C   0  0  2  0  0  3  0  0  0  0  0  0
  186.7060  178.8330  146.7800 C   0  0  1  0  0  3  0  0  0  0  0  0
  1  4  2  0  0  0  0
  1  9  1  0  0  0  0
  2 10  1  0  0  0  0
  3  8  2  0  0  0  0
  4  6  1  0  0  0  0
  6  2  2  0  0  0  0
  7  2  1  0  0  0  0
  7  3  1  0  0  0  0
  8  5  1  0  0  0  0
  8 44  1  0  0  0  0
  9  7  2  0  0  0  0
 10 26  1  0  0  0  0
 10  5  2  0  0  0  0
 11 22  1  0  0  0  0
 12 20  1  0  0  0  0
 13 19  1  0  0  0  0
 14 11  2  0  0  0  0
 15 20  1  0  0  0  0
 16 14  1  0  0  0  0
 16 15  2  0  0  0  0
 17 12  1  0  0  0  0
 18 21  1  0  0  0  0
 18 17  1  0  0  0  0
 19 22  2  0  0  0  0
 20  4  1  1  0  0  0
 21 14  1  0  0  0  0
 21 13  2  0  0  0  0
 23 15  1  0  0  0  0
 24 23  1  0  0  0  0
 25 29  1  0  0  0  0
 25 26  2  0  0  0  0
 27 28  2  0  0  0  0
 29 27  2  0  0  0  0
 30 28  1  1  0  0  0
 30 32  1  0  0  0  0
 32 31  2  0  0  0  0
 32 33  1  0  0  0  0
 34 38  1  6  0  0  0
 34 30  1  0  0  0  0
 35 37  1  0  0  0  0
 35 34  1  0  0  0  0
 36 35  2  0  0  0  0
 38 40  1  0  0  0  0
 40 39  1  6  0  0  0
 41 42  1  0  0  0  0
 42 40  1  0  0  0  0
 43 42  1  0  0  0  0
 44 46  1  1  0  0  0
 44 47  1  0  0  0  0
 45 46  2  0  0  0  0
 47 48  1  0  0  0  0
 48 49  1  0  0  0  0
 49 50  1  0  0  0  0
 52 50  1  0  0  0  0
 52 51  1  1  0  0  0
 53 54  1  0  0  0  0
 53 57  2  0  0  0  0
 56 52  1  1  0  0  0
 57 55  1  0  0  0  0
 58 54  1  6  0  0  0
 58 59  1  0  0  0  0
 58 56  1  0  0  0  0
 59 56  1  0  0  0  0
 59 55  1  6  0  0  0
M  END
>  <MODEL>
4

>  <REMARK>
 VINA RESULT:      -8.2      4.177      9.355
  Name = 
  19 active torsions:
  status: ('A' for Active; 'I' for Inactive)
    1  A    between atoms: C_4  and  C_53
    2  A    between atoms: C_6  and  C_37
    3  A    between atoms: N_8  and  C_43
    4  A    between atoms: N_8  and  C_58
    5  A    between atoms: C_9  and  C_32
    6  A    between atoms: C_9  and  C_53
    7  A    between atoms: C_14  and  O_18
    8  A    between atoms: C_16  and  C_46
    9  A    between atoms: C_17  and  C_54
   10  A    between atoms: S_21  and  C_28
   11  A    between atoms: S_21  and  C_31
   12  A    between atoms: C_27  and  C_58
   13  A    between atoms: C_28  and  C_35
   14  A    between atoms: C_28  and  N_36
   15  A    between atoms: C_31  and  C_43
   16  A    between atoms: C_32  and  C_52
   17  A    between atoms: C_34  and  C_37
   18  A    between atoms: C_37  and  C_53
   19  A    between atoms: C_42  and  C_59
                            x       y       z     vdW  Elec       q    Type
                         _______ _______ _______ _____ _____    ______ ____

>  <TORSDO>
F 19

$$$$
=
 OpenBabel10222418153D

 59 64  0  0  1  0  0  0  0  0999 V2000
  190.5150  175.7230  136.0240 C   0  0  0  0  0  3  0  0  0  0  0  0
  189.5940  176.8970  138.4090 C   0  0  0  0  0  0  0  0  0  0  0  0
  187.3510  176.9650  137.4440 C   0  0  0  0  0  3  0  0  0  0  0  0
  191.4210  175.9980  137.0530 C   0  0  0  0  0  0  0  0  0  0  0  0
  187.7300  177.8140  139.6700 C   0  0  0  0  0  3  0  0  0  0  0  0
  190.9560  176.5880  138.2410 C   0  0  0  0  0  3  0  0  0  0  0  0
  188.7000  176.6320  137.3390 C   0  0  0  0  0  0  0  0  0  0  0  0
  186.8630  177.5670  138.6020 C   0  0  0  0  0  0  0  0  0  0  0  0
  189.1640  176.0390  136.1640 C   0  0  0  0  0  3  0  0  0  0  0  0
  189.0870  177.4830  139.6000 C   0  0  0  0  0  0  0  0  0  0  0  0
  194.8970  172.5110  138.3120 C   0  0  0  0  0  3  0  0  0  0  0  0
  193.4140  176.3470  135.5560 C   0  0  0  0  0  2  0  0  0  0  0  0
  195.3450  172.4650  135.5540 C   0  0  0  0  0  3  0  0  0  0  0  0
  194.8750  173.7090  137.5900 C   0  0  0  0  0  0  0  0  0  0  0  0
  193.8160  175.8710  137.9640 C   0  0  0  0  0  0  0  0  0  0  0  0
  194.6640  174.9390  138.3000 N   0  0  0  0  0  0  0  0  0  0  0  0
  194.1220  175.3780  134.7240 N   0  0  0  0  0  2  0  0  0  0  0  0
  195.2230  174.8990  135.4500 N   0  0  0  0  0  2  0  0  0  0  0  0
  195.3320  171.2720  136.2800 C   0  0  0  0  0  3  0  0  0  0  0  0
  192.8710  175.6760  136.8090 C   0  0  1  0  0  3  0  0  0  0  0  0
  195.1270  173.6870  136.2010 C   0  0  0  0  0  0  0  0  0  0  0  0
  195.1160  171.2950  137.6600 C   0  0  0  0  0  3  0  0  0  0  0  0
  193.8170  177.0920  138.6430 O   0  0  0  0  0  0  0  0  0  0  0  0
  193.7660  177.1670  140.0580 C   0  0  0  0  0  1  0  0  0  0  0  0
  189.4960  178.5770  141.8020 C   0  0  0  0  0  3  0  0  0  0  0  0
  189.8680  177.7700  140.8190 C   0  0  0  0  0  3  0  0  0  0  0  0
  190.4310  177.9090  143.9110 C   0  0  0  0  0  0  0  0  0  0  0  0
  190.4600  177.0580  144.8990 C   0  0  0  0  0  3  0  0  0  0  0  0
  190.4010  178.7660  142.9300 C   0  0  0  0  0  3  0  0  0  0  0  0
  190.4180  177.5420  146.3080 C   0  0  2  0  0  3  0  0  0  0  0  0
  190.4760  175.3880  147.3320 O   0  0  0  0  0  0  0  0  0  0  0  0
  191.0060  176.5260  147.2400 C   0  0  0  0  0  0  0  0  0  0  0  0
  192.1200  176.8300  148.0130 O   0  0  0  0  0  1  0  0  0  0  0  0
  189.0120  178.0280  146.7020 C   0  0  2  0  0  3  0  0  0  0  0  0
  188.8440  178.0840  148.1870 C   0  0  0  0  0  0  0  0  0  0  0  0
  189.6620  178.7190  148.9050 O   0  0  0  0  0  1  0  0  0  0  0  0
  187.7720  177.4300  148.7780 O   0  0  0  0  0  0  0  0  0  0  0  0
  187.8670  177.2500  146.0510 C   0  0  0  0  0  2  0  0  0  0  0  0
  185.9080  178.8170  146.1360 C   0  0  0  0  0  1  0  0  0  0  0  0
  186.9570  178.1650  145.2410 C   0  0  2  0  0  3  0  0  0  0  0  0
  187.2940  176.3690  143.5160 C   0  0  0  0  0  1  0  0  0  0  0  0
  186.3340  177.4090  144.0630 C   0  0  0  0  0  3  0  0  0  0  0  0
  185.8760  178.3320  142.9430 C   0  0  0  0  0  1  0  0  0  0  0  0
  185.4050  177.8960  138.6960 C   0  0  1  0  0  3  0  0  0  0  0  0
  184.7690  179.7640  139.8560 O   0  0  0  0  0  0  0  0  0  0  0  0
  185.2170  179.3180  138.8440 N   0  0  0  0  0  0  0  0  0  0  0  0
  184.5140  177.3060  137.2210 S   0  0  0  0  0  0  0  0  0  0  0  0
  183.0160  176.8760  138.1630 C   0  0  0  0  0  2  0  0  0  0  0  0
  182.9590  175.3830  138.4670 C   0  0  0  0  0  2  0  0  0  0  0  0
  182.2950  174.6530  137.3870 N   0  0  0  0  0  2  0  0  0  0  0  0
  183.6480  173.7880  135.6560 O   0  0  0  0  0  1  0  0  0  0  0  0
  183.1150  173.5300  136.9220 C   0  0  2  0  0  3  0  0  0  0  0  0
  180.5050  169.8380  135.2810 C   0  0  0  0  0  3  0  0  0  0  0  0
  181.9280  170.2990  135.3940 C   0  0  0  0  0  2  0  0  0  0  0  0
  179.9750  171.4470  137.0540 C   0  0  0  0  0  2  0  0  0  0  0  0
  182.3380  172.2210  136.9240 C   0  0  2  0  0  3  0  0  0  0  0  0
  179.5750  170.3830  136.0710 C   0  0  0  0  0  3  0  0  0  0  0  0
  182.0040  171.8290  135.4960 C   0  0  2  0  0  3  0  0  0  0  0  0
  180.9320  172.4600  136.4100 C   0  0  1  0  0  3  0  0  0  0  0  0
  1  9  2  0  0  0  0
  1  4  1  0  0  0  0
  2 10  1  0  0  0  0
  3  8  2  0  0  0  0
  4  6  2  0  0  0  0
  6  2  1  0  0  0  0
  7  3  1  0  0  0  0
  7  2  2  0  0  0  0
  8 44  1  0  0  0  0
  8  5  1  0  0  0  0
  9  7  1  0  0  0  0
 10  5  2  0  0  0  0
 10 26  1  0  0  0  0
 12 20  1  0  0  0  0
 13 21  2  0  0  0  0
 13 19  1  0  0  0  0
 14 16  1  0  0  0  0
 14 11  2  0  0  0  0
 15 16  2  0  0  0  0
 15 23  1  0  0  0  0
 17 18  1  0  0  0  0
 17 12  1  0  0  0  0
 18 21  1  0  0  0  0
 19 22  2  0  0  0  0
 20  4  1  1  0  0  0
 20 15  1  0  0  0  0
 21 14  1  0  0  0  0
 22 11  1  0  0  0  0
 23 24  1  0  0  0  0
 25 29  1  0  0  0  0
 26 25  2  0  0  0  0
 27 28  2  0  0  0  0
 29 27  2  0  0  0  0
 30 28  1  6  0  0  0
 30 34  1  0  0  0  0
 30 32  1  0  0  0  0
 32 31  2  0  0  0  0
 32 33  1  0  0  0  0
 34 38  1  6  0  0  0
 34 35  1  0  0  0  0
 35 37  2  0  0  0  0
 35 36  1  0  0  0  0
 40 38  1  0  0  0  0
 40 39  1  1  0  0  0
 41 42  1  0  0  0  0
 42 40  1  0  0  0  0
 43 42  1  0  0  0  0
 44 47  1  6  0  0  0
 44 46  1  0  0  0  0
 46 45  2  0  0  0  0
 47 48  1  0  0  0  0
 48 49  1  0  0  0  0
 50 49  1  0  0  0  0
 52 51  1  6  0  0  0
 52 50  1  0  0  0  0
 53 54  1  0  0  0  0
 53 57  2  0  0  0  0
 56 52  1  6  0  0  0
 57 55  1  0  0  0  0
 58 54  1  1  0  0  0
 58 59  1  0  0  0  0
 58 56  1  0  0  0  0
 59 56  1  0  0  0  0
 59 55  1  1  0  0  0
M  END
>  <MODEL>
5

>  <REMARK>
 VINA RESULT:      -7.9      2.559      3.620
  Name = 
  19 active torsions:
  status: ('A' for Active; 'I' for Inactive)
    1  A    between atoms: C_4  and  C_53
    2  A    between atoms: C_6  and  C_37
    3  A    between atoms: N_8  and  C_43
    4  A    between atoms: N_8  and  C_58
    5  A    between atoms: C_9  and  C_32
    6  A    between atoms: C_9  and  C_53
    7  A    between atoms: C_14  and  O_18
    8  A    between atoms: C_16  and  C_46
    9  A    between atoms: C_17  and  C_54
   10  A    between atoms: S_21  and  C_28
   11  A    between atoms: S_21  and  C_31
   12  A    between atoms: C_27  and  C_58
   13  A    between atoms: C_28  and  C_35
   14  A    between atoms: C_28  and  N_36
   15  A    between atoms: C_31  and  C_43
   16  A    between atoms: C_32  and  C_52
   17  A    between atoms: C_34  and  C_37
   18  A    between atoms: C_37  and  C_53
   19  A    between atoms: C_42  and  C_59
                            x       y       z     vdW  Elec       q    Type
                         _______ _______ _______ _____ _____    ______ ____

>  <TORSDO>
F 19

$$$$
=
 OpenBabel10222418153D

 59 64  0  0  1  0  0  0  0  0999 V2000
  189.0840  177.9780  140.3890 C   0  0  0  0  0  3  0  0  0  0  0  0
  186.3120  178.4560  140.3950 C   0  0  0  0  0  0  0  0  0  0  0  0
  186.4570  178.9450  142.7840 C   0  0  0  0  0  3  0  0  0  0  0  0
  188.3520  177.8130  139.2090 C   0  0  0  0  0  0  0  0  0  0  0  0
  184.3260  179.0610  141.6600 C   0  0  0  0  0  3  0  0  0  0  0  0
  186.9660  178.0500  139.2190 C   0  0  0  0  0  3  0  0  0  0  0  0
  187.0740  178.5900  141.5850 C   0  0  0  0  0  0  0  0  0  0  0  0
  185.0830  179.1690  142.8300 C   0  0  0  0  0  0  0  0  0  0  0  0
  188.4500  178.3620  141.5700 C   0  0  0  0  0  3  0  0  0  0  0  0
  184.9160  178.7160  140.4390 C   0  0  0  0  0  0  0  0  0  0  0  0
  189.6050  173.5020  136.8280 C   0  0  0  0  0  3  0  0  0  0  0  0
  189.2350  178.4380  136.9350 C   0  0  0  0  0  2  0  0  0  0  0  0
  188.5850  174.8440  134.5990 C   0  0  0  0  0  3  0  0  0  0  0  0
  189.8690  174.8660  136.6650 C   0  0  0  0  0  0  0  0  0  0  0  0
  190.4190  176.6640  138.2150 C   0  0  0  0  0  0  0  0  0  0  0  0
  190.6970  175.5300  137.6320 N   0  0  0  0  0  0  0  0  0  0  0  0
  188.8370  177.9360  135.6230 N   0  0  0  0  0  2  0  0  0  0  0  0
  189.7140  176.9010  135.2660 N   0  0  0  0  0  2  0  0  0  0  0  0
  188.3020  173.4900  134.7890 C   0  0  0  0  0  3  0  0  0  0  0  0
  189.0970  177.3470  137.9870 C   0  0  1  0  0  3  0  0  0  0  0  0
  189.3740  175.5370  135.5250 C   0  0  0  0  0  0  0  0  0  0  0  0
  188.8170  172.8170  135.9000 C   0  0  0  0  0  3  0  0  0  0  0  0
  191.3780  177.2870  139.0170 O   0  0  0  0  0  0  0  0  0  0  0  0
  192.6790  176.7530  139.1880 C   0  0  0  0  0  1  0  0  0  0  0  0
  183.0060  179.5280  139.0570 C   0  0  0  0  0  3  0  0  0  0  0  0
  183.9950  178.6760  139.2860 C   0  0  0  0  0  3  0  0  0  0  0  0
  181.4740  178.2430  137.7270 C   0  0  0  0  0  0  0  0  0  0  0  0
  180.7750  177.1530  137.5710 C   0  0  0  0  0  3  0  0  0  0  0  0
  182.1750  179.3310  137.8740 C   0  0  0  0  0  3  0  0  0  0  0  0
  180.8140  176.4150  136.2770 C   0  0  2  0  0  3  0  0  0  0  0  0
  178.9850  175.5820  134.9920 O   0  0  0  0  0  0  0  0  0  0  0  0
  179.5280  176.5830  135.5260 C   0  0  0  0  0  0  0  0  0  0  0  0
  178.9350  177.8340  135.4030 O   0  0  0  0  0  1  0  0  0  0  0  0
  181.2510  174.9520  136.4680 C   0  0  2  0  0  3  0  0  0  0  0  0
  180.4730  174.2810  137.5550 C   0  0  0  0  0  0  0  0  0  0  0  0
  179.5690  173.4470  137.2810 O   0  0  0  0  0  0  0  0  0  0  0  0
  180.7530  174.5810  138.8810 O   0  0  0  0  0  1  0  0  0  0  0  0
  182.7550  174.7620  136.6760 C   0  0  0  0  0  2  0  0  0  0  0  0
  182.3030  173.1990  134.7640 C   0  0  0  0  0  1  0  0  0  0  0  0
  183.2890  173.5910  135.8600 C   0  0  2  0  0  3  0  0  0  0  0  0
  185.1560  172.2370  136.8580 C   0  0  0  0  0  1  0  0  0  0  0  0
  183.6510  172.4130  136.7710 C   0  0  0  0  0  3  0  0  0  0  0  0
  183.0000  171.1080  136.3370 C   0  0  0  0  0  1  0  0  0  0  0  0
  184.4500  179.5680  144.1270 C   0  0  1  0  0  3  0  0  0  0  0  0
  182.1780  179.3160  144.0170 O   0  0  0  0  0  0  0  0  0  0  0  0
  183.1100  180.0520  143.9070 N   0  0  0  0  0  0  0  0  0  0  0  0
  184.4180  178.1650  145.2890 S   0  0  0  0  0  0  0  0  0  0  0  0
  185.7440  178.8530  146.3290 C   0  0  0  0  0  2  0  0  0  0  0  0
  187.1000  178.2560  145.9700 C   0  0  0  0  0  2  0  0  0  0  0  0
  187.8260  177.8450  147.1720 N   0  0  0  0  0  2  0  0  0  0  0  0
  190.0980  177.4570  147.6890 O   0  0  0  0  0  1  0  0  0  0  0  0
  189.0500  177.1140  146.8290 C   0  0  2  0  0  3  0  0  0  0  0  0
  191.6800  176.9220  142.8050 C   0  0  0  0  0  3  0  0  0  0  0  0
  190.6840  176.1150  143.5860 C   0  0  0  0  0  2  0  0  0  0  0  0
  190.8730  178.8810  144.0400 C   0  0  0  0  0  2  0  0  0  0  0  0
  189.4530  177.3320  145.3770 C   0  0  2  0  0  3  0  0  0  0  0  0
  191.7700  178.2370  143.0210 C   0  0  0  0  0  3  0  0  0  0  0  0
  190.6940  176.5130  145.0690 C   0  0  2  0  0  3  0  0  0  0  0  0
  190.7970  178.0330  145.3190 C   0  0  1  0  0  3  0  0  0  0  0  0
  1  9  1  0  0  0  0
  2 10  1  0  0  0  0
  2  7  1  0  0  0  0
  3  8  2  0  0  0  0
  4  6  1  0  0  0  0
  4  1  2  0  0  0  0
  5  8  1  0  0  0  0
  6  2  2  0  0  0  0
  7  3  1  0  0  0  0
  8 44  1  0  0  0  0
  9  7  2  0  0  0  0
 10  5  2  0  0  0  0
 12 20  1  0  0  0  0
 13 19  2  0  0  0  0
 13 21  1  0  0  0  0
 14 11  1  0  0  0  0
 14 16  1  0  0  0  0
 15 23  1  0  0  0  0
 16 15  2  0  0  0  0
 17 12  1  0  0  0  0
 18 21  1  0  0  0  0
 18 17  1  0  0  0  0
 19 22  1  0  0  0  0
 20 15  1  0  0  0  0
 20  4  1  1  0  0  0
 21 14  2  0  0  0  0
 22 11  2  0  0  0  0
 23 24  1  0  0  0  0
 25 26  2  0  0  0  0
 26 10  1  0  0  0  0
 27 29  2  0  0  0  0
 28 27  2  0  0  0  0
 29 25  1  0  0  0  0
 30 34  1  0  0  0  0
 30 28  1  1  0  0  0
 31 32  2  0  0  0  0
 32 30  1  0  0  0  0
 33 32  1  0  0  0  0
 34 38  1  1  0  0  0
 34 35  1  0  0  0  0
 35 37  1  0  0  0  0
 36 35  2  0  0  0  0
 40 39  1  6  0  0  0
 40 38  1  0  0  0  0
 40 42  1  0  0  0  0
 42 41  1  0  0  0  0
 43 42  1  0  0  0  0
 44 46  1  6  0  0  0
 44 47  1  0  0  0  0
 46 45  2  0  0  0  0
 47 48  1  0  0  0  0
 49 48  1  0  0  0  0
 49 50  1  0  0  0  0
 52 50  1  0  0  0  0
 52 51  1  1  0  0  0
 53 57  2  0  0  0  0
 53 54  1  0  0  0  0
 56 52  1  1  0  0  0
 57 55  1  0  0  0  0
 58 54  1  6  0  0  0
 58 59  1  0  0  0  0
 58 56  1  0  0  0  0
 59 55  1  6  0  0  0
 59 56  1  0  0  0  0
M  END
>  <MODEL>
6

>  <REMARK>
 VINA RESULT:      -7.5      3.821     10.062
  Name = 
  19 active torsions:
  status: ('A' for Active; 'I' for Inactive)
    1  A    between atoms: C_4  and  C_53
    2  A    between atoms: C_6  and  C_37
    3  A    between atoms: N_8  and  C_43
    4  A    between atoms: N_8  and  C_58
    5  A    between atoms: C_9  and  C_32
    6  A    between atoms: C_9  and  C_53
    7  A    between atoms: C_14  and  O_18
    8  A    between atoms: C_16  and  C_46
    9  A    between atoms: C_17  and  C_54
   10  A    between atoms: S_21  and  C_28
   11  A    between atoms: S_21  and  C_31
   12  A    between atoms: C_27  and  C_58
   13  A    between atoms: C_28  and  C_35
   14  A    between atoms: C_28  and  N_36
   15  A    between atoms: C_31  and  C_43
   16  A    between atoms: C_32  and  C_52
   17  A    between atoms: C_34  and  C_37
   18  A    between atoms: C_37  and  C_53
   19  A    between atoms: C_42  and  C_59
                            x       y       z     vdW  Elec       q    Type
                         _______ _______ _______ _____ _____    ______ ____

>  <TORSDO>
F 19

$$$$
=
 OpenBabel10222418153D

 59 64  0  0  1  0  0  0  0  0999 V2000
  189.4120  177.1590  141.0070 C   0  0  0  0  0  3  0  0  0  0  0  0
  186.8180  178.2350  141.1770 C   0  0  0  0  0  0  0  0  0  0  0  0
  187.0040  178.1530  143.6120 C   0  0  0  0  0  3  0  0  0  0  0  0
  188.6950  177.4210  139.8360 C   0  0  0  0  0  0  0  0  0  0  0  0
  184.9840  178.9830  142.5860 C   0  0  0  0  0  3  0  0  0  0  0  0
  187.3970  177.9540  139.9270 C   0  0  0  0  0  3  0  0  0  0  0  0
  187.5580  177.9350  142.3520 C   0  0  0  0  0  0  0  0  0  0  0  0
  185.7130  178.6640  143.7360 C   0  0  0  0  0  0  0  0  0  0  0  0
  188.8470  177.4120  142.2570 C   0  0  0  0  0  3  0  0  0  0  0  0
  185.5150  178.7850  141.3070 C   0  0  0  0  0  0  0  0  0  0  0  0
  189.6430  173.3710  136.9160 C   0  0  0  0  0  3  0  0  0  0  0  0
  189.4670  178.2720  137.5960 C   0  0  0  0  0  2  0  0  0  0  0  0
  188.5480  174.9890  134.9180 C   0  0  0  0  0  3  0  0  0  0  0  0
  189.9480  174.7360  136.8900 C   0  0  0  0  0  0  0  0  0  0  0  0
  190.6560  176.3280  138.5940 C   0  0  0  0  0  0  0  0  0  0  0  0
  190.8550  175.2590  137.8720 N   0  0  0  0  0  0  0  0  0  0  0  0
  188.9750  177.9350  136.2630 N   0  0  0  0  0  2  0  0  0  0  0  0
  189.7910  176.9200  135.7390 N   0  0  0  0  0  2  0  0  0  0  0  0
  188.2250  173.6310  134.9730 C   0  0  0  0  0  3  0  0  0  0  0  0
  189.3490  177.0730  138.5260 C   0  0  1  0  0  3  0  0  0  0  0  0
  189.4140  175.5470  135.8650 C   0  0  0  0  0  0  0  0  0  0  0  0
  188.7780  172.8210  135.9670 C   0  0  0  0  0  3  0  0  0  0  0  0
  191.6820  176.8260  139.4000 O   0  0  0  0  0  0  0  0  0  0  0  0
  193.0430  176.7640  139.0090 C   0  0  0  0  0  1  0  0  0  0  0  0
  184.3600  178.4770  139.1190 C   0  0  0  0  0  3  0  0  0  0  0  0
  184.6400  179.2020  140.1930 C   0  0  0  0  0  3  0  0  0  0  0  0
  182.5370  179.8770  138.4240 C   0  0  0  0  0  0  0  0  0  0  0  0
  181.5760  180.6990  138.7440 C   0  0  0  0  0  3  0  0  0  0  0  0
  183.4900  179.0510  138.0980 C   0  0  0  0  0  3  0  0  0  0  0  0
  180.2060  180.5030  138.1930 C   0  0  2  0  0  3  0  0  0  0  0  0
  179.6050  181.7490  136.2490 O   0  0  0  0  0  0  0  0  0  0  0  0
  179.7260  181.7430  137.5020 C   0  0  0  0  0  0  0  0  0  0  0  0
  179.4250  182.8900  138.2260 O   0  0  0  0  0  1  0  0  0  0  0  0
  179.2380  179.9530  139.2560 C   0  0  2  0  0  3  0  0  0  0  0  0
  179.6430  180.3630  140.6360 C   0  0  0  0  0  0  0  0  0  0  0  0
  180.2400  179.5570  141.3990 O   0  0  0  0  0  1  0  0  0  0  0  0
  179.3580  181.6470  141.0790 O   0  0  0  0  0  0  0  0  0  0  0  0
  179.0050  178.4430  139.1810 C   0  0  0  0  0  2  0  0  0  0  0  0
  178.9320  177.6500  136.8000 C   0  0  0  0  0  1  0  0  0  0  0  0
  179.7990  177.8110  138.0440 C   0  0  2  0  0  3  0  0  0  0  0  0
  181.1660  176.6560  139.8090 C   0  0  0  0  0  1  0  0  0  0  0  0
  180.4310  176.4880  138.4930 C   0  0  0  0  0  3  0  0  0  0  0  0
  181.3660  175.8950  137.4480 C   0  0  0  0  0  1  0  0  0  0  0  0
  185.1510  178.9060  145.1020 C   0  0  1  0  0  3  0  0  0  0  0  0
  182.8930  178.8390  145.4700 O   0  0  0  0  0  0  0  0  0  0  0  0
  183.8150  179.4410  145.0100 N   0  0  0  0  0  0  0  0  0  0  0  0
  185.1360  177.3670  146.0760 S   0  0  0  0  0  0  0  0  0  0  0  0
  185.5090  178.2240  147.6390 C   0  0  0  0  0  2  0  0  0  0  0  0
  186.2430  179.5380  147.3930 C   0  0  0  0  0  2  0  0  0  0  0  0
  187.6390  179.4450  147.8180 N   0  0  0  0  0  2  0  0  0  0  0  0
  187.9770  177.5580  149.1980 O   0  0  0  0  0  1  0  0  0  0  0  0
  188.0800  178.0490  147.8920 C   0  0  2  0  0  3  0  0  0  0  0  0
  191.6860  176.4960  145.1120 C   0  0  0  0  0  3  0  0  0  0  0  0
  190.6320  177.5640  145.1660 C   0  0  0  0  0  2  0  0  0  0  0  0
  191.3660  176.2350  147.5300 C   0  0  0  0  0  2  0  0  0  0  0  0
  189.4950  177.8700  147.3600 C   0  0  2  0  0  3  0  0  0  0  0  0
  192.0350  175.8640  146.2360 C   0  0  0  0  0  3  0  0  0  0  0  0
  189.4480  177.1250  146.0390 C   0  0  2  0  0  3  0  0  0  0  0  0
  189.8500  176.3960  147.3380 C   0  0  1  0  0  3  0  0  0  0  0  0
  1  9  1  0  0  0  0
  2 10  1  0  0  0  0
  2  7  1  0  0  0  0
  3  8  2  0  0  0  0
  4  6  1  0  0  0  0
  4  1  2  0  0  0  0
  5  8  1  0  0  0  0
  6  2  2  0  0  0  0
  7  3  1  0  0  0  0
  8 44  1  0  0  0  0
  9  7  2  0  0  0  0
 10  5  2  0  0  0  0
 12 20  1  0  0  0  0
 13 19  2  0  0  0  0
 13 21  1  0  0  0  0
 14 11  1  0  0  0  0
 14 16  1  0  0  0  0
 15 23  1  0  0  0  0
 16 15  2  0  0  0  0
 17 12  1  0  0  0  0
 18 21  1  0  0  0  0
 18 17  1  0  0  0  0
 19 22  1  0  0  0  0
 20 15  1  0  0  0  0
 20  4  1  1  0  0  0
 21 14  2  0  0  0  0
 22 11  2  0  0  0  0
 24 23  1  0  0  0  0
 25 26  2  0  0  0  0
 26 10  1  0  0  0  0
 27 28  2  0  0  0  0
 29 27  2  0  0  0  0
 29 25  1  0  0  0  0
 30 28  1  1  0  0  0
 30 34  1  0  0  0  0
 31 32  2  0  0  0  0
 32 30  1  0  0  0  0
 32 33  1  0  0  0  0
 34 38  1  1  0  0  0
 34 35  1  0  0  0  0
 35 37  2  0  0  0  0
 35 36  1  0  0  0  0
 40 39  1  6  0  0  0
 40 42  1  0  0  0  0
 40 38  1  0  0  0  0
 42 41  1  0  0  0  0
 43 42  1  0  0  0  0
 44 46  1  6  0  0  0
 44 47  1  0  0  0  0
 46 45  2  0  0  0  0
 47 48  1  0  0  0  0
 49 48  1  0  0  0  0
 49 50  1  0  0  0  0
 50 52  1  0  0  0  0
 52 51  1  1  0  0  0
 53 54  1  0  0  0  0
 53 57  2  0  0  0  0
 56 52  1  1  0  0  0
 57 55  1  0  0  0  0
 58 54  1  6  0  0  0
 58 59  1  0  0  0  0
 58 56  1  0  0  0  0
 59 56  1  0  0  0  0
 59 55  1  6  0  0  0
M  END
>  <MODEL>
7

>  <REMARK>
 VINA RESULT:      -7.2      3.774      9.880
  Name = 
  19 active torsions:
  status: ('A' for Active; 'I' for Inactive)
    1  A    between atoms: C_4  and  C_53
    2  A    between atoms: C_6  and  C_37
    3  A    between atoms: N_8  and  C_43
    4  A    between atoms: N_8  and  C_58
    5  A    between atoms: C_9  and  C_32
    6  A    between atoms: C_9  and  C_53
    7  A    between atoms: C_14  and  O_18
    8  A    between atoms: C_16  and  C_46
    9  A    between atoms: C_17  and  C_54
   10  A    between atoms: S_21  and  C_28
   11  A    between atoms: S_21  and  C_31
   12  A    between atoms: C_27  and  C_58
   13  A    between atoms: C_28  and  C_35
   14  A    between atoms: C_28  and  N_36
   15  A    between atoms: C_31  and  C_43
   16  A    between atoms: C_32  and  C_52
   17  A    between atoms: C_34  and  C_37
   18  A    between atoms: C_37  and  C_53
   19  A    between atoms: C_42  and  C_59
                            x       y       z     vdW  Elec       q    Type
                         _______ _______ _______ _____ _____    ______ ____

>  <TORSDO>
F 19

$$$$
=
 OpenBabel10222418153D

 59 64  0  0  1  0  0  0  0  0999 V2000
  184.2400  176.9410  134.9090 C   0  0  0  0  0  3  0  0  0  0  0  0
  186.2000  177.0150  136.9250 C   0  0  0  0  0  0  0  0  0  0  0  0
  187.7340  175.8800  135.3990 C   0  0  0  0  0  3  0  0  0  0  0  0
  183.9280  177.4920  136.1550 C   0  0  0  0  0  0  0  0  0  0  0  0
  188.4620  176.4650  137.6230 C   0  0  0  0  0  3  0  0  0  0  0  0
  184.9100  177.5230  137.1600 C   0  0  0  0  0  3  0  0  0  0  0  0
  186.4830  176.4380  135.6590 C   0  0  0  0  0  0  0  0  0  0  0  0
  188.7220  175.8800  136.3800 C   0  0  0  0  0  0  0  0  0  0  0  0
  185.5080  176.4160  134.6620 C   0  0  0  0  0  3  0  0  0  0  0  0
  187.2210  177.0410  137.9120 C   0  0  0  0  0  0  0  0  0  0  0  0
  180.9120  179.1730  139.8830 C   0  0  0  0  0  3  0  0  0  0  0  0
  181.8870  178.4970  135.0770 C   0  0  0  0  0  2  0  0  0  0  0  0
  180.4350  181.2590  138.0860 C   0  0  0  0  0  3  0  0  0  0  0  0
  180.7800  178.8910  138.5200 C   0  0  0  0  0  0  0  0  0  0  0  0
  181.5780  177.0800  137.0980 C   0  0  0  0  0  0  0  0  0  0  0  0
  180.8510  177.5240  138.0870 N   0  0  0  0  0  0  0  0  0  0  0  0
  181.2890  179.8130  135.2850 N   0  0  0  0  0  2  0  0  0  0  0  0
  180.2630  179.6830  136.2340 N   0  0  0  0  0  2  0  0  0  0  0  0
  180.6000  181.5320  139.4460 C   0  0  0  0  0  3  0  0  0  0  0  0
  182.5240  177.9920  136.3640 C   0  0  1  0  0  3  0  0  0  0  0  0
  180.5140  179.9440  137.6160 C   0  0  0  0  0  0  0  0  0  0  0  0
  180.8310  180.4880  140.3460 C   0  0  0  0  0  3  0  0  0  0  0  0
  181.4400  175.7570  136.6710 O   0  0  0  0  0  0  0  0  0  0  0  0
  180.5080  174.8690  137.2640 C   0  0  0  0  0  1  0  0  0  0  0  0
  188.0910  178.2390  139.9180 C   0  0  0  0  0  3  0  0  0  0  0  0
  187.1080  177.6500  139.2530 C   0  0  0  0  0  3  0  0  0  0  0  0
  187.5170  177.9780  142.2350 C   0  0  0  0  0  0  0  0  0  0  0  0
  187.2140  177.1870  143.2270 C   0  0  0  0  0  3  0  0  0  0  0  0
  187.8120  178.7730  141.2470 C   0  0  0  0  0  3  0  0  0  0  0  0
  186.0420  177.4890  144.0970 C   0  0  2  0  0  3  0  0  0  0  0  0
  184.0590  178.3190  143.0620 O   0  0  0  0  0  0  0  0  0  0  0  0
  185.2060  178.5840  143.5060 C   0  0  0  0  0  0  0  0  0  0  0  0
  185.6880  179.8850  143.4310 O   0  0  0  0  0  1  0  0  0  0  0  0
  186.4630  177.7290  145.5570 C   0  0  2  0  0  3  0  0  0  0  0  0
  185.4480  178.5410  146.2980 C   0  0  0  0  0  0  0  0  0  0  0  0
  184.2600  178.1380  146.4150 O   0  0  0  0  0  0  0  0  0  0  0  0
  185.8230  179.7510  146.8630 O   0  0  0  0  0  1  0  0  0  0  0  0
  187.8640  178.3200  145.7250 C   0  0  0  0  0  2  0  0  0  0  0  0
  188.5420  177.4730  147.9880 C   0  0  0  0  0  1  0  0  0  0  0  0
  188.7840  177.3740  146.4850 C   0  0  2  0  0  3  0  0  0  0  0  0
  190.3720  178.0630  144.6640 C   0  0  0  0  0  1  0  0  0  0  0  0
  190.2490  177.6210  146.1100 C   0  0  0  0  0  3  0  0  0  0  0  0
  191.1360  176.4100  146.3590 C   0  0  0  0  0  1  0  0  0  0  0  0
  190.0630  175.2920  136.0660 C   0  0  1  0  0  3  0  0  0  0  0  0
  190.1050  173.4590  134.6960 O   0  0  0  0  0  0  0  0  0  0  0  0
  190.0430  174.6480  134.7770 N   0  0  0  0  0  0  0  0  0  0  0  0
  191.3540  176.5770  136.0950 S   0  0  0  0  0  0  0  0  0  0  0  0
  192.7060  175.3700  136.2740 C   0  0  0  0  0  2  0  0  0  0  0  0
  193.9560  176.0170  136.8600 C   0  0  0  0  0  2  0  0  0  0  0  0
  194.5790  175.1450  137.8560 N   0  0  0  0  0  2  0  0  0  0  0  0
  196.4870  175.6070  136.5430 O   0  0  0  0  0  1  0  0  0  0  0  0
  195.8940  174.6790  137.4040 C   0  0  2  0  0  3  0  0  0  0  0  0
  194.6170  170.0990  136.6720 C   0  0  0  0  0  3  0  0  0  0  0  0
  194.1380  171.4980  136.4130 C   0  0  0  0  0  2  0  0  0  0  0  0
  196.8520  171.0560  136.9860 C   0  0  0  0  0  2  0  0  0  0  0  0
  195.8160  173.3080  136.7470 C   0  0  2  0  0  3  0  0  0  0  0  0
  195.9070  169.8880  136.9450 C   0  0  0  0  0  3  0  0  0  0  0  0
  194.7390  172.4820  137.4260 C   0  0  2  0  0  3  0  0  0  0  0  0
  196.2310  172.2400  137.7410 C   0  0  1  0  0  3  0  0  0  0  0  0
  1  4  1  0  0  0  0
  2  6  1  0  0  0  0
  2 10  1  0  0  0  0
  3  7  1  0  0  0  0
  3  8  2  0  0  0  0
  4  6  2  0  0  0  0
  5 10  2  0  0  0  0
  7  2  2  0  0  0  0
  8  5  1  0  0  0  0
  9  1  2  0  0  0  0
  9  7  1  0  0  0  0
 10 26  1  0  0  0  0
 11 22  1  0  0  0  0
 12 17  1  0  0  0  0
 12 20  1  0  0  0  0
 13 19  1  0  0  0  0
 14 11  2  0  0  0  0
 15 16  2  0  0  0  0
 16 14  1  0  0  0  0
 17 18  1  0  0  0  0
 18 21  1  0  0  0  0
 19 22  2  0  0  0  0
 20  4  1  6  0  0  0
 20 15  1  0  0  0  0
 21 13  2  0  0  0  0
 21 14  1  0  0  0  0
 23 15  1  0  0  0  0
 23 24  1  0  0  0  0
 25 29  1  0  0  0  0
 26 25  2  0  0  0  0
 27 28  2  0  0  0  0
 29 27  2  0  0  0  0
 30 28  1  6  0  0  0
 30 34  1  0  0  0  0
 31 32  2  0  0  0  0
 32 30  1  0  0  0  0
 33 32  1  0  0  0  0
 34 38  1  6  0  0  0
 34 35  1  0  0  0  0
 35 36  2  0  0  0  0
 35 37  1  0  0  0  0
 38 40  1  0  0  0  0
 40 39  1  1  0  0  0
 41 42  1  0  0  0  0
 42 43  1  0  0  0  0
 42 40  1  0  0  0  0
 44 46  1  6  0  0  0
 44 47  1  0  0  0  0
 44  8  1  0  0  0  0
 45 46  2  0  0  0  0
 47 48  1  0  0  0  0
 48 49  1  0  0  0  0
 49 50  1  0  0  0  0
 52 51  1  6  0  0  0
 52 50  1  0  0  0  0
 53 57  2  0  0  0  0
 54 53  1  0  0  0  0
 56 52  1  1  0  0  0
 56 58  1  0  0  0  0
 56 59  1  0  0  0  0
 57 55  1  0  0  0  0
 58 54  1  6  0  0  0
 58 59  1  0  0  0  0
 59 55  1  6  0  0  0
M  END
>  <MODEL>
8

>  <REMARK>
 VINA RESULT:      -6.5      2.700     11.281
  Name = 
  19 active torsions:
  status: ('A' for Active; 'I' for Inactive)
    1  A    between atoms: C_4  and  C_53
    2  A    between atoms: C_6  and  C_37
    3  A    between atoms: N_8  and  C_43
    4  A    between atoms: N_8  and  C_58
    5  A    between atoms: C_9  and  C_32
    6  A    between atoms: C_9  and  C_53
    7  A    between atoms: C_14  and  O_18
    8  A    between atoms: C_16  and  C_46
    9  A    between atoms: C_17  and  C_54
   10  A    between atoms: S_21  and  C_28
   11  A    between atoms: S_21  and  C_31
   12  A    between atoms: C_27  and  C_58
   13  A    between atoms: C_28  and  C_35
   14  A    between atoms: C_28  and  N_36
   15  A    between atoms: C_31  and  C_43
   16  A    between atoms: C_32  and  C_52
   17  A    between atoms: C_34  and  C_37
   18  A    between atoms: C_37  and  C_53
   19  A    between atoms: C_42  and  C_59
                            x       y       z     vdW  Elec       q    Type
                         _______ _______ _______ _____ _____    ______ ____

>  <TORSDO>
F 19

$$$$
=
 OpenBabel10222418153D

 59 64  0  0  1  0  0  0  0  0999 V2000
  188.1250  177.9500  139.7800 C   0  0  0  0  0  3  0  0  0  0  0  0
  185.6540  178.2000  141.1020 C   0  0  0  0  0  0  0  0  0  0  0  0
  186.8710  178.5600  143.1900 C   0  0  0  0  0  3  0  0  0  0  0  0
  186.9370  177.7950  139.0580 C   0  0  0  0  0  0  0  0  0  0  0  0
  184.4580  178.5670  143.1850 C   0  0  0  0  0  3  0  0  0  0  0  0
  185.7060  177.9170  139.7250 C   0  0  0  0  0  3  0  0  0  0  0  0
  186.8750  178.3270  141.8150 C   0  0  0  0  0  0  0  0  0  0  0  0
  185.6660  178.6680  143.8820 C   0  0  0  0  0  0  0  0  0  0  0  0
  188.0950  178.2120  141.1490 C   0  0  0  0  0  3  0  0  0  0  0  0
  184.4280  178.3420  141.8050 C   0  0  0  0  0  0  0  0  0  0  0  0
  188.2990  173.9410  136.0400 C   0  0  0  0  0  3  0  0  0  0  0  0
  186.1930  178.3690  136.7230 C   0  0  0  0  0  2  0  0  0  0  0  0
  185.8500  174.4930  134.8120 C   0  0  0  0  0  3  0  0  0  0  0  0
  187.8970  175.2700  135.8710 C   0  0  0  0  0  0  0  0  0  0  0  0
  188.4400  177.3440  137.0280 C   0  0  0  0  0  0  0  0  0  0  0  0
  188.7800  176.3180  136.2980 N   0  0  0  0  0  0  0  0  0  0  0  0
  185.3980  177.5770  135.7890 N   0  0  0  0  0  2  0  0  0  0  0  0
  186.2780  176.8910  134.9370 N   0  0  0  0  0  2  0  0  0  0  0  0
  186.2470  173.1700  135.0150 C   0  0  0  0  0  3  0  0  0  0  0  0
  187.0500  177.4630  137.5950 C   0  0  1  0  0  3  0  0  0  0  0  0
  186.6700  175.5480  135.2280 C   0  0  0  0  0  0  0  0  0  0  0  0
  187.4750  172.8930  135.6220 C   0  0  0  0  0  3  0  0  0  0  0  0
  189.3520  178.3800  137.2440 O   0  0  0  0  0  0  0  0  0  0  0  0
  189.0550  179.7260  136.9150 C   0  0  0  0  0  1  0  0  0  0  0  0
  181.9520  178.6310  141.8140 C   0  0  0  0  0  3  0  0  0  0  0  0
  183.0800  178.2940  141.2050 C   0  0  0  0  0  3  0  0  0  0  0  0
  180.5890  177.6630  140.0890 C   0  0  0  0  0  0  0  0  0  0  0  0
  180.4750  176.8280  139.0930 C   0  0  0  0  0  3  0  0  0  0  0  0
  180.6980  178.5040  141.0780 C   0  0  0  0  0  3  0  0  0  0  0  0
  179.8750  177.2740  137.8050 C   0  0  2  0  0  3  0  0  0  0  0  0
  179.8240  174.9410  137.3100 O   0  0  0  0  0  1  0  0  0  0  0  0
  179.6710  176.1130  136.8790 C   0  0  0  0  0  0  0  0  0  0  0  0
  179.3280  176.3170  135.5480 O   0  0  0  0  0  0  0  0  0  0  0  0
  180.6580  178.4480  137.1880 C   0  0  2  0  0  3  0  0  0  0  0  0
  182.1350  178.2580  137.3240 C   0  0  0  0  0  0  0  0  0  0  0  0
  182.7100  177.2720  136.7910 O   0  0  0  0  0  0  0  0  0  0  0  0
  182.8790  179.1810  138.0450 O   0  0  0  0  0  1  0  0  0  0  0  0
  180.2350  179.8280  137.6960 C   0  0  0  0  0  2  0  0  0  0  0  0
  181.2970  182.0940  137.9010 C   0  0  0  0  0  1  0  0  0  0  0  0
  180.9640  180.9430  136.9560 C   0  0  2  0  0  3  0  0  0  0  0  0
  179.7490  182.8570  135.8700 C   0  0  0  0  0  1  0  0  0  0  0  0
  180.1580  181.4020  135.7350 C   0  0  0  0  0  3  0  0  0  0  0  0
  178.9310  180.5400  135.4780 C   0  0  0  0  0  1  0  0  0  0  0  0
  185.6910  178.9380  145.3540 C   0  0  1  0  0  3  0  0  0  0  0  0
  183.7960  178.6110  146.5960 O   0  0  0  0  0  0  0  0  0  0  0  0
  184.3780  179.3080  145.8210 N   0  0  0  0  0  0  0  0  0  0  0  0
  186.2850  177.4790  146.2690 S   0  0  0  0  0  0  0  0  0  0  0  0
  187.2360  178.4760  147.4590 C   0  0  0  0  0  2  0  0  0  0  0  0
  188.2100  177.6140  148.2550 C   0  0  0  0  0  2  0  0  0  0  0  0
  189.5890  178.0600  148.0530 N   0  0  0  0  0  2  0  0  0  0  0  0
  191.6670  177.0260  147.6160 O   0  0  0  0  0  1  0  0  0  0  0  0
  190.3330  177.1190  147.2090 C   0  0  2  0  0  3  0  0  0  0  0  0
  190.9360  176.8150  142.4470 C   0  0  0  0  0  3  0  0  0  0  0  0
  190.0290  176.3290  143.5400 C   0  0  0  0  0  2  0  0  0  0  0  0
  191.6430  178.5840  143.9910 C   0  0  0  0  0  2  0  0  0  0  0  0
  190.2440  177.4860  145.7350 C   0  0  2  0  0  3  0  0  0  0  0  0
  191.7030  177.8880  142.6610 C   0  0  0  0  0  3  0  0  0  0  0  0
  190.7520  176.3290  144.8940 C   0  0  2  0  0  3  0  0  0  0  0  0
  191.6380  177.5680  145.1440 C   0  0  1  0  0  3  0  0  0  0  0  0
  1  9  1  0  0  0  0
  2 10  1  0  0  0  0
  2  7  1  0  0  0  0
  3  8  2  0  0  0  0
  4  6  1  0  0  0  0
  4  1  2  0  0  0  0
  5  8  1  0  0  0  0
  6  2  2  0  0  0  0
  7  3  1  0  0  0  0
  8 44  1  0  0  0  0
  9  7  2  0  0  0  0
 10  5  2  0  0  0  0
 12 20  1  0  0  0  0
 13 19  2  0  0  0  0
 13 21  1  0  0  0  0
 14 11  1  0  0  0  0
 14 16  1  0  0  0  0
 15 23  1  0  0  0  0
 15 20  1  0  0  0  0
 16 15  2  0  0  0  0
 17 12  1  0  0  0  0
 18 21  1  0  0  0  0
 18 17  1  0  0  0  0
 19 22  1  0  0  0  0
 20  4  1  1  0  0  0
 21 14  2  0  0  0  0
 22 11  2  0  0  0  0
 24 23  1  0  0  0  0
 26 10  1  0  0  0  0
 26 25  2  0  0  0  0
 27 29  2  0  0  0  0
 28 27  2  0  0  0  0
 29 25  1  0  0  0  0
 30 28  1  1  0  0  0
 32 31  1  0  0  0  0
 32 30  1  0  0  0  0
 33 32  2  0  0  0  0
 34 35  1  0  0  0  0
 34 38  1  1  0  0  0
 34 30  1  0  0  0  0
 35 37  1  0  0  0  0
 36 35  2  0  0  0  0
 40 38  1  0  0  0  0
 40 39  1  1  0  0  0
 42 41  1  0  0  0  0
 42 40  1  0  0  0  0
 43 42  1  0  0  0  0
 44 46  1  1  0  0  0
 44 47  1  0  0  0  0
 46 45  2  0  0  0  0
 47 48  1  0  0  0  0
 48 49  1  0  0  0  0
 50 49  1  0  0  0  0
 52 51  1  1  0  0  0
 52 50  1  0  0  0  0
 53 57  2  0  0  0  0
 53 54  1  0  0  0  0
 56 52  1  1  0  0  0
 57 55  1  0  0  0  0
 58 54  1  6  0  0  0
 58 59  1  0  0  0  0
 58 56  1  0  0  0  0
 59 55  1  6  0  0  0
 59 56  1  0  0  0  0
M  END
>  <MODEL>
9

>  <REMARK>
 VINA RESULT:      -6.5      4.607     10.667
  Name = 
  19 active torsions:
  status: ('A' for Active; 'I' for Inactive)
    1  A    between atoms: C_4  and  C_53
    2  A    between atoms: C_6  and  C_37
    3  A    between atoms: N_8  and  C_43
    4  A    between atoms: N_8  and  C_58
    5  A    between atoms: C_9  and  C_32
    6  A    between atoms: C_9  and  C_53
    7  A    between atoms: C_14  and  O_18
    8  A    between atoms: C_16  and  C_46
    9  A    between atoms: C_17  and  C_54
   10  A    between atoms: S_21  and  C_28
   11  A    between atoms: S_21  and  C_31
   12  A    between atoms: C_27  and  C_58
   13  A    between atoms: C_28  and  C_35
   14  A    between atoms: C_28  and  N_36
   15  A    between atoms: C_31  and  C_43
   16  A    between atoms: C_32  and  C_52
   17  A    between atoms: C_34  and  C_37
   18  A    between atoms: C_37  and  C_53
   19  A    between atoms: C_42  and  C_59
                            x       y       z     vdW  Elec       q    Type
                         _______ _______ _______ _____ _____    ______ ____

>  <TORSDO>
F 19

$$$$
