=
 OpenBabel10222417293D

 44 50  0  0  1  0  0  0  0  0999 V2000
  186.1430  177.1260  144.2400 C   0  0  0  0  0  2  0  0  0  0  0  0
  186.5640  178.2100  146.9030 O   0  0  0  0  0  0  0  0  0  0  0  0
  188.9400  177.8460  146.7170 C   0  0  0  0  0  0  0  0  0  0  0  0
  185.3820  178.4310  144.1170 C   0  0  2  0  0  3  0  0  0  0  0  0
  187.6650  177.8000  146.1420 C   0  0  0  0  0  0  0  0  0  0  0  0
  184.6870  178.7210  145.4390 C   0  0  0  0  0  2  0  0  0  0  0  0
  190.0580  177.4830  145.9730 C   0  0  0  0  0  3  0  0  0  0  0  0
  189.1300  178.3100  148.1200 C   0  0  0  0  0  1  0  0  0  0  0  0
  187.5140  177.3330  144.8180 C   0  0  0  0  0  0  0  0  0  0  0  0
  189.9440  177.0500  144.6470 C   0  0  0  0  0  0  0  0  0  0  0  0
  185.6770  179.2360  146.4700 C   0  0  0  0  0  2  0  0  0  0  0  0
  188.6530  176.9640  144.0640 C   0  0  0  0  0  0  0  0  0  0  0  0
  191.5420  175.4870  143.7800 O   0  0  0  0  0  1  0  0  0  0  0  0
  191.1990  176.6880  143.9410 C   0  0  0  0  0  0  0  0  0  0  0  0
  192.0250  177.6890  143.4420 O   0  0  0  0  0  0  0  0  0  0  0  0
  184.3540  178.2890  143.0080 C   0  0  0  0  0  2  0  0  0  0  0  0
  184.8910  178.8000  141.7080 C   0  0  0  0  0  0  0  0  0  0  0  0
  184.3230  178.3760  140.4700 N   0  0  0  0  0  2  0  0  0  0  0  0
  185.8400  179.6260  141.7080 O   0  0  0  0  0  0  0  0  0  0  0  0
  183.2940  177.4260  140.4370 N   0  0  0  0  0  2  0  0  0  0  0  0
  182.9890  177.1750  139.0340 C   0  0  2  0  0  3  0  0  0  0  0  0
  181.5910  177.7230  138.7160 C   0  0  1  0  0  3  0  0  0  0  0  0
  180.9820  180.3360  139.8180 N   0  0  0  0  0  2  0  0  0  0  0  0
  180.8110  177.9340  139.9910 C   0  0  0  0  0  3  0  0  0  0  0  0
  181.8210  180.3030  138.6260 C   0  0  0  0  0  2  0  0  0  0  0  0
  181.6510  178.9980  137.9150 C   0  0  0  0  0  0  0  0  0  0  0  0
  180.5530  179.1460  140.4930 C   0  0  0  0  0  3  0  0  0  0  0  0
  181.6140  178.9630  136.6960 O   0  0  0  0  0  0  0  0  0  0  0  0
  183.9640  175.5280  137.6380 C   0  0  2  0  0  3  0  0  0  0  0  0
  182.5170  175.5100  137.4250 C   0  0  2  0  0  3  0  0  0  0  0  0
  183.3380  173.2620  137.0440 C   0  0  0  0  0  2  0  0  0  0  0  0
  184.4530  174.0910  137.6320 C   0  0  0  0  0  2  0  0  0  0  0  0
  183.0540  175.7380  138.7790 N   0  0  0  0  0  0  0  0  0  0  0  0
  182.0830  174.0620  137.2920 C   0  0  0  0  0  2  0  0  0  0  0  0
  188.4660  176.5040  142.6480 C   0  0  0  0  0  2  0  0  0  0  0  0
  188.7700  177.6430  141.6890 C   0  0  0  0  0  2  0  0  0  0  0  0
  190.1230  177.5340  139.6300 C   0  0  0  0  0  0  0  0  0  0  0  0
  189.9980  178.5540  138.6840 O   0  0  0  0  0  0  0  0  0  0  0  0
  190.9300  176.3680  139.1090 C   0  0  0  0  0  2  0  0  0  0  0  0
  187.9030  177.9220  139.4000 C   0  0  0  0  0  2  0  0  0  0  0  0
  188.7040  178.9800  138.7830 N   0  0  0  0  0  0  0  0  0  0  0  0
  191.4870  177.2530  140.2200 C   0  0  0  0  0  2  0  0  0  0  0  0
  188.8360  177.1250  140.2620 C   0  0  2  0  0  3  0  0  0  0  0  0
  188.1080  179.1850  137.1610 Cl  0  0  0  0  0  0  0  0  0  0  0  0
  1  9  1  0  0  0  0
  3  8  1  0  0  0  0
  4 16  1  6  0  0  0
  4  1  1  0  0  0  0
  4  6  1  0  0  0  0
  5  3  1  0  0  0  0
  5  2  1  0  0  0  0
  6 11  1  0  0  0  0
  7  3  2  0  0  0  0
  9  5  2  0  0  0  0
 10  7  1  0  0  0  0
 11  2  1  0  0  0  0
 12 10  2  0  0  0  0
 12  9  1  0  0  0  0
 13 14  1  0  0  0  0
 14 10  1  0  0  0  0
 15 14  2  0  0  0  0
 17 16  1  0  0  0  0
 18 17  1  0  0  0  0
 19 17  2  0  0  0  0
 20 18  1  0  0  0  0
 21 20  1  1  0  0  0
 22 21  1  1  0  0  0
 22 24  1  0  0  0  0
 23 27  1  0  0  0  0
 24 27  2  0  0  0  0
 25 23  1  0  0  0  0
 26 25  1  0  0  0  0
 26 22  1  0  0  0  0
 28 26  2  0  0  0  0
 29 32  1  1  0  0  0
 29 33  1  0  0  0  0
 30 34  1  1  0  0  0
 30 29  1  0  0  0  0
 30 33  1  0  0  0  0
 31 34  1  0  0  0  0
 31 32  1  0  0  0  0
 33 21  1  0  0  0  0
 35 12  1  0  0  0  0
 36 35  1  0  0  0  0
 37 42  1  0  0  0  0
 37 43  1  0  0  0  0
 38 41  1  0  0  0  0
 38 37  1  0  0  0  0
 39 37  1  0  0  0  0
 39 42  1  0  0  0  0
 40 43  1  0  0  0  0
 41 40  1  0  0  0  0
 43 36  1  1  0  0  0
 44 41  1  0  0  0  0
M  END
>  <MODEL>
1

>  <REMARK>
 VINA RESULT:     -10.0      0.000      0.000
  Name = 
  10 active torsions:
  status: ('A' for Active; 'I' for Inactive)
    1  A    between atoms: C_1  and  C_8
    2  A    between atoms: C_1  and  C_16
    3  A    between atoms: C_3  and  C_37
    4  A    between atoms: C_4  and  C_43
    5  A    between atoms: N_10  and  N_41
    6  A    between atoms: C_15  and  C_22
    7  A    between atoms: C_15  and  C_44
    8  A    between atoms: C_22  and  C_35
    9  A    between atoms: N_36  and  C_43
   10  A    between atoms: N_41  and  C_43
                            x       y       z     vdW  Elec       q    Type
                         _______ _______ _______ _____ _____    ______ ____

>  <TORSDO>
F 10

$$$$
=
 OpenBabel10222417293D

 44 50  0  0  1  0  0  0  0  0999 V2000
  186.2500  177.0830  144.2050 C   0  0  0  0  0  2  0  0  0  0  0  0
  186.6130  178.2010  146.8630 O   0  0  0  0  0  0  0  0  0  0  0  0
  188.9950  177.8520  146.7260 C   0  0  0  0  0  0  0  0  0  0  0  0
  185.4830  178.3810  144.0530 C   0  0  2  0  0  3  0  0  0  0  0  0
  187.7310  177.7900  146.1270 C   0  0  0  0  0  0  0  0  0  0  0  0
  184.7600  178.6810  145.3570 C   0  0  0  0  0  2  0  0  0  0  0  0
  190.1290  177.4890  146.0070 C   0  0  0  0  0  3  0  0  0  0  0  0
  189.1550  178.3340  148.1260 C   0  0  0  0  0  1  0  0  0  0  0  0
  187.6090  177.3070  144.8070 C   0  0  0  0  0  0  0  0  0  0  0  0
  190.0430  177.0390  144.6850 C   0  0  0  0  0  0  0  0  0  0  0  0
  185.7260  179.2150  146.4000 C   0  0  0  0  0  2  0  0  0  0  0  0
  188.7640  176.9370  144.0790 C   0  0  0  0  0  0  0  0  0  0  0  0
  192.0320  177.5460  143.4460 O   0  0  0  0  0  0  0  0  0  0  0  0
  191.3140  176.6780  144.0060 C   0  0  0  0  0  0  0  0  0  0  0  0
  191.7300  175.3520  143.9800 O   0  0  0  0  0  1  0  0  0  0  0  0
  184.4770  178.2180  142.9260 C   0  0  0  0  0  2  0  0  0  0  0  0
  184.9760  178.8470  141.6640 C   0  0  0  0  0  0  0  0  0  0  0  0
  184.3570  178.5570  140.4120 N   0  0  0  0  0  2  0  0  0  0  0  0
  185.9390  179.6570  141.7100 O   0  0  0  0  0  0  0  0  0  0  0  0
  183.3110  177.6290  140.3230 N   0  0  0  0  0  2  0  0  0  0  0  0
  182.1810  178.3160  139.7110 C   0  0  2  0  0  3  0  0  0  0  0  0
  182.6520  179.0190  138.4300 C   0  0  1  0  0  3  0  0  0  0  0  0
  180.6830  179.2280  136.3110 N   0  0  0  0  0  2  0  0  0  0  0  0
  182.5780  178.0710  137.2580 C   0  0  0  0  0  3  0  0  0  0  0  0
  180.5620  180.1710  137.4190 C   0  0  0  0  0  2  0  0  0  0  0  0
  181.8630  180.2720  138.1490 C   0  0  0  0  0  0  0  0  0  0  0  0
  181.6530  178.1740  136.2980 C   0  0  0  0  0  3  0  0  0  0  0  0
  182.2550  181.3520  138.5590 O   0  0  0  0  0  0  0  0  0  0  0  0
  181.0430  178.5210  141.7790 C   0  0  2  0  0  3  0  0  0  0  0  0
  180.1790  179.0550  140.7260 C   0  0  2  0  0  3  0  0  0  0  0  0
  179.6780  180.2650  142.7650 C   0  0  0  0  0  2  0  0  0  0  0  0
  180.9070  179.4210  142.9940 C   0  0  0  0  0  2  0  0  0  0  0  0
  181.6350  179.2810  140.6620 N   0  0  0  0  0  0  0  0  0  0  0  0
  179.4990  180.2980  141.2670 C   0  0  0  0  0  2  0  0  0  0  0  0
  188.6070  176.4590  142.6640 C   0  0  0  0  0  2  0  0  0  0  0  0
  188.8400  177.6110  141.7010 C   0  0  0  0  0  2  0  0  0  0  0  0
  190.1430  177.5110  139.6090 C   0  0  0  0  0  0  0  0  0  0  0  0
  189.9960  178.5350  138.6700 O   0  0  0  0  0  0  0  0  0  0  0  0
  190.9380  176.3480  139.0630 C   0  0  0  0  0  2  0  0  0  0  0  0
  187.9180  177.8990  139.4340 C   0  0  0  0  0  2  0  0  0  0  0  0
  188.7040  178.9610  138.8020 N   0  0  0  0  0  0  0  0  0  0  0  0
  191.5210  177.2270  140.1640 C   0  0  0  0  0  2  0  0  0  0  0  0
  188.8720  177.0990  140.2690 C   0  0  2  0  0  3  0  0  0  0  0  0
  188.0700  179.1730  137.1960 Cl  0  0  0  0  0  0  0  0  0  0  0  0
  1  9  1  0  0  0  0
  3  8  1  0  0  0  0
  4 16  1  6  0  0  0
  4  1  1  0  0  0  0
  4  6  1  0  0  0  0
  5  3  1  0  0  0  0
  5  2  1  0  0  0  0
  6 11  1  0  0  0  0
  7  3  2  0  0  0  0
  9  5  2  0  0  0  0
 10  7  1  0  0  0  0
 11  2  1  0  0  0  0
 12 10  2  0  0  0  0
 12  9  1  0  0  0  0
 13 14  2  0  0  0  0
 14 10  1  0  0  0  0
 15 14  1  0  0  0  0
 17 19  2  0  0  0  0
 17 16  1  0  0  0  0
 18 17  1  0  0  0  0
 20 18  1  0  0  0  0
 21 20  1  1  0  0  0
 21 33  1  0  0  0  0
 22 21  1  1  0  0  0
 23 25  1  0  0  0  0
 24 22  1  0  0  0  0
 25 26  1  0  0  0  0
 26 22  1  0  0  0  0
 26 28  2  0  0  0  0
 27 23  1  0  0  0  0
 27 24  2  0  0  0  0
 29 32  1  1  0  0  0
 30 34  1  1  0  0  0
 30 29  1  0  0  0  0
 31 32  1  0  0  0  0
 33 30  1  0  0  0  0
 33 29  1  0  0  0  0
 34 31  1  0  0  0  0
 35 12  1  0  0  0  0
 36 35  1  0  0  0  0
 37 42  1  0  0  0  0
 37 43  1  0  0  0  0
 38 41  1  0  0  0  0
 38 37  1  0  0  0  0
 39 37  1  0  0  0  0
 39 42  1  0  0  0  0
 40 43  1  0  0  0  0
 41 40  1  0  0  0  0
 43 36  1  1  0  0  0
 44 41  1  0  0  0  0
M  END
>  <MODEL>
2

>  <REMARK>
 VINA RESULT:      -9.9      1.514      2.948
  Name = 
  10 active torsions:
  status: ('A' for Active; 'I' for Inactive)
    1  A    between atoms: C_1  and  C_8
    2  A    between atoms: C_1  and  C_16
    3  A    between atoms: C_3  and  C_37
    4  A    between atoms: C_4  and  C_43
    5  A    between atoms: N_10  and  N_41
    6  A    between atoms: C_15  and  C_22
    7  A    between atoms: C_15  and  C_44
    8  A    between atoms: C_22  and  C_35
    9  A    between atoms: N_36  and  C_43
   10  A    between atoms: N_41  and  C_43
                            x       y       z     vdW  Elec       q    Type
                         _______ _______ _______ _____ _____    ______ ____

>  <TORSDO>
F 10

$$$$
=
 OpenBabel10222417293D

 44 50  0  0  1  0  0  0  0  0999 V2000
  185.9670  177.7260  143.5300 C   0  0  0  0  0  2  0  0  0  0  0  0
  186.0080  177.4320  146.4210 O   0  0  0  0  0  0  0  0  0  0  0  0
  188.4180  177.5050  146.4320 C   0  0  0  0  0  0  0  0  0  0  0  0
  184.9950  178.8210  143.9210 C   0  0  2  0  0  3  0  0  0  0  0  0
  187.2140  177.5830  145.7240 C   0  0  0  0  0  0  0  0  0  0  0  0
  184.1720  178.3460  145.1090 C   0  0  0  0  0  2  0  0  0  0  0  0
  189.6300  177.6910  145.7750 C   0  0  0  0  0  3  0  0  0  0  0  0
  188.4280  177.2540  147.9010 C   0  0  0  0  0  1  0  0  0  0  0  0
  187.2380  177.7990  144.3300 C   0  0  0  0  0  0  0  0  0  0  0  0
  189.6840  177.9410  144.4000 C   0  0  0  0  0  0  0  0  0  0  0  0
  184.9820  178.4190  146.3920 C   0  0  0  0  0  2  0  0  0  0  0  0
  188.4720  177.9860  143.6640 C   0  0  0  0  0  0  0  0  0  0  0  0
  191.5070  179.2720  143.5910 O   0  0  0  0  0  1  0  0  0  0  0  0
  191.0280  178.1260  143.7950 C   0  0  0  0  0  0  0  0  0  0  0  0
  191.7850  177.0150  143.4400 O   0  0  0  0  0  0  0  0  0  0  0  0
  184.0850  179.1040  142.7370 C   0  0  0  0  0  2  0  0  0  0  0  0
  184.8470  179.0600  141.4510 C   0  0  0  0  0  0  0  0  0  0  0  0
  184.4320  178.2030  140.3890 N   0  0  0  0  0  2  0  0  0  0  0  0
  185.8520  179.8010  141.2970 O   0  0  0  0  0  0  0  0  0  0  0  0
  183.3420  177.3370  140.5460 N   0  0  0  0  0  2  0  0  0  0  0  0
  182.7900  177.0980  139.2180 C   0  0  2  0  0  3  0  0  0  0  0  0
  181.3130  177.5180  139.2040 C   0  0  1  0  0  3  0  0  0  0  0  0
  180.6970  180.0060  140.5620 N   0  0  0  0  0  2  0  0  0  0  0  0
  180.7790  177.5930  140.6130 C   0  0  0  0  0  3  0  0  0  0  0  0
  181.2910  180.1100  139.2330 C   0  0  0  0  0  2  0  0  0  0  0  0
  181.1040  178.8270  138.4870 C   0  0  0  0  0  0  0  0  0  0  0  0
  180.5150  178.7510  141.2290 C   0  0  0  0  0  3  0  0  0  0  0  0
  180.8370  178.8430  137.2960 O   0  0  0  0  0  0  0  0  0  0  0  0
  183.7950  175.5860  137.6970 C   0  0  2  0  0  3  0  0  0  0  0  0
  182.3440  175.4860  137.5500 C   0  0  2  0  0  3  0  0  0  0  0  0
  183.2830  173.3160  137.0180 C   0  0  0  0  0  2  0  0  0  0  0  0
  184.3720  174.1850  137.5960 C   0  0  0  0  0  2  0  0  0  0  0  0
  182.9310  175.6830  138.8880 N   0  0  0  0  0  0  0  0  0  0  0  0
  181.9940  174.0220  137.3620 C   0  0  0  0  0  2  0  0  0  0  0  0
  188.4650  178.2480  142.1860 C   0  0  0  0  0  2  0  0  0  0  0  0
  189.0820  177.0710  141.4490 C   0  0  0  0  0  2  0  0  0  0  0  0
  189.1420  177.3780  139.0030 C   0  0  0  0  0  0  0  0  0  0  0  0
  189.6080  176.3340  138.2010 O   0  0  0  0  0  0  0  0  0  0  0  0
  188.9610  178.6580  138.2210 C   0  0  0  0  0  2  0  0  0  0  0  0
  191.0190  176.5950  140.0020 C   0  0  0  0  0  2  0  0  0  0  0  0
  190.5400  175.6840  138.9610 N   0  0  0  0  0  0  0  0  0  0  0  0
  187.7470  177.9110  138.7640 C   0  0  0  0  0  2  0  0  0  0  0  0
  189.9060  177.5630  140.2700 C   0  0  2  0  0  3  0  0  0  0  0  0
  191.8950  175.3430  137.9250 Cl  0  0  0  0  0  0  0  0  0  0  0  0
  1  4  1  0  0  0  0
  1  9  1  0  0  0  0
  3  8  1  0  0  0  0
  4 16  1  6  0  0  0
  4  6  1  0  0  0  0
  5  2  1  0  0  0  0
  5  3  2  0  0  0  0
  6 11  1  0  0  0  0
  7  3  1  0  0  0  0
  9  5  1  0  0  0  0
 10  7  2  0  0  0  0
 11  2  1  0  0  0  0
 12  9  2  0  0  0  0
 12 10  1  0  0  0  0
 13 14  1  0  0  0  0
 14 10  1  0  0  0  0
 15 14  2  0  0  0  0
 17 16  1  0  0  0  0
 18 20  1  0  0  0  0
 18 17  1  0  0  0  0
 19 17  2  0  0  0  0
 21 20  1  1  0  0  0
 22 21  1  1  0  0  0
 22 24  1  0  0  0  0
 23 27  1  0  0  0  0
 24 27  2  0  0  0  0
 25 23  1  0  0  0  0
 26 22  1  0  0  0  0
 26 25  1  0  0  0  0
 28 26  2  0  0  0  0
 29 32  1  1  0  0  0
 29 33  1  0  0  0  0
 30 34  1  1  0  0  0
 30 29  1  0  0  0  0
 30 33  1  0  0  0  0
 31 34  1  0  0  0  0
 31 32  1  0  0  0  0
 33 21  1  0  0  0  0
 35 12  1  0  0  0  0
 36 35  1  0  0  0  0
 37 43  1  0  0  0  0
 38 41  1  0  0  0  0
 38 37  1  0  0  0  0
 39 42  1  0  0  0  0
 39 37  1  0  0  0  0
 40 43  1  0  0  0  0
 41 40  1  0  0  0  0
 42 37  1  0  0  0  0
 43 36  1  1  0  0  0
 44 41  1  0  0  0  0
M  END
>  <MODEL>
3

>  <REMARK>
 VINA RESULT:      -9.3      1.327      1.696
  Name = 
  10 active torsions:
  status: ('A' for Active; 'I' for Inactive)
    1  A    between atoms: C_1  and  C_8
    2  A    between atoms: C_1  and  C_16
    3  A    between atoms: C_3  and  C_37
    4  A    between atoms: C_4  and  C_43
    5  A    between atoms: N_10  and  N_41
    6  A    between atoms: C_15  and  C_22
    7  A    between atoms: C_15  and  C_44
    8  A    between atoms: C_22  and  C_35
    9  A    between atoms: N_36  and  C_43
   10  A    between atoms: N_41  and  C_43
                            x       y       z     vdW  Elec       q    Type
                         _______ _______ _______ _____ _____    ______ ____

>  <TORSDO>
F 10

$$$$
=
 OpenBabel10222417293D

 44 50  0  0  1  0  0  0  0  0999 V2000
  186.2740  176.9840  144.0700 C   0  0  0  0  0  2  0  0  0  0  0  0
  186.5210  178.1340  146.7270 O   0  0  0  0  0  0  0  0  0  0  0  0
  188.9150  177.8470  146.6710 C   0  0  0  0  0  0  0  0  0  0  0  0
  185.4790  178.2600  143.8800 C   0  0  2  0  0  3  0  0  0  0  0  0
  187.6730  177.7460  146.0320 C   0  0  0  0  0  0  0  0  0  0  0  0
  184.7070  178.5520  145.1580 C   0  0  0  0  0  2  0  0  0  0  0  0
  190.0810  177.5070  145.9920 C   0  0  0  0  0  3  0  0  0  0  0  0
  189.0160  178.3450  148.0710 C   0  0  0  0  0  1  0  0  0  0  0  0
  187.6060  177.2480  144.7130 C   0  0  0  0  0  0  0  0  0  0  0  0
  190.0490  177.0440  144.6730 C   0  0  0  0  0  0  0  0  0  0  0  0
  185.6240  179.1200  146.2270 C   0  0  0  0  0  2  0  0  0  0  0  0
  188.7940  176.9030  144.0260 C   0  0  0  0  0  0  0  0  0  0  0  0
  191.8350  175.5500  144.0990 O   0  0  0  0  0  1  0  0  0  0  0  0
  191.3500  176.7100  144.0390 C   0  0  0  0  0  0  0  0  0  0  0  0
  192.0620  177.6940  143.3620 O   0  0  0  0  0  0  0  0  0  0  0  0
  184.5150  178.0610  142.7230 C   0  0  0  0  0  2  0  0  0  0  0  0
  184.8870  178.9230  141.5590 C   0  0  0  0  0  0  0  0  0  0  0  0
  184.4460  178.5960  140.2420 N   0  0  0  0  0  2  0  0  0  0  0  0
  185.5790  179.9570  141.7460 O   0  0  0  0  0  0  0  0  0  0  0  0
  183.7100  177.4300  139.9960 N   0  0  0  0  0  2  0  0  0  0  0  0
  182.6010  177.7980  139.1270 C   0  0  2  0  0  3  0  0  0  0  0  0
  183.0030  177.5500  137.6660 C   0  0  1  0  0  3  0  0  0  0  0  0
  184.4500  175.0890  137.1580 N   0  0  0  0  0  2  0  0  0  0  0  0
  184.5050  177.4710  137.5440 C   0  0  0  0  0  3  0  0  0  0  0  0
  183.0060  174.9790  137.3370 C   0  0  0  0  0  2  0  0  0  0  0  0
  182.3590  176.3080  137.1050 C   0  0  0  0  0  0  0  0  0  0  0  0
  185.1570  176.3250  137.3250 C   0  0  0  0  0  3  0  0  0  0  0  0
  181.2940  176.3780  136.5140 O   0  0  0  0  0  0  0  0  0  0  0  0
  180.8000  179.3140  139.3940 C   0  0  2  0  0  3  0  0  0  0  0  0
  181.5110  179.6600  138.1630 C   0  0  2  0  0  3  0  0  0  0  0  0
  180.5690  181.7040  139.0620 C   0  0  0  0  0  2  0  0  0  0  0  0
  180.4080  180.6080  140.0850 C   0  0  0  0  0  2  0  0  0  0  0  0
  182.2700  179.2050  139.3420 N   0  0  0  0  0  0  0  0  0  0  0  0
  181.5780  181.1730  138.0740 C   0  0  0  0  0  2  0  0  0  0  0  0
  188.6960  176.4090  142.6120 C   0  0  0  0  0  2  0  0  0  0  0  0
  188.8220  177.5750  141.6470 C   0  0  0  0  0  2  0  0  0  0  0  0
  190.1080  177.4970  139.5440 C   0  0  0  0  0  0  0  0  0  0  0  0
  189.9430  178.5230  138.6100 O   0  0  0  0  0  0  0  0  0  0  0  0
  190.9080  176.3430  138.9860 C   0  0  0  0  0  2  0  0  0  0  0  0
  187.8780  177.8650  139.3890 C   0  0  0  0  0  2  0  0  0  0  0  0
  188.6480  178.9360  138.7560 N   0  0  0  0  0  0  0  0  0  0  0  0
  191.4930  177.2240  140.0850 C   0  0  0  0  0  2  0  0  0  0  0  0
  188.8460  177.0700  140.2130 C   0  0  2  0  0  3  0  0  0  0  0  0
  187.9980  179.1490  137.1560 Cl  0  0  0  0  0  0  0  0  0  0  0  0
  1  9  1  0  0  0  0
  3  8  1  0  0  0  0
  4 16  1  6  0  0  0
  4  1  1  0  0  0  0
  4  6  1  0  0  0  0
  5  3  1  0  0  0  0
  5  2  1  0  0  0  0
  6 11  1  0  0  0  0
  7  3  2  0  0  0  0
  9  5  2  0  0  0  0
 10  7  1  0  0  0  0
 11  2  1  0  0  0  0
 12 10  2  0  0  0  0
 12  9  1  0  0  0  0
 14 13  1  0  0  0  0
 14 10  1  0  0  0  0
 15 14  2  0  0  0  0
 17 19  2  0  0  0  0
 17 16  1  0  0  0  0
 18 17  1  0  0  0  0
 20 18  1  0  0  0  0
 21 33  1  0  0  0  0
 21 20  1  1  0  0  0
 22 21  1  1  0  0  0
 23 27  1  0  0  0  0
 23 25  1  0  0  0  0
 24 22  1  0  0  0  0
 26 25  1  0  0  0  0
 26 22  1  0  0  0  0
 27 24  2  0  0  0  0
 28 26  2  0  0  0  0
 29 32  1  1  0  0  0
 30 34  1  1  0  0  0
 30 33  1  0  0  0  0
 30 29  1  0  0  0  0
 31 32  1  0  0  0  0
 33 29  1  0  0  0  0
 34 31  1  0  0  0  0
 35 12  1  0  0  0  0
 36 35  1  0  0  0  0
 37 42  1  0  0  0  0
 37 43  1  0  0  0  0
 38 41  1  0  0  0  0
 38 37  1  0  0  0  0
 39 37  1  0  0  0  0
 39 42  1  0  0  0  0
 40 43  1  0  0  0  0
 41 40  1  0  0  0  0
 43 36  1  1  0  0  0
 44 41  1  0  0  0  0
M  END
>  <MODEL>
4

>  <REMARK>
 VINA RESULT:      -9.3      0.902      3.075
  Name = 
  10 active torsions:
  status: ('A' for Active; 'I' for Inactive)
    1  A    between atoms: C_1  and  C_8
    2  A    between atoms: C_1  and  C_16
    3  A    between atoms: C_3  and  C_37
    4  A    between atoms: C_4  and  C_43
    5  A    between atoms: N_10  and  N_41
    6  A    between atoms: C_15  and  C_22
    7  A    between atoms: C_15  and  C_44
    8  A    between atoms: C_22  and  C_35
    9  A    between atoms: N_36  and  C_43
   10  A    between atoms: N_41  and  C_43
                            x       y       z     vdW  Elec       q    Type
                         _______ _______ _______ _____ _____    ______ ____

>  <TORSDO>
F 10

$$$$
=
 OpenBabel10222417293D

 44 50  0  0  1  0  0  0  0  0999 V2000
  186.3490  177.1620  144.2850 C   0  0  0  0  0  2  0  0  0  0  0  0
  186.6300  178.2820  146.9520 O   0  0  0  0  0  0  0  0  0  0  0  0
  189.0000  177.8390  146.9300 C   0  0  0  0  0  0  0  0  0  0  0  0
  185.6420  178.4880  144.0910 C   0  0  2  0  0  3  0  0  0  0  0  0
  187.7650  177.8220  146.2720 C   0  0  0  0  0  0  0  0  0  0  0  0
  184.8710  178.8250  145.3580 C   0  0  0  0  0  2  0  0  0  0  0  0
  190.1520  177.4270  146.2670 C   0  0  0  0  0  3  0  0  0  0  0  0
  189.1130  178.3230  148.3340 C   0  0  0  0  0  1  0  0  0  0  0  0
  187.6860  177.3360  144.9500 C   0  0  0  0  0  0  0  0  0  0  0  0
  190.1110  176.9730  144.9450 C   0  0  0  0  0  0  0  0  0  0  0  0
  185.8070  179.3270  146.4440 C   0  0  0  0  0  2  0  0  0  0  0  0
  188.8590  176.9170  144.2790 C   0  0  0  0  0  0  0  0  0  0  0  0
  191.9150  175.4370  144.5750 O   0  0  0  0  0  1  0  0  0  0  0  0
  191.3970  176.5580  144.3290 C   0  0  0  0  0  0  0  0  0  0  0  0
  192.0560  177.4190  143.4580 O   0  0  0  0  0  0  0  0  0  0  0  0
  184.6850  178.3580  142.9180 C   0  0  0  0  0  2  0  0  0  0  0  0
  183.2850  178.6880  143.3270 C   0  0  0  0  0  0  0  0  0  0  0  0
  182.2370  178.7380  142.3600 N   0  0  0  0  0  2  0  0  0  0  0  0
  183.0250  178.9050  144.5390 O   0  0  0  0  0  0  0  0  0  0  0  0
  182.5030  178.5420  140.9980 N   0  0  0  0  0  2  0  0  0  0  0  0
  181.2230  178.3060  140.3430 C   0  0  2  0  0  3  0  0  0  0  0  0
  181.0200  176.7940  140.1640 C   0  0  1  0  0  3  0  0  0  0  0  0
  179.6540  175.9860  137.7360 N   0  0  0  0  0  2  0  0  0  0  0  0
  179.5480  176.4700  140.0990 C   0  0  0  0  0  3  0  0  0  0  0  0
  181.0610  176.3500  137.6100 C   0  0  0  0  0  2  0  0  0  0  0  0
  181.7330  176.2680  138.9440 C   0  0  0  0  0  0  0  0  0  0  0  0
  178.9310  176.1130  138.9670 C   0  0  0  0  0  3  0  0  0  0  0  0
  182.8670  175.8280  139.0340 O   0  0  0  0  0  0  0  0  0  0  0  0
  181.0180  180.4260  139.3070 C   0  0  2  0  0  3  0  0  0  0  0  0
  179.8830  179.6020  138.8920 C   0  0  2  0  0  3  0  0  0  0  0  0
  180.3700  181.1410  137.0830 C   0  0  0  0  0  2  0  0  0  0  0  0
  181.4790  181.2270  138.1020 C   0  0  0  0  0  2  0  0  0  0  0  0
  181.2140  178.9870  139.0510 N   0  0  0  0  0  0  0  0  0  0  0  0
  179.6250  179.8730  137.4210 C   0  0  0  0  0  2  0  0  0  0  0  0
  188.7500  176.4370  142.8610 C   0  0  0  0  0  2  0  0  0  0  0  0
  188.9190  177.6050  141.9040 C   0  0  0  0  0  2  0  0  0  0  0  0
  190.1370  177.5370  139.7600 C   0  0  0  0  0  0  0  0  0  0  0  0
  189.9510  178.5740  138.8430 O   0  0  0  0  0  0  0  0  0  0  0  0
  190.9090  176.3820  139.1660 C   0  0  0  0  0  2  0  0  0  0  0  0
  187.9060  177.9260  139.6810 C   0  0  0  0  0  2  0  0  0  0  0  0
  188.6660  178.9970  139.0340 N   0  0  0  0  0  0  0  0  0  0  0  0
  191.5360  177.2460  140.2550 C   0  0  0  0  0  2  0  0  0  0  0  0
  188.8930  177.1140  140.4660 C   0  0  2  0  0  3  0  0  0  0  0  0
  187.9670  179.2320  137.4580 Cl  0  0  0  0  0  0  0  0  0  0  0  0
  1  9  1  0  0  0  0
  3  8  1  0  0  0  0
  4 16  1  6  0  0  0
  4  1  1  0  0  0  0
  4  6  1  0  0  0  0
  5  3  1  0  0  0  0
  5  2  1  0  0  0  0
  6 11  1  0  0  0  0
  7  3  2  0  0  0  0
  9  5  2  0  0  0  0
 10  7  1  0  0  0  0
 11  2  1  0  0  0  0
 12 10  2  0  0  0  0
 12  9  1  0  0  0  0
 14 13  1  0  0  0  0
 14 10  1  0  0  0  0
 15 14  2  0  0  0  0
 16 17  1  0  0  0  0
 17 19  2  0  0  0  0
 18 17  1  0  0  0  0
 20 18  1  0  0  0  0
 21 20  1  6  0  0  0
 22 21  1  6  0  0  0
 23 27  1  0  0  0  0
 24 22  1  0  0  0  0
 25 23  1  0  0  0  0
 25 26  1  0  0  0  0
 26 28  2  0  0  0  0
 26 22  1  0  0  0  0
 27 24  2  0  0  0  0
 29 32  1  6  0  0  0
 30 34  1  6  0  0  0
 30 33  1  0  0  0  0
 30 29  1  0  0  0  0
 31 34  1  0  0  0  0
 31 32  1  0  0  0  0
 33 29  1  0  0  0  0
 33 21  1  0  0  0  0
 35 12  1  0  0  0  0
 36 35  1  0  0  0  0
 37 42  1  0  0  0  0
 37 43  1  0  0  0  0
 38 41  1  0  0  0  0
 38 37  1  0  0  0  0
 39 37  1  0  0  0  0
 39 42  1  0  0  0  0
 40 43  1  0  0  0  0
 41 40  1  0  0  0  0
 43 36  1  1  0  0  0
 44 41  1  0  0  0  0
M  END
>  <MODEL>
5

>  <REMARK>
 VINA RESULT:      -7.8      1.620      2.920
  Name = 
  10 active torsions:
  status: ('A' for Active; 'I' for Inactive)
    1  A    between atoms: C_1  and  C_8
    2  A    between atoms: C_1  and  C_16
    3  A    between atoms: C_3  and  C_37
    4  A    between atoms: C_4  and  C_43
    5  A    between atoms: N_10  and  N_41
    6  A    between atoms: C_15  and  C_22
    7  A    between atoms: C_15  and  C_44
    8  A    between atoms: C_22  and  C_35
    9  A    between atoms: N_36  and  C_43
   10  A    between atoms: N_41  and  C_43
                            x       y       z     vdW  Elec       q    Type
                         _______ _______ _______ _____ _____    ______ ____

>  <TORSDO>
F 10

$$$$
=
 OpenBabel10222417293D

 44 50  0  0  1  0  0  0  0  0999 V2000
  186.3570  176.9890  143.7560 C   0  0  0  0  0  2  0  0  0  0  0  0
  186.2020  178.1380  146.4210 O   0  0  0  0  0  0  0  0  0  0  0  0
  188.5840  177.8900  146.7070 C   0  0  0  0  0  0  0  0  0  0  0  0
  185.5750  178.2530  143.4550 C   0  0  2  0  0  3  0  0  0  0  0  0
  187.4490  177.7700  145.8970 C   0  0  0  0  0  0  0  0  0  0  0  0
  184.6240  178.5290  144.6090 C   0  0  0  0  0  2  0  0  0  0  0  0
  189.8410  177.5710  146.2020 C   0  0  0  0  0  3  0  0  0  0  0  0
  188.4770  178.3870  148.1070 C   0  0  0  0  0  1  0  0  0  0  0  0
  187.5790  177.2750  144.5820 C   0  0  0  0  0  0  0  0  0  0  0  0
  190.0060  177.1110  144.8910 C   0  0  0  0  0  0  0  0  0  0  0  0
  185.3700  179.1100  145.7980 C   0  0  0  0  0  2  0  0  0  0  0  0
  188.8580  176.9500  144.0720 C   0  0  0  0  0  0  0  0  0  0  0  0
  192.0570  177.6080  143.7530 O   0  0  0  0  0  0  0  0  0  0  0  0
  191.3890  176.8000  144.4490 C   0  0  0  0  0  0  0  0  0  0  0  0
  191.9720  175.5890  144.8050 O   0  0  0  0  0  1  0  0  0  0  0  0
  184.7900  178.0410  142.1720 C   0  0  0  0  0  2  0  0  0  0  0  0
  183.4630  178.7280  142.2330 C   0  0  0  0  0  0  0  0  0  0  0  0
  182.9090  179.3460  141.0720 N   0  0  0  0  0  2  0  0  0  0  0  0
  182.8190  178.7440  143.3140 O   0  0  0  0  0  0  0  0  0  0  0  0
  183.6200  179.3810  139.8660 N   0  0  0  0  0  2  0  0  0  0  0  0
  182.6410  179.3080  138.7900 C   0  0  2  0  0  3  0  0  0  0  0  0
  181.4640  180.2400  139.1160 C   0  0  1  0  0  3  0  0  0  0  0  0
  179.7640  180.9520  136.8760 N   0  0  0  0  0  2  0  0  0  0  0  0
  181.5930  181.5300  138.3440 C   0  0  0  0  0  3  0  0  0  0  0  0
  179.5680  179.6280  137.4570 C   0  0  0  0  0  2  0  0  0  0  0  0
  180.1340  179.5880  138.8420 C   0  0  0  0  0  0  0  0  0  0  0  0
  180.8100  181.8350  137.3030 C   0  0  0  0  0  3  0  0  0  0  0  0
  179.5470  178.9880  139.7270 O   0  0  0  0  0  0  0  0  0  0  0  0
  183.3720  177.0900  138.3920 C   0  0  2  0  0  3  0  0  0  0  0  0
  182.5150  177.4960  137.2780 C   0  0  2  0  0  3  0  0  0  0  0  0
  182.2760  175.1000  137.5460 C   0  0  0  0  0  2  0  0  0  0  0  0
  183.0560  175.6420  138.7190 C   0  0  0  0  0  2  0  0  0  0  0  0
  182.1850  177.9270  138.6490 N   0  0  0  0  0  0  0  0  0  0  0  0
  181.6480  176.3100  136.9000 C   0  0  0  0  0  2  0  0  0  0  0  0
  188.9710  176.4580  142.6580 C   0  0  0  0  0  2  0  0  0  0  0  0
  188.8780  177.6280  141.6940 C   0  0  0  0  0  2  0  0  0  0  0  0
  190.1500  177.5400  139.5830 C   0  0  0  0  0  0  0  0  0  0  0  0
  189.9930  178.5720  138.6540 O   0  0  0  0  0  0  0  0  0  0  0  0
  190.9320  176.3780  139.0160 C   0  0  0  0  0  2  0  0  0  0  0  0
  187.9240  177.9380  139.4440 C   0  0  0  0  0  2  0  0  0  0  0  0
  188.7040  179.0010  138.8090 N   0  0  0  0  0  0  0  0  0  0  0  0
  191.5350  177.2470  140.1150 C   0  0  0  0  0  2  0  0  0  0  0  0
  188.8860  177.1280  140.2580 C   0  0  2  0  0  3  0  0  0  0  0  0
  188.0470  179.2290  137.2140 Cl  0  0  0  0  0  0  0  0  0  0  0  0
  1  9  1  0  0  0  0
  3  8  1  0  0  0  0
  4 16  1  6  0  0  0
  4  1  1  0  0  0  0
  4  6  1  0  0  0  0
  5  2  1  0  0  0  0
  5  3  2  0  0  0  0
  6 11  1  0  0  0  0
  7  3  1  0  0  0  0
  9  5  1  0  0  0  0
 10  7  2  0  0  0  0
 11  2  1  0  0  0  0
 12  9  2  0  0  0  0
 12 10  1  0  0  0  0
 13 14  2  0  0  0  0
 14 15  1  0  0  0  0
 14 10  1  0  0  0  0
 16 17  1  0  0  0  0
 17 19  2  0  0  0  0
 18 17  1  0  0  0  0
 20 18  1  0  0  0  0
 21 20  1  1  0  0  0
 22 21  1  6  0  0  0
 23 27  1  0  0  0  0
 23 25  1  0  0  0  0
 24 22  1  0  0  0  0
 25 26  1  0  0  0  0
 26 22  1  0  0  0  0
 26 28  2  0  0  0  0
 27 24  2  0  0  0  0
 29 33  1  0  0  0  0
 29 32  1  1  0  0  0
 30 34  1  1  0  0  0
 30 29  1  0  0  0  0
 30 33  1  0  0  0  0
 31 32  1  0  0  0  0
 33 21  1  0  0  0  0
 34 31  1  0  0  0  0
 35 12  1  0  0  0  0
 36 35  1  0  0  0  0
 37 42  1  0  0  0  0
 37 43  1  0  0  0  0
 38 41  1  0  0  0  0
 38 37  1  0  0  0  0
 39 37  1  0  0  0  0
 39 42  1  0  0  0  0
 40 43  1  0  0  0  0
 41 40  1  0  0  0  0
 43 36  1  1  0  0  0
 44 41  1  0  0  0  0
M  END
>  <MODEL>
6

>  <REMARK>
 VINA RESULT:      -7.7      1.335      1.824
  Name = 
  10 active torsions:
  status: ('A' for Active; 'I' for Inactive)
    1  A    between atoms: C_1  and  C_8
    2  A    between atoms: C_1  and  C_16
    3  A    between atoms: C_3  and  C_37
    4  A    between atoms: C_4  and  C_43
    5  A    between atoms: N_10  and  N_41
    6  A    between atoms: C_15  and  C_22
    7  A    between atoms: C_15  and  C_44
    8  A    between atoms: C_22  and  C_35
    9  A    between atoms: N_36  and  C_43
   10  A    between atoms: N_41  and  C_43
                            x       y       z     vdW  Elec       q    Type
                         _______ _______ _______ _____ _____    ______ ____

>  <TORSDO>
F 10

$$$$
=
 OpenBabel10222417293D

 44 50  0  0  1  0  0  0  0  0999 V2000
  187.8310  178.8420  140.8580 C   0  0  0  0  0  2  0  0  0  0  0  0
  189.4960  177.5110  142.8330 O   0  0  0  0  0  0  0  0  0  0  0  0
  187.6880  177.5350  144.4290 C   0  0  0  0  0  0  0  0  0  0  0  0
  188.3380  177.6760  140.0330 C   0  0  2  0  0  3  0  0  0  0  0  0
  188.1630  177.8120  143.1410 C   0  0  0  0  0  0  0  0  0  0  0  0
  189.7820  177.3930  140.4180 C   0  0  0  0  0  2  0  0  0  0  0  0
  186.3580  177.7850  144.7530 C   0  0  0  0  0  3  0  0  0  0  0  0
  188.5810  176.9440  145.4640 C   0  0  0  0  0  1  0  0  0  0  0  0
  187.2990  178.3930  142.1890 C   0  0  0  0  0  0  0  0  0  0  0  0
  185.4690  178.3290  143.8200 C   0  0  0  0  0  0  0  0  0  0  0  0
  189.8550  176.6620  141.7480 C   0  0  0  0  0  2  0  0  0  0  0  0
  185.9470  178.6470  142.5220 C   0  0  0  0  0  0  0  0  0  0  0  0
  183.0880  178.2440  143.5430 O   0  0  0  0  0  0  0  0  0  0  0  0
  184.0700  178.5550  144.2660 C   0  0  0  0  0  0  0  0  0  0  0  0
  183.8260  179.1260  145.5100 O   0  0  0  0  0  1  0  0  0  0  0  0
  188.2540  178.0500  138.5640 C   0  0  0  0  0  2  0  0  0  0  0  0
  187.0540  177.4330  137.9180 C   0  0  0  0  0  0  0  0  0  0  0  0
  187.1420  176.1530  137.2930 N   0  0  0  0  0  2  0  0  0  0  0  0
  185.9520  178.0390  137.9450 O   0  0  0  0  0  0  0  0  0  0  0  0
  188.3650  175.4740  137.2110 N   0  0  0  0  0  2  0  0  0  0  0  0
  188.0770  174.1360  136.7090 C   0  0  2  0  0  3  0  0  0  0  0  0
  188.7390  173.9610  135.3340 C   0  0  1  0  0  3  0  0  0  0  0  0
  191.5320  174.7260  135.1730 N   0  0  0  0  0  2  0  0  0  0  0  0
  189.2130  175.2940  134.8100 C   0  0  0  0  0  3  0  0  0  0  0  0
  191.2370  173.4360  135.7880 C   0  0  0  0  0  2  0  0  0  0  0  0
  189.8750  172.9720  135.3750 C   0  0  0  0  0  0  0  0  0  0  0  0
  190.5050  175.6360  134.7580 C   0  0  0  0  0  3  0  0  0  0  0  0
  189.6780  171.7950  135.1250 O   0  0  0  0  0  0  0  0  0  0  0  0
  186.2720  172.7810  137.4260 C   0  0  2  0  0  3  0  0  0  0  0  0
  186.3900  172.6550  135.9730 C   0  0  2  0  0  3  0  0  0  0  0  0
  184.0540  172.3540  136.5430 C   0  0  0  0  0  2  0  0  0  0  0  0
  184.7940  172.8290  137.7700 C   0  0  0  0  0  2  0  0  0  0  0  0
  186.6310  173.9600  136.6160 N   0  0  0  0  0  0  0  0  0  0  0  0
  184.9890  172.6290  135.3910 C   0  0  0  0  0  2  0  0  0  0  0  0
  185.0420  179.2340  141.4790 C   0  0  0  0  0  2  0  0  0  0  0  0
  184.4710  178.1280  140.6070 C   0  0  0  0  0  2  0  0  0  0  0  0
  182.4770  177.4060  139.3490 C   0  0  0  0  0  0  0  0  0  0  0  0
  182.1960  178.0080  138.1210 O   0  0  0  0  0  0  0  0  0  0  0  0
  181.3390  176.5370  139.8300 C   0  0  0  0  0  2  0  0  0  0  0  0
  182.7700  179.6320  139.6500 C   0  0  0  0  0  2  0  0  0  0  0  0
  182.6670  179.2870  138.2310 N   0  0  0  0  0  0  0  0  0  0  0  0
  182.6580  175.9050  139.3980 C   0  0  0  0  0  2  0  0  0  0  0  0
  182.9820  178.3460  140.3900 C   0  0  2  0  0  3  0  0  0  0  0  0
  181.4640  180.3360  137.5400 Cl  0  0  0  0  0  0  0  0  0  0  0  0
  1  9  1  0  0  0  0
  2  5  1  0  0  0  0
  3  7  1  0  0  0  0
  3  8  1  0  0  0  0
  4 16  1  6  0  0  0
  4  6  1  0  0  0  0
  4  1  1  0  0  0  0
  5  3  2  0  0  0  0
  6 11  1  0  0  0  0
  9 12  2  0  0  0  0
  9  5  1  0  0  0  0
 10 14  1  0  0  0  0
 10  7  2  0  0  0  0
 11  2  1  0  0  0  0
 12 10  1  0  0  0  0
 13 14  2  0  0  0  0
 14 15  1  0  0  0  0
 17 19  2  0  0  0  0
 17 16  1  0  0  0  0
 18 17  1  0  0  0  0
 20 18  1  0  0  0  0
 21 20  1  6  0  0  0
 22 26  1  0  0  0  0
 22 21  1  1  0  0  0
 23 25  1  0  0  0  0
 24 22  1  0  0  0  0
 26 25  1  0  0  0  0
 27 24  2  0  0  0  0
 27 23  1  0  0  0  0
 28 26  2  0  0  0  0
 29 32  1  6  0  0  0
 30 34  1  6  0  0  0
 30 33  1  0  0  0  0
 30 29  1  0  0  0  0
 31 32  1  0  0  0  0
 33 21  1  0  0  0  0
 33 29  1  0  0  0  0
 34 31  1  0  0  0  0
 35 12  1  0  0  0  0
 36 35  1  0  0  0  0
 37 42  1  0  0  0  0
 37 39  1  0  0  0  0
 37 43  1  0  0  0  0
 38 41  1  0  0  0  0
 38 37  1  0  0  0  0
 40 43  1  0  0  0  0
 41 40  1  0  0  0  0
 42 39  1  0  0  0  0
 43 36  1  6  0  0  0
 44 41  1  0  0  0  0
M  END
>  <MODEL>
7

>  <REMARK>
 VINA RESULT:      -7.3      3.128      6.834
  Name = 
  10 active torsions:
  status: ('A' for Active; 'I' for Inactive)
    1  A    between atoms: C_1  and  C_8
    2  A    between atoms: C_1  and  C_16
    3  A    between atoms: C_3  and  C_37
    4  A    between atoms: C_4  and  C_43
    5  A    between atoms: N_10  and  N_41
    6  A    between atoms: C_15  and  C_22
    7  A    between atoms: C_15  and  C_44
    8  A    between atoms: C_22  and  C_35
    9  A    between atoms: N_36  and  C_43
   10  A    between atoms: N_41  and  C_43
                            x       y       z     vdW  Elec       q    Type
                         _______ _______ _______ _____ _____    ______ ____

>  <TORSDO>
F 10

$$$$
=
 OpenBabel10222417293D

 44 50  0  0  1  0  0  0  0  0999 V2000
  187.0600  177.8090  142.3540 C   0  0  0  0  0  2  0  0  0  0  0  0
  184.2090  178.1770  141.9300 O   0  0  0  0  0  0  0  0  0  0  0  0
  183.8710  178.5680  144.2850 C   0  0  0  0  0  0  0  0  0  0  0  0
  187.0900  178.8250  141.2300 C   0  0  2  0  0  3  0  0  0  0  0  0
  184.7420  178.3250  143.2170 C   0  0  0  0  0  0  0  0  0  0  0  0
  185.9520  178.5240  140.2660 C   0  0  0  0  0  2  0  0  0  0  0  0
  184.3730  178.7600  145.5690 C   0  0  0  0  0  3  0  0  0  0  0  0
  182.4000  178.6560  144.0690 C   0  0  0  0  0  1  0  0  0  0  0  0
  186.1290  178.2250  143.4570 C   0  0  0  0  0  0  0  0  0  0  0  0
  185.7460  178.7010  145.8320 C   0  0  0  0  0  0  0  0  0  0  0  0
  184.6230  178.9880  140.8350 C   0  0  0  0  0  2  0  0  0  0  0  0
  186.6360  178.4200  144.7630 C   0  0  0  0  0  0  0  0  0  0  0  0
  186.0500  180.0400  147.7970 O   0  0  0  0  0  0  0  0  0  0  0  0
  186.1790  178.9210  147.2350 C   0  0  0  0  0  0  0  0  0  0  0  0
  186.7430  177.8750  147.9570 O   0  0  0  0  0  1  0  0  0  0  0  0
  188.4240  178.7140  140.5130 C   0  0  0  0  0  2  0  0  0  0  0  0
  188.7760  177.2840  140.2500 C   0  0  0  0  0  0  0  0  0  0  0  0
  188.6070  176.7200  138.9500 N   0  0  0  0  0  2  0  0  0  0  0  0
  189.2450  176.5780  141.1800 O   0  0  0  0  0  0  0  0  0  0  0  0
  188.0490  177.4700  137.9070 N   0  0  0  0  0  2  0  0  0  0  0  0
  187.1920  176.5700  137.1450 C   0  0  2  0  0  3  0  0  0  0  0  0
  187.9280  176.1300  135.8720 C   0  0  1  0  0  3  0  0  0  0  0  0
  190.6500  175.2010  136.2480 N   0  0  0  0  0  2  0  0  0  0  0  0
  189.1460  176.9930  135.6500 C   0  0  0  0  0  3  0  0  0  0  0  0
  189.5810  174.2680  136.5910 C   0  0  0  0  0  2  0  0  0  0  0  0
  188.3100  174.6730  135.9140 C   0  0  0  0  0  0  0  0  0  0  0  0
  190.3940  176.5520  135.8430 C   0  0  0  0  0  3  0  0  0  0  0  0
  187.5670  173.8270  135.4470 O   0  0  0  0  0  0  0  0  0  0  0  0
  184.8410  176.5010  137.4250 C   0  0  2  0  0  3  0  0  0  0  0  0
  185.1370  176.3330  136.0030 C   0  0  2  0  0  3  0  0  0  0  0  0
  182.9840  177.4320  136.1740 C   0  0  0  0  0  2  0  0  0  0  0  0
  183.6160  177.3910  137.5440 C   0  0  0  0  0  2  0  0  0  0  0  0
  185.9470  177.2600  136.8140 N   0  0  0  0  0  0  0  0  0  0  0  0
  184.1060  177.1190  135.2160 C   0  0  0  0  0  2  0  0  0  0  0  0
  188.1190  178.3410  144.9840 C   0  0  0  0  0  2  0  0  0  0  0  0
  188.4670  177.0530  145.7110 C   0  0  0  0  0  2  0  0  0  0  0  0
  190.9150  177.0060  146.0000 C   0  0  0  0  0  0  0  0  0  0  0  0
  191.6920  177.9710  145.3540 O   0  0  0  0  0  0  0  0  0  0  0  0
  191.7590  175.9110  146.6100 C   0  0  0  0  0  2  0  0  0  0  0  0
  190.1180  177.1530  143.8850 C   0  0  0  0  0  2  0  0  0  0  0  0
  191.0160  178.2650  144.2030 N   0  0  0  0  0  0  0  0  0  0  0  0
  191.0060  176.8900  147.5050 C   0  0  0  0  0  2  0  0  0  0  0  0
  189.7780  176.4910  145.1860 C   0  0  2  0  0  3  0  0  0  0  0  0
  192.1940  178.3460  142.9260 Cl  0  0  0  0  0  0  0  0  0  0  0  0
  1  9  1  0  0  0  0
  2  5  1  0  0  0  0
  3  7  1  0  0  0  0
  4 16  1  6  0  0  0
  4  1  1  0  0  0  0
  5  9  1  0  0  0  0
  5  3  2  0  0  0  0
  6 11  1  0  0  0  0
  6  4  1  0  0  0  0
  7 10  2  0  0  0  0
  8  3  1  0  0  0  0
  9 12  2  0  0  0  0
 10 14  1  0  0  0  0
 11  2  1  0  0  0  0
 12 35  1  0  0  0  0
 12 10  1  0  0  0  0
 14 13  2  0  0  0  0
 14 15  1  0  0  0  0
 17 16  1  0  0  0  0
 17 19  2  0  0  0  0
 18 17  1  0  0  0  0
 20 18  1  0  0  0  0
 21 20  1  6  0  0  0
 22 26  1  0  0  0  0
 22 21  1  1  0  0  0
 23 25  1  0  0  0  0
 24 27  2  0  0  0  0
 24 22  1  0  0  0  0
 26 25  1  0  0  0  0
 27 23  1  0  0  0  0
 28 26  2  0  0  0  0
 29 32  1  6  0  0  0
 30 34  1  6  0  0  0
 30 33  1  0  0  0  0
 30 29  1  0  0  0  0
 31 32  1  0  0  0  0
 33 21  1  0  0  0  0
 33 29  1  0  0  0  0
 34 31  1  0  0  0  0
 35 36  1  0  0  0  0
 37 39  1  0  0  0  0
 37 42  1  0  0  0  0
 38 37  1  0  0  0  0
 39 42  1  0  0  0  0
 40 41  1  0  0  0  0
 40 43  1  0  0  0  0
 41 38  1  0  0  0  0
 43 36  1  1  0  0  0
 43 37  1  0  0  0  0
 44 41  1  0  0  0  0
M  END
>  <MODEL>
8

>  <REMARK>
 VINA RESULT:      -7.2      2.841      6.115
  Name = 
  10 active torsions:
  status: ('A' for Active; 'I' for Inactive)
    1  A    between atoms: C_1  and  C_8
    2  A    between atoms: C_1  and  C_16
    3  A    between atoms: C_3  and  C_37
    4  A    between atoms: C_4  and  C_43
    5  A    between atoms: N_10  and  N_41
    6  A    between atoms: C_15  and  C_22
    7  A    between atoms: C_15  and  C_44
    8  A    between atoms: C_22  and  C_35
    9  A    between atoms: N_36  and  C_43
   10  A    between atoms: N_41  and  C_43
                            x       y       z     vdW  Elec       q    Type
                         _______ _______ _______ _____ _____    ______ ____

>  <TORSDO>
F 10

$$$$
=
 OpenBabel10222417293D

 44 50  0  0  1  0  0  0  0  0999 V2000
  187.3670  178.9110  141.0070 C   0  0  0  0  0  2  0  0  0  0  0  0
  188.8130  178.1000  138.6200 O   0  0  0  0  0  0  0  0  0  0  0  0
  190.6110  177.2180  139.9640 C   0  0  0  0  0  0  0  0  0  0  0  0
  186.2760  178.1470  140.2830 C   0  0  2  0  0  3  0  0  0  0  0  0
  189.3480  177.8150  139.8830 C   0  0  0  0  0  0  0  0  0  0  0  0
  186.4040  178.4040  138.7890 C   0  0  0  0  0  2  0  0  0  0  0  0
  191.1510  176.8860  141.2020 C   0  0  0  0  0  3  0  0  0  0  0  0
  191.3860  176.8980  138.7330 C   0  0  0  0  0  1  0  0  0  0  0  0
  188.6480  178.1270  141.0680 C   0  0  0  0  0  0  0  0  0  0  0  0
  190.4650  177.1510  142.3920 C   0  0  0  0  0  0  0  0  0  0  0  0
  187.5490  177.6010  138.1980 C   0  0  0  0  0  2  0  0  0  0  0  0
  189.2000  177.7900  142.3260 C   0  0  0  0  0  0  0  0  0  0  0  0
  191.3710  175.5510  143.9320 O   0  0  0  0  0  0  0  0  0  0  0  0
  191.1290  176.7560  143.6610 C   0  0  0  0  0  0  0  0  0  0  0  0
  191.4950  177.7320  144.5820 O   0  0  0  0  0  1  0  0  0  0  0  0
  184.9280  178.6390  140.7830 C   0  0  0  0  0  2  0  0  0  0  0  0
  184.0700  179.1020  139.6490 C   0  0  0  0  0  0  0  0  0  0  0  0
  183.0970  178.2330  139.0710 N   0  0  0  0  0  2  0  0  0  0  0  0
  184.1930  180.2760  139.2140 O   0  0  0  0  0  0  0  0  0  0  0  0
  182.9660  176.9070  139.5050 N   0  0  0  0  0  2  0  0  0  0  0  0
  182.8080  176.0810  138.3160 C   0  0  2  0  0  3  0  0  0  0  0  0
  181.4120  175.4410  138.3290 C   0  0  1  0  0  3  0  0  0  0  0  0
  179.2500  177.1520  139.2300 N   0  0  0  0  0  2  0  0  0  0  0  0
  180.8600  175.4240  139.7340 C   0  0  0  0  0  3  0  0  0  0  0  0
  179.7270  177.3550  137.8660 C   0  0  0  0  0  2  0  0  0  0  0  0
  180.4600  176.1400  137.3930 C   0  0  0  0  0  0  0  0  0  0  0  0
  179.8720  176.2320  140.1360 C   0  0  0  0  0  3  0  0  0  0  0  0
  180.3270  175.7500  136.2450 O   0  0  0  0  0  0  0  0  0  0  0  0
  184.5770  175.1780  137.0250 C   0  0  2  0  0  3  0  0  0  0  0  0
  183.5510  174.1470  137.1800 C   0  0  2  0  0  3  0  0  0  0  0  0
  185.6920  173.0260  136.9980 C   0  0  0  0  0  2  0  0  0  0  0  0
  185.9340  174.5070  137.1460 C   0  0  0  0  0  2  0  0  0  0  0  0
  183.8490  175.0560  138.3020 N   0  0  0  0  0  0  0  0  0  0  0  0
  184.2530  172.8210  137.4050 C   0  0  0  0  0  2  0  0  0  0  0  0
  188.4180  178.1020  143.5680 C   0  0  0  0  0  2  0  0  0  0  0  0
  187.2940  177.0940  143.7400 C   0  0  0  0  0  2  0  0  0  0  0  0
  186.4060  178.2720  145.7160 C   0  0  0  0  0  0  0  0  0  0  0  0
  187.2930  178.9500  146.5550 O   0  0  0  0  0  0  0  0  0  0  0  0
  185.0200  178.1770  146.3090 C   0  0  0  0  0  2  0  0  0  0  0  0
  188.1690  176.8850  146.0340 C   0  0  0  0  0  2  0  0  0  0  0  0
  188.4620  178.2460  146.4880 N   0  0  0  0  0  0  0  0  0  0  0  0
  185.2710  179.0450  145.0810 C   0  0  0  0  0  2  0  0  0  0  0  0
  186.9210  176.9680  145.2080 C   0  0  2  0  0  3  0  0  0  0  0  0
  189.0750  178.1170  148.1100 Cl  0  0  0  0  0  0  0  0  0  0  0  0
  1  9  1  0  0  0  0
  2  5  1  0  0  0  0
  3  7  1  0  0  0  0
  4 16  1  1  0  0  0
  4  1  1  0  0  0  0
  5  3  2  0  0  0  0
  5  9  1  0  0  0  0
  6  4  1  0  0  0  0
  7 10  2  0  0  0  0
  8  3  1  0  0  0  0
  9 12  2  0  0  0  0
 10 14  1  0  0  0  0
 11  2  1  0  0  0  0
 11  6  1  0  0  0  0
 12 10  1  0  0  0  0
 12 35  1  0  0  0  0
 14 13  2  0  0  0  0
 14 15  1  0  0  0  0
 17 16  1  0  0  0  0
 18 20  1  0  0  0  0
 18 17  1  0  0  0  0
 19 17  2  0  0  0  0
 21 20  1  1  0  0  0
 22 21  1  1  0  0  0
 22 24  1  0  0  0  0
 23 27  1  0  0  0  0
 24 27  2  0  0  0  0
 25 23  1  0  0  0  0
 26 25  1  0  0  0  0
 26 22  1  0  0  0  0
 28 26  2  0  0  0  0
 29 32  1  1  0  0  0
 29 30  1  0  0  0  0
 29 33  1  0  0  0  0
 30 34  1  1  0  0  0
 30 33  1  0  0  0  0
 31 32  1  0  0  0  0
 31 34  1  0  0  0  0
 33 21  1  0  0  0  0
 35 36  1  0  0  0  0
 37 39  1  0  0  0  0
 37 38  1  0  0  0  0
 40 41  1  0  0  0  0
 41 38  1  0  0  0  0
 41 44  1  0  0  0  0
 42 37  1  0  0  0  0
 42 39  1  0  0  0  0
 43 36  1  6  0  0  0
 43 37  1  0  0  0  0
 43 40  1  0  0  0  0
M  END
>  <MODEL>
9

>  <REMARK>
 VINA RESULT:      -7.2      2.543      5.048
  Name = 
  10 active torsions:
  status: ('A' for Active; 'I' for Inactive)
    1  A    between atoms: C_1  and  C_8
    2  A    between atoms: C_1  and  C_16
    3  A    between atoms: C_3  and  C_37
    4  A    between atoms: C_4  and  C_43
    5  A    between atoms: N_10  and  N_41
    6  A    between atoms: C_15  and  C_22
    7  A    between atoms: C_15  and  C_44
    8  A    between atoms: C_22  and  C_35
    9  A    between atoms: N_36  and  C_43
   10  A    between atoms: N_41  and  C_43
                            x       y       z     vdW  Elec       q    Type
                         _______ _______ _______ _____ _____    ______ ____

>  <TORSDO>
F 10

$$$$
