=
 OpenBabel10222420403D

 42 47  0  0  1  0  0  0  0  0999 V2000
  186.3650  177.4750  137.2570 C   0  0  1  0  0  3  0  0  0  0  0  0
  180.6790  176.8930  137.3240 C   0  0  0  0  0  1  0  0  0  0  0  0
  182.8690  176.4710  138.3720 C   0  0  0  0  0  2  0  0  0  0  0  0
  184.7040  178.7040  138.3900 C   0  0  2  0  0  3  0  0  0  0  0  0
  182.7600  179.4910  139.4380 C   0  0  0  0  0  2  0  0  0  0  0  0
  181.6980  178.7840  138.6080 C   0  0  0  0  0  0  0  0  0  0  0  0
  180.6450  179.4410  138.3820 O   0  0  0  0  0  0  0  0  0  0  0  0
  183.9890  178.6540  139.6630 C   0  0  2  0  0  3  0  0  0  0  0  0
  184.0930  176.6730  137.4610 C   0  0  0  0  0  2  0  0  0  0  0  0
  185.2040  177.3540  138.1620 N   0  0  0  0  0  0  0  0  0  0  0  0
  185.2670  179.3710  139.5770 N   0  0  0  0  0  2  0  0  0  0  0  0
  181.8080  177.4350  138.0650 N   0  0  0  0  0  0  0  0  0  0  0  0
  189.0210  179.0870  139.0300 C   0  0  0  0  0  2  0  0  0  0  0  0
  188.2600  179.4050  136.7820 O   0  0  0  0  0  1  0  0  0  0  0  0
  188.7890  177.9830  140.0450 C   0  0  2  0  0  3  0  0  0  0  0  0
  188.7360  178.4500  137.6890 C   0  0  2  0  0  3  0  0  0  0  0  0
  187.6830  177.1170  139.4700 C   0  0  0  0  0  2  0  0  0  0  0  0
  187.7360  177.3250  137.9610 C   0  0  1  0  0  3  0  0  0  0  0  0
  188.3650  178.5520  141.3950 C   0  0  0  0  0  2  0  0  0  0  0  0
  187.0580  177.4700  143.2460 C   0  0  0  0  0  2  0  0  0  0  0  0
  187.4450  177.4650  144.7200 C   0  0  0  0  0  2  0  0  0  0  0  0
  189.4100  177.7810  143.4580 N   0  0  1  0  0  0  0  0  0  0  0  0
  188.9110  177.1240  144.6460 C   0  0  1  0  0  3  0  0  0  0  0  0
  189.7820  177.4820  145.8090 C   0  0  0  0  0  0  0  0  0  0  0  0
  189.3170  177.8570  146.8770 O   0  0  0  0  0  0  0  0  0  0  0  0
  190.6850  177.1530  143.1250 C   0  0  0  0  0  2  0  0  0  0  0  0
  191.2680  177.2850  145.6320 C   0  0  2  0  0  3  0  0  0  0  0  0
  188.3820  177.4780  142.4760 C   0  0  2  0  0  3  0  0  0  0  0  0
  191.7200  177.5820  144.1820 C   0  0  0  0  0  2  0  0  0  0  0  0
  191.6070  175.9710  145.9740 O   0  0  0  0  0  0  0  0  0  0  0  0
  192.1300  176.0600  147.2680 C   0  0  0  0  0  1  0  0  0  0  0  0
  187.1690  174.6640  137.2090 O   0  0  0  0  0  0  0  0  0  0  0  0
  186.8090  175.2050  136.1260 C   0  0  0  0  0  0  0  0  0  0  0  0
  186.3080  176.5530  136.1140 N   0  0  0  0  0  2  0  0  0  0  0  0
  186.9000  174.4170  134.8460 C   0  0  1  0  0  3  0  0  0  0  0  0
  187.0420  172.9300  135.1280 C   0  0  0  0  0  2  0  0  0  0  0  0
  185.7220  173.4560  134.5940 C   0  0  1  0  0  3  0  0  0  0  0  0
  184.6570  173.4280  135.6980 C   0  0  1  0  0  3  0  0  0  0  0  0
  183.4020  173.6680  135.1310 O   0  0  0  0  0  1  0  0  0  0  0  0
  184.6310  172.0800  136.4000 C   0  0  0  0  0  2  0  0  0  0  0  0
  183.6930  171.1180  135.6830 C   0  0  0  0  0  2  0  0  0  0  0  0
  183.5380  169.9640  136.4520 O   0  0  0  0  0  1  0  0  0  0  0  0
  1 34  1  6  0  0  0
  1 10  1  0  0  0  0
  2 12  1  0  0  0  0
  4 11  1  1  0  0  0
  4  8  1  0  0  0  0
  6  5  1  0  0  0  0
  7  6  2  0  0  0  0
  8  5  1  6  0  0  0
  9 10  1  0  0  0  0
  9  3  1  0  0  0  0
 10  4  1  0  0  0  0
 11  8  1  0  0  0  0
 12  3  1  0  0  0  0
 12  6  1  0  0  0  0
 13 15  1  0  0  0  0
 15 19  1  1  0  0  0
 16 14  1  6  0  0  0
 16 18  1  0  0  0  0
 16 13  1  0  0  0  0
 17 15  1  0  0  0  0
 18  1  1  1  0  0  0
 18 17  1  0  0  0  0
 20 21  1  0  0  0  0
 22 26  1  6  0  0  0
 22 23  1  0  0  0  0
 23 21  1  1  0  0  0
 23 24  1  0  0  0  0
 24 25  2  0  0  0  0
 26 29  1  0  0  0  0
 27 24  1  0  0  0  0
 27 30  1  6  0  0  0
 28 19  1  6  0  0  0
 28 20  1  0  0  0  0
 28 22  1  0  0  0  0
 29 27  1  0  0  0  0
 30 31  1  0  0  0  0
 33 32  2  0  0  0  0
 34 33  1  0  0  0  0
 35 36  1  0  0  0  0
 35 33  1  1  0  0  0
 37 35  1  0  0  0  0
 37 36  1  0  0  0  0
 37 38  1  1  0  0  0
 38 39  1  6  0  0  0
 38 40  1  0  0  0  0
 41 40  1  0  0  0  0
 41 42  1  0  0  0  0
M  END
>  <MODEL>
1

>  <REMARK>
 VINA RESULT:      -6.9      0.000      0.000
  Name = 
  10 active torsions:
  status: ('A' for Active; 'I' for Inactive)
    1  A    between atoms: C_6  and  C_10
    2  A    between atoms: C_6  and  C_42
    3  A    between atoms: C_8  and  C_21
    4  A    between atoms: C_10  and  C_22
    5  A    between atoms: C_14  and  C_16
    6  A    between atoms: C_14  and  C_37
    7  A    between atoms: O_20  and  C_36
    8  A    between atoms: C_24  and  N_26
    9  A    between atoms: C_24  and  C_32
   10  A    between atoms: C_24  and  N_38
                            x       y       z     vdW  Elec       q    Type
                         _______ _______ _______ _____ _____    ______ ____

>  <TORSDO>
F 10

$$$$
=
 OpenBabel10222420403D

 42 47  0  0  1  0  0  0  0  0999 V2000
  187.7020  178.2480  139.8430 C   0  0  1  0  0  3  0  0  0  0  0  0
  188.7440  177.5400  145.4180 C   0  0  0  0  0  1  0  0  0  0  0  0
  188.4350  176.5670  143.1750 C   0  0  0  0  0  2  0  0  0  0  0  0
  189.7320  177.9710  141.0070 C   0  0  2  0  0  3  0  0  0  0  0  0
  191.4380  177.4860  142.5400 C   0  0  0  0  0  2  0  0  0  0  0  0
  190.6900  177.6790  143.8510 C   0  0  0  0  0  0  0  0  0  0  0  0
  191.3510  178.1910  144.7950 O   0  0  0  0  0  0  0  0  0  0  0  0
  190.5890  176.8780  141.4580 C   0  0  2  0  0  3  0  0  0  0  0  0
  187.7690  177.4860  142.1370 C   0  0  0  0  0  2  0  0  0  0  0  0
  188.4130  177.3850  140.8080 N   0  0  0  0  0  0  0  0  0  0  0  0
  190.7770  177.4400  140.1150 N   0  0  0  0  0  2  0  0  0  0  0  0
  189.2950  177.3260  144.0890 N   0  0  0  0  0  0  0  0  0  0  0  0
  189.6760  177.6910  136.9110 C   0  0  0  0  0  2  0  0  0  0  0  0
  189.0930  179.7410  138.0050 O   0  0  0  0  0  1  0  0  0  0  0  0
  189.1170  176.2840  137.0060 C   0  0  2  0  0  3  0  0  0  0  0  0
  188.5650  178.5860  137.4140 C   0  0  2  0  0  3  0  0  0  0  0  0
  188.1870  176.2860  138.2050 C   0  0  0  0  0  2  0  0  0  0  0  0
  187.7430  177.7340  138.3820 C   0  0  1  0  0  3  0  0  0  0  0  0
  190.2290  175.2590  137.2030 C   0  0  0  0  0  2  0  0  0  0  0  0
  191.2200  174.9700  134.9150 C   0  0  0  0  0  2  0  0  0  0  0  0
  192.5130  174.2290  134.5940 C   0  0  0  0  0  2  0  0  0  0  0  0
  192.6160  174.9240  136.8440 N   0  0  1  0  0  0  0  0  0  0  0  0
  193.4360  174.7550  135.6640 C   0  0  1  0  0  3  0  0  0  0  0  0
  194.6460  173.9490  136.0160 C   0  0  0  0  0  0  0  0  0  0  0  0
  195.0090  172.9940  135.3420 O   0  0  0  0  0  0  0  0  0  0  0  0
  193.3490  175.8020  137.7510 C   0  0  0  0  0  2  0  0  0  0  0  0
  195.4510  174.4140  137.2040 C   0  0  2  0  0  3  0  0  0  0  0  0
  191.4250  175.5650  136.3110 C   0  0  2  0  0  3  0  0  0  0  0  0
  194.5500  175.0170  138.3100 C   0  0  0  0  0  2  0  0  0  0  0  0
  196.3890  175.3640  136.7880 O   0  0  0  0  0  0  0  0  0  0  0  0
  197.6300  174.7390  136.9490 C   0  0  0  0  0  1  0  0  0  0  0  0
  185.5040  179.0120  138.0720 O   0  0  0  0  0  0  0  0  0  0  0  0
  185.2900  178.9800  139.3160 C   0  0  0  0  0  0  0  0  0  0  0  0
  186.3060  178.5130  140.2200 N   0  0  0  0  0  2  0  0  0  0  0  0
  183.9520  179.4270  139.8420 C   0  0  1  0  0  3  0  0  0  0  0  0
  182.9350  179.5490  138.7190 C   0  0  0  0  0  2  0  0  0  0  0  0
  182.8200  178.3910  139.6930 C   0  0  1  0  0  3  0  0  0  0  0  0
  183.2250  177.0800  139.0050 C   0  0  1  0  0  3  0  0  0  0  0  0
  182.7050  176.0030  139.7300 O   0  0  0  0  0  1  0  0  0  0  0  0
  182.6910  177.0220  137.5840 C   0  0  0  0  0  2  0  0  0  0  0  0
  183.4370  175.9710  136.7710 C   0  0  0  0  0  2  0  0  0  0  0  0
  184.7830  175.9700  137.1400 O   0  0  0  0  0  1  0  0  0  0  0  0
  1 34  1  1  0  0  0
  1 10  1  0  0  0  0
  3 12  1  0  0  0  0
  4 11  1  6  0  0  0
  4  8  1  0  0  0  0
  5  6  1  0  0  0  0
  6 12  1  0  0  0  0
  6  7  2  0  0  0  0
  8  5  1  1  0  0  0
  9  3  1  0  0  0  0
 10  4  1  0  0  0  0
 10  9  1  0  0  0  0
 11  8  1  0  0  0  0
 12  2  1  0  0  0  0
 13 15  1  0  0  0  0
 13 16  1  0  0  0  0
 15 19  1  1  0  0  0
 15 17  1  0  0  0  0
 16 14  1  1  0  0  0
 16 18  1  0  0  0  0
 17 18  1  0  0  0  0
 18  1  1  1  0  0  0
 20 28  1  0  0  0  0
 21 20  1  0  0  0  0
 22 26  1  1  0  0  0
 23 21  1  6  0  0  0
 23 24  1  0  0  0  0
 23 22  1  0  0  0  0
 24 27  1  0  0  0  0
 25 24  2  0  0  0  0
 26 29  1  0  0  0  0
 27 30  1  6  0  0  0
 27 29  1  0  0  0  0
 28 22  1  0  0  0  0
 28 19  1  1  0  0  0
 30 31  1  0  0  0  0
 32 33  2  0  0  0  0
 33 34  1  0  0  0  0
 35 33  1  6  0  0  0
 36 37  1  0  0  0  0
 36 35  1  0  0  0  0
 37 38  1  6  0  0  0
 37 35  1  0  0  0  0
 38 39  1  1  0  0  0
 40 38  1  0  0  0  0
 41 42  1  0  0  0  0
 41 40  1  0  0  0  0
M  END
>  <MODEL>
2

>  <REMARK>
 VINA RESULT:      -6.9      4.046      7.681
  Name = 
  10 active torsions:
  status: ('A' for Active; 'I' for Inactive)
    1  A    between atoms: C_6  and  C_10
    2  A    between atoms: C_6  and  C_42
    3  A    between atoms: C_8  and  C_21
    4  A    between atoms: C_10  and  C_22
    5  A    between atoms: C_14  and  C_16
    6  A    between atoms: C_14  and  C_37
    7  A    between atoms: O_20  and  C_36
    8  A    between atoms: C_24  and  N_26
    9  A    between atoms: C_24  and  C_32
   10  A    between atoms: C_24  and  N_38
                            x       y       z     vdW  Elec       q    Type
                         _______ _______ _______ _____ _____    ______ ____

>  <TORSDO>
F 10

$$$$
=
 OpenBabel10222420403D

 42 47  0  0  1  0  0  0  0  0999 V2000
  186.9170  177.9420  137.9390 C   0  0  1  0  0  3  0  0  0  0  0  0
  181.5930  177.6650  135.8760 C   0  0  0  0  0  1  0  0  0  0  0  0
  183.2640  176.9560  137.5430 C   0  0  0  0  0  2  0  0  0  0  0  0
  184.9470  179.0510  138.6050 C   0  0  2  0  0  3  0  0  0  0  0  0
  182.7480  179.7550  139.0140 C   0  0  0  0  0  2  0  0  0  0  0  0
  182.0640  179.2560  137.7500 C   0  0  0  0  0  0  0  0  0  0  0  0
  181.1550  179.9970  137.2840 O   0  0  0  0  0  0  0  0  0  0  0  0
  183.8230  178.8270  139.5110 C   0  0  2  0  0  3  0  0  0  0  0  0
  184.7310  177.2410  137.1780 C   0  0  0  0  0  2  0  0  0  0  0  0
  185.5090  177.7340  138.3350 N   0  0  0  0  0  0  0  0  0  0  0  0
  185.0390  179.4780  140.0120 N   0  0  0  0  0  2  0  0  0  0  0  0
  182.3750  178.0140  137.0530 N   0  0  0  0  0  0  0  0  0  0  0  0
  189.0730  178.9980  140.5910 C   0  0  0  0  0  2  0  0  0  0  0  0
  189.1370  179.5280  138.2560 O   0  0  0  0  0  1  0  0  0  0  0  0
  188.3600  177.9140  141.3780 C   0  0  2  0  0  3  0  0  0  0  0  0
  189.1410  178.4710  139.1760 C   0  0  2  0  0  3  0  0  0  0  0  0
  187.3790  177.2770  140.4110 C   0  0  0  0  0  2  0  0  0  0  0  0
  187.9470  177.5280  139.0190 C   0  0  1  0  0  3  0  0  0  0  0  0
  187.6160  178.4980  142.5750 C   0  0  0  0  0  2  0  0  0  0  0  0
  186.3030  177.7020  144.5610 C   0  0  0  0  0  2  0  0  0  0  0  0
  186.7650  177.7630  146.0130 C   0  0  0  0  0  2  0  0  0  0  0  0
  188.6830  177.7730  144.6430 N   0  0  1  0  0  0  0  0  0  0  0  0
  188.1820  177.2620  145.9000 C   0  0  1  0  0  3  0  0  0  0  0  0
  189.1450  177.6100  146.9920 C   0  0  0  0  0  0  0  0  0  0  0  0
  188.7780  178.1100  148.0470 O   0  0  0  0  0  0  0  0  0  0  0  0
  189.8660  176.9890  144.3050 C   0  0  0  0  0  2  0  0  0  0  0  0
  190.5910  177.2420  146.7650 C   0  0  2  0  0  3  0  0  0  0  0  0
  187.5780  177.5110  143.7350 C   0  0  2  0  0  3  0  0  0  0  0  0
  190.9950  177.3810  145.2770 C   0  0  0  0  0  2  0  0  0  0  0  0
  190.8100  175.9280  147.1940 O   0  0  0  0  0  0  0  0  0  0  0  0
  192.2000  175.8060  147.2810 C   0  0  0  0  0  1  0  0  0  0  0  0
  187.2360  175.0770  137.4490 O   0  0  0  0  0  0  0  0  0  0  0  0
  187.5020  175.8810  136.5110 C   0  0  0  0  0  0  0  0  0  0  0  0
  187.2640  177.2900  136.6690 N   0  0  0  0  0  2  0  0  0  0  0  0
  188.0610  175.3430  135.2210 C   0  0  1  0  0  3  0  0  0  0  0  0
  189.0940  176.2920  134.6350 C   0  0  0  0  0  2  0  0  0  0  0  0
  189.5610  174.9910  135.2640 C   0  0  1  0  0  3  0  0  0  0  0  0
  190.2580  175.2730  136.6020 C   0  0  1  0  0  3  0  0  0  0  0  0
  190.4860  174.0620  137.2630 O   0  0  0  0  0  1  0  0  0  0  0  0
  191.5870  175.9780  136.3890 C   0  0  0  0  0  2  0  0  0  0  0  0
  192.2480  176.2960  137.7250 C   0  0  0  0  0  2  0  0  0  0  0  0
  193.5390  176.7720  137.5000 O   0  0  0  0  0  1  0  0  0  0  0  0
  1 34  1  6  0  0  0
  1 10  1  0  0  0  0
  2 12  1  0  0  0  0
  4  8  1  0  0  0  0
  4 11  1  1  0  0  0
  6  5  1  0  0  0  0
  7  6  2  0  0  0  0
  8  5  1  6  0  0  0
  8 11  1  0  0  0  0
  9  3  1  0  0  0  0
  9 10  1  0  0  0  0
 10  4  1  0  0  0  0
 12  3  1  0  0  0  0
 12  6  1  0  0  0  0
 13 15  1  0  0  0  0
 15 19  1  1  0  0  0
 16 14  1  6  0  0  0
 16 13  1  0  0  0  0
 17 15  1  0  0  0  0
 18  1  1  6  0  0  0
 18 16  1  0  0  0  0
 18 17  1  0  0  0  0
 20 21  1  0  0  0  0
 22 26  1  6  0  0  0
 22 23  1  0  0  0  0
 23 21  1  1  0  0  0
 23 24  1  0  0  0  0
 24 25  2  0  0  0  0
 26 29  1  0  0  0  0
 27 24  1  0  0  0  0
 27 30  1  6  0  0  0
 28 19  1  6  0  0  0
 28 20  1  0  0  0  0
 28 22  1  0  0  0  0
 29 27  1  0  0  0  0
 30 31  1  0  0  0  0
 33 34  1  0  0  0  0
 33 32  2  0  0  0  0
 35 37  1  0  0  0  0
 35 33  1  1  0  0  0
 36 35  1  0  0  0  0
 36 37  1  0  0  0  0
 37 38  1  1  0  0  0
 38 39  1  6  0  0  0
 40 38  1  0  0  0  0
 40 41  1  0  0  0  0
 42 41  1  0  0  0  0
M  END
>  <MODEL>
3

>  <REMARK>
 VINA RESULT:      -6.8      2.157      3.425
  Name = 
  10 active torsions:
  status: ('A' for Active; 'I' for Inactive)
    1  A    between atoms: C_6  and  C_10
    2  A    between atoms: C_6  and  C_42
    3  A    between atoms: C_8  and  C_21
    4  A    between atoms: C_10  and  C_22
    5  A    between atoms: C_14  and  C_16
    6  A    between atoms: C_14  and  C_37
    7  A    between atoms: O_20  and  C_36
    8  A    between atoms: C_24  and  N_26
    9  A    between atoms: C_24  and  C_32
   10  A    between atoms: C_24  and  N_38
                            x       y       z     vdW  Elec       q    Type
                         _______ _______ _______ _____ _____    ______ ____

>  <TORSDO>
F 10

$$$$
=
 OpenBabel10222420403D

 42 47  0  0  1  0  0  0  0  0999 V2000
  185.5760  177.6790  138.5520 C   0  0  1  0  0  3  0  0  0  0  0  0
  189.7660  174.1070  137.0180 C   0  0  0  0  0  1  0  0  0  0  0  0
  187.7410  175.3820  136.4290 C   0  0  0  0  0  2  0  0  0  0  0  0
  187.6170  178.0840  137.4470 C   0  0  2  0  0  3  0  0  0  0  0  0
  189.6220  177.9690  136.2360 C   0  0  0  0  0  2  0  0  0  0  0  0
  190.0620  176.5520  136.5720 C   0  0  0  0  0  0  0  0  0  0  0  0
  191.3030  176.3790  136.7200 O   0  0  0  0  0  0  0  0  0  0  0  0
  188.1320  178.1050  136.0800 C   0  0  2  0  0  3  0  0  0  0  0  0
  186.9040  175.8870  137.6170 C   0  0  0  0  0  2  0  0  0  0  0  0
  186.4120  177.2670  137.4060 N   0  0  0  0  0  0  0  0  0  0  0  0
  187.5440  179.3220  136.6520 N   0  0  0  0  0  2  0  0  0  0  0  0
  189.1750  175.4060  136.7350 N   0  0  0  0  0  0  0  0  0  0  0  0
  186.3980  178.3870  141.9610 C   0  0  0  0  0  2  0  0  0  0  0  0
  184.2610  178.3000  140.8830 O   0  0  0  0  0  1  0  0  0  0  0  0
  187.8150  178.4810  141.4250 C   0  0  2  0  0  3  0  0  0  0  0  0
  185.5240  178.9070  140.8430 C   0  0  2  0  0  3  0  0  0  0  0  0
  187.7090  178.2380  139.9300 C   0  0  0  0  0  2  0  0  0  0  0  0
  186.2870  178.6290  139.5470 C   0  0  1  0  0  3  0  0  0  0  0  0
  188.7200  177.4330  142.0650 C   0  0  0  0  0  2  0  0  0  0  0  0
  191.0600  177.8530  142.8720 C   0  0  0  0  0  2  0  0  0  0  0  0
  191.6680  177.3030  144.1570 C   0  0  0  0  0  2  0  0  0  0  0  0
  189.3260  177.3440  144.4250 N   0  0  1  0  0  0  0  0  0  0  0  0
  190.5610  177.5580  145.1480 C   0  0  1  0  0  3  0  0  0  0  0  0
  190.5390  176.7530  146.4090 C   0  0  0  0  0  0  0  0  0  0  0  0
  191.4800  176.0470  146.7450 O   0  0  0  0  0  0  0  0  0  0  0  0
  188.2620  177.9710  145.2010 C   0  0  0  0  0  2  0  0  0  0  0  0
  189.3270  176.9090  147.2940 C   0  0  2  0  0  3  0  0  0  0  0  0
  189.5700  178.0420  143.1730 C   0  0  2  0  0  3  0  0  0  0  0  0
  188.0340  177.1280  146.4700 C   0  0  0  0  0  2  0  0  0  0  0  0
  189.5220  177.9880  148.1630 O   0  0  0  0  0  0  0  0  0  0  0  0
  188.3060  178.1280  148.8400 C   0  0  0  0  0  1  0  0  0  0  0  0
  183.0930  176.2730  137.9130 O   0  0  0  0  0  0  0  0  0  0  0  0
  183.1330  177.5260  137.7540 C   0  0  0  0  0  0  0  0  0  0  0  0
  184.2940  178.2750  138.1500 N   0  0  0  0  0  2  0  0  0  0  0  0
  181.9430  178.2280  137.1550 C   0  0  1  0  0  3  0  0  0  0  0  0
  180.6740  177.4120  137.3420 C   0  0  0  0  0  2  0  0  0  0  0  0
  180.8720  178.6680  138.1730 C   0  0  1  0  0  3  0  0  0  0  0  0
  181.1680  178.2940  139.6310 C   0  0  1  0  0  3  0  0  0  0  0  0
  181.2330  179.4610  140.3980 O   0  0  0  0  0  1  0  0  0  0  0  0
  180.0830  177.3920  140.1960 C   0  0  0  0  0  2  0  0  0  0  0  0
  179.2480  178.1370  141.2300 C   0  0  0  0  0  2  0  0  0  0  0  0
  179.3730  177.5060  142.4680 O   0  0  0  0  0  1  0  0  0  0  0  0
  1 34  1  6  0  0  0
  3 12  1  0  0  0  0
  3  9  1  0  0  0  0
  4 11  1  6  0  0  0
  5  6  1  0  0  0  0
  6  7  2  0  0  0  0
  6 12  1  0  0  0  0
  8  5  1  1  0  0  0
  8 11  1  0  0  0  0
  8  4  1  0  0  0  0
 10  4  1  0  0  0  0
 10  9  1  0  0  0  0
 10  1  1  0  0  0  0
 12  2  1  0  0  0  0
 15 13  1  0  0  0  0
 15 19  1  1  0  0  0
 16 14  1  6  0  0  0
 16 13  1  0  0  0  0
 17 15  1  0  0  0  0
 18  1  1  1  0  0  0
 18 17  1  0  0  0  0
 18 16  1  0  0  0  0
 20 28  1  0  0  0  0
 20 21  1  0  0  0  0
 22 23  1  0  0  0  0
 22 26  1  1  0  0  0
 23 21  1  6  0  0  0
 23 24  1  0  0  0  0
 24 25  2  0  0  0  0
 24 27  1  0  0  0  0
 26 29  1  0  0  0  0
 27 30  1  1  0  0  0
 28 19  1  6  0  0  0
 28 22  1  0  0  0  0
 29 27  1  0  0  0  0
 30 31  1  0  0  0  0
 33 32  2  0  0  0  0
 33 34  1  0  0  0  0
 35 36  1  0  0  0  0
 35 33  1  1  0  0  0
 35 37  1  0  0  0  0
 36 37  1  0  0  0  0
 37 38  1  1  0  0  0
 38 40  1  0  0  0  0
 38 39  1  1  0  0  0
 40 41  1  0  0  0  0
 41 42  1  0  0  0  0
M  END
>  <MODEL>
4

>  <REMARK>
 VINA RESULT:      -6.5      2.433      5.631
  Name = 
  10 active torsions:
  status: ('A' for Active; 'I' for Inactive)
    1  A    between atoms: C_6  and  C_10
    2  A    between atoms: C_6  and  C_42
    3  A    between atoms: C_8  and  C_21
    4  A    between atoms: C_10  and  C_22
    5  A    between atoms: C_14  and  C_16
    6  A    between atoms: C_14  and  C_37
    7  A    between atoms: O_20  and  C_36
    8  A    between atoms: C_24  and  N_26
    9  A    between atoms: C_24  and  C_32
   10  A    between atoms: C_24  and  N_38
                            x       y       z     vdW  Elec       q    Type
                         _______ _______ _______ _____ _____    ______ ____

>  <TORSDO>
F 10

$$$$
=
 OpenBabel10222420403D

 42 47  0  0  1  0  0  0  0  0999 V2000
  187.5800  175.9340  137.2580 C   0  0  1  0  0  3  0  0  0  0  0  0
  188.1160  170.6910  135.0450 C   0  0  0  0  0  1  0  0  0  0  0  0
  187.5280  173.0670  134.7580 C   0  0  0  0  0  2  0  0  0  0  0  0
  189.3200  174.9640  135.9990 C   0  0  2  0  0  3  0  0  0  0  0  0
  190.6720  173.6590  134.5960 C   0  0  0  0  0  2  0  0  0  0  0  0
  190.0150  172.2990  134.7730 C   0  0  0  0  0  0  0  0  0  0  0  0
  190.7930  171.3060  134.7870 O   0  0  0  0  0  0  0  0  0  0  0  0
  189.6880  174.7970  134.5950 C   0  0  2  0  0  3  0  0  0  0  0  0
  187.2880  173.8550  136.0580 C   0  0  0  0  0  2  0  0  0  0  0  0
  187.8840  175.2080  136.0070 N   0  0  0  0  0  0  0  0  0  0  0  0
  190.1130  176.0020  135.3170 N   0  0  0  0  0  2  0  0  0  0  0  0
  188.5840  172.0640  134.9270 N   0  0  0  0  0  0  0  0  0  0  0  0
  188.8240  179.0210  138.5720 C   0  0  0  0  0  2  0  0  0  0  0  0
  188.0280  178.4970  136.3740 O   0  0  0  0  0  1  0  0  0  0  0  0
  189.2630  178.1540  139.7370 C   0  0  2  0  0  3  0  0  0  0  0  0
  188.9620  178.1350  137.3540 C   0  0  2  0  0  3  0  0  0  0  0  0
  188.8560  176.7370  139.3770 C   0  0  0  0  0  2  0  0  0  0  0  0
  188.7870  176.7000  137.8550 C   0  0  1  0  0  3  0  0  0  0  0  0
  188.5840  178.5850  141.0330 C   0  0  0  0  0  2  0  0  0  0  0  0
  187.2240  177.3220  142.7250 C   0  0  0  0  0  2  0  0  0  0  0  0
  187.4990  177.2690  144.2230 C   0  0  0  0  0  2  0  0  0  0  0  0
  189.5250  177.7850  143.1350 N   0  0  1  0  0  0  0  0  0  0  0  0
  188.9880  177.0350  144.2490 C   0  0  1  0  0  3  0  0  0  0  0  0
  189.7400  177.3940  145.4930 C   0  0  0  0  0  0  0  0  0  0  0  0
  189.1700  177.6820  146.5360 O   0  0  0  0  0  0  0  0  0  0  0  0
  190.8640  177.2650  142.8760 C   0  0  0  0  0  2  0  0  0  0  0  0
  191.2450  177.3100  145.4250 C   0  0  2  0  0  3  0  0  0  0  0  0
  188.5990  177.4610  142.0630 C   0  0  2  0  0  3  0  0  0  0  0  0
  191.7820  177.7110  144.0290 C   0  0  0  0  0  2  0  0  0  0  0  0
  191.6530  176.0080  145.7320 O   0  0  0  0  0  0  0  0  0  0  0  0
  192.1140  176.0780  147.0500 C   0  0  0  0  0  1  0  0  0  0  0  0
  184.7480  175.3060  137.6250 O   0  0  0  0  0  0  0  0  0  0  0  0
  185.0610  176.4650  137.2300 C   0  0  0  0  0  0  0  0  0  0  0  0
  186.4410  176.8540  137.1320 N   0  0  0  0  0  2  0  0  0  0  0  0
  183.9690  177.4380  136.8730 C   0  0  1  0  0  3  0  0  0  0  0  0
  182.7230  177.1930  137.7090 C   0  0  0  0  0  2  0  0  0  0  0  0
  183.5780  178.4130  138.0010 C   0  0  1  0  0  3  0  0  0  0  0  0
  184.3390  178.2210  139.3190 C   0  0  1  0  0  3  0  0  0  0  0  0
  184.8980  179.4420  139.7080 O   0  0  0  0  0  1  0  0  0  0  0  0
  183.4120  177.7300  140.4190 C   0  0  0  0  0  2  0  0  0  0  0  0
  183.8050  178.3300  141.7630 C   0  0  0  0  0  2  0  0  0  0  0  0
  182.6820  178.9000  142.3620 O   0  0  0  0  0  1  0  0  0  0  0  0
  1 34  1  6  0  0  0
  3 12  1  0  0  0  0
  3  9  1  0  0  0  0
  4 11  1  6  0  0  0
  4 10  1  0  0  0  0
  5  6  1  0  0  0  0
  6  7  2  0  0  0  0
  6 12  1  0  0  0  0
  8  5  1  1  0  0  0
  8 11  1  0  0  0  0
  8  4  1  0  0  0  0
 10  9  1  0  0  0  0
 10  1  1  0  0  0  0
 12  2  1  0  0  0  0
 13 15  1  0  0  0  0
 15 19  1  1  0  0  0
 16 14  1  6  0  0  0
 16 18  1  0  0  0  0
 16 13  1  0  0  0  0
 17 15  1  0  0  0  0
 18  1  1  1  0  0  0
 18 17  1  0  0  0  0
 20 21  1  0  0  0  0
 22 26  1  6  0  0  0
 22 23  1  0  0  0  0
 23 21  1  1  0  0  0
 23 24  1  0  0  0  0
 24 25  2  0  0  0  0
 26 29  1  0  0  0  0
 27 24  1  0  0  0  0
 27 30  1  6  0  0  0
 28 19  1  6  0  0  0
 28 20  1  0  0  0  0
 28 22  1  0  0  0  0
 29 27  1  0  0  0  0
 30 31  1  0  0  0  0
 33 32  2  0  0  0  0
 34 33  1  0  0  0  0
 35 33  1  1  0  0  0
 35 36  1  0  0  0  0
 35 37  1  0  0  0  0
 36 37  1  0  0  0  0
 37 38  1  1  0  0  0
 38 39  1  1  0  0  0
 38 40  1  0  0  0  0
 40 41  1  0  0  0  0
 41 42  1  0  0  0  0
M  END
>  <MODEL>
5

>  <REMARK>
 VINA RESULT:      -6.5      2.132      5.645
  Name = 
  10 active torsions:
  status: ('A' for Active; 'I' for Inactive)
    1  A    between atoms: C_6  and  C_10
    2  A    between atoms: C_6  and  C_42
    3  A    between atoms: C_8  and  C_21
    4  A    between atoms: C_10  and  C_22
    5  A    between atoms: C_14  and  C_16
    6  A    between atoms: C_14  and  C_37
    7  A    between atoms: O_20  and  C_36
    8  A    between atoms: C_24  and  N_26
    9  A    between atoms: C_24  and  C_32
   10  A    between atoms: C_24  and  N_38
                            x       y       z     vdW  Elec       q    Type
                         _______ _______ _______ _____ _____    ______ ____

>  <TORSDO>
F 10

$$$$
=
 OpenBabel10222420403D

 42 47  0  0  1  0  0  0  0  0999 V2000
  185.4770  176.4250  137.3680 C   0  0  1  0  0  3  0  0  0  0  0  0
  190.6340  176.3730  134.9020 C   0  0  0  0  0  1  0  0  0  0  0  0
  188.5940  177.6040  135.5330 C   0  0  0  0  0  2  0  0  0  0  0  0
  187.5850  177.0850  138.1910 C   0  0  2  0  0  3  0  0  0  0  0  0
  189.8060  177.7720  138.4950 C   0  0  0  0  0  2  0  0  0  0  0  0
  190.4600  177.1230  137.2840 C   0  0  0  0  0  0  0  0  0  0  0  0
  191.6240  176.6700  137.4610 O   0  0  0  0  0  0  0  0  0  0  0  0
  188.4190  178.2830  138.2150 C   0  0  2  0  0  3  0  0  0  0  0  0
  187.3820  176.7350  135.9110 C   0  0  0  0  0  2  0  0  0  0  0  0
  186.6560  177.2690  137.0840 N   0  0  0  0  0  0  0  0  0  0  0  0
  187.4370  178.0630  139.2830 N   0  0  0  0  0  2  0  0  0  0  0  0
  189.8520  176.9860  135.9650 N   0  0  0  0  0  0  0  0  0  0  0  0
  182.8810  177.2110  139.7020 C   0  0  0  0  0  2  0  0  0  0  0  0
  183.4370  175.1240  138.6670 O   0  0  0  0  0  1  0  0  0  0  0  0
  183.2610  178.6460  139.3850 C   0  0  2  0  0  3  0  0  0  0  0  0
  183.0950  176.4570  138.4090 C   0  0  2  0  0  3  0  0  0  0  0  0
  184.3670  178.5630  138.3490 C   0  0  0  0  0  2  0  0  0  0  0  0
  184.1790  177.2230  137.6480 C   0  0  1  0  0  3  0  0  0  0  0  0
  183.7580  179.3750  140.6290 C   0  0  0  0  0  2  0  0  0  0  0  0
  182.3800  178.8410  142.6580 C   0  0  0  0  0  2  0  0  0  0  0  0
  182.8360  178.9910  144.1050 C   0  0  0  0  0  2  0  0  0  0  0  0
  184.7580  178.7540  142.7630 N   0  0  1  0  0  0  0  0  0  0  0  0
  184.2150  178.3860  144.0520 C   0  0  1  0  0  3  0  0  0  0  0  0
  185.1930  178.7560  145.1230 C   0  0  0  0  0  0  0  0  0  0  0  0
  184.8560  179.3670  146.1280 O   0  0  0  0  0  0  0  0  0  0  0  0
  185.8860  177.8640  142.5050 C   0  0  0  0  0  2  0  0  0  0  0  0
  186.6110  178.2710  144.9440 C   0  0  2  0  0  3  0  0  0  0  0  0
  183.6440  178.4940  141.8660 C   0  0  2  0  0  3  0  0  0  0  0  0
  187.0330  178.2570  143.4540 C   0  0  0  0  0  2  0  0  0  0  0  0
  186.7350  176.9860  145.4830 O   0  0  0  0  0  0  0  0  0  0  0  0
  187.6380  177.1260  146.5420 C   0  0  0  0  0  1  0  0  0  0  0  0
  185.9550  173.5440  137.5090 O   0  0  0  0  0  0  0  0  0  0  0  0
  185.5580  174.0350  136.4150 C   0  0  0  0  0  0  0  0  0  0  0  0
  185.2130  175.4280  136.3230 N   0  0  0  0  0  2  0  0  0  0  0  0
  185.4420  173.1410  135.2090 C   0  0  1  0  0  3  0  0  0  0  0  0
  185.1480  171.7070  135.6170 C   0  0  0  0  0  2  0  0  0  0  0  0
  184.0430  172.5360  134.9860 C   0  0  1  0  0  3  0  0  0  0  0  0
  182.9960  172.9100  136.0430 C   0  0  1  0  0  3  0  0  0  0  0  0
  182.0470  173.7610  135.4670 O   0  0  0  0  0  1  0  0  0  0  0  0
  182.2900  171.6750  136.5770 C   0  0  0  0  0  2  0  0  0  0  0  0
  180.9880  172.0560  137.2700 C   0  0  0  0  0  2  0  0  0  0  0  0
  179.9770  171.1830  136.8670 O   0  0  0  0  0  1  0  0  0  0  0  0
  1 34  1  6  0  0  0
  2 12  1  0  0  0  0
  3  9  1  0  0  0  0
  3 12  1  0  0  0  0
  4  8  1  0  0  0  0
  4 11  1  1  0  0  0
  6  7  2  0  0  0  0
  6  5  1  0  0  0  0
  8  5  1  1  0  0  0
  8 11  1  0  0  0  0
  9 10  1  0  0  0  0
 10  1  1  0  0  0  0
 10  4  1  0  0  0  0
 12  6  1  0  0  0  0
 15 13  1  0  0  0  0
 15 19  1  1  0  0  0
 16 14  1  1  0  0  0
 16 13  1  0  0  0  0
 17 15  1  0  0  0  0
 18  1  1  1  0  0  0
 18 17  1  0  0  0  0
 18 16  1  0  0  0  0
 20 21  1  0  0  0  0
 22 26  1  6  0  0  0
 22 23  1  0  0  0  0
 23 21  1  1  0  0  0
 23 24  1  0  0  0  0
 24 25  2  0  0  0  0
 26 29  1  0  0  0  0
 27 24  1  0  0  0  0
 27 30  1  6  0  0  0
 28 19  1  6  0  0  0
 28 20  1  0  0  0  0
 28 22  1  0  0  0  0
 29 27  1  0  0  0  0
 30 31  1  0  0  0  0
 33 32  2  0  0  0  0
 34 33  1  0  0  0  0
 35 36  1  0  0  0  0
 35 33  1  1  0  0  0
 37 35  1  0  0  0  0
 37 36  1  0  0  0  0
 37 38  1  1  0  0  0
 38 39  1  6  0  0  0
 38 40  1  0  0  0  0
 40 41  1  0  0  0  0
 42 41  1  0  0  0  0
M  END
>  <MODEL>
6

>  <REMARK>
 VINA RESULT:      -6.5      2.589      5.074
  Name = 
  10 active torsions:
  status: ('A' for Active; 'I' for Inactive)
    1  A    between atoms: C_6  and  C_10
    2  A    between atoms: C_6  and  C_42
    3  A    between atoms: C_8  and  C_21
    4  A    between atoms: C_10  and  C_22
    5  A    between atoms: C_14  and  C_16
    6  A    between atoms: C_14  and  C_37
    7  A    between atoms: O_20  and  C_36
    8  A    between atoms: C_24  and  N_26
    9  A    between atoms: C_24  and  C_32
   10  A    between atoms: C_24  and  N_38
                            x       y       z     vdW  Elec       q    Type
                         _______ _______ _______ _____ _____    ______ ____

>  <TORSDO>
F 10

$$$$
=
 OpenBabel10222420403D

 42 47  0  0  1  0  0  0  0  0999 V2000
  189.9680  176.6310  138.6370 C   0  0  1  0  0  3  0  0  0  0  0  0
  194.7500  174.0620  136.8460 C   0  0  0  0  0  1  0  0  0  0  0  0
  192.2880  174.1340  136.9490 C   0  0  0  0  0  2  0  0  0  0  0  0
  191.0900  176.7360  136.5680 C   0  0  2  0  0  3  0  0  0  0  0  0
  192.4200  176.3820  134.6690 C   0  0  0  0  0  2  0  0  0  0  0  0
  193.6020  175.6570  135.2960 C   0  0  0  0  0  0  0  0  0  0  0  0
  194.7350  175.9280  134.8130 O   0  0  0  0  0  0  0  0  0  0  0  0
  191.1020  176.0180  135.2960 C   0  0  2  0  0  3  0  0  0  0  0  0
  191.6940  175.0490  138.0340 C   0  0  0  0  0  2  0  0  0  0  0  0
  190.5260  175.8120  137.5420 N   0  0  0  0  0  0  0  0  0  0  0  0
  190.1650  177.1300  135.4910 N   0  0  0  0  0  2  0  0  0  0  0  0
  193.5220  174.6970  136.3910 N   0  0  0  0  0  0  0  0  0  0  0  0
  187.1900  178.2910  137.1110 C   0  0  0  0  0  2  0  0  0  0  0  0
  188.9810  179.1860  138.4260 O   0  0  0  0  0  1  0  0  0  0  0  0
  186.6720  176.8790  136.9090 C   0  0  2  0  0  3  0  0  0  0  0  0
  187.9420  178.2460  138.4220 C   0  0  2  0  0  3  0  0  0  0  0  0
  187.7110  175.9640  137.5320 C   0  0  0  0  0  2  0  0  0  0  0  0
  188.4300  176.8050  138.5790 C   0  0  1  0  0  3  0  0  0  0  0  0
  186.5070  176.5570  135.4270 C   0  0  0  0  0  2  0  0  0  0  0  0
  184.0630  177.1180  135.3010 C   0  0  0  0  0  2  0  0  0  0  0  0
  182.9660  176.5060  136.1640 C   0  0  0  0  0  2  0  0  0  0  0  0
  184.7680  174.9880  136.1010 N   0  0  1  0  0  0  0  0  0  0  0  0
  183.3220  175.0420  136.1120 C   0  0  1  0  0  3  0  0  0  0  0  0
  182.8040  174.1470  137.1940 C   0  0  0  0  0  0  0  0  0  0  0  0
  181.9570  174.5200  137.9950 O   0  0  0  0  0  0  0  0  0  0  0  0
  185.1410  173.6550  135.6380 C   0  0  0  0  0  2  0  0  0  0  0  0
  183.3200  172.7290  137.2080 C   0  0  2  0  0  3  0  0  0  0  0  0
  185.1130  176.0160  135.1330 C   0  0  2  0  0  3  0  0  0  0  0  0
  184.7970  172.6470  136.7500 C   0  0  0  0  0  2  0  0  0  0  0  0
  182.5220  171.9360  136.3760 O   0  0  0  0  0  0  0  0  0  0  0  0
  183.1650  170.6950  136.3390 C   0  0  0  0  0  1  0  0  0  0  0  0
  190.5780  178.2500  140.9950 O   0  0  0  0  0  0  0  0  0  0  0  0
  190.7300  176.9980  141.0690 C   0  0  0  0  0  0  0  0  0  0  0  0
  190.3470  176.1500  139.9730 N   0  0  0  0  0  2  0  0  0  0  0  0
  191.3070  176.4030  142.3260 C   0  0  1  0  0  3  0  0  0  0  0  0
  191.3810  177.4360  143.4380 C   0  0  0  0  0  2  0  0  0  0  0  0
  190.3330  176.3400  143.5180 C   0  0  1  0  0  3  0  0  0  0  0  0
  188.9390  176.9230  143.2510 C   0  0  1  0  0  3  0  0  0  0  0  0
  188.0130  175.8780  143.1710 O   0  0  0  0  0  1  0  0  0  0  0  0
  188.5190  177.8710  144.3620 C   0  0  0  0  0  2  0  0  0  0  0  0
  188.5650  177.1700  145.7140 C   0  0  0  0  0  2  0  0  0  0  0  0
  189.3830  177.8920  146.5820 O   0  0  0  0  0  1  0  0  0  0  0  0
  1 34  1  1  0  0  0
  3  9  1  0  0  0  0
  4 11  1  6  0  0  0
  4 10  1  0  0  0  0
  5  6  1  0  0  0  0
  6 12  1  0  0  0  0
  7  6  2  0  0  0  0
  8  5  1  6  0  0  0
  8 11  1  0  0  0  0
  8  4  1  0  0  0  0
 10  9  1  0  0  0  0
 10  1  1  0  0  0  0
 12  2  1  0  0  0  0
 12  3  1  0  0  0  0
 13 16  1  0  0  0  0
 15 19  1  6  0  0  0
 15 13  1  0  0  0  0
 15 17  1  0  0  0  0
 16 14  1  6  0  0  0
 16 18  1  0  0  0  0
 17 18  1  0  0  0  0
 18  1  1  6  0  0  0
 20 21  1  0  0  0  0
 22 26  1  6  0  0  0
 22 23  1  0  0  0  0
 23 21  1  1  0  0  0
 23 24  1  0  0  0  0
 24 27  1  0  0  0  0
 24 25  2  0  0  0  0
 26 29  1  0  0  0  0
 27 30  1  6  0  0  0
 28 20  1  0  0  0  0
 28 19  1  1  0  0  0
 28 22  1  0  0  0  0
 29 27  1  0  0  0  0
 31 30  1  0  0  0  0
 32 33  2  0  0  0  0
 34 33  1  0  0  0  0
 35 33  1  6  0  0  0
 35 36  1  0  0  0  0
 35 37  1  0  0  0  0
 36 37  1  0  0  0  0
 37 38  1  6  0  0  0
 38 39  1  1  0  0  0
 38 40  1  0  0  0  0
 40 41  1  0  0  0  0
 41 42  1  0  0  0  0
M  END
>  <MODEL>
7

>  <REMARK>
 VINA RESULT:      -6.5      3.397      9.613
  Name = 
  10 active torsions:
  status: ('A' for Active; 'I' for Inactive)
    1  A    between atoms: C_6  and  C_10
    2  A    between atoms: C_6  and  C_42
    3  A    between atoms: C_8  and  C_21
    4  A    between atoms: C_10  and  C_22
    5  A    between atoms: C_14  and  C_16
    6  A    between atoms: C_14  and  C_37
    7  A    between atoms: O_20  and  C_36
    8  A    between atoms: C_24  and  N_26
    9  A    between atoms: C_24  and  C_32
   10  A    between atoms: C_24  and  N_38
                            x       y       z     vdW  Elec       q    Type
                         _______ _______ _______ _____ _____    ______ ____

>  <TORSDO>
F 10

$$$$
=
 OpenBabel10222420403D

 42 47  0  0  1  0  0  0  0  0999 V2000
  188.2210  177.9670  138.7800 C   0  0  1  0  0  3  0  0  0  0  0  0
  188.7610  178.2540  144.4630 C   0  0  0  0  0  1  0  0  0  0  0  0
  188.5550  176.8980  142.4150 C   0  0  0  0  0  2  0  0  0  0  0  0
  190.1250  177.7860  140.1570 C   0  0  2  0  0  3  0  0  0  0  0  0
  191.6620  177.4920  141.9030 C   0  0  0  0  0  2  0  0  0  0  0  0
  190.8300  177.9740  143.0820 C   0  0  0  0  0  0  0  0  0  0  0  0
  191.4530  178.6120  143.9740 O   0  0  0  0  0  0  0  0  0  0  0  0
  190.8560  176.7460  140.8750 C   0  0  2  0  0  3  0  0  0  0  0  0
  188.0470  177.6460  141.1700 C   0  0  0  0  0  2  0  0  0  0  0  0
  188.7840  177.2580  139.9470 N   0  0  0  0  0  0  0  0  0  0  0  0
  191.1930  177.0330  139.4760 N   0  0  0  0  0  2  0  0  0  0  0  0
  189.3970  177.7600  143.2510 N   0  0  0  0  0  0  0  0  0  0  0  0
  189.7830  176.5010  135.9140 C   0  0  0  0  0  2  0  0  0  0  0  0
  189.4370  178.8060  136.4640 O   0  0  0  0  0  1  0  0  0  0  0  0
  189.1770  175.2160  136.4500 C   0  0  2  0  0  3  0  0  0  0  0  0
  188.7870  177.5800  136.2720 C   0  0  2  0  0  3  0  0  0  0  0  0
  188.4070  175.6100  137.6970 C   0  0  0  0  0  2  0  0  0  0  0  0
  188.0550  177.0820  137.5200 C   0  0  1  0  0  3  0  0  0  0  0  0
  190.2580  174.1970  136.7970 C   0  0  0  0  0  2  0  0  0  0  0  0
  191.5050  173.2540  134.8330 C   0  0  0  0  0  2  0  0  0  0  0  0
  192.9230  172.6940  134.8680 C   0  0  0  0  0  2  0  0  0  0  0  0
  192.6920  174.1900  136.6750 N   0  0  1  0  0  0  0  0  0  0  0  0
  193.6410  173.7420  135.6800 C   0  0  1  0  0  3  0  0  0  0  0  0
  194.9200  173.3600  136.3570 C   0  0  0  0  0  0  0  0  0  0  0  0
  195.4920  172.3040  136.1180 O   0  0  0  0  0  0  0  0  0  0  0  0
  193.1860  175.4620  137.1940 C   0  0  0  0  0  2  0  0  0  0  0  0
  195.5210  174.3750  137.2980 C   0  0  2  0  0  3  0  0  0  0  0  0
  191.4760  174.3570  135.8960 C   0  0  2  0  0  3  0  0  0  0  0  0
  194.4320  175.1760  138.0530 C   0  0  0  0  0  2  0  0  0  0  0  0
  196.3380  175.2520  136.5770 O   0  0  0  0  0  0  0  0  0  0  0  0
  197.6450  174.8820  136.9110 C   0  0  0  0  0  1  0  0  0  0  0  0
  185.5370  177.0420  138.0800 O   0  0  0  0  0  0  0  0  0  0  0  0
  185.6610  178.1800  138.6130 C   0  0  0  0  0  0  0  0  0  0  0  0
  186.9460  178.6370  139.0680 N   0  0  0  0  0  2  0  0  0  0  0  0
  184.4430  179.0500  138.7760 C   0  0  1  0  0  3  0  0  0  0  0  0
  183.3210  178.2970  139.4720 C   0  0  0  0  0  2  0  0  0  0  0  0
  184.0710  179.3740  140.2360 C   0  0  1  0  0  3  0  0  0  0  0  0
  184.9780  178.7350  141.2960 C   0  0  1  0  0  3  0  0  0  0  0  0
  185.6590  179.7440  141.9840 O   0  0  0  0  0  1  0  0  0  0  0  0
  184.1680  177.9190  142.2890 C   0  0  0  0  0  2  0  0  0  0  0  0
  183.6380  178.8060  143.4090 C   0  0  0  0  0  2  0  0  0  0  0  0
  182.2650  178.9900  143.2420 O   0  0  0  0  0  1  0  0  0  0  0  0
  1 34  1  1  0  0  0
  1 10  1  0  0  0  0
  3 12  1  0  0  0  0
  4 11  1  6  0  0  0
  4  8  1  0  0  0  0
  5  6  1  0  0  0  0
  6 12  1  0  0  0  0
  6  7  2  0  0  0  0
  8  5  1  1  0  0  0
  9  3  1  0  0  0  0
 10  4  1  0  0  0  0
 10  9  1  0  0  0  0
 11  8  1  0  0  0  0
 12  2  1  0  0  0  0
 13 16  1  0  0  0  0
 13 15  1  0  0  0  0
 15 19  1  1  0  0  0
 15 17  1  0  0  0  0
 16 14  1  1  0  0  0
 16 18  1  0  0  0  0
 18 17  1  0  0  0  0
 18  1  1  1  0  0  0
 20 21  1  0  0  0  0
 20 28  1  0  0  0  0
 22 26  1  6  0  0  0
 23 21  1  1  0  0  0
 23 24  1  0  0  0  0
 23 22  1  0  0  0  0
 24 27  1  0  0  0  0
 25 24  2  0  0  0  0
 26 29  1  0  0  0  0
 27 30  1  6  0  0  0
 27 29  1  0  0  0  0
 28 22  1  0  0  0  0
 28 19  1  1  0  0  0
 30 31  1  0  0  0  0
 32 33  2  0  0  0  0
 33 34  1  0  0  0  0
 35 33  1  1  0  0  0
 35 36  1  0  0  0  0
 35 37  1  0  0  0  0
 36 37  1  0  0  0  0
 37 38  1  1  0  0  0
 38 39  1  1  0  0  0
 38 40  1  0  0  0  0
 40 41  1  0  0  0  0
 42 41  1  0  0  0  0
M  END
>  <MODEL>
8

>  <REMARK>
 VINA RESULT:      -6.4      4.397      8.175
  Name = 
  10 active torsions:
  status: ('A' for Active; 'I' for Inactive)
    1  A    between atoms: C_6  and  C_10
    2  A    between atoms: C_6  and  C_42
    3  A    between atoms: C_8  and  C_21
    4  A    between atoms: C_10  and  C_22
    5  A    between atoms: C_14  and  C_16
    6  A    between atoms: C_14  and  C_37
    7  A    between atoms: O_20  and  C_36
    8  A    between atoms: C_24  and  N_26
    9  A    between atoms: C_24  and  C_32
   10  A    between atoms: C_24  and  N_38
                            x       y       z     vdW  Elec       q    Type
                         _______ _______ _______ _____ _____    ______ ____

>  <TORSDO>
F 10

$$$$
=
 OpenBabel10222420403D

 42 47  0  0  1  0  0  0  0  0999 V2000
  187.7540  176.2570  137.5530 C   0  0  1  0  0  3  0  0  0  0  0  0
  189.3700  171.4940  134.8370 C   0  0  0  0  0  1  0  0  0  0  0  0
  188.2700  173.6990  134.7850 C   0  0  0  0  0  2  0  0  0  0  0  0
  189.6340  175.8170  136.2020 C   0  0  2  0  0  3  0  0  0  0  0  0
  191.2050  174.9800  134.6750 C   0  0  0  0  0  2  0  0  0  0  0  0
  190.8650  173.4980  134.7190 C   0  0  0  0  0  0  0  0  0  0  0  0
  191.8410  172.7040  134.6340 O   0  0  0  0  0  0  0  0  0  0  0  0
  189.9960  175.8690  134.7880 C   0  0  2  0  0  3  0  0  0  0  0  0
  187.8950  174.2880  136.1560 C   0  0  0  0  0  2  0  0  0  0  0  0
  188.1800  175.7380  136.2370 N   0  0  0  0  0  0  0  0  0  0  0  0
  190.1650  177.0630  135.6230 N   0  0  0  0  0  2  0  0  0  0  0  0
  189.5240  172.9410  134.8530 N   0  0  0  0  0  0  0  0  0  0  0  0
  188.6880  178.7180  139.9770 C   0  0  0  0  0  2  0  0  0  0  0  0
  187.7840  178.9940  137.7760 O   0  0  0  0  0  1  0  0  0  0  0  0
  189.3340  177.5380  140.6790 C   0  0  2  0  0  3  0  0  0  0  0  0
  188.8370  178.4220  138.5010 C   0  0  2  0  0  3  0  0  0  0  0  0
  189.0880  176.3370  139.7850 C   0  0  0  0  0  2  0  0  0  0  0  0
  188.8960  176.8980  138.3810 C   0  0  1  0  0  3  0  0  0  0  0  0
  188.7170  177.3060  142.0540 C   0  0  0  0  0  2  0  0  0  0  0  0
  190.9490  178.1670  142.8140 C   0  0  0  0  0  2  0  0  0  0  0  0
  191.6550  177.7810  144.1100 C   0  0  0  0  0  2  0  0  0  0  0  0
  189.3460  177.4120  144.4070 N   0  0  1  0  0  0  0  0  0  0  0  0
  190.5270  177.8700  145.1060 C   0  0  1  0  0  3  0  0  0  0  0  0
  190.6580  177.1190  146.3940 C   0  0  0  0  0  0  0  0  0  0  0  0
  191.7130  176.6060  146.7420 O   0  0  0  0  0  0  0  0  0  0  0  0
  188.1910  177.8660  145.1760 C   0  0  0  0  0  2  0  0  0  0  0  0
  189.4440  177.0890  147.2900 C   0  0  2  0  0  3  0  0  0  0  0  0
  189.4520  178.0970  143.1290 C   0  0  2  0  0  3  0  0  0  0  0  0
  188.1280  177.0430  146.4750 C   0  0  0  0  0  2  0  0  0  0  0  0
  189.4480  178.2160  148.1180 O   0  0  0  0  0  0  0  0  0  0  0  0
  188.1890  178.2190  148.7270 C   0  0  0  0  0  1  0  0  0  0  0  0
  184.9000  175.6300  137.6550 O   0  0  0  0  0  0  0  0  0  0  0  0
  185.2460  176.8230  137.4270 C   0  0  0  0  0  0  0  0  0  0  0  0
  186.6320  177.2020  137.4680 N   0  0  0  0  0  2  0  0  0  0  0  0
  184.1860  177.8490  137.1230 C   0  0  1  0  0  3  0  0  0  0  0  0
  182.9060  177.5570  137.8890 C   0  0  0  0  0  2  0  0  0  0  0  0
  183.7730  178.7260  138.3210 C   0  0  1  0  0  3  0  0  0  0  0  0
  184.4800  178.3970  139.6430 C   0  0  1  0  0  3  0  0  0  0  0  0
  184.9420  179.5830  140.2220 O   0  0  0  0  0  1  0  0  0  0  0  0
  183.5350  177.7090  140.6130 C   0  0  0  0  0  2  0  0  0  0  0  0
  183.1790  178.6360  141.7680 C   0  0  0  0  0  2  0  0  0  0  0  0
  181.9040  179.1640  141.5630 O   0  0  0  0  0  1  0  0  0  0  0  0
  1 34  1  6  0  0  0
  2 12  1  0  0  0  0
  3 12  1  0  0  0  0
  3  9  1  0  0  0  0
  4 11  1  1  0  0  0
  4 10  1  0  0  0  0
  5  6  1  0  0  0  0
  6 12  1  0  0  0  0
  7  6  2  0  0  0  0
  8  5  1  1  0  0  0
  8 11  1  0  0  0  0
  8  4  1  0  0  0  0
  9 10  1  0  0  0  0
 10  1  1  0  0  0  0
 13 15  1  0  0  0  0
 15 19  1  1  0  0  0
 16 14  1  6  0  0  0
 16 13  1  0  0  0  0
 17 15  1  0  0  0  0
 18  1  1  1  0  0  0
 18 16  1  0  0  0  0
 18 17  1  0  0  0  0
 20 28  1  0  0  0  0
 20 21  1  0  0  0  0
 22 23  1  0  0  0  0
 22 26  1  1  0  0  0
 23 21  1  6  0  0  0
 23 24  1  0  0  0  0
 24 25  2  0  0  0  0
 24 27  1  0  0  0  0
 26 29  1  0  0  0  0
 27 30  1  6  0  0  0
 28 19  1  6  0  0  0
 28 22  1  0  0  0  0
 29 27  1  0  0  0  0
 30 31  1  0  0  0  0
 33 34  1  0  0  0  0
 33 32  2  0  0  0  0
 35 33  1  1  0  0  0
 35 36  1  0  0  0  0
 35 37  1  0  0  0  0
 36 37  1  0  0  0  0
 37 38  1  1  0  0  0
 38 39  1  1  0  0  0
 38 40  1  0  0  0  0
 40 41  1  0  0  0  0
 42 41  1  0  0  0  0
M  END
>  <MODEL>
9

>  <REMARK>
 VINA RESULT:      -6.3      2.363      5.960
  Name = 
  10 active torsions:
  status: ('A' for Active; 'I' for Inactive)
    1  A    between atoms: C_6  and  C_10
    2  A    between atoms: C_6  and  C_42
    3  A    between atoms: C_8  and  C_21
    4  A    between atoms: C_10  and  C_22
    5  A    between atoms: C_14  and  C_16
    6  A    between atoms: C_14  and  C_37
    7  A    between atoms: O_20  and  C_36
    8  A    between atoms: C_24  and  N_26
    9  A    between atoms: C_24  and  C_32
   10  A    between atoms: C_24  and  N_38
                            x       y       z     vdW  Elec       q    Type
                         _______ _______ _______ _____ _____    ______ ____

>  <TORSDO>
F 10

$$$$
