=
 OpenBabel10222415483D

 31 34  0  0  1  0  0  0  0  0999 V2000
  189.0440  177.0420  140.6550 C   0  0  1  0  0  3  0  0  0  0  0  0
  188.9160  177.4130  143.3760 N   0  0  0  0  0  0  0  0  0  0  0  0
  187.1300  178.4550  140.4670 C   0  0  0  0  0  2  0  0  0  0  0  0
  188.5390  177.3640  142.1540 C   0  0  0  0  0  0  0  0  0  0  0  0
  188.4650  178.2230  139.9090 C   0  0  2  0  0  3  0  0  0  0  0  0
  187.4060  178.0910  141.9430 C   0  0  2  0  0  3  0  0  0  0  0  0
  190.0900  177.4700  145.4050 C   0  0  0  0  0  3  0  0  0  0  0  0
  192.5090  175.1150  146.8720 O   0  0  0  0  0  1  0  0  0  0  0  0
  192.5090  174.1780  144.5590 O   0  0  0  0  0  1  0  0  0  0  0  0
  190.0840  177.1250  144.0220 C   0  0  0  0  0  0  0  0  0  0  0  0
  191.8220  175.8470  145.8880 C   0  0  0  0  0  0  0  0  0  0  0  0
  191.0730  177.2320  147.7380 C   0  0  0  0  0  1  0  0  0  0  0  0
  191.8310  175.4370  144.6290 C   0  0  0  0  0  0  0  0  0  0  0  0
  191.0110  176.0930  143.5880 C   0  0  0  0  0  3  0  0  0  0  0  0
  190.9840  176.8980  146.3240 C   0  0  0  0  0  0  0  0  0  0  0  0
  186.4600  178.0160  143.0410 C   0  0  0  0  0  0  0  0  0  0  0  0
  186.5480  178.1460  144.5090 C   0  0  0  0  0  3  0  0  0  0  0  0
  184.4360  178.2710  141.6230 C   0  0  0  0  0  3  0  0  0  0  0  0
  184.5630  178.4660  143.8810 N   0  0  0  0  0  0  0  0  0  0  0  0
  183.1400  178.5400  142.1510 C   0  0  0  0  0  3  0  0  0  0  0  0
  185.2810  178.4120  144.9960 N   0  0  0  0  0  2  0  0  0  0  0  0
  185.1940  178.2360  142.8240 C   0  0  0  0  0  0  0  0  0  0  0  0
  182.2220  179.0250  144.4010 N   0  0  0  0  0  1  0  0  0  0  0  0
  183.2920  178.7200  143.4740 C   0  0  0  0  0  0  0  0  0  0  0  0
  188.6340  178.3120  138.4340 C   0  0  0  0  0  0  0  0  0  0  0  0
  187.9370  177.2140  137.6530 C   0  0  0  0  0  1  0  0  0  0  0  0
  189.1150  179.2630  137.9140 O   0  0  0  0  0  0  0  0  0  0  0  0
  190.7280  175.9380  139.1840 O   0  0  0  0  0  1  0  0  0  0  0  0
  190.4810  176.6310  140.3890 C   0  0  1  0  0  3  0  0  0  0  0  0
  192.6870  177.4710  140.2890 O   0  0  0  0  0  1  0  0  0  0  0  0
  191.3570  177.8410  140.4820 C   0  0  0  0  0  2  0  0  0  0  0  0
  1 29  1  1  0  0  0
  1  4  1  0  0  0  0
  2 10  1  0  0  0  0
  3  6  1  0  0  0  0
  4  2  2  0  0  0  0
  5 25  1  6  0  0  0
  5  3  1  0  0  0  0
  5  1  1  0  0  0  0
  6  4  1  0  0  0  0
  6 16  1  6  0  0  0
  7 15  1  0  0  0  0
  9 13  1  0  0  0  0
 10  7  2  0  0  0  0
 11 15  2  0  0  0  0
 11  8  1  0  0  0  0
 13 11  1  0  0  0  0
 14 10  1  0  0  0  0
 14 13  2  0  0  0  0
 15 12  1  0  0  0  0
 16 17  2  0  0  0  0
 17 21  1  0  0  0  0
 18 20  1  0  0  0  0
 18 22  2  0  0  0  0
 19 21  1  0  0  0  0
 20 24  2  0  0  0  0
 22 16  1  0  0  0  0
 22 19  1  0  0  0  0
 24 19  1  0  0  0  0
 24 23  1  0  0  0  0
 26 25  1  0  0  0  0
 27 25  2  0  0  0  0
 29 28  1  6  0  0  0
 29 31  1  0  0  0  0
 30 31  1  0  0  0  0
M  END
>  <MODEL>
1

>  <REMARK>
 VINA RESULT:      -9.0      0.000      0.000
  Name = 
  5 active torsions:
  status: ('A' for Active; 'I' for Inactive)
    1  A    between atoms: C_3  and  C_31
    2  A    between atoms: C_6  and  C_28
    3  A    between atoms: C_9  and  C_27
    4  A    between atoms: C_11  and  N_21
    5  A    between atoms: C_26  and  C_27
                            x       y       z     vdW  Elec       q    Type
                         _______ _______ _______ _____ _____    ______ ____

>  <TORSDO>
F 5

$$$$
=
 OpenBabel10222415483D

 31 34  0  0  1  0  0  0  0  0999 V2000
  189.6610  178.3460  143.7070 C   0  0  1  0  0  3  0  0  0  0  0  0
  188.2160  178.1430  141.3770 N   0  0  0  0  0  0  0  0  0  0  0  0
  187.7640  177.4570  144.8500 C   0  0  0  0  0  2  0  0  0  0  0  0
  188.4650  178.2310  142.6290 C   0  0  0  0  0  0  0  0  0  0  0  0
  189.2170  177.3180  144.7230 C   0  0  2  0  0  3  0  0  0  0  0  0
  187.4140  177.8060  143.3860 C   0  0  2  0  0  3  0  0  0  0  0  0
  189.6970  176.9390  140.0140 C   0  0  0  0  0  3  0  0  0  0  0  0
  190.1390  176.9000  136.3600 O   0  0  0  0  0  1  0  0  0  0  0  0
  188.7180  178.9480  136.4910 O   0  0  0  0  0  1  0  0  0  0  0  0
  188.9900  178.1550  140.2520 C   0  0  0  0  0  0  0  0  0  0  0  0
  189.8660  177.4060  137.6430 C   0  0  0  0  0  0  0  0  0  0  0  0
  190.9550  175.3870  138.4420 C   0  0  0  0  0  1  0  0  0  0  0  0
  189.1670  178.5210  137.7820 C   0  0  0  0  0  0  0  0  0  0  0  0
  188.7360  179.0130  139.1070 C   0  0  0  0  0  3  0  0  0  0  0  0
  190.1920  176.5880  138.7480 C   0  0  0  0  0  0  0  0  0  0  0  0
  186.1220  178.1670  142.8330 C   0  0  0  0  0  0  0  0  0  0  0  0
  185.4180  177.9070  141.5620 C   0  0  0  0  0  3  0  0  0  0  0  0
  185.1170  178.8340  145.0060 C   0  0  0  0  0  3  0  0  0  0  0  0
  184.0290  178.4410  143.0530 N   0  0  0  0  0  0  0  0  0  0  0  0
  183.7220  179.0590  145.1860 C   0  0  0  0  0  3  0  0  0  0  0  0
  184.0660  178.1270  141.7640 N   0  0  0  0  0  2  0  0  0  0  0  0
  185.1390  178.4800  143.6300 C   0  0  0  0  0  0  0  0  0  0  0  0
  181.7020  178.8130  143.7710 N   0  0  0  0  0  1  0  0  0  0  0  0
  183.1260  178.7380  144.0250 C   0  0  0  0  0  0  0  0  0  0  0  0
  190.0150  177.1230  145.9630 C   0  0  0  0  0  0  0  0  0  0  0  0
  189.3720  177.6820  147.2190 C   0  0  0  0  0  1  0  0  0  0  0  0
  190.9750  176.4280  145.9890 O   0  0  0  0  0  0  0  0  0  0  0  0
  192.0470  178.8950  144.1770 O   0  0  0  0  0  1  0  0  0  0  0  0
  191.1110  178.3680  143.2610 C   0  0  1  0  0  3  0  0  0  0  0  0
  192.4280  177.0620  141.7960 O   0  0  0  0  0  1  0  0  0  0  0  0
  191.5120  176.9870  142.8440 C   0  0  0  0  0  2  0  0  0  0  0  0
  1 29  1  6  0  0  0
  1  5  1  0  0  0  0
  2  4  2  0  0  0  0
  4  6  1  0  0  0  0
  4  1  1  0  0  0  0
  5  3  1  0  0  0  0
  5 25  1  1  0  0  0
  6 16  1  1  0  0  0
  6  3  1  0  0  0  0
  7 10  1  0  0  0  0
  8 11  1  0  0  0  0
  9 13  1  0  0  0  0
 10  2  1  0  0  0  0
 11 13  2  0  0  0  0
 11 15  1  0  0  0  0
 12 15  1  0  0  0  0
 13 14  1  0  0  0  0
 14 10  2  0  0  0  0
 15  7  2  0  0  0  0
 16 22  1  0  0  0  0
 17 21  1  0  0  0  0
 17 16  2  0  0  0  0
 18 20  1  0  0  0  0
 19 22  1  0  0  0  0
 19 24  1  0  0  0  0
 21 19  1  0  0  0  0
 22 18  2  0  0  0  0
 23 24  1  0  0  0  0
 24 20  2  0  0  0  0
 25 27  2  0  0  0  0
 25 26  1  0  0  0  0
 29 28  1  1  0  0  0
 30 31  1  0  0  0  0
 31 29  1  0  0  0  0
M  END
>  <MODEL>
2

>  <REMARK>
 VINA RESULT:      -8.9      1.667      5.637
  Name = 
  5 active torsions:
  status: ('A' for Active; 'I' for Inactive)
    1  A    between atoms: C_3  and  C_31
    2  A    between atoms: C_6  and  C_28
    3  A    between atoms: C_9  and  C_27
    4  A    between atoms: C_11  and  N_21
    5  A    between atoms: C_26  and  C_27
                            x       y       z     vdW  Elec       q    Type
                         _______ _______ _______ _____ _____    ______ ____

>  <TORSDO>
F 5

$$$$
=
 OpenBabel10222415483D

 31 34  0  0  1  0  0  0  0  0999 V2000
  189.9640  177.7680  144.4280 C   0  0  1  0  0  3  0  0  0  0  0  0
  189.4510  177.4160  141.7500 N   0  0  0  0  0  0  0  0  0  0  0  0
  187.6040  177.7450  144.7860 C   0  0  0  0  0  2  0  0  0  0  0  0
  189.2610  177.7320  142.9750 C   0  0  0  0  0  0  0  0  0  0  0  0
  188.8630  177.1810  145.2820 C   0  0  2  0  0  3  0  0  0  0  0  0
  187.9340  177.8120  143.2780 C   0  0  2  0  0  3  0  0  0  0  0  0
  190.1890  176.3970  139.7710 C   0  0  0  0  0  3  0  0  0  0  0  0
  193.2700  176.8610  137.8100 O   0  0  0  0  0  1  0  0  0  0  0  0
  194.0130  178.0640  139.8660 O   0  0  0  0  0  1  0  0  0  0  0  0
  190.5210  176.9400  141.0470 C   0  0  0  0  0  0  0  0  0  0  0  0
  192.4310  176.7790  138.9340 C   0  0  0  0  0  0  0  0  0  0  0  0
  190.8760  175.6690  137.4340 C   0  0  0  0  0  1  0  0  0  0  0  0
  192.7920  177.3450  140.0750 C   0  0  0  0  0  0  0  0  0  0  0  0
  191.8840  177.4060  141.2400 C   0  0  0  0  0  3  0  0  0  0  0  0
  191.1340  176.2500  138.7430 C   0  0  0  0  0  0  0  0  0  0  0  0
  187.1310  178.3720  142.2070 C   0  0  0  0  0  0  0  0  0  0  0  0
  187.2980  178.5390  140.7500 C   0  0  0  0  0  3  0  0  0  0  0  0
  185.0050  178.3850  143.4930 C   0  0  0  0  0  3  0  0  0  0  0  0
  185.2560  178.6460  141.2520 N   0  0  0  0  0  0  0  0  0  0  0  0
  183.7300  178.5970  142.8940 C   0  0  0  0  0  3  0  0  0  0  0  0
  186.0480  178.7380  140.1920 N   0  0  0  0  0  2  0  0  0  0  0  0
  185.8380  178.4650  142.3460 C   0  0  0  0  0  0  0  0  0  0  0  0
  182.8980  178.8700  140.5750 N   0  0  0  0  0  1  0  0  0  0  0  0
  183.9340  178.6680  141.5670 C   0  0  0  0  0  0  0  0  0  0  0  0
  189.0540  177.0780  146.7530 C   0  0  0  0  0  0  0  0  0  0  0  0
  188.3490  178.1560  147.5560 C   0  0  0  0  0  1  0  0  0  0  0  0
  189.5570  176.1300  147.2560 O   0  0  0  0  0  0  0  0  0  0  0  0
  191.9910  177.5470  145.8630 O   0  0  0  0  0  1  0  0  0  0  0  0
  191.3880  177.2770  144.6150 C   0  0  1  0  0  3  0  0  0  0  0  0
  192.1470  175.1550  145.3260 O   0  0  0  0  0  1  0  0  0  0  0  0
  191.4380  175.8100  144.3200 C   0  0  0  0  0  2  0  0  0  0  0  0
  1 29  1  6  0  0  0
  1  5  1  0  0  0  0
  2  4  2  0  0  0  0
  3  5  1  0  0  0  0
  4  6  1  0  0  0  0
  4  1  1  0  0  0  0
  5 25  1  1  0  0  0
  6 16  1  1  0  0  0
  6  3  1  0  0  0  0
  7 10  1  0  0  0  0
  8 11  1  0  0  0  0
  9 13  1  0  0  0  0
 10 14  2  0  0  0  0
 10  2  1  0  0  0  0
 11 13  2  0  0  0  0
 12 15  1  0  0  0  0
 13 14  1  0  0  0  0
 15 11  1  0  0  0  0
 15  7  2  0  0  0  0
 16 22  1  0  0  0  0
 17 16  2  0  0  0  0
 19 24  1  0  0  0  0
 19 22  1  0  0  0  0
 20 18  1  0  0  0  0
 21 17  1  0  0  0  0
 21 19  1  0  0  0  0
 22 18  2  0  0  0  0
 23 24  1  0  0  0  0
 24 20  2  0  0  0  0
 25 27  2  0  0  0  0
 25 26  1  0  0  0  0
 29 28  1  1  0  0  0
 31 29  1  0  0  0  0
 31 30  1  0  0  0  0
M  END
>  <MODEL>
3

>  <REMARK>
 VINA RESULT:      -8.9      1.984      5.522
  Name = 
  5 active torsions:
  status: ('A' for Active; 'I' for Inactive)
    1  A    between atoms: C_3  and  C_31
    2  A    between atoms: C_6  and  C_28
    3  A    between atoms: C_9  and  C_27
    4  A    between atoms: C_11  and  N_21
    5  A    between atoms: C_26  and  C_27
                            x       y       z     vdW  Elec       q    Type
                         _______ _______ _______ _____ _____    ______ ____

>  <TORSDO>
F 5

$$$$
=
 OpenBabel10222415483D

 31 34  0  0  1  0  0  0  0  0999 V2000
  188.4500  178.2280  140.7470 C   0  0  1  0  0  3  0  0  0  0  0  0
  186.0260  178.0820  142.0360 N   0  0  0  0  0  0  0  0  0  0  0  0
  189.4070  177.1010  142.6210 C   0  0  0  0  0  2  0  0  0  0  0  0
  187.2940  178.0950  141.8660 C   0  0  0  0  0  0  0  0  0  0  0  0
  189.3610  177.0920  141.1570 C   0  0  2  0  0  3  0  0  0  0  0  0
  187.9520  177.5290  142.9170 C   0  0  2  0  0  3  0  0  0  0  0  0
  183.6900  178.0360  141.8290 C   0  0  0  0  0  3  0  0  0  0  0  0
  181.3930  180.1090  139.8350 O   0  0  0  0  0  1  0  0  0  0  0  0
  183.5110  180.8050  138.7130 O   0  0  0  0  0  1  0  0  0  0  0  0
  184.9550  178.2430  141.2040 C   0  0  0  0  0  0  0  0  0  0  0  0
  182.5590  179.4030  140.1800 C   0  0  0  0  0  0  0  0  0  0  0  0
  181.1670  178.3410  141.8630 C   0  0  0  0  0  1  0  0  0  0  0  0
  183.7060  179.6820  139.5810 C   0  0  0  0  0  0  0  0  0  0  0  0
  184.9810  179.0680  140.0070 C   0  0  0  0  0  3  0  0  0  0  0  0
  182.4930  178.5450  141.3010 C   0  0  0  0  0  0  0  0  0  0  0  0
  187.3460  177.8230  144.2030 C   0  0  0  0  0  0  0  0  0  0  0  0
  185.9730  177.7930  144.7440 C   0  0  0  0  0  3  0  0  0  0  0  0
  189.4750  177.7600  145.4830 C   0  0  0  0  0  3  0  0  0  0  0  0
  187.3670  177.7200  146.3220 N   0  0  0  0  0  0  0  0  0  0  0  0
  189.5310  177.7230  146.9060 C   0  0  0  0  0  3  0  0  0  0  0  0
  186.0550  177.7520  146.1250 N   0  0  0  0  0  2  0  0  0  0  0  0
  188.0680  177.7740  145.2870 C   0  0  0  0  0  0  0  0  0  0  0  0
  187.8610  177.5480  148.7290 N   0  0  0  0  0  1  0  0  0  0  0  0
  188.2630  177.6230  147.3400 C   0  0  0  0  0  0  0  0  0  0  0  0
  190.6320  176.8700  140.4160 C   0  0  0  0  0  0  0  0  0  0  0  0
  191.8360  177.5810  141.0060 C   0  0  0  0  0  1  0  0  0  0  0  0
  190.7240  176.0610  139.5550 O   0  0  0  0  0  0  0  0  0  0  0  0
  189.0350  179.0940  138.4840 O   0  0  0  0  0  1  0  0  0  0  0  0
  188.0980  178.4020  139.2820 C   0  0  1  0  0  3  0  0  0  0  0  0
  188.2980  177.0030  137.3880 O   0  0  0  0  0  1  0  0  0  0  0  0
  187.8020  177.0590  138.6900 C   0  0  0  0  0  2  0  0  0  0  0  0
  1 29  1  6  0  0  0
  1  5  1  0  0  0  0
  1  4  1  0  0  0  0
  3  6  1  0  0  0  0
  4  2  2  0  0  0  0
  4  6  1  0  0  0  0
  5 25  1  6  0  0  0
  5  3  1  0  0  0  0
  6 16  1  1  0  0  0
  8 11  1  0  0  0  0
  9 13  1  0  0  0  0
 10  7  2  0  0  0  0
 10  2  1  0  0  0  0
 11 15  2  0  0  0  0
 13 14  2  0  0  0  0
 13 11  1  0  0  0  0
 14 10  1  0  0  0  0
 15  7  1  0  0  0  0
 15 12  1  0  0  0  0
 16 17  2  0  0  0  0
 16 22  1  0  0  0  0
 17 21  1  0  0  0  0
 18 20  1  0  0  0  0
 19 24  1  0  0  0  0
 20 24  2  0  0  0  0
 21 19  1  0  0  0  0
 22 18  2  0  0  0  0
 22 19  1  0  0  0  0
 24 23  1  0  0  0  0
 25 26  1  0  0  0  0
 27 25  2  0  0  0  0
 29 28  1  6  0  0  0
 30 31  1  0  0  0  0
 31 29  1  0  0  0  0
M  END
>  <MODEL>
4

>  <REMARK>
 VINA RESULT:      -8.5      2.445      6.630
  Name = 
  5 active torsions:
  status: ('A' for Active; 'I' for Inactive)
    1  A    between atoms: C_3  and  C_31
    2  A    between atoms: C_6  and  C_28
    3  A    between atoms: C_9  and  C_27
    4  A    between atoms: C_11  and  N_21
    5  A    between atoms: C_26  and  C_27
                            x       y       z     vdW  Elec       q    Type
                         _______ _______ _______ _____ _____    ______ ____

>  <TORSDO>
F 5

$$$$
=
 OpenBabel10222415483D

 31 34  0  0  1  0  0  0  0  0999 V2000
  186.1200  177.7070  143.0070 C   0  0  1  0  0  3  0  0  0  0  0  0
  188.7590  177.5620  142.2490 N   0  0  0  0  0  0  0  0  0  0  0  0
  186.8790  178.1380  145.2280 C   0  0  0  0  0  2  0  0  0  0  0  0
  187.7260  177.5390  143.0040 C   0  0  0  0  0  0  0  0  0  0  0  0
  185.9400  178.6090  144.2080 C   0  0  2  0  0  3  0  0  0  0  0  0
  188.0520  177.7120  144.3160 C   0  0  2  0  0  3  0  0  0  0  0  0
  189.9400  176.8630  140.3480 C   0  0  0  0  0  3  0  0  0  0  0  0
  188.8900  176.5110  136.8370 O   0  0  0  0  0  1  0  0  0  0  0  0
  186.9300  177.8370  137.6280 O   0  0  0  0  0  1  0  0  0  0  0  0
  188.9510  177.7250  140.9080 C   0  0  0  0  0  0  0  0  0  0  0  0
  188.9600  177.0360  138.1390 C   0  0  0  0  0  0  0  0  0  0  0  0
  190.9990  175.7300  138.3330 C   0  0  0  0  0  1  0  0  0  0  0  0
  187.9800  177.7960  138.6010 C   0  0  0  0  0  0  0  0  0  0  0  0
  187.9410  178.2540  140.0060 C   0  0  0  0  0  3  0  0  0  0  0  0
  189.9970  176.5670  138.9770 C   0  0  0  0  0  0  0  0  0  0  0  0
  189.2920  177.0600  144.6930 C   0  0  0  0  0  0  0  0  0  0  0  0
  190.5330  176.6830  143.9880 C   0  0  0  0  0  3  0  0  0  0  0  0
  188.9770  177.3580  147.1400 C   0  0  0  0  0  3  0  0  0  0  0  0
  190.8880  176.7730  146.0620 N   0  0  0  0  0  0  0  0  0  0  0  0
  190.0140  177.1440  148.0930 C   0  0  0  0  0  3  0  0  0  0  0  0
  191.5240  176.4860  144.9340 N   0  0  0  0  0  2  0  0  0  0  0  0
  189.6770  177.0670  145.9380 C   0  0  0  0  0  0  0  0  0  0  0  0
  192.4300  176.6050  147.9750 N   0  0  0  0  0  1  0  0  0  0  0  0
  191.1310  176.8780  147.3960 C   0  0  0  0  0  0  0  0  0  0  0  0
  184.5680  178.9880  144.6380 C   0  0  0  0  0  0  0  0  0  0  0  0
  184.1900  178.5120  146.0290 C   0  0  0  0  0  1  0  0  0  0  0  0
  183.9050  179.7530  144.0210 O   0  0  0  0  0  0  0  0  0  0  0  0
  183.9870  177.7270  141.7160 O   0  0  0  0  0  1  0  0  0  0  0  0
  185.3680  178.0210  141.7260 C   0  0  1  0  0  3  0  0  0  0  0  0
  184.9290  179.7530  140.1800 O   0  0  0  0  0  1  0  0  0  0  0  0
  185.5980  179.4550  141.3670 C   0  0  0  0  0  2  0  0  0  0  0  0
  1 29  1  6  0  0  0
  1  5  1  0  0  0  0
  2  4  2  0  0  0  0
  4  1  1  0  0  0  0
  4  6  1  0  0  0  0
  5 25  1  1  0  0  0
  5  3  1  0  0  0  0
  6 16  1  1  0  0  0
  6  3  1  0  0  0  0
  7 10  1  0  0  0  0
  8 11  1  0  0  0  0
  9 13  1  0  0  0  0
 10  2  1  0  0  0  0
 11 13  2  0  0  0  0
 11 15  1  0  0  0  0
 12 15  1  0  0  0  0
 13 14  1  0  0  0  0
 14 10  2  0  0  0  0
 15  7  2  0  0  0  0
 16 22  1  0  0  0  0
 17 16  2  0  0  0  0
 17 21  1  0  0  0  0
 18 20  1  0  0  0  0
 19 24  1  0  0  0  0
 21 19  1  0  0  0  0
 22 19  1  0  0  0  0
 22 18  2  0  0  0  0
 24 23  1  0  0  0  0
 24 20  2  0  0  0  0
 25 26  1  0  0  0  0
 27 25  2  0  0  0  0
 29 28  1  1  0  0  0
 30 31  1  0  0  0  0
 31 29  1  0  0  0  0
M  END
>  <MODEL>
5

>  <REMARK>
 VINA RESULT:      -8.4      3.358      6.955
  Name = 
  5 active torsions:
  status: ('A' for Active; 'I' for Inactive)
    1  A    between atoms: C_3  and  C_31
    2  A    between atoms: C_6  and  C_28
    3  A    between atoms: C_9  and  C_27
    4  A    between atoms: C_11  and  N_21
    5  A    between atoms: C_26  and  C_27
                            x       y       z     vdW  Elec       q    Type
                         _______ _______ _______ _____ _____    ______ ____

>  <TORSDO>
F 5

$$$$
=
 OpenBabel10222415483D

 31 34  0  0  1  0  0  0  0  0999 V2000
  187.9200  177.3030  141.9390 C   0  0  1  0  0  3  0  0  0  0  0  0
  187.0100  177.6610  144.5090 N   0  0  0  0  0  0  0  0  0  0  0  0
  186.3200  178.9340  141.2460 C   0  0  0  0  0  2  0  0  0  0  0  0
  187.0200  177.6680  143.2290 C   0  0  0  0  0  0  0  0  0  0  0  0
  187.7280  178.5510  141.1070 C   0  0  2  0  0  3  0  0  0  0  0  0
  186.0920  178.5260  142.7200 C   0  0  2  0  0  3  0  0  0  0  0  0
  189.1960  176.9520  144.9730 C   0  0  0  0  0  3  0  0  0  0  0  0
  191.3510  177.5010  147.9070 O   0  0  0  0  0  1  0  0  0  0  0  0
  189.2050  178.2540  148.9360 O   0  0  0  0  0  1  0  0  0  0  0  0
  187.8860  177.2310  145.4630 C   0  0  0  0  0  0  0  0  0  0  0  0
  190.1770  177.2900  147.1620 C   0  0  0  0  0  0  0  0  0  0  0  0
  191.6800  176.5970  145.3840 C   0  0  0  0  0  1  0  0  0  0  0  0
  188.9990  177.6130  147.6730 C   0  0  0  0  0  0  0  0  0  0  0  0
  187.7560  177.5410  146.8770 C   0  0  0  0  0  3  0  0  0  0  0  0
  190.3240  176.9120  145.8080 C   0  0  0  0  0  0  0  0  0  0  0  0
  184.8540  178.5530  143.4770 C   0  0  0  0  0  0  0  0  0  0  0  0
  184.4750  178.9470  144.8480 C   0  0  0  0  0  3  0  0  0  0  0  0
  183.3650  178.3540  141.4980 C   0  0  0  0  0  3  0  0  0  0  0  0
  182.7740  178.9540  143.6050 N   0  0  0  0  0  0  0  0  0  0  0  0
  181.9600  178.5830  141.5500 C   0  0  0  0  0  3  0  0  0  0  0  0
  183.1090  179.1690  144.8720 N   0  0  0  0  0  2  0  0  0  0  0  0
  183.7120  178.6060  142.8520 C   0  0  0  0  0  0  0  0  0  0  0  0
  180.3670  179.3640  143.2810 N   0  0  0  0  0  1  0  0  0  0  0  0
  181.6840  179.0070  142.7950 C   0  0  0  0  0  0  0  0  0  0  0  0
  188.3470  178.6330  139.7580 C   0  0  0  0  0  0  0  0  0  0  0  0
  187.6010  177.8750  138.6760 C   0  0  0  0  0  1  0  0  0  0  0  0
  189.2380  179.3790  139.5200 O   0  0  0  0  0  0  0  0  0  0  0  0
  189.8180  175.9770  141.0170 O   0  0  0  0  0  1  0  0  0  0  0  0
  189.3140  176.7280  142.1010 C   0  0  1  0  0  3  0  0  0  0  0  0
  191.5210  177.5550  141.9280 O   0  0  0  0  0  1  0  0  0  0  0  0
  190.2590  177.8350  142.4500 C   0  0  0  0  0  2  0  0  0  0  0  0
  1 29  1  1  0  0  0
  1  4  1  0  0  0  0
  2 10  1  0  0  0  0
  3  6  1  0  0  0  0
  4  2  2  0  0  0  0
  5 25  1  6  0  0  0
  5  3  1  0  0  0  0
  5  1  1  0  0  0  0
  6  4  1  0  0  0  0
  6 16  1  6  0  0  0
  7 10  2  0  0  0  0
  7 15  1  0  0  0  0
 10 14  1  0  0  0  0
 11 13  1  0  0  0  0
 11  8  1  0  0  0  0
 12 15  1  0  0  0  0
 13  9  1  0  0  0  0
 14 13  2  0  0  0  0
 15 11  2  0  0  0  0
 16 17  2  0  0  0  0
 17 21  1  0  0  0  0
 18 20  1  0  0  0  0
 18 22  2  0  0  0  0
 19 21  1  0  0  0  0
 20 24  2  0  0  0  0
 22 16  1  0  0  0  0
 22 19  1  0  0  0  0
 24 23  1  0  0  0  0
 24 19  1  0  0  0  0
 26 25  1  0  0  0  0
 27 25  2  0  0  0  0
 29 28  1  6  0  0  0
 29 31  1  0  0  0  0
 30 31  1  0  0  0  0
M  END
>  <MODEL>
6

>  <REMARK>
 VINA RESULT:      -8.4      1.727      2.498
  Name = 
  5 active torsions:
  status: ('A' for Active; 'I' for Inactive)
    1  A    between atoms: C_3  and  C_31
    2  A    between atoms: C_6  and  C_28
    3  A    between atoms: C_9  and  C_27
    4  A    between atoms: C_11  and  N_21
    5  A    between atoms: C_26  and  C_27
                            x       y       z     vdW  Elec       q    Type
                         _______ _______ _______ _____ _____    ______ ____

>  <TORSDO>
F 5

$$$$
=
 OpenBabel10222415483D

 31 34  0  0  1  0  0  0  0  0999 V2000
  189.3100  177.8970  139.6610 C   0  0  1  0  0  3  0  0  0  0  0  0
  188.6230  177.8030  142.3220 N   0  0  0  0  0  0  0  0  0  0  0  0
  191.4710  177.1010  140.2870 C   0  0  0  0  0  2  0  0  0  0  0  0
  189.3570  177.8620  141.2740 C   0  0  0  0  0  0  0  0  0  0  0  0
  190.3820  176.8830  139.3320 C   0  0  2  0  0  3  0  0  0  0  0  0
  190.6410  177.4870  141.5330 C   0  0  2  0  0  3  0  0  0  0  0  0
  186.8990  177.9060  143.9070 C   0  0  0  0  0  3  0  0  0  0  0  0
  183.5520  179.4310  143.7510 O   0  0  0  0  0  1  0  0  0  0  0  0
  184.0680  179.5340  141.3110 O   0  0  0  0  0  1  0  0  0  0  0  0
  187.2750  177.7850  142.5370 C   0  0  0  0  0  0  0  0  0  0  0  0
  184.7140  178.7700  143.3160 C   0  0  0  0  0  0  0  0  0  0  0  0
  185.1560  178.4340  145.6810 C   0  0  0  0  0  1  0  0  0  0  0  0
  185.0160  178.7360  142.0280 C   0  0  0  0  0  0  0  0  0  0  0  0
  186.2940  178.1770  141.5390 C   0  0  0  0  0  3  0  0  0  0  0  0
  185.6200  178.3260  144.3060 C   0  0  0  0  0  0  0  0  0  0  0  0
  191.1200  177.9260  142.8300 C   0  0  0  0  0  0  0  0  0  0  0  0
  191.0280  179.1740  143.6120 C   0  0  0  0  0  3  0  0  0  0  0  0
  191.6060  175.6430  143.6840 C   0  0  0  0  0  3  0  0  0  0  0  0
  191.4720  177.5610  144.8910 N   0  0  0  0  0  0  0  0  0  0  0  0
  191.8790  175.3620  145.0540 C   0  0  0  0  0  3  0  0  0  0  0  0
  191.2920  178.8750  144.9370 N   0  0  0  0  0  2  0  0  0  0  0  0
  191.3960  177.0460  143.7520 C   0  0  0  0  0  0  0  0  0  0  0  0
  191.8810  176.6780  147.1540 N   0  0  0  0  0  1  0  0  0  0  0  0
  191.7110  176.5140  145.7250 C   0  0  0  0  0  0  0  0  0  0  0  0
  190.7370  176.6290  137.9100 C   0  0  0  0  0  0  0  0  0  0  0  0
  191.0650  175.1820  137.5920 C   0  0  0  0  0  1  0  0  0  0  0  0
  190.5920  177.4530  137.0700 O   0  0  0  0  0  0  0  0  0  0  0  0
  187.7850  178.8140  137.9150 O   0  0  0  0  0  1  0  0  0  0  0  0
  187.9870  177.8430  138.9200 C   0  0  1  0  0  3  0  0  0  0  0  0
  187.0230  176.5360  137.2030 O   0  0  0  0  0  1  0  0  0  0  0  0
  187.8000  176.4680  138.3590 C   0  0  0  0  0  2  0  0  0  0  0  0
  1 29  1  1  0  0  0
  1  4  1  0  0  0  0
  2 10  1  0  0  0  0
  3  6  1  0  0  0  0
  4  6  1  0  0  0  0
  4  2  2  0  0  0  0
  5 25  1  6  0  0  0
  5  1  1  0  0  0  0
  5  3  1  0  0  0  0
  6 16  1  6  0  0  0
  7 15  1  0  0  0  0
  9 13  1  0  0  0  0
 10  7  2  0  0  0  0
 11  8  1  0  0  0  0
 11 15  2  0  0  0  0
 13 11  1  0  0  0  0
 14 13  2  0  0  0  0
 14 10  1  0  0  0  0
 15 12  1  0  0  0  0
 16 17  2  0  0  0  0
 16 22  1  0  0  0  0
 17 21  1  0  0  0  0
 18 22  2  0  0  0  0
 18 20  1  0  0  0  0
 19 21  1  0  0  0  0
 19 24  1  0  0  0  0
 20 24  2  0  0  0  0
 22 19  1  0  0  0  0
 24 23  1  0  0  0  0
 26 25  1  0  0  0  0
 27 25  2  0  0  0  0
 29 28  1  6  0  0  0
 30 31  1  0  0  0  0
 31 29  1  0  0  0  0
M  END
>  <MODEL>
7

>  <REMARK>
 VINA RESULT:      -8.2      3.195      6.099
  Name = 
  5 active torsions:
  status: ('A' for Active; 'I' for Inactive)
    1  A    between atoms: C_3  and  C_31
    2  A    between atoms: C_6  and  C_28
    3  A    between atoms: C_9  and  C_27
    4  A    between atoms: C_11  and  N_21
    5  A    between atoms: C_26  and  C_27
                            x       y       z     vdW  Elec       q    Type
                         _______ _______ _______ _____ _____    ______ ____

>  <TORSDO>
F 5

$$$$
=
 OpenBabel10222415483D

 31 34  0  0  1  0  0  0  0  0999 V2000
  186.6880  178.7470  140.9390 C   0  0  1  0  0  3  0  0  0  0  0  0
  188.7920  177.1640  141.7300 N   0  0  0  0  0  0  0  0  0  0  0  0
  187.1860  178.1220  138.6900 C   0  0  0  0  0  2  0  0  0  0  0  0
  188.0520  177.8840  140.9740 C   0  0  0  0  0  0  0  0  0  0  0  0
  186.0820  178.2530  139.6450 C   0  0  2  0  0  3  0  0  0  0  0  0
  188.3000  177.6530  139.6540 C   0  0  2  0  0  3  0  0  0  0  0  0
  189.9970  176.8760  143.7210 C   0  0  0  0  0  3  0  0  0  0  0  0
  189.0620  177.4830  147.2290 O   0  0  0  0  0  1  0  0  0  0  0  0
  186.7690  177.6300  146.2540 O   0  0  0  0  0  1  0  0  0  0  0  0
  188.7420  176.8080  143.0470 C   0  0  0  0  0  0  0  0  0  0  0  0
  188.9210  177.1280  145.8760 C   0  0  0  0  0  0  0  0  0  0  0  0
  191.3460  177.0000  145.8720 C   0  0  0  0  0  1  0  0  0  0  0  0
  187.7230  177.1280  145.3110 C   0  0  0  0  0  0  0  0  0  0  0  0
  187.5420  176.8990  143.8620 C   0  0  0  0  0  3  0  0  0  0  0  0
  190.1020  176.9670  145.1170 C   0  0  0  0  0  0  0  0  0  0  0  0
  189.7020  177.4250  139.3610 C   0  0  0  0  0  0  0  0  0  0  0  0
  190.9770  177.7290  140.0410 C   0  0  0  0  0  3  0  0  0  0  0  0
  189.2990  175.7070  137.6120 C   0  0  0  0  0  3  0  0  0  0  0  0
  191.2620  176.1740  138.6500 N   0  0  0  0  0  0  0  0  0  0  0  0
  190.3250  174.8700  137.0860 C   0  0  0  0  0  3  0  0  0  0  0  0
  191.9540  176.9020  139.5170 N   0  0  0  0  0  2  0  0  0  0  0  0
  190.0480  176.4640  138.5510 C   0  0  0  0  0  0  0  0  0  0  0  0
  192.7240  174.5010  137.5860 N   0  0  0  0  0  1  0  0  0  0  0  0
  191.4390  175.1380  137.7880 C   0  0  0  0  0  0  0  0  0  0  0  0
  184.8040  178.8420  139.1630 C   0  0  0  0  0  0  0  0  0  0  0  0
  183.7700  177.8250  138.7180 C   0  0  0  0  0  1  0  0  0  0  0  0
  184.5550  179.9940  139.2940 O   0  0  0  0  0  0  0  0  0  0  0  0
  185.3060  180.1490  142.4680 O   0  0  0  0  0  1  0  0  0  0  0  0
  185.8100  178.8640  142.1710 C   0  0  1  0  0  3  0  0  0  0  0  0
  183.4880  178.4960  142.4080 O   0  0  0  0  0  1  0  0  0  0  0  0
  184.6890  177.8780  142.0630 C   0  0  0  0  0  2  0  0  0  0  0  0
  1  4  1  0  0  0  0
  1 29  1  1  0  0  0
  2 10  1  0  0  0  0
  3  5  1  0  0  0  0
  3  6  1  0  0  0  0
  4  2  2  0  0  0  0
  5 25  1  6  0  0  0
  5  1  1  0  0  0  0
  6 16  1  6  0  0  0
  6  4  1  0  0  0  0
  7 15  1  0  0  0  0
 10  7  2  0  0  0  0
 10 14  1  0  0  0  0
 11  8  1  0  0  0  0
 13 11  1  0  0  0  0
 13  9  1  0  0  0  0
 14 13  2  0  0  0  0
 15 12  1  0  0  0  0
 15 11  2  0  0  0  0
 16 17  2  0  0  0  0
 18 22  2  0  0  0  0
 19 21  1  0  0  0  0
 20 18  1  0  0  0  0
 20 24  2  0  0  0  0
 21 17  1  0  0  0  0
 22 19  1  0  0  0  0
 22 16  1  0  0  0  0
 23 24  1  0  0  0  0
 24 19  1  0  0  0  0
 25 27  2  0  0  0  0
 26 25  1  0  0  0  0
 29 28  1  6  0  0  0
 31 29  1  0  0  0  0
 31 30  1  0  0  0  0
M  END
>  <MODEL>
8

>  <REMARK>
 VINA RESULT:      -8.1      3.346      6.012
  Name = 
  5 active torsions:
  status: ('A' for Active; 'I' for Inactive)
    1  A    between atoms: C_3  and  C_31
    2  A    between atoms: C_6  and  C_28
    3  A    between atoms: C_9  and  C_27
    4  A    between atoms: C_11  and  N_21
    5  A    between atoms: C_26  and  C_27
                            x       y       z     vdW  Elec       q    Type
                         _______ _______ _______ _____ _____    ______ ____

>  <TORSDO>
F 5

$$$$
=
 OpenBabel10222415483D

 31 34  0  0  1  0  0  0  0  0999 V2000
  188.5260  178.3260  140.5540 C   0  0  1  0  0  3  0  0  0  0  0  0
  186.1540  178.3720  141.9430 N   0  0  0  0  0  0  0  0  0  0  0  0
  189.4230  176.9880  142.3160 C   0  0  0  0  0  2  0  0  0  0  0  0
  187.4080  178.2550  141.7170 C   0  0  0  0  0  0  0  0  0  0  0  0
  189.3180  177.0730  140.8570 C   0  0  2  0  0  3  0  0  0  0  0  0
  188.0390  177.5570  142.7030 C   0  0  2  0  0  3  0  0  0  0  0  0
  185.1550  178.2370  139.8260 C   0  0  0  0  0  3  0  0  0  0  0  0
  181.6300  177.8800  138.8280 O   0  0  0  0  0  1  0  0  0  0  0  0
  181.2300  178.4640  141.2210 O   0  0  0  0  0  1  0  0  0  0  0  0
  185.0760  178.7010  141.1730 C   0  0  0  0  0  0  0  0  0  0  0  0
  182.7460  178.2870  139.5800 C   0  0  0  0  0  0  0  0  0  0  0  0
  184.0350  177.6630  137.6180 C   0  0  0  0  0  1  0  0  0  0  0  0
  182.5950  178.6660  140.8390 C   0  0  0  0  0  0  0  0  0  0  0  0
  183.7520  178.9670  141.7090 C   0  0  0  0  0  3  0  0  0  0  0  0
  184.0240  178.0920  139.0090 C   0  0  0  0  0  0  0  0  0  0  0  0
  187.5220  177.8370  144.0290 C   0  0  0  0  0  0  0  0  0  0  0  0
  186.1810  177.8700  144.6450 C   0  0  0  0  0  3  0  0  0  0  0  0
  189.7080  177.5970  145.1860 C   0  0  0  0  0  3  0  0  0  0  0  0
  187.6490  177.6520  146.1390 N   0  0  0  0  0  0  0  0  0  0  0  0
  189.8380  177.5020  146.6020 C   0  0  0  0  0  3  0  0  0  0  0  0
  186.3330  177.7720  146.0170 N   0  0  0  0  0  2  0  0  0  0  0  0
  188.2970  177.7040  145.0690 C   0  0  0  0  0  0  0  0  0  0  0  0
  188.2600  177.3590  148.5080 N   0  0  0  0  0  1  0  0  0  0  0  0
  188.5910  177.4630  147.1010 C   0  0  0  0  0  0  0  0  0  0  0  0
  190.5250  176.7570  140.0470 C   0  0  0  0  0  0  0  0  0  0  0  0
  191.7780  177.5030  140.4670 C   0  0  0  0  0  1  0  0  0  0  0  0
  190.5410  175.8640  139.2670 O   0  0  0  0  0  0  0  0  0  0  0  0
  189.0560  179.3840  138.3600 O   0  0  0  0  0  1  0  0  0  0  0  0
  188.1370  178.6260  139.1180 C   0  0  1  0  0  3  0  0  0  0  0  0
  187.4920  177.5980  137.0900 O   0  0  0  0  0  1  0  0  0  0  0  0
  187.8230  177.3400  138.4200 C   0  0  0  0  0  2  0  0  0  0  0  0
  1 29  1  6  0  0  0
  1  5  1  0  0  0  0
  1  4  1  0  0  0  0
  3  6  1  0  0  0  0
  4  2  2  0  0  0  0
  4  6  1  0  0  0  0
  5 25  1  6  0  0  0
  5  3  1  0  0  0  0
  6 16  1  1  0  0  0
  7 10  1  0  0  0  0
  8 11  1  0  0  0  0
 10 14  2  0  0  0  0
 10  2  1  0  0  0  0
 11 13  2  0  0  0  0
 12 15  1  0  0  0  0
 13  9  1  0  0  0  0
 13 14  1  0  0  0  0
 15 11  1  0  0  0  0
 15  7  2  0  0  0  0
 16 17  2  0  0  0  0
 16 22  1  0  0  0  0
 17 21  1  0  0  0  0
 18 20  1  0  0  0  0
 19 24  1  0  0  0  0
 20 24  2  0  0  0  0
 21 19  1  0  0  0  0
 22 18  2  0  0  0  0
 22 19  1  0  0  0  0
 24 23  1  0  0  0  0
 25 26  1  0  0  0  0
 27 25  2  0  0  0  0
 29 28  1  6  0  0  0
 30 31  1  0  0  0  0
 31 29  1  0  0  0  0
M  END
>  <MODEL>
9

>  <REMARK>
 VINA RESULT:      -8.0      2.723      6.709
  Name = 
  5 active torsions:
  status: ('A' for Active; 'I' for Inactive)
    1  A    between atoms: C_3  and  C_31
    2  A    between atoms: C_6  and  C_28
    3  A    between atoms: C_9  and  C_27
    4  A    between atoms: C_11  and  N_21
    5  A    between atoms: C_26  and  C_27
                            x       y       z     vdW  Elec       q    Type
                         _______ _______ _______ _____ _____    ______ ____

>  <TORSDO>
F 5

$$$$
