=
 OpenBabel10222417223D

 43 44  0  0  1  0  0  0  0  0999 V2000
  188.4630  178.1970  141.7840 C   0  0  2  0  0  3  0  0  0  0  0  0
  190.4640  176.7430  144.5510 C   0  0  1  0  0  3  0  0  0  0  0  0
  190.4200  178.9510  143.6060 O   0  0  0  0  0  1  0  0  0  0  0  0
  189.8940  176.1990  142.4320 C   0  0  0  0  0  2  0  0  0  0  0  0
  188.8990  177.2420  142.9080 C   0  0  1  0  0  3  0  0  0  0  0  0
  189.6140  177.9000  144.0580 C   0  0  1  0  0  3  0  0  0  0  0  0
  190.8070  175.9120  143.4680 O   0  0  0  0  0  0  0  0  0  0  0  0
  191.6790  177.1510  145.3890 C   0  0  0  0  0  2  0  0  0  0  0  0
  192.2260  175.4750  146.9950 O   0  0  0  0  0  1  0  0  0  0  0  0
  191.5700  176.6950  146.8360 C   0  0  2  0  0  3  0  0  0  0  0  0
  190.1080  176.5430  147.2110 C   0  0  0  0  0  2  0  0  0  0  0  0
  189.7100  177.6040  148.0220 O   0  0  0  0  0  0  0  0  0  0  0  0
  188.3940  177.8700  147.6400 C   0  0  0  0  0  1  0  0  0  0  0  0
  187.0230  178.5930  141.9450 C   0  0  0  0  0  3  0  0  0  0  0  0
  186.1890  178.5980  140.9030 C   0  0  0  0  0  3  0  0  0  0  0  0
  184.7400  178.9780  141.0450 C   0  0  2  0  0  3  0  0  0  0  0  0
  184.1660  178.3020  142.2900 C   0  0  0  0  0  2  0  0  0  0  0  0
  182.7760  178.6060  144.2630 N   0  0  0  0  0  1  0  0  0  0  0  0
  183.1960  179.2180  143.0160 C   0  0  0  0  0  2  0  0  0  0  0  0
  183.9300  178.6310  139.7800 C   0  0  1  0  0  3  0  0  0  0  0  0
  181.9000  179.8940  138.9660 N   0  0  0  0  0  1  0  0  0  0  0  0
  183.3070  179.8470  139.1610 C   0  0  0  0  0  0  0  0  0  0  0  0
  184.0200  180.8240  138.8100 O   0  0  0  0  0  0  0  0  0  0  0  0
  184.7900  177.9140  138.7450 C   0  0  0  0  0  2  0  0  0  0  0  0
  184.0680  177.7410  137.5630 O   0  0  0  0  0  1  0  0  0  0  0  0
  189.3060  178.2560  139.4450 C   0  0  0  0  0  3  0  0  0  0  0  0
  188.6870  177.5890  140.4230 C   0  0  0  0  0  3  0  0  0  0  0  0
  189.5400  177.6250  138.1090 C   0  0  1  0  0  3  0  0  0  0  0  0
  190.2840  176.3300  138.2790 C   0  0  0  0  0  3  0  0  0  0  0  0
  192.8930  176.2870  138.3000 C   0  0  0  0  0  0  0  0  0  0  0  0
  191.5900  176.3070  138.2920 C   0  0  0  0  0  0  0  0  0  0  0  0
  193.5900  177.0310  139.2420 O   0  0  0  0  0  1  0  0  0  0  0  0
  193.6330  175.5100  137.2700 C   0  0  0  0  0  2  0  0  0  0  0  0
  194.4180  174.5050  137.9000 O   0  0  0  0  0  0  0  0  0  0  0  0
  198.0400  174.7220  136.8370 C   0  0  0  0  0  0  0  0  0  0  0  0
  196.3270  174.7190  139.1770 O   0  0  0  0  0  0  0  0  0  0  0  0
  195.8010  174.6260  138.0340 C   0  0  0  0  0  0  0  0  0  0  0  0
  198.7520  174.7580  135.5330 C   0  0  0  0  0  1  0  0  0  0  0  0
  196.6110  174.6380  136.8550 N   0  0  0  0  0  2  0  0  0  0  0  0
  198.7050  174.7500  137.9070 O   0  0  0  0  0  0  0  0  0  0  0  0
  188.3190  177.8470  135.8520 C   0  0  0  0  0  2  0  0  0  0  0  0
  187.7750  178.8940  136.8040 C   0  0  0  0  0  2  0  0  0  0  0  0
  188.2030  177.5390  137.3360 C   0  0  0  0  0  3  0  0  0  0  0  0
  1 27  1  6  0  0  0
  1 14  1  0  0  0  0
  2  8  1  6  0  0  0
  4  5  1  0  0  0  0
  4  7  1  0  0  0  0
  5  1  1  6  0  0  0
  5  6  1  0  0  0  0
  6  3  1  6  0  0  0
  6  2  1  0  0  0  0
  7  2  1  0  0  0  0
  8 10  1  0  0  0  0
 10  9  1  6  0  0  0
 10 11  1  0  0  0  0
 11 12  1  0  0  0  0
 13 12  1  0  0  0  0
 15 14  2  0  0  0  0
 16 15  1  6  0  0  0
 16 17  1  0  0  0  0
 17 19  1  0  0  0  0
 19 18  1  0  0  0  0
 20 24  1  6  0  0  0
 20 16  1  0  0  0  0
 21 22  1  0  0  0  0
 22 20  1  0  0  0  0
 23 22  2  0  0  0  0
 25 24  1  0  0  0  0
 26 27  2  0  0  0  0
 28 29  1  1  0  0  0
 28 26  1  0  0  0  0
 29 31  2  0  0  0  0
 30 32  1  0  0  0  0
 31 30  2  0  0  0  0
 33 34  1  0  0  0  0
 33 30  1  0  0  0  0
 34 37  1  0  0  0  0
 35 39  1  0  0  0  0
 35 40  2  0  0  0  0
 37 36  2  0  0  0  0
 38 35  1  0  0  0  0
 39 37  1  0  0  0  0
 41 42  1  0  0  0  0
 41 43  1  0  0  0  0
 42 43  1  0  0  0  0
 43 28  1  0  0  0  0
M  END
>  <MODEL>
1

>  <REMARK>
 VINA RESULT:      -7.2      0.000      0.000
  Name = 
  19 active torsions:
  status: ('A' for Active; 'I' for Inactive)
    1  A    between atoms: C_1  and  C_36
    2  A    between atoms: C_2  and  C_18
    3  A    between atoms: C_2  and  O_31
    4  A    between atoms: O_3  and  C_11
    5  A    between atoms: C_7  and  C_20
    6  A    between atoms: C_7  and  C_33
    7  A    between atoms: C_7  and  C_35
    8  A    between atoms: C_9  and  C_29
    9  A    between atoms: C_11  and  C_32
   10  A    between atoms: C_12  and  C_27
   11  A    between atoms: C_14  and  C_15
   12  A    between atoms: C_14  and  C_24
   13  A    between atoms: C_15  and  C_29
   14  A    between atoms: C_15  and  C_40
   15  A    between atoms: C_16  and  C_27
   16  A    between atoms: C_19  and  O_31
   17  A    between atoms: C_27  and  C_43
   18  A    between atoms: C_28  and  C_29
   19  A    between atoms: C_32  and  C_36
                            x       y       z     vdW  Elec       q    Type
                         _______ _______ _______ _____ _____    ______ ____

>  <TORSDO>
F 19

$$$$
=
 OpenBabel10222417223D

 43 44  0  0  1  0  0  0  0  0999 V2000
  188.4140  178.1760  141.7160 C   0  0  2  0  0  3  0  0  0  0  0  0
  190.5170  176.6670  139.0560 C   0  0  1  0  0  3  0  0  0  0  0  0
  191.0930  177.7230  141.1350 O   0  0  0  0  0  1  0  0  0  0  0  0
  188.7820  178.1090  139.2030 C   0  0  0  0  0  2  0  0  0  0  0  0
  188.8220  177.3250  140.5020 C   0  0  1  0  0  3  0  0  0  0  0  0
  190.2300  176.7960  140.5410 C   0  0  1  0  0  3  0  0  0  0  0  0
  189.8110  177.6600  138.3500 O   0  0  0  0  0  0  0  0  0  0  0  0
  192.0040  176.6280  138.6910 C   0  0  0  0  0  2  0  0  0  0  0  0
  192.3600  174.4570  137.7720 O   0  0  0  0  0  1  0  0  0  0  0  0
  192.2760  175.8090  137.4390 C   0  0  2  0  0  3  0  0  0  0  0  0
  193.5770  176.2640  136.8070 C   0  0  0  0  0  2  0  0  0  0  0  0
  193.8900  175.4500  135.7200 O   0  0  0  0  0  0  0  0  0  0  0  0
  193.2740  176.0630  134.6270 C   0  0  0  0  0  1  0  0  0  0  0  0
  188.4400  177.3600  142.9760 C   0  0  0  0  0  3  0  0  0  0  0  0
  189.0340  177.8160  144.0810 C   0  0  0  0  0  3  0  0  0  0  0  0
  189.0600  177.0200  145.3580 C   0  0  2  0  0  3  0  0  0  0  0  0
  188.4940  177.8760  146.4910 C   0  0  0  0  0  2  0  0  0  0  0  0
  186.3810  178.7300  147.3440 N   0  0  0  0  0  1  0  0  0  0  0  0
  187.0180  177.5900  146.7100 C   0  0  0  0  0  2  0  0  0  0  0  0
  190.4770  176.5050  145.6830 C   0  0  1  0  0  3  0  0  0  0  0  0
  191.9360  178.1620  144.4550 N   0  0  0  0  0  1  0  0  0  0  0  0
  191.4550  176.8310  144.5940 C   0  0  0  0  0  0  0  0  0  0  0  0
  191.8530  175.9380  143.8010 O   0  0  0  0  0  0  0  0  0  0  0  0
  190.9840  177.0630  147.0100 C   0  0  0  0  0  2  0  0  0  0  0  0
  192.1640  176.4150  147.3770 O   0  0  0  0  0  1  0  0  0  0  0  0
  185.9630  178.3060  142.1200 C   0  0  0  0  0  3  0  0  0  0  0  0
  187.0540  178.7980  141.5250 C   0  0  0  0  0  3  0  0  0  0  0  0
  184.6260  178.9510  141.9360 C   0  0  1  0  0  3  0  0  0  0  0  0
  184.1210  178.6900  140.5440 C   0  0  0  0  0  3  0  0  0  0  0  0
  182.0050  177.2150  140.1520 C   0  0  0  0  0  0  0  0  0  0  0  0
  183.0610  177.9530  140.3460 C   0  0  0  0  0  0  0  0  0  0  0  0
  180.7940  177.5730  140.7290 O   0  0  0  0  0  1  0  0  0  0  0  0
  182.1080  175.9610  139.3570 C   0  0  0  0  0  2  0  0  0  0  0  0
  182.7500  176.2320  138.1170 O   0  0  0  0  0  0  0  0  0  0  0  0
  186.2140  175.7870  136.6680 C   0  0  0  0  0  0  0  0  0  0  0  0
  184.0320  174.3280  137.9000 O   0  0  0  0  0  0  0  0  0  0  0  0
  183.9170  175.5720  137.7320 C   0  0  0  0  0  0  0  0  0  0  0  0
  187.2420  176.7000  136.1030 C   0  0  0  0  0  1  0  0  0  0  0  0
  184.9770  176.3300  137.1410 N   0  0  0  0  0  2  0  0  0  0  0  0
  186.4400  174.5480  136.7060 O   0  0  0  0  0  0  0  0  0  0  0  0
  183.3340  179.6480  144.0510 C   0  0  0  0  0  2  0  0  0  0  0  0
  184.3730  178.6130  144.4350 C   0  0  0  0  0  2  0  0  0  0  0  0
  183.6830  178.5270  143.0860 C   0  0  0  0  0  3  0  0  0  0  0  0
  1 27  1  6  0  0  0
  1 14  1  0  0  0  0
  2  8  1  1  0  0  0
  2  6  1  0  0  0  0
  4  5  1  0  0  0  0
  5  6  1  0  0  0  0
  5  1  1  1  0  0  0
  6  3  1  6  0  0  0
  7  2  1  0  0  0  0
  7  4  1  0  0  0  0
 10  9  1  1  0  0  0
 10  8  1  0  0  0  0
 11 10  1  0  0  0  0
 12 11  1  0  0  0  0
 13 12  1  0  0  0  0
 14 15  2  0  0  0  0
 16 15  1  6  0  0  0
 16 20  1  0  0  0  0
 16 17  1  0  0  0  0
 17 19  1  0  0  0  0
 19 18  1  0  0  0  0
 20 24  1  1  0  0  0
 21 22  1  0  0  0  0
 22 20  1  0  0  0  0
 23 22  2  0  0  0  0
 24 25  1  0  0  0  0
 27 26  2  0  0  0  0
 28 29  1  6  0  0  0
 28 26  1  0  0  0  0
 28 43  1  0  0  0  0
 30 31  2  0  0  0  0
 30 32  1  0  0  0  0
 31 29  2  0  0  0  0
 33 30  1  0  0  0  0
 34 33  1  0  0  0  0
 35 40  2  0  0  0  0
 35 39  1  0  0  0  0
 37 36  2  0  0  0  0
 37 34  1  0  0  0  0
 38 35  1  0  0  0  0
 39 37  1  0  0  0  0
 41 42  1  0  0  0  0
 43 41  1  0  0  0  0
 43 42  1  0  0  0  0
M  END
>  <MODEL>
2

>  <REMARK>
 VINA RESULT:      -7.0      2.840      9.038
  Name = 
  19 active torsions:
  status: ('A' for Active; 'I' for Inactive)
    1  A    between atoms: C_1  and  C_36
    2  A    between atoms: C_2  and  C_18
    3  A    between atoms: C_2  and  O_31
    4  A    between atoms: O_3  and  C_11
    5  A    between atoms: C_7  and  C_20
    6  A    between atoms: C_7  and  C_33
    7  A    between atoms: C_7  and  C_35
    8  A    between atoms: C_9  and  C_29
    9  A    between atoms: C_11  and  C_32
   10  A    between atoms: C_12  and  C_27
   11  A    between atoms: C_14  and  C_15
   12  A    between atoms: C_14  and  C_24
   13  A    between atoms: C_15  and  C_29
   14  A    between atoms: C_15  and  C_40
   15  A    between atoms: C_16  and  C_27
   16  A    between atoms: C_19  and  O_31
   17  A    between atoms: C_27  and  C_43
   18  A    between atoms: C_28  and  C_29
   19  A    between atoms: C_32  and  C_36
                            x       y       z     vdW  Elec       q    Type
                         _______ _______ _______ _____ _____    ______ ____

>  <TORSDO>
F 19

$$$$
=
 OpenBabel10222417223D

 43 44  0  0  1  0  0  0  0  0999 V2000
  188.1870  177.9050  142.1630 C   0  0  2  0  0  3  0  0  0  0  0  0
  190.3620  176.6340  144.8890 C   0  0  1  0  0  3  0  0  0  0  0  0
  190.1870  178.8030  143.8710 O   0  0  0  0  0  1  0  0  0  0  0  0
  189.7260  175.9920  142.8170 C   0  0  0  0  0  2  0  0  0  0  0  0
  188.7100  177.0110  143.3000 C   0  0  1  0  0  3  0  0  0  0  0  0
  189.4450  177.7380  144.3940 C   0  0  1  0  0  3  0  0  0  0  0  0
  190.6930  175.7790  143.8210 O   0  0  0  0  0  0  0  0  0  0  0  0
  191.5940  177.1210  145.6580 C   0  0  0  0  0  2  0  0  0  0  0  0
  192.1950  175.5660  147.3640 O   0  0  0  0  0  1  0  0  0  0  0  0
  191.5330  176.7730  147.1380 C   0  0  2  0  0  3  0  0  0  0  0  0
  190.0850  176.6510  147.5710 C   0  0  0  0  0  2  0  0  0  0  0  0
  189.6730  177.8270  148.1970 O   0  0  0  0  0  0  0  0  0  0  0  0
  188.2790  177.8000  148.1230 C   0  0  0  0  0  1  0  0  0  0  0  0
  186.6870  177.9700  142.1780 C   0  0  0  0  0  3  0  0  0  0  0  0
  186.0380  179.0270  141.6850 C   0  0  0  0  0  3  0  0  0  0  0  0
  184.5350  179.1060  141.6780 C   0  0  2  0  0  3  0  0  0  0  0  0
  183.9910  178.3640  142.9000 C   0  0  0  0  0  2  0  0  0  0  0  0
  183.8800  178.9950  145.2470 N   0  0  0  0  0  1  0  0  0  0  0  0
  183.4090  179.3320  143.9160 C   0  0  0  0  0  2  0  0  0  0  0  0
  183.9390  178.5600  140.3650 C   0  0  1  0  0  3  0  0  0  0  0  0
  181.9390  177.0250  140.2130 N   0  0  0  0  0  1  0  0  0  0  0  0
  182.4630  178.3200  140.4760 C   0  0  0  0  0  0  0  0  0  0  0  0
  181.6830  179.2550  140.7980 O   0  0  0  0  0  0  0  0  0  0  0  0
  184.2170  179.4970  139.1930 C   0  0  0  0  0  2  0  0  0  0  0  0
  185.2750  179.0010  138.4300 O   0  0  0  0  0  1  0  0  0  0  0  0
  189.3120  178.2480  139.9720 C   0  0  0  0  0  3  0  0  0  0  0  0
  188.6760  177.4330  140.8180 C   0  0  0  0  0  3  0  0  0  0  0  0
  189.8090  177.7540  138.6500 C   0  0  1  0  0  3  0  0  0  0  0  0
  190.5900  176.4840  138.8420 C   0  0  0  0  0  3  0  0  0  0  0  0
  192.6650  175.9590  137.3480 C   0  0  0  0  0  0  0  0  0  0  0  0
  191.6300  176.2200  138.0960 C   0  0  0  0  0  0  0  0  0  0  0  0
  193.7380  176.8390  137.3200 O   0  0  0  0  0  1  0  0  0  0  0  0
  192.6740  174.7460  136.4870 C   0  0  0  0  0  2  0  0  0  0  0  0
  191.5180  174.7380  135.6590 O   0  0  0  0  0  0  0  0  0  0  0  0
  188.0730  173.4670  136.5620 C   0  0  0  0  0  0  0  0  0  0  0  0
  190.6720  172.5930  135.6200 O   0  0  0  0  0  0  0  0  0  0  0  0
  190.4850  173.8190  135.8440 C   0  0  0  0  0  0  0  0  0  0  0  0
  186.8010  174.1000  136.9970 C   0  0  0  0  0  1  0  0  0  0  0  0
  189.2120  174.2920  136.2960 N   0  0  0  0  0  2  0  0  0  0  0  0
  188.1350  172.2140  136.4490 O   0  0  0  0  0  0  0  0  0  0  0  0
  189.0300  177.9060  136.2000 C   0  0  0  0  0  2  0  0  0  0  0  0
  188.3700  179.0190  136.9900 C   0  0  0  0  0  2  0  0  0  0  0  0
  188.6330  177.6770  137.6490 C   0  0  0  0  0  3  0  0  0  0  0  0
  1 27  1  6  0  0  0
  1 14  1  0  0  0  0
  2  8  1  6  0  0  0
  4  5  1  0  0  0  0
  4  7  1  0  0  0  0
  5  1  1  6  0  0  0
  5  6  1  0  0  0  0
  6  3  1  6  0  0  0
  6  2  1  0  0  0  0
  7  2  1  0  0  0  0
  8 10  1  0  0  0  0
 10  9  1  6  0  0  0
 10 11  1  0  0  0  0
 11 12  1  0  0  0  0
 13 12  1  0  0  0  0
 15 14  2  0  0  0  0
 16 15  1  6  0  0  0
 16 17  1  0  0  0  0
 17 19  1  0  0  0  0
 19 18  1  0  0  0  0
 20 24  1  6  0  0  0
 20 22  1  0  0  0  0
 20 16  1  0  0  0  0
 21 22  1  0  0  0  0
 22 23  2  0  0  0  0
 25 24  1  0  0  0  0
 26 27  2  0  0  0  0
 28 29  1  1  0  0  0
 28 26  1  0  0  0  0
 30 31  2  0  0  0  0
 31 29  2  0  0  0  0
 32 30  1  0  0  0  0
 33 30  1  0  0  0  0
 34 37  1  0  0  0  0
 34 33  1  0  0  0  0
 35 38  1  0  0  0  0
 36 37  2  0  0  0  0
 37 39  1  0  0  0  0
 39 35  1  0  0  0  0
 40 35  2  0  0  0  0
 41 42  1  0  0  0  0
 41 43  1  0  0  0  0
 42 43  1  0  0  0  0
 43 28  1  0  0  0  0
M  END
>  <MODEL>
3

>  <REMARK>
 VINA RESULT:      -6.9      2.299      3.638
  Name = 
  19 active torsions:
  status: ('A' for Active; 'I' for Inactive)
    1  A    between atoms: C_1  and  C_36
    2  A    between atoms: C_2  and  C_18
    3  A    between atoms: C_2  and  O_31
    4  A    between atoms: O_3  and  C_11
    5  A    between atoms: C_7  and  C_20
    6  A    between atoms: C_7  and  C_33
    7  A    between atoms: C_7  and  C_35
    8  A    between atoms: C_9  and  C_29
    9  A    between atoms: C_11  and  C_32
   10  A    between atoms: C_12  and  C_27
   11  A    between atoms: C_14  and  C_15
   12  A    between atoms: C_14  and  C_24
   13  A    between atoms: C_15  and  C_29
   14  A    between atoms: C_15  and  C_40
   15  A    between atoms: C_16  and  C_27
   16  A    between atoms: C_19  and  O_31
   17  A    between atoms: C_27  and  C_43
   18  A    between atoms: C_28  and  C_29
   19  A    between atoms: C_32  and  C_36
                            x       y       z     vdW  Elec       q    Type
                         _______ _______ _______ _____ _____    ______ ____

>  <TORSDO>
F 19

$$$$
=
 OpenBabel10222417223D

 43 44  0  0  1  0  0  0  0  0999 V2000
  189.1900  177.2930  141.4130 C   0  0  2  0  0  3  0  0  0  0  0  0
  191.5890  177.0290  144.2340 C   0  0  1  0  0  3  0  0  0  0  0  0
  189.7540  175.6300  143.5660 O   0  0  0  0  0  1  0  0  0  0  0  0
  190.2720  178.6100  143.2980 C   0  0  0  0  0  2  0  0  0  0  0  0
  190.4520  177.5120  142.2660 C   0  0  1  0  0  3  0  0  0  0  0  0
  190.8720  176.3280  143.0950 C   0  0  1  0  0  3  0  0  0  0  0  0
  190.9970  178.2860  144.4630 O   0  0  0  0  0  0  0  0  0  0  0  0
  191.7250  176.1990  145.5140 C   0  0  0  0  0  2  0  0  0  0  0  0
  192.2270  176.6130  147.8080 O   0  0  0  0  0  1  0  0  0  0  0  0
  191.3850  176.9960  146.7640 C   0  0  2  0  0  3  0  0  0  0  0  0
  189.9420  176.7410  147.1510 C   0  0  0  0  0  2  0  0  0  0  0  0
  189.5240  177.6870  148.0860 O   0  0  0  0  0  0  0  0  0  0  0  0
  188.1620  177.4340  148.2640 C   0  0  0  0  0  1  0  0  0  0  0  0
  189.5070  177.4100  139.9500 C   0  0  0  0  0  3  0  0  0  0  0  0
  190.3730  176.5800  139.3640 C   0  0  0  0  0  3  0  0  0  0  0  0
  190.6940  176.6710  137.8960 C   0  0  2  0  0  3  0  0  0  0  0  0
  189.4060  176.4930  137.0920 C   0  0  0  0  0  2  0  0  0  0  0  0
  189.2700  178.9090  136.8390 N   0  0  0  0  0  1  0  0  0  0  0  0
  189.1980  177.6470  136.1260 C   0  0  0  0  0  2  0  0  0  0  0  0
  191.7730  175.6500  137.4820 C   0  0  1  0  0  3  0  0  0  0  0  0
  191.3210  174.3420  135.3700 N   0  0  0  0  0  1  0  0  0  0  0  0
  191.1830  174.4640  136.7790 C   0  0  0  0  0  0  0  0  0  0  0  0
  190.5650  173.5770  137.4260 O   0  0  0  0  0  0  0  0  0  0  0  0
  192.8380  176.2910  136.5980 C   0  0  0  0  0  2  0  0  0  0  0  0
  193.9500  176.6360  137.3670 O   0  0  0  0  0  1  0  0  0  0  0  0
  186.9260  177.8390  142.2840 C   0  0  0  0  0  3  0  0  0  0  0  0
  188.0940  178.2570  141.7880 C   0  0  0  0  0  3  0  0  0  0  0  0
  185.8590  178.8130  142.6720 C   0  0  1  0  0  3  0  0  0  0  0  0
  185.0520  179.1940  141.4620 C   0  0  0  0  0  3  0  0  0  0  0  0
  182.5890  178.3750  141.1930 C   0  0  0  0  0  0  0  0  0  0  0  0
  183.8180  178.7860  141.3260 C   0  0  0  0  0  0  0  0  0  0  0  0
  181.6440  178.6920  142.1590 O   0  0  0  0  0  1  0  0  0  0  0  0
  182.2110  177.5220  140.0340 C   0  0  0  0  0  2  0  0  0  0  0  0
  182.1130  178.3220  138.8620 O   0  0  0  0  0  0  0  0  0  0  0  0
  180.5850  181.6950  138.0930 C   0  0  0  0  0  0  0  0  0  0  0  0
  179.9150  179.0120  138.9670 O   0  0  0  0  0  0  0  0  0  0  0  0
  181.1180  179.2880  138.7100 C   0  0  0  0  0  0  0  0  0  0  0  0
  181.1050  182.9930  137.5880 C   0  0  0  0  0  1  0  0  0  0  0  0
  181.4880  180.5960  138.2630 N   0  0  0  0  0  2  0  0  0  0  0  0
  179.3630  181.5850  138.3790 O   0  0  0  0  0  0  0  0  0  0  0  0
  185.0490  179.1530  145.0930 C   0  0  0  0  0  2  0  0  0  0  0  0
  185.9560  177.9390  145.0500 C   0  0  0  0  0  2  0  0  0  0  0  0
  185.0560  178.2520  143.8680 C   0  0  0  0  0  3  0  0  0  0  0  0
  1 14  1  6  0  0  0
  1 27  1  0  0  0  0
  2  7  1  0  0  0  0
  2  8  1  1  0  0  0
  4  7  1  0  0  0  0
  5  1  1  1  0  0  0
  5  6  1  0  0  0  0
  5  4  1  0  0  0  0
  6  3  1  1  0  0  0
  6  2  1  0  0  0  0
  8 10  1  0  0  0  0
 10 11  1  0  0  0  0
 10  9  1  1  0  0  0
 11 12  1  0  0  0  0
 12 13  1  0  0  0  0
 15 14  2  0  0  0  0
 16 17  1  6  0  0  0
 16 15  1  0  0  0  0
 19 18  1  0  0  0  0
 19 17  1  0  0  0  0
 20 24  1  6  0  0  0
 20 16  1  0  0  0  0
 21 22  1  0  0  0  0
 22 23  2  0  0  0  0
 22 20  1  0  0  0  0
 24 25  1  0  0  0  0
 26 28  1  0  0  0  0
 27 26  2  0  0  0  0
 28 29  1  6  0  0  0
 28 43  1  0  0  0  0
 30 31  2  0  0  0  0
 30 32  1  0  0  0  0
 31 29  2  0  0  0  0
 33 30  1  0  0  0  0
 34 33  1  0  0  0  0
 35 39  1  0  0  0  0
 35 40  2  0  0  0  0
 37 34  1  0  0  0  0
 37 36  2  0  0  0  0
 38 35  1  0  0  0  0
 39 37  1  0  0  0  0
 42 41  1  0  0  0  0
 43 42  1  0  0  0  0
 43 41  1  0  0  0  0
M  END
>  <MODEL>
4

>  <REMARK>
 VINA RESULT:      -6.9      2.542      9.487
  Name = 
  19 active torsions:
  status: ('A' for Active; 'I' for Inactive)
    1  A    between atoms: C_1  and  C_36
    2  A    between atoms: C_2  and  C_18
    3  A    between atoms: C_2  and  O_31
    4  A    between atoms: O_3  and  C_11
    5  A    between atoms: C_7  and  C_20
    6  A    between atoms: C_7  and  C_33
    7  A    between atoms: C_7  and  C_35
    8  A    between atoms: C_9  and  C_29
    9  A    between atoms: C_11  and  C_32
   10  A    between atoms: C_12  and  C_27
   11  A    between atoms: C_14  and  C_15
   12  A    between atoms: C_14  and  C_24
   13  A    between atoms: C_15  and  C_29
   14  A    between atoms: C_15  and  C_40
   15  A    between atoms: C_16  and  C_27
   16  A    between atoms: C_19  and  O_31
   17  A    between atoms: C_27  and  C_43
   18  A    between atoms: C_28  and  C_29
   19  A    between atoms: C_32  and  C_36
                            x       y       z     vdW  Elec       q    Type
                         _______ _______ _______ _____ _____    ______ ____

>  <TORSDO>
F 19

$$$$
=
 OpenBabel10222417223D

 43 44  0  0  1  0  0  0  0  0999 V2000
  189.7670  177.2980  141.3550 C   0  0  2  0  0  3  0  0  0  0  0  0
  191.7340  177.0370  144.4920 C   0  0  1  0  0  3  0  0  0  0  0  0
  189.9620  175.6800  143.6050 O   0  0  0  0  0  1  0  0  0  0  0  0
  190.6200  178.6330  143.3420 C   0  0  0  0  0  2  0  0  0  0  0  0
  190.9030  177.5000  142.3720 C   0  0  1  0  0  3  0  0  0  0  0  0
  191.1590  176.3270  143.2800 C   0  0  1  0  0  3  0  0  0  0  0  0
  191.1620  178.3190  144.6050 O   0  0  0  0  0  0  0  0  0  0  0  0
  191.6600  176.2410  145.7980 C   0  0  0  0  0  2  0  0  0  0  0  0
  192.0080  176.9210  148.0560 O   0  0  0  0  0  1  0  0  0  0  0  0
  191.1560  177.0780  146.9630 C   0  0  2  0  0  3  0  0  0  0  0  0
  189.7550  176.6350  147.3380 C   0  0  0  0  0  2  0  0  0  0  0  0
  188.8730  177.7100  147.2410 O   0  0  0  0  0  0  0  0  0  0  0  0
  188.7160  178.1610  148.5530 C   0  0  0  0  0  1  0  0  0  0  0  0
  190.2490  177.5520  139.9560 C   0  0  0  0  0  3  0  0  0  0  0  0
  189.8460  176.7870  138.9380 C   0  0  0  0  0  3  0  0  0  0  0  0
  190.3070  177.0330  137.5270 C   0  0  2  0  0  3  0  0  0  0  0  0
  189.1240  177.5290  136.6950 C   0  0  0  0  0  2  0  0  0  0  0  0
  187.4770  179.3110  136.8760 N   0  0  0  0  0  1  0  0  0  0  0  0
  188.8990  179.0180  136.8940 C   0  0  0  0  0  2  0  0  0  0  0  0
  190.9540  175.7770  136.9090 C   0  0  1  0  0  3  0  0  0  0  0  0
  189.5920  174.8090  135.0170 N   0  0  0  0  0  1  0  0  0  0  0  0
  190.6520  175.6520  135.4460 C   0  0  0  0  0  0  0  0  0  0  0  0
  191.3300  176.2860  134.5940 O   0  0  0  0  0  0  0  0  0  0  0  0
  192.4650  175.7650  137.1210 C   0  0  0  0  0  2  0  0  0  0  0  0
  192.8680  174.5180  137.5990 O   0  0  0  0  0  1  0  0  0  0  0  0
  187.4030  177.6660  142.0330 C   0  0  0  0  0  3  0  0  0  0  0  0
  188.5820  178.1760  141.6660 C   0  0  0  0  0  3  0  0  0  0  0  0
  186.2450  178.5550  142.3600 C   0  0  1  0  0  3  0  0  0  0  0  0
  185.4150  178.7850  141.1280 C   0  0  0  0  0  3  0  0  0  0  0  0
  182.8500  178.3080  141.1440 C   0  0  0  0  0  0  0  0  0  0  0  0
  184.1300  178.5490  141.1340 C   0  0  0  0  0  0  0  0  0  0  0  0
  182.0290  178.9650  142.0510 O   0  0  0  0  0  1  0  0  0  0  0  0
  182.2750  177.2940  140.2200 C   0  0  0  0  0  2  0  0  0  0  0  0
  182.6570  177.5930  138.8830 O   0  0  0  0  0  0  0  0  0  0  0  0
  184.3870  174.5660  137.4170 C   0  0  0  0  0  0  0  0  0  0  0  0
  184.6700  177.4310  137.7690 O   0  0  0  0  0  0  0  0  0  0  0  0
  183.6380  176.8600  138.2160 C   0  0  0  0  0  0  0  0  0  0  0  0
  184.0490  173.1250  137.2860 C   0  0  0  0  0  1  0  0  0  0  0  0
  183.4540  175.4500  138.0490 N   0  0  0  0  0  2  0  0  0  0  0  0
  185.4940  174.9850  136.9860 O   0  0  0  0  0  0  0  0  0  0  0  0
  185.2790  179.0000  144.7050 C   0  0  0  0  0  2  0  0  0  0  0  0
  186.3730  177.9570  144.8200 C   0  0  0  0  0  2  0  0  0  0  0  0
  185.4900  177.9930  143.5860 C   0  0  0  0  0  3  0  0  0  0  0  0
  1 14  1  6  0  0  0
  1 27  1  0  0  0  0
  2  7  1  0  0  0  0
  2  8  1  1  0  0  0
  4  7  1  0  0  0  0
  5  1  1  6  0  0  0
  5  6  1  0  0  0  0
  5  4  1  0  0  0  0
  6  3  1  1  0  0  0
  6  2  1  0  0  0  0
  8 10  1  0  0  0  0
 10 11  1  0  0  0  0
 10  9  1  1  0  0  0
 12 11  1  0  0  0  0
 12 13  1  0  0  0  0
 15 14  2  0  0  0  0
 16 17  1  6  0  0  0
 16 15  1  0  0  0  0
 17 19  1  0  0  0  0
 18 19  1  0  0  0  0
 20 24  1  6  0  0  0
 20 16  1  0  0  0  0
 21 22  1  0  0  0  0
 22 20  1  0  0  0  0
 23 22  2  0  0  0  0
 24 25  1  0  0  0  0
 26 28  1  0  0  0  0
 27 26  2  0  0  0  0
 28 29  1  6  0  0  0
 28 43  1  0  0  0  0
 29 31  2  0  0  0  0
 30 32  1  0  0  0  0
 31 30  2  0  0  0  0
 33 30  1  0  0  0  0
 34 33  1  0  0  0  0
 35 39  1  0  0  0  0
 36 37  2  0  0  0  0
 37 34  1  0  0  0  0
 38 35  1  0  0  0  0
 39 37  1  0  0  0  0
 40 35  2  0  0  0  0
 41 42  1  0  0  0  0
 43 41  1  0  0  0  0
 43 42  1  0  0  0  0
M  END
>  <MODEL>
5

>  <REMARK>
 VINA RESULT:      -6.8      2.809      8.052
  Name = 
  19 active torsions:
  status: ('A' for Active; 'I' for Inactive)
    1  A    between atoms: C_1  and  C_36
    2  A    between atoms: C_2  and  C_18
    3  A    between atoms: C_2  and  O_31
    4  A    between atoms: O_3  and  C_11
    5  A    between atoms: C_7  and  C_20
    6  A    between atoms: C_7  and  C_33
    7  A    between atoms: C_7  and  C_35
    8  A    between atoms: C_9  and  C_29
    9  A    between atoms: C_11  and  C_32
   10  A    between atoms: C_12  and  C_27
   11  A    between atoms: C_14  and  C_15
   12  A    between atoms: C_14  and  C_24
   13  A    between atoms: C_15  and  C_29
   14  A    between atoms: C_15  and  C_40
   15  A    between atoms: C_16  and  C_27
   16  A    between atoms: C_19  and  O_31
   17  A    between atoms: C_27  and  C_43
   18  A    between atoms: C_28  and  C_29
   19  A    between atoms: C_32  and  C_36
                            x       y       z     vdW  Elec       q    Type
                         _______ _______ _______ _____ _____    ______ ____

>  <TORSDO>
F 19

$$$$
=
 OpenBabel10222417223D

 43 44  0  0  1  0  0  0  0  0999 V2000
  188.6600  178.0500  141.6190 C   0  0  2  0  0  3  0  0  0  0  0  0
  190.1830  176.6360  138.5430 C   0  0  1  0  0  3  0  0  0  0  0  0
  191.1400  177.8490  140.3820 O   0  0  0  0  0  1  0  0  0  0  0  0
  188.3890  177.8950  139.0970 C   0  0  0  0  0  2  0  0  0  0  0  0
  188.8430  177.1860  140.3590 C   0  0  1  0  0  3  0  0  0  0  0  0
  190.2670  176.8090  140.0490 C   0  0  1  0  0  3  0  0  0  0  0  0
  189.2150  177.5140  138.0190 O   0  0  0  0  0  0  0  0  0  0  0  0
  191.5250  176.7340  137.8110 C   0  0  0  0  0  2  0  0  0  0  0  0
  193.7950  176.0350  138.0210 O   0  0  0  0  0  1  0  0  0  0  0  0
  192.4780  175.6100  138.1880 C   0  0  2  0  0  3  0  0  0  0  0  0
  192.2140  174.4040  137.3060 C   0  0  0  0  0  2  0  0  0  0  0  0
  192.7350  174.6210  136.0320 O   0  0  0  0  0  0  0  0  0  0  0  0
  191.7970  174.0610  135.1630 C   0  0  0  0  0  1  0  0  0  0  0  0
  189.0350  177.2830  142.8540 C   0  0  0  0  0  3  0  0  0  0  0  0
  189.4720  177.9110  143.9490 C   0  0  0  0  0  3  0  0  0  0  0  0
  189.8400  177.1630  145.2020 C   0  0  2  0  0  3  0  0  0  0  0  0
  189.3720  177.9640  146.4160 C   0  0  0  0  0  2  0  0  0  0  0  0
  188.1440  177.7880  148.5100 N   0  0  0  0  0  1  0  0  0  0  0  0
  188.2910  177.2190  147.1820 C   0  0  0  0  0  2  0  0  0  0  0  0
  191.3500  176.8580  145.2640 C   0  0  1  0  0  3  0  0  0  0  0  0
  191.7760  177.0900  147.7420 N   0  0  0  0  0  1  0  0  0  0  0  0
  191.7490  176.2680  146.5830 C   0  0  0  0  0  0  0  0  0  0  0  0
  192.0650  175.0520  146.6730 O   0  0  0  0  0  0  0  0  0  0  0  0
  191.7790  175.9250  144.1350 C   0  0  0  0  0  2  0  0  0  0  0  0
  192.3150  176.6680  143.0820 O   0  0  0  0  0  1  0  0  0  0  0  0
  186.3430  177.9800  142.5190 C   0  0  0  0  0  3  0  0  0  0  0  0
  187.2500  178.5690  141.7340 C   0  0  0  0  0  3  0  0  0  0  0  0
  184.9550  178.5240  142.6380 C   0  0  1  0  0  3  0  0  0  0  0  0
  184.1080  178.0090  141.5080 C   0  0  0  0  0  3  0  0  0  0  0  0
  183.4870  179.5560  139.4990 C   0  0  0  0  0  0  0  0  0  0  0  0
  183.7970  178.7810  140.5000 C   0  0  0  0  0  0  0  0  0  0  0  0
  184.4910  180.1350  138.7350 O   0  0  0  0  0  1  0  0  0  0  0  0
  182.0600  179.8600  139.2070 C   0  0  0  0  0  2  0  0  0  0  0  0
  181.9000  181.2590  139.0070 O   0  0  0  0  0  0  0  0  0  0  0  0
  180.3900  183.6640  136.5100 C   0  0  0  0  0  0  0  0  0  0  0  0
  179.8840  181.1660  137.8930 O   0  0  0  0  0  0  0  0  0  0  0  0
  180.9680  181.7730  138.1070 C   0  0  0  0  0  0  0  0  0  0  0  0
  180.8410  184.9220  135.8590 C   0  0  0  0  0  1  0  0  0  0  0  0
  181.2610  183.0010  137.4330 N   0  0  0  0  0  2  0  0  0  0  0  0
  179.2440  183.2090  136.2540 O   0  0  0  0  0  0  0  0  0  0  0  0
  184.4750  179.4600  144.9890 C   0  0  0  0  0  2  0  0  0  0  0  0
  185.5100  178.3580  145.1060 C   0  0  0  0  0  2  0  0  0  0  0  0
  184.4130  178.2570  144.0620 C   0  0  0  0  0  3  0  0  0  0  0  0
  1 27  1  1  0  0  0
  1 14  1  0  0  0  0
  2  8  1  6  0  0  0
  2  6  1  0  0  0  0
  4  5  1  0  0  0  0
  5  1  1  1  0  0  0
  6  5  1  0  0  0  0
  6  3  1  6  0  0  0
  7  2  1  0  0  0  0
  7  4  1  0  0  0  0
  8 10  1  0  0  0  0
 10  9  1  6  0  0  0
 11 10  1  0  0  0  0
 12 11  1  0  0  0  0
 13 12  1  0  0  0  0
 14 15  2  0  0  0  0
 16 15  1  6  0  0  0
 16 20  1  0  0  0  0
 16 17  1  0  0  0  0
 17 19  1  0  0  0  0
 19 18  1  0  0  0  0
 20 24  1  6  0  0  0
 20 22  1  0  0  0  0
 22 23  2  0  0  0  0
 22 21  1  0  0  0  0
 25 24  1  0  0  0  0
 26 28  1  0  0  0  0
 27 26  2  0  0  0  0
 28 29  1  6  0  0  0
 28 43  1  0  0  0  0
 30 31  2  0  0  0  0
 31 29  2  0  0  0  0
 32 30  1  0  0  0  0
 33 30  1  0  0  0  0
 34 33  1  0  0  0  0
 35 39  1  0  0  0  0
 36 37  2  0  0  0  0
 37 34  1  0  0  0  0
 38 35  1  0  0  0  0
 39 37  1  0  0  0  0
 40 35  2  0  0  0  0
 41 42  1  0  0  0  0
 43 41  1  0  0  0  0
 43 42  1  0  0  0  0
M  END
>  <MODEL>
6

>  <REMARK>
 VINA RESULT:      -6.8      3.130     10.667
  Name = 
  19 active torsions:
  status: ('A' for Active; 'I' for Inactive)
    1  A    between atoms: C_1  and  C_36
    2  A    between atoms: C_2  and  C_18
    3  A    between atoms: C_2  and  O_31
    4  A    between atoms: O_3  and  C_11
    5  A    between atoms: C_7  and  C_20
    6  A    between atoms: C_7  and  C_33
    7  A    between atoms: C_7  and  C_35
    8  A    between atoms: C_9  and  C_29
    9  A    between atoms: C_11  and  C_32
   10  A    between atoms: C_12  and  C_27
   11  A    between atoms: C_14  and  C_15
   12  A    between atoms: C_14  and  C_24
   13  A    between atoms: C_15  and  C_29
   14  A    between atoms: C_15  and  C_40
   15  A    between atoms: C_16  and  C_27
   16  A    between atoms: C_19  and  O_31
   17  A    between atoms: C_27  and  C_43
   18  A    between atoms: C_28  and  C_29
   19  A    between atoms: C_32  and  C_36
                            x       y       z     vdW  Elec       q    Type
                         _______ _______ _______ _____ _____    ______ ____

>  <TORSDO>
F 19

$$$$
=
 OpenBabel10222417223D

 43 44  0  0  1  0  0  0  0  0999 V2000
  187.7090  177.9580  142.3000 C   0  0  2  0  0  3  0  0  0  0  0  0
  190.0270  176.5580  144.8390 C   0  0  1  0  0  3  0  0  0  0  0  0
  189.7920  178.7750  143.9470 O   0  0  0  0  0  1  0  0  0  0  0  0
  189.2850  176.0210  142.7720 C   0  0  0  0  0  2  0  0  0  0  0  0
  188.2930  177.0080  143.3600 C   0  0  1  0  0  3  0  0  0  0  0  0
  189.0820  177.6800  144.4510 C   0  0  1  0  0  3  0  0  0  0  0  0
  190.3040  175.7610  143.7110 O   0  0  0  0  0  0  0  0  0  0  0  0
  191.2960  177.0100  145.5670 C   0  0  0  0  0  2  0  0  0  0  0  0
  192.0560  176.6780  147.8030 O   0  0  0  0  0  1  0  0  0  0  0  0
  191.0540  177.2830  147.0440 C   0  0  2  0  0  3  0  0  0  0  0  0
  189.7020  176.7290  147.4470 C   0  0  0  0  0  2  0  0  0  0  0  0
  189.1160  177.5520  148.4080 O   0  0  0  0  0  0  0  0  0  0  0  0
  187.9570  178.0390  147.8020 C   0  0  0  0  0  1  0  0  0  0  0  0
  186.2100  178.0020  142.3880 C   0  0  0  0  0  3  0  0  0  0  0  0
  185.5260  179.0650  141.9580 C   0  0  0  0  0  3  0  0  0  0  0  0
  184.0240  179.1250  142.0240 C   0  0  2  0  0  3  0  0  0  0  0  0
  183.5510  178.3970  143.2820 C   0  0  0  0  0  2  0  0  0  0  0  0
  184.0160  178.8590  145.6250 N   0  0  0  0  0  1  0  0  0  0  0  0
  183.3550  179.3660  144.4370 C   0  0  0  0  0  2  0  0  0  0  0  0
  183.3710  178.5500  140.7510 C   0  0  1  0  0  3  0  0  0  0  0  0
  181.1910  177.2860  140.5860 N   0  0  0  0  0  1  0  0  0  0  0  0
  181.8770  178.5010  140.8600 C   0  0  0  0  0  0  0  0  0  0  0  0
  181.2230  179.5260  141.1880 O   0  0  0  0  0  0  0  0  0  0  0  0
  183.7680  179.3460  139.5110 C   0  0  0  0  0  2  0  0  0  0  0  0
  184.4090  178.5110  138.5950 O   0  0  0  0  0  1  0  0  0  0  0  0
  188.5340  178.4760  140.0120 C   0  0  0  0  0  3  0  0  0  0  0  0
  188.1390  177.5680  140.9090 C   0  0  0  0  0  3  0  0  0  0  0  0
  188.9790  178.0660  138.6440 C   0  0  1  0  0  3  0  0  0  0  0  0
  189.9730  176.9440  138.7460 C   0  0  0  0  0  3  0  0  0  0  0  0
  192.1360  177.2080  140.1830 C   0  0  0  0  0  0  0  0  0  0  0  0
  191.0560  177.0730  139.4670 C   0  0  0  0  0  0  0  0  0  0  0  0
  192.0370  177.4970  141.5370 O   0  0  0  0  0  1  0  0  0  0  0  0
  193.4740  177.1030  139.5410 C   0  0  0  0  0  2  0  0  0  0  0  0
  193.3190  176.8940  138.1430 O   0  0  0  0  0  0  0  0  0  0  0  0
  193.1880  173.5160  136.4470 C   0  0  0  0  0  0  0  0  0  0  0  0
  195.0290  175.5730  137.3360 O   0  0  0  0  0  0  0  0  0  0  0  0
  193.7920  175.7430  137.5130 C   0  0  0  0  0  0  0  0  0  0  0  0
  192.1010  172.6000  136.0140 C   0  0  0  0  0  1  0  0  0  0  0  0
  192.8500  174.7580  137.0750 N   0  0  0  0  0  2  0  0  0  0  0  0
  194.3890  173.1810  136.2690 O   0  0  0  0  0  0  0  0  0  0  0  0
  188.0730  177.4490  136.3140 C   0  0  0  0  0  2  0  0  0  0  0  0
  187.5900  178.8410  136.6700 C   0  0  0  0  0  2  0  0  0  0  0  0
  187.7420  177.7920  137.7570 C   0  0  0  0  0  3  0  0  0  0  0  0
  1 27  1  6  0  0  0
  1 14  1  0  0  0  0
  2  8  1  6  0  0  0
  4  5  1  0  0  0  0
  4  7  1  0  0  0  0
  5  1  1  6  0  0  0
  5  6  1  0  0  0  0
  6  3  1  6  0  0  0
  6  2  1  0  0  0  0
  7  2  1  0  0  0  0
  8 10  1  0  0  0  0
 10 11  1  0  0  0  0
 10  9  1  1  0  0  0
 11 12  1  0  0  0  0
 13 12  1  0  0  0  0
 15 14  2  0  0  0  0
 16 15  1  6  0  0  0
 16 17  1  0  0  0  0
 17 19  1  0  0  0  0
 19 18  1  0  0  0  0
 20 24  1  6  0  0  0
 20 22  1  0  0  0  0
 20 16  1  0  0  0  0
 21 22  1  0  0  0  0
 22 23  2  0  0  0  0
 25 24  1  0  0  0  0
 26 27  2  0  0  0  0
 28 29  1  1  0  0  0
 28 26  1  0  0  0  0
 29 31  2  0  0  0  0
 30 32  1  0  0  0  0
 31 30  2  0  0  0  0
 33 30  1  0  0  0  0
 34 33  1  0  0  0  0
 35 39  1  0  0  0  0
 36 37  2  0  0  0  0
 37 34  1  0  0  0  0
 38 35  1  0  0  0  0
 39 37  1  0  0  0  0
 40 35  2  0  0  0  0
 41 42  1  0  0  0  0
 41 43  1  0  0  0  0
 42 43  1  0  0  0  0
 43 28  1  0  0  0  0
M  END
>  <MODEL>
7

>  <REMARK>
 VINA RESULT:      -6.6      1.800      2.236
  Name = 
  19 active torsions:
  status: ('A' for Active; 'I' for Inactive)
    1  A    between atoms: C_1  and  C_36
    2  A    between atoms: C_2  and  C_18
    3  A    between atoms: C_2  and  O_31
    4  A    between atoms: O_3  and  C_11
    5  A    between atoms: C_7  and  C_20
    6  A    between atoms: C_7  and  C_33
    7  A    between atoms: C_7  and  C_35
    8  A    between atoms: C_9  and  C_29
    9  A    between atoms: C_11  and  C_32
   10  A    between atoms: C_12  and  C_27
   11  A    between atoms: C_14  and  C_15
   12  A    between atoms: C_14  and  C_24
   13  A    between atoms: C_15  and  C_29
   14  A    between atoms: C_15  and  C_40
   15  A    between atoms: C_16  and  C_27
   16  A    between atoms: C_19  and  O_31
   17  A    between atoms: C_27  and  C_43
   18  A    between atoms: C_28  and  C_29
   19  A    between atoms: C_32  and  C_36
                            x       y       z     vdW  Elec       q    Type
                         _______ _______ _______ _____ _____    ______ ____

>  <TORSDO>
F 19

$$$$
=
 OpenBabel10222417223D

 43 44  0  0  1  0  0  0  0  0999 V2000
  189.2730  177.4940  141.3290 C   0  0  2  0  0  3  0  0  0  0  0  0
  191.3440  177.4310  144.4090 C   0  0  1  0  0  3  0  0  0  0  0  0
  190.1970  175.6840  143.2240 O   0  0  0  0  0  1  0  0  0  0  0  0
  189.6390  178.6510  143.5620 C   0  0  0  0  0  2  0  0  0  0  0  0
  190.2910  177.9270  142.3980 C   0  0  1  0  0  3  0  0  0  0  0  0
  191.0300  176.7980  143.0660 C   0  0  1  0  0  3  0  0  0  0  0  0
  190.3240  178.3390  144.7540 O   0  0  0  0  0  0  0  0  0  0  0  0
  191.6510  176.4360  145.5310 C   0  0  0  0  0  2  0  0  0  0  0  0
  192.2630  176.6420  147.8270 O   0  0  0  0  0  1  0  0  0  0  0  0
  191.2700  176.9690  146.9040 C   0  0  2  0  0  3  0  0  0  0  0  0
  189.9500  176.3610  147.3350 C   0  0  0  0  0  2  0  0  0  0  0  0
  188.9280  177.3020  147.2120 O   0  0  0  0  0  0  0  0  0  0  0  0
  188.9680  178.0290  148.4030 C   0  0  0  0  0  1  0  0  0  0  0  0
  189.9350  177.3410  139.9890 C   0  0  0  0  0  3  0  0  0  0  0  0
  189.2870  176.7940  138.9580 C   0  0  0  0  0  3  0  0  0  0  0  0
  189.9270  176.6430  137.6050 C   0  0  2  0  0  3  0  0  0  0  0  0
  191.4450  176.7290  137.7590 C   0  0  0  0  0  2  0  0  0  0  0  0
  192.8600  175.4460  136.2520 N   0  0  0  0  0  1  0  0  0  0  0  0
  192.1020  175.3860  137.4880 C   0  0  0  0  0  2  0  0  0  0  0  0
  189.3930  177.6840  136.6000 C   0  0  1  0  0  3  0  0  0  0  0  0
  189.7370  176.1880  134.5960 N   0  0  0  0  0  1  0  0  0  0  0  0
  188.8840  177.0420  135.3450 C   0  0  0  0  0  0  0  0  0  0  0  0
  187.7080  177.2560  134.9460 O   0  0  0  0  0  0  0  0  0  0  0  0
  188.2940  178.5450  137.2170 C   0  0  0  0  0  2  0  0  0  0  0  0
  188.8000  179.8060  137.5340 O   0  0  0  0  0  1  0  0  0  0  0  0
  186.8520  178.0610  141.3170 C   0  0  0  0  0  3  0  0  0  0  0  0
  188.1230  178.4630  141.2340 C   0  0  0  0  0  3  0  0  0  0  0  0
  185.7250  179.0420  141.2450 C   0  0  1  0  0  3  0  0  0  0  0  0
  185.1930  179.1030  139.8400 C   0  0  0  0  0  3  0  0  0  0  0  0
  183.3810  177.4090  139.0290 C   0  0  0  0  0  0  0  0  0  0  0  0
  184.2840  178.2570  139.4320 C   0  0  0  0  0  0  0  0  0  0  0  0
  182.1630  177.3280  139.6900 O   0  0  0  0  0  1  0  0  0  0  0  0
  183.6730  176.4930  137.8930 C   0  0  0  0  0  2  0  0  0  0  0  0
  185.0300  176.0700  137.9560 O   0  0  0  0  0  0  0  0  0  0  0  0
  187.5390  173.8020  136.2650 C   0  0  0  0  0  0  0  0  0  0  0  0
  185.1060  175.3050  135.7820 O   0  0  0  0  0  0  0  0  0  0  0  0
  185.6170  175.3240  136.9350 C   0  0  0  0  0  0  0  0  0  0  0  0
  188.7470  173.0580  136.7080 C   0  0  0  0  0  1  0  0  0  0  0  0
  186.8090  174.5840  137.2170 N   0  0  0  0  0  2  0  0  0  0  0  0
  187.1850  173.7480  135.0580 O   0  0  0  0  0  0  0  0  0  0  0  0
  184.9270  179.4480  143.6590 C   0  0  0  0  0  2  0  0  0  0  0  0
  185.3200  177.9910  143.5160 C   0  0  0  0  0  2  0  0  0  0  0  0
  184.6870  178.7220  142.3460 C   0  0  0  0  0  3  0  0  0  0  0  0
  1 14  1  6  0  0  0
  2  7  1  0  0  0  0
  2  8  1  1  0  0  0
  4  7  1  0  0  0  0
  5  1  1  6  0  0  0
  5  6  1  0  0  0  0
  5  4  1  0  0  0  0
  6  3  1  1  0  0  0
  6  2  1  0  0  0  0
  8 10  1  0  0  0  0
 10 11  1  0  0  0  0
 10  9  1  1  0  0  0
 12 11  1  0  0  0  0
 12 13  1  0  0  0  0
 15 14  2  0  0  0  0
 16 17  1  1  0  0  0
 16 15  1  0  0  0  0
 18 19  1  0  0  0  0
 19 17  1  0  0  0  0
 20 24  1  1  0  0  0
 20 16  1  0  0  0  0
 21 22  1  0  0  0  0
 22 20  1  0  0  0  0
 23 22  2  0  0  0  0
 24 25  1  0  0  0  0
 27 26  2  0  0  0  0
 27  1  1  0  0  0  0
 28 29  1  6  0  0  0
 28 26  1  0  0  0  0
 28 43  1  0  0  0  0
 30 31  2  0  0  0  0
 30 32  1  0  0  0  0
 31 29  2  0  0  0  0
 33 34  1  0  0  0  0
 33 30  1  0  0  0  0
 35 38  1  0  0  0  0
 35 39  1  0  0  0  0
 36 37  2  0  0  0  0
 37 39  1  0  0  0  0
 37 34  1  0  0  0  0
 40 35  2  0  0  0  0
 42 41  1  0  0  0  0
 43 42  1  0  0  0  0
 43 41  1  0  0  0  0
M  END
>  <MODEL>
8

>  <REMARK>
 VINA RESULT:      -6.6      3.553      7.108
  Name = 
  19 active torsions:
  status: ('A' for Active; 'I' for Inactive)
    1  A    between atoms: C_1  and  C_36
    2  A    between atoms: C_2  and  C_18
    3  A    between atoms: C_2  and  O_31
    4  A    between atoms: O_3  and  C_11
    5  A    between atoms: C_7  and  C_20
    6  A    between atoms: C_7  and  C_33
    7  A    between atoms: C_7  and  C_35
    8  A    between atoms: C_9  and  C_29
    9  A    between atoms: C_11  and  C_32
   10  A    between atoms: C_12  and  C_27
   11  A    between atoms: C_14  and  C_15
   12  A    between atoms: C_14  and  C_24
   13  A    between atoms: C_15  and  C_29
   14  A    between atoms: C_15  and  C_40
   15  A    between atoms: C_16  and  C_27
   16  A    between atoms: C_19  and  O_31
   17  A    between atoms: C_27  and  C_43
   18  A    between atoms: C_28  and  C_29
   19  A    between atoms: C_32  and  C_36
                            x       y       z     vdW  Elec       q    Type
                         _______ _______ _______ _____ _____    ______ ____

>  <TORSDO>
F 19

$$$$
=
 OpenBabel10222417223D

 43 44  0  0  1  0  0  0  0  0999 V2000
  184.6540  179.2540  139.5500 C   0  0  2  0  0  3  0  0  0  0  0  0
  181.0970  179.8680  138.6820 C   0  0  1  0  0  3  0  0  0  0  0  0
  182.9740  181.3570  138.8590 O   0  0  0  0  0  1  0  0  0  0  0  0
  182.2660  178.7620  140.2690 C   0  0  0  0  0  2  0  0  0  0  0  0
  183.2070  178.9890  139.1000 C   0  0  1  0  0  3  0  0  0  0  0  0
  182.5560  180.1220  138.3510 C   0  0  1  0  0  3  0  0  0  0  0  0
  180.9950  179.2890  139.9620 O   0  0  0  0  0  0  0  0  0  0  0  0
  180.1800  181.0820  138.5090 C   0  0  0  0  0  2  0  0  0  0  0  0
  179.6870  179.8740  136.5130 O   0  0  0  0  0  1  0  0  0  0  0  0
  179.2970  180.9750  137.2750 C   0  0  2  0  0  3  0  0  0  0  0  0
  179.4240  182.2410  136.4500 C   0  0  0  0  0  2  0  0  0  0  0  0
  180.7700  182.5500  136.2540 O   0  0  0  0  0  0  0  0  0  0  0  0
  180.8040  183.2370  135.0390 C   0  0  0  0  0  1  0  0  0  0  0  0
  185.5960  178.2550  138.9420 C   0  0  0  0  0  3  0  0  0  0  0  0
  185.7300  178.1530  137.6170 C   0  0  0  0  0  3  0  0  0  0  0  0
  186.6780  177.1690  136.9870 C   0  0  2  0  0  3  0  0  0  0  0  0
  186.1520  175.7520  137.2180 C   0  0  0  0  0  2  0  0  0  0  0  0
  184.3620  174.8560  135.8360 N   0  0  0  0  0  1  0  0  0  0  0  0
  185.7950  175.0780  135.9050 C   0  0  0  0  0  2  0  0  0  0  0  0
  188.1160  177.3390  137.5160 C   0  0  1  0  0  3  0  0  0  0  0  0
  189.6800  175.3950  137.9020 N   0  0  0  0  0  1  0  0  0  0  0  0
  189.0360  176.2770  136.9930 C   0  0  0  0  0  0  0  0  0  0  0  0
  189.2450  176.1620  135.7570 O   0  0  0  0  0  0  0  0  0  0  0  0
  188.6780  178.7160  137.1750 C   0  0  0  0  0  2  0  0  0  0  0  0
  189.0530  179.3800  138.3430 O   0  0  0  0  0  1  0  0  0  0  0  0
  185.1930  178.1580  141.7160 C   0  0  0  0  0  3  0  0  0  0  0  0
  184.7770  179.2400  141.0520 C   0  0  0  0  0  3  0  0  0  0  0  0
  185.3310  178.1720  143.2060 C   0  0  1  0  0  3  0  0  0  0  0  0
  186.7820  178.2840  143.5820 C   0  0  0  0  0  3  0  0  0  0  0  0
  188.6150  177.0500  142.1950 C   0  0  0  0  0  0  0  0  0  0  0  0
  187.7020  177.6680  142.8880 C   0  0  0  0  0  0  0  0  0  0  0  0
  188.7510  177.3120  140.8380 O   0  0  0  0  0  1  0  0  0  0  0  0
  189.4780  176.0270  142.8450 C   0  0  0  0  0  2  0  0  0  0  0  0
  190.5990  176.6590  143.4500 O   0  0  0  0  0  0  0  0  0  0  0  0
  189.5850  177.2120  147.0510 C   0  0  0  0  0  0  0  0  0  0  0  0
  191.8590  176.5510  145.3780 O   0  0  0  0  0  0  0  0  0  0  0  0
  190.7380  176.7450  144.8350 C   0  0  0  0  0  0  0  0  0  0  0  0
  188.3070  177.5080  147.7490 C   0  0  0  0  0  1  0  0  0  0  0  0
  189.5880  177.0580  145.6280 N   0  0  0  0  0  2  0  0  0  0  0  0
  190.6480  177.1160  147.7200 O   0  0  0  0  0  0  0  0  0  0  0  0
  183.9990  178.9990  145.2490 C   0  0  0  0  0  2  0  0  0  0  0  0
  183.0260  178.6810  144.1310 C   0  0  0  0  0  2  0  0  0  0  0  0
  184.3950  179.2490  143.8030 C   0  0  0  0  0  3  0  0  0  0  0  0
  1 14  1  6  0  0  0
  1 27  1  0  0  0  0
  2  8  1  1  0  0  0
  2  7  1  0  0  0  0
  5  1  1  1  0  0  0
  5  4  1  0  0  0  0
  6  2  1  0  0  0  0
  6  3  1  1  0  0  0
  6  5  1  0  0  0  0
  7  4  1  0  0  0  0
 10  9  1  6  0  0  0
 10  8  1  0  0  0  0
 11 10  1  0  0  0  0
 12 11  1  0  0  0  0
 13 12  1  0  0  0  0
 15 14  2  0  0  0  0
 16 17  1  1  0  0  0
 16 20  1  0  0  0  0
 16 15  1  0  0  0  0
 18 19  1  0  0  0  0
 19 17  1  0  0  0  0
 20 24  1  6  0  0  0
 22 20  1  0  0  0  0
 22 21  1  0  0  0  0
 23 22  2  0  0  0  0
 24 25  1  0  0  0  0
 27 26  2  0  0  0  0
 28 26  1  6  0  0  0
 28 29  1  0  0  0  0
 28 43  1  0  0  0  0
 30 33  1  0  0  0  0
 30 31  2  0  0  0  0
 31 29  2  0  0  0  0
 32 30  1  0  0  0  0
 33 34  1  0  0  0  0
 34 37  1  0  0  0  0
 35 40  2  0  0  0  0
 35 38  1  0  0  0  0
 37 36  2  0  0  0  0
 37 39  1  0  0  0  0
 39 35  1  0  0  0  0
 42 41  1  0  0  0  0
 43 42  1  0  0  0  0
 43 41  1  0  0  0  0
M  END
>  <MODEL>
9

>  <REMARK>
 VINA RESULT:      -6.5      4.035      9.663
  Name = 
  19 active torsions:
  status: ('A' for Active; 'I' for Inactive)
    1  A    between atoms: C_1  and  C_36
    2  A    between atoms: C_2  and  C_18
    3  A    between atoms: C_2  and  O_31
    4  A    between atoms: O_3  and  C_11
    5  A    between atoms: C_7  and  C_20
    6  A    between atoms: C_7  and  C_33
    7  A    between atoms: C_7  and  C_35
    8  A    between atoms: C_9  and  C_29
    9  A    between atoms: C_11  and  C_32
   10  A    between atoms: C_12  and  C_27
   11  A    between atoms: C_14  and  C_15
   12  A    between atoms: C_14  and  C_24
   13  A    between atoms: C_15  and  C_29
   14  A    between atoms: C_15  and  C_40
   15  A    between atoms: C_16  and  C_27
   16  A    between atoms: C_19  and  O_31
   17  A    between atoms: C_27  and  C_43
   18  A    between atoms: C_28  and  C_29
   19  A    between atoms: C_32  and  C_36
                            x       y       z     vdW  Elec       q    Type
                         _______ _______ _______ _____ _____    ______ ____

>  <TORSDO>
F 19

$$$$
