=
 OpenBabel10222415443D

 44 47  0  0  1  0  0  0  0  0999 V2000
  182.7930  173.5060  136.2620 O   0  0  0  0  0  1  0  0  0  0  0  0
  183.7220  174.1870  136.9780 N   0  0  0  0  0  0  0  0  0  0  0  0
  182.2300  176.9300  137.1190 C   0  0  1  0  0  3  0  0  0  0  0  0
  185.3920  172.3260  136.6970 C   0  0  0  0  0  1  0  0  0  0  0  0
  188.6870  178.5480  137.9420 C   0  0  0  0  0  0  0  0  0  0  0  0
  181.4640  178.0890  137.7440 C   0  0  0  0  0  2  0  0  0  0  0  0
  186.0940  174.6830  136.8770 C   0  0  0  0  0  0  0  0  0  0  0  0
  185.8380  176.1640  136.9210 C   0  0  0  0  0  2  0  0  0  0  0  0
  185.0940  173.7840  136.8680 C   0  0  0  0  0  0  0  0  0  0  0  0
  185.3090  178.5260  139.2770 C   0  0  0  0  0  0  0  0  0  0  0  0
  187.2600  178.1090  137.8070 C   0  0  2  0  0  3  0  0  0  0  0  0
  186.6560  177.8900  139.1950 C   0  0  0  0  0  2  0  0  0  0  0  0
  182.8760  178.2400  139.8230 C   0  0  2  0  0  3  0  0  0  0  0  0
  185.1740  179.7410  138.9600 O   0  0  0  0  0  0  0  0  0  0  0  0
  181.9990  175.6660  137.9390 C   0  0  0  0  0  2  0  0  0  0  0  0
  188.9530  179.7380  137.9610 O   0  0  0  0  0  0  0  0  0  0  0  0
  188.2360  175.8680  137.2110 C   0  0  0  0  0  0  0  0  0  0  0  0
  183.2950  174.9090  138.1740 C   0  0  0  0  0  2  0  0  0  0  0  0
  187.1850  176.8800  136.8890 C   0  0  1  0  0  3  0  0  0  0  0  0
  187.8210  174.1850  136.8110 S   0  0  0  0  0  0  0  0  0  0  0  0
  189.7920  177.5230  138.0790 C   0  0  2  0  0  3  0  0  0  0  0  0
  184.2170  177.7530  139.6850 O   0  0  0  0  0  0  0  0  0  0  0  0
  182.3760  178.9740  138.5800 C   0  0  0  0  0  2  0  0  0  0  0  0
  189.3680  176.1690  137.7480 N   0  0  0  0  0  0  0  0  0  0  0  0
  181.8110  176.7430  135.6570 C   0  0  0  0  0  2  0  0  0  0  0  0
  180.3430  177.0940  135.4230 C   0  0  0  0  0  2  0  0  0  0  0  0
  179.5570  175.8650  135.1020 C   0  0  0  0  0  3  0  0  0  0  0  0
  179.2650  175.0620  135.9770 O   0  0  0  0  0  0  0  0  0  0  0  0
  190.3660  177.5380  139.4860 C   0  0  0  0  0  2  0  0  0  0  0  0
  189.6150  176.5670  140.3770 C   0  0  0  0  0  2  0  0  0  0  0  0
  188.6720  176.2800  143.0780 S   0  0  0  0  0  0  0  0  0  0  0  0
  189.6410  177.0430  141.7930 C   0  0  1  0  0  3  0  0  0  0  0  0
  189.7100  177.1240  144.3360 C   0  0  1  0  0  3  0  0  0  0  0  0
  191.6870  178.4640  144.1250 O   0  0  0  0  0  1  0  0  0  0  0  0
  190.3880  178.3150  143.6420 C   0  0  1  0  0  3  0  0  0  0  0  0
  190.4440  178.0140  142.1870 C   0  0  0  0  0  2  0  0  0  0  0  0
  188.9140  177.4820  145.5320 N   0  0  0  0  0  0  0  0  0  0  0  0
  187.5290  177.8930  145.3130 C   0  0  0  0  0  1  0  0  0  0  0  0
  189.2990  177.1620  146.8920 C   0  0  0  0  0  0  0  0  0  0  0  0
  190.4860  176.8630  147.1840 O   0  0  0  0  0  0  0  0  0  0  0  0
  188.3010  177.2020  148.0020 C   0  0  0  0  0  1  0  0  0  0  0  0
  182.6460  179.0080  141.1250 C   0  0  0  0  0  2  0  0  0  0  0  0
  183.0090  178.9810  143.5760 C   0  0  0  0  0  1  0  0  0  0  0  0
  183.6070  178.6080  142.2310 C   0  0  0  0  0  2  0  0  0  0  0  0
  1  2  1  0  0  0  0
  2 18  1  0  0  0  0
  3 25  1  6  0  0  0
  3  6  1  0  0  0  0
  3 15  1  0  0  0  0
  4  9  1  0  0  0  0
  5 16  2  0  0  0  0
  5 21  1  0  0  0  0
  6 23  1  0  0  0  0
  7  8  1  0  0  0  0
  9  7  2  0  0  0  0
  9  2  1  0  0  0  0
 10 22  1  0  0  0  0
 11  5  1  0  0  0  0
 11 12  1  1  0  0  0
 12 10  1  0  0  0  0
 13 42  1  1  0  0  0
 14 10  2  0  0  0  0
 15 18  1  0  0  0  0
 17 24  2  0  0  0  0
 19  8  1  1  0  0  0
 19 17  1  0  0  0  0
 19 11  1  0  0  0  0
 20  7  1  0  0  0  0
 20 17  1  0  0  0  0
 21 29  1  1  0  0  0
 22 13  1  0  0  0  0
 23 13  1  0  0  0  0
 24 21  1  0  0  0  0
 26 25  1  0  0  0  0
 27 26  1  0  0  0  0
 27 28  2  0  0  0  0
 29 30  1  0  0  0  0
 31 33  1  0  0  0  0
 32 30  1  1  0  0  0
 32 36  1  0  0  0  0
 32 31  1  0  0  0  0
 33 37  1  1  0  0  0
 35 34  1  1  0  0  0
 35 33  1  0  0  0  0
 36 35  1  0  0  0  0
 37 39  1  0  0  0  0
 38 37  1  0  0  0  0
 39 40  2  0  0  0  0
 39 41  1  0  0  0  0
 42 44  1  0  0  0  0
 44 43  1  0  0  0  0
M  END
>  <MODEL>
1

>  <REMARK>
 VINA RESULT:      -7.6      0.000      0.000
  Name = 
  9 active torsions:
  status: ('A' for Active; 'I' for Inactive)
    1  A    between atoms: N_2  and  C_27
    2  A    between atoms: C_5  and  C_11
    3  A    between atoms: C_10  and  C_17
    4  A    between atoms: C_10  and  C_24
    5  A    between atoms: C_11  and  C_13
    6  A    between atoms: C_13  and  C_14
    7  A    between atoms: C_23  and  C_38
    8  A    between atoms: C_24  and  C_39
    9  A    between atoms: C_34  and  C_38
                            x       y       z     vdW  Elec       q    Type
                         _______ _______ _______ _____ _____    ______ ____

>  <TORSDO>
F 9

$$$$
=
 OpenBabel10222415443D

 44 47  0  0  1  0  0  0  0  0999 V2000
  181.8190  175.4760  135.2010 O   0  0  0  0  0  1  0  0  0  0  0  0
  182.8400  175.6980  136.0660 N   0  0  0  0  0  0  0  0  0  0  0  0
  181.8530  178.4370  137.2030 C   0  0  1  0  0  3  0  0  0  0  0  0
  184.1610  173.7910  135.0900 C   0  0  0  0  0  1  0  0  0  0  0  0
  188.4790  178.5360  138.2450 C   0  0  0  0  0  0  0  0  0  0  0  0
  181.2940  179.4220  138.2220 C   0  0  0  0  0  2  0  0  0  0  0  0
  185.2640  175.7830  136.0360 C   0  0  0  0  0  0  0  0  0  0  0  0
  185.2730  177.1780  136.5960 C   0  0  0  0  0  2  0  0  0  0  0  0
  184.1220  175.1290  135.7630 C   0  0  0  0  0  0  0  0  0  0  0  0
  185.1270  178.6350  139.6400 C   0  0  0  0  0  0  0  0  0  0  0  0
  186.9990  178.4230  138.0300 C   0  0  2  0  0  3  0  0  0  0  0  0
  186.3420  177.8450  139.2850 C   0  0  0  0  0  2  0  0  0  0  0  0
  182.6720  178.6020  140.1620 C   0  0  2  0  0  3  0  0  0  0  0  0
  185.2140  179.8890  139.7640 O   0  0  0  0  0  0  0  0  0  0  0  0
  181.3880  177.0270  137.5510 C   0  0  0  0  0  2  0  0  0  0  0  0
  188.9510  179.5820  138.6580 O   0  0  0  0  0  0  0  0  0  0  0  0
  187.5750  176.3930  136.6600 C   0  0  0  0  0  0  0  0  0  0  0  0
  182.5260  176.0250  137.4540 C   0  0  0  0  0  2  0  0  0  0  0  0
  186.7250  177.6190  136.7520 C   0  0  1  0  0  3  0  0  0  0  0  0
  186.8770  175.0490  135.7270 S   0  0  0  0  0  0  0  0  0  0  0  0
  189.3830  177.3530  137.9730 C   0  0  2  0  0  3  0  0  0  0  0  0
  183.9080  177.9690  139.8060 O   0  0  0  0  0  0  0  0  0  0  0  0
  182.3320  179.7940  139.2700 C   0  0  0  0  0  2  0  0  0  0  0  0
  188.7320  176.2910  137.2170 N   0  0  0  0  0  0  0  0  0  0  0  0
  181.4350  178.8410  135.7870 C   0  0  0  0  0  2  0  0  0  0  0  0
  180.1910  179.7270  135.7780 C   0  0  0  0  0  2  0  0  0  0  0  0
  180.5020  181.0590  135.1780 C   0  0  0  0  0  3  0  0  0  0  0  0
  180.6390  182.0480  135.8850 O   0  0  0  0  0  0  0  0  0  0  0  0
  189.9250  176.7820  139.2730 C   0  0  0  0  0  2  0  0  0  0  0  0
  188.8120  176.6280  140.2910 C   0  0  0  0  0  2  0  0  0  0  0  0
  189.5710  175.7760  142.9310 S   0  0  0  0  0  0  0  0  0  0  0  0
  189.3070  176.9890  141.6540 C   0  0  1  0  0  3  0  0  0  0  0  0
  190.5680  177.0020  143.8640 C   0  0  1  0  0  3  0  0  0  0  0  0
  191.3110  179.2110  143.2950 O   0  0  0  0  0  1  0  0  0  0  0  0
  190.1820  178.3950  143.3430 C   0  0  1  0  0  3  0  0  0  0  0  0
  189.6470  178.2270  141.9660 C   0  0  0  0  0  2  0  0  0  0  0  0
  190.4010  176.8260  145.3240 N   0  0  0  0  0  0  0  0  0  0  0  0
  191.6140  176.6330  146.1150 C   0  0  0  0  0  1  0  0  0  0  0  0
  189.1850  177.1370  146.0490 C   0  0  0  0  0  0  0  0  0  0  0  0
  188.0810  177.2540  145.4570 O   0  0  0  0  0  0  0  0  0  0  0  0
  189.1970  177.3040  147.5330 C   0  0  0  0  0  1  0  0  0  0  0  0
  182.5580  178.9010  141.6570 C   0  0  0  0  0  2  0  0  0  0  0  0
  183.7970  179.3030  143.7650 C   0  0  0  0  0  1  0  0  0  0  0  0
  183.8300  178.5870  142.4270 C   0  0  0  0  0  2  0  0  0  0  0  0
  1  2  1  0  0  0  0
  2 18  1  0  0  0  0
  3 25  1  6  0  0  0
  3 15  1  0  0  0  0
  3  6  1  0  0  0  0
  4  9  1  0  0  0  0
  5 16  2  0  0  0  0
  6 23  1  0  0  0  0
  7  8  1  0  0  0  0
  9  7  2  0  0  0  0
  9  2  1  0  0  0  0
 10 14  2  0  0  0  0
 10 22  1  0  0  0  0
 11  5  1  0  0  0  0
 11 12  1  1  0  0  0
 12 10  1  0  0  0  0
 13 42  1  1  0  0  0
 17 19  1  0  0  0  0
 17 24  2  0  0  0  0
 18 15  1  0  0  0  0
 19  8  1  1  0  0  0
 19 11  1  0  0  0  0
 20  7  1  0  0  0  0
 20 17  1  0  0  0  0
 21  5  1  0  0  0  0
 21 29  1  1  0  0  0
 22 13  1  0  0  0  0
 23 13  1  0  0  0  0
 24 21  1  0  0  0  0
 26 25  1  0  0  0  0
 27 26  1  0  0  0  0
 27 28  2  0  0  0  0
 29 30  1  0  0  0  0
 31 33  1  0  0  0  0
 32 30  1  6  0  0  0
 32 36  1  0  0  0  0
 32 31  1  0  0  0  0
 33 37  1  1  0  0  0
 35 34  1  6  0  0  0
 35 33  1  0  0  0  0
 36 35  1  0  0  0  0
 37 39  1  0  0  0  0
 37 38  1  0  0  0  0
 39 41  1  0  0  0  0
 40 39  2  0  0  0  0
 42 44  1  0  0  0  0
 44 43  1  0  0  0  0
M  END
>  <MODEL>
2

>  <REMARK>
 VINA RESULT:      -6.0      1.660      1.976
  Name = 
  9 active torsions:
  status: ('A' for Active; 'I' for Inactive)
    1  A    between atoms: N_2  and  C_27
    2  A    between atoms: C_5  and  C_11
    3  A    between atoms: C_10  and  C_17
    4  A    between atoms: C_10  and  C_24
    5  A    between atoms: C_11  and  C_13
    6  A    between atoms: C_13  and  C_14
    7  A    between atoms: C_23  and  C_38
    8  A    between atoms: C_24  and  C_39
    9  A    between atoms: C_34  and  C_38
                            x       y       z     vdW  Elec       q    Type
                         _______ _______ _______ _____ _____    ______ ____

>  <TORSDO>
F 9

$$$$
=
 OpenBabel10222415443D

 44 47  0  0  1  0  0  0  0  0999 V2000
  193.3680  176.2460  138.3680 O   0  0  0  0  0  1  0  0  0  0  0  0
  192.0200  176.1570  138.4940 N   0  0  0  0  0  0  0  0  0  0  0  0
  191.3980  175.0220  135.6490 C   0  0  1  0  0  3  0  0  0  0  0  0
  192.0730  177.4570  140.6470 C   0  0  0  0  0  1  0  0  0  0  0  0
  185.6700  177.9750  137.5110 C   0  0  0  0  0  0  0  0  0  0  0  0
  190.9760  174.0030  134.5970 C   0  0  0  0  0  2  0  0  0  0  0  0
  190.1520  177.5760  139.1070 C   0  0  0  0  0  0  0  0  0  0  0  0
  189.4520  177.3060  137.8040 C   0  0  0  0  0  2  0  0  0  0  0  0
  191.3600  177.0610  139.3910 C   0  0  0  0  0  0  0  0  0  0  0  0
  187.4080  174.9420  136.5230 C   0  0  0  0  0  0  0  0  0  0  0  0
  186.9630  177.2890  137.1820 C   0  0  2  0  0  3  0  0  0  0  0  0
  186.8880  175.8230  137.6100 C   0  0  0  0  0  2  0  0  0  0  0  0
  189.0000  173.1120  135.8770 C   0  0  2  0  0  3  0  0  0  0  0  0
  186.9400  175.0520  135.3560 O   0  0  0  0  0  0  0  0  0  0  0  0
  191.9220  174.2940  136.8810 C   0  0  0  0  0  2  0  0  0  0  0  0
  184.7920  178.0440  136.6660 O   0  0  0  0  0  0  0  0  0  0  0  0
  187.8510  178.4690  139.2190 C   0  0  0  0  0  0  0  0  0  0  0  0
  191.3660  174.8940  138.1620 C   0  0  0  0  0  2  0  0  0  0  0  0
  188.1290  178.0660  137.8080 C   0  0  1  0  0  3  0  0  0  0  0  0
  189.2840  178.6540  140.2560 S   0  0  0  0  0  0  0  0  0  0  0  0
  185.4430  178.5600  138.8880 C   0  0  2  0  0  3  0  0  0  0  0  0
  188.4230  174.0260  136.8190 O   0  0  0  0  0  0  0  0  0  0  0  0
  189.4690  173.7950  134.5940 C   0  0  0  0  0  2  0  0  0  0  0  0
  186.6630  178.6650  139.6780 N   0  0  0  0  0  0  0  0  0  0  0  0
  192.4400  175.9840  135.0700 C   0  0  0  0  0  2  0  0  0  0  0  0
  193.7720  175.2940  134.7820 C   0  0  0  0  0  2  0  0  0  0  0  0
  194.8980  176.2690  134.8850 C   0  0  0  0  0  3  0  0  0  0  0  0
  195.5710  176.3450  135.9040 O   0  0  0  0  0  0  0  0  0  0  0  0
  184.4180  177.7430  139.6550 C   0  0  0  0  0  2  0  0  0  0  0  0
  183.5490  178.6450  140.5100 C   0  0  0  0  0  2  0  0  0  0  0  0
  185.6240  178.3970  142.4860 S   0  0  0  0  0  0  0  0  0  0  0  0
  183.9300  178.5130  141.9490 C   0  0  1  0  0  3  0  0  0  0  0  0
  185.0880  178.7850  144.1980 C   0  0  1  0  0  3  0  0  0  0  0  0
  182.9530  179.4160  145.0920 O   0  0  0  0  0  1  0  0  0  0  0  0
  183.5870  178.4690  144.2890 C   0  0  1  0  0  3  0  0  0  0  0  0
  183.0280  178.5480  142.9140 C   0  0  0  0  0  2  0  0  0  0  0  0
  185.9250  178.0780  145.1930 N   0  0  0  0  0  0  0  0  0  0  0  0
  186.8320  177.0490  144.6910 C   0  0  0  0  0  1  0  0  0  0  0  0
  186.1360  178.5350  146.5530 C   0  0  0  0  0  0  0  0  0  0  0  0
  185.3630  179.3700  147.0910 O   0  0  0  0  0  0  0  0  0  0  0  0
  187.2680  178.0090  147.3720 C   0  0  0  0  0  1  0  0  0  0  0  0
  188.1370  171.8740  135.6350 C   0  0  0  0  0  2  0  0  0  0  0  0
  189.6750  169.9390  135.4590 C   0  0  0  0  0  1  0  0  0  0  0  0
  188.7750  170.8800  134.6790 C   0  0  0  0  0  2  0  0  0  0  0  0
  1  2  1  0  0  0  0
  2  9  1  0  0  0  0
  3 25  1  6  0  0  0
  3 15  1  0  0  0  0
  5 21  1  0  0  0  0
  6  3  1  0  0  0  0
  7  9  2  0  0  0  0
  7 20  1  0  0  0  0
  8  7  1  0  0  0  0
  9  4  1  0  0  0  0
 10 22  1  0  0  0  0
 10 12  1  0  0  0  0
 11  5  1  0  0  0  0
 11 12  1  1  0  0  0
 11 19  1  0  0  0  0
 13 42  1  6  0  0  0
 13 22  1  0  0  0  0
 14 10  2  0  0  0  0
 15 18  1  0  0  0  0
 16  5  2  0  0  0  0
 17 24  2  0  0  0  0
 17 20  1  0  0  0  0
 18  2  1  0  0  0  0
 19  8  1  1  0  0  0
 19 17  1  0  0  0  0
 21 29  1  1  0  0  0
 21 24  1  0  0  0  0
 23  6  1  0  0  0  0
 23 13  1  0  0  0  0
 26 27  1  0  0  0  0
 26 25  1  0  0  0  0
 27 28  2  0  0  0  0
 29 30  1  0  0  0  0
 31 33  1  0  0  0  0
 32 30  1  1  0  0  0
 32 31  1  0  0  0  0
 32 36  1  0  0  0  0
 33 35  1  0  0  0  0
 33 37  1  1  0  0  0
 35 34  1  1  0  0  0
 36 35  1  0  0  0  0
 37 39  1  0  0  0  0
 38 37  1  0  0  0  0
 39 40  2  0  0  0  0
 39 41  1  0  0  0  0
 44 43  1  0  0  0  0
 44 42  1  0  0  0  0
M  END
>  <MODEL>
3

>  <REMARK>
 VINA RESULT:      -5.8      3.477      7.972
  Name = 
  9 active torsions:
  status: ('A' for Active; 'I' for Inactive)
    1  A    between atoms: N_2  and  C_27
    2  A    between atoms: C_5  and  C_11
    3  A    between atoms: C_10  and  C_17
    4  A    between atoms: C_10  and  C_24
    5  A    between atoms: C_11  and  C_13
    6  A    between atoms: C_13  and  C_14
    7  A    between atoms: C_23  and  C_38
    8  A    between atoms: C_24  and  C_39
    9  A    between atoms: C_34  and  C_38
                            x       y       z     vdW  Elec       q    Type
                         _______ _______ _______ _____ _____    ______ ____

>  <TORSDO>
F 9

$$$$
=
 OpenBabel10222415443D

 44 47  0  0  1  0  0  0  0  0999 V2000
  190.4170  178.0430  139.3130 O   0  0  0  0  0  1  0  0  0  0  0  0
  189.1040  178.2570  139.0490 N   0  0  0  0  0  0  0  0  0  0  0  0
  187.9610  177.3920  141.8260 C   0  0  1  0  0  3  0  0  0  0  0  0
  189.5870  178.5900  136.6020 C   0  0  0  0  0  1  0  0  0  0  0  0
  182.8120  176.5420  137.6100 C   0  0  0  0  0  0  0  0  0  0  0  0
  187.3090  177.5480  143.1940 C   0  0  0  0  0  2  0  0  0  0  0  0
  187.4560  177.6290  137.3840 C   0  0  0  0  0  0  0  0  0  0  0  0
  186.5400  177.0580  138.4320 C   0  0  0  0  0  2  0  0  0  0  0  0
  188.6580  178.1480  137.6900 C   0  0  0  0  0  0  0  0  0  0  0  0
  184.1660  178.1990  140.5450 C   0  0  0  0  0  0  0  0  0  0  0  0
  183.9880  176.8060  138.5030 C   0  0  2  0  0  3  0  0  0  0  0  0
  183.8860  178.2190  139.0800 C   0  0  0  0  0  2  0  0  0  0  0  0
  185.5090  179.1400  142.4450 C   0  0  2  0  0  3  0  0  0  0  0  0
  183.5250  177.4060  141.2910 O   0  0  0  0  0  0  0  0  0  0  0  0
  188.6260  178.7030  141.4260 C   0  0  0  0  0  2  0  0  0  0  0  0
  181.8170  176.0030  138.0660 O   0  0  0  0  0  0  0  0  0  0  0  0
  185.2660  177.1180  136.3600 C   0  0  0  0  0  0  0  0  0  0  0  0
  188.3230  179.0650  139.9820 C   0  0  0  0  0  2  0  0  0  0  0  0
  185.2880  176.5350  137.7350 C   0  0  1  0  0  3  0  0  0  0  0  0
  186.8570  177.5520  135.6900 S   0  0  0  0  0  0  0  0  0  0  0  0
  182.8480  176.9590  136.1560 C   0  0  2  0  0  3  0  0  0  0  0  0
  185.1520  179.0470  141.0600 O   0  0  0  0  0  0  0  0  0  0  0  0
  185.8110  177.7830  143.0770 C   0  0  0  0  0  2  0  0  0  0  0  0
  184.1830  177.3110  135.6900 N   0  0  0  0  0  0  0  0  0  0  0  0
  188.9570  176.2290  141.8410 C   0  0  0  0  0  2  0  0  0  0  0  0
  189.5220  175.9640  143.2350 C   0  0  0  0  0  2  0  0  0  0  0  0
  190.8530  176.6210  143.3940 C   0  0  0  0  0  3  0  0  0  0  0  0
  191.5630  176.8420  142.4230 O   0  0  0  0  0  0  0  0  0  0  0  0
  181.9080  178.1270  135.9100 C   0  0  0  0  0  2  0  0  0  0  0  0
  181.2310  178.5450  137.2010 C   0  0  0  0  0  2  0  0  0  0  0  0
  180.9110  181.1470  138.3840 S   0  0  0  0  0  0  0  0  0  0  0  0
  180.7200  179.9450  137.0840 C   0  0  1  0  0  3  0  0  0  0  0  0
  180.5110  182.4790  137.1860 C   0  0  1  0  0  3  0  0  0  0  0  0
  180.1590  182.4310  134.8140 O   0  0  0  0  0  1  0  0  0  0  0  0
  179.7710  181.8260  136.0090 C   0  0  1  0  0  3  0  0  0  0  0  0
  180.1610  180.3920  135.9740 C   0  0  0  0  0  2  0  0  0  0  0  0
  179.7710  183.5810  137.8410 N   0  0  0  0  0  0  0  0  0  0  0  0
  178.9310  183.2340  138.9840 C   0  0  0  0  0  1  0  0  0  0  0  0
  180.0550  184.9880  137.6350 C   0  0  0  0  0  0  0  0  0  0  0  0
  180.7140  185.3850  136.6390 O   0  0  0  0  0  0  0  0  0  0  0  0
  179.5500  186.0200  138.5890 C   0  0  0  0  0  1  0  0  0  0  0  0
  184.5390  179.9950  143.2600 C   0  0  0  0  0  2  0  0  0  0  0  0
  182.4200  179.0020  144.0770 C   0  0  0  0  0  1  0  0  0  0  0  0
  183.8860  179.2340  144.4010 C   0  0  0  0  0  2  0  0  0  0  0  0
  2  1  1  0  0  0  0
  2 18  1  0  0  0  0
  3 25  1  1  0  0  0
  3  6  1  0  0  0  0
  4  9  1  0  0  0  0
  5 16  2  0  0  0  0
  5 11  1  0  0  0  0
  7  9  2  0  0  0  0
  7  8  1  0  0  0  0
  9  2  1  0  0  0  0
 10 22  1  0  0  0  0
 10 14  2  0  0  0  0
 11 12  1  6  0  0  0
 12 10  1  0  0  0  0
 13 23  1  0  0  0  0
 13 42  1  1  0  0  0
 15  3  1  0  0  0  0
 17 19  1  0  0  0  0
 18 15  1  0  0  0  0
 19  8  1  1  0  0  0
 19 11  1  0  0  0  0
 20 17  1  0  0  0  0
 20  7  1  0  0  0  0
 21 29  1  1  0  0  0
 21  5  1  0  0  0  0
 22 13  1  0  0  0  0
 23  6  1  0  0  0  0
 24 21  1  0  0  0  0
 24 17  2  0  0  0  0
 25 26  1  0  0  0  0
 26 27  1  0  0  0  0
 28 27  2  0  0  0  0
 29 30  1  0  0  0  0
 32 30  1  6  0  0  0
 32 31  1  0  0  0  0
 33 37  1  1  0  0  0
 33 31  1  0  0  0  0
 35 34  1  6  0  0  0
 35 33  1  0  0  0  0
 36 35  1  0  0  0  0
 36 32  1  0  0  0  0
 37 38  1  0  0  0  0
 39 37  1  0  0  0  0
 39 41  1  0  0  0  0
 40 39  2  0  0  0  0
 42 44  1  0  0  0  0
 43 44  1  0  0  0  0
M  END
>  <MODEL>
4

>  <REMARK>
 VINA RESULT:      -5.4      3.729      9.068
  Name = 
  9 active torsions:
  status: ('A' for Active; 'I' for Inactive)
    1  A    between atoms: N_2  and  C_27
    2  A    between atoms: C_5  and  C_11
    3  A    between atoms: C_10  and  C_17
    4  A    between atoms: C_10  and  C_24
    5  A    between atoms: C_11  and  C_13
    6  A    between atoms: C_13  and  C_14
    7  A    between atoms: C_23  and  C_38
    8  A    between atoms: C_24  and  C_39
    9  A    between atoms: C_34  and  C_38
                            x       y       z     vdW  Elec       q    Type
                         _______ _______ _______ _____ _____    ______ ____

>  <TORSDO>
F 9

$$$$
=
 OpenBabel10222415443D

 44 47  0  0  1  0  0  0  0  0999 V2000
  190.5360  177.9330  139.0090 O   0  0  0  0  0  1  0  0  0  0  0  0
  189.2230  178.1660  138.7610 N   0  0  0  0  0  0  0  0  0  0  0  0
  188.1070  177.3590  141.5670 C   0  0  1  0  0  3  0  0  0  0  0  0
  189.6740  178.4550  136.3030 C   0  0  0  0  0  1  0  0  0  0  0  0
  182.8820  176.5360  137.4420 C   0  0  0  0  0  0  0  0  0  0  0  0
  187.4800  177.5460  142.9430 C   0  0  0  0  0  2  0  0  0  0  0  0
  187.5390  177.5410  137.1310 C   0  0  0  0  0  0  0  0  0  0  0  0
  186.6300  177.0010  138.2000 C   0  0  0  0  0  2  0  0  0  0  0  0
  188.7540  178.0440  137.4110 C   0  0  0  0  0  0  0  0  0  0  0  0
  184.3070  178.2120  140.3320 C   0  0  0  0  0  0  0  0  0  0  0  0
  184.0750  176.7930  138.3130 C   0  0  2  0  0  3  0  0  0  0  0  0
  184.0050  178.2160  138.8710 C   0  0  0  0  0  2  0  0  0  0  0  0
  185.6950  179.1580  142.1980 C   0  0  2  0  0  3  0  0  0  0  0  0
  183.6640  177.4410  141.0980 O   0  0  0  0  0  0  0  0  0  0  0  0
  188.7890  178.6540  141.1390 C   0  0  0  0  0  2  0  0  0  0  0  0
  181.8850  176.0210  137.9210 O   0  0  0  0  0  0  0  0  0  0  0  0
  185.3260  177.0530  136.1460 C   0  0  0  0  0  0  0  0  0  0  0  0
  188.4700  179.0000  139.6940 C   0  0  0  0  0  2  0  0  0  0  0  0
  185.3590  176.4890  137.5300 C   0  0  1  0  0  3  0  0  0  0  0  0
  186.9130  177.4500  135.4470 S   0  0  0  0  0  0  0  0  0  0  0  0
  182.9030  176.9320  135.9810 C   0  0  2  0  0  3  0  0  0  0  0  0
  185.3160  179.0500  140.8200 O   0  0  0  0  0  0  0  0  0  0  0  0
  185.9840  177.8050  142.8440 C   0  0  0  0  0  2  0  0  0  0  0  0
  184.2360  177.2550  135.4900 N   0  0  0  0  0  0  0  0  0  0  0  0
  189.0850  176.1800  141.5840 C   0  0  0  0  0  2  0  0  0  0  0  0
  189.8000  176.0370  142.9260 C   0  0  0  0  0  2  0  0  0  0  0  0
  191.2610  176.3030  142.7710 C   0  0  0  0  0  3  0  0  0  0  0  0
  191.6870  177.4480  142.7150 O   0  0  0  0  0  0  0  0  0  0  0  0
  181.9780  178.1120  135.7330 C   0  0  0  0  0  2  0  0  0  0  0  0
  180.6720  177.9310  136.4820 C   0  0  0  0  0  2  0  0  0  0  0  0
  180.1960  178.4870  139.2630 S   0  0  0  0  0  0  0  0  0  0  0  0
  180.5650  178.9390  137.5800 C   0  0  1  0  0  3  0  0  0  0  0  0
  180.7740  180.1400  139.8130 C   0  0  1  0  0  3  0  0  0  0  0  0
  181.8120  181.9410  138.6170 O   0  0  0  0  0  1  0  0  0  0  0  0
  180.7240  181.0700  138.5920 C   0  0  1  0  0  3  0  0  0  0  0  0
  180.8120  180.2200  137.3760 C   0  0  0  0  0  2  0  0  0  0  0  0
  179.9970  180.6160  140.9800 N   0  0  0  0  0  0  0  0  0  0  0  0
  178.9350  181.5850  140.7230 C   0  0  0  0  0  1  0  0  0  0  0  0
  180.0020  179.9740  142.2790 C   0  0  0  0  0  0  0  0  0  0  0  0
  180.9160  179.1750  142.6130 O   0  0  0  0  0  0  0  0  0  0  0  0
  178.9310  180.2580  143.2800 C   0  0  0  0  0  1  0  0  0  0  0  0
  184.7520  180.0410  143.0140 C   0  0  0  0  0  2  0  0  0  0  0  0
  183.5510  178.9100  144.8640 C   0  0  0  0  0  1  0  0  0  0  0  0
  184.7780  179.7270  144.5010 C   0  0  0  0  0  2  0  0  0  0  0  0
  2  1  1  0  0  0  0
  2 18  1  0  0  0  0
  3 25  1  1  0  0  0
  3  6  1  0  0  0  0
  4  9  1  0  0  0  0
  5 16  2  0  0  0  0
  5 11  1  0  0  0  0
  7  9  2  0  0  0  0
  7  8  1  0  0  0  0
  9  2  1  0  0  0  0
 10 22  1  0  0  0  0
 10 14  2  0  0  0  0
 11 12  1  6  0  0  0
 12 10  1  0  0  0  0
 13 23  1  0  0  0  0
 13 42  1  1  0  0  0
 15  3  1  0  0  0  0
 17 19  1  0  0  0  0
 18 15  1  0  0  0  0
 19  8  1  1  0  0  0
 19 11  1  0  0  0  0
 20 17  1  0  0  0  0
 20  7  1  0  0  0  0
 21 29  1  1  0  0  0
 21  5  1  0  0  0  0
 22 13  1  0  0  0  0
 23  6  1  0  0  0  0
 24 21  1  0  0  0  0
 24 17  2  0  0  0  0
 25 26  1  0  0  0  0
 27 26  1  0  0  0  0
 28 27  2  0  0  0  0
 29 30  1  0  0  0  0
 31 33  1  0  0  0  0
 32 30  1  1  0  0  0
 32 31  1  0  0  0  0
 33 37  1  1  0  0  0
 35 34  1  1  0  0  0
 35 33  1  0  0  0  0
 36 32  1  0  0  0  0
 36 35  1  0  0  0  0
 37 39  1  0  0  0  0
 38 37  1  0  0  0  0
 39 40  2  0  0  0  0
 39 41  1  0  0  0  0
 42 44  1  0  0  0  0
 44 43  1  0  0  0  0
M  END
>  <MODEL>
5

>  <REMARK>
 VINA RESULT:      -5.0      2.951      8.072
  Name = 
  9 active torsions:
  status: ('A' for Active; 'I' for Inactive)
    1  A    between atoms: N_2  and  C_27
    2  A    between atoms: C_5  and  C_11
    3  A    between atoms: C_10  and  C_17
    4  A    between atoms: C_10  and  C_24
    5  A    between atoms: C_11  and  C_13
    6  A    between atoms: C_13  and  C_14
    7  A    between atoms: C_23  and  C_38
    8  A    between atoms: C_24  and  C_39
    9  A    between atoms: C_34  and  C_38
                            x       y       z     vdW  Elec       q    Type
                         _______ _______ _______ _____ _____    ______ ____

>  <TORSDO>
F 9

$$$$
=
 OpenBabel10222415443D

 44 47  0  0  1  0  0  0  0  0999 V2000
  180.2380  181.1410  135.2040 O   0  0  0  0  0  1  0  0  0  0  0  0
  180.6110  180.6640  136.4170 N   0  0  0  0  0  0  0  0  0  0  0  0
  181.2330  177.7260  135.5510 C   0  0  1  0  0  3  0  0  0  0  0  0
  179.7980  182.7550  137.5570 C   0  0  0  0  0  1  0  0  0  0  0  0
  179.8990  177.2410  142.1070 C   0  0  0  0  0  0  0  0  0  0  0  0
  182.0750  176.4940  135.2420 C   0  0  0  0  0  2  0  0  0  0  0  0
  179.7390  180.5590  138.6780 C   0  0  0  0  0  0  0  0  0  0  0  0
  179.8660  179.0620  138.7120 C   0  0  0  0  0  2  0  0  0  0  0  0
  180.0570  181.2800  137.5890 C   0  0  0  0  0  0  0  0  0  0  0  0
  182.2660  176.7840  139.3900 C   0  0  0  0  0  0  0  0  0  0  0  0
  180.2380  177.4310  140.6590 C   0  0  2  0  0  3  0  0  0  0  0  0
  181.7470  177.6270  140.5060 C   0  0  0  0  0  2  0  0  0  0  0  0
  183.5780  176.6970  137.2520 C   0  0  2  0  0  3  0  0  0  0  0  0
  182.0110  175.5470  139.3740 O   0  0  0  0  0  0  0  0  0  0  0  0
  182.0830  178.9800  135.3810 C   0  0  0  0  0  2  0  0  0  0  0  0
  179.8300  176.1130  142.5680 O   0  0  0  0  0  0  0  0  0  0  0  0
  179.3540  179.7640  140.9850 C   0  0  0  0  0  0  0  0  0  0  0  0
  181.8810  179.9520  136.5310 C   0  0  0  0  0  2  0  0  0  0  0  0
  179.3950  178.5760  140.0800 C   0  0  1  0  0  3  0  0  0  0  0  0
  179.1120  181.3300  140.1770 S   0  0  0  0  0  0  0  0  0  0  0  0
  179.6660  178.4400  143.0010 C   0  0  2  0  0  3  0  0  0  0  0  0
  183.0080  177.3890  138.3700 O   0  0  0  0  0  0  0  0  0  0  0  0
  182.5680  175.8210  136.5140 C   0  0  0  0  0  2  0  0  0  0  0  0
  179.4910  179.6840  142.2640 N   0  0  0  0  0  0  0  0  0  0  0  0
  179.9890  177.7570  134.6590 C   0  0  0  0  0  2  0  0  0  0  0  0
  179.2860  176.4030  134.5940 C   0  0  0  0  0  2  0  0  0  0  0  0
  178.9310  175.9310  135.9660 C   0  0  0  0  0  3  0  0  0  0  0  0
  178.9920  174.7450  136.2570 O   0  0  0  0  0  0  0  0  0  0  0  0
  180.8080  178.6000  143.9910 C   0  0  0  0  0  2  0  0  0  0  0  0
  181.9320  179.4140  143.3790 C   0  0  0  0  0  2  0  0  0  0  0  0
  184.6390  178.5440  142.9510 S   0  0  0  0  0  0  0  0  0  0  0  0
  183.2440  178.9980  143.9610 C   0  0  1  0  0  3  0  0  0  0  0  0
  185.7340  178.7300  144.4120 C   0  0  1  0  0  3  0  0  0  0  0  0
  185.3000  179.5250  146.6330 O   0  0  0  0  0  1  0  0  0  0  0  0
  184.8460  178.6330  145.6620 C   0  0  1  0  0  3  0  0  0  0  0  0
  183.4660  179.0140  145.2630 C   0  0  0  0  0  2  0  0  0  0  0  0
  186.8470  177.7550  144.3730 N   0  0  0  0  0  0  0  0  0  0  0  0
  186.9860  176.8560  145.5160 C   0  0  0  0  0  1  0  0  0  0  0  0
  187.5980  177.4230  143.1790 C   0  0  0  0  0  0  0  0  0  0  0  0
  187.5910  178.1750  142.1690 O   0  0  0  0  0  0  0  0  0  0  0  0
  188.4280  176.1830  143.1140 C   0  0  0  0  0  1  0  0  0  0  0  0
  184.8830  175.9780  137.5910 C   0  0  0  0  0  2  0  0  0  0  0  0
  186.1840  176.8860  135.6870 C   0  0  0  0  0  1  0  0  0  0  0  0
  185.7020  175.6150  136.3630 C   0  0  0  0  0  2  0  0  0  0  0  0
  1  2  1  0  0  0  0
  2 18  1  0  0  0  0
  2  9  1  0  0  0  0
  3 25  1  6  0  0  0
  4  9  1  0  0  0  0
  5 16  2  0  0  0  0
  5 21  1  0  0  0  0
  6  3  1  0  0  0  0
  6 23  1  0  0  0  0
  7  8  1  0  0  0  0
  7 20  1  0  0  0  0
  9  7  2  0  0  0  0
 10 12  1  0  0  0  0
 11 12  1  1  0  0  0
 11  5  1  0  0  0  0
 13 42  1  1  0  0  0
 13 22  1  0  0  0  0
 14 10  2  0  0  0  0
 15  3  1  0  0  0  0
 15 18  1  0  0  0  0
 17 24  2  0  0  0  0
 19  8  1  6  0  0  0
 19 11  1  0  0  0  0
 19 17  1  0  0  0  0
 20 17  1  0  0  0  0
 21 29  1  1  0  0  0
 22 10  1  0  0  0  0
 23 13  1  0  0  0  0
 24 21  1  0  0  0  0
 26 25  1  0  0  0  0
 26 27  1  0  0  0  0
 27 28  2  0  0  0  0
 30 29  1  0  0  0  0
 31 32  1  0  0  0  0
 31 33  1  0  0  0  0
 32 30  1  6  0  0  0
 32 36  1  0  0  0  0
 33 37  1  1  0  0  0
 33 35  1  0  0  0  0
 35 34  1  1  0  0  0
 36 35  1  0  0  0  0
 37 38  1  0  0  0  0
 39 37  1  0  0  0  0
 40 39  2  0  0  0  0
 41 39  1  0  0  0  0
 43 44  1  0  0  0  0
 44 42  1  0  0  0  0
M  END
>  <MODEL>
6

>  <REMARK>
 VINA RESULT:      -4.7      3.615      6.965
  Name = 
  9 active torsions:
  status: ('A' for Active; 'I' for Inactive)
    1  A    between atoms: N_2  and  C_27
    2  A    between atoms: C_5  and  C_11
    3  A    between atoms: C_10  and  C_17
    4  A    between atoms: C_10  and  C_24
    5  A    between atoms: C_11  and  C_13
    6  A    between atoms: C_13  and  C_14
    7  A    between atoms: C_23  and  C_38
    8  A    between atoms: C_24  and  C_39
    9  A    between atoms: C_34  and  C_38
                            x       y       z     vdW  Elec       q    Type
                         _______ _______ _______ _____ _____    ______ ____

>  <TORSDO>
F 9

$$$$
=
 OpenBabel10222415443D

 44 47  0  0  1  0  0  0  0  0999 V2000
  188.9260  177.0730  145.5090 O   0  0  0  0  0  1  0  0  0  0  0  0
  188.1340  177.0570  144.4080 N   0  0  0  0  0  0  0  0  0  0  0  0
  190.2810  177.9590  142.3230 C   0  0  1  0  0  3  0  0  0  0  0  0
  186.0720  176.7620  145.8190 C   0  0  0  0  0  1  0  0  0  0  0  0
  184.4460  179.7030  139.5090 C   0  0  0  0  0  0  0  0  0  0  0  0
  191.2470  177.8400  141.1510 C   0  0  0  0  0  2  0  0  0  0  0  0
  186.0140  177.9810  143.6770 C   0  0  0  0  0  0  0  0  0  0  0  0
  186.6510  178.6310  142.4810 C   0  0  0  0  0  2  0  0  0  0  0  0
  186.7280  177.2850  144.5790 C   0  0  0  0  0  0  0  0  0  0  0  0
  187.5030  177.7510  139.3330 C   0  0  0  0  0  0  0  0  0  0  0  0
  185.7080  179.2380  140.1720 C   0  0  2  0  0  3  0  0  0  0  0  0
  186.0560  177.8310  139.6840 C   0  0  0  0  0  2  0  0  0  0  0  0
  189.6850  176.5510  139.6560 C   0  0  2  0  0  3  0  0  0  0  0  0
  187.9980  178.5950  138.5340 O   0  0  0  0  0  0  0  0  0  0  0  0
  190.0610  176.5850  142.9430 C   0  0  0  0  0  2  0  0  0  0  0  0
  184.5100  180.3570  138.4810 O   0  0  0  0  0  0  0  0  0  0  0  0
  184.2460  178.8380  142.1800 C   0  0  0  0  0  0  0  0  0  0  0  0
  188.5900  176.3290  143.2260 C   0  0  0  0  0  2  0  0  0  0  0  0
  185.5610  179.3550  141.6960 C   0  0  1  0  0  3  0  0  0  0  0  0
  184.2380  178.2120  143.8450 S   0  0  0  0  0  0  0  0  0  0  0  0
  183.0980  179.3450  140.0970 C   0  0  2  0  0  3  0  0  0  0  0  0
  188.2900  176.7510  139.9170 O   0  0  0  0  0  0  0  0  0  0  0  0
  190.5110  177.8250  139.8190 C   0  0  0  0  0  2  0  0  0  0  0  0
  183.1800  178.8280  141.4560 N   0  0  0  0  0  0  0  0  0  0  0  0
  190.8090  178.9680  143.3470 C   0  0  0  0  0  2  0  0  0  0  0  0
  192.0020  178.4290  144.1330 C   0  0  0  0  0  2  0  0  0  0  0  0
  191.5770  177.9900  145.4950 C   0  0  0  0  0  3  0  0  0  0  0  0
  191.9680  176.9290  145.9630 O   0  0  0  0  0  0  0  0  0  0  0  0
  182.3810  178.3340  139.2180 C   0  0  0  0  0  2  0  0  0  0  0  0
  182.6280  176.9240  139.7200 C   0  0  0  0  0  2  0  0  0  0  0  0
  181.8730  175.1930  137.5520 S   0  0  0  0  0  0  0  0  0  0  0  0
  181.6280  175.9850  139.1280 C   0  0  1  0  0  3  0  0  0  0  0  0
  180.5400  174.0010  137.9640 C   0  0  1  0  0  3  0  0  0  0  0  0
  179.2780  173.6610  139.9750 O   0  0  0  0  0  1  0  0  0  0  0  0
  179.6840  174.6390  139.0690 C   0  0  1  0  0  3  0  0  0  0  0  0
  180.5330  175.6320  139.7780 C   0  0  0  0  0  2  0  0  0  0  0  0
  179.7840  173.6060  136.7540 N   0  0  0  0  0  0  0  0  0  0  0  0
  179.5500  174.6370  135.7460 C   0  0  0  0  0  1  0  0  0  0  0  0
  179.5370  172.2330  136.3600 C   0  0  0  0  0  0  0  0  0  0  0  0
  179.6480  171.2850  137.1810 O   0  0  0  0  0  0  0  0  0  0  0  0
  179.1180  171.8980  134.9670 C   0  0  0  0  0  1  0  0  0  0  0  0
  189.9510  175.8080  138.3470 C   0  0  0  0  0  2  0  0  0  0  0  0
  190.1100  176.4260  135.9520 C   0  0  0  0  0  1  0  0  0  0  0  0
  190.7100  176.6450  137.3300 C   0  0  0  0  0  2  0  0  0  0  0  0
  2  9  1  0  0  0  0
  2  1  1  0  0  0  0
  3 15  1  0  0  0  0
  3 25  1  1  0  0  0
  5 21  1  0  0  0  0
  5 11  1  0  0  0  0
  6  3  1  0  0  0  0
  7 20  1  0  0  0  0
  7  9  2  0  0  0  0
  8  7  1  0  0  0  0
  9  4  1  0  0  0  0
 10 12  1  0  0  0  0
 10 22  1  0  0  0  0
 11 12  1  1  0  0  0
 11 19  1  0  0  0  0
 13 42  1  6  0  0  0
 13 23  1  0  0  0  0
 13 22  1  0  0  0  0
 14 10  2  0  0  0  0
 15 18  1  0  0  0  0
 16  5  2  0  0  0  0
 17 20  1  0  0  0  0
 18  2  1  0  0  0  0
 19 17  1  0  0  0  0
 19  8  1  1  0  0  0
 21 29  1  6  0  0  0
 21 24  1  0  0  0  0
 23  6  1  0  0  0  0
 24 17  2  0  0  0  0
 25 26  1  0  0  0  0
 26 27  1  0  0  0  0
 27 28  2  0  0  0  0
 29 30  1  0  0  0  0
 31 33  1  0  0  0  0
 31 32  1  0  0  0  0
 32 30  1  1  0  0  0
 32 36  1  0  0  0  0
 33 37  1  6  0  0  0
 33 35  1  0  0  0  0
 35 36  1  0  0  0  0
 35 34  1  1  0  0  0
 38 37  1  0  0  0  0
 39 37  1  0  0  0  0
 39 40  2  0  0  0  0
 41 39  1  0  0  0  0
 43 44  1  0  0  0  0
 44 42  1  0  0  0  0
M  END
>  <MODEL>
7

>  <REMARK>
 VINA RESULT:      -4.7      2.790     10.013
  Name = 
  9 active torsions:
  status: ('A' for Active; 'I' for Inactive)
    1  A    between atoms: N_2  and  C_27
    2  A    between atoms: C_5  and  C_11
    3  A    between atoms: C_10  and  C_17
    4  A    between atoms: C_10  and  C_24
    5  A    between atoms: C_11  and  C_13
    6  A    between atoms: C_13  and  C_14
    7  A    between atoms: C_23  and  C_38
    8  A    between atoms: C_24  and  C_39
    9  A    between atoms: C_34  and  C_38
                            x       y       z     vdW  Elec       q    Type
                         _______ _______ _______ _____ _____    ______ ____

>  <TORSDO>
F 9

$$$$
