=
 OpenBabel10222419033D

 50 53  0  0  1  0  0  0  0  0999 V2000
  182.3660  176.8830  135.9180 O   0  0  0  0  0  0  0  0  0  0  0  0
  182.8360  178.1890  140.2870 C   0  0  0  0  0  0  0  0  0  0  0  0
  181.4850  177.1540  138.7570 C   0  0  0  0  0  0  0  0  0  0  0  0
  186.8070  177.4100  138.9190 C   0  0  0  0  0  2  0  0  0  0  0  0
  182.6670  177.4480  138.2320 C   0  0  0  0  0  0  0  0  0  0  0  0
  181.4520  177.6220  140.1790 C   0  0  2  0  0  3  0  0  0  0  0  0
  187.4860  178.3610  139.8500 C   0  0  1  0  0  3  0  0  0  0  0  0
  183.3630  178.9630  141.4570 C   0  0  0  0  0  2  0  0  0  0  0  0
  183.4960  178.0990  139.1840 N   0  0  0  0  0  0  0  0  0  0  0  0
  184.4010  178.1940  142.2830 C   0  0  1  0  0  3  0  0  0  0  0  0
  180.5110  178.6430  140.3140 O   0  0  0  0  0  1  0  0  0  0  0  0
  184.5160  177.5090  136.5870 N   0  0  0  0  0  0  0  0  0  0  0  0
  183.1430  177.2230  136.8490 C   0  0  0  0  0  0  0  0  0  0  0  0
  180.3600  176.4690  138.0580 C   0  0  0  0  0  1  0  0  0  0  0  0
  186.6690  177.5000  137.5940 C   0  0  1  0  0  3  0  0  0  0  0  0
  185.4470  176.8010  137.1470 C   0  0  0  0  0  0  0  0  0  0  0  0
  185.6440  177.7370  141.5100 C   0  0  0  0  0  2  0  0  0  0  0  0
  186.4660  178.8750  140.8830 C   0  0  0  0  0  2  0  0  0  0  0  0
  184.7730  178.9530  143.5150 C   0  0  0  0  0  0  0  0  0  0  0  0
  184.5470  180.1900  143.5770 O   0  0  0  0  0  0  0  0  0  0  0  0
  185.3370  178.3000  144.6050 O   0  0  0  0  0  1  0  0  0  0  0  0
  188.5390  177.2350  141.7360 C   0  0  0  0  0  3  0  0  0  0  0  0
  188.6860  177.7350  140.5020 C   0  0  0  0  0  0  0  0  0  0  0  0
  190.0610  176.3620  139.1340 O   0  0  0  0  0  1  0  0  0  0  0  0
  189.9840  177.6120  139.7500 C   0  0  0  0  0  2  0  0  0  0  0  0
  189.6440  176.5510  142.4780 C   0  0  0  0  0  2  0  0  0  0  0  0
  190.2610  177.4820  143.4070 N   0  0  0  0  0  2  0  0  0  0  0  0
  191.3060  176.7600  144.1150 C   0  0  0  0  0  2  0  0  0  0  0  0
  191.6950  177.5000  145.3850 C   0  0  0  0  0  2  0  0  0  0  0  0
  191.6420  176.5610  146.5790 C   0  0  0  0  0  2  0  0  0  0  0  0
  190.2000  176.3300  146.9960 C   0  0  0  0  0  2  0  0  0  0  0  0
  189.2320  177.8680  148.4680 C   0  0  0  0  0  2  0  0  0  0  0  0
  187.1450  178.0960  147.3170 C   0  0  0  0  0  2  0  0  0  0  0  0
  188.1750  177.3850  146.4630 C   0  0  0  0  0  2  0  0  0  0  0  0
  187.8780  178.5310  148.5610 C   0  0  0  0  0  2  0  0  0  0  0  0
  189.4870  177.5950  147.0620 N   0  0  0  0  0  0  0  0  0  0  0  0
  187.2620  178.6450  136.8010 C   0  0  2  0  0  3  0  0  0  0  0  0
  187.1730  178.3730  135.3060 C   0  0  0  0  0  1  0  0  0  0  0  0
  189.3260  178.1020  136.1960 C   0  0  0  0  0  1  0  0  0  0  0  0
  188.6060  178.8370  137.1390 O   0  0  0  0  0  0  0  0  0  0  0  0
  185.1570  175.4950  137.5790 O   0  0  0  0  0  0  0  0  0  0  0  0
  186.3000  174.5520  135.6540 C   0  0  0  0  0  2  0  0  0  0  0  0
  183.6960  173.2120  136.3610 C   0  0  1  0  0  3  0  0  0  0  0  0
  185.4360  173.8240  134.6180 C   0  0  0  0  0  2  0  0  0  0  0  0
  185.8410  174.3390  137.1070 C   0  0  2  0  0  3  0  0  0  0  0  0
  184.9420  173.1120  137.2540 C   0  0  0  0  0  2  0  0  0  0  0  0
  183.9600  173.8810  135.0010 C   0  0  0  0  0  2  0  0  0  0  0  0
  183.0750  171.8670  136.1850 C   0  0  0  0  0  0  0  0  0  0  0  0
  182.0890  171.6860  135.2260 O   0  0  0  0  0  0  0  0  0  0  0  0
  183.4220  170.8990  136.9150 O   0  0  0  0  0  1  0  0  0  0  0  0
  1 13  2  0  0  0  0
  2  8  1  0  0  0  0
  3  6  1  0  0  0  0
  4  7  1  0  0  0  0
  5  3  2  0  0  0  0
  5  9  1  0  0  0  0
  6  2  1  0  0  0  0
  6 11  1  6  0  0  0
  7 23  1  1  0  0  0
  7 18  1  0  0  0  0
  8 10  1  0  0  0  0
  9  2  2  0  0  0  0
 10 19  1  1  0  0  0
 12 13  1  0  0  0  0
 12 16  2  0  0  0  0
 13  5  1  0  0  0  0
 14  3  1  0  0  0  0
 15 37  1  1  0  0  0
 15  4  1  0  0  0  0
 16 41  1  0  0  0  0
 16 15  1  0  0  0  0
 17 10  1  0  0  0  0
 18 17  1  0  0  0  0
 19 20  2  0  0  0  0
 19 21  1  0  0  0  0
 22 26  1  0  0  0  0
 23 22  2  0  0  0  0
 24 25  1  0  0  0  0
 25 23  1  0  0  0  0
 26 27  1  0  0  0  0
 27 28  1  0  0  0  0
 28 29  1  0  0  0  0
 29 30  1  0  0  0  0
 30 31  1  0  0  0  0
 31 36  1  0  0  0  0
 32 35  1  0  0  0  0
 33 35  1  0  0  0  0
 34 36  1  0  0  0  0
 34 33  1  0  0  0  0
 36 32  1  0  0  0  0
 37 38  1  6  0  0  0
 37 40  1  0  0  0  0
 39 40  1  0  0  0  0
 42 45  1  0  0  0  0
 43 48  1  6  0  0  0
 43 46  1  0  0  0  0
 44 47  1  0  0  0  0
 44 42  1  0  0  0  0
 45 46  1  0  0  0  0
 45 41  1  6  0  0  0
 47 43  1  0  0  0  0
 48 50  1  0  0  0  0
 49 48  2  0  0  0  0
M  END
>  <MODEL>
1

>  <REMARK>
 VINA RESULT:      -6.4      0.000      0.000
  Name = 
  15 active torsions:
  status: ('A' for Active; 'I' for Inactive)
    1  A    between atoms: N_1  and  C_5
    2  A    between atoms: N_1  and  C_15
    3  A    between atoms: C_2  and  C_25
    4  A    between atoms: C_5  and  C_26
    5  A    between atoms: C_7  and  C_30
    6  A    between atoms: C_7  and  C_48
    7  A    between atoms: C_8  and  C_17
    8  A    between atoms: C_15  and  C_48
    9  A    between atoms: C_19  and  C_47
   10  A    between atoms: C_22  and  O_46
   11  A    between atoms: C_29  and  C_39
   12  A    between atoms: C_29  and  O_45
   13  A    between atoms: C_30  and  N_44
   14  A    between atoms: C_35  and  C_47
   15  A    between atoms: C_41  and  O_46
                            x       y       z     vdW  Elec       q    Type
                         _______ _______ _______ _____ _____    ______ ____

>  <TORSDO>
F 15

$$$$
=
 OpenBabel10222419033D

 50 53  0  0  1  0  0  0  0  0999 V2000
  183.0680  176.6760  134.5960 O   0  0  0  0  0  0  0  0  0  0  0  0
  181.2800  178.2970  138.4940 C   0  0  0  0  0  0  0  0  0  0  0  0
  180.8890  177.0790  136.5960 C   0  0  0  0  0  0  0  0  0  0  0  0
  185.4230  177.6810  139.3340 C   0  0  0  0  0  2  0  0  0  0  0  0
  182.1690  177.4110  136.6980 C   0  0  0  0  0  0  0  0  0  0  0  0
  180.1450  177.6380  137.7700 C   0  0  2  0  0  3  0  0  0  0  0  0
  185.5300  178.7320  140.3900 C   0  0  1  0  0  3  0  0  0  0  0  0
  181.1410  179.1790  139.6970 C   0  0  0  0  0  2  0  0  0  0  0  0
  182.4020  178.1760  137.8720 N   0  0  0  0  0  0  0  0  0  0  0  0
  181.6490  178.5340  140.9920 C   0  0  1  0  0  3  0  0  0  0  0  0
  179.2390  178.6040  137.3320 O   0  0  0  0  0  1  0  0  0  0  0  0
  184.5880  177.4790  136.1780 N   0  0  0  0  0  0  0  0  0  0  0  0
  183.2730  177.1250  135.7550 C   0  0  0  0  0  0  0  0  0  0  0  0
  180.2740  176.2800  135.4980 C   0  0  0  0  0  1  0  0  0  0  0  0
  185.9580  177.6730  138.1110 C   0  0  1  0  0  3  0  0  0  0  0  0
  185.1350  176.8710  137.1850 C   0  0  0  0  0  0  0  0  0  0  0  0
  183.1210  178.1050  140.9750 C   0  0  0  0  0  2  0  0  0  0  0  0
  184.1210  179.2490  140.7360 C   0  0  0  0  0  2  0  0  0  0  0  0
  181.3440  179.3950  142.1750 C   0  0  0  0  0  0  0  0  0  0  0  0
  181.9660  179.2140  143.2540 O   0  0  0  0  0  1  0  0  0  0  0  0
  180.4040  180.4140  142.0830 O   0  0  0  0  0  0  0  0  0  0  0  0
  185.5620  178.0580  142.7300 C   0  0  0  0  0  3  0  0  0  0  0  0
  186.2620  178.2280  141.6010 C   0  0  0  0  0  0  0  0  0  0  0  0
  188.5050  179.0100  141.5390 O   0  0  0  0  0  1  0  0  0  0  0  0
  187.7180  177.8580  141.5120 C   0  0  0  0  0  2  0  0  0  0  0  0
  186.1630  177.5230  143.9920 C   0  0  0  0  0  2  0  0  0  0  0  0
  186.3110  178.5990  144.9580 N   0  0  0  0  0  2  0  0  0  0  0  0
  186.0290  178.0440  146.2720 C   0  0  0  0  0  2  0  0  0  0  0  0
  187.2770  177.3990  146.8540 C   0  0  0  0  0  2  0  0  0  0  0  0
  188.5220  178.1000  146.3370 C   0  0  0  0  0  2  0  0  0  0  0  0
  189.4850  177.0830  145.7470 C   0  0  0  0  0  2  0  0  0  0  0  0
  190.7190  176.4200  143.8750 C   0  0  0  0  0  2  0  0  0  0  0  0
  191.5650  178.5850  143.3030 C   0  0  0  0  0  2  0  0  0  0  0  0
  190.4460  178.6760  144.3210 C   0  0  0  0  0  2  0  0  0  0  0  0
  191.6420  177.1310  142.9140 C   0  0  0  0  0  2  0  0  0  0  0  0
  189.7520  177.3960  144.3520 N   0  0  0  0  0  0  0  0  0  0  0  0
  186.8420  178.7980  137.6140 C   0  0  2  0  0  3  0  0  0  0  0  0
  187.2730  178.5540  136.1750 C   0  0  0  0  0  1  0  0  0  0  0  0
  189.0350  179.1170  137.5090 C   0  0  0  0  0  1  0  0  0  0  0  0
  187.9870  178.9150  138.4090 O   0  0  0  0  0  0  0  0  0  0  0  0
  184.6970  175.5810  137.5320 O   0  0  0  0  0  0  0  0  0  0  0  0
  185.8540  174.3390  135.7940 C   0  0  0  0  0  2  0  0  0  0  0  0
  183.3700  173.0080  136.8590 C   0  0  1  0  0  3  0  0  0  0  0  0
  185.0170  173.3610  134.9610 C   0  0  0  0  0  2  0  0  0  0  0  0
  185.4490  174.3980  137.2770 C   0  0  2  0  0  3  0  0  0  0  0  0
  184.6420  173.1720  137.7040 C   0  0  0  0  0  2  0  0  0  0  0  0
  183.5510  173.4000  135.3830 C   0  0  0  0  0  2  0  0  0  0  0  0
  182.8410  171.6190  136.9840 C   0  0  0  0  0  0  0  0  0  0  0  0
  183.6110  170.5500  136.5490 O   0  0  0  0  0  0  0  0  0  0  0  0
  181.6930  171.4090  137.4610 O   0  0  0  0  0  1  0  0  0  0  0  0
  1 13  2  0  0  0  0
  2  8  1  0  0  0  0
  3  5  2  0  0  0  0
  3  6  1  0  0  0  0
  4  7  1  0  0  0  0
  5  9  1  0  0  0  0
  6 11  1  6  0  0  0
  6  2  1  0  0  0  0
  7 18  1  0  0  0  0
  7 23  1  1  0  0  0
  8 10  1  0  0  0  0
  9  2  2  0  0  0  0
 10 19  1  1  0  0  0
 12 16  2  0  0  0  0
 13 12  1  0  0  0  0
 13  5  1  0  0  0  0
 14  3  1  0  0  0  0
 15 37  1  6  0  0  0
 15  4  1  0  0  0  0
 16 41  1  0  0  0  0
 16 15  1  0  0  0  0
 17 10  1  0  0  0  0
 18 17  1  0  0  0  0
 19 20  1  0  0  0  0
 21 19  2  0  0  0  0
 22 26  1  0  0  0  0
 23 22  2  0  0  0  0
 25 24  1  0  0  0  0
 25 23  1  0  0  0  0
 26 27  1  0  0  0  0
 27 28  1  0  0  0  0
 28 29  1  0  0  0  0
 30 29  1  0  0  0  0
 31 30  1  0  0  0  0
 32 36  1  0  0  0  0
 33 34  1  0  0  0  0
 34 36  1  0  0  0  0
 35 33  1  0  0  0  0
 35 32  1  0  0  0  0
 36 31  1  0  0  0  0
 37 38  1  6  0  0  0
 37 40  1  0  0  0  0
 39 40  1  0  0  0  0
 42 45  1  0  0  0  0
 43 48  1  6  0  0  0
 43 46  1  0  0  0  0
 44 47  1  0  0  0  0
 44 42  1  0  0  0  0
 45 41  1  6  0  0  0
 45 46  1  0  0  0  0
 47 43  1  0  0  0  0
 48 50  1  0  0  0  0
 49 48  2  0  0  0  0
M  END
>  <MODEL>
2

>  <REMARK>
 VINA RESULT:      -6.2      1.602      2.938
  Name = 
  15 active torsions:
  status: ('A' for Active; 'I' for Inactive)
    1  A    between atoms: N_1  and  C_5
    2  A    between atoms: N_1  and  C_15
    3  A    between atoms: C_2  and  C_25
    4  A    between atoms: C_5  and  C_26
    5  A    between atoms: C_7  and  C_30
    6  A    between atoms: C_7  and  C_48
    7  A    between atoms: C_8  and  C_17
    8  A    between atoms: C_15  and  C_48
    9  A    between atoms: C_19  and  C_47
   10  A    between atoms: C_22  and  O_46
   11  A    between atoms: C_29  and  C_39
   12  A    between atoms: C_29  and  O_45
   13  A    between atoms: C_30  and  N_44
   14  A    between atoms: C_35  and  C_47
   15  A    between atoms: C_41  and  O_46
                            x       y       z     vdW  Elec       q    Type
                         _______ _______ _______ _____ _____    ______ ____

>  <TORSDO>
F 15

$$$$
=
 OpenBabel10222419033D

 50 53  0  0  1  0  0  0  0  0999 V2000
  183.5830  178.9880  138.5390 O   0  0  0  0  0  0  0  0  0  0  0  0
  186.9650  178.5550  141.6040 C   0  0  0  0  0  0  0  0  0  0  0  0
  184.6990  178.6230  141.2830 C   0  0  0  0  0  0  0  0  0  0  0  0
  188.5150  176.8980  137.9840 C   0  0  0  0  0  2  0  0  0  0  0  0
  185.3480  178.6290  140.1260 C   0  0  0  0  0  0  0  0  0  0  0  0
  185.6960  178.5860  142.4010 C   0  0  2  0  0  3  0  0  0  0  0  0
  189.9510  177.1890  138.2770 C   0  0  1  0  0  3  0  0  0  0  0  0
  188.3460  178.6680  142.1730 C   0  0  0  0  0  2  0  0  0  0  0  0
  186.7530  178.5970  140.3330 N   0  0  0  0  0  0  0  0  0  0  0  0
  189.1390  177.3570  142.1220 C   0  0  1  0  0  3  0  0  0  0  0  0
  185.6240  179.7730  143.1300 O   0  0  0  0  0  1  0  0  0  0  0  0
  185.7120  178.5550  137.6790 N   0  0  0  0  0  0  0  0  0  0  0  0
  184.7910  178.7090  138.7580 C   0  0  0  0  0  0  0  0  0  0  0  0
  183.2190  178.6500  141.4600 C   0  0  0  0  0  1  0  0  0  0  0  0
  187.7260  177.4540  137.0620 C   0  0  1  0  0  3  0  0  0  0  0  0
  186.3150  177.4220  137.4930 C   0  0  0  0  0  0  0  0  0  0  0  0
  189.3290  176.7630  140.7210 C   0  0  0  0  0  2  0  0  0  0  0  0
  190.0830  177.6700  139.7350 C   0  0  0  0  0  2  0  0  0  0  0  0
  190.4430  177.4920  142.8390 C   0  0  0  0  0  0  0  0  0  0  0  0
  191.1220  176.4640  143.0960 O   0  0  0  0  0  0  0  0  0  0  0  0
  190.9270  178.7440  143.1970 O   0  0  0  0  0  1  0  0  0  0  0  0
  190.3040  174.9970  137.2760 C   0  0  0  0  0  3  0  0  0  0  0  0
  190.8250  176.0020  137.9910 C   0  0  0  0  0  0  0  0  0  0  0  0
  193.0440  176.7210  137.5370 O   0  0  0  0  0  1  0  0  0  0  0  0
  192.2640  175.9920  138.4350 C   0  0  0  0  0  2  0  0  0  0  0  0
  191.0830  173.7790  136.8880 C   0  0  0  0  0  2  0  0  0  0  0  0
  191.5560  173.9140  135.5210 N   0  0  0  0  0  2  0  0  0  0  0  0
  192.9880  173.6570  135.5290 C   0  0  0  0  0  2  0  0  0  0  0  0
  193.3780  172.8730  136.7720 C   0  0  0  0  0  2  0  0  0  0  0  0
  194.7940  173.2270  137.1950 C   0  0  0  0  0  2  0  0  0  0  0  0
  195.2820  174.4370  136.4170 C   0  0  0  0  0  2  0  0  0  0  0  0
  196.9600  172.8280  136.1640 C   0  0  0  0  0  2  0  0  0  0  0  0
  198.6990  174.0480  137.2690 C   0  0  0  0  0  2  0  0  0  0  0  0
  197.5070  174.9320  136.9650 C   0  0  0  0  0  2  0  0  0  0  0  0
  198.3960  172.7200  136.6210 C   0  0  0  0  0  2  0  0  0  0  0  0
  196.6620  174.2420  136.0000 N   0  0  0  0  0  0  0  0  0  0  0  0
  188.2350  178.5020  136.0960 C   0  0  2  0  0  3  0  0  0  0  0  0
  187.2550  178.7060  134.9490 C   0  0  0  0  0  1  0  0  0  0  0  0
  189.1730  177.1560  134.6020 C   0  0  0  0  0  1  0  0  0  0  0  0
  189.4720  178.1240  135.5630 O   0  0  0  0  0  0  0  0  0  0  0  0
  185.7310  176.2410  137.9850 O   0  0  0  0  0  0  0  0  0  0  0  0
  185.2660  175.5860  135.6910 C   0  0  0  0  0  2  0  0  0  0  0  0
  182.8900  175.4900  137.5400 C   0  0  1  0  0  3  0  0  0  0  0  0
  183.8260  175.7560  135.1960 C   0  0  0  0  0  2  0  0  0  0  0  0
  185.3710  175.1370  137.1590 C   0  0  2  0  0  3  0  0  0  0  0  0
  184.0700  174.5160  137.6670 C   0  0  0  0  0  2  0  0  0  0  0  0
  182.9440  176.3700  136.2810 C   0  0  0  0  0  2  0  0  0  0  0  0
  181.5960  174.7510  137.6220 C   0  0  0  0  0  0  0  0  0  0  0  0
  180.4310  175.4400  137.9250 O   0  0  0  0  0  1  0  0  0  0  0  0
  181.5570  173.5040  137.4410 O   0  0  0  0  0  0  0  0  0  0  0  0
  1 13  2  0  0  0  0
  2  8  1  0  0  0  0
  2  6  1  0  0  0  0
  3 14  1  0  0  0  0
  3  6  1  0  0  0  0
  4  7  1  0  0  0  0
  5  9  1  0  0  0  0
  5  3  2  0  0  0  0
  6 11  1  1  0  0  0
  7 23  1  1  0  0  0
  7 18  1  0  0  0  0
  9  2  2  0  0  0  0
 10  8  1  0  0  0  0
 10 19  1  6  0  0  0
 12 13  1  0  0  0  0
 13  5  1  0  0  0  0
 15 37  1  1  0  0  0
 15 16  1  0  0  0  0
 15  4  1  0  0  0  0
 16 12  2  0  0  0  0
 16 41  1  0  0  0  0
 17 10  1  0  0  0  0
 18 17  1  0  0  0  0
 19 20  2  0  0  0  0
 19 21  1  0  0  0  0
 22 23  2  0  0  0  0
 23 25  1  0  0  0  0
 24 25  1  0  0  0  0
 26 22  1  0  0  0  0
 27 28  1  0  0  0  0
 27 26  1  0  0  0  0
 28 29  1  0  0  0  0
 29 30  1  0  0  0  0
 31 30  1  0  0  0  0
 32 35  1  0  0  0  0
 34 33  1  0  0  0  0
 35 33  1  0  0  0  0
 36 32  1  0  0  0  0
 36 31  1  0  0  0  0
 36 34  1  0  0  0  0
 37 38  1  6  0  0  0
 39 40  1  0  0  0  0
 40 37  1  0  0  0  0
 42 45  1  0  0  0  0
 43 48  1  6  0  0  0
 43 46  1  0  0  0  0
 44 42  1  0  0  0  0
 44 47  1  0  0  0  0
 45 46  1  0  0  0  0
 45 41  1  1  0  0  0
 47 43  1  0  0  0  0
 48 49  1  0  0  0  0
 50 48  2  0  0  0  0
M  END
>  <MODEL>
3

>  <REMARK>
 VINA RESULT:      -5.9      4.250      6.689
  Name = 
  15 active torsions:
  status: ('A' for Active; 'I' for Inactive)
    1  A    between atoms: N_1  and  C_5
    2  A    between atoms: N_1  and  C_15
    3  A    between atoms: C_2  and  C_25
    4  A    between atoms: C_5  and  C_26
    5  A    between atoms: C_7  and  C_30
    6  A    between atoms: C_7  and  C_48
    7  A    between atoms: C_8  and  C_17
    8  A    between atoms: C_15  and  C_48
    9  A    between atoms: C_19  and  C_47
   10  A    between atoms: C_22  and  O_46
   11  A    between atoms: C_29  and  C_39
   12  A    between atoms: C_29  and  O_45
   13  A    between atoms: C_30  and  N_44
   14  A    between atoms: C_35  and  C_47
   15  A    between atoms: C_41  and  O_46
                            x       y       z     vdW  Elec       q    Type
                         _______ _______ _______ _____ _____    ______ ____

>  <TORSDO>
F 15

$$$$
=
 OpenBabel10222419033D

 50 53  0  0  1  0  0  0  0  0999 V2000
  182.7200  175.0760  134.5940 O   0  0  0  0  0  0  0  0  0  0  0  0
  181.1400  177.1230  138.3800 C   0  0  0  0  0  0  0  0  0  0  0  0
  180.7840  175.4760  136.8300 C   0  0  0  0  0  0  0  0  0  0  0  0
  185.3900  177.4980  138.5950 C   0  0  0  0  0  2  0  0  0  0  0  0
  181.9620  176.0590  136.6490 C   0  0  0  0  0  0  0  0  0  0  0  0
  180.0940  176.1220  137.9930 C   0  0  2  0  0  3  0  0  0  0  0  0
  185.3990  178.7510  139.4080 C   0  0  1  0  0  3  0  0  0  0  0  0
  180.9680  178.1990  139.4080 C   0  0  0  0  0  2  0  0  0  0  0  0
  182.1700  177.0870  137.6070 N   0  0  0  0  0  0  0  0  0  0  0  0
  181.7690  177.9530  140.6920 C   0  0  1  0  0  3  0  0  0  0  0  0
  178.9480  176.7820  137.5480 O   0  0  0  0  0  1  0  0  0  0  0  0
  184.2180  176.4720  135.7190 N   0  0  0  0  0  0  0  0  0  0  0  0
  182.9690  175.7930  135.5990 C   0  0  0  0  0  0  0  0  0  0  0  0
  180.2220  174.3590  136.0180 C   0  0  0  0  0  1  0  0  0  0  0  0
  185.7500  177.3310  137.3210 C   0  0  1  0  0  3  0  0  0  0  0  0
  185.0110  176.2080  136.7110 C   0  0  0  0  0  0  0  0  0  0  0  0
  183.2840  177.8180  140.5020 C   0  0  0  0  0  2  0  0  0  0  0  0
  183.9670  179.0520  139.8910 C   0  0  0  0  0  2  0  0  0  0  0  0
  181.4380  178.9730  141.7330 C   0  0  0  0  0  0  0  0  0  0  0  0
  180.3810  179.6500  141.6290 O   0  0  0  0  0  0  0  0  0  0  0  0
  182.2690  179.1590  142.8300 O   0  0  0  0  0  1  0  0  0  0  0  0
  187.6220  178.2620  140.2750 C   0  0  0  0  0  3  0  0  0  0  0  0
  186.3740  178.6660  140.5470 C   0  0  0  0  0  0  0  0  0  0  0  0
  185.8040  177.9790  142.7490 O   0  0  0  0  0  1  0  0  0  0  0  0
  185.9690  179.0970  141.9300 C   0  0  0  0  0  2  0  0  0  0  0  0
  188.6980  178.1750  141.3120 C   0  0  0  0  0  2  0  0  0  0  0  0
  189.1180  176.7920  141.4660 N   0  0  0  0  0  2  0  0  0  0  0  0
  190.5570  176.7970  141.6750 C   0  0  0  0  0  2  0  0  0  0  0  0
  191.2430  177.6540  140.6230 C   0  0  0  0  0  2  0  0  0  0  0  0
  191.7580  176.7830  139.4890 C   0  0  0  0  0  2  0  0  0  0  0  0
  190.5920  176.1510  138.7470 C   0  0  0  0  0  2  0  0  0  0  0  0
  192.4550  175.0590  137.8490 C   0  0  0  0  0  2  0  0  0  0  0  0
  191.4560  174.4570  135.7580 C   0  0  0  0  0  2  0  0  0  0  0  0
  190.4170  174.9300  136.7540 C   0  0  0  0  0  2  0  0  0  0  0  0
  192.7570  174.4100  136.5190 C   0  0  0  0  0  2  0  0  0  0  0  0
  191.0240  174.9340  138.0780 N   0  0  0  0  0  0  0  0  0  0  0  0
  186.2920  178.4700  136.4830 C   0  0  2  0  0  3  0  0  0  0  0  0
  186.6620  177.9900  135.0870 C   0  0  0  0  0  1  0  0  0  0  0  0
  188.4970  178.2560  136.6110 C   0  0  0  0  0  1  0  0  0  0  0  0
  187.4290  179.0240  137.0800 O   0  0  0  0  0  0  0  0  0  0  0  0
  184.9160  174.9630  137.3560 O   0  0  0  0  0  0  0  0  0  0  0  0
  186.9150  174.2470  136.1750 C   0  0  0  0  0  2  0  0  0  0  0  0
  184.5940  172.3350  136.0070 C   0  0  1  0  0  3  0  0  0  0  0  0
  186.7220  173.2810  135.0000 C   0  0  0  0  0  2  0  0  0  0  0  0
  185.9600  173.9930  137.3530 C   0  0  2  0  0  3  0  0  0  0  0  0
  185.3580  172.5880  137.3160 C   0  0  0  0  0  2  0  0  0  0  0  0
  185.2420  172.9850  134.7740 C   0  0  0  0  0  2  0  0  0  0  0  0
  184.3950  170.8700  135.7990 C   0  0  0  0  0  0  0  0  0  0  0  0
  183.1960  170.2810  136.1710 O   0  0  0  0  0  1  0  0  0  0  0  0
  185.3150  170.1620  135.3080 O   0  0  0  0  0  0  0  0  0  0  0  0
  1 13  2  0  0  0  0
  2  8  1  0  0  0  0
  3  6  1  0  0  0  0
  4  7  1  0  0  0  0
  5  3  2  0  0  0  0
  5  9  1  0  0  0  0
  6 11  1  6  0  0  0
  6  2  1  0  0  0  0
  7 18  1  0  0  0  0
  7 23  1  1  0  0  0
  8 10  1  0  0  0  0
  9  2  2  0  0  0  0
 10 19  1  1  0  0  0
 12 16  2  0  0  0  0
 13 12  1  0  0  0  0
 13  5  1  0  0  0  0
 14  3  1  0  0  0  0
 15 37  1  6  0  0  0
 15  4  1  0  0  0  0
 16 15  1  0  0  0  0
 16 41  1  0  0  0  0
 17 10  1  0  0  0  0
 18 17  1  0  0  0  0
 19 21  1  0  0  0  0
 20 19  2  0  0  0  0
 22 23  2  0  0  0  0
 22 26  1  0  0  0  0
 23 25  1  0  0  0  0
 25 24  1  0  0  0  0
 26 27  1  0  0  0  0
 27 28  1  0  0  0  0
 29 28  1  0  0  0  0
 30 29  1  0  0  0  0
 31 30  1  0  0  0  0
 32 36  1  0  0  0  0
 33 35  1  0  0  0  0
 33 34  1  0  0  0  0
 34 36  1  0  0  0  0
 35 32  1  0  0  0  0
 36 31  1  0  0  0  0
 37 38  1  6  0  0  0
 37 40  1  0  0  0  0
 39 40  1  0  0  0  0
 42 45  1  0  0  0  0
 43 48  1  6  0  0  0
 43 46  1  0  0  0  0
 44 42  1  0  0  0  0
 45 41  1  6  0  0  0
 46 45  1  0  0  0  0
 47 44  1  0  0  0  0
 47 43  1  0  0  0  0
 48 49  1  0  0  0  0
 50 48  2  0  0  0  0
M  END
>  <MODEL>
4

>  <REMARK>
 VINA RESULT:      -5.8      2.682      4.663
  Name = 
  15 active torsions:
  status: ('A' for Active; 'I' for Inactive)
    1  A    between atoms: N_1  and  C_5
    2  A    between atoms: N_1  and  C_15
    3  A    between atoms: C_2  and  C_25
    4  A    between atoms: C_5  and  C_26
    5  A    between atoms: C_7  and  C_30
    6  A    between atoms: C_7  and  C_48
    7  A    between atoms: C_8  and  C_17
    8  A    between atoms: C_15  and  C_48
    9  A    between atoms: C_19  and  C_47
   10  A    between atoms: C_22  and  O_46
   11  A    between atoms: C_29  and  C_39
   12  A    between atoms: C_29  and  O_45
   13  A    between atoms: C_30  and  N_44
   14  A    between atoms: C_35  and  C_47
   15  A    between atoms: C_41  and  O_46
                            x       y       z     vdW  Elec       q    Type
                         _______ _______ _______ _____ _____    ______ ____

>  <TORSDO>
F 15

$$$$
=
 OpenBabel10222419033D

 50 53  0  0  1  0  0  0  0  0999 V2000
  182.2070  176.5440  135.7850 O   0  0  0  0  0  0  0  0  0  0  0  0
  182.2990  178.0330  140.1210 C   0  0  0  0  0  0  0  0  0  0  0  0
  181.1300  176.8420  138.5530 C   0  0  0  0  0  0  0  0  0  0  0  0
  186.3960  177.5240  139.0240 C   0  0  0  0  0  2  0  0  0  0  0  0
  182.3170  177.2100  138.0900 C   0  0  0  0  0  0  0  0  0  0  0  0
  180.9720  177.3550  139.9520 C   0  0  2  0  0  3  0  0  0  0  0  0
  186.9400  178.5570  139.9560 C   0  0  1  0  0  3  0  0  0  0  0  0
  182.6910  178.8860  141.2880 C   0  0  0  0  0  2  0  0  0  0  0  0
  183.0310  177.9580  139.0630 N   0  0  0  0  0  0  0  0  0  0  0  0
  183.7300  178.2310  142.2050 C   0  0  1  0  0  3  0  0  0  0  0  0
  179.9490  178.3020  139.9900 O   0  0  0  0  0  1  0  0  0  0  0  0
  184.2550  177.3610  136.5570 N   0  0  0  0  0  0  0  0  0  0  0  0
  182.8940  176.9760  136.7480 C   0  0  0  0  0  0  0  0  0  0  0  0
  180.1070  176.0460  137.8160 C   0  0  0  0  0  1  0  0  0  0  0  0
  186.3350  177.5570  137.6910 C   0  0  1  0  0  3  0  0  0  0  0  0
  185.2010  176.7490  137.2000 C   0  0  0  0  0  0  0  0  0  0  0  0
  185.0500  177.8470  141.5260 C   0  0  0  0  0  2  0  0  0  0  0  0
  185.8200  179.0240  140.9050 C   0  0  0  0  0  2  0  0  0  0  0  0
  183.9650  179.0590  143.4260 C   0  0  0  0  0  0  0  0  0  0  0  0
  184.9920  178.8600  144.1260 O   0  0  0  0  0  1  0  0  0  0  0  0
  183.0760  180.0680  143.7780 O   0  0  0  0  0  0  0  0  0  0  0  0
  189.1770  177.5940  139.9890 C   0  0  0  0  0  3  0  0  0  0  0  0
  188.1410  178.0510  140.7030 C   0  0  0  0  0  0  0  0  0  0  0  0
  188.0010  176.8690  142.7600 O   0  0  0  0  0  1  0  0  0  0  0  0
  188.1940  178.1350  142.2050 C   0  0  0  0  0  2  0  0  0  0  0  0
  190.4460  177.1020  140.6110 C   0  0  0  0  0  2  0  0  0  0  0  0
  190.9780  175.9980  139.8300 N   0  0  0  0  0  2  0  0  0  0  0  0
  191.2750  176.5100  138.5010 C   0  0  0  0  0  2  0  0  0  0  0  0
  192.7130  176.1940  138.1190 C   0  0  0  0  0  2  0  0  0  0  0  0
  192.7650  174.9530  137.2440 C   0  0  0  0  0  2  0  0  0  0  0  0
  193.9420  174.0820  137.6450 C   0  0  0  0  0  2  0  0  0  0  0  0
  196.0300  174.6420  136.7530 C   0  0  0  0  0  2  0  0  0  0  0  0
  197.2890  174.3720  138.7720 C   0  0  0  0  0  2  0  0  0  0  0  0
  195.7990  174.3860  139.0440 C   0  0  0  0  0  2  0  0  0  0  0  0
  197.4360  174.6800  137.3030 C   0  0  0  0  0  2  0  0  0  0  0  0
  195.1240  174.9020  137.8610 N   0  0  0  0  0  0  0  0  0  0  0  0
  186.8870  178.7170  136.8900 C   0  0  2  0  0  3  0  0  0  0  0  0
  187.0960  178.3220  135.4350 C   0  0  0  0  0  1  0  0  0  0  0  0
  189.0750  178.6640  136.5280 C   0  0  0  0  0  1  0  0  0  0  0  0
  188.1110  179.1430  137.4170 O   0  0  0  0  0  0  0  0  0  0  0  0
  184.9850  175.4400  137.6640 O   0  0  0  0  0  0  0  0  0  0  0  0
  185.9100  174.4200  135.6610 C   0  0  0  0  0  2  0  0  0  0  0  0
  183.5830  172.9420  136.8750 C   0  0  1  0  0  3  0  0  0  0  0  0
  184.9730  173.5320  134.8350 C   0  0  0  0  0  2  0  0  0  0  0  0
  185.6980  174.3050  137.1810 C   0  0  2  0  0  3  0  0  0  0  0  0
  184.9520  173.0270  137.5640 C   0  0  0  0  0  2  0  0  0  0  0  0
  183.5720  173.5020  135.4430 C   0  0  0  0  0  2  0  0  0  0  0  0
  183.0730  171.5400  136.9060 C   0  0  0  0  0  0  0  0  0  0  0  0
  181.7550  171.2960  137.2650 O   0  0  0  0  0  1  0  0  0  0  0  0
  183.8340  170.5740  136.6290 O   0  0  0  0  0  0  0  0  0  0  0  0
  1 13  2  0  0  0  0
  2  8  1  0  0  0  0
  3  6  1  0  0  0  0
  4  7  1  0  0  0  0
  5  3  2  0  0  0  0
  5  9  1  0  0  0  0
  6 11  1  6  0  0  0
  6  2  1  0  0  0  0
  7 23  1  1  0  0  0
  7 18  1  0  0  0  0
  8 10  1  0  0  0  0
  9  2  2  0  0  0  0
 10 19  1  1  0  0  0
 12 13  1  0  0  0  0
 12 16  2  0  0  0  0
 13  5  1  0  0  0  0
 14  3  1  0  0  0  0
 15 37  1  1  0  0  0
 15  4  1  0  0  0  0
 16 41  1  0  0  0  0
 16 15  1  0  0  0  0
 17 10  1  0  0  0  0
 18 17  1  0  0  0  0
 19 21  2  0  0  0  0
 19 20  1  0  0  0  0
 22 26  1  0  0  0  0
 22 23  2  0  0  0  0
 23 25  1  0  0  0  0
 25 24  1  0  0  0  0
 27 26  1  0  0  0  0
 28 27  1  0  0  0  0
 29 28  1  0  0  0  0
 30 31  1  0  0  0  0
 30 29  1  0  0  0  0
 31 36  1  0  0  0  0
 32 35  1  0  0  0  0
 32 36  1  0  0  0  0
 33 34  1  0  0  0  0
 35 33  1  0  0  0  0
 36 34  1  0  0  0  0
 37 38  1  6  0  0  0
 37 40  1  0  0  0  0
 39 40  1  0  0  0  0
 42 45  1  0  0  0  0
 43 48  1  6  0  0  0
 43 46  1  0  0  0  0
 44 47  1  0  0  0  0
 44 42  1  0  0  0  0
 45 46  1  0  0  0  0
 45 41  1  6  0  0  0
 47 43  1  0  0  0  0
 48 49  1  0  0  0  0
 50 48  2  0  0  0  0
M  END
>  <MODEL>
5

>  <REMARK>
 VINA RESULT:      -5.7      2.871      4.946
  Name = 
  15 active torsions:
  status: ('A' for Active; 'I' for Inactive)
    1  A    between atoms: N_1  and  C_5
    2  A    between atoms: N_1  and  C_15
    3  A    between atoms: C_2  and  C_25
    4  A    between atoms: C_5  and  C_26
    5  A    between atoms: C_7  and  C_30
    6  A    between atoms: C_7  and  C_48
    7  A    between atoms: C_8  and  C_17
    8  A    between atoms: C_15  and  C_48
    9  A    between atoms: C_19  and  C_47
   10  A    between atoms: C_22  and  O_46
   11  A    between atoms: C_29  and  C_39
   12  A    between atoms: C_29  and  O_45
   13  A    between atoms: C_30  and  N_44
   14  A    between atoms: C_35  and  C_47
   15  A    between atoms: C_41  and  O_46
                            x       y       z     vdW  Elec       q    Type
                         _______ _______ _______ _____ _____    ______ ____

>  <TORSDO>
F 15

$$$$
=
 OpenBabel10222419033D

 50 53  0  0  1  0  0  0  0  0999 V2000
  183.1750  175.0930  134.5940 O   0  0  0  0  0  0  0  0  0  0  0  0
  181.7600  177.1650  138.4310 C   0  0  0  0  0  0  0  0  0  0  0  0
  181.2850  175.5750  136.8530 C   0  0  0  0  0  0  0  0  0  0  0  0
  186.0270  177.2570  138.6170 C   0  0  0  0  0  2  0  0  0  0  0  0
  182.4970  176.0830  136.6730 C   0  0  0  0  0  0  0  0  0  0  0  0
  180.6470  176.2410  138.0340 C   0  0  2  0  0  3  0  0  0  0  0  0
  186.1230  178.4910  139.4530 C   0  0  1  0  0  3  0  0  0  0  0  0
  181.6650  178.2290  139.4810 C   0  0  0  0  0  2  0  0  0  0  0  0
  182.7800  177.0760  137.6490 N   0  0  0  0  0  0  0  0  0  0  0  0
  182.4580  177.9070  140.7530 C   0  0  1  0  0  3  0  0  0  0  0  0
  179.5440  176.9840  137.6120 O   0  0  0  0  0  1  0  0  0  0  0  0
  184.7690  176.3660  135.7330 N   0  0  0  0  0  0  0  0  0  0  0  0
  183.4780  175.7720  135.6100 C   0  0  0  0  0  0  0  0  0  0  0  0
  180.6460  174.5130  136.0250 C   0  0  0  0  0  1  0  0  0  0  0  0
  186.3660  177.0910  137.3370 C   0  0  1  0  0  3  0  0  0  0  0  0
  185.5500  176.0310  136.7120 C   0  0  0  0  0  0  0  0  0  0  0  0
  183.9600  177.6770  140.5470 C   0  0  0  0  0  2  0  0  0  0  0  0
  184.7180  178.8760  139.9540 C   0  0  0  0  0  2  0  0  0  0  0  0
  182.2020  178.9270  141.8150 C   0  0  0  0  0  0  0  0  0  0  0  0
  181.1860  179.6650  141.7390 O   0  0  0  0  0  0  0  0  0  0  0  0
  183.0580  179.0440  142.9030 O   0  0  0  0  0  1  0  0  0  0  0  0
  188.2230  177.6340  140.3400 C   0  0  0  0  0  3  0  0  0  0  0  0
  187.0990  178.3200  140.5820 C   0  0  0  0  0  0  0  0  0  0  0  0
  186.3050  178.0410  142.8050 O   0  0  0  0  0  1  0  0  0  0  0  0
  186.8430  178.9710  141.9140 C   0  0  0  0  0  2  0  0  0  0  0  0
  189.2930  177.4280  141.3670 C   0  0  0  0  0  2  0  0  0  0  0  0
  190.5840  177.3080  140.7110 N   0  0  0  0  0  2  0  0  0  0  0  0
  191.6050  177.6020  141.7060 C   0  0  0  0  0  2  0  0  0  0  0  0
  191.3130  176.8580  143.0000 C   0  0  0  0  0  2  0  0  0  0  0  0
  191.0410  177.8440  144.1240 C   0  0  0  0  0  2  0  0  0  0  0  0
  191.1970  177.1550  145.4700 C   0  0  0  0  0  2  0  0  0  0  0  0
  188.9020  177.5750  145.3140 C   0  0  0  0  0  2  0  0  0  0  0  0
  188.4730  177.7090  147.6660 C   0  0  0  0  0  2  0  0  0  0  0  0
  189.8440  177.1300  147.3840 C   0  0  0  0  0  2  0  0  0  0  0  0
  187.8120  177.8640  146.3190 C   0  0  0  0  0  2  0  0  0  0  0  0
  189.8970  176.7480  145.9790 N   0  0  0  0  0  0  0  0  0  0  0  0
  186.9750  178.2090  136.5170 C   0  0  2  0  0  3  0  0  0  0  0  0
  186.4740  178.1640  135.0800 C   0  0  0  0  0  1  0  0  0  0  0  0
  188.8220  179.2550  137.1630 C   0  0  0  0  0  1  0  0  0  0  0  0
  188.3700  178.1090  136.5050 O   0  0  0  0  0  0  0  0  0  0  0  0
  185.3790  174.7830  137.3350 O   0  0  0  0  0  0  0  0  0  0  0  0
  187.5030  174.1140  136.3620 C   0  0  0  0  0  2  0  0  0  0  0  0
  185.1680  172.3530  135.6360 C   0  0  1  0  0  3  0  0  0  0  0  0
  187.4490  173.3050  135.0600 C   0  0  0  0  0  2  0  0  0  0  0  0
  186.3800  173.7690  137.3560 C   0  0  2  0  0  3  0  0  0  0  0  0
  185.7440  172.4110  137.0590 C   0  0  0  0  0  2  0  0  0  0  0  0
  186.0080  173.1130  134.5960 C   0  0  0  0  0  2  0  0  0  0  0  0
  184.9540  170.9360  135.2210 C   0  0  0  0  0  0  0  0  0  0  0  0
  186.0060  170.0350  135.2870 O   0  0  0  0  0  1  0  0  0  0  0  0
  183.8310  170.5560  134.7910 O   0  0  0  0  0  0  0  0  0  0  0  0
  1 13  2  0  0  0  0
  2  8  1  0  0  0  0
  3  6  1  0  0  0  0
  4  7  1  0  0  0  0
  5  3  2  0  0  0  0
  5  9  1  0  0  0  0
  6 11  1  6  0  0  0
  6  2  1  0  0  0  0
  7 18  1  0  0  0  0
  7 23  1  1  0  0  0
  8 10  1  0  0  0  0
  9  2  2  0  0  0  0
 10 19  1  1  0  0  0
 12 16  2  0  0  0  0
 13 12  1  0  0  0  0
 13  5  1  0  0  0  0
 14  3  1  0  0  0  0
 15 37  1  6  0  0  0
 15  4  1  0  0  0  0
 16 41  1  0  0  0  0
 16 15  1  0  0  0  0
 17 10  1  0  0  0  0
 18 17  1  0  0  0  0
 19 21  1  0  0  0  0
 20 19  2  0  0  0  0
 22 23  2  0  0  0  0
 22 26  1  0  0  0  0
 23 25  1  0  0  0  0
 25 24  1  0  0  0  0
 27 26  1  0  0  0  0
 27 28  1  0  0  0  0
 28 29  1  0  0  0  0
 29 30  1  0  0  0  0
 30 31  1  0  0  0  0
 31 36  1  0  0  0  0
 32 36  1  0  0  0  0
 32 35  1  0  0  0  0
 34 33  1  0  0  0  0
 35 33  1  0  0  0  0
 36 34  1  0  0  0  0
 37 38  1  6  0  0  0
 40 37  1  0  0  0  0
 40 39  1  0  0  0  0
 42 45  1  0  0  0  0
 43 48  1  6  0  0  0
 43 46  1  0  0  0  0
 44 42  1  0  0  0  0
 45 41  1  6  0  0  0
 46 45  1  0  0  0  0
 47 44  1  0  0  0  0
 47 43  1  0  0  0  0
 48 49  1  0  0  0  0
 50 48  2  0  0  0  0
M  END
>  <MODEL>
6

>  <REMARK>
 VINA RESULT:      -5.7      1.580      2.348
  Name = 
  15 active torsions:
  status: ('A' for Active; 'I' for Inactive)
    1  A    between atoms: N_1  and  C_5
    2  A    between atoms: N_1  and  C_15
    3  A    between atoms: C_2  and  C_25
    4  A    between atoms: C_5  and  C_26
    5  A    between atoms: C_7  and  C_30
    6  A    between atoms: C_7  and  C_48
    7  A    between atoms: C_8  and  C_17
    8  A    between atoms: C_15  and  C_48
    9  A    between atoms: C_19  and  C_47
   10  A    between atoms: C_22  and  O_46
   11  A    between atoms: C_29  and  C_39
   12  A    between atoms: C_29  and  O_45
   13  A    between atoms: C_30  and  N_44
   14  A    between atoms: C_35  and  C_47
   15  A    between atoms: C_41  and  O_46
                            x       y       z     vdW  Elec       q    Type
                         _______ _______ _______ _____ _____    ______ ____

>  <TORSDO>
F 15

$$$$
=
 OpenBabel10222419033D

 50 53  0  0  1  0  0  0  0  0999 V2000
  183.4530  178.9610  138.5540 O   0  0  0  0  0  0  0  0  0  0  0  0
  186.8210  178.4810  141.6270 C   0  0  0  0  0  0  0  0  0  0  0  0
  184.5570  178.5480  141.2960 C   0  0  0  0  0  0  0  0  0  0  0  0
  188.3950  176.8990  137.9850 C   0  0  0  0  0  2  0  0  0  0  0  0
  185.2120  178.5780  140.1430 C   0  0  0  0  0  0  0  0  0  0  0  0
  185.5480  178.4930  142.4190 C   0  0  2  0  0  3  0  0  0  0  0  0
  189.8280  177.1890  138.2910 C   0  0  1  0  0  3  0  0  0  0  0  0
  188.1990  178.5880  142.2060 C   0  0  0  0  0  2  0  0  0  0  0  0
  186.6150  178.5470  140.3570 N   0  0  0  0  0  0  0  0  0  0  0  0
  188.9970  177.2820  142.1340 C   0  0  1  0  0  3  0  0  0  0  0  0
  185.4680  179.6660  143.1700 O   0  0  0  0  0  1  0  0  0  0  0  0
  185.5870  178.5510  137.6970 N   0  0  0  0  0  0  0  0  0  0  0  0
  184.6610  178.6820  138.7740 C   0  0  0  0  0  0  0  0  0  0  0  0
  183.0760  178.5660  141.4660 C   0  0  0  0  0  1  0  0  0  0  0  0
  187.6090  177.4700  137.0700 C   0  0  1  0  0  3  0  0  0  0  0  0
  186.1950  177.4240  137.4930 C   0  0  0  0  0  0  0  0  0  0  0  0
  189.1960  176.7140  140.7230 C   0  0  0  0  0  2  0  0  0  0  0  0
  189.9520  177.6430  139.7580 C   0  0  0  0  0  2  0  0  0  0  0  0
  190.2970  177.4070  142.8600 C   0  0  0  0  0  0  0  0  0  0  0  0
  191.0240  176.3920  143.0160 O   0  0  0  0  0  0  0  0  0  0  0  0
  190.7240  178.6410  143.3370 O   0  0  0  0  0  1  0  0  0  0  0  0
  192.0180  176.1230  138.2470 C   0  0  0  0  0  3  0  0  0  0  0  0
  190.7090  176.0110  137.9870 C   0  0  0  0  0  0  0  0  0  0  0  0
  190.4830  174.5210  136.1490 O   0  0  0  0  0  1  0  0  0  0  0  0
  190.1130  174.7260  137.4790 C   0  0  0  0  0  2  0  0  0  0  0  0
  192.9930  175.0100  138.0280 C   0  0  0  0  0  2  0  0  0  0  0  0
  194.3190  175.5580  137.7960 N   0  0  0  0  0  2  0  0  0  0  0  0
  194.8580  174.9040  136.6140 C   0  0  0  0  0  2  0  0  0  0  0  0
  196.2930  174.4640  136.8600 C   0  0  0  0  0  2  0  0  0  0  0  0
  196.3180  173.1940  137.6950 C   0  0  0  0  0  2  0  0  0  0  0  0
  197.5190  172.3440  137.3140 C   0  0  0  0  0  2  0  0  0  0  0  0
  196.6420  171.0320  135.5880 C   0  0  0  0  0  2  0  0  0  0  0  0
  194.9050  169.9940  136.8680 C   0  0  0  0  0  2  0  0  0  0  0  0
  195.9020  170.7060  137.7590 C   0  0  0  0  0  2  0  0  0  0  0  0
  195.4670  170.0900  135.4720 C   0  0  0  0  0  2  0  0  0  0  0  0
  197.0920  170.9970  136.9710 N   0  0  0  0  0  0  0  0  0  0  0  0
  188.1190  178.5380  136.1260 C   0  0  2  0  0  3  0  0  0  0  0  0
  187.1030  178.8250  135.0300 C   0  0  0  0  0  1  0  0  0  0  0  0
  188.9530  177.1650  134.5950 C   0  0  0  0  0  1  0  0  0  0  0  0
  189.3190  178.1370  135.5280 O   0  0  0  0  0  0  0  0  0  0  0  0
  185.6130  176.2320  137.9590 O   0  0  0  0  0  0  0  0  0  0  0  0
  184.9320  175.7210  135.6830 C   0  0  0  0  0  2  0  0  0  0  0  0
  182.7440  175.4890  137.7410 C   0  0  1  0  0  3  0  0  0  0  0  0
  183.4500  175.9110  135.3400 C   0  0  0  0  0  2  0  0  0  0  0  0
  185.1780  175.1800  137.1020 C   0  0  2  0  0  3  0  0  0  0  0  0
  183.9330  174.5180  137.6910 C   0  0  0  0  0  2  0  0  0  0  0  0
  182.6760  176.4480  136.5410 C   0  0  0  0  0  2  0  0  0  0  0  0
  181.4660  174.7360  137.8990 C   0  0  0  0  0  0  0  0  0  0  0  0
  181.3880  173.4190  137.4680 O   0  0  0  0  0  0  0  0  0  0  0  0
  180.4510  175.2910  138.4000 O   0  0  0  0  0  1  0  0  0  0  0  0
  1 13  2  0  0  0  0
  2  8  1  0  0  0  0
  2  6  1  0  0  0  0
  3 14  1  0  0  0  0
  3  6  1  0  0  0  0
  4  7  1  0  0  0  0
  5  9  1  0  0  0  0
  5  3  2  0  0  0  0
  6 11  1  1  0  0  0
  7 23  1  1  0  0  0
  7 18  1  0  0  0  0
  9  2  2  0  0  0  0
 10  8  1  0  0  0  0
 10 19  1  6  0  0  0
 12 13  1  0  0  0  0
 13  5  1  0  0  0  0
 15 37  1  1  0  0  0
 15 16  1  0  0  0  0
 15  4  1  0  0  0  0
 16 12  2  0  0  0  0
 16 41  1  0  0  0  0
 17 10  1  0  0  0  0
 18 17  1  0  0  0  0
 19 20  2  0  0  0  0
 19 21  1  0  0  0  0
 23 22  2  0  0  0  0
 24 25  1  0  0  0  0
 25 23  1  0  0  0  0
 26 22  1  0  0  0  0
 27 26  1  0  0  0  0
 28 29  1  0  0  0  0
 28 27  1  0  0  0  0
 29 30  1  0  0  0  0
 31 30  1  0  0  0  0
 32 36  1  0  0  0  0
 33 34  1  0  0  0  0
 35 32  1  0  0  0  0
 35 33  1  0  0  0  0
 36 31  1  0  0  0  0
 36 34  1  0  0  0  0
 37 38  1  6  0  0  0
 39 40  1  0  0  0  0
 40 37  1  0  0  0  0
 42 45  1  0  0  0  0
 43 48  1  6  0  0  0
 44 42  1  0  0  0  0
 44 47  1  0  0  0  0
 45 46  1  0  0  0  0
 45 41  1  1  0  0  0
 46 43  1  0  0  0  0
 47 43  1  0  0  0  0
 48 50  1  0  0  0  0
 49 48  2  0  0  0  0
M  END
>  <MODEL>
7

>  <REMARK>
 VINA RESULT:      -5.6      4.518      6.719
  Name = 
  15 active torsions:
  status: ('A' for Active; 'I' for Inactive)
    1  A    between atoms: N_1  and  C_5
    2  A    between atoms: N_1  and  C_15
    3  A    between atoms: C_2  and  C_25
    4  A    between atoms: C_5  and  C_26
    5  A    between atoms: C_7  and  C_30
    6  A    between atoms: C_7  and  C_48
    7  A    between atoms: C_8  and  C_17
    8  A    between atoms: C_15  and  C_48
    9  A    between atoms: C_19  and  C_47
   10  A    between atoms: C_22  and  O_46
   11  A    between atoms: C_29  and  C_39
   12  A    between atoms: C_29  and  O_45
   13  A    between atoms: C_30  and  N_44
   14  A    between atoms: C_35  and  C_47
   15  A    between atoms: C_41  and  O_46
                            x       y       z     vdW  Elec       q    Type
                         _______ _______ _______ _____ _____    ______ ____

>  <TORSDO>
F 15

$$$$
=
 OpenBabel10222419033D

 50 53  0  0  1  0  0  0  0  0999 V2000
  182.9310  177.5900  135.5360 O   0  0  0  0  0  0  0  0  0  0  0  0
  186.7350  177.6310  138.0960 C   0  0  0  0  0  0  0  0  0  0  0  0
  185.8400  178.0450  136.0300 C   0  0  0  0  0  0  0  0  0  0  0  0
  183.5390  178.3980  140.8260 C   0  0  0  0  0  2  0  0  0  0  0  0
  184.8950  177.7380  136.9100 C   0  0  0  0  0  0  0  0  0  0  0  0
  187.1740  177.9970  136.7100 C   0  0  2  0  0  3  0  0  0  0  0  0
  184.2160  177.8250  142.0280 C   0  0  1  0  0  3  0  0  0  0  0  0
  187.6510  177.2790  139.2280 C   0  0  0  0  0  2  0  0  0  0  0  0
  185.4590  177.4720  138.1860 N   0  0  0  0  0  0  0  0  0  0  0  0
  187.7180  178.3530  140.3190 C   0  0  1  0  0  3  0  0  0  0  0  0
  187.9390  176.9650  136.1680 O   0  0  0  0  0  1  0  0  0  0  0  0
  182.6280  177.4060  137.8450 N   0  0  0  0  0  0  0  0  0  0  0  0
  183.4380  177.6100  136.6890 C   0  0  0  0  0  0  0  0  0  0  0  0
  185.6260  178.3830  134.5940 C   0  0  0  0  0  1  0  0  0  0  0  0
  182.4840  177.9230  140.1610 C   0  0  1  0  0  3  0  0  0  0  0  0
  182.5290  178.3350  138.7440 C   0  0  0  0  0  0  0  0  0  0  0  0
  186.3780  178.6990  140.9790 C   0  0  0  0  0  2  0  0  0  0  0  0
  185.6870  177.5220  141.6860 C   0  0  0  0  0  2  0  0  0  0  0  0
  188.7580  178.0170  141.3380 C   0  0  0  0  0  0  0  0  0  0  0  0
  188.7850  178.6420  142.4300 O   0  0  0  0  0  1  0  0  0  0  0  0
  189.6750  177.0000  141.1030 O   0  0  0  0  0  0  0  0  0  0  0  0
  185.1290  178.8190  144.0560 C   0  0  0  0  0  3  0  0  0  0  0  0
  184.0870  178.7310  143.2190 C   0  0  0  0  0  0  0  0  0  0  0  0
  181.8360  178.7920  143.9800 O   0  0  0  0  0  1  0  0  0  0  0  0
  182.8490  179.5650  143.4110 C   0  0  0  0  0  2  0  0  0  0  0  0
  185.1430  179.7150  145.2540 C   0  0  0  0  0  2  0  0  0  0  0  0
  184.9420  178.9260  146.4580 N   0  0  0  0  0  2  0  0  0  0  0  0
  185.6410  177.6640  146.2710 C   0  0  0  0  0  2  0  0  0  0  0  0
  186.8380  177.5780  147.2060 C   0  0  0  0  0  2  0  0  0  0  0  0
  188.1050  177.2980  146.4150 C   0  0  0  0  0  2  0  0  0  0  0  0
  189.3020  177.2550  147.3490 C   0  0  0  0  0  2  0  0  0  0  0  0
  190.1740  177.5260  145.1960 C   0  0  0  0  0  2  0  0  0  0  0  0
  192.0250  176.0270  145.4420 C   0  0  0  0  0  2  0  0  0  0  0  0
  191.3870  176.3470  146.7790 C   0  0  0  0  0  2  0  0  0  0  0  0
  191.3220  176.9040  144.4360 C   0  0  0  0  0  2  0  0  0  0  0  0
  190.5270  177.5100  146.6070 N   0  0  0  0  0  0  0  0  0  0  0  0
  181.7580  176.6680  140.5980 C   0  0  2  0  0  3  0  0  0  0  0  0
  181.5830  175.7070  139.4300 C   0  0  0  0  0  1  0  0  0  0  0  0
  179.5900  176.5290  140.1470 C   0  0  0  0  0  1  0  0  0  0  0  0
  180.4940  176.9810  141.1100 O   0  0  0  0  0  0  0  0  0  0  0  0
  182.7690  179.6730  138.3830 O   0  0  0  0  0  0  0  0  0  0  0  0
  180.5930  180.2120  139.3220 C   0  0  0  0  0  2  0  0  0  0  0  0
  180.9310  180.9300  136.4160 C   0  0  1  0  0  3  0  0  0  0  0  0
  179.4130  180.2890  138.3470 C   0  0  0  0  0  2  0  0  0  0  0  0
  181.9140  180.7520  138.7460 C   0  0  2  0  0  3  0  0  0  0  0  0
  181.6870  181.6590  137.5360 C   0  0  0  0  0  2  0  0  0  0  0  0
  179.8570  179.9540  136.9250 C   0  0  0  0  0  2  0  0  0  0  0  0
  180.3490  181.9150  135.4570 C   0  0  0  0  0  0  0  0  0  0  0  0
  181.1610  182.8910  134.8990 O   0  0  0  0  0  0  0  0  0  0  0  0
  179.1230  181.8810  135.1680 O   0  0  0  0  0  1  0  0  0  0  0  0
  1 13  2  0  0  0  0
  2  9  2  0  0  0  0
  2  8  1  0  0  0  0
  3  6  1  0  0  0  0
  3  5  2  0  0  0  0
  4  7  1  0  0  0  0
  5  9  1  0  0  0  0
  6 11  1  6  0  0  0
  6  2  1  0  0  0  0
  7 23  1  1  0  0  0
  8 10  1  0  0  0  0
 10 17  1  0  0  0  0
 10 19  1  1  0  0  0
 12 16  2  0  0  0  0
 13  5  1  0  0  0  0
 13 12  1  0  0  0  0
 14  3  1  0  0  0  0
 15 37  1  6  0  0  0
 15  4  1  0  0  0  0
 16 15  1  0  0  0  0
 17 18  1  0  0  0  0
 18  7  1  0  0  0  0
 19 20  1  0  0  0  0
 21 19  2  0  0  0  0
 22 26  1  0  0  0  0
 23 25  1  0  0  0  0
 23 22  2  0  0  0  0
 25 24  1  0  0  0  0
 26 27  1  0  0  0  0
 28 27  1  0  0  0  0
 28 29  1  0  0  0  0
 30 29  1  0  0  0  0
 30 31  1  0  0  0  0
 32 36  1  0  0  0  0
 33 34  1  0  0  0  0
 35 32  1  0  0  0  0
 35 33  1  0  0  0  0
 36 34  1  0  0  0  0
 36 31  1  0  0  0  0
 37 38  1  6  0  0  0
 37 40  1  0  0  0  0
 39 40  1  0  0  0  0
 41 16  1  0  0  0  0
 43 48  1  6  0  0  0
 43 47  1  0  0  0  0
 43 46  1  0  0  0  0
 44 42  1  0  0  0  0
 45 41  1  6  0  0  0
 45 42  1  0  0  0  0
 46 45  1  0  0  0  0
 47 44  1  0  0  0  0
 49 48  2  0  0  0  0
 50 48  1  0  0  0  0
M  END
>  <MODEL>
8

>  <REMARK>
 VINA RESULT:      -4.9      2.525      6.356
  Name = 
  15 active torsions:
  status: ('A' for Active; 'I' for Inactive)
    1  A    between atoms: N_1  and  C_5
    2  A    between atoms: N_1  and  C_15
    3  A    between atoms: C_2  and  C_25
    4  A    between atoms: C_5  and  C_26
    5  A    between atoms: C_7  and  C_30
    6  A    between atoms: C_7  and  C_48
    7  A    between atoms: C_8  and  C_17
    8  A    between atoms: C_15  and  C_48
    9  A    between atoms: C_19  and  C_47
   10  A    between atoms: C_22  and  O_46
   11  A    between atoms: C_29  and  C_39
   12  A    between atoms: C_29  and  O_45
   13  A    between atoms: C_30  and  N_44
   14  A    between atoms: C_35  and  C_47
   15  A    between atoms: C_41  and  O_46
                            x       y       z     vdW  Elec       q    Type
                         _______ _______ _______ _____ _____    ______ ____

>  <TORSDO>
F 15

$$$$
=
 OpenBabel10222419033D

 50 53  0  0  1  0  0  0  0  0999 V2000
  184.0300  175.8630  134.5940 O   0  0  0  0  0  0  0  0  0  0  0  0
  181.8980  177.4160  138.3450 C   0  0  0  0  0  0  0  0  0  0  0  0
  181.7590  176.0350  136.5240 C   0  0  0  0  0  0  0  0  0  0  0  0
  186.0610  177.5260  139.2970 C   0  0  0  0  0  2  0  0  0  0  0  0
  182.9670  176.5740  136.6270 C   0  0  0  0  0  0  0  0  0  0  0  0
  180.9030  176.5390  137.6450 C   0  0  2  0  0  3  0  0  0  0  0  0
  185.9700  178.6440  140.2830 C   0  0  1  0  0  3  0  0  0  0  0  0
  181.5870  178.3370  139.4840 C   0  0  0  0  0  2  0  0  0  0  0  0
  183.0420  177.4380  137.7520 N   0  0  0  0  0  0  0  0  0  0  0  0
  182.1540  177.8630  140.8280 C   0  0  1  0  0  3  0  0  0  0  0  0
  179.8680  177.3180  137.1280 O   0  0  0  0  0  1  0  0  0  0  0  0
  185.3580  176.9970  136.1470 N   0  0  0  0  0  0  0  0  0  0  0  0
  184.1280  176.4110  135.7240 C   0  0  0  0  0  0  0  0  0  0  0  0
  181.3100  175.0800  135.4700 C   0  0  0  0  0  1  0  0  0  0  0  0
  186.6240  177.5280  138.0870 C   0  0  1  0  0  3  0  0  0  0  0  0
  185.9660  176.5480  137.2010 C   0  0  0  0  0  0  0  0  0  0  0  0
  183.6760  177.6760  140.8650 C   0  0  0  0  0  2  0  0  0  0  0  0
  184.4870  178.9480  140.5690 C   0  0  0  0  0  2  0  0  0  0  0  0
  181.6830  178.7360  141.9450 C   0  0  0  0  0  0  0  0  0  0  0  0
  180.5000  179.1660  141.9450 O   0  0  0  0  0  0  0  0  0  0  0  0
  182.5300  179.0510  143.0010 O   0  0  0  0  0  1  0  0  0  0  0  0
  188.0750  178.3560  141.4730 C   0  0  0  0  0  3  0  0  0  0  0  0
  186.7380  178.3410  141.5370 C   0  0  0  0  0  0  0  0  0  0  0  0
  186.0610  179.2570  143.6230 O   0  0  0  0  0  1  0  0  0  0  0  0
  186.0130  178.1060  142.8360 C   0  0  0  0  0  2  0  0  0  0  0  0
  188.9540  178.1110  142.6590 C   0  0  0  0  0  2  0  0  0  0  0  0
  189.7580  176.9210  142.4360 N   0  0  0  0  0  2  0  0  0  0  0  0
  191.1340  177.2590  142.7700 C   0  0  0  0  0  2  0  0  0  0  0  0
  191.4140  176.9530  144.2330 C   0  0  0  0  0  2  0  0  0  0  0  0
  190.1620  177.1750  145.0660 C   0  0  0  0  0  2  0  0  0  0  0  0
  190.4550  176.8930  146.5300 C   0  0  0  0  0  2  0  0  0  0  0  0
  188.1340  177.1280  146.3620 C   0  0  0  0  0  2  0  0  0  0  0  0
  187.8410  178.5050  148.2980 C   0  0  0  0  0  2  0  0  0  0  0  0
  189.2240  177.8860  148.2610 C   0  0  0  0  0  2  0  0  0  0  0  0
  187.0930  177.8990  147.1380 C   0  0  0  0  0  2  0  0  0  0  0  0
  189.2130  176.8070  147.2830 N   0  0  0  0  0  0  0  0  0  0  0  0
  187.3320  178.7470  137.5330 C   0  0  2  0  0  3  0  0  0  0  0  0
  187.5960  178.5910  136.0420 C   0  0  0  0  0  1  0  0  0  0  0  0
  189.4840  178.2170  137.4420 C   0  0  0  0  0  1  0  0  0  0  0  0
  188.5540  178.9480  138.1840 O   0  0  0  0  0  0  0  0  0  0  0  0
  185.7290  175.2290  137.6250 O   0  0  0  0  0  0  0  0  0  0  0  0
  185.9050  172.8060  137.5480 C   0  0  0  0  0  2  0  0  0  0  0  0
  188.2200  174.2830  136.3090 C   0  0  1  0  0  3  0  0  0  0  0  0
  187.3150  172.2120  137.4650 C   0  0  0  0  0  2  0  0  0  0  0  0
  185.7290  174.1080  136.7460 C   0  0  2  0  0  3  0  0  0  0  0  0
  186.8160  174.2830  135.6860 C   0  0  0  0  0  2  0  0  0  0  0  0
  188.3730  173.3120  137.4920 C   0  0  0  0  0  2  0  0  0  0  0  0
  189.2520  174.0200  135.2640 C   0  0  0  0  0  0  0  0  0  0  0  0
  189.2600  172.8020  134.5990 O   0  0  0  0  0  0  0  0  0  0  0  0
  190.1270  174.8860  134.9940 O   0  0  0  0  0  1  0  0  0  0  0  0
  1 13  2  0  0  0  0
  2  8  1  0  0  0  0
  3  5  2  0  0  0  0
  3  6  1  0  0  0  0
  4  7  1  0  0  0  0
  5  9  1  0  0  0  0
  6 11  1  6  0  0  0
  6  2  1  0  0  0  0
  7 18  1  0  0  0  0
  7 23  1  1  0  0  0
  8 10  1  0  0  0  0
  9  2  2  0  0  0  0
 10 17  1  0  0  0  0
 10 19  1  1  0  0  0
 12 16  2  0  0  0  0
 13 12  1  0  0  0  0
 13  5  1  0  0  0  0
 14  3  1  0  0  0  0
 15 37  1  6  0  0  0
 15  4  1  0  0  0  0
 16 41  1  0  0  0  0
 16 15  1  0  0  0  0
 18 17  1  0  0  0  0
 19 20  2  0  0  0  0
 19 21  1  0  0  0  0
 22 23  2  0  0  0  0
 22 26  1  0  0  0  0
 23 25  1  0  0  0  0
 25 24  1  0  0  0  0
 27 26  1  0  0  0  0
 27 28  1  0  0  0  0
 28 29  1  0  0  0  0
 29 30  1  0  0  0  0
 30 31  1  0  0  0  0
 31 36  1  0  0  0  0
 32 35  1  0  0  0  0
 32 36  1  0  0  0  0
 34 33  1  0  0  0  0
 35 33  1  0  0  0  0
 36 34  1  0  0  0  0
 37 38  1  6  0  0  0
 37 40  1  0  0  0  0
 39 40  1  0  0  0  0
 43 48  1  6  0  0  0
 43 47  1  0  0  0  0
 44 47  1  0  0  0  0
 44 42  1  0  0  0  0
 45 42  1  0  0  0  0
 45 41  1  1  0  0  0
 46 43  1  0  0  0  0
 46 45  1  0  0  0  0
 49 48  2  0  0  0  0
 50 48  1  0  0  0  0
M  END
>  <MODEL>
9

>  <REMARK>
 VINA RESULT:      -4.5      1.758      3.084
  Name = 
  15 active torsions:
  status: ('A' for Active; 'I' for Inactive)
    1  A    between atoms: N_1  and  C_5
    2  A    between atoms: N_1  and  C_15
    3  A    between atoms: C_2  and  C_25
    4  A    between atoms: C_5  and  C_26
    5  A    between atoms: C_7  and  C_30
    6  A    between atoms: C_7  and  C_48
    7  A    between atoms: C_8  and  C_17
    8  A    between atoms: C_15  and  C_48
    9  A    between atoms: C_19  and  C_47
   10  A    between atoms: C_22  and  O_46
   11  A    between atoms: C_29  and  C_39
   12  A    between atoms: C_29  and  O_45
   13  A    between atoms: C_30  and  N_44
   14  A    between atoms: C_35  and  C_47
   15  A    between atoms: C_41  and  O_46
                            x       y       z     vdW  Elec       q    Type
                         _______ _______ _______ _____ _____    ______ ____

>  <TORSDO>
F 15

$$$$
