=
 OpenBabel10222420203D

 27 29  0  0  1  0  0  0  0  0999 V2000
  184.7680  178.6830  144.1570 C   0  0  0  0  0  0  0  0  0  0  0  0
  185.6020  178.0300  141.8520 C   0  0  2  0  0  3  0  0  0  0  0  0
  184.5600  178.5970  146.5240 N   0  0  0  0  0  0  0  0  0  0  0  0
  188.3950  177.9530  141.2410 C   0  0  0  0  0  3  0  0  0  0  0  0
  186.0470  178.1750  144.2500 C   0  0  0  0  0  0  0  0  0  0  0  0
  186.6040  177.8790  145.4960 C   0  0  0  0  0  3  0  0  0  0  0  0
  185.8270  178.1040  146.6400 C   0  0  0  0  0  3  0  0  0  0  0  0
  186.1540  178.5390  140.5900 N   0  0  0  0  0  0  0  0  0  0  0  0
  184.2080  179.0420  142.4960 S   0  0  0  0  0  0  0  0  0  0  0  0
  187.9560  177.8590  142.6460 C   0  0  0  0  0  0  0  0  0  0  0  0
  184.0120  178.8900  145.3110 C   0  0  0  0  0  3  0  0  0  0  0  0
  187.5340  178.2930  140.2790 C   0  0  0  0  0  3  0  0  0  0  0  0
  186.6460  177.9740  142.9350 C   0  0  0  0  0  0  0  0  0  0  0  0
  189.0060  177.7290  143.7030 C   0  0  0  0  0  2  0  0  0  0  0  0
  189.6370  176.4200  143.6220 N   0  0  0  0  0  2  0  0  0  0  0  0
  190.9880  176.5520  144.1430 C   0  0  0  0  0  2  0  0  0  0  0  0
  191.0290  177.6410  145.2000 C   0  0  0  0  0  2  0  0  0  0  0  0
  191.1880  177.0290  146.5850 C   0  0  1  0  0  3  0  0  0  0  0  0
  189.8250  176.7070  147.1950 C   0  0  0  0  0  2  0  0  0  0  0  0
  189.3040  177.8410  148.0660 C   0  0  0  0  0  1  0  0  0  0  0  0
  192.4620  175.7060  147.8260 C   0  0  0  0  0  1  0  0  0  0  0  0
  191.9830  175.8790  146.5260 O   0  0  0  0  0  0  0  0  0  0  0  0
  185.2610  178.9090  139.4990 C   0  0  0  0  0  2  0  0  0  0  0  0
  186.1010  177.4750  136.0600 N   0  0  0  0  0  1  0  0  0  0  0  0
  185.4670  177.6230  137.3240 C   0  0  0  0  0  0  0  0  0  0  0  0
  185.9000  178.6520  138.2140 N   0  0  0  0  0  2  0  0  0  0  0  0
  184.5370  176.8400  137.6510 O   0  0  0  0  0  0  0  0  0  0  0  0
  1  5  2  0  0  0  0
  1 11  1  0  0  0  0
  2  9  1  1  0  0  0
  2 13  1  0  0  0  0
  3  7  1  0  0  0  0
  4 10  1  0  0  0  0
  5  6  1  0  0  0  0
  6  7  2  0  0  0  0
  8  2  1  0  0  0  0
  9  1  1  0  0  0  0
 10 13  2  0  0  0  0
 10 14  1  0  0  0  0
 11  3  2  0  0  0  0
 12  8  1  0  0  0  0
 12  4  2  0  0  0  0
 13  5  1  0  0  0  0
 15 14  1  0  0  0  0
 15 16  1  0  0  0  0
 16 17  1  0  0  0  0
 18 17  1  6  0  0  0
 18 19  1  0  0  0  0
 19 20  1  0  0  0  0
 22 18  1  0  0  0  0
 22 21  1  0  0  0  0
 23  8  1  0  0  0  0
 24 25  1  0  0  0  0
 25 27  2  0  0  0  0
 25 26  1  0  0  0  0
 26 23  1  0  0  0  0
M  END
>  <MODEL>
1

>  <REMARK>
 VINA RESULT:      -7.5      0.000      0.000
  Name = 
  9 active torsions:
  status: ('A' for Active; 'I' for Inactive)
    1  A    between atoms: C_4  and  C_26
    2  A    between atoms: C_8  and  C_13
    3  A    between atoms: C_8  and  C_26
    4  A    between atoms: C_10  and  C_16
    5  A    between atoms: C_10  and  N_17
    6  A    between atoms: C_13  and  N_17
    7  A    between atoms: N_14  and  C_22
    8  A    between atoms: N_21  and  C_22
    9  A    between atoms: C_26  and  O_27
                            x       y       z     vdW  Elec       q    Type
                         _______ _______ _______ _____ _____    ______ ____

>  <TORSDO>
F 9

$$$$
=
 OpenBabel10222420203D

 27 29  0  0  1  0  0  0  0  0999 V2000
  186.9920  178.2590  146.9100 C   0  0  0  0  0  0  0  0  0  0  0  0
  185.2570  178.1100  145.0660 C   0  0  2  0  0  3  0  0  0  0  0  0
  188.8750  177.6150  148.2110 N   0  0  0  0  0  0  0  0  0  0  0  0
  186.0130  177.8980  142.3160 C   0  0  0  0  0  3  0  0  0  0  0  0
  187.5290  177.6150  145.8140 C   0  0  0  0  0  0  0  0  0  0  0  0
  188.7620  176.9650  145.9060 C   0  0  0  0  0  3  0  0  0  0  0  0
  189.4300  176.9820  147.1380 C   0  0  0  0  0  3  0  0  0  0  0  0
  184.5790  178.8540  143.9960 N   0  0  0  0  0  0  0  0  0  0  0  0
  185.4240  179.0700  146.6250 S   0  0  0  0  0  0  0  0  0  0  0  0
  186.9730  177.5070  143.3650 C   0  0  0  0  0  0  0  0  0  0  0  0
  187.6730  178.2520  148.1270 C   0  0  0  0  0  3  0  0  0  0  0  0
  184.8900  178.5510  142.6280 C   0  0  0  0  0  3  0  0  0  0  0  0
  186.6410  177.6820  144.6590 C   0  0  0  0  0  0  0  0  0  0  0  0
  188.3180  177.0140  142.9380 C   0  0  0  0  0  2  0  0  0  0  0  0
  188.6360  177.5180  141.6100 N   0  0  0  0  0  2  0  0  0  0  0  0
  189.9150  176.9470  141.2190 C   0  0  0  0  0  2  0  0  0  0  0  0
  191.0460  177.8310  141.7130 C   0  0  0  0  0  2  0  0  0  0  0  0
  191.8080  177.1380  142.8340 C   0  0  1  0  0  3  0  0  0  0  0  0
  191.7520  177.9640  144.1180 C   0  0  0  0  0  2  0  0  0  0  0  0
  191.0240  179.2860  143.9200 C   0  0  0  0  0  1  0  0  0  0  0  0
  191.8360  175.4580  144.2790 C   0  0  0  0  0  1  0  0  0  0  0  0
  191.2990  175.8540  143.0530 O   0  0  0  0  0  0  0  0  0  0  0  0
  183.3410  179.5690  144.2750 C   0  0  0  0  0  2  0  0  0  0  0  0
  179.9550  177.9620  143.5420 N   0  0  0  0  0  1  0  0  0  0  0  0
  180.9910  178.9350  143.5680 C   0  0  0  0  0  0  0  0  0  0  0  0
  182.2100  178.6510  144.2540 N   0  0  0  0  0  2  0  0  0  0  0  0
  180.8210  180.0430  142.9940 O   0  0  0  0  0  0  0  0  0  0  0  0
  1 11  1  0  0  0  0
  2 13  1  6  0  0  0
  2  9  1  0  0  0  0
  4 12  2  0  0  0  0
  4 10  1  0  0  0  0
  5  6  1  0  0  0  0
  5  1  2  0  0  0  0
  6  7  2  0  0  0  0
  7  3  1  0  0  0  0
  8 23  1  0  0  0  0
  8  2  1  0  0  0  0
  9  1  1  0  0  0  0
 10 13  2  0  0  0  0
 11  3  2  0  0  0  0
 12  8  1  0  0  0  0
 13  5  1  0  0  0  0
 14 10  1  0  0  0  0
 15 14  1  0  0  0  0
 16 15  1  0  0  0  0
 16 17  1  0  0  0  0
 18 17  1  6  0  0  0
 18 22  1  0  0  0  0
 18 19  1  0  0  0  0
 20 19  1  0  0  0  0
 22 21  1  0  0  0  0
 24 25  1  0  0  0  0
 25 26  1  0  0  0  0
 26 23  1  0  0  0  0
 27 25  2  0  0  0  0
M  END
>  <MODEL>
2

>  <REMARK>
 VINA RESULT:      -7.4      2.962      4.474
  Name = 
  9 active torsions:
  status: ('A' for Active; 'I' for Inactive)
    1  A    between atoms: C_4  and  C_26
    2  A    between atoms: C_8  and  C_13
    3  A    between atoms: C_8  and  C_26
    4  A    between atoms: C_10  and  C_16
    5  A    between atoms: C_10  and  N_17
    6  A    between atoms: C_13  and  N_17
    7  A    between atoms: N_14  and  C_22
    8  A    between atoms: N_21  and  C_22
    9  A    between atoms: C_26  and  O_27
                            x       y       z     vdW  Elec       q    Type
                         _______ _______ _______ _____ _____    ______ ____

>  <TORSDO>
F 9

$$$$
=
 OpenBabel10222420203D

 27 29  0  0  1  0  0  0  0  0999 V2000
  191.0170  176.8790  145.1290 C   0  0  0  0  0  0  0  0  0  0  0  0
  190.1130  177.9110  142.9960 C   0  0  2  0  0  3  0  0  0  0  0  0
  191.2140  176.4810  147.4650 N   0  0  0  0  0  0  0  0  0  0  0  0
  187.3290  177.8040  142.3470 C   0  0  0  0  0  3  0  0  0  0  0  0
  189.6880  177.2090  145.2960 C   0  0  0  0  0  0  0  0  0  0  0  0
  189.1010  177.1690  146.5630 C   0  0  0  0  0  3  0  0  0  0  0  0
  189.8980  176.7930  147.6520 C   0  0  0  0  0  3  0  0  0  0  0  0
  189.6220  177.6240  141.6410 N   0  0  0  0  0  0  0  0  0  0  0  0
  191.6140  176.9480  143.4440 S   0  0  0  0  0  0  0  0  0  0  0  0
  187.7550  177.6450  143.7500 C   0  0  0  0  0  0  0  0  0  0  0  0
  191.7910  176.5170  146.2310 C   0  0  0  0  0  3  0  0  0  0  0  0
  188.2240  177.7750  141.3560 C   0  0  0  0  0  3  0  0  0  0  0  0
  189.0700  177.6180  144.0400 C   0  0  0  0  0  0  0  0  0  0  0  0
  186.6970  177.4270  144.7850 C   0  0  0  0  0  2  0  0  0  0  0  0
  186.2970  178.7000  145.3650 N   0  0  0  0  0  2  0  0  0  0  0  0
  184.8620  178.8390  145.1720 C   0  0  0  0  0  2  0  0  0  0  0  0
  184.5870  179.7080  143.9570 C   0  0  0  0  0  2  0  0  0  0  0  0
  183.3910  179.1710  143.1830 C   0  0  1  0  0  3  0  0  0  0  0  0
  183.8350  178.1470  142.1400 C   0  0  0  0  0  2  0  0  0  0  0  0
  184.0000  178.7680  140.7600 C   0  0  0  0  0  1  0  0  0  0  0  0
  181.2110  178.9460  143.5140 C   0  0  0  0  0  1  0  0  0  0  0  0
  182.4530  178.6090  144.0560 O   0  0  0  0  0  0  0  0  0  0  0  0
  190.5510  177.5990  140.5180 C   0  0  0  0  0  2  0  0  0  0  0  0
  190.7020  174.7720  137.9540 N   0  0  0  0  0  1  0  0  0  0  0  0
  190.6410  176.0900  138.4830 C   0  0  0  0  0  0  0  0  0  0  0  0
  190.5560  176.2810  139.8960 N   0  0  0  0  0  2  0  0  0  0  0  0
  190.6520  177.0770  137.7010 O   0  0  0  0  0  0  0  0  0  0  0  0
  1  5  2  0  0  0  0
  1 11  1  0  0  0  0
  2  9  1  1  0  0  0
  2 13  1  0  0  0  0
  3  7  1  0  0  0  0
  4 10  1  0  0  0  0
  5  6  1  0  0  0  0
  6  7  2  0  0  0  0
  8  2  1  0  0  0  0
  9  1  1  0  0  0  0
 10 13  2  0  0  0  0
 10 14  1  0  0  0  0
 11  3  2  0  0  0  0
 12  8  1  0  0  0  0
 12  4  2  0  0  0  0
 13  5  1  0  0  0  0
 14 15  1  0  0  0  0
 16 15  1  0  0  0  0
 17 16  1  0  0  0  0
 18 19  1  6  0  0  0
 18 17  1  0  0  0  0
 18 22  1  0  0  0  0
 20 19  1  0  0  0  0
 21 22  1  0  0  0  0
 23  8  1  0  0  0  0
 24 25  1  0  0  0  0
 25 26  1  0  0  0  0
 26 23  1  0  0  0  0
 27 25  2  0  0  0  0
M  END
>  <MODEL>
3

>  <REMARK>
 VINA RESULT:      -7.4      3.342      6.300
  Name = 
  9 active torsions:
  status: ('A' for Active; 'I' for Inactive)
    1  A    between atoms: C_4  and  C_26
    2  A    between atoms: C_8  and  C_13
    3  A    between atoms: C_8  and  C_26
    4  A    between atoms: C_10  and  C_16
    5  A    between atoms: C_10  and  N_17
    6  A    between atoms: C_13  and  N_17
    7  A    between atoms: N_14  and  C_22
    8  A    between atoms: N_21  and  C_22
    9  A    between atoms: C_26  and  O_27
                            x       y       z     vdW  Elec       q    Type
                         _______ _______ _______ _____ _____    ______ ____

>  <TORSDO>
F 9

$$$$
=
 OpenBabel10222420203D

 27 29  0  0  1  0  0  0  0  0999 V2000
  190.7750  176.9620  144.9220 C   0  0  0  0  0  0  0  0  0  0  0  0
  189.6120  178.0020  142.9220 C   0  0  2  0  0  3  0  0  0  0  0  0
  191.3050  176.6020  147.2120 N   0  0  0  0  0  0  0  0  0  0  0  0
  186.7600  178.0470  142.7080 C   0  0  0  0  0  3  0  0  0  0  0  0
  189.5080  177.3740  145.2800 C   0  0  0  0  0  0  0  0  0  0  0  0
  189.1210  177.3950  146.6220 C   0  0  0  0  0  3  0  0  0  0  0  0
  190.0540  176.9940  147.5870 C   0  0  0  0  0  3  0  0  0  0  0  0
  188.9050  177.7170  141.6660 N   0  0  0  0  0  0  0  0  0  0  0  0
  191.1080  176.9600  143.1650 S   0  0  0  0  0  0  0  0  0  0  0  0
  187.3870  177.8920  144.0340 C   0  0  0  0  0  0  0  0  0  0  0  0
  191.6880  176.5770  145.9040 C   0  0  0  0  0  3  0  0  0  0  0  0
  187.4890  177.9450  141.5930 C   0  0  0  0  0  3  0  0  0  0  0  0
  188.7270  177.7930  144.1210 C   0  0  0  0  0  0  0  0  0  0  0  0
  186.4900  177.7590  145.2230 C   0  0  0  0  0  2  0  0  0  0  0  0
  185.7190  178.9800  145.4060 N   0  0  0  0  0  2  0  0  0  0  0  0
  184.3130  178.6110  145.4320 C   0  0  0  0  0  2  0  0  0  0  0  0
  183.5360  179.4760  144.4550 C   0  0  0  0  0  2  0  0  0  0  0  0
  182.8180  178.6060  143.4340 C   0  0  1  0  0  3  0  0  0  0  0  0
  181.4200  179.1490  143.1440 C   0  0  0  0  0  2  0  0  0  0  0  0
  180.3700  178.5550  144.0720 C   0  0  0  0  0  1  0  0  0  0  0  0
  182.6260  178.6260  141.2250 C   0  0  0  0  0  1  0  0  0  0  0  0
  183.5640  178.5160  142.2540 O   0  0  0  0  0  0  0  0  0  0  0  0
  189.6470  177.6130  140.4170 C   0  0  0  0  0  2  0  0  0  0  0  0
  187.6490  177.7520  137.1650 N   0  0  0  0  0  1  0  0  0  0  0  0
  188.4920  178.1700  138.2300 C   0  0  0  0  0  0  0  0  0  0  0  0
  188.7470  177.2820  139.3200 N   0  0  0  0  0  2  0  0  0  0  0  0
  188.9980  179.3230  138.2100 O   0  0  0  0  0  0  0  0  0  0  0  0
  1  5  2  0  0  0  0
  1 11  1  0  0  0  0
  2  9  1  1  0  0  0
  2 13  1  0  0  0  0
  3  7  1  0  0  0  0
  4 10  1  0  0  0  0
  5  6  1  0  0  0  0
  6  7  2  0  0  0  0
  8  2  1  0  0  0  0
  9  1  1  0  0  0  0
 10 13  2  0  0  0  0
 10 14  1  0  0  0  0
 11  3  2  0  0  0  0
 12  8  1  0  0  0  0
 12  4  2  0  0  0  0
 13  5  1  0  0  0  0
 14 15  1  0  0  0  0
 15 16  1  0  0  0  0
 17 16  1  0  0  0  0
 18 19  1  6  0  0  0
 18 17  1  0  0  0  0
 19 20  1  0  0  0  0
 21 22  1  0  0  0  0
 22 18  1  0  0  0  0
 23  8  1  0  0  0  0
 24 25  1  0  0  0  0
 25 26  1  0  0  0  0
 26 23  1  0  0  0  0
 27 25  2  0  0  0  0
M  END
>  <MODEL>
4

>  <REMARK>
 VINA RESULT:      -7.3      2.957      6.158
  Name = 
  9 active torsions:
  status: ('A' for Active; 'I' for Inactive)
    1  A    between atoms: C_4  and  C_26
    2  A    between atoms: C_8  and  C_13
    3  A    between atoms: C_8  and  C_26
    4  A    between atoms: C_10  and  C_16
    5  A    between atoms: C_10  and  N_17
    6  A    between atoms: C_13  and  N_17
    7  A    between atoms: N_14  and  C_22
    8  A    between atoms: N_21  and  C_22
    9  A    between atoms: C_26  and  O_27
                            x       y       z     vdW  Elec       q    Type
                         _______ _______ _______ _____ _____    ______ ____

>  <TORSDO>
F 9

$$$$
=
 OpenBabel10222420203D

 27 29  0  0  1  0  0  0  0  0999 V2000
  187.2670  178.1600  147.1830 C   0  0  0  0  0  0  0  0  0  0  0  0
  185.5960  177.8250  145.3040 C   0  0  2  0  0  3  0  0  0  0  0  0
  189.2140  177.7610  148.4890 N   0  0  0  0  0  0  0  0  0  0  0  0
  186.4050  177.8620  142.5610 C   0  0  0  0  0  3  0  0  0  0  0  0
  187.9090  177.6600  146.0710 C   0  0  0  0  0  0  0  0  0  0  0  0
  189.2290  177.2080  146.1560 C   0  0  0  0  0  3  0  0  0  0  0  0
  189.8720  177.2730  147.3980 C   0  0  0  0  0  3  0  0  0  0  0  0
  184.8210  178.5020  144.2560 N   0  0  0  0  0  0  0  0  0  0  0  0
  185.5930  178.7270  146.9070 S   0  0  0  0  0  0  0  0  0  0  0  0
  187.4030  177.5790  143.6100 C   0  0  0  0  0  0  0  0  0  0  0  0
  187.9270  178.2040  148.4110 C   0  0  0  0  0  3  0  0  0  0  0  0
  185.1900  178.3150  142.8810 C   0  0  0  0  0  3  0  0  0  0  0  0
  187.0350  177.6390  144.9040 C   0  0  0  0  0  0  0  0  0  0  0  0
  188.8150  177.3240  143.1850 C   0  0  0  0  0  2  0  0  0  0  0  0
  189.1740  178.2120  142.0900 N   0  0  0  0  0  2  0  0  0  0  0  0
  189.7700  177.3980  141.0430 C   0  0  0  0  0  2  0  0  0  0  0  0
  189.0830  177.6790  139.7180 C   0  0  0  0  0  2  0  0  0  0  0  0
  189.5450  176.6850  138.6620 C   0  0  1  0  0  3  0  0  0  0  0  0
  189.9150  177.4030  137.3650 C   0  0  0  0  0  2  0  0  0  0  0  0
  189.0980  178.6700  137.1580 C   0  0  0  0  0  1  0  0  0  0  0  0
  191.3270  175.5520  137.9870 C   0  0  0  0  0  1  0  0  0  0  0  0
  190.6270  175.9330  139.1330 O   0  0  0  0  0  0  0  0  0  0  0  0
  183.4830  179.0010  144.5440 C   0  0  0  0  0  2  0  0  0  0  0  0
  180.6500  179.2690  141.9960 N   0  0  0  0  0  1  0  0  0  0  0  0
  181.3180  179.0130  143.2250 C   0  0  0  0  0  0  0  0  0  0  0  0
  182.7330  179.1830  143.3070 N   0  0  0  0  0  2  0  0  0  0  0  0
  180.6580  178.6280  144.2250 O   0  0  0  0  0  0  0  0  0  0  0  0
  1 11  1  0  0  0  0
  2 13  1  6  0  0  0
  2  9  1  0  0  0  0
  4 12  2  0  0  0  0
  4 10  1  0  0  0  0
  5  6  1  0  0  0  0
  5  1  2  0  0  0  0
  6  7  2  0  0  0  0
  7  3  1  0  0  0  0
  8 23  1  0  0  0  0
  8  2  1  0  0  0  0
  9  1  1  0  0  0  0
 10 13  2  0  0  0  0
 11  3  2  0  0  0  0
 12  8  1  0  0  0  0
 13  5  1  0  0  0  0
 14 10  1  0  0  0  0
 15 14  1  0  0  0  0
 16 15  1  0  0  0  0
 17 16  1  0  0  0  0
 18 19  1  6  0  0  0
 18 22  1  0  0  0  0
 18 17  1  0  0  0  0
 20 19  1  0  0  0  0
 21 22  1  0  0  0  0
 24 25  1  0  0  0  0
 25 26  1  0  0  0  0
 25 27  2  0  0  0  0
 26 23  1  0  0  0  0
M  END
>  <MODEL>
5

>  <REMARK>
 VINA RESULT:      -7.2      3.328      5.803
  Name = 
  9 active torsions:
  status: ('A' for Active; 'I' for Inactive)
    1  A    between atoms: C_4  and  C_26
    2  A    between atoms: C_8  and  C_13
    3  A    between atoms: C_8  and  C_26
    4  A    between atoms: C_10  and  C_16
    5  A    between atoms: C_10  and  N_17
    6  A    between atoms: C_13  and  N_17
    7  A    between atoms: N_14  and  C_22
    8  A    between atoms: N_21  and  C_22
    9  A    between atoms: C_26  and  O_27
                            x       y       z     vdW  Elec       q    Type
                         _______ _______ _______ _____ _____    ______ ____

>  <TORSDO>
F 9

$$$$
=
 OpenBabel10222420203D

 27 29  0  0  1  0  0  0  0  0999 V2000
  187.2190  178.1660  147.1680 C   0  0  0  0  0  0  0  0  0  0  0  0
  185.6240  177.8470  145.2220 C   0  0  2  0  0  3  0  0  0  0  0  0
  189.1570  177.8150  148.5010 N   0  0  0  0  0  0  0  0  0  0  0  0
  186.4970  178.1340  142.5130 C   0  0  0  0  0  3  0  0  0  0  0  0
  187.9240  177.7920  146.0430 C   0  0  0  0  0  0  0  0  0  0  0  0
  189.2700  177.4300  146.1370 C   0  0  0  0  0  3  0  0  0  0  0  0
  189.8760  177.4520  147.3990 C   0  0  0  0  0  3  0  0  0  0  0  0
  184.8290  178.5400  144.2000 N   0  0  0  0  0  0  0  0  0  0  0  0
  185.5160  178.6320  146.8820 S   0  0  0  0  0  0  0  0  0  0  0  0
  187.4860  177.8480  143.5690 C   0  0  0  0  0  0  0  0  0  0  0  0
  187.8440  178.1710  148.4150 C   0  0  0  0  0  3  0  0  0  0  0  0
  185.2440  178.4760  142.8270 C   0  0  0  0  0  3  0  0  0  0  0  0
  187.0820  177.7920  144.8520 C   0  0  0  0  0  0  0  0  0  0  0  0
  188.9220  177.7240  143.1700 C   0  0  0  0  0  2  0  0  0  0  0  0
  189.0760  176.6700  142.1790 N   0  0  0  0  0  2  0  0  0  0  0  0
  189.8540  177.2140  141.0770 C   0  0  0  0  0  2  0  0  0  0  0  0
  189.0200  177.2150  139.8080 C   0  0  0  0  0  2  0  0  0  0  0  0
  189.7110  178.0280  138.7220 C   0  0  1  0  0  3  0  0  0  0  0  0
  190.0570  177.1470  137.5230 C   0  0  0  0  0  2  0  0  0  0  0  0
  191.3610  176.3890  137.7250 C   0  0  0  0  0  1  0  0  0  0  0  0
  188.6300  178.8680  136.9790 C   0  0  0  0  0  1  0  0  0  0  0  0
  188.9080  179.1030  138.3270 O   0  0  0  0  0  0  0  0  0  0  0  0
  183.4510  178.9220  144.4810 C   0  0  0  0  0  2  0  0  0  0  0  0
  180.6120  179.1710  141.9390 N   0  0  0  0  0  1  0  0  0  0  0  0
  181.2770  178.9640  143.1780 C   0  0  0  0  0  0  0  0  0  0  0  0
  182.7000  179.0600  143.2400 N   0  0  0  0  0  2  0  0  0  0  0  0
  180.6070  178.6870  144.2080 O   0  0  0  0  0  0  0  0  0  0  0  0
  1 11  1  0  0  0  0
  2 13  1  6  0  0  0
  2  9  1  0  0  0  0
  4 12  2  0  0  0  0
  4 10  1  0  0  0  0
  5  6  1  0  0  0  0
  5  1  2  0  0  0  0
  6  7  2  0  0  0  0
  7  3  1  0  0  0  0
  8 23  1  0  0  0  0
  8  2  1  0  0  0  0
  9  1  1  0  0  0  0
 10 13  2  0  0  0  0
 11  3  2  0  0  0  0
 12  8  1  0  0  0  0
 13  5  1  0  0  0  0
 14 10  1  0  0  0  0
 15 14  1  0  0  0  0
 16 15  1  0  0  0  0
 17 16  1  0  0  0  0
 18 19  1  6  0  0  0
 18 17  1  0  0  0  0
 19 20  1  0  0  0  0
 21 22  1  0  0  0  0
 22 18  1  0  0  0  0
 24 25  1  0  0  0  0
 25 26  1  0  0  0  0
 25 27  2  0  0  0  0
 26 23  1  0  0  0  0
M  END
>  <MODEL>
6

>  <REMARK>
 VINA RESULT:      -7.2      3.309      5.971
  Name = 
  9 active torsions:
  status: ('A' for Active; 'I' for Inactive)
    1  A    between atoms: C_4  and  C_26
    2  A    between atoms: C_8  and  C_13
    3  A    between atoms: C_8  and  C_26
    4  A    between atoms: C_10  and  C_16
    5  A    between atoms: C_10  and  N_17
    6  A    between atoms: C_13  and  N_17
    7  A    between atoms: N_14  and  C_22
    8  A    between atoms: N_21  and  C_22
    9  A    between atoms: C_26  and  O_27
                            x       y       z     vdW  Elec       q    Type
                         _______ _______ _______ _____ _____    ______ ____

>  <TORSDO>
F 9

$$$$
=
 OpenBabel10222420203D

 27 29  0  0  1  0  0  0  0  0999 V2000
  186.3980  178.4200  140.9430 C   0  0  0  0  0  0  0  0  0  0  0  0
  184.8450  179.2510  142.7680 C   0  0  2  0  0  3  0  0  0  0  0  0
  188.4620  177.9440  139.8640 N   0  0  0  0  0  0  0  0  0  0  0  0
  185.0510  178.2960  145.4560 C   0  0  0  0  0  3  0  0  0  0  0  0
  187.0100  178.2900  142.1720 C   0  0  0  0  0  0  0  0  0  0  0  0
  188.3670  177.9730  142.2590 C   0  0  0  0  0  3  0  0  0  0  0  0
  189.0850  177.7990  141.0690 C   0  0  0  0  0  3  0  0  0  0  0  0
  183.6700  178.9180  143.5850 N   0  0  0  0  0  0  0  0  0  0  0  0
  184.6500  178.7960  140.9960 S   0  0  0  0  0  0  0  0  0  0  0  0
  186.2130  178.1850  144.5540 C   0  0  0  0  0  0  0  0  0  0  0  0
  187.1380  178.2510  139.7730 C   0  0  0  0  0  3  0  0  0  0  0  0
  183.8480  178.6280  144.9800 C   0  0  0  0  0  3  0  0  0  0  0  0
  186.0870  178.5640  143.2680 C   0  0  0  0  0  0  0  0  0  0  0  0
  187.4630  177.5650  145.0920 C   0  0  0  0  0  2  0  0  0  0  0  0
  187.4060  177.5080  146.5450 N   0  0  0  0  0  2  0  0  0  0  0  0
  188.6780  176.9810  147.0130 C   0  0  0  0  0  2  0  0  0  0  0  0
  189.8210  177.7230  146.3450 C   0  0  0  0  0  2  0  0  0  0  0  0
  190.9200  176.7500  145.9410 C   0  0  1  0  0  3  0  0  0  0  0  0
  191.3300  176.9680  144.4850 C   0  0  0  0  0  2  0  0  0  0  0  0
  191.3170  178.4400  144.1000 C   0  0  0  0  0  1  0  0  0  0  0  0
  192.1710  175.6240  147.3830 C   0  0  0  0  0  1  0  0  0  0  0  0
  192.0260  176.8780  146.7870 O   0  0  0  0  0  0  0  0  0  0  0  0
  182.3350  179.2730  143.1230 C   0  0  0  0  0  2  0  0  0  0  0  0
  179.0080  178.2790  144.7150 N   0  0  0  0  0  1  0  0  0  0  0  0
  179.9440  178.9930  143.9170 C   0  0  0  0  0  0  0  0  0  0  0  0
  181.3250  178.6320  143.9560 N   0  0  0  0  0  2  0  0  0  0  0  0
  179.5480  179.9430  143.1920 O   0  0  0  0  0  0  0  0  0  0  0  0
  1  9  1  0  0  0  0
  1  5  1  0  0  0  0
  2  9  1  6  0  0  0
  2 13  1  0  0  0  0
  2  8  1  0  0  0  0
  3  7  2  0  0  0  0
  5  6  2  0  0  0  0
  5 13  1  0  0  0  0
  7  6  1  0  0  0  0
  8 12  1  0  0  0  0
 10 14  1  0  0  0  0
 10  4  1  0  0  0  0
 11  3  1  0  0  0  0
 11  1  2  0  0  0  0
 12  4  2  0  0  0  0
 13 10  2  0  0  0  0
 14 15  1  0  0  0  0
 15 16  1  0  0  0  0
 17 16  1  0  0  0  0
 18 19  1  6  0  0  0
 18 17  1  0  0  0  0
 18 22  1  0  0  0  0
 20 19  1  0  0  0  0
 22 21  1  0  0  0  0
 23  8  1  0  0  0  0
 23 26  1  0  0  0  0
 25 26  1  0  0  0  0
 25 24  1  0  0  0  0
 27 25  2  0  0  0  0
M  END
>  <MODEL>
7

>  <REMARK>
 VINA RESULT:      -7.1      2.630      5.010
  Name = 
  9 active torsions:
  status: ('A' for Active; 'I' for Inactive)
    1  A    between atoms: C_4  and  C_26
    2  A    between atoms: C_8  and  C_13
    3  A    between atoms: C_8  and  C_26
    4  A    between atoms: C_10  and  C_16
    5  A    between atoms: C_10  and  N_17
    6  A    between atoms: C_13  and  N_17
    7  A    between atoms: N_14  and  C_22
    8  A    between atoms: N_21  and  C_22
    9  A    between atoms: C_26  and  O_27
                            x       y       z     vdW  Elec       q    Type
                         _______ _______ _______ _____ _____    ______ ____

>  <TORSDO>
F 9

$$$$
=
 OpenBabel10222420203D

 27 29  0  0  1  0  0  0  0  0999 V2000
  186.9040  178.2040  146.6840 C   0  0  0  0  0  0  0  0  0  0  0  0
  185.0900  178.1190  144.9130 C   0  0  2  0  0  3  0  0  0  0  0  0
  188.8950  177.5750  147.8210 N   0  0  0  0  0  0  0  0  0  0  0  0
  185.7150  178.2670  142.1260 C   0  0  0  0  0  3  0  0  0  0  0  0
  187.4290  177.7270  145.5010 C   0  0  0  0  0  0  0  0  0  0  0  0
  188.7100  177.1710  145.4650 C   0  0  0  0  0  3  0  0  0  0  0  0
  189.4380  177.1070  146.6600 C   0  0  0  0  0  3  0  0  0  0  0  0
  184.3050  178.9190  143.9640 N   0  0  0  0  0  0  0  0  0  0  0  0
  185.2680  178.9150  146.5610 S   0  0  0  0  0  0  0  0  0  0  0  0
  186.7540  177.8420  143.0820 C   0  0  0  0  0  0  0  0  0  0  0  0
  187.6470  178.1200  147.8610 C   0  0  0  0  0  3  0  0  0  0  0  0
  184.5640  178.7910  142.5580 C   0  0  0  0  0  3  0  0  0  0  0  0
  186.4790  177.8490  144.4000 C   0  0  0  0  0  0  0  0  0  0  0  0
  188.1090  177.5070  142.5430 C   0  0  0  0  0  2  0  0  0  0  0  0
  188.5480  178.5410  141.6180 N   0  0  0  0  0  2  0  0  0  0  0  0
  188.9730  177.8820  140.3940 C   0  0  0  0  0  2  0  0  0  0  0  0
  190.0640  176.8720  140.7030 C   0  0  0  0  0  2  0  0  0  0  0  0
  191.3300  177.5830  141.1560 C   0  0  1  0  0  3  0  0  0  0  0  0
  191.7530  177.1070  142.5450 C   0  0  0  0  0  2  0  0  0  0  0  0
  191.6800  178.2190  143.5800 C   0  0  0  0  0  1  0  0  0  0  0  0
  191.7610  176.7390  139.1530 C   0  0  0  0  0  1  0  0  0  0  0  0
  192.3630  177.3860  140.2330 O   0  0  0  0  0  0  0  0  0  0  0  0
  183.0330  179.4990  144.3750 C   0  0  0  0  0  2  0  0  0  0  0  0
  179.8080  178.0330  142.9500 N   0  0  0  0  0  1  0  0  0  0  0  0
  180.8090  178.9900  143.2720 C   0  0  0  0  0  0  0  0  0  0  0  0
  181.9360  178.5950  144.0540 N   0  0  0  0  0  2  0  0  0  0  0  0
  180.6870  180.1780  142.8750 O   0  0  0  0  0  0  0  0  0  0  0  0
  1 11  1  0  0  0  0
  2 13  1  6  0  0  0
  2  9  1  0  0  0  0
  3 11  2  0  0  0  0
  4 12  2  0  0  0  0
  4 10  1  0  0  0  0
  5  1  2  0  0  0  0
  6  5  1  0  0  0  0
  6  7  2  0  0  0  0
  7  3  1  0  0  0  0
  8 23  1  0  0  0  0
  8  2  1  0  0  0  0
  9  1  1  0  0  0  0
 10 13  2  0  0  0  0
 12  8  1  0  0  0  0
 13  5  1  0  0  0  0
 14 10  1  0  0  0  0
 15 14  1  0  0  0  0
 16 17  1  0  0  0  0
 16 15  1  0  0  0  0
 18 17  1  6  0  0  0
 18 19  1  0  0  0  0
 19 20  1  0  0  0  0
 21 22  1  0  0  0  0
 22 18  1  0  0  0  0
 24 25  1  0  0  0  0
 25 26  1  0  0  0  0
 26 23  1  0  0  0  0
 27 25  2  0  0  0  0
M  END
>  <MODEL>
8

>  <REMARK>
 VINA RESULT:      -7.1      3.115      5.004
  Name = 
  9 active torsions:
  status: ('A' for Active; 'I' for Inactive)
    1  A    between atoms: C_4  and  C_26
    2  A    between atoms: C_8  and  C_13
    3  A    between atoms: C_8  and  C_26
    4  A    between atoms: C_10  and  C_16
    5  A    between atoms: C_10  and  N_17
    6  A    between atoms: C_13  and  N_17
    7  A    between atoms: N_14  and  C_22
    8  A    between atoms: N_21  and  C_22
    9  A    between atoms: C_26  and  O_27
                            x       y       z     vdW  Elec       q    Type
                         _______ _______ _______ _____ _____    ______ ____

>  <TORSDO>
F 9

$$$$
=
 OpenBabel10222420203D

 27 29  0  0  1  0  0  0  0  0999 V2000
  188.9910  177.3440  146.5080 C   0  0  0  0  0  0  0  0  0  0  0  0
  187.2500  177.2800  144.6640 C   0  0  2  0  0  3  0  0  0  0  0  0
  191.0260  176.8340  147.6260 N   0  0  0  0  0  0  0  0  0  0  0  0
  187.9090  177.9510  141.9630 C   0  0  0  0  0  3  0  0  0  0  0  0
  189.6060  177.1380  145.2910 C   0  0  0  0  0  0  0  0  0  0  0  0
  190.9560  176.7830  145.2300 C   0  0  0  0  0  3  0  0  0  0  0  0
  191.6580  176.6360  146.4330 C   0  0  0  0  0  3  0  0  0  0  0  0
  186.3760  178.0990  143.8130 N   0  0  0  0  0  0  0  0  0  0  0  0
  187.2700  177.8250  146.4210 S   0  0  0  0  0  0  0  0  0  0  0  0
  188.9780  177.5340  142.8900 C   0  0  0  0  0  0  0  0  0  0  0  0
  189.7100  177.1830  147.6920 C   0  0  0  0  0  3  0  0  0  0  0  0
  186.6840  178.2320  142.4170 C   0  0  0  0  0  3  0  0  0  0  0  0
  188.6750  177.2940  144.1800 C   0  0  0  0  0  0  0  0  0  0  0  0
  190.3790  177.4830  142.3680 C   0  0  0  0  0  2  0  0  0  0  0  0
  190.4890  176.4700  141.3300 N   0  0  0  0  0  2  0  0  0  0  0  0
  190.9890  177.1230  140.1310 C   0  0  0  0  0  2  0  0  0  0  0  0
  190.5800  176.3290  138.9030 C   0  0  0  0  0  2  0  0  0  0  0  0
  189.2590  176.8480  138.3530 C   0  0  1  0  0  3  0  0  0  0  0  0
  189.1710  178.3660  138.4940 C   0  0  0  0  0  2  0  0  0  0  0  0
  188.6740  179.0330  137.2190 C   0  0  0  0  0  1  0  0  0  0  0  0
  190.1780  175.6230  136.7510 C   0  0  0  0  0  1  0  0  0  0  0  0
  189.1000  176.4690  137.0160 O   0  0  0  0  0  0  0  0  0  0  0  0
  185.0240  178.4210  144.2500 C   0  0  0  0  0  2  0  0  0  0  0  0
  181.9500  178.9770  142.0520 N   0  0  0  0  0  1  0  0  0  0  0  0
  182.7350  178.7780  143.2210 C   0  0  0  0  0  0  0  0  0  0  0  0
  184.1430  178.5720  143.0990 N   0  0  0  0  0  2  0  0  0  0  0  0
  182.1810  178.7740  144.3510 O   0  0  0  0  0  0  0  0  0  0  0  0
  1 11  1  0  0  0  0
  2 13  1  6  0  0  0
  2  9  1  0  0  0  0
  3 11  2  0  0  0  0
  4 12  2  0  0  0  0
  4 10  1  0  0  0  0
  5  1  2  0  0  0  0
  6  5  1  0  0  0  0
  6  7  2  0  0  0  0
  7  3  1  0  0  0  0
  8 23  1  0  0  0  0
  8  2  1  0  0  0  0
  9  1  1  0  0  0  0
 10 13  2  0  0  0  0
 12  8  1  0  0  0  0
 13  5  1  0  0  0  0
 14 10  1  0  0  0  0
 15 14  1  0  0  0  0
 16 15  1  0  0  0  0
 17 16  1  0  0  0  0
 18 19  1  6  0  0  0
 18 17  1  0  0  0  0
 20 19  1  0  0  0  0
 21 22  1  0  0  0  0
 22 18  1  0  0  0  0
 24 25  1  0  0  0  0
 25 27  2  0  0  0  0
 26 25  1  0  0  0  0
 26 23  1  0  0  0  0
M  END
>  <MODEL>
9

>  <REMARK>
 VINA RESULT:      -7.0      3.320      6.124
  Name = 
  9 active torsions:
  status: ('A' for Active; 'I' for Inactive)
    1  A    between atoms: C_4  and  C_26
    2  A    between atoms: C_8  and  C_13
    3  A    between atoms: C_8  and  C_26
    4  A    between atoms: C_10  and  C_16
    5  A    between atoms: C_10  and  N_17
    6  A    between atoms: C_13  and  N_17
    7  A    between atoms: N_14  and  C_22
    8  A    between atoms: N_21  and  C_22
    9  A    between atoms: C_26  and  O_27
                            x       y       z     vdW  Elec       q    Type
                         _______ _______ _______ _____ _____    ______ ____

>  <TORSDO>
F 9

$$$$
