=
 OpenBabel10222418073D

 25 27  0  0  0  0  0  0  0  0999 V2000
  190.8580  176.4480  147.3260 C   0  0  0  0  0  3  0  0  0  0  0  0
  189.5910  176.9430  147.0250 C   0  0  0  0  0  0  0  0  0  0  0  0
  189.4290  177.7690  145.9000 C   0  0  0  0  0  0  0  0  0  0  0  0
  191.7710  177.5620  145.4740 N   0  0  0  0  0  0  0  0  0  0  0  0
  190.5620  178.0730  145.1210 C   0  0  0  0  0  0  0  0  0  0  0  0
  191.9150  176.7710  146.5390 N   0  0  0  0  0  0  0  0  0  0  0  0
  188.4420  176.5830  147.9100 C   0  0  0  0  0  2  0  0  0  0  0  0
  188.2070  177.6100  148.8240 O   0  0  0  0  0  1  0  0  0  0  0  0
  188.0720  178.3160  145.5440 C   0  0  0  0  0  2  0  0  0  0  0  0
  187.2730  177.3370  144.6870 C   0  0  0  0  0  2  0  0  0  0  0  0
  185.4830  177.9120  143.0310 C   0  0  0  0  0  3  0  0  0  0  0  0
  183.3970  178.9170  143.7470 C   0  0  0  0  0  0  0  0  0  0  0  0
  184.2200  178.4300  142.7250 C   0  0  0  0  0  3  0  0  0  0  0  0
  185.9200  177.8720  144.3600 C   0  0  0  0  0  0  0  0  0  0  0  0
  185.0930  178.3530  145.3820 C   0  0  0  0  0  3  0  0  0  0  0  0
  183.8320  178.8720  145.0760 C   0  0  0  0  0  3  0  0  0  0  0  0
  181.5370  178.7910  142.3050 O   0  0  0  0  0  1  0  0  0  0  0  0
  182.0460  179.4480  143.4240 C   0  0  0  0  0  2  0  0  0  0  0  0
  190.4800  178.9790  143.9320 C   0  0  0  0  0  2  0  0  0  0  0  0
  190.0790  176.7470  140.3200 C   0  0  0  0  0  3  0  0  0  0  0  0
  191.4180  177.5160  142.1250 C   0  0  0  0  0  3  0  0  0  0  0  0
  188.9630  177.4110  140.8370 C   0  0  0  0  0  3  0  0  0  0  0  0
  189.0910  178.1370  142.0220 C   0  0  0  0  0  3  0  0  0  0  0  0
  191.2730  176.8130  140.9690 N   0  0  0  0  0  0  0  0  0  0  0  0
  190.3240  178.1890  142.6770 C   0  0  0  0  0  0  0  0  0  0  0  0
  2  1  1  0  0  0  0
  2  7  1  0  0  0  0
  3  2  2  0  0  0  0
  4  6  1  0  0  0  0
  5  4  2  0  0  0  0
  5  3  1  0  0  0  0
  6  1  2  0  0  0  0
  7  8  1  0  0  0  0
  9  3  1  0  0  0  0
 10  9  1  0  0  0  0
 11 14  1  0  0  0  0
 12 16  2  0  0  0  0
 13 11  2  0  0  0  0
 13 12  1  0  0  0  0
 14 10  1  0  0  0  0
 14 15  2  0  0  0  0
 16 15  1  0  0  0  0
 17 18  1  0  0  0  0
 18 12  1  0  0  0  0
 19  5  1  0  0  0  0
 20 22  2  0  0  0  0
 20 24  1  0  0  0  0
 21 25  1  0  0  0  0
 22 23  1  0  0  0  0
 23 25  2  0  0  0  0
 24 21  2  0  0  0  0
 25 19  1  0  0  0  0
M  END
>  <MODEL>
1

>  <REMARK>
 VINA RESULT:      -8.3      0.000      0.000
  Name = 
  7 active torsions:
  status: ('A' for Active; 'I' for Inactive)
    1  A    between atoms: C_6  and  C_22
    2  A    between atoms: C_8  and  C_18
    3  A    between atoms: C_9  and  C_13
    4  A    between atoms: C_9  and  C_17
    5  A    between atoms: C_11  and  C_16
    6  A    between atoms: C_11  and  C_21
    7  A    between atoms: C_15  and  C_17
                            x       y       z     vdW  Elec       q    Type
                         _______ _______ _______ _____ _____    ______ ____

>  <TORSDO>
F 7

$$$$
=
 OpenBabel10222418073D

 25 27  0  0  0  0  0  0  0  0999 V2000
  191.3210  177.6440  145.3640 C   0  0  0  0  0  3  0  0  0  0  0  0
  189.9880  177.3020  145.5840 C   0  0  0  0  0  0  0  0  0  0  0  0
  189.0560  177.4840  144.5490 C   0  0  0  0  0  0  0  0  0  0  0  0
  190.8180  178.3350  143.1790 N   0  0  0  0  0  0  0  0  0  0  0  0
  189.5050  178.0160  143.3260 C   0  0  0  0  0  0  0  0  0  0  0  0
  191.6990  178.1510  144.1640 N   0  0  0  0  0  0  0  0  0  0  0  0
  189.5910  176.7540  146.9160 C   0  0  0  0  0  2  0  0  0  0  0  0
  189.4410  177.7960  147.8320 O   0  0  0  0  0  1  0  0  0  0  0  0
  187.6090  177.1190  144.7530 C   0  0  0  0  0  2  0  0  0  0  0  0
  186.8430  178.2230  145.4760 C   0  0  0  0  0  2  0  0  0  0  0  0
  184.4100  178.7950  145.6640 C   0  0  0  0  0  3  0  0  0  0  0  0
  182.9840  178.8450  143.7060 C   0  0  0  0  0  0  0  0  0  0  0  0
  183.1520  178.9950  145.0870 C   0  0  0  0  0  3  0  0  0  0  0  0
  185.5030  178.4540  144.8600 C   0  0  0  0  0  0  0  0  0  0  0  0
  185.3360  178.3110  143.4780 C   0  0  0  0  0  3  0  0  0  0  0  0
  184.0780  178.5090  142.9020 C   0  0  0  0  0  3  0  0  0  0  0  0
  180.6480  178.6560  143.9630 O   0  0  0  0  0  1  0  0  0  0  0  0
  181.6500  179.0770  143.0900 C   0  0  0  0  0  2  0  0  0  0  0  0
  188.5670  178.2790  142.1900 C   0  0  0  0  0  2  0  0  0  0  0  0
  190.3010  176.9530  138.5260 C   0  0  0  0  0  3  0  0  0  0  0  0
  190.0500  176.7410  140.8790 C   0  0  0  0  0  3  0  0  0  0  0  0
  189.4150  178.0330  138.5080 C   0  0  0  0  0  3  0  0  0  0  0  0
  188.8410  178.4650  139.7050 C   0  0  0  0  0  3  0  0  0  0  0  0
  190.5980  176.3340  139.7010 N   0  0  0  0  0  0  0  0  0  0  0  0
  189.1550  177.8140  140.9010 C   0  0  0  0  0  0  0  0  0  0  0  0
  1  2  1  0  0  0  0
  2  7  1  0  0  0  0
  3  9  1  0  0  0  0
  3  2  2  0  0  0  0
  4  5  2  0  0  0  0
  4  6  1  0  0  0  0
  5  3  1  0  0  0  0
  6  1  2  0  0  0  0
  7  8  1  0  0  0  0
  9 10  1  0  0  0  0
 12 13  2  0  0  0  0
 13 11  1  0  0  0  0
 14 10  1  0  0  0  0
 14 11  2  0  0  0  0
 15 14  1  0  0  0  0
 16 15  2  0  0  0  0
 16 12  1  0  0  0  0
 18 12  1  0  0  0  0
 18 17  1  0  0  0  0
 19  5  1  0  0  0  0
 20 24  1  0  0  0  0
 21 25  1  0  0  0  0
 22 20  2  0  0  0  0
 22 23  1  0  0  0  0
 23 25  2  0  0  0  0
 24 21  2  0  0  0  0
 25 19  1  0  0  0  0
M  END
>  <MODEL>
2

>  <REMARK>
 VINA RESULT:      -8.1      1.235      1.998
  Name = 
  7 active torsions:
  status: ('A' for Active; 'I' for Inactive)
    1  A    between atoms: C_6  and  C_22
    2  A    between atoms: C_8  and  C_18
    3  A    between atoms: C_9  and  C_13
    4  A    between atoms: C_9  and  C_17
    5  A    between atoms: C_11  and  C_16
    6  A    between atoms: C_11  and  C_21
    7  A    between atoms: C_15  and  C_17
                            x       y       z     vdW  Elec       q    Type
                         _______ _______ _______ _____ _____    ______ ____

>  <TORSDO>
F 7

$$$$
=
 OpenBabel10222418073D

 25 27  0  0  0  0  0  0  0  0999 V2000
  184.8360  179.0830  141.8680 C   0  0  0  0  0  3  0  0  0  0  0  0
  185.6400  178.4270  142.7980 C   0  0  0  0  0  0  0  0  0  0  0  0
  186.9240  178.0040  142.4130 C   0  0  0  0  0  0  0  0  0  0  0  0
  186.5100  178.8940  140.2350 N   0  0  0  0  0  0  0  0  0  0  0  0
  187.3470  178.2540  141.0940 C   0  0  0  0  0  0  0  0  0  0  0  0
  185.2960  179.3000  140.6100 N   0  0  0  0  0  0  0  0  0  0  0  0
  185.1120  178.1890  144.1750 C   0  0  0  0  0  2  0  0  0  0  0  0
  184.9050  179.4080  144.8210 O   0  0  0  0  0  1  0  0  0  0  0  0
  187.8200  177.2970  143.3950 C   0  0  0  0  0  2  0  0  0  0  0  0
  188.5600  178.2800  144.2970 C   0  0  0  0  0  2  0  0  0  0  0  0
  189.3250  177.4440  146.5320 C   0  0  0  0  0  3  0  0  0  0  0  0
  191.4590  176.3220  146.7820 C   0  0  0  0  0  0  0  0  0  0  0  0
  190.2720  176.8080  147.3420 C   0  0  0  0  0  3  0  0  0  0  0  0
  189.5600  177.5870  145.1600 C   0  0  0  0  0  0  0  0  0  0  0  0
  190.7450  177.0950  144.6000 C   0  0  0  0  0  3  0  0  0  0  0  0
  191.6910  176.4610  145.4100 C   0  0  0  0  0  3  0  0  0  0  0  0
  192.9010  176.4930  148.6390 O   0  0  0  0  0  1  0  0  0  0  0  0
  192.4560  175.6280  147.6400 C   0  0  0  0  0  2  0  0  0  0  0  0
  188.6820  177.7980  140.5960 C   0  0  0  0  0  2  0  0  0  0  0  0
  188.7870  177.6700  136.3340 C   0  0  0  0  0  3  0  0  0  0  0  0
  188.3420  176.6110  138.4140 C   0  0  0  0  0  3  0  0  0  0  0  0
  189.1660  178.8440  136.9890 C   0  0  0  0  0  3  0  0  0  0  0  0
  189.1270  178.8910  138.3830 C   0  0  0  0  0  3  0  0  0  0  0  0
  188.3860  176.5860  137.0540 N   0  0  0  0  0  0  0  0  0  0  0  0
  188.7080  177.7690  139.1050 C   0  0  0  0  0  0  0  0  0  0  0  0
  1  2  1  0  0  0  0
  2  7  1  0  0  0  0
  3  2  2  0  0  0  0
  3  9  1  0  0  0  0
  4  6  1  0  0  0  0
  4  5  2  0  0  0  0
  5  3  1  0  0  0  0
  6  1  2  0  0  0  0
  7  8  1  0  0  0  0
  9 10  1  0  0  0  0
 10 14  1  0  0  0  0
 11 13  1  0  0  0  0
 12 13  2  0  0  0  0
 12 18  1  0  0  0  0
 14 11  2  0  0  0  0
 15 14  1  0  0  0  0
 15 16  2  0  0  0  0
 16 12  1  0  0  0  0
 18 17  1  0  0  0  0
 19  5  1  0  0  0  0
 20 22  2  0  0  0  0
 20 24  1  0  0  0  0
 21 25  1  0  0  0  0
 22 23  1  0  0  0  0
 23 25  2  0  0  0  0
 24 21  2  0  0  0  0
 25 19  1  0  0  0  0
M  END
>  <MODEL>
3

>  <REMARK>
 VINA RESULT:      -7.6      3.150      6.604
  Name = 
  7 active torsions:
  status: ('A' for Active; 'I' for Inactive)
    1  A    between atoms: C_6  and  C_22
    2  A    between atoms: C_8  and  C_18
    3  A    between atoms: C_9  and  C_13
    4  A    between atoms: C_9  and  C_17
    5  A    between atoms: C_11  and  C_16
    6  A    between atoms: C_11  and  C_21
    7  A    between atoms: C_15  and  C_17
                            x       y       z     vdW  Elec       q    Type
                         _______ _______ _______ _____ _____    ______ ____

>  <TORSDO>
F 7

$$$$
=
 OpenBabel10222418073D

 25 27  0  0  0  0  0  0  0  0999 V2000
  189.4950  177.5240  147.6590 C   0  0  0  0  0  3  0  0  0  0  0  0
  190.1150  177.1360  146.4730 C   0  0  0  0  0  0  0  0  0  0  0  0
  189.3410  177.0020  145.3090 C   0  0  0  0  0  0  0  0  0  0  0  0
  187.4150  177.6260  146.5780 N   0  0  0  0  0  0  0  0  0  0  0  0
  187.9580  177.2570  145.3880 C   0  0  0  0  0  0  0  0  0  0  0  0
  188.1590  177.7600  147.6770 N   0  0  0  0  0  0  0  0  0  0  0  0
  191.5860  176.8720  146.4760 C   0  0  0  0  0  2  0  0  0  0  0  0
  192.0480  176.7760  147.7890 O   0  0  0  0  0  1  0  0  0  0  0  0
  189.9810  176.5900  144.0100 C   0  0  0  0  0  2  0  0  0  0  0  0
  190.4800  177.7950  143.2160 C   0  0  0  0  0  2  0  0  0  0  0  0
  190.6880  177.2690  140.7750 C   0  0  0  0  0  3  0  0  0  0  0  0
  188.9250  177.8530  139.2180 C   0  0  0  0  0  0  0  0  0  0  0  0
  190.1820  177.2910  139.4720 C   0  0  0  0  0  3  0  0  0  0  0  0
  189.9350  177.8010  141.8280 C   0  0  0  0  0  0  0  0  0  0  0  0
  188.6760  178.3570  141.5740 C   0  0  0  0  0  3  0  0  0  0  0  0
  188.1710  178.3790  140.2710 C   0  0  0  0  0  3  0  0  0  0  0  0
  188.1770  179.1700  137.4120 O   0  0  0  0  0  1  0  0  0  0  0  0
  188.3790  177.8570  137.8350 C   0  0  0  0  0  2  0  0  0  0  0  0
  187.0590  177.0950  144.2030 C   0  0  0  0  0  2  0  0  0  0  0  0
  183.4890  179.3730  144.7110 C   0  0  0  0  0  3  0  0  0  0  0  0
  185.3630  178.2500  145.6440 C   0  0  0  0  0  3  0  0  0  0  0  0
  183.9070  179.0420  143.4200 C   0  0  0  0  0  3  0  0  0  0  0  0
  185.0780  178.3020  143.2500 C   0  0  0  0  0  3  0  0  0  0  0  0
  184.2200  178.9730  145.7880 N   0  0  0  0  0  0  0  0  0  0  0  0
  185.8180  177.9050  144.3680 C   0  0  0  0  0  0  0  0  0  0  0  0
  1  6  1  0  0  0  0
  2  7  1  0  0  0  0
  2  1  2  0  0  0  0
  3  5  2  0  0  0  0
  3  2  1  0  0  0  0
  4  6  2  0  0  0  0
  5  4  1  0  0  0  0
  7  8  1  0  0  0  0
  9  3  1  0  0  0  0
 10  9  1  0  0  0  0
 11 14  1  0  0  0  0
 12 13  1  0  0  0  0
 12 16  2  0  0  0  0
 13 11  2  0  0  0  0
 14 10  1  0  0  0  0
 15 14  2  0  0  0  0
 16 15  1  0  0  0  0
 17 18  1  0  0  0  0
 18 12  1  0  0  0  0
 19 25  1  0  0  0  0
 19  5  1  0  0  0  0
 20 24  1  0  0  0  0
 21 24  2  0  0  0  0
 22 20  2  0  0  0  0
 23 22  1  0  0  0  0
 23 25  2  0  0  0  0
 25 21  1  0  0  0  0
M  END
>  <MODEL>
4

>  <REMARK>
 VINA RESULT:      -7.5      2.888      5.489
  Name = 
  7 active torsions:
  status: ('A' for Active; 'I' for Inactive)
    1  A    between atoms: C_6  and  C_22
    2  A    between atoms: C_8  and  C_18
    3  A    between atoms: C_9  and  C_13
    4  A    between atoms: C_9  and  C_17
    5  A    between atoms: C_11  and  C_16
    6  A    between atoms: C_11  and  C_21
    7  A    between atoms: C_15  and  C_17
                            x       y       z     vdW  Elec       q    Type
                         _______ _______ _______ _____ _____    ______ ____

>  <TORSDO>
F 7

$$$$
=
 OpenBabel10222418073D

 25 27  0  0  0  0  0  0  0  0999 V2000
  187.9310  178.2540  139.4190 C   0  0  0  0  0  3  0  0  0  0  0  0
  187.5510  178.5430  140.7280 C   0  0  0  0  0  0  0  0  0  0  0  0
  186.2110  178.8710  140.9950 C   0  0  0  0  0  0  0  0  0  0  0  0
  185.7390  178.6170  138.6670 N   0  0  0  0  0  0  0  0  0  0  0  0
  185.3010  178.9030  139.9210 C   0  0  0  0  0  0  0  0  0  0  0  0
  187.0110  178.2980  138.4230 N   0  0  0  0  0  0  0  0  0  0  0  0
  188.5820  178.4990  141.8090 C   0  0  0  0  0  2  0  0  0  0  0  0
  189.1830  177.2400  141.8400 O   0  0  0  0  0  1  0  0  0  0  0  0
  185.7670  179.1830  142.3990 C   0  0  0  0  0  2  0  0  0  0  0  0
  185.4700  177.9150  143.1950 C   0  0  0  0  0  2  0  0  0  0  0  0
  187.3170  177.3500  144.7920 C   0  0  0  0  0  3  0  0  0  0  0  0
  187.2060  178.0250  147.1170 C   0  0  0  0  0  0  0  0  0  0  0  0
  187.8800  177.3830  146.0720 C   0  0  0  0  0  3  0  0  0  0  0  0
  186.0820  177.9640  144.5550 C   0  0  0  0  0  0  0  0  0  0  0  0
  185.4110  178.6110  145.5990 C   0  0  0  0  0  3  0  0  0  0  0  0
  185.9750  178.6430  146.8780 C   0  0  0  0  0  3  0  0  0  0  0  0
  189.1940  178.2530  148.3630 O   0  0  0  0  0  1  0  0  0  0  0  0
  187.8150  178.0780  148.4730 C   0  0  0  0  0  2  0  0  0  0  0  0
  183.8670  179.2840  140.1160 C   0  0  0  0  0  2  0  0  0  0  0  0
  181.2380  176.3800  138.4300 C   0  0  0  0  0  3  0  0  0  0  0  0
  182.1020  178.5920  138.4750 C   0  0  0  0  0  3  0  0  0  0  0  0
  182.0780  176.0070  139.4820 C   0  0  0  0  0  3  0  0  0  0  0  0
  182.9440  176.9540  140.0310 C   0  0  0  0  0  3  0  0  0  0  0  0
  181.2670  177.6540  137.9520 N   0  0  0  0  0  0  0  0  0  0  0  0
  182.9630  178.2570  139.5240 C   0  0  0  0  0  0  0  0  0  0  0  0
  1  2  1  0  0  0  0
  2  3  2  0  0  0  0
  2  7  1  0  0  0  0
  3  9  1  0  0  0  0
  4  5  2  0  0  0  0
  5 19  1  0  0  0  0
  5  3  1  0  0  0  0
  6  4  1  0  0  0  0
  6  1  2  0  0  0  0
  7  8  1  0  0  0  0
  9 10  1  0  0  0  0
 10 14  1  0  0  0  0
 11 13  1  0  0  0  0
 12 18  1  0  0  0  0
 13 12  2  0  0  0  0
 14 11  2  0  0  0  0
 14 15  1  0  0  0  0
 15 16  2  0  0  0  0
 16 12  1  0  0  0  0
 17 18  1  0  0  0  0
 20 22  1  0  0  0  0
 21 25  2  0  0  0  0
 22 23  2  0  0  0  0
 24 20  2  0  0  0  0
 24 21  1  0  0  0  0
 25 23  1  0  0  0  0
 25 19  1  0  0  0  0
M  END
>  <MODEL>
5

>  <REMARK>
 VINA RESULT:      -7.4      3.839      7.025
  Name = 
  7 active torsions:
  status: ('A' for Active; 'I' for Inactive)
    1  A    between atoms: C_6  and  C_22
    2  A    between atoms: C_8  and  C_18
    3  A    between atoms: C_9  and  C_13
    4  A    between atoms: C_9  and  C_17
    5  A    between atoms: C_11  and  C_16
    6  A    between atoms: C_11  and  C_21
    7  A    between atoms: C_15  and  C_17
                            x       y       z     vdW  Elec       q    Type
                         _______ _______ _______ _____ _____    ______ ____

>  <TORSDO>
F 7

$$$$
=
 OpenBabel10222418073D

 25 27  0  0  0  0  0  0  0  0999 V2000
  188.4390  177.4390  138.2740 C   0  0  0  0  0  3  0  0  0  0  0  0
  189.1300  177.3100  139.4770 C   0  0  0  0  0  0  0  0  0  0  0  0
  188.5780  177.8610  140.6460 C   0  0  0  0  0  0  0  0  0  0  0  0
  186.7250  178.6290  139.3480 N   0  0  0  0  0  0  0  0  0  0  0  0
  187.3440  178.5340  140.5540 C   0  0  0  0  0  0  0  0  0  0  0  0
  187.2520  178.0950  138.2450 N   0  0  0  0  0  0  0  0  0  0  0  0
  190.4410  176.5920  139.4870 C   0  0  0  0  0  2  0  0  0  0  0  0
  190.4240  175.5620  138.5470 O   0  0  0  0  0  1  0  0  0  0  0  0
  189.2980  177.7350  141.9620 C   0  0  0  0  0  2  0  0  0  0  0  0
  188.7540  176.5770  142.7970 C   0  0  0  0  0  2  0  0  0  0  0  0
  189.6310  177.1730  145.0670 C   0  0  0  0  0  3  0  0  0  0  0  0
  188.1220  177.6930  146.8910 C   0  0  0  0  0  0  0  0  0  0  0  0
  189.4240  177.5340  146.4020 C   0  0  0  0  0  3  0  0  0  0  0  0
  188.5370  176.9800  144.2160 C   0  0  0  0  0  0  0  0  0  0  0  0
  187.2350  177.1450  144.7040 C   0  0  0  0  0  3  0  0  0  0  0  0
  187.0290  177.5050  146.0390 C   0  0  0  0  0  3  0  0  0  0  0  0
  189.1320  178.2650  148.9430 O   0  0  0  0  0  1  0  0  0  0  0  0
  187.9040  178.0970  148.3060 C   0  0  0  0  0  2  0  0  0  0  0  0
  186.7120  179.1830  141.7440 C   0  0  0  0  0  2  0  0  0  0  0  0
  182.4820  178.6420  141.6860 C   0  0  0  0  0  3  0  0  0  0  0  0
  184.5270  178.9960  140.5300 C   0  0  0  0  0  3  0  0  0  0  0  0
  183.1530  178.6240  142.9110 C   0  0  0  0  0  3  0  0  0  0  0  0
  184.5390  178.7950  142.9330 C   0  0  0  0  0  3  0  0  0  0  0  0
  183.1760  178.8260  140.5300 N   0  0  0  0  0  0  0  0  0  0  0  0
  185.2350  178.9780  141.7350 C   0  0  0  0  0  0  0  0  0  0  0  0
  1  2  1  0  0  0  0
  2  7  1  0  0  0  0
  2  3  2  0  0  0  0
  3  9  1  0  0  0  0
  4  5  2  0  0  0  0
  5  3  1  0  0  0  0
  5 19  1  0  0  0  0
  6  1  2  0  0  0  0
  6  4  1  0  0  0  0
  8  7  1  0  0  0  0
  9 10  1  0  0  0  0
 10 14  1  0  0  0  0
 11 13  1  0  0  0  0
 12 18  1  0  0  0  0
 13 12  2  0  0  0  0
 14 15  1  0  0  0  0
 14 11  2  0  0  0  0
 15 16  2  0  0  0  0
 16 12  1  0  0  0  0
 18 17  1  0  0  0  0
 20 22  1  0  0  0  0
 21 25  2  0  0  0  0
 22 23  2  0  0  0  0
 24 21  1  0  0  0  0
 24 20  2  0  0  0  0
 25 19  1  0  0  0  0
 25 23  1  0  0  0  0
M  END
>  <MODEL>
6

>  <REMARK>
 VINA RESULT:      -7.4      3.558      6.789
  Name = 
  7 active torsions:
  status: ('A' for Active; 'I' for Inactive)
    1  A    between atoms: C_6  and  C_22
    2  A    between atoms: C_8  and  C_18
    3  A    between atoms: C_9  and  C_13
    4  A    between atoms: C_9  and  C_17
    5  A    between atoms: C_11  and  C_16
    6  A    between atoms: C_11  and  C_21
    7  A    between atoms: C_15  and  C_17
                            x       y       z     vdW  Elec       q    Type
                         _______ _______ _______ _____ _____    ______ ____

>  <TORSDO>
F 7

$$$$
=
 OpenBabel10222418073D

 25 27  0  0  0  0  0  0  0  0999 V2000
  185.3380  178.9800  146.2090 C   0  0  0  0  0  3  0  0  0  0  0  0
  185.0010  178.8950  144.8590 C   0  0  0  0  0  0  0  0  0  0  0  0
  185.7440  178.0460  144.0220 C   0  0  0  0  0  0  0  0  0  0  0  0
  187.0900  177.4500  145.9030 N   0  0  0  0  0  0  0  0  0  0  0  0
  186.8110  177.3160  144.5800 C   0  0  0  0  0  0  0  0  0  0  0  0
  186.3750  178.2520  146.6940 N   0  0  0  0  0  0  0  0  0  0  0  0
  183.8630  179.7130  144.3430 C   0  0  0  0  0  2  0  0  0  0  0  0
  182.6880  178.9610  144.3680 O   0  0  0  0  0  1  0  0  0  0  0  0
  185.4020  177.9280  142.5600 C   0  0  0  0  0  2  0  0  0  0  0  0
  185.9570  179.0970  141.7520 C   0  0  0  0  0  2  0  0  0  0  0  0
  186.0140  178.4760  139.3250 C   0  0  0  0  0  3  0  0  0  0  0  0
  188.0610  177.7070  138.2800 C   0  0  0  0  0  0  0  0  0  0  0  0
  186.6990  178.0200  138.1940 C   0  0  0  0  0  3  0  0  0  0  0  0
  186.6900  178.6280  140.5400 C   0  0  0  0  0  0  0  0  0  0  0  0
  188.0530  178.3200  140.6240 C   0  0  0  0  0  3  0  0  0  0  0  0
  188.7380  177.8630  139.4940 C   0  0  0  0  0  3  0  0  0  0  0  0
  190.1560  177.5000  137.2190 O   0  0  0  0  0  1  0  0  0  0  0  0
  188.7940  177.2410  137.0730 C   0  0  0  0  0  2  0  0  0  0  0  0
  187.6750  176.4230  143.7460 C   0  0  0  0  0  2  0  0  0  0  0  0
  191.6810  177.8780  143.5890 C   0  0  0  0  0  3  0  0  0  0  0  0
  190.1100  176.1320  143.2280 C   0  0  0  0  0  3  0  0  0  0  0  0
  190.6680  178.7210  144.0540 C   0  0  0  0  0  3  0  0  0  0  0  0
  189.3550  178.2500  144.1000 C   0  0  0  0  0  3  0  0  0  0  0  0
  191.3840  176.6110  143.1890 N   0  0  0  0  0  0  0  0  0  0  0  0
  189.0690  176.9470  143.6810 C   0  0  0  0  0  0  0  0  0  0  0  0
  1  6  1  0  0  0  0
  2  1  2  0  0  0  0
  3  5  2  0  0  0  0
  3  2  1  0  0  0  0
  4  6  2  0  0  0  0
  5  4  1  0  0  0  0
  7  8  1  0  0  0  0
  7  2  1  0  0  0  0
  9  3  1  0  0  0  0
 10  9  1  0  0  0  0
 11 14  1  0  0  0  0
 12 16  2  0  0  0  0
 13 12  1  0  0  0  0
 13 11  2  0  0  0  0
 14 15  2  0  0  0  0
 14 10  1  0  0  0  0
 16 15  1  0  0  0  0
 18 17  1  0  0  0  0
 18 12  1  0  0  0  0
 19  5  1  0  0  0  0
 20 22  1  0  0  0  0
 21 25  2  0  0  0  0
 22 23  2  0  0  0  0
 24 21  1  0  0  0  0
 24 20  2  0  0  0  0
 25 19  1  0  0  0  0
 25 23  1  0  0  0  0
M  END
>  <MODEL>
7

>  <REMARK>
 VINA RESULT:      -7.4      3.113      5.413
  Name = 
  7 active torsions:
  status: ('A' for Active; 'I' for Inactive)
    1  A    between atoms: C_6  and  C_22
    2  A    between atoms: C_8  and  C_18
    3  A    between atoms: C_9  and  C_13
    4  A    between atoms: C_9  and  C_17
    5  A    between atoms: C_11  and  C_16
    6  A    between atoms: C_11  and  C_21
    7  A    between atoms: C_15  and  C_17
                            x       y       z     vdW  Elec       q    Type
                         _______ _______ _______ _____ _____    ______ ____

>  <TORSDO>
F 7

$$$$
=
 OpenBabel10222418073D

 25 27  0  0  0  0  0  0  0  0999 V2000
  189.6940  176.7520  141.2240 C   0  0  0  0  0  3  0  0  0  0  0  0
  188.7100  177.7340  141.1180 C   0  0  0  0  0  0  0  0  0  0  0  0
  187.7750  177.8800  142.1560 C   0  0  0  0  0  0  0  0  0  0  0  0
  188.8430  176.0770  143.3040 N   0  0  0  0  0  0  0  0  0  0  0  0
  187.8630  177.0170  143.2660 C   0  0  0  0  0  0  0  0  0  0  0  0
  189.7330  175.9500  142.3180 N   0  0  0  0  0  0  0  0  0  0  0  0
  188.6790  178.5990  139.9010 C   0  0  0  0  0  2  0  0  0  0  0  0
  188.1320  177.8930  138.8300 O   0  0  0  0  0  1  0  0  0  0  0  0
  186.7030  178.9340  142.0750 C   0  0  0  0  0  2  0  0  0  0  0  0
  185.5280  178.4820  141.2120 C   0  0  0  0  0  2  0  0  0  0  0  0
  184.2220  178.8200  143.3240 C   0  0  0  0  0  3  0  0  0  0  0  0
  181.7990  178.8070  143.3090 C   0  0  0  0  0  0  0  0  0  0  0  0
  183.0060  178.9220  144.0070 C   0  0  0  0  0  3  0  0  0  0  0  0
  184.2320  178.6090  141.9410 C   0  0  0  0  0  0  0  0  0  0  0  0
  183.0240  178.5000  141.2420 C   0  0  0  0  0  3  0  0  0  0  0  0
  181.8090  178.6020  141.9250 C   0  0  0  0  0  3  0  0  0  0  0  0
  179.7320  177.7960  143.8230 O   0  0  0  0  0  1  0  0  0  0  0  0
  180.5060  178.9370  144.0320 C   0  0  0  0  0  2  0  0  0  0  0  0
  186.8790  177.0820  144.3920 C   0  0  0  0  0  2  0  0  0  0  0  0
  188.8110  178.1220  148.0500 C   0  0  0  0  0  3  0  0  0  0  0  0
  186.8280  177.9030  146.7600 C   0  0  0  0  0  3  0  0  0  0  0  0
  189.5820  177.6560  146.9820 C   0  0  0  0  0  3  0  0  0  0  0  0
  188.9510  177.3090  145.7860 C   0  0  0  0  0  3  0  0  0  0  0  0
  187.4610  178.2350  147.9180 N   0  0  0  0  0  0  0  0  0  0  0  0
  187.5640  177.4280  145.6710 C   0  0  0  0  0  0  0  0  0  0  0  0
  1  6  1  0  0  0  0
  2  1  2  0  0  0  0
  2  3  1  0  0  0  0
  3  5  2  0  0  0  0
  5  4  1  0  0  0  0
  5 19  1  0  0  0  0
  6  4  2  0  0  0  0
  7  2  1  0  0  0  0
  8  7  1  0  0  0  0
  9  3  1  0  0  0  0
 10 14  1  0  0  0  0
 10  9  1  0  0  0  0
 11 13  1  0  0  0  0
 12 13  2  0  0  0  0
 12 18  1  0  0  0  0
 14 11  2  0  0  0  0
 15 16  2  0  0  0  0
 15 14  1  0  0  0  0
 16 12  1  0  0  0  0
 17 18  1  0  0  0  0
 19 25  1  0  0  0  0
 21 24  2  0  0  0  0
 22 20  2  0  0  0  0
 23 22  1  0  0  0  0
 24 20  1  0  0  0  0
 25 23  2  0  0  0  0
 25 21  1  0  0  0  0
M  END
>  <MODEL>
8

>  <REMARK>
 VINA RESULT:      -7.4      2.742      5.146
  Name = 
  7 active torsions:
  status: ('A' for Active; 'I' for Inactive)
    1  A    between atoms: C_6  and  C_22
    2  A    between atoms: C_8  and  C_18
    3  A    between atoms: C_9  and  C_13
    4  A    between atoms: C_9  and  C_17
    5  A    between atoms: C_11  and  C_16
    6  A    between atoms: C_11  and  C_21
    7  A    between atoms: C_15  and  C_17
                            x       y       z     vdW  Elec       q    Type
                         _______ _______ _______ _____ _____    ______ ____

>  <TORSDO>
F 7

$$$$
=
 OpenBabel10222418073D

 25 27  0  0  0  0  0  0  0  0999 V2000
  185.1780  179.3980  142.0160 C   0  0  0  0  0  3  0  0  0  0  0  0
  185.2660  178.8490  143.2930 C   0  0  0  0  0  0  0  0  0  0  0  0
  186.3110  177.9560  143.5830 C   0  0  0  0  0  0  0  0  0  0  0  0
  187.0810  178.2080  141.3350 N   0  0  0  0  0  0  0  0  0  0  0  0
  187.2290  177.6410  142.5610 C   0  0  0  0  0  0  0  0  0  0  0  0
  186.0910  179.0620  141.0710 N   0  0  0  0  0  0  0  0  0  0  0  0
  184.2450  179.2250  144.3160 C   0  0  0  0  0  2  0  0  0  0  0  0
  182.9680  179.1570  143.7590 O   0  0  0  0  0  1  0  0  0  0  0  0
  186.4380  177.3490  144.9550 C   0  0  0  0  0  2  0  0  0  0  0  0
  187.1910  178.2680  145.9130 C   0  0  0  0  0  2  0  0  0  0  0  0
  189.6550  177.9250  145.6190 C   0  0  0  0  0  3  0  0  0  0  0  0
  190.9080  176.5070  147.1340 C   0  0  0  0  0  0  0  0  0  0  0  0
  190.8660  177.3480  146.0150 C   0  0  0  0  0  3  0  0  0  0  0  0
  188.4870  177.6690  146.3450 C   0  0  0  0  0  0  0  0  0  0  0  0
  188.5310  176.8330  147.4670 C   0  0  0  0  0  3  0  0  0  0  0  0
  189.7410  176.2560  147.8620 C   0  0  0  0  0  3  0  0  0  0  0  0
  192.6590  175.0240  146.5950 O   0  0  0  0  0  1  0  0  0  0  0  0
  192.1990  175.9110  147.5670 C   0  0  0  0  0  2  0  0  0  0  0  0
  188.3440  176.6670  142.7780 C   0  0  0  0  0  2  0  0  0  0  0  0
  191.5820  177.4270  140.1090 C   0  0  0  0  0  3  0  0  0  0  0  0
  189.3160  176.8150  140.4720 C   0  0  0  0  0  3  0  0  0  0  0  0
  191.7870  177.5670  141.4840 C   0  0  0  0  0  3  0  0  0  0  0  0
  190.7270  177.3250  142.3590 C   0  0  0  0  0  3  0  0  0  0  0  0
  190.3610  177.0570  139.6350 N   0  0  0  0  0  0  0  0  0  0  0  0
  189.4790  176.9500  141.8540 C   0  0  0  0  0  0  0  0  0  0  0  0
  1  2  1  0  0  0  0
  2  3  2  0  0  0  0
  2  7  1  0  0  0  0
  3  9  1  0  0  0  0
  4  5  2  0  0  0  0
  5 19  1  0  0  0  0
  5  3  1  0  0  0  0
  6  4  1  0  0  0  0
  6  1  2  0  0  0  0
  8  7  1  0  0  0  0
  9 10  1  0  0  0  0
 10 14  1  0  0  0  0
 11 13  2  0  0  0  0
 11 14  1  0  0  0  0
 12 18  1  0  0  0  0
 12 16  2  0  0  0  0
 13 12  1  0  0  0  0
 14 15  2  0  0  0  0
 15 16  1  0  0  0  0
 17 18  1  0  0  0  0
 20 22  1  0  0  0  0
 21 25  2  0  0  0  0
 22 23  2  0  0  0  0
 24 20  2  0  0  0  0
 24 21  1  0  0  0  0
 25 23  1  0  0  0  0
 25 19  1  0  0  0  0
M  END
>  <MODEL>
9

>  <REMARK>
 VINA RESULT:      -7.3      2.466      6.023
  Name = 
  7 active torsions:
  status: ('A' for Active; 'I' for Inactive)
    1  A    between atoms: C_6  and  C_22
    2  A    between atoms: C_8  and  C_18
    3  A    between atoms: C_9  and  C_13
    4  A    between atoms: C_9  and  C_17
    5  A    between atoms: C_11  and  C_16
    6  A    between atoms: C_11  and  C_21
    7  A    between atoms: C_15  and  C_17
                            x       y       z     vdW  Elec       q    Type
                         _______ _______ _______ _____ _____    ______ ____

>  <TORSDO>
F 7

$$$$
