=
 OpenBabel10222417273D

 28 30  0  0  1  0  0  0  0  0999 V2000
  189.6650  177.4450  144.0650 C   0  0  2  0  0  3  0  0  0  0  0  0
  184.4070  179.6070  144.1600 N   0  0  0  0  0  0  0  0  0  0  0  0
  184.8750  179.2610  145.4290 N   0  0  0  0  0  2  0  0  0  0  0  0
  188.2240  177.6270  144.4600 C   0  0  0  0  0  0  0  0  0  0  0  0
  186.6530  177.9230  146.3360 C   0  0  0  0  0  3  0  0  0  0  0  0
  185.6490  178.2370  145.3260 C   0  0  2  0  0  3  0  0  0  0  0  0
  187.8790  177.6250  145.9090 C   0  0  0  0  0  3  0  0  0  0  0  0
  184.5640  178.9160  141.8410 C   0  0  0  0  0  1  0  0  0  0  0  0
  187.2630  177.7340  143.5070 C   0  0  0  0  0  0  0  0  0  0  0  0
  184.9520  178.8440  143.2740 C   0  0  0  0  0  0  0  0  0  0  0  0
  185.7910  177.7720  143.9110 C   0  0  2  0  0  3  0  0  0  0  0  0
  187.6440  177.5740  142.1340 N   0  0  0  0  0  2  0  0  0  0  0  0
  187.9640  178.1600  139.8070 C   0  0  0  0  0  1  0  0  0  0  0  0
  187.8450  178.6860  141.2200 C   0  0  0  0  0  2  0  0  0  0  0  0
  192.8640  175.5530  148.4970 C   0  0  0  0  0  1  0  0  0  0  0  0
  192.0420  176.0310  147.3550 C   0  0  0  0  0  0  0  0  0  0  0  0
  192.1900  175.4450  146.0950 C   0  0  0  0  0  3  0  0  0  0  0  0
  190.3490  177.5170  146.4670 C   0  0  0  0  0  3  0  0  0  0  0  0
  190.4880  176.9300  145.2050 C   0  0  0  0  0  0  0  0  0  0  0  0
  191.4170  175.8930  145.0200 C   0  0  0  0  0  3  0  0  0  0  0  0
  191.1230  177.0680  147.5410 C   0  0  0  0  0  3  0  0  0  0  0  0
  190.2000  178.6330  143.5550 O   0  0  0  0  0  0  0  0  0  0  0  0
  191.3760  178.2490  142.9060 C   0  0  0  0  0  2  0  0  0  0  0  0
  191.0340  177.4160  141.6880 C   0  0  0  0  0  2  0  0  0  0  0  0
  190.9580  176.1210  139.1840 N   0  0  0  0  0  1  0  0  0  0  0  0
  193.2220  176.9630  138.7190 N   0  0  0  0  0  1  0  0  0  0  0  0
  192.1380  177.4650  140.7420 N   0  0  0  0  0  0  0  0  0  0  0  0
  192.1020  176.8700  139.5900 C   0  0  0  0  0  0  0  0  0  0  0  0
  1 22  1  1  0  0  0
  1  4  1  0  0  0  0
  1 19  1  0  0  0  0
  2  3  1  0  0  0  0
  4  7  1  0  0  0  0
  6  3  1  0  0  0  0
  6  5  1  6  0  0  0
  7  5  2  0  0  0  0
  8 10  1  0  0  0  0
  9 11  1  0  0  0  0
  9  4  2  0  0  0  0
 10  2  2  0  0  0  0
 11 10  1  6  0  0  0
 11  6  1  0  0  0  0
 12  9  1  0  0  0  0
 13 14  1  0  0  0  0
 14 12  1  0  0  0  0
 16 21  1  0  0  0  0
 16 15  1  0  0  0  0
 17 16  2  0  0  0  0
 18 21  2  0  0  0  0
 19 18  1  0  0  0  0
 20 19  2  0  0  0  0
 20 17  1  0  0  0  0
 23 22  1  0  0  0  0
 24 23  1  0  0  0  0
 25 28  1  0  0  0  0
 26 28  1  0  0  0  0
 27 24  1  0  0  0  0
 28 27  2  0  0  0  0
M  END
>  <MODEL>
1

>  <REMARK>
 VINA RESULT:      -8.1      0.000      0.000
  Name = 
  8 active torsions:
  status: ('A' for Active; 'I' for Inactive)
    1  A    between atoms: C_4  and  C_8
    2  A    between atoms: C_4  and  O_11
    3  A    between atoms: C_4  and  C_21
    4  A    between atoms: N_10  and  C_23
    5  A    between atoms: N_10  and  C_27
    6  A    between atoms: O_11  and  C_18
    7  A    between atoms: C_13  and  N_14
    8  A    between atoms: C_13  and  C_18
                            x       y       z     vdW  Elec       q    Type
                         _______ _______ _______ _____ _____    ______ ____

>  <TORSDO>
F 8

$$$$
=
 OpenBabel10222417273D

 28 30  0  0  1  0  0  0  0  0999 V2000
  185.0650  178.3710  142.6340 C   0  0  2  0  0  3  0  0  0  0  0  0
  179.9790  180.6050  141.4200 N   0  0  0  0  0  0  0  0  0  0  0  0
  180.1540  180.3620  142.7840 N   0  0  0  0  0  2  0  0  0  0  0  0
  183.5800  178.6070  142.6940 C   0  0  0  0  0  0  0  0  0  0  0  0
  181.6540  179.0830  144.1570 C   0  0  0  0  0  3  0  0  0  0  0  0
  180.9000  179.3230  142.9330 C   0  0  2  0  0  3  0  0  0  0  0  0
  182.9340  178.7330  144.0300 C   0  0  0  0  0  3  0  0  0  0  0  0
  180.6050  179.7150  139.2530 C   0  0  0  0  0  1  0  0  0  0  0  0
  182.8480  178.6440  141.5510 C   0  0  0  0  0  0  0  0  0  0  0  0
  180.6760  179.7610  140.7370 C   0  0  0  0  0  0  0  0  0  0  0  0
  181.3260  178.7360  141.6240 C   0  0  2  0  0  3  0  0  0  0  0  0
  183.5080  178.3620  140.3100 N   0  0  0  0  0  2  0  0  0  0  0  0
  183.6620  177.4480  138.0730 C   0  0  0  0  0  1  0  0  0  0  0  0
  183.2340  177.1870  139.5000 C   0  0  0  0  0  2  0  0  0  0  0  0
  187.3820  178.0430  147.9240 C   0  0  0  0  0  1  0  0  0  0  0  0
  186.7860  178.1360  146.5660 C   0  0  0  0  0  0  0  0  0  0  0  0
  185.8690  179.1490  146.2730 C   0  0  0  0  0  3  0  0  0  0  0  0
  186.5830  177.2960  144.3040 C   0  0  0  0  0  3  0  0  0  0  0  0
  185.6690  178.3130  144.0030 C   0  0  0  0  0  0  0  0  0  0  0  0
  185.3100  179.2380  144.9950 C   0  0  0  0  0  3  0  0  0  0  0  0
  187.1420  177.2090  145.5820 C   0  0  0  0  0  3  0  0  0  0  0  0
  185.6960  179.3410  141.8470 O   0  0  0  0  0  0  0  0  0  0  0  0
  186.4920  178.6200  140.9560 C   0  0  0  0  0  2  0  0  0  0  0  0
  187.9540  178.8430  141.2860 C   0  0  0  0  0  2  0  0  0  0  0  0
  189.9890  178.2400  143.1430 N   0  0  0  0  0  1  0  0  0  0  0  0
  190.2130  176.0130  142.1210 N   0  0  0  0  0  1  0  0  0  0  0  0
  188.6460  177.5640  141.3080 N   0  0  0  0  0  0  0  0  0  0  0  0
  189.5810  177.2870  142.1630 C   0  0  0  0  0  0  0  0  0  0  0  0
  1 22  1  6  0  0  0
  1  4  1  0  0  0  0
  1 19  1  0  0  0  0
  2  3  1  0  0  0  0
  3  6  1  0  0  0  0
  4  7  1  0  0  0  0
  6  5  1  1  0  0  0
  7  5  2  0  0  0  0
  8 10  1  0  0  0  0
  9 11  1  0  0  0  0
  9  4  2  0  0  0  0
 10  2  2  0  0  0  0
 11 10  1  6  0  0  0
 11  6  1  0  0  0  0
 12  9  1  0  0  0  0
 13 14  1  0  0  0  0
 14 12  1  0  0  0  0
 16 15  1  0  0  0  0
 17 16  1  0  0  0  0
 18 21  1  0  0  0  0
 19 18  2  0  0  0  0
 19 20  1  0  0  0  0
 20 17  2  0  0  0  0
 21 16  2  0  0  0  0
 23 24  1  0  0  0  0
 23 22  1  0  0  0  0
 24 27  1  0  0  0  0
 26 28  1  0  0  0  0
 27 28  2  0  0  0  0
 28 25  1  0  0  0  0
M  END
>  <MODEL>
2

>  <REMARK>
 VINA RESULT:      -8.1      3.179      5.122
  Name = 
  8 active torsions:
  status: ('A' for Active; 'I' for Inactive)
    1  A    between atoms: C_4  and  C_8
    2  A    between atoms: C_4  and  O_11
    3  A    between atoms: C_4  and  C_21
    4  A    between atoms: N_10  and  C_23
    5  A    between atoms: N_10  and  C_27
    6  A    between atoms: O_11  and  C_18
    7  A    between atoms: C_13  and  N_14
    8  A    between atoms: C_13  and  C_18
                            x       y       z     vdW  Elec       q    Type
                         _______ _______ _______ _____ _____    ______ ____

>  <TORSDO>
F 8

$$$$
=
 OpenBabel10222417273D

 28 30  0  0  1  0  0  0  0  0999 V2000
  189.3680  177.2730  142.2610 C   0  0  2  0  0  3  0  0  0  0  0  0
  191.2500  177.4400  147.6250 N   0  0  0  0  0  0  0  0  0  0  0  0
  192.0490  176.6530  146.7930 N   0  0  0  0  0  2  0  0  0  0  0  0
  189.9600  176.7990  143.5620 C   0  0  0  0  0  0  0  0  0  0  0  0
  191.8490  175.6290  144.6290 C   0  0  0  0  0  3  0  0  0  0  0  0
  191.3060  176.1010  145.8970 C   0  0  2  0  0  3  0  0  0  0  0  0
  191.1910  175.9620  143.5190 C   0  0  0  0  0  3  0  0  0  0  0  0
  188.9390  178.1000  147.9420 C   0  0  0  0  0  1  0  0  0  0  0  0
  189.3450  177.0870  144.7370 C   0  0  0  0  0  0  0  0  0  0  0  0
  190.0340  177.4290  147.1940 C   0  0  0  0  0  0  0  0  0  0  0  0
  189.8660  176.4830  146.0380 C   0  0  2  0  0  3  0  0  0  0  0  0
  188.0820  177.7660  144.6970 N   0  0  0  0  0  2  0  0  0  0  0  0
  185.8920  178.1480  145.6560 C   0  0  0  0  0  1  0  0  0  0  0  0
  186.8160  177.1310  145.0230 C   0  0  0  0  0  2  0  0  0  0  0  0
  193.0580  176.5970  137.8590 C   0  0  0  0  0  1  0  0  0  0  0  0
  192.1070  176.7630  138.9880 C   0  0  0  0  0  0  0  0  0  0  0  0
  190.8080  176.2570  138.8870 C   0  0  0  0  0  3  0  0  0  0  0  0
  191.6150  177.5840  141.2120 C   0  0  0  0  0  3  0  0  0  0  0  0
  190.3160  177.0720  141.1190 C   0  0  0  0  0  0  0  0  0  0  0  0
  189.9120  176.4120  139.9490 C   0  0  0  0  0  3  0  0  0  0  0  0
  192.5100  177.4280  140.1500 C   0  0  0  0  0  3  0  0  0  0  0  0
  188.9650  178.6100  142.3510 O   0  0  0  0  0  0  0  0  0  0  0  0
  188.1400  178.8130  141.2430 C   0  0  0  0  0  2  0  0  0  0  0  0
  186.6890  178.6910  141.6620 C   0  0  0  0  0  2  0  0  0  0  0  0
  183.9700  178.0330  141.3080 N   0  0  0  0  0  1  0  0  0  0  0  0
  183.8290  179.7270  139.5290 N   0  0  0  0  0  1  0  0  0  0  0  0
  185.8430  179.3450  140.6770 N   0  0  0  0  0  0  0  0  0  0  0  0
  184.5920  179.0420  140.5150 C   0  0  0  0  0  0  0  0  0  0  0  0
  1 22  1  1  0  0  0
  1  4  1  0  0  0  0
  3  2  1  0  0  0  0
  4  9  2  0  0  0  0
  6  5  1  6  0  0  0
  6 11  1  0  0  0  0
  6  3  1  0  0  0  0
  7  4  1  0  0  0  0
  7  5  2  0  0  0  0
 10  2  2  0  0  0  0
 10  8  1  0  0  0  0
 11  9  1  6  0  0  0
 11 10  1  0  0  0  0
 12  9  1  0  0  0  0
 12 14  1  0  0  0  0
 14 13  1  0  0  0  0
 15 16  1  0  0  0  0
 16 21  1  0  0  0  0
 17 16  2  0  0  0  0
 17 20  1  0  0  0  0
 19 18  1  0  0  0  0
 19  1  1  0  0  0  0
 20 19  2  0  0  0  0
 21 18  2  0  0  0  0
 23 24  1  0  0  0  0
 23 22  1  0  0  0  0
 26 28  1  0  0  0  0
 27 24  1  0  0  0  0
 28 27  2  0  0  0  0
 28 25  1  0  0  0  0
M  END
>  <MODEL>
3

>  <REMARK>
 VINA RESULT:      -7.8      2.740      6.215
  Name = 
  8 active torsions:
  status: ('A' for Active; 'I' for Inactive)
    1  A    between atoms: C_4  and  C_8
    2  A    between atoms: C_4  and  O_11
    3  A    between atoms: C_4  and  C_21
    4  A    between atoms: N_10  and  C_23
    5  A    between atoms: N_10  and  C_27
    6  A    between atoms: O_11  and  C_18
    7  A    between atoms: C_13  and  N_14
    8  A    between atoms: C_13  and  C_18
                            x       y       z     vdW  Elec       q    Type
                         _______ _______ _______ _____ _____    ______ ____

>  <TORSDO>
F 8

$$$$
=
 OpenBabel10222417273D

 28 30  0  0  1  0  0  0  0  0999 V2000
  188.1950  178.2540  141.5190 C   0  0  2  0  0  3  0  0  0  0  0  0
  188.5420  175.4520  136.5830 N   0  0  0  0  0  0  0  0  0  0  0  0
  189.6740  175.2870  137.3820 N   0  0  0  0  0  2  0  0  0  0  0  0
  188.7940  177.6910  140.2580 C   0  0  0  0  0  0  0  0  0  0  0  0
  190.6390  176.3660  139.2990 C   0  0  0  0  0  3  0  0  0  0  0  0
  189.8710  176.3640  138.0600 C   0  0  2  0  0  3  0  0  0  0  0  0
  190.1170  177.0120  140.3420 C   0  0  0  0  0  3  0  0  0  0  0  0
  186.8380  177.0930  136.0470 C   0  0  0  0  0  1  0  0  0  0  0  0
  188.1600  177.8540  139.0690 C   0  0  0  0  0  0  0  0  0  0  0  0
  188.0040  176.6000  136.8260 C   0  0  0  0  0  0  0  0  0  0  0  0
  188.8400  177.4110  137.7760 C   0  0  2  0  0  3  0  0  0  0  0  0
  186.9670  178.6500  139.0360 N   0  0  0  0  0  2  0  0  0  0  0  0
  184.5960  179.1330  139.0940 C   0  0  0  0  0  1  0  0  0  0  0  0
  185.6530  178.1170  138.7200 C   0  0  0  0  0  2  0  0  0  0  0  0
  191.3720  177.0370  146.1970 C   0  0  0  0  0  1  0  0  0  0  0  0
  190.5630  177.3530  144.9920 C   0  0  0  0  0  0  0  0  0  0  0  0
  190.8320  178.5090  144.2520 C   0  0  0  0  0  3  0  0  0  0  0  0
  188.7700  176.7930  143.4640 C   0  0  0  0  0  3  0  0  0  0  0  0
  189.0400  177.9450  142.7160 C   0  0  0  0  0  0  0  0  0  0  0  0
  190.0720  178.8070  143.1180 C   0  0  0  0  0  3  0  0  0  0  0  0
  189.5310  176.4960  144.5980 C   0  0  0  0  0  3  0  0  0  0  0  0
  186.8840  177.8000  141.6980 O   0  0  0  0  0  0  0  0  0  0  0  0
  186.2270  178.8430  142.3540 C   0  0  0  0  0  2  0  0  0  0  0  0
  185.2620  178.2740  143.3730 C   0  0  0  0  0  2  0  0  0  0  0  0
  183.6000  179.0500  145.5150 N   0  0  0  0  0  1  0  0  0  0  0  0
  185.5750  179.1050  146.9810 N   0  0  0  0  0  1  0  0  0  0  0  0
  185.7690  178.5230  144.7130 N   0  0  0  0  0  0  0  0  0  0  0  0
  185.0040  178.8790  145.6980 C   0  0  0  0  0  0  0  0  0  0  0  0
  1 22  1  1  0  0  0
  1 19  1  0  0  0  0
  2 10  2  0  0  0  0
  2  3  1  0  0  0  0
  3  6  1  0  0  0  0
  4  7  1  0  0  0  0
  4  1  1  0  0  0  0
  5  7  2  0  0  0  0
  6  5  1  1  0  0  0
  8 10  1  0  0  0  0
  9  4  2  0  0  0  0
 11 10  1  6  0  0  0
 11  6  1  0  0  0  0
 11  9  1  0  0  0  0
 12  9  1  0  0  0  0
 14 12  1  0  0  0  0
 14 13  1  0  0  0  0
 16 15  1  0  0  0  0
 17 16  2  0  0  0  0
 18 21  2  0  0  0  0
 19 20  2  0  0  0  0
 19 18  1  0  0  0  0
 20 17  1  0  0  0  0
 21 16  1  0  0  0  0
 22 23  1  0  0  0  0
 23 24  1  0  0  0  0
 24 27  1  0  0  0  0
 25 28  1  0  0  0  0
 27 28  2  0  0  0  0
 28 26  1  0  0  0  0
M  END
>  <MODEL>
4

>  <REMARK>
 VINA RESULT:      -7.5      2.145      6.395
  Name = 
  8 active torsions:
  status: ('A' for Active; 'I' for Inactive)
    1  A    between atoms: C_4  and  C_8
    2  A    between atoms: C_4  and  O_11
    3  A    between atoms: C_4  and  C_21
    4  A    between atoms: N_10  and  C_23
    5  A    between atoms: N_10  and  C_27
    6  A    between atoms: O_11  and  C_18
    7  A    between atoms: C_13  and  N_14
    8  A    between atoms: C_13  and  C_18
                            x       y       z     vdW  Elec       q    Type
                         _______ _______ _______ _____ _____    ______ ____

>  <TORSDO>
F 8

$$$$
=
 OpenBabel10222417273D

 28 30  0  0  1  0  0  0  0  0999 V2000
  183.9890  178.7280  139.3400 C   0  0  2  0  0  3  0  0  0  0  0  0
  180.3870  180.4430  135.2870 N   0  0  0  0  0  0  0  0  0  0  0  0
  180.7390  181.4660  136.1690 N   0  0  0  0  0  2  0  0  0  0  0  0
  182.8400  179.4530  138.6910 C   0  0  0  0  0  0  0  0  0  0  0  0
  181.7490  181.6360  138.3420 C   0  0  0  0  0  3  0  0  0  0  0  0
  180.9320  180.9640  137.3400 C   0  0  2  0  0  3  0  0  0  0  0  0
  182.6530  180.8990  138.9890 C   0  0  0  0  0  3  0  0  0  0  0  0
  180.0120  178.0480  135.2340 C   0  0  0  0  0  1  0  0  0  0  0  0
  181.9670  178.7780  137.9000 C   0  0  0  0  0  0  0  0  0  0  0  0
  180.4360  179.3080  135.8990 C   0  0  0  0  0  0  0  0  0  0  0  0
  180.7230  179.4820  137.3630 C   0  0  2  0  0  3  0  0  0  0  0  0
  182.1150  177.3570  137.7780 N   0  0  0  0  0  2  0  0  0  0  0  0
  181.9810  175.6280  139.4670 C   0  0  0  0  0  1  0  0  0  0  0  0
  181.2240  176.3970  138.4080 C   0  0  0  0  0  2  0  0  0  0  0  0
  183.7720  178.9380  145.1160 C   0  0  0  0  0  1  0  0  0  0  0  0
  183.8200  178.8870  143.6320 C   0  0  0  0  0  0  0  0  0  0  0  0
  182.6460  178.6780  142.9010 C   0  0  0  0  0  3  0  0  0  0  0  0
  185.0840  179.0010  141.5700 C   0  0  0  0  0  3  0  0  0  0  0  0
  183.9110  178.7980  140.8330 C   0  0  0  0  0  0  0  0  0  0  0  0
  182.6900  178.6310  141.5050 C   0  0  0  0  0  3  0  0  0  0  0  0
  185.0380  179.0480  142.9660 C   0  0  0  0  0  3  0  0  0  0  0  0
  185.2160  179.2160  138.8770 O   0  0  0  0  0  0  0  0  0  0  0  0
  185.6720  178.2500  137.9790 C   0  0  0  0  0  2  0  0  0  0  0  0
  187.1870  178.2350  137.9760 C   0  0  0  0  0  2  0  0  0  0  0  0
  189.7480  177.3020  138.7000 N   0  0  0  0  0  1  0  0  0  0  0  0
  189.2580  177.8840  141.0400 N   0  0  0  0  0  1  0  0  0  0  0  0
  187.6750  178.2580  139.3460 N   0  0  0  0  0  0  0  0  0  0  0  0
  188.8530  177.8290  139.6780 C   0  0  0  0  0  0  0  0  0  0  0  0
  1 22  1  6  0  0  0
  1 19  1  0  0  0  0
  2 10  2  0  0  0  0
  2  3  1  0  0  0  0
  3  6  1  0  0  0  0
  4  7  1  0  0  0  0
  4  1  1  0  0  0  0
  5  7  2  0  0  0  0
  6 11  1  0  0  0  0
  6  5  1  6  0  0  0
  8 10  1  0  0  0  0
  9  4  2  0  0  0  0
 11 10  1  6  0  0  0
 11  9  1  0  0  0  0
 12  9  1  0  0  0  0
 12 14  1  0  0  0  0
 14 13  1  0  0  0  0
 16 15  1  0  0  0  0
 17 16  2  0  0  0  0
 18 21  2  0  0  0  0
 19 20  2  0  0  0  0
 19 18  1  0  0  0  0
 20 17  1  0  0  0  0
 21 16  1  0  0  0  0
 23 22  1  0  0  0  0
 24 23  1  0  0  0  0
 24 27  1  0  0  0  0
 25 28  1  0  0  0  0
 27 28  2  0  0  0  0
 28 26  1  0  0  0  0
M  END
>  <MODEL>
5

>  <REMARK>
 VINA RESULT:      -7.3      4.924      8.027
  Name = 
  8 active torsions:
  status: ('A' for Active; 'I' for Inactive)
    1  A    between atoms: C_4  and  C_8
    2  A    between atoms: C_4  and  O_11
    3  A    between atoms: C_4  and  C_21
    4  A    between atoms: N_10  and  C_23
    5  A    between atoms: N_10  and  C_27
    6  A    between atoms: O_11  and  C_18
    7  A    between atoms: C_13  and  N_14
    8  A    between atoms: C_13  and  C_18
                            x       y       z     vdW  Elec       q    Type
                         _______ _______ _______ _____ _____    ______ ____

>  <TORSDO>
F 8

$$$$
=
 OpenBabel10222417273D

 28 30  0  0  1  0  0  0  0  0999 V2000
  189.6830  178.0080  141.2150 C   0  0  2  0  0  3  0  0  0  0  0  0
  191.1460  174.4270  137.0470 N   0  0  0  0  0  0  0  0  0  0  0  0
  192.2470  174.9320  137.7400 N   0  0  0  0  0  2  0  0  0  0  0  0
  190.4600  177.4310  140.0620 C   0  0  0  0  0  0  0  0  0  0  0  0
  192.6850  176.7520  139.2470 C   0  0  0  0  0  3  0  0  0  0  0  0
  191.9850  176.1320  138.1280 C   0  0  2  0  0  3  0  0  0  0  0  0
  191.9450  177.3780  140.1610 C   0  0  0  0  0  3  0  0  0  0  0  0
  188.9190  175.0630  136.3290 C   0  0  0  0  0  1  0  0  0  0  0  0
  189.8140  177.0230  138.9400 C   0  0  0  0  0  0  0  0  0  0  0  0
  190.1850  175.2880  137.0750 C   0  0  0  0  0  0  0  0  0  0  0  0
  190.6150  176.5750  137.7200 C   0  0  2  0  0  3  0  0  0  0  0  0
  188.4000  177.2430  138.8490 N   0  0  0  0  0  2  0  0  0  0  0  0
  186.4700  177.5980  137.4310 C   0  0  0  0  0  1  0  0  0  0  0  0
  187.7870  178.1670  137.9100 C   0  0  0  0  0  2  0  0  0  0  0  0
  191.8590  176.3630  146.3160 C   0  0  0  0  0  1  0  0  0  0  0  0
  191.3060  176.7920  145.0050 C   0  0  0  0  0  0  0  0  0  0  0  0
  191.2350  178.1520  144.6880 C   0  0  0  0  0  3  0  0  0  0  0  0
  190.3330  176.2400  142.8570 C   0  0  0  0  0  3  0  0  0  0  0  0
  190.2670  177.6000  142.5320 C   0  0  0  0  0  0  0  0  0  0  0  0
  190.7150  178.5570  143.4550 C   0  0  0  0  0  3  0  0  0  0  0  0
  190.8530  175.8370  144.0900 C   0  0  0  0  0  3  0  0  0  0  0  0
  188.3310  177.6590  141.1340 O   0  0  0  0  0  0  0  0  0  0  0  0
  187.6660  178.6060  141.9150 C   0  0  0  0  0  2  0  0  0  0  0  0
  186.1700  178.4530  141.7350 C   0  0  0  0  0  2  0  0  0  0  0  0
  183.5800  178.2960  140.6300 N   0  0  0  0  0  1  0  0  0  0  0  0
  184.1640  180.1270  139.0930 N   0  0  0  0  0  1  0  0  0  0  0  0
  185.7210  179.3180  140.6550 N   0  0  0  0  0  0  0  0  0  0  0  0
  184.5290  179.2460  140.1480 C   0  0  0  0  0  0  0  0  0  0  0  0
  1 22  1  1  0  0  0
  1 19  1  0  0  0  0
  2 10  2  0  0  0  0
  2  3  1  0  0  0  0
  3  6  1  0  0  0  0
  4  7  1  0  0  0  0
  4  1  1  0  0  0  0
  5  7  2  0  0  0  0
  6  5  1  1  0  0  0
  8 10  1  0  0  0  0
  9  4  2  0  0  0  0
 11 10  1  1  0  0  0
 11  6  1  0  0  0  0
 11  9  1  0  0  0  0
 12  9  1  0  0  0  0
 13 14  1  0  0  0  0
 14 12  1  0  0  0  0
 16 15  1  0  0  0  0
 17 16  1  0  0  0  0
 18 21  1  0  0  0  0
 19 18  2  0  0  0  0
 19 20  1  0  0  0  0
 20 17  2  0  0  0  0
 21 16  2  0  0  0  0
 22 23  1  0  0  0  0
 24 23  1  0  0  0  0
 26 28  1  0  0  0  0
 27 24  1  0  0  0  0
 28 25  1  0  0  0  0
 28 27  2  0  0  0  0
M  END
>  <MODEL>
6

>  <REMARK>
 VINA RESULT:      -7.3      2.535      6.455
  Name = 
  8 active torsions:
  status: ('A' for Active; 'I' for Inactive)
    1  A    between atoms: C_4  and  C_8
    2  A    between atoms: C_4  and  O_11
    3  A    between atoms: C_4  and  C_21
    4  A    between atoms: N_10  and  C_23
    5  A    between atoms: N_10  and  C_27
    6  A    between atoms: O_11  and  C_18
    7  A    between atoms: C_13  and  N_14
    8  A    between atoms: C_13  and  C_18
                            x       y       z     vdW  Elec       q    Type
                         _______ _______ _______ _____ _____    ______ ____

>  <TORSDO>
F 8

$$$$
=
 OpenBabel10222417273D

 28 30  0  0  1  0  0  0  0  0999 V2000
  186.9430  178.4540  143.4140 C   0  0  2  0  0  3  0  0  0  0  0  0
  189.6970  176.0060  147.7450 N   0  0  0  0  0  0  0  0  0  0  0  0
  188.3910  176.3750  148.0710 N   0  0  0  0  0  2  0  0  0  0  0  0
  187.4010  178.1920  144.8240 C   0  0  0  0  0  0  0  0  0  0  0  0
  186.6930  177.8060  147.1530 C   0  0  0  0  0  3  0  0  0  0  0  0
  188.0790  177.4400  147.4170 C   0  0  2  0  0  3  0  0  0  0  0  0
  186.3830  178.1730  145.9100 C   0  0  0  0  0  3  0  0  0  0  0  0
  191.5650  176.7100  146.3680 C   0  0  0  0  0  1  0  0  0  0  0  0
  188.7220  178.0350  145.0940 C   0  0  0  0  0  0  0  0  0  0  0  0
  190.1570  176.8000  146.8380 C   0  0  0  0  0  0  0  0  0  0  0  0
  189.1950  177.9150  146.5400 C   0  0  2  0  0  3  0  0  0  0  0  0
  189.6630  178.2170  144.0270 N   0  0  0  0  0  2  0  0  0  0  0  0
  191.9930  178.8510  143.8600 C   0  0  0  0  0  1  0  0  0  0  0  0
  190.5680  179.3510  143.9360 C   0  0  0  0  0  2  0  0  0  0  0  0
  181.2100  179.1260  143.0290 C   0  0  0  0  0  1  0  0  0  0  0  0
  182.6820  178.9540  143.1360 C   0  0  0  0  0  0  0  0  0  0  0  0
  183.3920  179.6160  144.1430 C   0  0  0  0  0  3  0  0  0  0  0  0
  184.7430  177.9700  142.3310 C   0  0  0  0  0  3  0  0  0  0  0  0
  185.4570  178.6250  143.3410 C   0  0  0  0  0  0  0  0  0  0  0  0
  184.7760  179.4550  144.2450 C   0  0  0  0  0  3  0  0  0  0  0  0
  183.3580  178.1320  142.2300 C   0  0  0  0  0  3  0  0  0  0  0  0
  187.3760  177.4430  142.5490 O   0  0  0  0  0  0  0  0  0  0  0  0
  187.8600  178.1150  141.4250 C   0  0  0  0  0  2  0  0  0  0  0  0
  188.7310  177.1790  140.6110 C   0  0  0  0  0  2  0  0  0  0  0  0
  190.8100  175.9550  139.1520 N   0  0  0  0  0  1  0  0  0  0  0  0
  192.4190  177.4520  140.2580 N   0  0  0  0  0  1  0  0  0  0  0  0
  190.1240  177.5730  140.7440 N   0  0  0  0  0  0  0  0  0  0  0  0
  191.0800  177.0110  140.0720 C   0  0  0  0  0  0  0  0  0  0  0  0
  1 22  1  6  0  0  0
  1  4  1  0  0  0  0
  2  3  1  0  0  0  0
  4  9  2  0  0  0  0
  4  7  1  0  0  0  0
  6  5  1  6  0  0  0
  6  3  1  0  0  0  0
  7  5  2  0  0  0  0
  8 10  1  0  0  0  0
 10  2  2  0  0  0  0
 11  9  1  6  0  0  0
 11 10  1  0  0  0  0
 11  6  1  0  0  0  0
 12  9  1  0  0  0  0
 13 14  1  0  0  0  0
 14 12  1  0  0  0  0
 15 16  1  0  0  0  0
 16 17  1  0  0  0  0
 17 20  2  0  0  0  0
 18 19  2  0  0  0  0
 19  1  1  0  0  0  0
 19 20  1  0  0  0  0
 21 18  1  0  0  0  0
 21 16  2  0  0  0  0
 23 22  1  0  0  0  0
 24 27  1  0  0  0  0
 24 23  1  0  0  0  0
 25 28  1  0  0  0  0
 28 26  1  0  0  0  0
 28 27  2  0  0  0  0
M  END
>  <MODEL>
7

>  <REMARK>
 VINA RESULT:      -7.2      2.185      5.862
  Name = 
  8 active torsions:
  status: ('A' for Active; 'I' for Inactive)
    1  A    between atoms: C_4  and  C_8
    2  A    between atoms: C_4  and  O_11
    3  A    between atoms: C_4  and  C_21
    4  A    between atoms: N_10  and  C_23
    5  A    between atoms: N_10  and  C_27
    6  A    between atoms: O_11  and  C_18
    7  A    between atoms: C_13  and  N_14
    8  A    between atoms: C_13  and  C_18
                            x       y       z     vdW  Elec       q    Type
                         _______ _______ _______ _____ _____    ______ ____

>  <TORSDO>
F 8

$$$$
=
 OpenBabel10222417273D

 28 30  0  0  1  0  0  0  0  0999 V2000
  189.6330  177.9450  141.3780 C   0  0  2  0  0  3  0  0  0  0  0  0
  191.4610  174.6790  137.0970 N   0  0  0  0  0  0  0  0  0  0  0  0
  192.5040  175.2100  137.8590 N   0  0  0  0  0  2  0  0  0  0  0  0
  190.4850  177.4740  140.2300 C   0  0  0  0  0  0  0  0  0  0  0  0
  192.7750  176.9700  139.4710 C   0  0  0  0  0  3  0  0  0  0  0  0
  192.1560  176.3710  138.2960 C   0  0  2  0  0  3  0  0  0  0  0  0
  191.9660  177.5030  140.3850 C   0  0  0  0  0  3  0  0  0  0  0  0
  189.2280  175.2210  136.3230 C   0  0  0  0  0  1  0  0  0  0  0  0
  189.9070  177.0900  139.0640 C   0  0  0  0  0  0  0  0  0  0  0  0
  190.4500  175.4790  137.1300 C   0  0  0  0  0  0  0  0  0  0  0  0
  190.7770  176.7530  137.8560 C   0  0  2  0  0  3  0  0  0  0  0  0
  188.4860  177.2320  138.9270 N   0  0  0  0  0  2  0  0  0  0  0  0
  186.5150  177.5900  137.5690 C   0  0  0  0  0  1  0  0  0  0  0  0
  187.8540  178.1490  137.9940 C   0  0  0  0  0  2  0  0  0  0  0  0
  191.9000  176.3730  146.4620 C   0  0  0  0  0  1  0  0  0  0  0  0
  191.3130  176.7700  145.1560 C   0  0  0  0  0  0  0  0  0  0  0  0
  190.9830  175.7920  144.2130 C   0  0  0  0  0  3  0  0  0  0  0  0
  190.5390  178.4930  143.6420 C   0  0  0  0  0  3  0  0  0  0  0  0
  190.2010  177.5190  142.6960 C   0  0  0  0  0  0  0  0  0  0  0  0
  190.4300  176.1640  142.9840 C   0  0  0  0  0  3  0  0  0  0  0  0
  191.0920  178.1200  144.8700 C   0  0  0  0  0  3  0  0  0  0  0  0
  188.3110  177.5070  141.2350 O   0  0  0  0  0  0  0  0  0  0  0  0
  187.5350  178.5070  141.8220 C   0  0  0  0  0  2  0  0  0  0  0  0
  186.5000  177.8780  142.7320 C   0  0  0  0  0  2  0  0  0  0  0  0
  185.6020  178.8150  145.2350 N   0  0  0  0  0  1  0  0  0  0  0  0
  187.3790  177.5050  146.3220 N   0  0  0  0  0  1  0  0  0  0  0  0
  187.1270  177.4950  143.9870 N   0  0  0  0  0  0  0  0  0  0  0  0
  186.7130  177.9250  145.1380 C   0  0  0  0  0  0  0  0  0  0  0  0
  1 22  1  6  0  0  0
  1 19  1  0  0  0  0
  2 10  2  0  0  0  0
  2  3  1  0  0  0  0
  3  6  1  0  0  0  0
  4  7  1  0  0  0  0
  4  1  1  0  0  0  0
  5  7  2  0  0  0  0
  6  5  1  1  0  0  0
  8 10  1  0  0  0  0
  9  4  2  0  0  0  0
 11 10  1  1  0  0  0
 11  6  1  0  0  0  0
 11  9  1  0  0  0  0
 12  9  1  0  0  0  0
 13 14  1  0  0  0  0
 14 12  1  0  0  0  0
 16 15  1  0  0  0  0
 17 16  2  0  0  0  0
 18 21  2  0  0  0  0
 19 20  2  0  0  0  0
 19 18  1  0  0  0  0
 20 17  1  0  0  0  0
 21 16  1  0  0  0  0
 22 23  1  0  0  0  0
 23 24  1  0  0  0  0
 24 27  1  0  0  0  0
 27 28  2  0  0  0  0
 28 25  1  0  0  0  0
 28 26  1  0  0  0  0
M  END
>  <MODEL>
8

>  <REMARK>
 VINA RESULT:      -7.2      2.055      6.363
  Name = 
  8 active torsions:
  status: ('A' for Active; 'I' for Inactive)
    1  A    between atoms: C_4  and  C_8
    2  A    between atoms: C_4  and  O_11
    3  A    between atoms: C_4  and  C_21
    4  A    between atoms: N_10  and  C_23
    5  A    between atoms: N_10  and  C_27
    6  A    between atoms: O_11  and  C_18
    7  A    between atoms: C_13  and  N_14
    8  A    between atoms: C_13  and  C_18
                            x       y       z     vdW  Elec       q    Type
                         _______ _______ _______ _____ _____    ______ ____

>  <TORSDO>
F 8

$$$$
=
 OpenBabel10222417273D

 28 30  0  0  1  0  0  0  0  0999 V2000
  183.6610  178.9370  139.8150 C   0  0  2  0  0  3  0  0  0  0  0  0
  183.2560  175.1790  135.5670 N   0  0  0  0  0  0  0  0  0  0  0  0
  182.4540  174.8500  136.6610 N   0  0  0  0  0  2  0  0  0  0  0  0
  183.5440  177.6090  139.1150 C   0  0  0  0  0  0  0  0  0  0  0  0
  182.2940  175.4900  138.9710 C   0  0  0  0  0  3  0  0  0  0  0  0
  183.0360  175.2420  137.7410 C   0  0  2  0  0  3  0  0  0  0  0  0
  182.5530  176.6220  139.6250 C   0  0  0  0  0  3  0  0  0  0  0  0
  185.3750  176.2300  135.0330 C   0  0  0  0  0  1  0  0  0  0  0  0
  184.3700  177.3080  138.0800 C   0  0  0  0  0  0  0  0  0  0  0  0
  184.2900  175.8360  135.9700 C   0  0  0  0  0  0  0  0  0  0  0  0
  184.3480  175.9090  137.4700 C   0  0  2  0  0  3  0  0  0  0  0  0
  185.4040  178.2410  137.7390 N   0  0  0  0  0  2  0  0  0  0  0  0
  187.6240  178.6240  136.8530 C   0  0  0  0  0  1  0  0  0  0  0  0
  186.8180  177.9950  137.9680 C   0  0  0  0  0  2  0  0  0  0  0  0
  185.7710  178.2550  145.1570 C   0  0  0  0  0  1  0  0  0  0  0  0
  185.2230  178.4350  143.7880 C   0  0  0  0  0  0  0  0  0  0  0  0
  183.8500  178.6240  143.6040 C   0  0  0  0  0  3  0  0  0  0  0  0
  185.5650  178.5850  141.3960 C   0  0  0  0  0  3  0  0  0  0  0  0
  184.1920  178.7810  141.2060 C   0  0  0  0  0  0  0  0  0  0  0  0
  183.3340  178.7950  142.3170 C   0  0  0  0  0  3  0  0  0  0  0  0
  186.0800  178.4150  142.6840 C   0  0  0  0  0  3  0  0  0  0  0  0
  182.4360  179.6120  139.8170 O   0  0  0  0  0  0  0  0  0  0  0  0
  182.4980  180.4740  138.7200 C   0  0  0  0  0  2  0  0  0  0  0  0
  181.2370  181.3130  138.6620 C   0  0  0  0  0  2  0  0  0  0  0  0
  180.3720  182.4810  136.2460 N   0  0  0  0  0  1  0  0  0  0  0  0
  181.5540  184.5480  136.8630 N   0  0  0  0  0  1  0  0  0  0  0  0
  181.5780  182.6740  138.2790 N   0  0  0  0  0  0  0  0  0  0  0  0
  181.1790  183.2110  137.1680 C   0  0  0  0  0  0  0  0  0  0  0  0
  1 22  1  1  0  0  0
  1 19  1  0  0  0  0
  2 10  2  0  0  0  0
  2  3  1  0  0  0  0
  3  6  1  0  0  0  0
  4  7  1  0  0  0  0
  4  1  1  0  0  0  0
  5  7  2  0  0  0  0
  6  5  1  6  0  0  0
  8 10  1  0  0  0  0
  9  4  2  0  0  0  0
 11 10  1  6  0  0  0
 11  6  1  0  0  0  0
 11  9  1  0  0  0  0
 12 14  1  0  0  0  0
 12  9  1  0  0  0  0
 13 14  1  0  0  0  0
 16 15  1  0  0  0  0
 17 16  1  0  0  0  0
 18 21  1  0  0  0  0
 19 18  2  0  0  0  0
 19 20  1  0  0  0  0
 20 17  2  0  0  0  0
 21 16  2  0  0  0  0
 23 22  1  0  0  0  0
 24 23  1  0  0  0  0
 25 28  1  0  0  0  0
 26 28  1  0  0  0  0
 27 24  1  0  0  0  0
 28 27  2  0  0  0  0
M  END
>  <MODEL>
9

>  <REMARK>
 VINA RESULT:      -7.1      5.274      8.862
  Name = 
  8 active torsions:
  status: ('A' for Active; 'I' for Inactive)
    1  A    between atoms: C_4  and  C_8
    2  A    between atoms: C_4  and  O_11
    3  A    between atoms: C_4  and  C_21
    4  A    between atoms: N_10  and  C_23
    5  A    between atoms: N_10  and  C_27
    6  A    between atoms: O_11  and  C_18
    7  A    between atoms: C_13  and  N_14
    8  A    between atoms: C_13  and  C_18
                            x       y       z     vdW  Elec       q    Type
                         _______ _______ _______ _____ _____    ______ ____

>  <TORSDO>
F 8

$$$$
