=
 OpenBabel10222415283D

 31 34  0  0  1  0  0  0  0  0999 V2000
  186.1940  178.0860  144.4950 C   0  0  0  0  0  0  0  0  0  0  0  0
  190.6390  177.0900  144.8480 C   0  0  0  0  0  3  0  0  0  0  0  0
  189.0460  177.6560  143.3100 C   0  0  0  0  0  3  0  0  0  0  0  0
  187.8650  178.0060  142.6580 O   0  0  0  0  0  0  0  0  0  0  0  0
  188.3840  177.4540  145.6830 C   0  0  0  0  0  0  0  0  0  0  0  0
  188.0120  177.1920  148.0860 O   0  0  0  0  0  1  0  0  0  0  0  0
  190.2060  176.8480  147.1980 C   0  0  0  0  0  3  0  0  0  0  0  0
  183.9340  178.6270  143.9380 C   0  0  0  0  0  0  0  0  0  0  0  0
  186.5730  178.2060  143.1450 C   0  0  0  0  0  0  0  0  0  0  0  0
  187.0830  177.7420  145.6010 C   0  0  0  0  0  3  0  0  0  0  0  0
  184.8940  178.3030  144.8410 N   0  0  0  0  0  0  0  0  0  0  0  0
  188.8650  177.1660  146.9840 C   0  0  0  0  0  0  0  0  0  0  0  0
  189.3000  177.4140  144.5960 C   0  0  0  0  0  0  0  0  0  0  0  0
  184.2680  178.7620  142.5960 C   0  0  0  0  0  3  0  0  0  0  0  0
  191.0930  176.8090  146.1330 C   0  0  0  0  0  3  0  0  0  0  0  0
  185.5880  178.5560  142.2010 C   0  0  0  0  0  0  0  0  0  0  0  0
  182.5370  178.8670  144.3870 C   0  0  0  0  0  2  0  0  0  0  0  0
  181.6060  178.9090  143.1900 C   0  0  0  0  0  2  0  0  0  0  0  0
  180.1930  178.8570  143.6470 C   0  0  0  0  0  0  0  0  0  0  0  0
  179.7610  177.8180  144.2170 O   0  0  0  0  0  0  0  0  0  0  0  0
  179.3830  180.6620  142.1860 C   0  0  0  0  0  1  0  0  0  0  0  0
  179.3530  179.9450  143.4110 O   0  0  0  0  0  0  0  0  0  0  0  0
  185.9240  178.6800  140.7520 C   0  0  0  0  0  2  0  0  0  0  0  0
  184.9300  179.5060  140.0870 N   0  0  0  0  0  2  0  0  0  0  0  0
  185.4870  177.2640  137.1000 C   0  0  0  0  0  0  0  0  0  0  0  0
  184.5820  178.8400  138.8430 C   0  0  2  0  0  3  0  0  0  0  0  0
  183.3040  176.8420  138.1810 C   0  0  0  0  0  3  0  0  0  0  0  0
  184.0590  176.8380  136.8790 C   0  0  0  0  0  2  0  0  0  0  0  0
  183.5480  177.7810  139.1060 C   0  0  0  0  0  3  0  0  0  0  0  0
  185.8390  178.2380  138.1980 C   0  0  0  0  0  2  0  0  0  0  0  0
  186.3640  176.8340  136.3720 O   0  0  0  0  0  0  0  0  0  0  0  0
  1 11  1  0  0  0  0
  1 10  1  0  0  0  0
  2 15  2  0  0  0  0
  3 13  2  0  0  0  0
  4  9  1  0  0  0  0
  4  3  1  0  0  0  0
  5 12  1  0  0  0  0
  8 17  1  0  0  0  0
  8 11  2  0  0  0  0
  9  1  2  0  0  0  0
 10  5  2  0  0  0  0
 12  7  2  0  0  0  0
 12  6  1  0  0  0  0
 13  2  1  0  0  0  0
 13  5  1  0  0  0  0
 14  8  1  0  0  0  0
 15  7  1  0  0  0  0
 16 14  2  0  0  0  0
 16  9  1  0  0  0  0
 18 19  1  0  0  0  0
 18 17  1  0  0  0  0
 19 20  2  0  0  0  0
 21 22  1  0  0  0  0
 22 19  1  0  0  0  0
 23 16  1  0  0  0  0
 24 23  1  0  0  0  0
 25 30  1  0  0  0  0
 26 29  1  0  0  0  0
 26 24  1  1  0  0  0
 27 29  2  0  0  0  0
 28 25  1  0  0  0  0
 28 27  1  0  0  0  0
 30 26  1  0  0  0  0
 31 25  2  0  0  0  0
M  END
>  <MODEL>
1

>  <REMARK>
 VINA RESULT:      -9.2      0.000      0.000
  Name = 
  7 active torsions:
  status: ('A' for Active; 'I' for Inactive)
    1  A    between atoms: C_2  and  C_14
    2  A    between atoms: C_2  and  C_20
    3  A    between atoms: C_11  and  C_20
    4  A    between atoms: C_13  and  N_27
    5  A    between atoms: C_14  and  O_19
    6  A    between atoms: C_26  and  N_27
    7  A    between atoms: C_26  and  C_31
                            x       y       z     vdW  Elec       q    Type
                         _______ _______ _______ _____ _____    ______ ____

>  <TORSDO>
F 7

$$$$
=
 OpenBabel10222415283D

 31 34  0  0  1  0  0  0  0  0999 V2000
  188.0360  177.7120  143.7230 C   0  0  0  0  0  0  0  0  0  0  0  0
  191.9870  176.2010  145.4500 C   0  0  0  0  0  3  0  0  0  0  0  0
  190.9920  176.7510  143.4680 C   0  0  0  0  0  3  0  0  0  0  0  0
  190.1090  177.1580  142.4700 O   0  0  0  0  0  0  0  0  0  0  0  0
  189.6830  176.9700  145.5530 C   0  0  0  0  0  0  0  0  0  0  0  0
  188.6310  177.0960  147.7570 O   0  0  0  0  0  1  0  0  0  0  0  0
  190.8950  176.3480  147.5840 C   0  0  0  0  0  3  0  0  0  0  0  0
  186.1370  178.4610  142.4830 C   0  0  0  0  0  0  0  0  0  0  0  0
  188.7840  177.5920  142.5370 C   0  0  0  0  0  0  0  0  0  0  0  0
  188.5190  177.4120  145.0680 C   0  0  0  0  0  3  0  0  0  0  0  0
  186.7460  178.1430  143.6530 N   0  0  0  0  0  0  0  0  0  0  0  0
  189.7350  176.8060  146.9590 C   0  0  0  0  0  0  0  0  0  0  0  0
  190.8410  176.6590  144.7890 C   0  0  0  0  0  0  0  0  0  0  0  0
  186.8420  178.3630  141.2900 C   0  0  0  0  0  3  0  0  0  0  0  0
  192.0210  176.0440  146.8320 C   0  0  0  0  0  3  0  0  0  0  0  0
  188.1670  177.9330  141.3180 C   0  0  0  0  0  0  0  0  0  0  0  0
  184.7300  178.9430  142.4810 C   0  0  0  0  0  2  0  0  0  0  0  0
  184.4650  179.7770  143.7210 C   0  0  0  0  0  2  0  0  0  0  0  0
  183.4780  179.0870  144.5920 C   0  0  0  0  0  0  0  0  0  0  0  0
  182.4120  178.6370  144.0910 O   0  0  0  0  0  0  0  0  0  0  0  0
  184.9560  178.4610  146.4560 C   0  0  0  0  0  1  0  0  0  0  0  0
  183.7290  178.9750  145.9600 O   0  0  0  0  0  0  0  0  0  0  0  0
  188.9010  177.8090  140.0250 C   0  0  0  0  0  2  0  0  0  0  0  0
  188.6510  178.9810  139.2040 N   0  0  0  0  0  2  0  0  0  0  0  0
  190.0270  176.7950  136.4510 C   0  0  0  0  0  0  0  0  0  0  0  0
  189.0360  178.6430  137.8450 C   0  0  2  0  0  3  0  0  0  0  0  0
  187.8980  177.8700  135.8020 C   0  0  0  0  0  3  0  0  0  0  0  0
  189.2210  177.3530  135.3070 C   0  0  0  0  0  2  0  0  0  0  0  0
  187.8070  178.4760  136.9940 C   0  0  0  0  0  3  0  0  0  0  0  0
  189.8880  177.3650  137.8400 C   0  0  0  0  0  2  0  0  0  0  0  0
  190.8150  175.8870  136.2470 O   0  0  0  0  0  0  0  0  0  0  0  0
  1 10  1  0  0  0  0
  2 15  2  0  0  0  0
  3 13  2  0  0  0  0
  4  9  1  0  0  0  0
  4  3  1  0  0  0  0
  5 12  1  0  0  0  0
  8 11  2  0  0  0  0
  9  1  2  0  0  0  0
 10  5  2  0  0  0  0
 11  1  1  0  0  0  0
 12  7  2  0  0  0  0
 12  6  1  0  0  0  0
 13  2  1  0  0  0  0
 13  5  1  0  0  0  0
 14 16  2  0  0  0  0
 14  8  1  0  0  0  0
 15  7  1  0  0  0  0
 16  9  1  0  0  0  0
 17  8  1  0  0  0  0
 17 18  1  0  0  0  0
 18 19  1  0  0  0  0
 19 22  1  0  0  0  0
 20 19  2  0  0  0  0
 22 21  1  0  0  0  0
 23 16  1  0  0  0  0
 24 23  1  0  0  0  0
 25 30  1  0  0  0  0
 26 24  1  1  0  0  0
 27 29  2  0  0  0  0
 28 27  1  0  0  0  0
 28 25  1  0  0  0  0
 29 26  1  0  0  0  0
 30 26  1  0  0  0  0
 31 25  2  0  0  0  0
M  END
>  <MODEL>
2

>  <REMARK>
 VINA RESULT:      -9.1      2.559      3.437
  Name = 
  7 active torsions:
  status: ('A' for Active; 'I' for Inactive)
    1  A    between atoms: C_2  and  C_14
    2  A    between atoms: C_2  and  C_20
    3  A    between atoms: C_11  and  C_20
    4  A    between atoms: C_13  and  N_27
    5  A    between atoms: C_14  and  O_19
    6  A    between atoms: C_26  and  N_27
    7  A    between atoms: C_26  and  C_31
                            x       y       z     vdW  Elec       q    Type
                         _______ _______ _______ _____ _____    ______ ____

>  <TORSDO>
F 7

$$$$
=
 OpenBabel10222415283D

 31 34  0  0  1  0  0  0  0  0999 V2000
  190.8830  177.3380  140.6460 C   0  0  0  0  0  0  0  0  0  0  0  0
  190.1180  176.4840  136.2240 C   0  0  0  0  0  3  0  0  0  0  0  0
  189.0640  177.2110  138.1170 C   0  0  0  0  0  3  0  0  0  0  0  0
  188.7430  177.6070  139.4140 O   0  0  0  0  0  0  0  0  0  0  0  0
  191.4620  176.6240  138.2450 C   0  0  0  0  0  0  0  0  0  0  0  0
  193.8170  175.9840  138.0840 O   0  0  0  0  0  1  0  0  0  0  0  0
  192.4380  175.8700  136.1340 C   0  0  0  0  0  3  0  0  0  0  0  0
  190.9140  177.8640  142.9770 C   0  0  0  0  0  0  0  0  0  0  0  0
  189.5200  177.6780  140.5710 C   0  0  0  0  0  0  0  0  0  0  0  0
  191.7060  176.8670  139.5360 C   0  0  0  0  0  3  0  0  0  0  0  0
  191.5290  177.4460  141.8410 N   0  0  0  0  0  0  0  0  0  0  0  0
  192.5680  176.1610  137.4920 C   0  0  0  0  0  0  0  0  0  0  0  0
  190.2120  176.7870  137.5880 C   0  0  0  0  0  0  0  0  0  0  0  0
  189.5710  178.2150  142.9440 C   0  0  0  0  0  3  0  0  0  0  0  0
  191.2150  176.0300  135.4990 C   0  0  0  0  0  3  0  0  0  0  0  0
  188.8750  178.1260  141.7400 C   0  0  0  0  0  0  0  0  0  0  0  0
  191.6840  177.9750  144.2450 C   0  0  0  0  0  2  0  0  0  0  0  0
  191.5160  176.7100  145.0670 C   0  0  0  0  0  2  0  0  0  0  0  0
  190.9990  177.0520  146.4180 C   0  0  0  0  0  0  0  0  0  0  0  0
  189.8550  177.5670  146.5340 O   0  0  0  0  0  0  0  0  0  0  0  0
  192.6020  175.6620  147.6630 C   0  0  0  0  0  1  0  0  0  0  0  0
  191.8010  176.8270  147.5380 O   0  0  0  0  0  0  0  0  0  0  0  0
  187.4260  178.4830  141.7280 C   0  0  0  0  0  2  0  0  0  0  0  0
  186.6790  177.5260  142.5270 N   0  0  0  0  0  2  0  0  0  0  0  0
  184.3580  178.8070  145.2160 C   0  0  0  0  0  0  0  0  0  0  0  0
  186.3250  178.1900  143.7700 C   0  0  2  0  0  3  0  0  0  0  0  0
  186.3020  177.6100  146.1640 C   0  0  0  0  0  3  0  0  0  0  0  0
  185.3070  178.7170  146.3830 C   0  0  0  0  0  2  0  0  0  0  0  0
  186.7820  177.3590  144.9380 C   0  0  0  0  0  3  0  0  0  0  0  0
  184.8100  178.4340  143.8260 C   0  0  0  0  0  2  0  0  0  0  0  0
  183.2200  179.2060  145.3930 O   0  0  0  0  0  0  0  0  0  0  0  0
  1 11  1  0  0  0  0
  2 13  1  0  0  0  0
  3  4  1  0  0  0  0
  4  9  1  0  0  0  0
  5 10  2  0  0  0  0
  7 12  2  0  0  0  0
  8 17  1  0  0  0  0
  9  1  2  0  0  0  0
  9 16  1  0  0  0  0
 10  1  1  0  0  0  0
 11  8  2  0  0  0  0
 12  6  1  0  0  0  0
 12  5  1  0  0  0  0
 13  3  2  0  0  0  0
 13  5  1  0  0  0  0
 14  8  1  0  0  0  0
 15  7  1  0  0  0  0
 15  2  2  0  0  0  0
 16 14  2  0  0  0  0
 17 18  1  0  0  0  0
 18 19  1  0  0  0  0
 19 20  2  0  0  0  0
 19 22  1  0  0  0  0
 22 21  1  0  0  0  0
 23 16  1  0  0  0  0
 23 24  1  0  0  0  0
 25 31  2  0  0  0  0
 25 28  1  0  0  0  0
 26 24  1  6  0  0  0
 26 30  1  0  0  0  0
 26 29  1  0  0  0  0
 27 28  1  0  0  0  0
 29 27  2  0  0  0  0
 30 25  1  0  0  0  0
M  END
>  <MODEL>
3

>  <REMARK>
 VINA RESULT:      -9.1      3.854      8.540
  Name = 
  7 active torsions:
  status: ('A' for Active; 'I' for Inactive)
    1  A    between atoms: C_2  and  C_14
    2  A    between atoms: C_2  and  C_20
    3  A    between atoms: C_11  and  C_20
    4  A    between atoms: C_13  and  N_27
    5  A    between atoms: C_14  and  O_19
    6  A    between atoms: C_26  and  N_27
    7  A    between atoms: C_26  and  C_31
                            x       y       z     vdW  Elec       q    Type
                         _______ _______ _______ _____ _____    ______ ____

>  <TORSDO>
F 7

$$$$
=
 OpenBabel10222415283D

 31 34  0  0  1  0  0  0  0  0999 V2000
  188.0230  178.0810  143.9270 C   0  0  0  0  0  0  0  0  0  0  0  0
  183.6350  178.6930  142.8130 C   0  0  0  0  0  3  0  0  0  0  0  0
  185.6810  178.2860  141.8790 C   0  0  0  0  0  3  0  0  0  0  0  0
  187.0340  178.0470  141.6480 O   0  0  0  0  0  0  0  0  0  0  0  0
  185.5210  178.5080  144.3360 C   0  0  0  0  0  0  0  0  0  0  0  0
  185.0740  178.7640  146.7260 O   0  0  0  0  0  1  0  0  0  0  0  0
  183.2640  178.9350  145.1730 C   0  0  0  0  0  3  0  0  0  0  0  0
  190.3790  177.7420  144.1370 C   0  0  0  0  0  0  0  0  0  0  0  0
  188.1120  177.9500  142.5290 C   0  0  0  0  0  0  0  0  0  0  0  0
  186.7990  178.3320  144.6830 C   0  0  0  0  0  3  0  0  0  0  0  0
  189.1550  177.9700  144.6770 N   0  0  0  0  0  0  0  0  0  0  0  0
  184.6240  178.7350  145.4080 C   0  0  0  0  0  0  0  0  0  0  0  0
  185.0060  178.4870  143.0110 C   0  0  0  0  0  0  0  0  0  0  0  0
  190.5090  177.5990  142.7610 C   0  0  0  0  0  3  0  0  0  0  0  0
  182.7680  178.9150  143.8780 C   0  0  0  0  0  3  0  0  0  0  0  0
  189.3750  177.6990  141.9580 C   0  0  0  0  0  0  0  0  0  0  0  0
  191.5710  177.6140  145.0170 C   0  0  0  0  0  2  0  0  0  0  0  0
  191.4880  176.3290  145.8210 C   0  0  0  0  0  2  0  0  0  0  0  0
  191.1950  176.6430  147.2440 C   0  0  0  0  0  0  0  0  0  0  0  0
  192.1460  176.8610  148.0420 O   0  0  0  0  0  0  0  0  0  0  0  0
  189.2330  177.8590  148.0950 C   0  0  0  0  0  1  0  0  0  0  0  0
  189.8720  176.6590  147.6860 O   0  0  0  0  0  0  0  0  0  0  0  0
  189.5360  177.5690  140.4810 C   0  0  0  0  0  2  0  0  0  0  0  0
  190.4540  176.4810  140.1810 N   0  0  0  0  0  2  0  0  0  0  0  0
  189.7150  177.2580  136.5610 C   0  0  0  0  0  0  0  0  0  0  0  0
  190.3380  176.2020  138.7600 C   0  0  2  0  0  3  0  0  0  0  0  0
  191.8660  176.0690  136.8330 C   0  0  0  0  0  3  0  0  0  0  0  0
  190.6830  176.2910  135.9290 C   0  0  0  0  0  2  0  0  0  0  0  0
  191.7080  176.0280  138.1630 C   0  0  0  0  0  3  0  0  0  0  0  0
  189.5700  177.3330  138.0610 C   0  0  0  0  0  2  0  0  0  0  0  0
  189.0270  177.9720  135.8520 O   0  0  0  0  0  0  0  0  0  0  0  0
  1 11  1  0  0  0  0
  1 10  1  0  0  0  0
  2 13  1  0  0  0  0
  2 15  2  0  0  0  0
  3 13  2  0  0  0  0
  4  3  1  0  0  0  0
  4  9  1  0  0  0  0
  5 10  2  0  0  0  0
  5 12  1  0  0  0  0
  7 12  2  0  0  0  0
  8 11  2  0  0  0  0
  8 17  1  0  0  0  0
  9  1  2  0  0  0  0
 12  6  1  0  0  0  0
 13  5  1  0  0  0  0
 14  8  1  0  0  0  0
 15  7  1  0  0  0  0
 16  9  1  0  0  0  0
 16 14  2  0  0  0  0
 17 18  1  0  0  0  0
 18 19  1  0  0  0  0
 19 22  1  0  0  0  0
 19 20  2  0  0  0  0
 22 21  1  0  0  0  0
 23 16  1  0  0  0  0
 24 23  1  0  0  0  0
 25 30  1  0  0  0  0
 26 24  1  1  0  0  0
 27 29  2  0  0  0  0
 28 25  1  0  0  0  0
 28 27  1  0  0  0  0
 29 26  1  0  0  0  0
 30 26  1  0  0  0  0
 31 25  2  0  0  0  0
M  END
>  <MODEL>
4

>  <REMARK>
 VINA RESULT:      -8.9      3.127      6.977
  Name = 
  7 active torsions:
  status: ('A' for Active; 'I' for Inactive)
    1  A    between atoms: C_2  and  C_14
    2  A    between atoms: C_2  and  C_20
    3  A    between atoms: C_11  and  C_20
    4  A    between atoms: C_13  and  N_27
    5  A    between atoms: C_14  and  O_19
    6  A    between atoms: C_26  and  N_27
    7  A    between atoms: C_26  and  C_31
                            x       y       z     vdW  Elec       q    Type
                         _______ _______ _______ _____ _____    ______ ____

>  <TORSDO>
F 7

$$$$
=
 OpenBabel10222415283D

 31 34  0  0  1  0  0  0  0  0999 V2000
  187.7930  178.0630  139.7330 C   0  0  0  0  0  0  0  0  0  0  0  0
  190.7470  176.5350  136.6000 C   0  0  0  0  0  3  0  0  0  0  0  0
  190.4760  176.7340  138.8600 C   0  0  0  0  0  3  0  0  0  0  0  0
  190.0020  177.0010  140.1430 O   0  0  0  0  0  0  0  0  0  0  0  0
  188.6780  177.5520  137.3740 C   0  0  0  0  0  0  0  0  0  0  0  0
  187.0660  178.2670  135.6790 O   0  0  0  0  0  1  0  0  0  0  0  0
  189.1210  177.2600  134.9860 C   0  0  0  0  0  3  0  0  0  0  0  0
  186.5140  178.7640  141.6240 C   0  0  0  0  0  0  0  0  0  0  0  0
  188.8150  177.5920  140.5780 C   0  0  0  0  0  0  0  0  0  0  0  0
  187.8020  178.0060  138.2740 C   0  0  0  0  0  3  0  0  0  0  0  0
  186.6830  178.6270  140.2850 N   0  0  0  0  0  0  0  0  0  0  0  0
  188.2900  177.6930  136.0190 C   0  0  0  0  0  0  0  0  0  0  0  0
  189.9370  176.9580  137.6620 C   0  0  0  0  0  0  0  0  0  0  0  0
  187.4950  178.3060  142.4940 C   0  0  0  0  0  3  0  0  0  0  0  0
  190.3490  176.6820  135.2740 C   0  0  0  0  0  3  0  0  0  0  0  0
  188.6440  177.7160  141.9710 C   0  0  0  0  0  0  0  0  0  0  0  0
  185.2670  179.3740  142.1600 C   0  0  0  0  0  2  0  0  0  0  0  0
  184.5010  178.3540  142.9810 C   0  0  0  0  0  2  0  0  0  0  0  0
  184.2220  178.9020  144.3350 C   0  0  0  0  0  0  0  0  0  0  0  0
  183.0300  179.0080  144.7290 O   0  0  0  0  0  0  0  0  0  0  0  0
  185.6430  178.6280  146.3240 C   0  0  0  0  0  1  0  0  0  0  0  0
  185.2830  179.3200  145.1380 O   0  0  0  0  0  0  0  0  0  0  0  0
  189.7000  177.2530  142.9180 C   0  0  0  0  0  2  0  0  0  0  0  0
  190.3220  178.4000  143.5570 N   0  0  0  0  0  2  0  0  0  0  0  0
  189.4800  176.9700  146.9480 C   0  0  0  0  0  0  0  0  0  0  0  0
  190.5650  178.0390  144.9430 C   0  0  2  0  0  3  0  0  0  0  0  0
  191.6890  176.2060  146.1440 C   0  0  0  0  0  3  0  0  0  0  0  0
  190.8680  176.5490  147.3570 C   0  0  0  0  0  2  0  0  0  0  0  0
  191.5490  176.9030  145.0080 C   0  0  0  0  0  3  0  0  0  0  0  0
  189.2440  177.6650  145.6300 C   0  0  0  0  0  2  0  0  0  0  0  0
  188.5420  176.7670  147.6990 O   0  0  0  0  0  0  0  0  0  0  0  0
  1 11  2  0  0  0  0
  1  9  1  0  0  0  0
  2 13  1  0  0  0  0
  3  4  1  0  0  0  0
  4  9  1  0  0  0  0
  5 13  1  0  0  0  0
  5 10  2  0  0  0  0
  6 12  1  0  0  0  0
  7 15  1  0  0  0  0
  7 12  2  0  0  0  0
  8 17  1  0  0  0  0
  8 14  2  0  0  0  0
  9 16  2  0  0  0  0
 10  1  1  0  0  0  0
 11  8  1  0  0  0  0
 12  5  1  0  0  0  0
 13  3  2  0  0  0  0
 15  2  2  0  0  0  0
 16 14  1  0  0  0  0
 16 23  1  0  0  0  0
 17 18  1  0  0  0  0
 18 19  1  0  0  0  0
 19 20  2  0  0  0  0
 19 22  1  0  0  0  0
 22 21  1  0  0  0  0
 23 24  1  0  0  0  0
 25 28  1  0  0  0  0
 25 31  2  0  0  0  0
 26 24  1  6  0  0  0
 26 29  1  0  0  0  0
 26 30  1  0  0  0  0
 27 28  1  0  0  0  0
 29 27  2  0  0  0  0
 30 25  1  0  0  0  0
M  END
>  <MODEL>
5

>  <REMARK>
 VINA RESULT:      -8.8      2.790      7.838
  Name = 
  7 active torsions:
  status: ('A' for Active; 'I' for Inactive)
    1  A    between atoms: C_2  and  C_14
    2  A    between atoms: C_2  and  C_20
    3  A    between atoms: C_11  and  C_20
    4  A    between atoms: C_13  and  N_27
    5  A    between atoms: C_14  and  O_19
    6  A    between atoms: C_26  and  N_27
    7  A    between atoms: C_26  and  C_31
                            x       y       z     vdW  Elec       q    Type
                         _______ _______ _______ _____ _____    ______ ____

>  <TORSDO>
F 7

$$$$
=
 OpenBabel10222415283D

 31 34  0  0  1  0  0  0  0  0999 V2000
  187.8630  177.8940  143.1730 C   0  0  0  0  0  0  0  0  0  0  0  0
  191.6360  176.6320  145.4190 C   0  0  0  0  0  3  0  0  0  0  0  0
  190.8740  177.0940  143.3150 C   0  0  0  0  0  3  0  0  0  0  0  0
  190.1050  177.4350  142.2040 O   0  0  0  0  0  0  0  0  0  0  0  0
  189.3000  177.2740  145.2130 C   0  0  0  0  0  0  0  0  0  0  0  0
  187.9710  177.3770  147.2620 O   0  0  0  0  0  1  0  0  0  0  0  0
  190.2750  176.7520  147.3940 C   0  0  0  0  0  3  0  0  0  0  0  0
  186.1000  178.5160  141.6850 C   0  0  0  0  0  0  0  0  0  0  0  0
  188.7610  177.7960  142.0940 C   0  0  0  0  0  0  0  0  0  0  0  0
  188.1860  177.6420  144.5740 C   0  0  0  0  0  3  0  0  0  0  0  0
  186.5720  178.2510  142.9300 N   0  0  0  0  0  0  0  0  0  0  0  0
  189.1820  177.1350  146.6170 C   0  0  0  0  0  0  0  0  0  0  0  0
  190.5610  177.0150  144.6080 C   0  0  0  0  0  0  0  0  0  0  0  0
  186.9560  178.4380  140.5940 C   0  0  0  0  0  3  0  0  0  0  0  0
  191.5020  176.5000  146.7970 C   0  0  0  0  0  3  0  0  0  0  0  0
  188.2870  178.0830  140.7990 C   0  0  0  0  0  0  0  0  0  0  0  0
  184.6810  178.9190  141.4940 C   0  0  0  0  0  2  0  0  0  0  0  0
  184.1580  178.3700  140.1800 C   0  0  0  0  0  2  0  0  0  0  0  0
  183.5150  179.4590  139.3980 C   0  0  0  0  0  0  0  0  0  0  0  0
  184.1840  180.4840  139.0930 O   0  0  0  0  0  0  0  0  0  0  0  0
  181.1270  179.6300  139.9590 C   0  0  0  0  0  1  0  0  0  0  0  0
  182.1720  179.3480  139.0400 O   0  0  0  0  0  0  0  0  0  0  0  0
  189.1860  177.9780  139.6130 C   0  0  0  0  0  2  0  0  0  0  0  0
  189.0470  179.1660  138.7860 N   0  0  0  0  0  2  0  0  0  0  0  0
  189.5130  176.7290  135.9400 C   0  0  0  0  0  0  0  0  0  0  0  0
  189.0510  178.7270  137.4010 C   0  0  2  0  0  3  0  0  0  0  0  0
  187.3780  177.9620  135.7630 C   0  0  0  0  0  3  0  0  0  0  0  0
  188.4900  177.3020  134.9940 C   0  0  0  0  0  2  0  0  0  0  0  0
  187.6370  178.6320  136.8950 C   0  0  0  0  0  3  0  0  0  0  0  0
  189.7730  177.3780  137.2770 C   0  0  0  0  0  2  0  0  0  0  0  0
  190.1520  175.7440  135.6130 O   0  0  0  0  0  0  0  0  0  0  0  0
  1 10  1  0  0  0  0
  2 15  2  0  0  0  0
  3 13  2  0  0  0  0
  4  3  1  0  0  0  0
  5 12  1  0  0  0  0
  8 11  2  0  0  0  0
  9  4  1  0  0  0  0
  9  1  2  0  0  0  0
 10  5  2  0  0  0  0
 11  1  1  0  0  0  0
 12  6  1  0  0  0  0
 12  7  2  0  0  0  0
 13  5  1  0  0  0  0
 13  2  1  0  0  0  0
 14 16  2  0  0  0  0
 14  8  1  0  0  0  0
 15  7  1  0  0  0  0
 16  9  1  0  0  0  0
 17  8  1  0  0  0  0
 18 17  1  0  0  0  0
 19 18  1  0  0  0  0
 20 19  2  0  0  0  0
 22 19  1  0  0  0  0
 22 21  1  0  0  0  0
 23 16  1  0  0  0  0
 24 23  1  0  0  0  0
 25 30  1  0  0  0  0
 26 24  1  1  0  0  0
 27 29  2  0  0  0  0
 28 27  1  0  0  0  0
 28 25  1  0  0  0  0
 29 26  1  0  0  0  0
 30 26  1  0  0  0  0
 31 25  2  0  0  0  0
M  END
>  <MODEL>
6

>  <REMARK>
 VINA RESULT:      -8.8      2.629      3.532
  Name = 
  7 active torsions:
  status: ('A' for Active; 'I' for Inactive)
    1  A    between atoms: C_2  and  C_14
    2  A    between atoms: C_2  and  C_20
    3  A    between atoms: C_11  and  C_20
    4  A    between atoms: C_13  and  N_27
    5  A    between atoms: C_14  and  O_19
    6  A    between atoms: C_26  and  N_27
    7  A    between atoms: C_26  and  C_31
                            x       y       z     vdW  Elec       q    Type
                         _______ _______ _______ _____ _____    ______ ____

>  <TORSDO>
F 7

$$$$
=
 OpenBabel10222415283D

 31 34  0  0  1  0  0  0  0  0999 V2000
  188.4280  177.8590  142.9340 C   0  0  0  0  0  0  0  0  0  0  0  0
  187.2150  177.8260  147.3390 C   0  0  0  0  0  3  0  0  0  0  0  0
  186.3740  178.2240  145.2510 C   0  0  0  0  0  3  0  0  0  0  0  0
  186.1910  178.3830  143.8790 O   0  0  0  0  0  0  0  0  0  0  0  0
  188.7440  177.5570  145.4670 C   0  0  0  0  0  0  0  0  0  0  0  0
  191.0400  176.8810  145.9710 O   0  0  0  0  0  1  0  0  0  0  0  0
  189.4840  177.1640  147.7650 C   0  0  0  0  0  3  0  0  0  0  0  0
  188.7100  177.9990  140.5650 C   0  0  0  0  0  0  0  0  0  0  0  0
  187.0770  178.2330  142.8110 C   0  0  0  0  0  0  0  0  0  0  0  0
  189.1190  177.5620  144.1850 C   0  0  0  0  0  3  0  0  0  0  0  0
  189.1910  177.7530  141.8100 N   0  0  0  0  0  0  0  0  0  0  0  0
  189.7520  177.2020  146.3970 C   0  0  0  0  0  0  0  0  0  0  0  0
  187.4480  177.8740  145.9580 C   0  0  0  0  0  0  0  0  0  0  0  0
  187.3800  178.3630  140.4010 C   0  0  0  0  0  3  0  0  0  0  0  0
  188.2180  177.4760  148.2370 C   0  0  0  0  0  3  0  0  0  0  0  0
  186.5630  178.4760  141.5230 C   0  0  0  0  0  0  0  0  0  0  0  0
  189.5950  177.8460  139.3800 C   0  0  0  0  0  2  0  0  0  0  0  0
  188.7750  177.4440  138.1680 C   0  0  0  0  0  2  0  0  0  0  0  0
  188.9880  178.4200  137.0670 C   0  0  0  0  0  0  0  0  0  0  0  0
  188.9750  179.6550  137.3190 O   0  0  0  0  0  0  0  0  0  0  0  0
  189.8660  176.7520  135.4870 C   0  0  0  0  0  1  0  0  0  0  0  0
  189.1680  177.9570  135.7630 O   0  0  0  0  0  0  0  0  0  0  0  0
  185.1430  178.8950  141.3310 C   0  0  0  0  0  2  0  0  0  0  0  0
  184.9850  179.5050  140.0210 N   0  0  0  0  0  2  0  0  0  0  0  0
  181.4720  178.1260  140.1440 C   0  0  0  0  0  0  0  0  0  0  0  0
  183.7260  179.0270  139.4750 C   0  0  2  0  0  3  0  0  0  0  0  0
  181.6630  180.0380  138.5870 C   0  0  0  0  0  3  0  0  0  0  0  0
  180.9530  178.7420  138.8700 C   0  0  0  0  0  2  0  0  0  0  0  0
  182.9660  180.1760  138.8710 C   0  0  0  0  0  3  0  0  0  0  0  0
  182.9040  178.3360  140.5710 C   0  0  0  0  0  2  0  0  0  0  0  0
  180.7340  177.4350  140.8240 O   0  0  0  0  0  0  0  0  0  0  0  0
  1 10  1  0  0  0  0
  2 15  2  0  0  0  0
  3 13  2  0  0  0  0
  4  3  1  0  0  0  0
  5 13  1  0  0  0  0
  5 12  1  0  0  0  0
  6 12  1  0  0  0  0
  7 15  1  0  0  0  0
  8 11  1  0  0  0  0
  9  1  1  0  0  0  0
  9  4  1  0  0  0  0
 10  5  2  0  0  0  0
 11  1  2  0  0  0  0
 12  7  2  0  0  0  0
 13  2  1  0  0  0  0
 14  8  2  0  0  0  0
 14 16  1  0  0  0  0
 16  9  2  0  0  0  0
 17  8  1  0  0  0  0
 18 17  1  0  0  0  0
 19 20  2  0  0  0  0
 19 18  1  0  0  0  0
 21 22  1  0  0  0  0
 22 19  1  0  0  0  0
 23 16  1  0  0  0  0
 24 23  1  0  0  0  0
 25 30  1  0  0  0  0
 25 31  2  0  0  0  0
 26 24  1  1  0  0  0
 26 30  1  0  0  0  0
 27 28  1  0  0  0  0
 27 29  2  0  0  0  0
 28 25  1  0  0  0  0
 29 26  1  0  0  0  0
M  END
>  <MODEL>
7

>  <REMARK>
 VINA RESULT:      -8.8      2.503      5.771
  Name = 
  7 active torsions:
  status: ('A' for Active; 'I' for Inactive)
    1  A    between atoms: C_2  and  C_14
    2  A    between atoms: C_2  and  C_20
    3  A    between atoms: C_11  and  C_20
    4  A    between atoms: C_13  and  N_27
    5  A    between atoms: C_14  and  O_19
    6  A    between atoms: C_26  and  N_27
    7  A    between atoms: C_26  and  C_31
                            x       y       z     vdW  Elec       q    Type
                         _______ _______ _______ _____ _____    ______ ____

>  <TORSDO>
F 7

$$$$
=
 OpenBabel10222415283D

 31 34  0  0  1  0  0  0  0  0999 V2000
  188.3890  177.7900  142.9650 C   0  0  0  0  0  0  0  0  0  0  0  0
  187.1660  177.8590  147.3670 C   0  0  0  0  0  3  0  0  0  0  0  0
  186.3340  178.2230  145.2700 C   0  0  0  0  0  3  0  0  0  0  0  0
  186.1560  178.3560  143.8940 O   0  0  0  0  0  0  0  0  0  0  0  0
  188.6960  177.5370  145.5050 C   0  0  0  0  0  0  0  0  0  0  0  0
  190.9840  176.8470  146.0280 O   0  0  0  0  0  1  0  0  0  0  0  0
  189.4270  177.1830  147.8120 C   0  0  0  0  0  3  0  0  0  0  0  0
  188.6780  177.8790  140.5950 C   0  0  0  0  0  0  0  0  0  0  0  0
  187.0420  178.1760  142.8320 C   0  0  0  0  0  0  0  0  0  0  0  0
  189.0740  177.5110  144.2240 C   0  0  0  0  0  3  0  0  0  0  0  0
  189.1540  177.6540  141.8460 N   0  0  0  0  0  0  0  0  0  0  0  0
  189.6990  177.1900  146.4440 C   0  0  0  0  0  0  0  0  0  0  0  0
  187.4030  177.8760  145.9860 C   0  0  0  0  0  0  0  0  0  0  0  0
  187.3520  178.2540  140.4200 C   0  0  0  0  0  3  0  0  0  0  0  0
  188.1620  177.5170  148.2750 C   0  0  0  0  0  3  0  0  0  0  0  0
  186.5340  178.3980  141.5380 C   0  0  0  0  0  0  0  0  0  0  0  0
  189.5640  177.6940  139.4150 C   0  0  0  0  0  2  0  0  0  0  0  0
  188.7290  177.4890  138.1650 C   0  0  0  0  0  2  0  0  0  0  0  0
  189.0590  178.5350  137.1610 C   0  0  0  0  0  0  0  0  0  0  0  0
  189.0010  179.7510  137.4870 O   0  0  0  0  0  0  0  0  0  0  0  0
  188.6740  177.1570  135.1600 C   0  0  0  0  0  1  0  0  0  0  0  0
  189.3980  178.1570  135.8610 O   0  0  0  0  0  0  0  0  0  0  0  0
  185.1190  178.8270  141.3330 C   0  0  0  0  0  2  0  0  0  0  0  0
  184.9690  179.4060  140.0080 N   0  0  0  0  0  2  0  0  0  0  0  0
  183.5140  176.8870  137.6020 C   0  0  0  0  0  0  0  0  0  0  0  0
  183.9140  178.6690  139.3350 C   0  0  2  0  0  3  0  0  0  0  0  0
  182.4810  176.7320  139.8430 C   0  0  0  0  0  3  0  0  0  0  0  0
  182.2560  176.5600  138.3650 C   0  0  0  0  0  2  0  0  0  0  0  0
  183.2590  177.7210  140.3020 C   0  0  0  0  0  3  0  0  0  0  0  0
  184.4840  177.9170  138.1250 C   0  0  0  0  0  2  0  0  0  0  0  0
  183.7380  176.3300  136.5420 O   0  0  0  0  0  0  0  0  0  0  0  0
  1 10  1  0  0  0  0
  2 15  2  0  0  0  0
  3 13  2  0  0  0  0
  4  3  1  0  0  0  0
  5 13  1  0  0  0  0
  5 12  1  0  0  0  0
  6 12  1  0  0  0  0
  7 15  1  0  0  0  0
  8 11  1  0  0  0  0
  9  1  1  0  0  0  0
  9  4  1  0  0  0  0
 10  5  2  0  0  0  0
 11  1  2  0  0  0  0
 12  7  2  0  0  0  0
 13  2  1  0  0  0  0
 14  8  2  0  0  0  0
 14 16  1  0  0  0  0
 16  9  2  0  0  0  0
 17  8  1  0  0  0  0
 18 17  1  0  0  0  0
 19 20  2  0  0  0  0
 19 18  1  0  0  0  0
 21 22  1  0  0  0  0
 22 19  1  0  0  0  0
 23 16  1  0  0  0  0
 24 23  1  0  0  0  0
 25 30  1  0  0  0  0
 25 28  1  0  0  0  0
 26 24  1  1  0  0  0
 26 29  1  0  0  0  0
 27 29  2  0  0  0  0
 28 27  1  0  0  0  0
 30 26  1  0  0  0  0
 31 25  2  0  0  0  0
M  END
>  <MODEL>
8

>  <REMARK>
 VINA RESULT:      -8.7      2.815      5.401
  Name = 
  7 active torsions:
  status: ('A' for Active; 'I' for Inactive)
    1  A    between atoms: C_2  and  C_14
    2  A    between atoms: C_2  and  C_20
    3  A    between atoms: C_11  and  C_20
    4  A    between atoms: C_13  and  N_27
    5  A    between atoms: C_14  and  O_19
    6  A    between atoms: C_26  and  N_27
    7  A    between atoms: C_26  and  C_31
                            x       y       z     vdW  Elec       q    Type
                         _______ _______ _______ _____ _____    ______ ____

>  <TORSDO>
F 7

$$$$
=
 OpenBabel10222415283D

 31 34  0  0  1  0  0  0  0  0999 V2000
  190.6210  177.3150  141.0690 C   0  0  0  0  0  0  0  0  0  0  0  0
  190.0090  176.4100  136.6330 C   0  0  0  0  0  3  0  0  0  0  0  0
  188.8570  176.9930  138.5180 C   0  0  0  0  0  3  0  0  0  0  0  0
  188.4770  177.3380  139.8140 O   0  0  0  0  0  0  0  0  0  0  0  0
  191.3060  176.6920  138.6700 C   0  0  0  0  0  0  0  0  0  0  0  0
  193.7210  176.3370  138.5320 O   0  0  0  0  0  1  0  0  0  0  0  0
  192.3870  176.0750  136.5650 C   0  0  0  0  0  3  0  0  0  0  0  0
  190.5650  177.8220  143.4030 C   0  0  0  0  0  0  0  0  0  0  0  0
  189.2280  177.4910  140.9800 C   0  0  0  0  0  0  0  0  0  0  0  0
  191.5060  176.9520  139.9650 C   0  0  0  0  0  3  0  0  0  0  0  0
  191.2370  177.4890  142.2720 N   0  0  0  0  0  0  0  0  0  0  0  0
  192.4670  176.3700  137.9260 C   0  0  0  0  0  0  0  0  0  0  0  0
  190.0520  176.7120  138.0000 C   0  0  0  0  0  0  0  0  0  0  0  0
  189.1900  178.0130  143.3560 C   0  0  0  0  0  3  0  0  0  0  0  0
  191.1600  176.0950  135.9170 C   0  0  0  0  0  3  0  0  0  0  0  0
  188.5220  177.8510  142.1440 C   0  0  0  0  0  0  0  0  0  0  0  0
  191.3030  178.0140  144.6800 C   0  0  0  0  0  2  0  0  0  0  0  0
  191.5790  176.6690  145.3270 C   0  0  0  0  0  2  0  0  0  0  0  0
  191.1760  176.7060  146.7570 C   0  0  0  0  0  0  0  0  0  0  0  0
  192.0620  176.7440  147.6530 O   0  0  0  0  0  0  0  0  0  0  0  0
  189.2030  177.6980  147.8410 C   0  0  0  0  0  1  0  0  0  0  0  0
  189.8210  176.6640  147.0910 O   0  0  0  0  0  0  0  0  0  0  0  0
  187.0420  178.0340  142.1180 C   0  0  0  0  0  2  0  0  0  0  0  0
  186.5440  178.2030  143.4730 N   0  0  0  0  0  2  0  0  0  0  0  0
  182.9980  178.6020  142.2380 C   0  0  0  0  0  0  0  0  0  0  0  0
  185.2340  178.8240  143.3740 C   0  0  2  0  0  3  0  0  0  0  0  0
  183.1550  178.8350  144.6940 C   0  0  0  0  0  3  0  0  0  0  0  0
  182.4180  179.2700  143.4570 C   0  0  0  0  0  2  0  0  0  0  0  0
  184.4780  178.6230  144.6590 C   0  0  0  0  0  3  0  0  0  0  0  0
  184.4620  178.2410  142.1820 C   0  0  0  0  0  2  0  0  0  0  0  0
  182.2830  178.3690  141.2790 O   0  0  0  0  0  0  0  0  0  0  0  0
  1 11  1  0  0  0  0
  2 13  1  0  0  0  0
  3  4  1  0  0  0  0
  4  9  1  0  0  0  0
  5 10  2  0  0  0  0
  7 12  2  0  0  0  0
  8 17  1  0  0  0  0
  9  1  2  0  0  0  0
  9 16  1  0  0  0  0
 10  1  1  0  0  0  0
 11  8  2  0  0  0  0
 12  6  1  0  0  0  0
 12  5  1  0  0  0  0
 13  3  2  0  0  0  0
 13  5  1  0  0  0  0
 14  8  1  0  0  0  0
 15  7  1  0  0  0  0
 15  2  2  0  0  0  0
 16 14  2  0  0  0  0
 17 18  1  0  0  0  0
 18 19  1  0  0  0  0
 19 22  1  0  0  0  0
 19 20  2  0  0  0  0
 22 21  1  0  0  0  0
 23 16  1  0  0  0  0
 23 24  1  0  0  0  0
 25 28  1  0  0  0  0
 26 24  1  1  0  0  0
 26 29  1  0  0  0  0
 28 27  1  0  0  0  0
 29 27  2  0  0  0  0
 30 25  1  0  0  0  0
 30 26  1  0  0  0  0
 31 25  2  0  0  0  0
M  END
>  <MODEL>
9

>  <REMARK>
 VINA RESULT:      -8.7      3.611      7.815
  Name = 
  7 active torsions:
  status: ('A' for Active; 'I' for Inactive)
    1  A    between atoms: C_2  and  C_14
    2  A    between atoms: C_2  and  C_20
    3  A    between atoms: C_11  and  C_20
    4  A    between atoms: C_13  and  N_27
    5  A    between atoms: C_14  and  O_19
    6  A    between atoms: C_26  and  N_27
    7  A    between atoms: C_26  and  C_31
                            x       y       z     vdW  Elec       q    Type
                         _______ _______ _______ _____ _____    ______ ____

>  <TORSDO>
F 7

$$$$
