=
 OpenBabel10222420263D

 31 34  0  0  1  0  0  0  0  0999 V2000
  184.4270  179.1780  139.4690 C   0  0  0  0  0  1  0  0  0  0  0  0
  186.1960  177.8930  144.8450 C   0  0  0  0  0  1  0  0  0  0  0  0
  190.1520  178.7390  143.3070 O   0  0  0  0  0  1  0  0  0  0  0  0
  189.3910  177.7510  142.6800 C   0  0  2  0  0  0  0  0  0  0  0  0
  188.9810  178.0610  141.3810 C   0  0  0  0  0  0  0  0  0  0  0  0
  184.9430  178.8420  140.8280 C   0  0  0  0  0  0  0  0  0  0  0  0
  183.4410  178.4900  144.1690 N   0  0  0  0  0  1  0  0  0  0  0  0
  185.7720  178.2220  143.4490 C   0  0  0  0  0  0  0  0  0  0  0  0
  186.3040  178.5720  141.0480 C   0  0  0  0  0  0  0  0  0  0  0  0
  187.2670  178.6090  139.9400 C   0  0  0  0  0  3  0  0  0  0  0  0
  188.0310  178.0140  142.4950 C   0  0  0  0  0  0  0  0  0  0  0  0
  188.6740  178.3510  140.0860 C   0  0  0  0  0  0  0  0  0  0  0  0
  184.0630  178.8020  141.8680 N   0  0  0  0  0  0  0  0  0  0  0  0
  186.6950  178.2570  142.4030 C   0  0  0  0  0  0  0  0  0  0  0  0
  184.4320  178.5070  143.1460 C   0  0  0  0  0  0  0  0  0  0  0  0
  188.6210  175.3350  136.9640 C   0  0  1  0  0  3  0  0  0  0  0  0
  190.3320  175.7050  138.7830 C   0  0  0  0  0  2  0  0  0  0  0  0
  190.9540  174.4730  136.7260 C   0  0  0  0  0  1  0  0  0  0  0  0
  189.0770  178.2560  137.5780 N   0  0  0  0  0  2  0  0  0  0  0  0
  187.7130  177.7220  137.5250 C   0  0  2  0  0  3  0  0  0  0  0  0
  189.6450  178.3500  138.9350 C   0  0  2  0  0  3  0  0  0  0  0  0
  187.6470  176.2060  137.7730 C   0  0  0  0  0  2  0  0  0  0  0  0
  188.3900  175.4790  135.5950 O   0  0  0  0  0  1  0  0  0  0  0  0
  187.0670  178.0850  136.2020 C   0  0  0  0  0  1  0  0  0  0  0  0
  191.1300  177.2970  139.1640 S   0  0  0  0  0  0  0  0  0  0  0  0
  190.0950  175.5900  137.2860 C   0  0  1  0  0  3  0  0  0  0  0  0
  189.7840  176.3630  142.8760 N   0  0  0  0  0  2  0  0  0  0  0  0
  191.2380  176.2900  142.8650 C   0  0  0  0  0  2  0  0  0  0  0  0
  191.7250  175.7820  144.1750 C   0  0  0  0  0  0  0  0  0  0  0  0
  192.1390  174.5640  144.2770 N   0  0  0  0  0  2  0  0  0  0  0  0
  191.5710  176.5770  145.3460 N   0  0  0  0  0  1  0  0  0  0  0  0
  1  6  1  0  0  0  0
  4 27  1  0  0  0  0
  4  3  1  1  0  0  0
  5 11  1  0  0  0  0
  5  4  1  0  0  0  0
  6  9  1  0  0  0  0
  6 13  2  0  0  0  0
  8  2  1  0  0  0  0
  9 14  1  0  0  0  0
 10 12  1  0  0  0  0
 10  9  2  0  0  0  0
 11  4  1  0  0  0  0
 12  5  2  0  0  0  0
 13 15  1  0  0  0  0
 14 11  2  0  0  0  0
 14  8  1  0  0  0  0
 15  8  2  0  0  0  0
 15  7  1  0  0  0  0
 16 23  1  6  0  0  0
 16 26  1  0  0  0  0
 16 22  1  0  0  0  0
 17 25  1  0  0  0  0
 19 21  1  0  0  0  0
 20 24  1  6  0  0  0
 20 19  1  0  0  0  0
 20 22  1  0  0  0  0
 21 25  1  0  0  0  0
 21 12  1  1  0  0  0
 26 18  1  1  0  0  0
 26 17  1  0  0  0  0
 28 27  1  0  0  0  0
 28 29  1  0  0  0  0
 29 30  2  0  0  0  0
 29 31  1  0  0  0  0
M  END
>  <MODEL>
1

>  <REMARK>
 VINA RESULT:      -7.9      0.000      0.000
  Name = 
  4 active torsions:
  status: ('A' for Active; 'I' for Inactive)
    1  A    between atoms: C_5  and  N_14
    2  A    between atoms: C_7  and  C_31
    3  A    between atoms: N_14  and  C_31
    4  A    between atoms: C_19  and  C_25
                            x       y       z     vdW  Elec       q    Type
                         _______ _______ _______ _____ _____    ______ ____

>  <TORSDO>
F 4

$$$$
=
 OpenBabel10222420263D

 31 34  0  0  1  0  0  0  0  0999 V2000
  180.0340  178.4580  143.9680 C   0  0  0  0  0  1  0  0  0  0  0  0
  185.7220  179.0840  143.0020 C   0  0  0  0  0  1  0  0  0  0  0  0
  184.5040  180.2240  139.0090 O   0  0  0  0  0  1  0  0  0  0  0  0
  184.1180  178.9720  139.4910 C   0  0  2  0  0  0  0  0  0  0  0  0
  182.7460  178.8240  139.7080 C   0  0  0  0  0  0  0  0  0  0  0  0
  181.4840  178.6200  143.6550 C   0  0  0  0  0  0  0  0  0  0  0  0
  184.5600  178.9230  145.6530 N   0  0  0  0  0  1  0  0  0  0  0  0
  184.2510  178.9250  143.2180 C   0  0  0  0  0  0  0  0  0  0  0  0
  181.9430  178.6920  142.3300 C   0  0  0  0  0  0  0  0  0  0  0  0
  181.0050  178.6060  141.2030 C   0  0  0  0  0  3  0  0  0  0  0  0
  183.6940  178.9040  140.8210 C   0  0  0  0  0  0  0  0  0  0  0  0
  181.3960  178.6780  139.8220 C   0  0  0  0  0  0  0  0  0  0  0  0
  182.3690  178.7000  144.6890 N   0  0  0  0  0  0  0  0  0  0  0  0
  183.3670  178.8470  142.1410 C   0  0  0  0  0  0  0  0  0  0  0  0
  183.7120  178.8480  144.5110 C   0  0  0  0  0  0  0  0  0  0  0  0
  181.4580  175.3270  137.0620 C   0  0  1  0  0  3  0  0  0  0  0  0
  182.0770  177.7380  136.6440 C   0  0  0  0  0  2  0  0  0  0  0  0
  181.4490  176.2710  134.7490 C   0  0  0  0  0  1  0  0  0  0  0  0
  179.6970  177.2730  138.5550 N   0  0  0  0  0  2  0  0  0  0  0  0
  180.3150  176.1480  139.2650 C   0  0  2  0  0  3  0  0  0  0  0  0
  180.4290  178.5470  138.6740 C   0  0  2  0  0  3  0  0  0  0  0  0
  181.5750  175.6110  138.5680 C   0  0  0  0  0  2  0  0  0  0  0  0
  180.4810  174.3600  136.8180 O   0  0  0  0  0  1  0  0  0  0  0  0
  179.2950  175.0450  139.4690 C   0  0  0  0  0  1  0  0  0  0  0  0
  181.0390  179.1750  137.0610 S   0  0  0  0  0  0  0  0  0  0  0  0
  181.2000  176.5740  136.2140 C   0  0  1  0  0  3  0  0  0  0  0  0
  184.7740  177.7970  138.9360 N   0  0  0  0  0  2  0  0  0  0  0  0
  185.6880  178.2320  137.8890 C   0  0  0  0  0  2  0  0  0  0  0  0
  187.0820  177.8630  138.2560 C   0  0  0  0  0  0  0  0  0  0  0  0
  187.6470  176.8510  137.6900 N   0  0  0  0  0  2  0  0  0  0  0  0
  187.7230  178.5130  139.3490 N   0  0  0  0  0  1  0  0  0  0  0  0
  2  8  1  0  0  0  0
  4  3  1  6  0  0  0
  4  5  1  0  0  0  0
  4 11  1  0  0  0  0
  5 12  2  0  0  0  0
  5 11  1  0  0  0  0
  6  1  1  0  0  0  0
  6 13  2  0  0  0  0
  8 15  2  0  0  0  0
  9  6  1  0  0  0  0
 10  9  2  0  0  0  0
 11 14  2  0  0  0  0
 12 10  1  0  0  0  0
 14  9  1  0  0  0  0
 14  8  1  0  0  0  0
 15 13  1  0  0  0  0
 15  7  1  0  0  0  0
 16 23  1  1  0  0  0
 16 22  1  0  0  0  0
 17 25  1  0  0  0  0
 19 21  1  0  0  0  0
 19 20  1  0  0  0  0
 20 24  1  6  0  0  0
 21 12  1  1  0  0  0
 22 20  1  0  0  0  0
 25 21  1  0  0  0  0
 26 18  1  6  0  0  0
 26 17  1  0  0  0  0
 26 16  1  0  0  0  0
 27  4  1  0  0  0  0
 28 29  1  0  0  0  0
 28 27  1  0  0  0  0
 29 31  1  0  0  0  0
 30 29  2  0  0  0  0
M  END
>  <MODEL>
2

>  <REMARK>
 VINA RESULT:      -7.5      4.378      6.931
  Name = 
  4 active torsions:
  status: ('A' for Active; 'I' for Inactive)
    1  A    between atoms: C_5  and  N_14
    2  A    between atoms: C_7  and  C_31
    3  A    between atoms: N_14  and  C_31
    4  A    between atoms: C_19  and  C_25
                            x       y       z     vdW  Elec       q    Type
                         _______ _______ _______ _____ _____    ______ ____

>  <TORSDO>
F 4

$$$$
=
 OpenBabel10222420263D

 31 34  0  0  1  0  0  0  0  0999 V2000
  183.1590  178.9440  144.5820 C   0  0  0  0  0  1  0  0  0  0  0  0
  188.7790  177.4980  144.5740 C   0  0  0  0  0  1  0  0  0  0  0  0
  188.8260  179.3300  140.6530 O   0  0  0  0  0  1  0  0  0  0  0  0
  187.9410  178.2750  140.8850 C   0  0  2  0  0  0  0  0  0  0  0  0
  186.5900  178.6280  140.8720 C   0  0  0  0  0  0  0  0  0  0  0  0
  184.6050  178.5830  144.5150 C   0  0  0  0  0  0  0  0  0  0  0  0
  187.1490  177.5620  146.9700 N   0  0  0  0  0  1  0  0  0  0  0  0
  187.3320  177.8770  144.5430 C   0  0  0  0  0  0  0  0  0  0  0  0
  185.3050  178.5880  143.2970 C   0  0  0  0  0  0  0  0  0  0  0  0
  184.6300  178.9480  142.0430 C   0  0  0  0  0  3  0  0  0  0  0  0
  187.2740  178.2600  142.1130 C   0  0  0  0  0  0  0  0  0  0  0  0
  185.2790  178.9830  140.7600 C   0  0  0  0  0  0  0  0  0  0  0  0
  185.2460  178.2450  145.6690 N   0  0  0  0  0  0  0  0  0  0  0  0
  186.7010  178.2200  143.3470 C   0  0  0  0  0  0  0  0  0  0  0  0
  186.5640  177.9000  145.7170 C   0  0  0  0  0  0  0  0  0  0  0  0
  182.5400  176.2330  138.8140 C   0  0  1  0  0  3  0  0  0  0  0  0
  184.8350  176.9780  138.0710 C   0  0  0  0  0  2  0  0  0  0  0  0
  183.2270  176.0760  136.4170 C   0  0  0  0  0  1  0  0  0  0  0  0
  183.1040  179.1300  139.4520 N   0  0  0  0  0  2  0  0  0  0  0  0
  182.5860  178.2370  140.4930 C   0  0  2  0  0  3  0  0  0  0  0  0
  184.5670  179.3120  139.4750 C   0  0  2  0  0  3  0  0  0  0  0  0
  182.8820  176.7540  140.2190 C   0  0  0  0  0  2  0  0  0  0  0  0
  181.1760  176.3740  138.5550 O   0  0  0  0  0  1  0  0  0  0  0  0
  181.1000  178.4690  140.6800 C   0  0  0  0  0  1  0  0  0  0  0  0
  185.3870  178.7090  137.9480 S   0  0  0  0  0  0  0  0  0  0  0  0
  183.3650  176.8760  137.6970 C   0  0  1  0  0  3  0  0  0  0  0  0
  188.2390  176.9900  140.2680 N   0  0  0  0  0  2  0  0  0  0  0  0
  188.9950  177.2300  139.0470 C   0  0  0  0  0  2  0  0  0  0  0  0
  190.3240  176.5690  139.1430 C   0  0  0  0  0  0  0  0  0  0  0  0
  191.2690  177.1240  139.8250 N   0  0  0  0  0  1  0  0  0  0  0  0
  190.6060  175.4250  138.3440 N   0  0  0  0  0  2  0  0  0  0  0  0
  4  3  1  6  0  0  0
  4 11  1  0  0  0  0
  5  4  1  0  0  0  0
  5 11  1  0  0  0  0
  6  1  1  0  0  0  0
  6 13  2  0  0  0  0
  8  2  1  0  0  0  0
  8 15  2  0  0  0  0
  9 14  1  0  0  0  0
  9  6  1  0  0  0  0
 10  9  2  0  0  0  0
 11 14  2  0  0  0  0
 12  5  2  0  0  0  0
 12 10  1  0  0  0  0
 13 15  1  0  0  0  0
 14  8  1  0  0  0  0
 15  7  1  0  0  0  0
 16 23  1  6  0  0  0
 16 22  1  0  0  0  0
 19 21  1  0  0  0  0
 19 20  1  0  0  0  0
 20 24  1  6  0  0  0
 21 12  1  1  0  0  0
 22 20  1  0  0  0  0
 25 17  1  0  0  0  0
 25 21  1  0  0  0  0
 26 18  1  6  0  0  0
 26 17  1  0  0  0  0
 26 16  1  0  0  0  0
 27  4  1  0  0  0  0
 28 29  1  0  0  0  0
 28 27  1  0  0  0  0
 29 30  1  0  0  0  0
 31 29  2  0  0  0  0
M  END
>  <MODEL>
3

>  <REMARK>
 VINA RESULT:      -7.4      2.941      4.950
  Name = 
  4 active torsions:
  status: ('A' for Active; 'I' for Inactive)
    1  A    between atoms: C_5  and  N_14
    2  A    between atoms: C_7  and  C_31
    3  A    between atoms: N_14  and  C_31
    4  A    between atoms: C_19  and  C_25
                            x       y       z     vdW  Elec       q    Type
                         _______ _______ _______ _____ _____    ______ ____

>  <TORSDO>
F 4

$$$$
=
 OpenBabel10222420263D

 31 34  0  0  1  0  0  0  0  0999 V2000
  189.4170  177.8010  141.9470 C   0  0  0  0  0  1  0  0  0  0  0  0
  183.8030  178.6270  143.1620 C   0  0  0  0  0  1  0  0  0  0  0  0
  183.1900  177.7890  138.9610 O   0  0  0  0  0  1  0  0  0  0  0  0
  184.0350  178.8430  139.3130 C   0  0  2  0  0  0  0  0  0  0  0  0
  185.3830  178.6420  139.0050 C   0  0  0  0  0  0  0  0  0  0  0  0
  187.9620  178.0180  142.1940 C   0  0  0  0  0  0  0  0  0  0  0  0
  185.8240  178.1590  145.1870 N   0  0  0  0  0  1  0  0  0  0  0  0
  185.2430  178.4150  142.8160 C   0  0  0  0  0  0  0  0  0  0  0  0
  187.0640  178.2330  141.1370 C   0  0  0  0  0  0  0  0  0  0  0  0
  187.5310  178.2530  139.7440 C   0  0  0  0  0  3  0  0  0  0  0  0
  184.9030  178.6320  140.3880 C   0  0  0  0  0  0  0  0  0  0  0  0
  186.6730  178.4600  138.6090 C   0  0  0  0  0  0  0  0  0  0  0  0
  187.5110  178.0040  143.4810 N   0  0  0  0  0  0  0  0  0  0  0  0
  185.6770  178.4340  141.4900 C   0  0  0  0  0  0  0  0  0  0  0  0
  186.2030  178.1920  143.8140 C   0  0  0  0  0  0  0  0  0  0  0  0
  187.9640  174.9430  136.4130 C   0  0  1  0  0  3  0  0  0  0  0  0
  189.3480  176.8650  137.2880 C   0  0  0  0  0  2  0  0  0  0  0  0
  190.2020  175.4620  135.4330 C   0  0  0  0  0  1  0  0  0  0  0  0
  186.5470  177.6030  136.2190 N   0  0  0  0  0  2  0  0  0  0  0  0
  185.8670  176.4520  136.8200 C   0  0  2  0  0  3  0  0  0  0  0  0
  187.1710  178.5210  137.1890 C   0  0  2  0  0  3  0  0  0  0  0  0
  186.8380  175.3900  137.3610 C   0  0  0  0  0  2  0  0  0  0  0  0
  187.4340  174.3790  135.2520 O   0  0  0  0  0  1  0  0  0  0  0  0
  184.8990  175.8460  135.8240 C   0  0  0  0  0  1  0  0  0  0  0  0
  188.9940  178.6280  137.0030 S   0  0  0  0  0  0  0  0  0  0  0  0
  188.9570  176.0540  136.0630 C   0  0  1  0  0  3  0  0  0  0  0  0
  183.5580  180.2000  139.0930 N   0  0  0  0  0  2  0  0  0  0  0  0
  182.3110  180.1340  138.3450 C   0  0  0  0  0  2  0  0  0  0  0  0
  181.4480  181.2920  138.7050 C   0  0  0  0  0  0  0  0  0  0  0  0
  180.5050  181.1440  139.5740 N   0  0  0  0  0  1  0  0  0  0  0  0
  181.5480  182.5060  137.9680 N   0  0  0  0  0  2  0  0  0  0  0  0
  1  6  1  0  0  0  0
  4  3  1  6  0  0  0
  4 11  1  0  0  0  0
  5  4  1  0  0  0  0
  5 11  1  0  0  0  0
  6 13  2  0  0  0  0
  8  2  1  0  0  0  0
  8 15  2  0  0  0  0
  9 14  1  0  0  0  0
  9  6  1  0  0  0  0
 10  9  2  0  0  0  0
 11 14  2  0  0  0  0
 12  5  2  0  0  0  0
 12 10  1  0  0  0  0
 13 15  1  0  0  0  0
 14  8  1  0  0  0  0
 15  7  1  0  0  0  0
 16 23  1  6  0  0  0
 16 22  1  0  0  0  0
 19 20  1  0  0  0  0
 19 21  1  0  0  0  0
 20 24  1  6  0  0  0
 20 22  1  0  0  0  0
 21 12  1  1  0  0  0
 25 21  1  0  0  0  0
 25 17  1  0  0  0  0
 26 18  1  1  0  0  0
 26 16  1  0  0  0  0
 26 17  1  0  0  0  0
 27  4  1  0  0  0  0
 28 29  1  0  0  0  0
 28 27  1  0  0  0  0
 29 30  1  0  0  0  0
 31 29  2  0  0  0  0
M  END
>  <MODEL>
4

>  <REMARK>
 VINA RESULT:      -7.1      2.658      5.767
  Name = 
  4 active torsions:
  status: ('A' for Active; 'I' for Inactive)
    1  A    between atoms: C_5  and  N_14
    2  A    between atoms: C_7  and  C_31
    3  A    between atoms: N_14  and  C_31
    4  A    between atoms: C_19  and  C_25
                            x       y       z     vdW  Elec       q    Type
                         _______ _______ _______ _____ _____    ______ ____

>  <TORSDO>
F 4

$$$$
=
 OpenBabel10222420263D

 31 34  0  0  1  0  0  0  0  0999 V2000
  182.9130  178.6280  145.1140 C   0  0  0  0  0  1  0  0  0  0  0  0
  187.4940  178.1420  141.5840 C   0  0  0  0  0  1  0  0  0  0  0  0
  184.9310  180.0450  138.6630 O   0  0  0  0  0  1  0  0  0  0  0  0
  184.5020  178.8530  139.2480 C   0  0  2  0  0  0  0  0  0  0  0  0
  183.3910  178.9750  140.0850 C   0  0  0  0  0  0  0  0  0  0  0  0
  184.0510  178.5150  144.1550 C   0  0  0  0  0  0  0  0  0  0  0  0
  187.6630  177.8780  144.4660 N   0  0  0  0  0  1  0  0  0  0  0  0
  186.2940  178.2750  142.4680 C   0  0  0  0  0  0  0  0  0  0  0  0
  183.8600  178.6650  142.7720 C   0  0  0  0  0  0  0  0  0  0  0  0
  182.5260  178.9360  142.2210 C   0  0  0  0  0  3  0  0  0  0  0  0
  184.7260  178.6980  140.6190 C   0  0  0  0  0  0  0  0  0  0  0  0
  182.2520  179.1080  140.8200 C   0  0  0  0  0  0  0  0  0  0  0  0
  185.2970  178.2620  144.6490 N   0  0  0  0  0  0  0  0  0  0  0  0
  185.0310  178.5350  141.9350 C   0  0  0  0  0  0  0  0  0  0  0  0
  186.4010  178.1420  143.8600 C   0  0  0  0  0  0  0  0  0  0  0  0
  180.4120  176.4790  137.8950 C   0  0  1  0  0  3  0  0  0  0  0  0
  181.2500  178.8430  137.6000 C   0  0  0  0  0  2  0  0  0  0  0  0
  179.5660  177.9170  136.0350 C   0  0  0  0  0  1  0  0  0  0  0  0
  179.9250  178.2150  140.3180 N   0  0  0  0  0  2  0  0  0  0  0  0
  180.5540  176.9000  140.4720 C   0  0  2  0  0  3  0  0  0  0  0  0
  180.8720  179.3430  140.2640 C   0  0  2  0  0  3  0  0  0  0  0  0
  181.2390  176.4030  139.1890 C   0  0  0  0  0  2  0  0  0  0  0  0
  179.2570  175.7030  138.0020 O   0  0  0  0  0  1  0  0  0  0  0  0
  179.5330  175.8950  140.9680 C   0  0  0  0  0  1  0  0  0  0  0  0
  180.8150  180.2510  138.6700 S   0  0  0  0  0  0  0  0  0  0  0  0
  180.0590  177.9060  137.4690 C   0  0  1  0  0  3  0  0  0  0  0  0
  184.5140  177.6500  138.4270 N   0  0  0  0  0  2  0  0  0  0  0  0
  185.3950  177.8770  137.2910 C   0  0  0  0  0  2  0  0  0  0  0  0
  186.7240  177.2620  137.5560 C   0  0  0  0  0  0  0  0  0  0  0  0
  187.7080  178.0030  137.9390 N   0  0  0  0  0  1  0  0  0  0  0  0
  186.9540  175.8980  137.2180 N   0  0  0  0  0  2  0  0  0  0  0  0
  2  8  1  0  0  0  0
  4  3  1  6  0  0  0
  4  5  1  0  0  0  0
  4 11  1  0  0  0  0
  5 11  2  0  0  0  0
  5 12  1  0  0  0  0
  6 13  1  0  0  0  0
  6  1  1  0  0  0  0
  8 15  1  0  0  0  0
  9  6  2  0  0  0  0
 10  9  1  0  0  0  0
 11 14  1  0  0  0  0
 12 10  2  0  0  0  0
 14  8  2  0  0  0  0
 14  9  1  0  0  0  0
 15  7  1  0  0  0  0
 15 13  2  0  0  0  0
 16 23  1  1  0  0  0
 16 22  1  0  0  0  0
 17 25  1  0  0  0  0
 19 20  1  0  0  0  0
 20 24  1  6  0  0  0
 21 19  1  0  0  0  0
 21 12  1  6  0  0  0
 22 20  1  0  0  0  0
 25 21  1  0  0  0  0
 26 18  1  6  0  0  0
 26 17  1  0  0  0  0
 26 16  1  0  0  0  0
 27  4  1  0  0  0  0
 28 29  1  0  0  0  0
 28 27  1  0  0  0  0
 29 30  1  0  0  0  0
 31 29  2  0  0  0  0
M  END
>  <MODEL>
5

>  <REMARK>
 VINA RESULT:      -7.0      4.111      7.258
  Name = 
  4 active torsions:
  status: ('A' for Active; 'I' for Inactive)
    1  A    between atoms: C_5  and  N_14
    2  A    between atoms: C_7  and  C_31
    3  A    between atoms: N_14  and  C_31
    4  A    between atoms: C_19  and  C_25
                            x       y       z     vdW  Elec       q    Type
                         _______ _______ _______ _____ _____    ______ ____

>  <TORSDO>
F 4

$$$$
=
 OpenBabel10222420263D

 31 34  0  0  1  0  0  0  0  0999 V2000
  187.5350  178.3620  141.9760 C   0  0  0  0  0  1  0  0  0  0  0  0
  182.2520  178.7240  144.3490 C   0  0  0  0  0  1  0  0  0  0  0  0
  180.8710  177.3150  140.4980 O   0  0  0  0  0  1  0  0  0  0  0  0
  181.6260  178.4880  140.5460 C   0  0  2  0  0  0  0  0  0  0  0  0
  182.8910  178.3970  139.9610 C   0  0  0  0  0  0  0  0  0  0  0  0
  186.1510  178.4510  142.5260 C   0  0  0  0  0  0  0  0  0  0  0  0
  184.7020  178.7300  145.8970 N   0  0  0  0  0  1  0  0  0  0  0  0
  183.6000  178.6280  143.7080 C   0  0  0  0  0  0  0  0  0  0  0  0
  185.0270  178.4360  141.6840 C   0  0  0  0  0  0  0  0  0  0  0  0
  185.1790  178.3350  140.2260 C   0  0  0  0  0  3  0  0  0  0  0  0
  182.7230  178.5060  141.4110 C   0  0  0  0  0  0  0  0  0  0  0  0
  184.0790  178.3070  139.3020 C   0  0  0  0  0  0  0  0  0  0  0  0
  185.9910  178.5470  143.8760 N   0  0  0  0  0  0  0  0  0  0  0  0
  183.7340  178.5300  142.3220 C   0  0  0  0  0  0  0  0  0  0  0  0
  184.7720  178.6330  144.4780 C   0  0  0  0  0  0  0  0  0  0  0  0
  184.3930  174.5660  137.1190 C   0  0  1  0  0  3  0  0  0  0  0  0
  186.1680  176.3110  137.5410 C   0  0  0  0  0  2  0  0  0  0  0  0
  186.4010  174.7360  135.6430 C   0  0  0  0  0  1  0  0  0  0  0  0
  183.3140  177.3860  137.0590 N   0  0  0  0  0  2  0  0  0  0  0  0
  182.6470  176.3620  137.8690 C   0  0  2  0  0  3  0  0  0  0  0  0
  184.2500  178.2450  137.8060 C   0  0  2  0  0  3  0  0  0  0  0  0
  183.5740  175.1990  138.2560 C   0  0  0  0  0  2  0  0  0  0  0  0
  183.5500  174.0360  136.1410 O   0  0  0  0  0  1  0  0  0  0  0  0
  181.4120  175.8580  137.1500 C   0  0  0  0  0  1  0  0  0  0  0  0
  185.9830  178.0940  137.2210 S   0  0  0  0  0  0  0  0  0  0  0  0
  185.4130  175.5160  136.4870 C   0  0  1  0  0  3  0  0  0  0  0  0
  180.9370  179.7490  140.3110 N   0  0  0  0  0  2  0  0  0  0  0  0
  179.5330  179.5780  140.6530 C   0  0  0  0  0  2  0  0  0  0  0  0
  179.3470  179.7700  142.1160 C   0  0  0  0  0  0  0  0  0  0  0  0
  179.7100  180.8780  142.6690 N   0  0  0  0  0  2  0  0  0  0  0  0
  178.9350  178.6760  142.9290 N   0  0  0  0  0  1  0  0  0  0  0  0
  1  6  1  0  0  0  0
  4  3  1  6  0  0  0
  4 11  1  0  0  0  0
  5  4  1  0  0  0  0
  5 11  1  0  0  0  0
  6 13  2  0  0  0  0
  8  2  1  0  0  0  0
  8 15  2  0  0  0  0
  9 14  1  0  0  0  0
  9  6  1  0  0  0  0
 10  9  2  0  0  0  0
 11 14  2  0  0  0  0
 12  5  2  0  0  0  0
 12 10  1  0  0  0  0
 13 15  1  0  0  0  0
 14  8  1  0  0  0  0
 15  7  1  0  0  0  0
 16 23  1  6  0  0  0
 16 22  1  0  0  0  0
 19 21  1  0  0  0  0
 19 20  1  0  0  0  0
 20 24  1  6  0  0  0
 20 22  1  0  0  0  0
 21 12  1  1  0  0  0
 25 17  1  0  0  0  0
 25 21  1  0  0  0  0
 26 18  1  1  0  0  0
 26 16  1  0  0  0  0
 26 17  1  0  0  0  0
 27  4  1  0  0  0  0
 27 28  1  0  0  0  0
 28 29  1  0  0  0  0
 29 30  2  0  0  0  0
 29 31  1  0  0  0  0
M  END
>  <MODEL>
6

>  <REMARK>
 VINA RESULT:      -6.9      3.911      6.721
  Name = 
  4 active torsions:
  status: ('A' for Active; 'I' for Inactive)
    1  A    between atoms: C_5  and  N_14
    2  A    between atoms: C_7  and  C_31
    3  A    between atoms: N_14  and  C_31
    4  A    between atoms: C_19  and  C_25
                            x       y       z     vdW  Elec       q    Type
                         _______ _______ _______ _____ _____    ______ ____

>  <TORSDO>
F 4

$$$$
=
 OpenBabel10222420263D

 31 34  0  0  1  0  0  0  0  0999 V2000
  187.3470  178.2530  142.0170 C   0  0  0  0  0  1  0  0  0  0  0  0
  182.0720  178.9290  144.3400 C   0  0  0  0  0  1  0  0  0  0  0  0
  180.6480  177.5410  140.4970 O   0  0  0  0  0  1  0  0  0  0  0  0
  181.4640  178.6730  140.5350 C   0  0  2  0  0  0  0  0  0  0  0  0
  182.7270  178.5070  139.9620 C   0  0  0  0  0  0  0  0  0  0  0  0
  185.9660  178.4230  142.5530 C   0  0  0  0  0  0  0  0  0  0  0  0
  184.5080  178.8260  145.9090 N   0  0  0  0  0  1  0  0  0  0  0  0
  183.4180  178.7520  143.7110 C   0  0  0  0  0  0  0  0  0  0  0  0
  184.8490  178.4560  141.7030 C   0  0  0  0  0  0  0  0  0  0  0  0
  185.0070  178.3260  140.2480 C   0  0  0  0  0  3  0  0  0  0  0  0
  182.5540  178.6450  141.4090 C   0  0  0  0  0  0  0  0  0  0  0  0
  183.9140  178.3440  139.3140 C   0  0  0  0  0  0  0  0  0  0  0  0
  185.8000  178.5470  143.9010 N   0  0  0  0  0  0  0  0  0  0  0  0
  183.5580  178.6270  142.3290 C   0  0  0  0  0  0  0  0  0  0  0  0
  184.5830  178.7060  144.4920 C   0  0  0  0  0  0  0  0  0  0  0  0
  184.2590  174.5610  137.2110 C   0  0  1  0  0  3  0  0  0  0  0  0
  186.0220  176.3240  137.6050 C   0  0  0  0  0  2  0  0  0  0  0  0
  186.2740  174.7110  135.7420 C   0  0  0  0  0  1  0  0  0  0  0  0
  183.1650  177.3740  137.0870 N   0  0  0  0  0  2  0  0  0  0  0  0
  182.4990  176.3630  137.9150 C   0  0  2  0  0  3  0  0  0  0  0  0
  184.0920  178.2530  137.8210 C   0  0  2  0  0  3  0  0  0  0  0  0
  183.4300  175.2130  138.3300 C   0  0  0  0  0  2  0  0  0  0  0  0
  183.4230  174.0070  136.2400 O   0  0  0  0  0  1  0  0  0  0  0  0
  181.2710  175.8370  137.2000 C   0  0  0  0  0  1  0  0  0  0  0  0
  185.8290  178.0990  137.2490 S   0  0  0  0  0  0  0  0  0  0  0  0
  185.2770  175.5040  136.5650 C   0  0  1  0  0  3  0  0  0  0  0  0
  180.8460  179.9660  140.2770 N   0  0  0  0  0  2  0  0  0  0  0  0
  180.1430  179.8940  139.0040 C   0  0  0  0  0  2  0  0  0  0  0  0
  180.9100  180.6340  137.9660 C   0  0  0  0  0  0  0  0  0  0  0  0
  180.9370  180.1940  136.7530 N   0  0  0  0  0  2  0  0  0  0  0  0
  181.7510  181.7180  138.3440 N   0  0  0  0  0  1  0  0  0  0  0  0
  1  6  1  0  0  0  0
  4  3  1  1  0  0  0
  4 11  1  0  0  0  0
  5  4  1  0  0  0  0
  5 11  1  0  0  0  0
  6 13  2  0  0  0  0
  8  2  1  0  0  0  0
  8 15  2  0  0  0  0
  9 14  1  0  0  0  0
  9  6  1  0  0  0  0
 10  9  2  0  0  0  0
 11 14  2  0  0  0  0
 12  5  2  0  0  0  0
 12 10  1  0  0  0  0
 13 15  1  0  0  0  0
 14  8  1  0  0  0  0
 15  7  1  0  0  0  0
 16 23  1  6  0  0  0
 16 22  1  0  0  0  0
 19 21  1  0  0  0  0
 19 20  1  0  0  0  0
 20 24  1  6  0  0  0
 20 22  1  0  0  0  0
 21 12  1  1  0  0  0
 25 17  1  0  0  0  0
 25 21  1  0  0  0  0
 26 18  1  1  0  0  0
 26 16  1  0  0  0  0
 26 17  1  0  0  0  0
 27  4  1  0  0  0  0
 28 27  1  0  0  0  0
 29 31  1  0  0  0  0
 29 28  1  0  0  0  0
 30 29  2  0  0  0  0
M  END
>  <MODEL>
7

>  <REMARK>
 VINA RESULT:      -6.8      4.010      6.856
  Name = 
  4 active torsions:
  status: ('A' for Active; 'I' for Inactive)
    1  A    between atoms: C_5  and  N_14
    2  A    between atoms: C_7  and  C_31
    3  A    between atoms: N_14  and  C_31
    4  A    between atoms: C_19  and  C_25
                            x       y       z     vdW  Elec       q    Type
                         _______ _______ _______ _____ _____    ______ ____

>  <TORSDO>
F 4

$$$$
=
 OpenBabel10222420263D

 31 34  0  0  1  0  0  0  0  0999 V2000
  181.8500  178.8190  140.4390 C   0  0  0  0  0  1  0  0  0  0  0  0
  186.0420  178.4990  144.4400 C   0  0  0  0  0  1  0  0  0  0  0  0
  188.6940  179.4160  141.1460 O   0  0  0  0  0  1  0  0  0  0  0  0
  187.8780  178.2880  141.0500 C   0  0  2  0  0  0  0  0  0  0  0  0
  186.8800  178.3670  140.0750 C   0  0  0  0  0  0  0  0  0  0  0  0
  182.9720  178.7330  141.4190 C   0  0  0  0  0  0  0  0  0  0  0  0
  183.2300  178.7680  145.0900 N   0  0  0  0  0  1  0  0  0  0  0  0
  184.9840  178.5810  143.3850 C   0  0  0  0  0  0  0  0  0  0  0  0
  184.3050  178.6080  140.9960 C   0  0  0  0  0  0  0  0  0  0  0  0
  184.6400  178.5540  139.5670 C   0  0  0  0  0  3  0  0  0  0  0  0
  186.5620  178.4120  141.5030 C   0  0  0  0  0  0  0  0  0  0  0  0
  185.9790  178.4340  139.0560 C   0  0  0  0  0  0  0  0  0  0  0  0
  182.6800  178.7800  142.7490 N   0  0  0  0  0  0  0  0  0  0  0  0
  185.3120  178.5310  142.0300 C   0  0  0  0  0  0  0  0  0  0  0  0
  183.6290  178.7100  143.7240 C   0  0  0  0  0  0  0  0  0  0  0  0
  185.6510  174.7320  136.8100 C   0  0  1  0  0  3  0  0  0  0  0  0
  187.7270  176.0010  137.4850 C   0  0  0  0  0  2  0  0  0  0  0  0
  187.8030  174.4200  135.5780 C   0  0  0  0  0  1  0  0  0  0  0  0
  185.2870  177.7290  136.7140 N   0  0  0  0  0  2  0  0  0  0  0  0
  184.3050  176.8920  137.4110 C   0  0  2  0  0  3  0  0  0  0  0  0
  186.3050  178.3370  137.5890 C   0  0  2  0  0  3  0  0  0  0  0  0
  184.8770  175.5400  137.8650 C   0  0  0  0  0  2  0  0  0  0  0  0
  184.8280  174.4220  135.7260 O   0  0  0  0  0  1  0  0  0  0  0  0
  183.0800  176.6990  136.5400 C   0  0  0  0  0  1  0  0  0  0  0  0
  188.0090  177.7770  137.2020 S   0  0  0  0  0  0  0  0  0  0  0  0
  186.9350  175.4120  136.3280 C   0  0  1  0  0  3  0  0  0  0  0  0
  188.5080  176.9810  141.1690 N   0  0  0  0  0  2  0  0  0  0  0  0
  189.9450  177.1450  141.0020 C   0  0  0  0  0  2  0  0  0  0  0  0
  190.6490  176.6670  142.2210 C   0  0  0  0  0  0  0  0  0  0  0  0
  191.7000  177.2880  142.6400 N   0  0  0  0  0  2  0  0  0  0  0  0
  190.2720  175.4310  142.8190 N   0  0  0  0  0  1  0  0  0  0  0  0
  1  6  1  0  0  0  0
  4  3  1  1  0  0  0
  4 27  1  0  0  0  0
  4 11  1  0  0  0  0
  5  4  1  0  0  0  0
  5 11  1  0  0  0  0
  6 13  2  0  0  0  0
  8 15  2  0  0  0  0
  8  2  1  0  0  0  0
  9  6  1  0  0  0  0
  9 14  1  0  0  0  0
 10  9  2  0  0  0  0
 11 14  2  0  0  0  0
 12 10  1  0  0  0  0
 12  5  2  0  0  0  0
 13 15  1  0  0  0  0
 14  8  1  0  0  0  0
 15  7  1  0  0  0  0
 16 23  1  6  0  0  0
 16 22  1  0  0  0  0
 19 20  1  0  0  0  0
 19 21  1  0  0  0  0
 20 24  1  6  0  0  0
 20 22  1  0  0  0  0
 21 12  1  1  0  0  0
 25 17  1  0  0  0  0
 25 21  1  0  0  0  0
 26 18  1  1  0  0  0
 26 16  1  0  0  0  0
 26 17  1  0  0  0  0
 28 27  1  0  0  0  0
 28 29  1  0  0  0  0
 29 30  2  0  0  0  0
 29 31  1  0  0  0  0
M  END
>  <MODEL>
8

>  <REMARK>
 VINA RESULT:      -6.6      2.115      2.736
  Name = 
  4 active torsions:
  status: ('A' for Active; 'I' for Inactive)
    1  A    between atoms: C_5  and  N_14
    2  A    between atoms: C_7  and  C_31
    3  A    between atoms: N_14  and  C_31
    4  A    between atoms: C_19  and  C_25
                            x       y       z     vdW  Elec       q    Type
                         _______ _______ _______ _____ _____    ______ ____

>  <TORSDO>
F 4

$$$$
=
 OpenBabel10222420263D

 31 34  0  0  1  0  0  0  0  0999 V2000
  189.2240  177.8980  138.0060 C   0  0  0  0  0  1  0  0  0  0  0  0
  186.1970  173.2580  136.2780 C   0  0  0  0  0  1  0  0  0  0  0  0
  182.8840  176.0290  136.0030 O   0  0  0  0  0  1  0  0  0  0  0  0
  183.5360  175.8900  137.2300 C   0  0  2  0  0  0  0  0  0  0  0  0
  184.2510  177.0160  137.6450 C   0  0  0  0  0  0  0  0  0  0  0  0
  188.3900  176.7390  137.5730 C   0  0  0  0  0  0  0  0  0  0  0  0
  189.0940  173.3500  136.3230 N   0  0  0  0  0  1  0  0  0  0  0  0
  186.9490  174.4710  136.7280 C   0  0  0  0  0  0  0  0  0  0  0  0
  186.9880  176.8010  137.5870 C   0  0  0  0  0  0  0  0  0  0  0  0
  186.2920  178.0150  138.0330 C   0  0  0  0  0  3  0  0  0  0  0  0
  184.9300  175.7960  137.2040 C   0  0  0  0  0  0  0  0  0  0  0  0
  184.8620  178.1570  138.0690 C   0  0  0  0  0  0  0  0  0  0  0  0
  189.0190  175.6030  137.1570 N   0  0  0  0  0  0  0  0  0  0  0  0
  186.2790  175.6200  137.1480 C   0  0  0  0  0  0  0  0  0  0  0  0
  188.3510  174.4910  136.7410 C   0  0  0  0  0  0  0  0  0  0  0  0
  182.6380  178.2560  141.7970 C   0  0  1  0  0  3  0  0  0  0  0  0
  181.7710  178.3700  139.4290 C   0  0  0  0  0  2  0  0  0  0  0  0
  180.3970  179.2410  141.2980 C   0  0  0  0  0  1  0  0  0  0  0  0
  184.4490  179.8160  139.9510 N   0  0  0  0  0  2  0  0  0  0  0  0
  185.0040  178.7620  140.8070 C   0  0  2  0  0  3  0  0  0  0  0  0
  184.1600  179.3930  138.5690 C   0  0  2  0  0  3  0  0  0  0  0  0
  183.9620  177.7160  141.2320 C   0  0  0  0  0  2  0  0  0  0  0  0
  182.8660  179.0140  142.9470 O   0  0  0  0  0  1  0  0  0  0  0  0
  185.6780  179.3810  142.0160 C   0  0  0  0  0  1  0  0  0  0  0  0
  182.3780  179.5070  138.1430 S   0  0  0  0  0  0  0  0  0  0  0  0
  181.8120  179.0540  140.7860 C   0  0  1  0  0  3  0  0  0  0  0  0
  182.8360  175.1880  138.2960 N   0  0  0  0  0  2  0  0  0  0  0  0
  181.6460  174.5660  137.7330 C   0  0  0  0  0  2  0  0  0  0  0  0
  180.4390  175.0510  138.4560 C   0  0  0  0  0  0  0  0  0  0  0  0
  179.5010  175.6540  137.8060 N   0  0  0  0  0  2  0  0  0  0  0  0
  180.3990  175.0070  139.8780 N   0  0  0  0  0  1  0  0  0  0  0  0
  2  8  1  0  0  0  0
  4  3  1  6  0  0  0
  4  5  1  0  0  0  0
  4 27  1  0  0  0  0
  5 12  1  0  0  0  0
  6  9  1  0  0  0  0
  6  1  1  0  0  0  0
  7 15  1  0  0  0  0
  8 15  2  0  0  0  0
  8 14  1  0  0  0  0
  9 10  1  0  0  0  0
 10 12  2  0  0  0  0
 11  4  1  0  0  0  0
 11  5  2  0  0  0  0
 13  6  2  0  0  0  0
 14 11  1  0  0  0  0
 14  9  2  0  0  0  0
 15 13  1  0  0  0  0
 16 23  1  1  0  0  0
 17 26  1  0  0  0  0
 19 20  1  0  0  0  0
 20 22  1  0  0  0  0
 20 24  1  1  0  0  0
 21 12  1  1  0  0  0
 21 19  1  0  0  0  0
 22 16  1  0  0  0  0
 25 21  1  0  0  0  0
 25 17  1  0  0  0  0
 26 18  1  1  0  0  0
 26 16  1  0  0  0  0
 28 27  1  0  0  0  0
 28 29  1  0  0  0  0
 29 31  1  0  0  0  0
 30 29  2  0  0  0  0
M  END
>  <MODEL>
9

>  <REMARK>
 VINA RESULT:      -6.3      4.181      8.476
  Name = 
  4 active torsions:
  status: ('A' for Active; 'I' for Inactive)
    1  A    between atoms: C_5  and  N_14
    2  A    between atoms: C_7  and  C_31
    3  A    between atoms: N_14  and  C_31
    4  A    between atoms: C_19  and  C_25
                            x       y       z     vdW  Elec       q    Type
                         _______ _______ _______ _____ _____    ______ ____

>  <TORSDO>
F 4

$$$$
