=
 OpenBabel10222417423D

 60 64  0  0  1  0  0  0  0  0999 V2000
  184.4940  178.1580  138.9350 N   0  0  0  0  0  0  0  0  0  0  0  0
  186.9310  178.0830  138.9310 C   0  0  0  0  0  2  0  0  0  0  0  0
  185.5560  177.0860  135.7680 C   0  0  0  0  0  3  0  0  0  0  0  0
  186.7220  177.5000  136.4020 C   0  0  0  0  0  0  0  0  0  0  0  0
  185.6680  178.1910  139.8310 C   0  0  1  0  0  3  0  0  0  0  0  0
  184.4960  177.4210  136.5440 N   0  0  0  0  0  0  0  0  0  0  0  0
  183.1690  176.9150  136.3330 C   0  0  0  0  0  0  0  0  0  0  0  0
  182.3820  176.7520  137.3040 O   0  0  0  0  0  0  0  0  0  0  0  0
  182.7590  176.5400  135.0140 N   0  0  0  0  0  2  0  0  0  0  0  0
  186.3420  178.1110  137.5710 C   0  0  0  0  0  0  0  0  0  0  0  0
  185.0030  178.0870  137.6100 C   0  0  0  0  0  0  0  0  0  0  0  0
  181.1020  181.9330  138.2670 C   0  0  0  0  0  2  0  0  0  0  0  0
  181.1370  178.7160  140.2470 C   0  0  0  0  0  2  0  0  0  0  0  0
  182.3720  177.9890  140.1050 C   0  0  0  0  0  2  0  0  0  0  0  0
  181.5290  180.6600  138.8640 C   0  0  1  0  0  3  0  0  0  0  0  0
  183.2040  178.6730  139.3070 C   0  0  0  0  0  0  0  0  0  0  0  0
  180.5370  181.0230  139.1030 C   0  0  0  0  0  0  0  0  0  0  0  0
  181.3720  179.8700  139.4260 C   0  0  0  0  0  2  0  0  0  0  0  0
  182.7020  179.9560  138.7440 C   0  0  0  0  0  3  0  0  0  0  0  0
  179.2090  181.2360  139.5910 O   0  0  0  0  0  0  0  0  0  0  0  0
  178.9310  181.6160  140.9300 C   0  0  0  0  0  1  0  0  0  0  0  0
  188.0660  177.2010  136.0000 C   0  0  0  0  0  0  0  0  0  0  0  0
  189.1930  176.9130  135.6830 C   0  0  0  0  0  0  0  0  0  0  0  0
  190.4710  176.5560  135.3390 O   0  0  0  0  0  0  0  0  0  0  0  0
  193.1600  174.3150  135.5440 C   0  0  0  0  0  2  0  0  0  0  0  0
  191.7920  176.4110  137.3210 C   0  0  0  0  0  3  0  0  0  0  0  0
  191.3170  175.8480  136.2010 C   0  0  0  0  0  0  0  0  0  0  0  0
  193.9550  174.0950  136.8300 C   0  0  2  0  0  3  0  0  0  0  0  0
  194.0410  175.3750  137.6740 C   0  0  1  0  0  3  0  0  0  0  0  0
  192.6900  175.7100  138.2920 C   0  0  0  0  0  2  0  0  0  0  0  0
  191.6710  174.4410  135.8320 C   0  0  0  0  0  2  0  0  0  0  0  0
  194.9600  175.2030  138.7120 O   0  0  0  0  0  1  0  0  0  0  0  0
  195.3450  173.6010  136.4550 C   0  0  0  0  0  2  0  0  0  0  0  0
  196.0370  174.6000  135.5400 C   0  0  0  0  0  2  0  0  0  0  0  0
  197.5180  174.4210  135.5740 C   0  0  0  0  0  0  0  0  0  0  0  0
  198.0110  173.2650  135.6710 O   0  0  0  0  0  1  0  0  0  0  0  0
  198.3560  175.5260  135.4660 O   0  0  0  0  0  0  0  0  0  0  0  0
  181.4310  176.0190  134.7400 C   0  0  0  0  0  2  0  0  0  0  0  0
  181.4470  174.5070  134.8620 C   0  0  0  0  0  2  0  0  0  0  0  0
  180.9180  173.7980  137.1930 C   0  0  0  0  0  1  0  0  0  0  0  0
  180.3520  174.0410  135.8000 C   0  0  0  0  0  2  0  0  0  0  0  0
  185.7030  179.4090  140.6530 N   0  0  0  0  0  2  0  0  0  0  0  0
  185.7560  179.0810  142.0760 C   0  0  0  0  0  2  0  0  0  0  0  0
  184.3580  179.1320  142.6680 C   0  0  0  0  0  2  0  0  0  0  0  0
  184.4360  179.1780  144.1630 C   0  0  0  0  0  0  0  0  0  0  0  0
  183.4060  179.2180  144.8200 O   0  0  0  0  0  0  0  0  0  0  0  0
  185.7550  179.0690  144.8750 C   0  0  0  0  0  2  0  0  0  0  0  0
  185.6230  178.3680  146.2220 C   0  0  0  0  0  2  0  0  0  0  0  0
  186.6050  177.2070  146.3280 C   0  0  0  0  0  2  0  0  0  0  0  0
  187.3260  177.2710  147.5540 O   0  0  0  0  0  0  0  0  0  0  0  0
  188.7980  178.7990  148.4730 O   0  0  0  0  0  0  0  0  0  0  0  0
  188.5930  177.8560  147.6580 C   0  0  0  0  0  0  0  0  0  0  0  0
  191.8080  176.4580  145.2550 C   0  0  0  0  0  3  0  0  0  0  0  0
  192.7390  175.3500  147.2200 N   0  0  0  0  0  1  0  0  0  0  0  0
  190.8090  177.2430  144.6770 C   0  0  0  0  0  0  0  0  0  0  0  0
  190.6820  176.5990  147.3600 N   0  0  0  0  0  0  0  0  0  0  0  0
  190.8730  177.5700  143.3280 O   0  0  0  0  0  1  0  0  0  0  0  0
  191.7260  176.1440  146.6140 C   0  0  0  0  0  0  0  0  0  0  0  0
  189.6940  177.3670  146.8170 C   0  0  0  0  0  0  0  0  0  0  0  0
  189.7450  177.6980  145.4580 C   0  0  0  0  0  3  0  0  0  0  0  0
  1 16  1  0  0  0  0
  1  5  1  0  0  0  0
  2  5  1  0  0  0  0
  3  4  2  0  0  0  0
  3  6  1  0  0  0  0
  4 10  1  0  0  0  0
  5 42  1  6  0  0  0
  6 11  1  0  0  0  0
  7  6  1  0  0  0  0
  7  8  2  0  0  0  0
  9  7  1  0  0  0  0
 10 11  2  0  0  0  0
 10  2  1  0  0  0  0
 11  1  1  0  0  0  0
 12 17  2  0  0  0  0
 14 13  1  0  0  0  0
 15 17  1  6  0  0  0
 15 18  1  0  0  0  0
 16 14  1  0  0  0  0
 17 20  1  0  0  0  0
 18 13  1  0  0  0  0
 19 15  1  0  0  0  0
 19 16  2  0  0  0  0
 20 21  1  0  0  0  0
 22  4  1  0  0  0  0
 23 22  3  0  0  0  0
 24 23  1  0  0  0  0
 24 27  1  0  0  0  0
 25 31  1  0  0  0  0
 25 28  1  0  0  0  0
 26 30  1  0  0  0  0
 27 26  2  0  0  0  0
 28 33  1  6  0  0  0
 28 29  1  0  0  0  0
 29 30  1  0  0  0  0
 29 32  1  1  0  0  0
 31 27  1  0  0  0  0
 34 35  1  0  0  0  0
 34 33  1  0  0  0  0
 35 36  1  0  0  0  0
 37 35  2  0  0  0  0
 38 39  1  0  0  0  0
 38  9  1  0  0  0  0
 39 41  1  0  0  0  0
 41 40  1  0  0  0  0
 42 43  1  0  0  0  0
 43 44  1  0  0  0  0
 44 45  1  0  0  0  0
 45 46  2  0  0  0  0
 45 47  1  0  0  0  0
 47 48  1  0  0  0  0
 48 49  1  0  0  0  0
 49 50  1  0  0  0  0
 50 52  1  0  0  0  0
 52 51  2  0  0  0  0
 53 58  1  0  0  0  0
 55 53  2  0  0  0  0
 55 60  1  0  0  0  0
 57 55  1  0  0  0  0
 58 54  1  0  0  0  0
 58 56  2  0  0  0  0
 59 56  1  0  0  0  0
 59 52  1  0  0  0  0
 60 59  2  0  0  0  0
M  END
>  <MODEL>
1

>  <REMARK>
 VINA RESULT:      -7.3      0.000      0.000
  Name = 
  21 active torsions:
  status: ('A' for Active; 'I' for Inactive)
    1  A    between atoms: C_1  and  C_32
    2  A    between atoms: C_1  and  C_58
    3  A    between atoms: O_4  and  C_51
    4  A    between atoms: N_5  and  C_15
    5  A    between atoms: N_5  and  C_31
    6  A    between atoms: C_6  and  C_12
    7  A    between atoms: N_7  and  C_42
    8  A    between atoms: O_13  and  C_37
    9  A    between atoms: O_13  and  C_38
   10  A    between atoms: C_14  and  C_59
   11  A    between atoms: C_16  and  O_39
   12  A    between atoms: C_23  and  O_39
   13  A    between atoms: C_24  and  C_33
   14  A    between atoms: C_27  and  C_41
   15  A    between atoms: N_28  and  C_56
   16  A    between atoms: C_31  and  C_58
   17  A    between atoms: C_32  and  C_44
   18  A    between atoms: C_33  and  C_41
   19  A    between atoms: C_37  and  C_53
   20  A    between atoms: C_38  and  C_44
   21  A    between atoms: C_56  and  C_59
                            x       y       z     vdW  Elec       q    Type
                         _______ _______ _______ _____ _____    ______ ____

>  <TORSDO>
F 21

$$$$
=
 OpenBabel10222417423D

 60 64  0  0  1  0  0  0  0  0999 V2000
  184.6080  178.6790  140.4390 N   0  0  0  0  0  0  0  0  0  0  0  0
  186.3870  178.7750  142.1030 C   0  0  0  0  0  2  0  0  0  0  0  0
  183.1440  178.5440  143.6240 C   0  0  0  0  0  3  0  0  0  0  0  0
  184.5050  178.4010  143.8630 C   0  0  0  0  0  0  0  0  0  0  0  0
  186.0440  178.9860  140.6010 C   0  0  1  0  0  3  0  0  0  0  0  0
  182.9300  178.5010  142.2860 N   0  0  0  0  0  0  0  0  0  0  0  0
  181.6890  178.8810  141.6690 C   0  0  0  0  0  0  0  0  0  0  0  0
  181.6740  179.3750  140.5100 O   0  0  0  0  0  0  0  0  0  0  0  0
  180.4680  178.7490  142.4030 N   0  0  0  0  0  2  0  0  0  0  0  0
  185.1090  178.2500  142.6400 C   0  0  0  0  0  0  0  0  0  0  0  0
  184.1380  178.2720  141.7170 C   0  0  0  0  0  0  0  0  0  0  0  0
  182.7490  174.8570  137.5860 C   0  0  0  0  0  2  0  0  0  0  0  0
  183.0550  178.5960  137.1400 C   0  0  0  0  0  2  0  0  0  0  0  0
  183.6840  179.2410  138.2640 C   0  0  0  0  0  2  0  0  0  0  0  0
  183.0660  176.2740  137.8130 C   0  0  1  0  0  3  0  0  0  0  0  0
  184.0180  178.3190  139.1780 C   0  0  0  0  0  0  0  0  0  0  0  0
  182.5730  176.0080  136.8860 C   0  0  0  0  0  0  0  0  0  0  0  0
  183.0630  177.2180  137.5410 C   0  0  0  0  0  2  0  0  0  0  0  0
  183.6680  176.9040  138.8740 C   0  0  0  0  0  3  0  0  0  0  0  0
  181.9390  175.9710  135.6050 O   0  0  0  0  0  0  0  0  0  0  0  0
  180.5290  175.9400  135.4410 C   0  0  0  0  0  1  0  0  0  0  0  0
  185.1720  178.5500  145.1250 C   0  0  0  0  0  0  0  0  0  0  0  0
  185.7640  178.6930  146.1650 C   0  0  0  0  0  0  0  0  0  0  0  0
  186.4620  178.8720  147.3310 O   0  0  0  0  0  0  0  0  0  0  0  0
  189.1220  177.0000  146.0200 C   0  0  0  0  0  2  0  0  0  0  0  0
  188.4830  178.5870  148.5690 C   0  0  0  0  0  3  0  0  0  0  0  0
  187.6240  178.1530  147.6350 C   0  0  0  0  0  0  0  0  0  0  0  0
  190.3820  176.6840  146.8230 C   0  0  2  0  0  3  0  0  0  0  0  0
  190.7340  177.8120  147.8040 C   0  0  1  0  0  3  0  0  0  0  0  0
  189.7350  177.8640  148.9520 C   0  0  0  0  0  2  0  0  0  0  0  0
  187.8750  176.8820  146.8850 C   0  0  0  0  0  2  0  0  0  0  0  0
  192.0040  177.5980  148.3450 O   0  0  0  0  0  1  0  0  0  0  0  0
  191.5240  176.4420  145.8460 C   0  0  0  0  0  2  0  0  0  0  0  0
  191.4810  177.4590  144.7150 C   0  0  0  0  0  2  0  0  0  0  0  0
  191.3900  176.7810  143.3880 C   0  0  0  0  0  0  0  0  0  0  0  0
  191.9280  177.3030  142.3760 O   0  0  0  0  0  0  0  0  0  0  0  0
  190.7400  175.5570  143.2750 O   0  0  0  0  0  1  0  0  0  0  0  0
  179.1840  179.1200  141.8340 C   0  0  0  0  0  2  0  0  0  0  0  0
  178.9310  178.3010  140.5820 C   0  0  0  0  0  2  0  0  0  0  0  0
  180.0980  176.1290  140.2180 C   0  0  0  0  0  1  0  0  0  0  0  0
  178.9310  176.8220  140.9090 C   0  0  0  0  0  2  0  0  0  0  0  0
  186.8900  178.1480  139.7400 N   0  0  0  0  0  2  0  0  0  0  0  0
  188.3050  178.3320  140.0560 C   0  0  0  0  0  2  0  0  0  0  0  0
  189.1250  177.2340  139.4000 C   0  0  0  0  0  2  0  0  0  0  0  0
  189.6160  177.6920  138.0610 C   0  0  0  0  0  0  0  0  0  0  0  0
  189.3590  178.8250  137.6800 O   0  0  0  0  0  0  0  0  0  0  0  0
  190.5090  176.8220  137.2220 C   0  0  0  0  0  2  0  0  0  0  0  0
  189.7990  175.5610  136.7460 C   0  0  0  0  0  2  0  0  0  0  0  0
  190.6020  174.3170  137.1060 C   0  0  0  0  0  2  0  0  0  0  0  0
  191.6170  174.0780  136.1370 O   0  0  0  0  0  0  0  0  0  0  0  0
  191.9760  171.8900  135.4850 O   0  0  0  0  0  0  0  0  0  0  0  0
  192.3820  172.9070  136.1130 C   0  0  0  0  0  0  0  0  0  0  0  0
  196.1170  172.8170  138.1400 C   0  0  0  0  0  3  0  0  0  0  0  0
  195.5020  174.8880  139.2770 N   0  0  0  0  0  1  0  0  0  0  0  0
  195.8010  171.8010  137.2370 C   0  0  0  0  0  0  0  0  0  0  0  0
  194.0020  173.8430  137.7060 N   0  0  0  0  0  0  0  0  0  0  0  0
  196.7060  170.7750  136.9980 O   0  0  0  0  0  1  0  0  0  0  0  0
  195.1930  173.8420  138.3630 C   0  0  0  0  0  0  0  0  0  0  0  0
  193.6700  172.8620  136.8190 C   0  0  0  0  0  0  0  0  0  0  0  0
  194.5720  171.8190  136.5740 C   0  0  0  0  0  3  0  0  0  0  0  0
  1  5  1  0  0  0  0
  1 11  1  0  0  0  0
  2 10  1  0  0  0  0
  3  4  2  0  0  0  0
  4 22  1  0  0  0  0
  5 42  1  6  0  0  0
  5  2  1  0  0  0  0
  6  3  1  0  0  0  0
  7  6  1  0  0  0  0
  7  9  1  0  0  0  0
  8  7  2  0  0  0  0
 10  4  1  0  0  0  0
 11  6  1  0  0  0  0
 11 10  2  0  0  0  0
 13 18  1  0  0  0  0
 13 14  1  0  0  0  0
 14 16  1  0  0  0  0
 15 17  1  1  0  0  0
 15 19  1  0  0  0  0
 16  1  1  0  0  0  0
 17 12  2  0  0  0  0
 18 15  1  0  0  0  0
 19 16  2  0  0  0  0
 20 17  1  0  0  0  0
 21 20  1  0  0  0  0
 22 23  3  0  0  0  0
 23 24  1  0  0  0  0
 24 27  1  0  0  0  0
 25 28  1  0  0  0  0
 25 31  1  0  0  0  0
 26 30  1  0  0  0  0
 27 26  2  0  0  0  0
 28 33  1  6  0  0  0
 28 29  1  0  0  0  0
 29 32  1  1  0  0  0
 29 30  1  0  0  0  0
 31 27  1  0  0  0  0
 34 33  1  0  0  0  0
 35 34  1  0  0  0  0
 36 35  2  0  0  0  0
 37 35  1  0  0  0  0
 38  9  1  0  0  0  0
 39 41  1  0  0  0  0
 39 38  1  0  0  0  0
 40 41  1  0  0  0  0
 42 43  1  0  0  0  0
 44 43  1  0  0  0  0
 45 44  1  0  0  0  0
 46 45  2  0  0  0  0
 47 45  1  0  0  0  0
 48 49  1  0  0  0  0
 48 47  1  0  0  0  0
 50 49  1  0  0  0  0
 51 52  2  0  0  0  0
 52 50  1  0  0  0  0
 52 59  1  0  0  0  0
 53 58  1  0  0  0  0
 55 53  2  0  0  0  0
 56 58  2  0  0  0  0
 57 55  1  0  0  0  0
 58 54  1  0  0  0  0
 59 56  1  0  0  0  0
 60 59  2  0  0  0  0
 60 55  1  0  0  0  0
M  END
>  <MODEL>
2

>  <REMARK>
 VINA RESULT:      -7.2      2.838      8.832
  Name = 
  21 active torsions:
  status: ('A' for Active; 'I' for Inactive)
    1  A    between atoms: C_1  and  C_32
    2  A    between atoms: C_1  and  C_58
    3  A    between atoms: O_4  and  C_51
    4  A    between atoms: N_5  and  C_15
    5  A    between atoms: N_5  and  C_31
    6  A    between atoms: C_6  and  C_12
    7  A    between atoms: N_7  and  C_42
    8  A    between atoms: O_13  and  C_37
    9  A    between atoms: O_13  and  C_38
   10  A    between atoms: C_14  and  C_59
   11  A    between atoms: C_16  and  O_39
   12  A    between atoms: C_23  and  O_39
   13  A    between atoms: C_24  and  C_33
   14  A    between atoms: C_27  and  C_41
   15  A    between atoms: N_28  and  C_56
   16  A    between atoms: C_31  and  C_58
   17  A    between atoms: C_32  and  C_44
   18  A    between atoms: C_33  and  C_41
   19  A    between atoms: C_37  and  C_53
   20  A    between atoms: C_38  and  C_44
   21  A    between atoms: C_56  and  C_59
                            x       y       z     vdW  Elec       q    Type
                         _______ _______ _______ _____ _____    ______ ____

>  <TORSDO>
F 21

$$$$
=
 OpenBabel10222417423D

 60 64  0  0  1  0  0  0  0  0999 V2000
  188.9630  177.5110  142.5090 N   0  0  0  0  0  0  0  0  0  0  0  0
  188.2710  177.5520  140.1720 C   0  0  0  0  0  2  0  0  0  0  0  0
  185.6570  178.6740  142.3620 C   0  0  0  0  0  3  0  0  0  0  0  0
  186.0750  178.6530  141.0370 C   0  0  0  0  0  0  0  0  0  0  0  0
  189.3450  177.0290  141.1660 C   0  0  1  0  0  3  0  0  0  0  0  0
  186.7220  178.4130  143.1590 N   0  0  0  0  0  0  0  0  0  0  0  0
  186.6080  178.0940  144.5550 C   0  0  0  0  0  0  0  0  0  0  0  0
  187.4460  177.3340  145.1090 O   0  0  0  0  0  0  0  0  0  0  0  0
  185.5000  178.6000  145.3050 N   0  0  0  0  0  2  0  0  0  0  0  0
  187.4230  178.3930  141.0510 C   0  0  0  0  0  0  0  0  0  0  0  0
  187.7920  178.2960  142.3350 C   0  0  0  0  0  0  0  0  0  0  0  0
  190.6680  175.4190  146.8590 C   0  0  0  0  0  2  0  0  0  0  0  0
  191.6550  178.4250  144.7950 C   0  0  0  0  0  2  0  0  0  0  0  0
  190.8270  178.5950  143.6270 C   0  0  0  0  0  2  0  0  0  0  0  0
  190.7030  176.4480  145.8100 C   0  0  1  0  0  3  0  0  0  0  0  0
  189.8960  177.6320  143.5970 C   0  0  0  0  0  0  0  0  0  0  0  0
  191.4390  176.5080  146.6030 C   0  0  0  0  0  0  0  0  0  0  0  0
  191.0880  177.2520  145.3960 C   0  0  0  0  0  2  0  0  0  0  0  0
  189.9210  176.6280  144.6960 C   0  0  0  0  0  3  0  0  0  0  0  0
  192.5090  176.8440  147.4900 O   0  0  0  0  0  0  0  0  0  0  0  0
  192.9390  175.9910  148.5400 C   0  0  0  0  0  1  0  0  0  0  0  0
  185.2370  178.7210  139.8750 C   0  0  0  0  0  0  0  0  0  0  0  0
  184.4990  178.7780  138.9230 C   0  0  0  0  0  0  0  0  0  0  0  0
  183.6330  178.8440  137.8630 O   0  0  0  0  0  0  0  0  0  0  0  0
  183.0240  175.9720  135.9440 C   0  0  0  0  0  2  0  0  0  0  0  0
  181.9930  177.2470  138.5390 C   0  0  0  0  0  3  0  0  0  0  0  0
  182.7160  177.8270  137.5700 C   0  0  0  0  0  0  0  0  0  0  0  0
  181.9010  174.9880  136.2660 C   0  0  2  0  0  3  0  0  0  0  0  0
  181.6410  174.8920  137.7760 C   0  0  1  0  0  3  0  0  0  0  0  0
  180.9890  176.1650  138.2970 C   0  0  0  0  0  2  0  0  0  0  0  0
  182.5670  177.4120  136.1400 C   0  0  0  0  0  2  0  0  0  0  0  0
  180.7820  173.8240  138.0470 O   0  0  0  0  0  1  0  0  0  0  0  0
  182.2790  173.6280  135.6950 C   0  0  0  0  0  2  0  0  0  0  0  0
  183.7920  173.4790  135.6320 C   0  0  0  0  0  2  0  0  0  0  0  0
  184.2730  172.4800  136.6310 C   0  0  0  0  0  0  0  0  0  0  0  0
  184.6320  172.8600  137.7780 O   0  0  0  0  0  1  0  0  0  0  0  0
  184.2960  171.1280  136.3090 O   0  0  0  0  0  0  0  0  0  0  0  0
  185.3290  178.3080  146.7170 C   0  0  0  0  0  2  0  0  0  0  0  0
  186.3770  179.0570  147.5180 C   0  0  0  0  0  2  0  0  0  0  0  0
  188.6920  178.4520  148.2180 C   0  0  0  0  0  1  0  0  0  0  0  0
  187.2180  178.0880  148.3250 C   0  0  0  0  0  2  0  0  0  0  0  0
  190.6910  177.4770  140.7790 N   0  0  0  0  0  2  0  0  0  0  0  0
  190.8300  177.5230  139.3250 C   0  0  0  0  0  2  0  0  0  0  0  0
  191.3410  176.1870  138.8140 C   0  0  0  0  0  2  0  0  0  0  0  0
  192.2930  176.4020  137.6780 C   0  0  0  0  0  0  0  0  0  0  0  0
  193.4160  176.8310  137.9060 O   0  0  0  0  0  0  0  0  0  0  0  0
  191.9320  176.0020  136.2760 C   0  0  0  0  0  2  0  0  0  0  0  0
  191.8530  174.4890  136.1140 C   0  0  0  0  0  2  0  0  0  0  0  0
  193.2400  173.8610  136.1950 C   0  0  0  0  0  2  0  0  0  0  0  0
  194.0650  174.3330  135.1350 O   0  0  0  0  0  0  0  0  0  0  0  0
  195.2700  176.2950  134.9280 O   0  0  0  0  0  0  0  0  0  0  0  0
  195.2100  175.1070  135.3530 C   0  0  0  0  0  0  0  0  0  0  0  0
  198.5250  173.4950  137.4700 C   0  0  0  0  0  3  0  0  0  0  0  0
  198.4190  175.3960  138.9970 N   0  0  0  0  0  1  0  0  0  0  0  0
  198.0250  172.8170  136.3560 C   0  0  0  0  0  0  0  0  0  0  0  0
  196.8540  175.1810  137.1760 N   0  0  0  0  0  0  0  0  0  0  0  0
  198.6150  171.6300  135.9410 O   0  0  0  0  0  1  0  0  0  0  0  0
  197.9190  174.6900  137.8680 C   0  0  0  0  0  0  0  0  0  0  0  0
  196.3480  174.5370  136.0860 C   0  0  0  0  0  0  0  0  0  0  0  0
  196.9310  173.3360  135.6610 C   0  0  0  0  0  3  0  0  0  0  0  0
  1 16  1  0  0  0  0
  2 10  1  0  0  0  0
  2  5  1  0  0  0  0
  3  6  1  0  0  0  0
  4 10  1  0  0  0  0
  4  3  2  0  0  0  0
  5 42  1  6  0  0  0
  5  1  1  0  0  0  0
  6  7  1  0  0  0  0
  7  8  2  0  0  0  0
  7  9  1  0  0  0  0
  9 38  1  0  0  0  0
 10 11  2  0  0  0  0
 11  1  1  0  0  0  0
 11  6  1  0  0  0  0
 13 18  1  0  0  0  0
 14 13  1  0  0  0  0
 15 17  1  6  0  0  0
 16 14  1  0  0  0  0
 16 19  2  0  0  0  0
 17 12  2  0  0  0  0
 17 20  1  0  0  0  0
 18 15  1  0  0  0  0
 19 15  1  0  0  0  0
 20 21  1  0  0  0  0
 22  4  1  0  0  0  0
 23 22  3  0  0  0  0
 24 23  1  0  0  0  0
 25 31  1  0  0  0  0
 25 28  1  0  0  0  0
 27 24  1  0  0  0  0
 27 26  2  0  0  0  0
 28 33  1  1  0  0  0
 28 29  1  0  0  0  0
 29 32  1  6  0  0  0
 29 30  1  0  0  0  0
 30 26  1  0  0  0  0
 31 27  1  0  0  0  0
 34 33  1  0  0  0  0
 34 35  1  0  0  0  0
 35 36  1  0  0  0  0
 37 35  2  0  0  0  0
 38 39  1  0  0  0  0
 39 41  1  0  0  0  0
 40 41  1  0  0  0  0
 43 42  1  0  0  0  0
 44 43  1  0  0  0  0
 45 46  2  0  0  0  0
 45 44  1  0  0  0  0
 47 45  1  0  0  0  0
 48 49  1  0  0  0  0
 48 47  1  0  0  0  0
 50 52  1  0  0  0  0
 50 49  1  0  0  0  0
 51 52  2  0  0  0  0
 52 59  1  0  0  0  0
 53 58  1  0  0  0  0
 55 53  2  0  0  0  0
 56 58  2  0  0  0  0
 57 55  1  0  0  0  0
 58 54  1  0  0  0  0
 59 56  1  0  0  0  0
 60 59  2  0  0  0  0
 60 55  1  0  0  0  0
M  END
>  <MODEL>
3

>  <REMARK>
 VINA RESULT:      -6.8      3.073     11.201
  Name = 
  21 active torsions:
  status: ('A' for Active; 'I' for Inactive)
    1  A    between atoms: C_1  and  C_32
    2  A    between atoms: C_1  and  C_58
    3  A    between atoms: O_4  and  C_51
    4  A    between atoms: N_5  and  C_15
    5  A    between atoms: N_5  and  C_31
    6  A    between atoms: C_6  and  C_12
    7  A    between atoms: N_7  and  C_42
    8  A    between atoms: O_13  and  C_37
    9  A    between atoms: O_13  and  C_38
   10  A    between atoms: C_14  and  C_59
   11  A    between atoms: C_16  and  O_39
   12  A    between atoms: C_23  and  O_39
   13  A    between atoms: C_24  and  C_33
   14  A    between atoms: C_27  and  C_41
   15  A    between atoms: N_28  and  C_56
   16  A    between atoms: C_31  and  C_58
   17  A    between atoms: C_32  and  C_44
   18  A    between atoms: C_33  and  C_41
   19  A    between atoms: C_37  and  C_53
   20  A    between atoms: C_38  and  C_44
   21  A    between atoms: C_56  and  C_59
                            x       y       z     vdW  Elec       q    Type
                         _______ _______ _______ _____ _____    ______ ____

>  <TORSDO>
F 21

$$$$
=
 OpenBabel10222417423D

 60 64  0  0  1  0  0  0  0  0999 V2000
  187.8040  178.2030  140.2360 N   0  0  0  0  0  0  0  0  0  0  0  0
  188.2970  177.6300  137.9180 C   0  0  0  0  0  2  0  0  0  0  0  0
  190.9650  176.6870  140.1270 C   0  0  0  0  0  3  0  0  0  0  0  0
  190.4450  176.4920  138.8540 C   0  0  0  0  0  0  0  0  0  0  0  0
  187.3600  178.4510  138.8490 C   0  0  1  0  0  3  0  0  0  0  0  0
  189.9970  177.2120  140.9180 N   0  0  0  0  0  0  0  0  0  0  0  0
  190.2530  177.7850  142.2100 C   0  0  0  0  0  0  0  0  0  0  0  0
  189.5370  178.7240  142.6490 O   0  0  0  0  0  0  0  0  0  0  0  0
  191.3670  177.3200  142.9790 N   0  0  0  0  0  2  0  0  0  0  0  0
  189.1330  176.8930  138.8970 C   0  0  0  0  0  0  0  0  0  0  0  0
  188.8800  177.2790  140.1540 C   0  0  0  0  0  0  0  0  0  0  0  0
  186.8480  176.8110  145.0680 C   0  0  0  0  0  2  0  0  0  0  0  0
  185.3620  179.3450  142.6930 C   0  0  0  0  0  2  0  0  0  0  0  0
  185.9990  179.3380  141.4010 C   0  0  0  0  0  2  0  0  0  0  0  0
  186.5760  177.6170  143.8700 C   0  0  1  0  0  3  0  0  0  0  0  0
  186.9560  178.3990  141.3800 C   0  0  0  0  0  0  0  0  0  0  0  0
  185.9720  177.8000  144.7500 C   0  0  0  0  0  0  0  0  0  0  0  0
  186.0830  178.3180  143.3890 C   0  0  0  0  0  2  0  0  0  0  0  0
  187.1680  177.6200  142.6310 C   0  0  0  0  0  3  0  0  0  0  0  0
  185.0350  178.2610  145.7280 O   0  0  0  0  0  0  0  0  0  0  0  0
  185.3930  178.5240  147.0760 C   0  0  0  0  0  1  0  0  0  0  0  0
  191.1760  176.1080  137.6810 C   0  0  0  0  0  0  0  0  0  0  0  0
  191.8020  175.8250  136.6900 C   0  0  0  0  0  0  0  0  0  0  0  0
  192.5220  175.5360  135.5600 O   0  0  0  0  0  0  0  0  0  0  0  0
  195.7460  174.8250  136.7420 C   0  0  0  0  0  2  0  0  0  0  0  0
  193.3410  173.2950  135.6030 C   0  0  0  0  0  3  0  0  0  0  0  0
  193.5750  174.6140  135.5490 C   0  0  0  0  0  0  0  0  0  0  0  0
  196.3610  173.4280  136.6720 C   0  0  2  0  0  3  0  0  0  0  0  0
  195.3000  172.3290  136.8220 C   0  0  1  0  0  3  0  0  0  0  0  0
  194.4160  172.2550  135.5840 C   0  0  0  0  0  2  0  0  0  0  0  0
  194.9710  175.1490  135.4720 C   0  0  0  0  0  2  0  0  0  0  0  0
  195.9170  171.0870  136.9870 O   0  0  0  0  0  1  0  0  0  0  0  0
  197.4150  173.3150  137.7650 C   0  0  0  0  0  2  0  0  0  0  0  0
  198.0600  174.6680  138.0250 C   0  0  0  0  0  2  0  0  0  0  0  0
  198.0930  174.9730  139.4860 C   0  0  0  0  0  0  0  0  0  0  0  0
  199.1800  174.9060  140.1190 O   0  0  0  0  0  0  0  0  0  0  0  0
  196.9300  175.3630  140.1420 O   0  0  0  0  0  1  0  0  0  0  0  0
  191.6780  177.8630  144.2890 C   0  0  0  0  0  2  0  0  0  0  0  0
  191.1170  176.9480  145.3620 C   0  0  0  0  0  2  0  0  0  0  0  0
  189.6480  176.8060  147.3700 C   0  0  0  0  0  1  0  0  0  0  0  0
  190.1370  177.7000  146.2390 C   0  0  0  0  0  2  0  0  0  0  0  0
  185.9520  178.0820  138.6440 N   0  0  0  0  0  2  0  0  0  0  0  0
  185.7640  177.4270  137.3510 C   0  0  0  0  0  2  0  0  0  0  0  0
  184.4810  176.6130  137.3680 C   0  0  0  0  0  2  0  0  0  0  0  0
  184.7870  175.1700  137.1090 C   0  0  0  0  0  0  0  0  0  0  0  0
  185.8370  174.8640  136.5630 O   0  0  0  0  0  0  0  0  0  0  0  0
  183.8750  174.0830  137.6040 C   0  0  0  0  0  2  0  0  0  0  0  0
  183.0490  173.4710  136.4800 C   0  0  0  0  0  2  0  0  0  0  0  0
  181.9510  172.5730  137.0400 C   0  0  0  0  0  2  0  0  0  0  0  0
  180.6660  173.0830  136.6990 O   0  0  0  0  0  0  0  0  0  0  0  0
  180.2050  175.2300  135.9780 O   0  0  0  0  0  0  0  0  0  0  0  0
  180.2910  174.4100  136.9340 C   0  0  0  0  0  0  0  0  0  0  0  0
  179.4540  175.7120  140.8940 C   0  0  0  0  0  3  0  0  0  0  0  0
  179.6330  178.0220  140.1260 N   0  0  0  0  0  1  0  0  0  0  0  0
  179.5040  174.3450  140.6150 C   0  0  0  0  0  0  0  0  0  0  0  0
  179.9350  176.1820  138.5990 N   0  0  0  0  0  0  0  0  0  0  0  0
  179.2900  173.4200  141.6300 O   0  0  0  0  0  1  0  0  0  0  0  0
  179.6750  176.6250  139.8590 C   0  0  0  0  0  0  0  0  0  0  0  0
  179.9890  174.8520  138.3030 C   0  0  0  0  0  0  0  0  0  0  0  0
  179.7690  173.9100  139.3160 C   0  0  0  0  0  3  0  0  0  0  0  0
  1 16  1  0  0  0  0
  2  5  1  0  0  0  0
  2 10  1  0  0  0  0
  3  6  1  0  0  0  0
  4 10  1  0  0  0  0
  4  3  2  0  0  0  0
  5 42  1  1  0  0  0
  5  1  1  0  0  0  0
  6  7  1  0  0  0  0
  7  8  2  0  0  0  0
  7  9  1  0  0  0  0
  9 38  1  0  0  0  0
 10 11  2  0  0  0  0
 11  1  1  0  0  0  0
 11  6  1  0  0  0  0
 13 18  1  0  0  0  0
 14 13  1  0  0  0  0
 15 17  1  1  0  0  0
 16 14  1  0  0  0  0
 16 19  2  0  0  0  0
 17 12  2  0  0  0  0
 17 20  1  0  0  0  0
 18 15  1  0  0  0  0
 19 15  1  0  0  0  0
 20 21  1  0  0  0  0
 22  4  1  0  0  0  0
 23 22  3  0  0  0  0
 24 23  1  0  0  0  0
 27 24  1  0  0  0  0
 27 26  2  0  0  0  0
 28 25  1  0  0  0  0
 28 29  1  0  0  0  0
 28 33  1  1  0  0  0
 29 32  1  6  0  0  0
 30 26  1  0  0  0  0
 30 29  1  0  0  0  0
 31 27  1  0  0  0  0
 31 25  1  0  0  0  0
 33 34  1  0  0  0  0
 34 35  1  0  0  0  0
 35 36  2  0  0  0  0
 35 37  1  0  0  0  0
 38 39  1  0  0  0  0
 39 41  1  0  0  0  0
 41 40  1  0  0  0  0
 43 44  1  0  0  0  0
 43 42  1  0  0  0  0
 45 44  1  0  0  0  0
 45 47  1  0  0  0  0
 46 45  2  0  0  0  0
 48 49  1  0  0  0  0
 48 47  1  0  0  0  0
 50 52  1  0  0  0  0
 50 49  1  0  0  0  0
 51 52  2  0  0  0  0
 52 59  1  0  0  0  0
 55 53  1  0  0  0  0
 55 57  1  0  0  0  0
 56 58  1  0  0  0  0
 58 54  1  0  0  0  0
 58 53  2  0  0  0  0
 59 56  2  0  0  0  0
 59 60  1  0  0  0  0
 60 55  2  0  0  0  0
M  END
>  <MODEL>
4

>  <REMARK>
 VINA RESULT:      -6.8      2.754      8.802
  Name = 
  21 active torsions:
  status: ('A' for Active; 'I' for Inactive)
    1  A    between atoms: C_1  and  C_32
    2  A    between atoms: C_1  and  C_58
    3  A    between atoms: O_4  and  C_51
    4  A    between atoms: N_5  and  C_15
    5  A    between atoms: N_5  and  C_31
    6  A    between atoms: C_6  and  C_12
    7  A    between atoms: N_7  and  C_42
    8  A    between atoms: O_13  and  C_37
    9  A    between atoms: O_13  and  C_38
   10  A    between atoms: C_14  and  C_59
   11  A    between atoms: C_16  and  O_39
   12  A    between atoms: C_23  and  O_39
   13  A    between atoms: C_24  and  C_33
   14  A    between atoms: C_27  and  C_41
   15  A    between atoms: N_28  and  C_56
   16  A    between atoms: C_31  and  C_58
   17  A    between atoms: C_32  and  C_44
   18  A    between atoms: C_33  and  C_41
   19  A    between atoms: C_37  and  C_53
   20  A    between atoms: C_38  and  C_44
   21  A    between atoms: C_56  and  C_59
                            x       y       z     vdW  Elec       q    Type
                         _______ _______ _______ _____ _____    ______ ____

>  <TORSDO>
F 21

$$$$
=
 OpenBabel10222417423D

 60 64  0  0  1  0  0  0  0  0999 V2000
  188.5590  177.6570  142.4130 N   0  0  0  0  0  0  0  0  0  0  0  0
  187.6570  177.7850  140.1510 C   0  0  0  0  0  2  0  0  0  0  0  0
  185.2920  178.9200  142.6020 C   0  0  0  0  0  3  0  0  0  0  0  0
  185.5860  178.9240  141.2440 C   0  0  0  0  0  0  0  0  0  0  0  0
  188.8010  177.2020  141.0280 C   0  0  1  0  0  3  0  0  0  0  0  0
  186.4170  178.6060  143.2910 N   0  0  0  0  0  0  0  0  0  0  0  0
  186.4220  178.2500  144.6820 C   0  0  0  0  0  0  0  0  0  0  0  0
  187.2820  177.4500  145.1370 O   0  0  0  0  0  0  0  0  0  0  0  0
  185.4040  178.7670  145.5450 N   0  0  0  0  0  2  0  0  0  0  0  0
  186.9200  178.6240  141.1270 C   0  0  0  0  0  0  0  0  0  0  0  0
  187.4020  178.4800  142.3680 C   0  0  0  0  0  0  0  0  0  0  0  0
  190.3680  175.6160  146.7440 C   0  0  0  0  0  2  0  0  0  0  0  0
  191.5320  178.3480  144.4090 C   0  0  0  0  0  2  0  0  0  0  0  0
  190.6330  178.5550  143.3030 C   0  0  0  0  0  2  0  0  0  0  0  0
  190.4380  176.5710  145.6290 C   0  0  1  0  0  3  0  0  0  0  0  0
  189.5910  177.7190  143.4120 C   0  0  0  0  0  0  0  0  0  0  0  0
  191.2420  176.5810  146.3550 C   0  0  0  0  0  0  0  0  0  0  0  0
  190.8800  177.2940  145.1320 C   0  0  0  0  0  2  0  0  0  0  0  0
  189.5890  176.7850  144.5710 C   0  0  0  0  0  3  0  0  0  0  0  0
  192.4190  176.8280  147.1290 O   0  0  0  0  0  0  0  0  0  0  0  0
  192.8090  176.0110  148.2230 C   0  0  0  0  0  1  0  0  0  0  0  0
  184.6470  179.0500  140.1670 C   0  0  0  0  0  0  0  0  0  0  0  0
  183.8270  179.1590  139.2900 C   0  0  0  0  0  0  0  0  0  0  0  0
  182.8700  179.2860  138.3170 O   0  0  0  0  0  0  0  0  0  0  0  0
  182.8930  176.2530  136.5560 C   0  0  0  0  0  2  0  0  0  0  0  0
  181.1470  177.6680  138.6470 C   0  0  0  0  0  3  0  0  0  0  0  0
  182.0970  178.2080  137.8700 C   0  0  0  0  0  0  0  0  0  0  0  0
  181.7500  175.2430  136.6380 C   0  0  2  0  0  3  0  0  0  0  0  0
  181.0820  175.2480  138.0200 C   0  0  1  0  0  3  0  0  0  0  0  0
  180.2780  176.5240  138.2300 C   0  0  0  0  0  2  0  0  0  0  0  0
  182.3640  177.6800  136.4950 C   0  0  0  0  0  2  0  0  0  0  0  0
  180.2090  174.1630  138.1320 O   0  0  0  0  0  1  0  0  0  0  0  0
  182.3070  173.8640  136.3110 C   0  0  0  0  0  2  0  0  0  0  0  0
  183.4930  173.5420  137.2080 C   0  0  0  0  0  2  0  0  0  0  0  0
  184.6100  172.9400  136.4220 C   0  0  0  0  0  0  0  0  0  0  0  0
  184.4410  172.6520  135.2070 O   0  0  0  0  0  0  0  0  0  0  0  0
  185.8460  172.7250  137.0210 O   0  0  0  0  0  1  0  0  0  0  0  0
  185.3550  178.4400  146.9590 C   0  0  0  0  0  2  0  0  0  0  0  0
  186.5780  179.0090  147.6520 C   0  0  0  0  0  2  0  0  0  0  0  0
  188.8410  178.3740  148.4820 C   0  0  0  0  0  1  0  0  0  0  0  0
  187.4160  177.8940  148.2450 C   0  0  0  0  0  2  0  0  0  0  0  0
  190.1180  177.6210  140.5300 N   0  0  0  0  0  2  0  0  0  0  0  0
  190.0340  178.0800  139.1450 C   0  0  0  0  0  2  0  0  0  0  0  0
  190.4500  176.9600  138.2050 C   0  0  0  0  0  2  0  0  0  0  0  0
  189.6400  177.0210  136.9470 C   0  0  0  0  0  0  0  0  0  0  0  0
  189.0990  178.0700  136.6270 O   0  0  0  0  0  0  0  0  0  0  0  0
  189.5680  175.8460  136.0130 C   0  0  0  0  0  2  0  0  0  0  0  0
  188.8910  174.6430  136.6570 C   0  0  0  0  0  2  0  0  0  0  0  0
  189.8110  173.4270  136.6360 C   0  0  0  0  0  2  0  0  0  0  0  0
  190.8460  173.5990  135.6740 O   0  0  0  0  0  0  0  0  0  0  0  0
  192.2320  171.8650  135.0290 O   0  0  0  0  0  0  0  0  0  0  0  0
  192.0570  172.9010  135.7300 C   0  0  0  0  0  0  0  0  0  0  0  0
  195.1810  174.3220  138.2380 C   0  0  0  0  0  3  0  0  0  0  0  0
  193.9320  176.3960  138.5470 N   0  0  0  0  0  1  0  0  0  0  0  0
  195.2820  173.0520  137.6670 C   0  0  0  0  0  0  0  0  0  0  0  0
  193.0600  174.6160  137.1750 N   0  0  0  0  0  0  0  0  0  0  0  0
  196.4010  172.2660  137.9110 O   0  0  0  0  0  1  0  0  0  0  0  0
  194.0480  175.0980  137.9770 C   0  0  0  0  0  0  0  0  0  0  0  0
  193.1360  173.3800  136.6060 C   0  0  0  0  0  0  0  0  0  0  0  0
  194.2560  172.5750  136.8490 C   0  0  0  0  0  3  0  0  0  0  0  0
  1 16  1  0  0  0  0
  2  5  1  0  0  0  0
  2 10  1  0  0  0  0
  3  6  1  0  0  0  0
  4  3  2  0  0  0  0
  5 42  1  6  0  0  0
  5  1  1  0  0  0  0
  6  7  1  0  0  0  0
  7  8  2  0  0  0  0
  7  9  1  0  0  0  0
  9 38  1  0  0  0  0
 10  4  1  0  0  0  0
 10 11  2  0  0  0  0
 11  1  1  0  0  0  0
 11  6  1  0  0  0  0
 13 18  1  0  0  0  0
 14 16  1  0  0  0  0
 14 13  1  0  0  0  0
 15 17  1  6  0  0  0
 16 19  2  0  0  0  0
 17 12  2  0  0  0  0
 17 20  1  0  0  0  0
 18 15  1  0  0  0  0
 19 15  1  0  0  0  0
 20 21  1  0  0  0  0
 22  4  1  0  0  0  0
 23 22  3  0  0  0  0
 24 23  1  0  0  0  0
 25 28  1  0  0  0  0
 27 24  1  0  0  0  0
 27 26  2  0  0  0  0
 28 33  1  1  0  0  0
 28 29  1  0  0  0  0
 29 32  1  6  0  0  0
 29 30  1  0  0  0  0
 30 26  1  0  0  0  0
 31 25  1  0  0  0  0
 31 27  1  0  0  0  0
 33 34  1  0  0  0  0
 35 37  1  0  0  0  0
 35 34  1  0  0  0  0
 36 35  2  0  0  0  0
 38 39  1  0  0  0  0
 39 41  1  0  0  0  0
 41 40  1  0  0  0  0
 43 42  1  0  0  0  0
 44 43  1  0  0  0  0
 45 44  1  0  0  0  0
 46 45  2  0  0  0  0
 47 48  1  0  0  0  0
 47 45  1  0  0  0  0
 49 48  1  0  0  0  0
 50 52  1  0  0  0  0
 50 49  1  0  0  0  0
 51 52  2  0  0  0  0
 52 59  1  0  0  0  0
 55 57  1  0  0  0  0
 55 53  2  0  0  0  0
 56 58  2  0  0  0  0
 58 53  1  0  0  0  0
 58 54  1  0  0  0  0
 59 60  2  0  0  0  0
 59 56  1  0  0  0  0
 60 55  1  0  0  0  0
M  END
>  <MODEL>
5

>  <REMARK>
 VINA RESULT:      -6.6      3.031     10.766
  Name = 
  21 active torsions:
  status: ('A' for Active; 'I' for Inactive)
    1  A    between atoms: C_1  and  C_32
    2  A    between atoms: C_1  and  C_58
    3  A    between atoms: O_4  and  C_51
    4  A    between atoms: N_5  and  C_15
    5  A    between atoms: N_5  and  C_31
    6  A    between atoms: C_6  and  C_12
    7  A    between atoms: N_7  and  C_42
    8  A    between atoms: O_13  and  C_37
    9  A    between atoms: O_13  and  C_38
   10  A    between atoms: C_14  and  C_59
   11  A    between atoms: C_16  and  O_39
   12  A    between atoms: C_23  and  O_39
   13  A    between atoms: C_24  and  C_33
   14  A    between atoms: C_27  and  C_41
   15  A    between atoms: N_28  and  C_56
   16  A    between atoms: C_31  and  C_58
   17  A    between atoms: C_32  and  C_44
   18  A    between atoms: C_33  and  C_41
   19  A    between atoms: C_37  and  C_53
   20  A    between atoms: C_38  and  C_44
   21  A    between atoms: C_56  and  C_59
                            x       y       z     vdW  Elec       q    Type
                         _______ _______ _______ _____ _____    ______ ____

>  <TORSDO>
F 21

$$$$
=
 OpenBabel10222417423D

 60 64  0  0  1  0  0  0  0  0999 V2000
  189.7350  177.3320  142.0200 N   0  0  0  0  0  0  0  0  0  0  0  0
  189.6280  177.1260  139.5930 C   0  0  0  0  0  2  0  0  0  0  0  0
  186.5570  178.3790  140.9670 C   0  0  0  0  0  3  0  0  0  0  0  0
  187.2830  178.2410  139.7910 C   0  0  0  0  0  0  0  0  0  0  0  0
  190.4330  176.7330  140.8640 C   0  0  1  0  0  3  0  0  0  0  0  0
  187.3990  178.2280  142.0190 N   0  0  0  0  0  0  0  0  0  0  0  0
  186.9530  178.0420  143.3710 C   0  0  0  0  0  0  0  0  0  0  0  0
  187.6350  177.3640  144.1850 O   0  0  0  0  0  0  0  0  0  0  0  0
  185.6940  178.5870  143.7790 N   0  0  0  0  0  2  0  0  0  0  0  0
  188.5880  178.0230  140.1530 C   0  0  0  0  0  0  0  0  0  0  0  0
  188.6370  178.0620  141.4920 C   0  0  0  0  0  0  0  0  0  0  0  0
  190.5060  175.6180  146.7810 C   0  0  0  0  0  2  0  0  0  0  0  0
  191.7500  178.5790  144.7930 C   0  0  0  0  0  2  0  0  0  0  0  0
  191.2100  178.6190  143.4580 C   0  0  0  0  0  2  0  0  0  0  0  0
  190.7180  176.5890  145.6990 C   0  0  1  0  0  3  0  0  0  0  0  0
  190.3770  177.5850  143.2820 C   0  0  0  0  0  0  0  0  0  0  0  0
  191.2420  176.7500  146.6340 C   0  0  0  0  0  0  0  0  0  0  0  0
  191.1360  177.3980  145.3290 C   0  0  0  0  0  2  0  0  0  0  0  0
  190.2090  176.6470  144.4260 C   0  0  0  0  0  3  0  0  0  0  0  0
  192.0510  177.2170  147.7170 O   0  0  0  0  0  0  0  0  0  0  0  0
  192.8230  176.3500  148.5350 C   0  0  0  0  0  1  0  0  0  0  0  0
  186.7500  178.1720  138.4600 C   0  0  0  0  0  0  0  0  0  0  0  0
  186.2660  178.0990  137.3590 C   0  0  0  0  0  0  0  0  0  0  0  0
  185.6870  178.0050  136.1200 O   0  0  0  0  0  0  0  0  0  0  0  0
  184.8450  174.6470  135.5570 C   0  0  0  0  0  2  0  0  0  0  0  0
  183.4440  177.2420  136.4110 C   0  0  0  0  0  3  0  0  0  0  0  0
  184.6480  177.1100  135.8360 C   0  0  0  0  0  0  0  0  0  0  0  0
  183.4060  174.1380  135.6070 C   0  0  2  0  0  3  0  0  0  0  0  0
  182.5610  174.9120  136.6290 C   0  0  1  0  0  3  0  0  0  0  0  0
  182.2880  176.3300  136.1450 C   0  0  0  0  0  2  0  0  0  0  0  0
  184.9260  176.0030  134.8680 C   0  0  0  0  0  2  0  0  0  0  0  0
  181.3320  174.2740  136.8150 O   0  0  0  0  0  1  0  0  0  0  0  0
  183.4350  172.6540  135.9430 C   0  0  0  0  0  2  0  0  0  0  0  0
  184.6780  171.9990  135.3570 C   0  0  0  0  0  2  0  0  0  0  0  0
  184.4920  170.5240  135.2190 C   0  0  0  0  0  0  0  0  0  0  0  0
  185.4830  169.7840  134.9820 O   0  0  0  0  0  0  0  0  0  0  0  0
  183.2300  169.9640  135.3830 O   0  0  0  0  0  1  0  0  0  0  0  0
  185.1880  178.4280  145.1310 C   0  0  0  0  0  2  0  0  0  0  0  0
  183.7080  178.7590  145.1590 C   0  0  0  0  0  2  0  0  0  0  0  0
  181.9130  179.0090  143.4480 C   0  0  0  0  0  1  0  0  0  0  0  0
  183.3000  179.4630  143.8810 C   0  0  0  0  0  2  0  0  0  0  0  0
  191.8300  177.1800  140.7680 N   0  0  0  0  0  2  0  0  0  0  0  0
  192.2070  177.4280  139.3780 C   0  0  0  0  0  2  0  0  0  0  0  0
  192.8580  176.1870  138.7920 C   0  0  0  0  0  2  0  0  0  0  0  0
  193.0960  176.3770  137.3260 C   0  0  0  0  0  0  0  0  0  0  0  0
  194.2260  176.6120  136.9230 O   0  0  0  0  0  0  0  0  0  0  0  0
  191.9900  176.1780  136.3280 C   0  0  0  0  0  2  0  0  0  0  0  0
  191.8210  174.7140  135.9420 C   0  0  0  0  0  2  0  0  0  0  0  0
  193.1770  174.0500  135.7290 C   0  0  0  0  0  2  0  0  0  0  0  0
  193.4690  173.1540  136.7960 O   0  0  0  0  0  0  0  0  0  0  0  0
  194.9060  171.3450  136.7110 O   0  0  0  0  0  0  0  0  0  0  0  0
  194.7270  172.5680  136.9710 C   0  0  0  0  0  0  0  0  0  0  0  0
  198.0050  174.8930  138.3560 C   0  0  0  0  0  3  0  0  0  0  0  0
  198.9140  174.8820  136.0900 N   0  0  0  0  0  1  0  0  0  0  0  0
  197.0060  174.5110  139.2520 C   0  0  0  0  0  0  0  0  0  0  0  0
  196.8390  173.7660  136.5980 N   0  0  0  0  0  0  0  0  0  0  0  0
  197.0910  174.8820  140.5880 O   0  0  0  0  0  1  0  0  0  0  0  0
  197.9020  174.5050  137.0170 C   0  0  0  0  0  0  0  0  0  0  0  0
  195.8500  173.3820  137.4550 C   0  0  0  0  0  0  0  0  0  0  0  0
  195.9220  173.7550  138.8030 C   0  0  0  0  0  3  0  0  0  0  0  0
  1 16  1  0  0  0  0
  2 10  1  0  0  0  0
  2  5  1  0  0  0  0
  3  6  1  0  0  0  0
  4 10  1  0  0  0  0
  4  3  2  0  0  0  0
  5 42  1  6  0  0  0
  5  1  1  0  0  0  0
  6  7  1  0  0  0  0
  7  9  1  0  0  0  0
  7  8  2  0  0  0  0
  9 38  1  0  0  0  0
 10 11  2  0  0  0  0
 11  6  1  0  0  0  0
 11  1  1  0  0  0  0
 13 18  1  0  0  0  0
 14 13  1  0  0  0  0
 15 17  1  6  0  0  0
 16 14  1  0  0  0  0
 16 19  2  0  0  0  0
 17 12  2  0  0  0  0
 17 20  1  0  0  0  0
 18 15  1  0  0  0  0
 19 15  1  0  0  0  0
 20 21  1  0  0  0  0
 22  4  1  0  0  0  0
 23 22  3  0  0  0  0
 24 23  1  0  0  0  0
 25 28  1  0  0  0  0
 27 24  1  0  0  0  0
 27 26  2  0  0  0  0
 28 33  1  1  0  0  0
 28 29  1  0  0  0  0
 29 32  1  6  0  0  0
 30 26  1  0  0  0  0
 30 29  1  0  0  0  0
 31 25  1  0  0  0  0
 31 27  1  0  0  0  0
 34 33  1  0  0  0  0
 35 34  1  0  0  0  0
 35 37  1  0  0  0  0
 36 35  2  0  0  0  0
 38 39  1  0  0  0  0
 40 41  1  0  0  0  0
 41 39  1  0  0  0  0
 43 42  1  0  0  0  0
 44 43  1  0  0  0  0
 45 44  1  0  0  0  0
 46 45  2  0  0  0  0
 47 45  1  0  0  0  0
 48 47  1  0  0  0  0
 49 48  1  0  0  0  0
 49 50  1  0  0  0  0
 50 52  1  0  0  0  0
 51 52  2  0  0  0  0
 52 59  1  0  0  0  0
 53 55  1  0  0  0  0
 54 58  1  0  0  0  0
 55 57  1  0  0  0  0
 56 58  1  0  0  0  0
 56 59  2  0  0  0  0
 58 53  2  0  0  0  0
 59 60  1  0  0  0  0
 60 55  2  0  0  0  0
M  END
>  <MODEL>
6

>  <REMARK>
 VINA RESULT:      -6.4      3.547     10.497
  Name = 
  21 active torsions:
  status: ('A' for Active; 'I' for Inactive)
    1  A    between atoms: C_1  and  C_32
    2  A    between atoms: C_1  and  C_58
    3  A    between atoms: O_4  and  C_51
    4  A    between atoms: N_5  and  C_15
    5  A    between atoms: N_5  and  C_31
    6  A    between atoms: C_6  and  C_12
    7  A    between atoms: N_7  and  C_42
    8  A    between atoms: O_13  and  C_37
    9  A    between atoms: O_13  and  C_38
   10  A    between atoms: C_14  and  C_59
   11  A    between atoms: C_16  and  O_39
   12  A    between atoms: C_23  and  O_39
   13  A    between atoms: C_24  and  C_33
   14  A    between atoms: C_27  and  C_41
   15  A    between atoms: N_28  and  C_56
   16  A    between atoms: C_31  and  C_58
   17  A    between atoms: C_32  and  C_44
   18  A    between atoms: C_33  and  C_41
   19  A    between atoms: C_37  and  C_53
   20  A    between atoms: C_38  and  C_44
   21  A    between atoms: C_56  and  C_59
                            x       y       z     vdW  Elec       q    Type
                         _______ _______ _______ _____ _____    ______ ____

>  <TORSDO>
F 21

$$$$
=
 OpenBabel10222417423D

 60 64  0  0  1  0  0  0  0  0999 V2000
  187.5070  178.3880  140.8210 N   0  0  0  0  0  0  0  0  0  0  0  0
  187.8160  178.0230  138.4300 C   0  0  0  0  0  2  0  0  0  0  0  0
  190.5940  176.7930  140.3420 C   0  0  0  0  0  3  0  0  0  0  0  0
  189.9790  176.7360  139.0970 C   0  0  0  0  0  0  0  0  0  0  0  0
  186.9770  178.7800  139.4990 C   0  0  1  0  0  3  0  0  0  0  0  0
  189.7040  177.2690  141.2470 N   0  0  0  0  0  0  0  0  0  0  0  0
  190.0710  177.7090  142.5640 C   0  0  0  0  0  0  0  0  0  0  0  0
  189.4220  178.6240  143.1390 O   0  0  0  0  0  0  0  0  0  0  0  0
  191.2170  177.1390  143.2030 N   0  0  0  0  0  2  0  0  0  0  0  0
  188.6890  177.1710  139.2730 C   0  0  0  0  0  0  0  0  0  0  0  0
  188.5390  177.4430  140.5760 C   0  0  0  0  0  0  0  0  0  0  0  0
  186.9910  176.7400  145.6400 C   0  0  0  0  0  2  0  0  0  0  0  0
  185.2370  179.3270  143.5170 C   0  0  0  0  0  2  0  0  0  0  0  0
  185.7670  179.4020  142.1800 C   0  0  0  0  0  2  0  0  0  0  0  0
  186.5970  177.5900  144.5080 C   0  0  1  0  0  3  0  0  0  0  0  0
  186.7480  178.5000  142.0370 C   0  0  0  0  0  0  0  0  0  0  0  0
  186.0610  177.7100  145.4410 C   0  0  0  0  0  0  0  0  0  0  0  0
  186.0450  178.2950  144.1030 C   0  0  0  0  0  2  0  0  0  0  0  0
  187.0870  177.6720  143.2280 C   0  0  0  0  0  3  0  0  0  0  0  0
  185.1930  178.0910  146.5120 O   0  0  0  0  0  0  0  0  0  0  0  0
  185.6670  178.6250  147.7390 C   0  0  0  0  0  1  0  0  0  0  0  0
  190.6120  176.4430  137.8440 C   0  0  0  0  0  0  0  0  0  0  0  0
  191.1520  176.2370  136.7860 C   0  0  0  0  0  0  0  0  0  0  0  0
  191.7740  176.0370  135.5810 O   0  0  0  0  0  0  0  0  0  0  0  0
  194.7120  174.8770  137.1040 C   0  0  0  0  0  2  0  0  0  0  0  0
  192.8080  174.0110  134.8580 C   0  0  0  0  0  3  0  0  0  0  0  0
  192.8990  175.2170  135.4370 C   0  0  0  0  0  0  0  0  0  0  0  0
  195.4790  173.6580  136.5960 C   0  0  2  0  0  3  0  0  0  0  0  0
  194.5410  172.6060  135.9880 C   0  0  1  0  0  3  0  0  0  0  0  0
  193.9700  173.0890  134.6610 C   0  0  0  0  0  2  0  0  0  0  0  0
  194.2080  175.7310  135.9490 C   0  0  0  0  0  2  0  0  0  0  0  0
  195.2410  171.4200  135.7510 O   0  0  0  0  0  1  0  0  0  0  0  0
  196.2690  173.0710  137.7570 C   0  0  0  0  0  2  0  0  0  0  0  0
  197.4210  173.9910  138.1360 C   0  0  0  0  0  2  0  0  0  0  0  0
  198.2490  174.3320  136.9410 C   0  0  0  0  0  0  0  0  0  0  0  0
  198.9760  173.4520  136.4070 O   0  0  0  0  0  1  0  0  0  0  0  0
  198.1940  175.6100  136.3980 O   0  0  0  0  0  0  0  0  0  0  0  0
  191.6390  177.5450  144.5320 C   0  0  0  0  0  2  0  0  0  0  0  0
  191.6470  176.3380  145.4510 C   0  0  0  0  0  2  0  0  0  0  0  0
  190.0830  176.9450  147.2950 C   0  0  0  0  0  1  0  0  0  0  0  0
  191.5430  176.7750  146.8980 C   0  0  0  0  0  2  0  0  0  0  0  0
  185.5460  178.4760  139.3640 N   0  0  0  0  0  2  0  0  0  0  0  0
  185.1680  178.3420  137.9580 C   0  0  0  0  0  2  0  0  0  0  0  0
  183.8410  177.6090  137.8490 C   0  0  0  0  0  2  0  0  0  0  0  0
  182.7610  178.4050  138.5150 C   0  0  0  0  0  0  0  0  0  0  0  0
  182.6190  178.3340  139.7280 O   0  0  0  0  0  0  0  0  0  0  0  0
  181.9150  179.3710  137.7340 C   0  0  0  0  0  2  0  0  0  0  0  0
  180.9480  180.1380  138.6280 C   0  0  0  0  0  2  0  0  0  0  0  0
  179.5040  179.7730  138.3040 C   0  0  0  0  0  2  0  0  0  0  0  0
  179.3120  178.3640  138.3920 O   0  0  0  0  0  0  0  0  0  0  0  0
  179.1580  178.3080  140.6980 O   0  0  0  0  0  0  0  0  0  0  0  0
  179.2830  177.6780  139.6100 C   0  0  0  0  0  0  0  0  0  0  0  0
  179.6270  173.4420  139.6850 C   0  0  0  0  0  3  0  0  0  0  0  0
  179.3200  173.5030  142.1060 N   0  0  0  0  0  1  0  0  0  0  0  0
  179.7220  174.1180  138.4680 C   0  0  0  0  0  0  0  0  0  0  0  0
  179.3010  175.5310  140.8030 N   0  0  0  0  0  0  0  0  0  0  0  0
  179.9370  173.4090  137.2930 O   0  0  0  0  0  1  0  0  0  0  0  0
  179.4140  174.1750  140.8560 C   0  0  0  0  0  0  0  0  0  0  0  0
  179.3900  176.2130  139.6260 C   0  0  0  0  0  0  0  0  0  0  0  0
  179.6010  175.5090  138.4340 C   0  0  0  0  0  3  0  0  0  0  0  0
  1 16  1  0  0  0  0
  2 10  1  0  0  0  0
  2  5  1  0  0  0  0
  3  6  1  0  0  0  0
  4 10  1  0  0  0  0
  4  3  2  0  0  0  0
  5 42  1  1  0  0  0
  5  1  1  0  0  0  0
  6  7  1  0  0  0  0
  7  8  2  0  0  0  0
  7  9  1  0  0  0  0
  9 38  1  0  0  0  0
 10 11  2  0  0  0  0
 11  1  1  0  0  0  0
 11  6  1  0  0  0  0
 13 18  1  0  0  0  0
 14 13  1  0  0  0  0
 15 17  1  1  0  0  0
 16 14  1  0  0  0  0
 16 19  2  0  0  0  0
 17 12  2  0  0  0  0
 17 20  1  0  0  0  0
 18 15  1  0  0  0  0
 19 15  1  0  0  0  0
 20 21  1  0  0  0  0
 22  4  1  0  0  0  0
 23 22  3  0  0  0  0
 24 23  1  0  0  0  0
 26 27  2  0  0  0  0
 27 24  1  0  0  0  0
 27 31  1  0  0  0  0
 28 25  1  0  0  0  0
 28 33  1  1  0  0  0
 29 32  1  6  0  0  0
 29 28  1  0  0  0  0
 30 26  1  0  0  0  0
 30 29  1  0  0  0  0
 31 25  1  0  0  0  0
 33 34  1  0  0  0  0
 35 34  1  0  0  0  0
 36 35  1  0  0  0  0
 37 35  2  0  0  0  0
 38 39  1  0  0  0  0
 39 41  1  0  0  0  0
 41 40  1  0  0  0  0
 43 42  1  0  0  0  0
 44 43  1  0  0  0  0
 44 45  1  0  0  0  0
 45 46  2  0  0  0  0
 47 45  1  0  0  0  0
 47 48  1  0  0  0  0
 49 50  1  0  0  0  0
 49 48  1  0  0  0  0
 50 52  1  0  0  0  0
 52 59  1  0  0  0  0
 52 51  2  0  0  0  0
 53 58  1  0  0  0  0
 55 53  2  0  0  0  0
 56 58  2  0  0  0  0
 57 55  1  0  0  0  0
 58 54  1  0  0  0  0
 59 56  1  0  0  0  0
 60 55  1  0  0  0  0
 60 59  2  0  0  0  0
M  END
>  <MODEL>
7

>  <REMARK>
 VINA RESULT:      -6.1      2.392      8.505
  Name = 
  21 active torsions:
  status: ('A' for Active; 'I' for Inactive)
    1  A    between atoms: C_1  and  C_32
    2  A    between atoms: C_1  and  C_58
    3  A    between atoms: O_4  and  C_51
    4  A    between atoms: N_5  and  C_15
    5  A    between atoms: N_5  and  C_31
    6  A    between atoms: C_6  and  C_12
    7  A    between atoms: N_7  and  C_42
    8  A    between atoms: O_13  and  C_37
    9  A    between atoms: O_13  and  C_38
   10  A    between atoms: C_14  and  C_59
   11  A    between atoms: C_16  and  O_39
   12  A    between atoms: C_23  and  O_39
   13  A    between atoms: C_24  and  C_33
   14  A    between atoms: C_27  and  C_41
   15  A    between atoms: N_28  and  C_56
   16  A    between atoms: C_31  and  C_58
   17  A    between atoms: C_32  and  C_44
   18  A    between atoms: C_33  and  C_41
   19  A    between atoms: C_37  and  C_53
   20  A    between atoms: C_38  and  C_44
   21  A    between atoms: C_56  and  C_59
                            x       y       z     vdW  Elec       q    Type
                         _______ _______ _______ _____ _____    ______ ____

>  <TORSDO>
F 21

$$$$
=
 OpenBabel10222417423D

 60 64  0  0  1  0  0  0  0  0999 V2000
  188.9820  177.4340  141.6200 N   0  0  0  0  0  0  0  0  0  0  0  0
  188.6790  177.1040  139.2230 C   0  0  0  0  0  2  0  0  0  0  0  0
  185.7610  178.5220  140.7590 C   0  0  0  0  0  3  0  0  0  0  0  0
  186.3880  178.3000  139.5390 C   0  0  0  0  0  0  0  0  0  0  0  0
  189.5710  176.7540  140.4480 C   0  0  1  0  0  3  0  0  0  0  0  0
  186.6790  178.4000  141.7490 N   0  0  0  0  0  0  0  0  0  0  0  0
  186.3350  178.3000  143.1400 C   0  0  0  0  0  0  0  0  0  0  0  0
  187.0610  177.6450  143.9350 O   0  0  0  0  0  0  0  0  0  0  0  0
  185.1270  178.9040  143.6130 N   0  0  0  0  0  2  0  0  0  0  0  0
  187.7120  178.0610  139.8120 C   0  0  0  0  0  0  0  0  0  0  0  0
  187.8660  178.1690  141.1380 C   0  0  0  0  0  0  0  0  0  0  0  0
  190.0030  176.0050  146.4280 C   0  0  0  0  0  2  0  0  0  0  0  0
  191.2610  178.7430  144.1490 C   0  0  0  0  0  2  0  0  0  0  0  0
  190.6280  178.7250  142.8550 C   0  0  0  0  0  2  0  0  0  0  0  0
  190.1890  176.8860  145.2670 C   0  0  1  0  0  3  0  0  0  0  0  0
  189.7280  177.7330  142.8120 C   0  0  0  0  0  0  0  0  0  0  0  0
  190.7880  177.0780  146.1490 C   0  0  0  0  0  0  0  0  0  0  0  0
  190.6230  177.6410  144.8110 C   0  0  0  0  0  2  0  0  0  0  0  0
  189.5920  176.8870  144.0300 C   0  0  0  0  0  3  0  0  0  0  0  0
  191.6990  177.5680  147.1360 O   0  0  0  0  0  0  0  0  0  0  0  0
  192.2490  176.7470  148.1550 C   0  0  0  0  0  1  0  0  0  0  0  0
  185.7500  178.1770  138.2600 C   0  0  0  0  0  0  0  0  0  0  0  0
  185.2260  178.0340  137.1840 C   0  0  0  0  0  0  0  0  0  0  0  0
  184.6390  177.8380  135.9610 O   0  0  0  0  0  0  0  0  0  0  0  0
  183.0510  174.7280  136.2840 C   0  0  0  0  0  2  0  0  0  0  0  0
  182.2620  177.6900  136.1310 C   0  0  0  0  0  3  0  0  0  0  0  0
  183.4380  177.1360  135.8020 C   0  0  0  0  0  0  0  0  0  0  0  0
  181.5320  174.5710  136.2700 C   0  0  2  0  0  3  0  0  0  0  0  0
  180.8260  175.7870  136.8880 C   0  0  1  0  0  3  0  0  0  0  0  0
  180.9420  177.0030  135.9780 C   0  0  0  0  0  2  0  0  0  0  0  0
  183.5100  175.7460  135.2500 C   0  0  0  0  0  2  0  0  0  0  0  0
  179.4690  175.5120  137.0700 O   0  0  0  0  0  1  0  0  0  0  0  0
  181.1750  173.2980  137.0250 C   0  0  0  0  0  2  0  0  0  0  0  0
  182.2590  172.2460  136.8370 C   0  0  0  0  0  2  0  0  0  0  0  0
  181.9050  171.3050  135.7340 C   0  0  0  0  0  0  0  0  0  0  0  0
  180.6980  171.0190  135.5130 O   0  0  0  0  0  1  0  0  0  0  0  0
  182.9040  170.7680  134.9300 O   0  0  0  0  0  0  0  0  0  0  0  0
  184.7250  178.8330  145.0070 C   0  0  0  0  0  2  0  0  0  0  0  0
  183.2410  179.1260  145.1200 C   0  0  0  0  0  2  0  0  0  0  0  0
  181.0850  178.6110  143.9800 C   0  0  0  0  0  1  0  0  0  0  0  0
  182.5600  178.9310  143.7800 C   0  0  0  0  0  2  0  0  0  0  0  0
  190.9670  177.1520  140.2200 N   0  0  0  0  0  2  0  0  0  0  0  0
  191.3290  177.0140  138.8110 C   0  0  0  0  0  2  0  0  0  0  0  0
  192.6260  176.2340  138.6860 C   0  0  0  0  0  2  0  0  0  0  0  0
  193.1900  176.3950  137.3080 C   0  0  0  0  0  0  0  0  0  0  0  0
  194.1570  177.1230  137.1330 O   0  0  0  0  0  0  0  0  0  0  0  0
  192.6570  175.5950  136.1530 C   0  0  0  0  0  2  0  0  0  0  0  0
  192.8420  174.0970  136.3590 C   0  0  0  0  0  2  0  0  0  0  0  0
  191.5080  173.4230  136.6630 C   0  0  0  0  0  2  0  0  0  0  0  0
  191.1690  172.4980  135.6360 O   0  0  0  0  0  0  0  0  0  0  0  0
  189.5750  171.1750  134.6090 O   0  0  0  0  0  0  0  0  0  0  0  0
  189.8460  172.2080  135.2830 C   0  0  0  0  0  0  0  0  0  0  0  0
  186.6870  174.7820  136.4920 C   0  0  0  0  0  3  0  0  0  0  0  0
  185.8670  173.0140  137.9630 N   0  0  0  0  0  1  0  0  0  0  0  0
  187.6220  175.2330  135.5590 C   0  0  0  0  0  0  0  0  0  0  0  0
  187.8390  172.6900  136.6150 N   0  0  0  0  0  0  0  0  0  0  0  0
  187.5110  176.5100  135.0240 O   0  0  0  0  0  1  0  0  0  0  0  0
  186.8140  173.4920  137.0140 C   0  0  0  0  0  0  0  0  0  0  0  0
  188.7640  173.1080  135.7050 C   0  0  0  0  0  0  0  0  0  0  0  0
  188.6670  174.3960  135.1630 C   0  0  0  0  0  3  0  0  0  0  0  0
  1 16  1  0  0  0  0
  2 10  1  0  0  0  0
  2  5  1  0  0  0  0
  3  6  1  0  0  0  0
  4 10  1  0  0  0  0
  4  3  2  0  0  0  0
  5 42  1  6  0  0  0
  5  1  1  0  0  0  0
  6  7  1  0  0  0  0
  7  9  1  0  0  0  0
  7  8  2  0  0  0  0
  9 38  1  0  0  0  0
 10 11  2  0  0  0  0
 11  1  1  0  0  0  0
 11  6  1  0  0  0  0
 13 18  1  0  0  0  0
 14 13  1  0  0  0  0
 15 17  1  6  0  0  0
 16 14  1  0  0  0  0
 16 19  2  0  0  0  0
 17 12  2  0  0  0  0
 17 20  1  0  0  0  0
 18 15  1  0  0  0  0
 19 15  1  0  0  0  0
 20 21  1  0  0  0  0
 22  4  1  0  0  0  0
 23 22  3  0  0  0  0
 24 23  1  0  0  0  0
 27 24  1  0  0  0  0
 27 26  2  0  0  0  0
 28 25  1  0  0  0  0
 28 29  1  0  0  0  0
 28 33  1  1  0  0  0
 29 32  1  6  0  0  0
 30 26  1  0  0  0  0
 30 29  1  0  0  0  0
 31 27  1  0  0  0  0
 31 25  1  0  0  0  0
 34 33  1  0  0  0  0
 35 34  1  0  0  0  0
 36 35  1  0  0  0  0
 37 35  2  0  0  0  0
 38 39  1  0  0  0  0
 41 40  1  0  0  0  0
 41 39  1  0  0  0  0
 43 42  1  0  0  0  0
 44 43  1  0  0  0  0
 45 44  1  0  0  0  0
 46 45  2  0  0  0  0
 47 48  1  0  0  0  0
 47 45  1  0  0  0  0
 48 49  1  0  0  0  0
 50 49  1  0  0  0  0
 51 52  2  0  0  0  0
 52 50  1  0  0  0  0
 52 59  1  0  0  0  0
 53 58  1  0  0  0  0
 55 53  2  0  0  0  0
 56 58  2  0  0  0  0
 57 55  1  0  0  0  0
 58 54  1  0  0  0  0
 59 56  1  0  0  0  0
 60 55  1  0  0  0  0
 60 59  2  0  0  0  0
M  END
>  <MODEL>
8

>  <REMARK>
 VINA RESULT:      -6.1      3.132     10.802
  Name = 
  21 active torsions:
  status: ('A' for Active; 'I' for Inactive)
    1  A    between atoms: C_1  and  C_32
    2  A    between atoms: C_1  and  C_58
    3  A    between atoms: O_4  and  C_51
    4  A    between atoms: N_5  and  C_15
    5  A    between atoms: N_5  and  C_31
    6  A    between atoms: C_6  and  C_12
    7  A    between atoms: N_7  and  C_42
    8  A    between atoms: O_13  and  C_37
    9  A    between atoms: O_13  and  C_38
   10  A    between atoms: C_14  and  C_59
   11  A    between atoms: C_16  and  O_39
   12  A    between atoms: C_23  and  O_39
   13  A    between atoms: C_24  and  C_33
   14  A    between atoms: C_27  and  C_41
   15  A    between atoms: N_28  and  C_56
   16  A    between atoms: C_31  and  C_58
   17  A    between atoms: C_32  and  C_44
   18  A    between atoms: C_33  and  C_41
   19  A    between atoms: C_37  and  C_53
   20  A    between atoms: C_38  and  C_44
   21  A    between atoms: C_56  and  C_59
                            x       y       z     vdW  Elec       q    Type
                         _______ _______ _______ _____ _____    ______ ____

>  <TORSDO>
F 21

$$$$
=
 OpenBabel10222417423D

 60 64  0  0  1  0  0  0  0  0999 V2000
  188.9970  177.4860  141.4580 N   0  0  0  0  0  0  0  0  0  0  0  0
  186.8240  177.9470  140.4520 C   0  0  0  0  0  2  0  0  0  0  0  0
  189.2550  176.9690  137.9980 C   0  0  0  0  0  3  0  0  0  0  0  0
  187.8930  177.1290  138.2220 C   0  0  0  0  0  0  0  0  0  0  0  0
  187.6840  178.1030  141.7370 C   0  0  1  0  0  3  0  0  0  0  0  0
  189.8890  176.9030  139.1940 N   0  0  0  0  0  0  0  0  0  0  0  0
  191.3140  177.0080  139.3430 C   0  0  0  0  0  0  0  0  0  0  0  0
  191.8160  177.5070  140.3850 O   0  0  0  0  0  0  0  0  0  0  0  0
  192.1660  176.5930  138.2710 N   0  0  0  0  0  2  0  0  0  0  0  0
  187.7150  177.1390  139.5830 C   0  0  0  0  0  0  0  0  0  0  0  0
  188.9200  176.9600  140.1400 C   0  0  0  0  0  0  0  0  0  0  0  0
  190.7900  178.3450  146.1740 C   0  0  0  0  0  2  0  0  0  0  0  0
  191.3220  175.6480  143.5840 C   0  0  0  0  0  2  0  0  0  0  0  0
  190.5710  175.8800  142.3760 C   0  0  0  0  0  2  0  0  0  0  0  0
  190.7180  177.5600  144.9340 C   0  0  1  0  0  3  0  0  0  0  0  0
  189.8870  177.0270  142.4890 C   0  0  0  0  0  0  0  0  0  0  0  0
  191.3480  177.1880  145.7330 C   0  0  0  0  0  0  0  0  0  0  0  0
  190.9630  176.7840  144.3830 C   0  0  0  0  0  2  0  0  0  0  0  0
  190.0140  177.7690  143.7740 C   0  0  0  0  0  3  0  0  0  0  0  0
  192.2380  176.4590  146.5830 O   0  0  0  0  0  0  0  0  0  0  0  0
  191.8210  175.8490  147.7950 C   0  0  0  0  0  1  0  0  0  0  0  0
  186.8900  177.4000  137.2340 C   0  0  0  0  0  0  0  0  0  0  0  0
  186.0770  177.6400  136.3760 C   0  0  0  0  0  0  0  0  0  0  0  0
  185.1780  177.9220  135.3810 O   0  0  0  0  0  0  0  0  0  0  0  0
  183.4830  174.9610  136.1900 C   0  0  0  0  0  2  0  0  0  0  0  0
  182.8180  177.7410  135.0720 C   0  0  0  0  0  3  0  0  0  0  0  0
  184.0230  177.1610  135.1660 C   0  0  0  0  0  0  0  0  0  0  0  0
  181.9990  174.7520  135.8930 C   0  0  2  0  0  3  0  0  0  0  0  0
  181.2070  176.0640  135.9910 C   0  0  1  0  0  3  0  0  0  0  0  0
  181.5460  176.9910  134.8320 C   0  0  0  0  0  2  0  0  0  0  0  0
  184.1780  175.6770  135.0410 C   0  0  0  0  0  2  0  0  0  0  0  0
  179.8360  175.7990  135.9470 O   0  0  0  0  0  1  0  0  0  0  0  0
  181.4560  173.7190  136.8710 C   0  0  0  0  0  2  0  0  0  0  0  0
  181.0870  172.4360  136.1400 C   0  0  0  0  0  2  0  0  0  0  0  0
  182.2130  171.4570  136.1740 C   0  0  0  0  0  0  0  0  0  0  0  0
  182.2690  170.5310  135.3220 O   0  0  0  0  0  0  0  0  0  0  0  0
  183.2180  171.5850  137.1270 O   0  0  0  0  0  1  0  0  0  0  0  0
  193.6140  176.6780  138.3620 C   0  0  0  0  0  2  0  0  0  0  0  0
  194.2140  175.2970  138.1730 C   0  0  0  0  0  2  0  0  0  0  0  0
  194.0600  173.5100  136.4430 C   0  0  0  0  0  1  0  0  0  0  0  0
  194.3590  174.9810  136.6990 C   0  0  0  0  0  2  0  0  0  0  0  0
  187.0210  177.4920  142.8980 N   0  0  0  0  0  2  0  0  0  0  0  0
  186.5590  178.5120  143.8360 C   0  0  0  0  0  2  0  0  0  0  0  0
  186.2940  177.8820  145.1930 C   0  0  0  0  0  2  0  0  0  0  0  0
  185.3240  178.7210  145.9670 C   0  0  0  0  0  0  0  0  0  0  0  0
  185.7430  179.5340  146.7780 O   0  0  0  0  0  0  0  0  0  0  0  0
  183.8490  178.6580  145.6880 C   0  0  0  0  0  2  0  0  0  0  0  0
  183.4860  179.3210  144.3650 C   0  0  0  0  0  2  0  0  0  0  0  0
  182.0450  179.0070  143.9780 C   0  0  0  0  0  2  0  0  0  0  0  0
  182.0060  178.2320  142.7840 O   0  0  0  0  0  0  0  0  0  0  0  0
  179.8260  178.2240  142.0130 O   0  0  0  0  0  0  0  0  0  0  0  0
  181.0500  178.4320  141.7820 C   0  0  0  0  0  0  0  0  0  0  0  0
  182.2860  179.8070  137.9540 C   0  0  0  0  0  3  0  0  0  0  0  0
  184.5340  180.1390  138.8470 N   0  0  0  0  0  1  0  0  0  0  0  0
  180.9620  179.4120  138.1480 C   0  0  0  0  0  0  0  0  0  0  0  0
  182.7610  179.2860  140.2400 N   0  0  0  0  0  0  0  0  0  0  0  0
  180.0550  179.4790  137.0980 O   0  0  0  0  0  1  0  0  0  0  0  0
  183.1810  179.7360  139.0260 C   0  0  0  0  0  0  0  0  0  0  0  0
  181.4720  178.8950  140.4530 C   0  0  0  0  0  0  0  0  0  0  0  0
  180.5500  178.9510  139.4000 C   0  0  0  0  0  3  0  0  0  0  0  0
  1  5  1  0  0  0  0
  1 16  1  0  0  0  0
  2  5  1  0  0  0  0
  3  4  2  0  0  0  0
  3  6  1  0  0  0  0
  4 10  1  0  0  0  0
  5 42  1  1  0  0  0
  6  7  1  0  0  0  0
  6 11  1  0  0  0  0
  7  8  2  0  0  0  0
  9 38  1  0  0  0  0
  9  7  1  0  0  0  0
 10 11  2  0  0  0  0
 10  2  1  0  0  0  0
 11  1  1  0  0  0  0
 13 18  1  0  0  0  0
 14 16  1  0  0  0  0
 14 13  1  0  0  0  0
 15 17  1  1  0  0  0
 16 19  2  0  0  0  0
 17 12  2  0  0  0  0
 17 20  1  0  0  0  0
 18 15  1  0  0  0  0
 19 15  1  0  0  0  0
 20 21  1  0  0  0  0
 22  4  1  0  0  0  0
 23 22  3  0  0  0  0
 24 23  1  0  0  0  0
 26 27  2  0  0  0  0
 27 24  1  0  0  0  0
 28 29  1  0  0  0  0
 28 25  1  0  0  0  0
 28 33  1  1  0  0  0
 29 32  1  6  0  0  0
 30 26  1  0  0  0  0
 30 29  1  0  0  0  0
 31 27  1  0  0  0  0
 31 25  1  0  0  0  0
 34 35  1  0  0  0  0
 34 33  1  0  0  0  0
 35 37  1  0  0  0  0
 36 35  2  0  0  0  0
 39 38  1  0  0  0  0
 40 41  1  0  0  0  0
 41 39  1  0  0  0  0
 42 43  1  0  0  0  0
 43 44  1  0  0  0  0
 44 45  1  0  0  0  0
 45 46  2  0  0  0  0
 47 45  1  0  0  0  0
 48 47  1  0  0  0  0
 49 48  1  0  0  0  0
 50 49  1  0  0  0  0
 52 51  2  0  0  0  0
 52 50  1  0  0  0  0
 53 55  2  0  0  0  0
 53 58  1  0  0  0  0
 54 58  1  0  0  0  0
 55 60  1  0  0  0  0
 56 59  1  0  0  0  0
 57 55  1  0  0  0  0
 58 56  2  0  0  0  0
 59 52  1  0  0  0  0
 60 59  2  0  0  0  0
M  END
>  <MODEL>
9

>  <REMARK>
 VINA RESULT:      -6.0      2.924     10.166
  Name = 
  21 active torsions:
  status: ('A' for Active; 'I' for Inactive)
    1  A    between atoms: C_1  and  C_32
    2  A    between atoms: C_1  and  C_58
    3  A    between atoms: O_4  and  C_51
    4  A    between atoms: N_5  and  C_15
    5  A    between atoms: N_5  and  C_31
    6  A    between atoms: C_6  and  C_12
    7  A    between atoms: N_7  and  C_42
    8  A    between atoms: O_13  and  C_37
    9  A    between atoms: O_13  and  C_38
   10  A    between atoms: C_14  and  C_59
   11  A    between atoms: C_16  and  O_39
   12  A    between atoms: C_23  and  O_39
   13  A    between atoms: C_24  and  C_33
   14  A    between atoms: C_27  and  C_41
   15  A    between atoms: N_28  and  C_56
   16  A    between atoms: C_31  and  C_58
   17  A    between atoms: C_32  and  C_44
   18  A    between atoms: C_33  and  C_41
   19  A    between atoms: C_37  and  C_53
   20  A    between atoms: C_38  and  C_44
   21  A    between atoms: C_56  and  C_59
                            x       y       z     vdW  Elec       q    Type
                         _______ _______ _______ _____ _____    ______ ____

>  <TORSDO>
F 21

$$$$
