=
 OpenBabel10222415263D

 31 35  0  0  1  0  0  0  0  0999 V2000
  179.1740  179.4310  138.6680 C   0  0  0  0  0  2  0  0  0  0  0  0
  182.3630  176.4710  139.5870 C   0  0  0  0  0  3  0  0  0  0  0  0
  182.2510  175.6930  138.4340 C   0  0  0  0  0  0  0  0  0  0  0  0
  185.1800  176.9400  136.5780 N   0  0  0  0  0  0  0  0  0  0  0  0
  180.1890  174.3200  139.2590 C   0  0  1  0  0  3  0  0  0  0  0  0
  180.2430  178.9000  139.6070 C   0  0  2  0  0  0  0  0  0  0  0  0
  178.9310  174.7590  141.3380 N   0  0  0  0  0  1  0  0  0  0  0  0
  181.1090  174.8430  138.2390 N   0  0  0  0  0  2  0  0  0  0  0  0
  183.3580  177.4290  139.7340 C   0  0  0  0  0  0  0  0  0  0  0  0
  183.1960  175.8560  137.4040 C   0  0  0  0  0  0  0  0  0  0  0  0
  186.1840  177.8460  136.7040 C   0  0  0  0  0  0  0  0  0  0  0  0
  183.0810  175.0480  136.1510 C   0  0  0  0  0  1  0  0  0  0  0  0
  187.1440  177.9890  135.6640 N   0  0  0  0  0  1  0  0  0  0  0  0
  184.2480  176.7800  137.5590 C   0  0  0  0  0  0  0  0  0  0  0  0
  185.3660  178.5020  138.8220 C   0  0  0  0  0  3  0  0  0  0  0  0
  179.8140  175.3460  140.3420 C   0  0  2  0  0  3  0  0  0  0  0  0
  184.3270  177.5710  138.7270 C   0  0  0  0  0  0  0  0  0  0  0  0
  186.2710  178.6200  137.8170 N   0  0  0  0  0  0  0  0  0  0  0  0
  179.8640  177.7730  140.4900 N   0  0  0  0  0  0  0  0  0  0  0  0
  181.4030  179.5770  137.5820 C   0  0  0  0  0  2  0  0  0  0  0  0
  181.3750  179.8390  140.0170 C   0  0  2  0  0  3  0  0  0  0  0  0
  184.1610  178.1950  141.8130 O   0  0  0  0  0  0  0  0  0  0  0  0
  179.2240  176.6420  139.8050 C   0  0  0  0  0  2  0  0  0  0  0  0
  182.1580  180.1770  138.7590 C   0  0  0  0  0  2  0  0  0  0  0  0
  182.2540  179.2980  141.0610 N   0  0  0  0  0  2  0  0  0  0  0  0
  180.3460  178.6240  138.1180 C   0  0  2  0  0  3  0  0  0  0  0  0
  183.2920  178.3130  140.9100 C   0  0  0  0  0  0  0  0  0  0  0  0
  178.9750  174.0380  137.0970 C   0  0  0  0  0  1  0  0  0  0  0  0
  178.9520  173.7420  138.5840 C   0  0  0  0  0  2  0  0  0  0  0  0
  179.0150  178.2400  141.5920 C   0  0  0  0  0  2  0  0  0  0  0  0
  179.5420  177.8720  142.8350 O   0  0  0  0  0  1  0  0  0  0  0  0
  2  9  1  0  0  0  0
  3  2  2  0  0  0  0
  4 11  2  0  0  0  0
  4 14  1  0  0  0  0
  5 29  1  6  0  0  0
  5 16  1  0  0  0  0
  6  1  1  1  0  0  0
  6 21  1  0  0  0  0
  6 19  1  0  0  0  0
  8  3  1  0  0  0  0
  8  5  1  0  0  0  0
  9 27  1  0  0  0  0
 10 14  2  0  0  0  0
 10  3  1  0  0  0  0
 11 18  1  0  0  0  0
 12 10  1  0  0  0  0
 13 11  1  0  0  0  0
 14 17  1  0  0  0  0
 16  7  1  1  0  0  0
 17 15  1  0  0  0  0
 17  9  2  0  0  0  0
 18 15  2  0  0  0  0
 19 30  1  0  0  0  0
 20 24  1  0  0  0  0
 21 24  1  6  0  0  0
 21 25  1  0  0  0  0
 23 16  1  0  0  0  0
 23 19  1  0  0  0  0
 26 20  1  6  0  0  0
 26  1  1  0  0  0  0
 26  6  1  0  0  0  0
 27 25  1  0  0  0  0
 27 22  2  0  0  0  0
 28 29  1  0  0  0  0
 30 31  1  0  0  0  0
M  END
>  <MODEL>
1

>  <REMARK>
 VINA RESULT:      -5.7      0.000      0.000
  Name = 
  2 active torsions:
  status: ('A' for Active; 'I' for Inactive)
    1  A    between atoms: C_5  and  C_23
    2  A    between atoms: N_20  and  C_27
                            x       y       z     vdW  Elec       q    Type
                         _______ _______ _______ _____ _____    ______ ____

>  <TORSDO>
F 2

$$$$
=
 OpenBabel10222415263D

 31 35  0  0  1  0  0  0  0  0999 V2000
  186.9540  177.0700  134.5950 C   0  0  0  0  0  2  0  0  0  0  0  0
  189.1650  174.6320  137.5850 C   0  0  0  0  0  3  0  0  0  0  0  0
  189.6270  173.6340  136.7260 C   0  0  0  0  0  0  0  0  0  0  0  0
  193.1250  174.7310  136.3530 N   0  0  0  0  0  0  0  0  0  0  0  0
  187.3930  172.2830  136.6900 C   0  0  1  0  0  3  0  0  0  0  0  0
  187.3910  176.8290  136.0290 C   0  0  2  0  0  0  0  0  0  0  0  0
  185.2720  173.0190  137.7200 N   0  0  0  0  0  1  0  0  0  0  0  0
  188.7150  172.6690  136.1760 N   0  0  0  0  0  2  0  0  0  0  0  0
  189.9770  175.6810  137.9980 C   0  0  0  0  0  0  0  0  0  0  0  0
  190.9660  173.6680  136.2940 C   0  0  0  0  0  0  0  0  0  0  0  0
  193.9540  175.7250  136.7630 C   0  0  0  0  0  0  0  0  0  0  0  0
  191.4740  172.6210  135.3560 C   0  0  0  0  0  1  0  0  0  0  0  0
  195.3110  175.7390  136.3350 N   0  0  0  0  0  1  0  0  0  0  0  0
  191.8230  174.6900  136.7490 C   0  0  0  0  0  0  0  0  0  0  0  0
  192.2000  176.7170  137.9990 C   0  0  0  0  0  3  0  0  0  0  0  0
  186.5520  173.4680  137.1950 C   0  0  2  0  0  3  0  0  0  0  0  0
  191.3250  175.7010  137.6020 C   0  0  0  0  0  0  0  0  0  0  0  0
  193.4910  176.7090  137.5780 N   0  0  0  0  0  0  0  0  0  0  0  0
  186.5880  175.8720  136.8250 N   0  0  0  0  0  0  0  0  0  0  0  0
  189.4300  177.1860  134.7570 C   0  0  0  0  0  2  0  0  0  0  0  0
  188.1880  177.9220  136.7350 C   0  0  2  0  0  3  0  0  0  0  0  0
  189.6470  176.9090  139.9820 O   0  0  0  0  0  0  0  0  0  0  0  0
  186.3480  174.5780  136.1730 C   0  0  0  0  0  2  0  0  0  0  0  0
  189.5060  178.0690  135.9940 C   0  0  0  0  0  2  0  0  0  0  0  0
  188.4070  177.6760  138.1660 N   0  0  0  0  0  2  0  0  0  0  0  0
  188.2210  176.2730  134.8870 C   0  0  2  0  0  3  0  0  0  0  0  0
  189.3530  176.7720  138.7650 C   0  0  0  0  0  0  0  0  0  0  0  0
  187.6040  170.5630  134.8950 C   0  0  0  0  0  1  0  0  0  0  0  0
  186.6480  171.4800  135.6310 C   0  0  0  0  0  2  0  0  0  0  0  0
  185.3140  176.4740  137.2310 C   0  0  0  0  0  2  0  0  0  0  0  0
  184.2650  176.0560  136.4050 O   0  0  0  0  0  1  0  0  0  0  0  0
  2  9  1  0  0  0  0
  3  2  2  0  0  0  0
  4 14  1  0  0  0  0
  4 11  2  0  0  0  0
  5 29  1  6  0  0  0
  5 16  1  0  0  0  0
  6  1  1  6  0  0  0
  6 21  1  0  0  0  0
  6 19  1  0  0  0  0
  8  5  1  0  0  0  0
  8  3  1  0  0  0  0
  9 27  1  0  0  0  0
 10  3  1  0  0  0  0
 10 14  2  0  0  0  0
 11 18  1  0  0  0  0
 12 10  1  0  0  0  0
 13 11  1  0  0  0  0
 14 17  1  0  0  0  0
 16  7  1  6  0  0  0
 17  9  2  0  0  0  0
 17 15  1  0  0  0  0
 18 15  2  0  0  0  0
 19 30  1  0  0  0  0
 20 26  1  0  0  0  0
 20 24  1  0  0  0  0
 21 24  1  6  0  0  0
 21 25  1  0  0  0  0
 23 19  1  0  0  0  0
 23 16  1  0  0  0  0
 25 27  1  0  0  0  0
 26  1  1  6  0  0  0
 26  6  1  0  0  0  0
 27 22  2  0  0  0  0
 28 29  1  0  0  0  0
 31 30  1  0  0  0  0
M  END
>  <MODEL>
2

>  <REMARK>
 VINA RESULT:      -5.7      5.286      7.964
  Name = 
  2 active torsions:
  status: ('A' for Active; 'I' for Inactive)
    1  A    between atoms: C_5  and  C_23
    2  A    between atoms: N_20  and  C_27
                            x       y       z     vdW  Elec       q    Type
                         _______ _______ _______ _____ _____    ______ ____

>  <TORSDO>
F 2

$$$$
=
 OpenBabel10222415263D

 31 35  0  0  1  0  0  0  0  0999 V2000
  180.5820  181.0170  136.8200 C   0  0  0  0  0  2  0  0  0  0  0  0
  181.9320  177.4460  139.1000 C   0  0  0  0  0  3  0  0  0  0  0  0
  183.3060  177.6810  139.0420 C   0  0  0  0  0  0  0  0  0  0  0  0
  183.8450  178.9600  142.4560 N   0  0  0  0  0  0  0  0  0  0  0  0
  183.6170  176.7450  136.6240 C   0  0  1  0  0  3  0  0  0  0  0  0
  180.2580  179.7340  137.5640 C   0  0  2  0  0  0  0  0  0  0  0  0
  181.7820  176.0470  135.1260 N   0  0  0  0  0  1  0  0  0  0  0  0
  184.0190  177.5250  137.8030 N   0  0  0  0  0  2  0  0  0  0  0  0
  181.1810  177.7500  140.2280 C   0  0  0  0  0  0  0  0  0  0  0  0
  183.9600  178.2060  140.1720 C   0  0  0  0  0  0  0  0  0  0  0  0
  183.1450  179.2390  143.5850 C   0  0  0  0  0  0  0  0  0  0  0  0
  185.4280  178.4840  140.1240 C   0  0  0  0  0  1  0  0  0  0  0  0
  183.8190  179.7520  144.7280 N   0  0  0  0  0  1  0  0  0  0  0  0
  183.2270  178.4650  141.3480 C   0  0  0  0  0  0  0  0  0  0  0  0
  181.1370  178.5460  142.5480 C   0  0  0  0  0  3  0  0  0  0  0  0
  182.1220  176.8660  136.2780 C   0  0  2  0  0  3  0  0  0  0  0  0
  181.8320  178.2390  141.3740 C   0  0  0  0  0  0  0  0  0  0  0  0
  181.8030  179.0340  143.6260 N   0  0  0  0  0  0  0  0  0  0  0  0
  180.3690  178.4680  136.8040 N   0  0  0  0  0  0  0  0  0  0  0  0
  181.2960  181.2120  139.1910 C   0  0  0  0  0  2  0  0  0  0  0  0
  179.3280  179.8150  138.7720 C   0  0  2  0  0  3  0  0  0  0  0  0
  179.1390  176.7120  140.7790 O   0  0  0  0  0  0  0  0  0  0  0  0
  181.6350  178.2940  136.0800 C   0  0  0  0  0  2  0  0  0  0  0  0
  180.0280  180.6570  139.8250 C   0  0  0  0  0  2  0  0  0  0  0  0
  178.9320  178.5090  139.3130 N   0  0  0  0  0  2  0  0  0  0  0  0
  181.5410  180.4820  137.8790 C   0  0  2  0  0  3  0  0  0  0  0  0
  179.7170  177.6250  140.1340 C   0  0  0  0  0  0  0  0  0  0  0  0
  185.9040  177.4370  135.9070 C   0  0  0  0  0  1  0  0  0  0  0  0
  184.4970  177.1200  135.4390 C   0  0  0  0  0  2  0  0  0  0  0  0
  179.2380  178.3130  135.8840 C   0  0  0  0  0  2  0  0  0  0  0  0
  179.5660  178.7420  134.5940 O   0  0  0  0  0  1  0  0  0  0  0  0
  2  9  1  0  0  0  0
  3  2  2  0  0  0  0
  3 10  1  0  0  0  0
  4 11  2  0  0  0  0
  5 29  1  6  0  0  0
  5  8  1  0  0  0  0
  6  1  1  6  0  0  0
  6 26  1  0  0  0  0
  6 21  1  0  0  0  0
  8  3  1  0  0  0  0
  9 17  2  0  0  0  0
 10 14  2  0  0  0  0
 11 18  1  0  0  0  0
 11 13  1  0  0  0  0
 12 10  1  0  0  0  0
 14 17  1  0  0  0  0
 14  4  1  0  0  0  0
 15 18  2  0  0  0  0
 16  7  1  6  0  0  0
 16  5  1  0  0  0  0
 17 15  1  0  0  0  0
 19  6  1  0  0  0  0
 20 24  1  0  0  0  0
 21 25  1  0  0  0  0
 21 24  1  1  0  0  0
 23 16  1  0  0  0  0
 23 19  1  0  0  0  0
 25 27  1  0  0  0  0
 26  1  1  6  0  0  0
 26 20  1  0  0  0  0
 27  9  1  0  0  0  0
 27 22  2  0  0  0  0
 29 28  1  0  0  0  0
 30 19  1  0  0  0  0
 31 30  1  0  0  0  0
M  END
>  <MODEL>
3

>  <REMARK>
 VINA RESULT:      -4.8      2.471      5.166
  Name = 
  2 active torsions:
  status: ('A' for Active; 'I' for Inactive)
    1  A    between atoms: C_5  and  C_23
    2  A    between atoms: N_20  and  C_27
                            x       y       z     vdW  Elec       q    Type
                         _______ _______ _______ _____ _____    ______ ____

>  <TORSDO>
F 2

$$$$
=
 OpenBabel10222415263D

 31 35  0  0  1  0  0  0  0  0999 V2000
  180.4490  176.8890  134.8240 C   0  0  0  0  0  2  0  0  0  0  0  0
  182.3200  175.9710  138.7520 C   0  0  0  0  0  3  0  0  0  0  0  0
  183.2380  177.0210  138.7860 C   0  0  0  0  0  0  0  0  0  0  0  0
  181.5050  179.2640  141.1400 N   0  0  0  0  0  0  0  0  0  0  0  0
  184.9930  175.8670  137.2340 C   0  0  1  0  0  3  0  0  0  0  0  0
  180.5560  176.0050  136.0540 C   0  0  2  0  0  0  0  0  0  0  0  0
  184.6440  173.7360  136.0360 N   0  0  0  0  0  1  0  0  0  0  0  0
  184.3780  177.0180  137.9100 N   0  0  0  0  0  2  0  0  0  0  0  0
  181.1220  176.0190  139.4540 C   0  0  0  0  0  0  0  0  0  0  0  0
  182.9620  178.1470  139.5840 C   0  0  0  0  0  0  0  0  0  0  0  0
  180.3570  179.3290  141.8630 C   0  0  0  0  0  0  0  0  0  0  0  0
  183.9230  179.2920  139.6170 C   0  0  0  0  0  1  0  0  0  0  0  0
  180.0970  180.4640  142.6810 N   0  0  0  0  0  1  0  0  0  0  0  0
  181.7810  178.1890  140.3510 C   0  0  0  0  0  0  0  0  0  0  0  0
  179.6800  177.2230  141.0310 C   0  0  0  0  0  3  0  0  0  0  0  0
  183.9740  174.8660  136.6610 C   0  0  2  0  0  3  0  0  0  0  0  0
  180.8560  177.1220  140.2830 C   0  0  0  0  0  0  0  0  0  0  0  0
  179.4540  178.3150  141.8050 N   0  0  0  0  0  0  0  0  0  0  0  0
  181.6220  174.9770  136.0540 N   0  0  0  0  0  0  0  0  0  0  0  0
  179.8560  178.1900  136.8550 C   0  0  0  0  0  2  0  0  0  0  0  0
  179.3070  175.8040  136.9090 C   0  0  2  0  0  3  0  0  0  0  0  0
  179.9160  174.1160  140.1450 O   0  0  0  0  0  0  0  0  0  0  0  0
  182.9590  175.4770  135.7060 C   0  0  0  0  0  2  0  0  0  0  0  0
  178.9350  177.1580  137.4890 C   0  0  0  0  0  2  0  0  0  0  0  0
  179.4600  174.7960  137.9660 N   0  0  0  0  0  2  0  0  0  0  0  0
  180.9790  177.4610  136.1350 C   0  0  2  0  0  3  0  0  0  0  0  0
  180.1460  174.9410  139.2220 C   0  0  0  0  0  0  0  0  0  0  0  0
  186.4690  177.7430  136.5090 C   0  0  0  0  0  1  0  0  0  0  0  0
  185.9580  176.3580  136.1630 C   0  0  0  0  0  2  0  0  0  0  0  0
  181.2620  173.8560  135.1800 C   0  0  0  0  0  2  0  0  0  0  0  0
  181.2300  172.6480  135.8860 O   0  0  0  0  0  1  0  0  0  0  0  0
  2  3  2  0  0  0  0
  2  9  1  0  0  0  0
  3 10  1  0  0  0  0
  4 11  2  0  0  0  0
  5 29  1  6  0  0  0
  5  8  1  0  0  0  0
  6  1  1  6  0  0  0
  6 19  1  0  0  0  0
  6 26  1  0  0  0  0
  6 21  1  0  0  0  0
  8  3  1  0  0  0  0
  9 17  2  0  0  0  0
 10 12  1  0  0  0  0
 10 14  2  0  0  0  0
 11 13  1  0  0  0  0
 14  4  1  0  0  0  0
 15 18  2  0  0  0  0
 16  7  1  6  0  0  0
 16  5  1  0  0  0  0
 17 14  1  0  0  0  0
 17 15  1  0  0  0  0
 18 11  1  0  0  0  0
 20 24  1  0  0  0  0
 21 24  1  1  0  0  0
 21 25  1  0  0  0  0
 23 19  1  0  0  0  0
 23 16  1  0  0  0  0
 25 27  1  0  0  0  0
 26  1  1  6  0  0  0
 26 20  1  0  0  0  0
 27  9  1  0  0  0  0
 27 22  2  0  0  0  0
 29 28  1  0  0  0  0
 30 31  1  0  0  0  0
 30 19  1  0  0  0  0
M  END
>  <MODEL>
4

>  <REMARK>
 VINA RESULT:      -4.8      2.492      5.882
  Name = 
  2 active torsions:
  status: ('A' for Active; 'I' for Inactive)
    1  A    between atoms: C_5  and  C_23
    2  A    between atoms: N_20  and  C_27
                            x       y       z     vdW  Elec       q    Type
                         _______ _______ _______ _____ _____    ______ ____

>  <TORSDO>
F 2

$$$$
=
 OpenBabel10222415263D

 31 35  0  0  1  0  0  0  0  0999 V2000
  183.9200  174.7850  137.4180 C   0  0  0  0  0  2  0  0  0  0  0  0
  186.6210  178.2950  137.8140 C   0  0  0  0  0  3  0  0  0  0  0  0
  187.0630  178.0600  139.1170 C   0  0  0  0  0  0  0  0  0  0  0  0
  190.4060  176.6960  138.3830 N   0  0  0  0  0  0  0  0  0  0  0  0
  184.9480  179.0560  140.2810 C   0  0  1  0  0  3  0  0  0  0  0  0
  184.5260  176.0490  136.8350 C   0  0  2  0  0  0  0  0  0  0  0  0
  182.9010  179.7940  139.1140 N   0  0  0  0  0  1  0  0  0  0  0  0
  186.1740  178.2460  140.2310 N   0  0  0  0  0  2  0  0  0  0  0  0
  187.3890  177.9640  136.7060 C   0  0  0  0  0  0  0  0  0  0  0  0
  188.3410  177.5060  139.3170 C   0  0  0  0  0  0  0  0  0  0  0  0
  191.1960  176.3890  137.3210 C   0  0  0  0  0  0  0  0  0  0  0  0
  188.8250  177.2270  140.7040 C   0  0  0  0  0  1  0  0  0  0  0  0
  192.4930  175.8460  137.5360 N   0  0  0  0  0  1  0  0  0  0  0  0
  189.1610  177.2190  138.2080 C   0  0  0  0  0  0  0  0  0  0  0  0
  189.5140  177.1100  135.8250 C   0  0  0  0  0  3  0  0  0  0  0  0
  184.0780  178.9460  139.0170 C   0  0  2  0  0  3  0  0  0  0  0  0
  188.6820  177.4450  136.8970 C   0  0  0  0  0  0  0  0  0  0  0  0
  190.7480  176.5950  136.0550 N   0  0  0  0  0  0  0  0  0  0  0  0
  183.8900  177.3340  137.2050 N   0  0  0  0  0  0  0  0  0  0  0  0
  186.3830  174.5290  137.2190 C   0  0  0  0  0  2  0  0  0  0  0  0
  185.3090  175.9380  135.5280 C   0  0  2  0  0  3  0  0  0  0  0  0
  187.1810  178.9910  134.5960 O   0  0  0  0  0  0  0  0  0  0  0  0
  183.6810  177.5240  138.6470 C   0  0  0  0  0  2  0  0  0  0  0  0
  186.5240  175.0690  135.8030 C   0  0  0  0  0  2  0  0  0  0  0  0
  185.6990  177.2310  134.9520 N   0  0  0  0  0  2  0  0  0  0  0  0
  185.2690  175.2910  137.9200 C   0  0  2  0  0  3  0  0  0  0  0  0
  186.7700  178.0930  135.3760 C   0  0  0  0  0  0  0  0  0  0  0  0
  185.0930  178.2580  142.6400 C   0  0  0  0  0  1  0  0  0  0  0  0
  184.1580  178.7100  141.5360 C   0  0  0  0  0  2  0  0  0  0  0  0
  182.6240  177.5120  136.4870 C   0  0  0  0  0  2  0  0  0  0  0  0
  181.5250  177.2450  137.3110 O   0  0  0  0  0  1  0  0  0  0  0  0
  1 26  1  0  0  0  0
  2  3  1  0  0  0  0
  3 10  2  0  0  0  0
  3  8  1  0  0  0  0
  5 29  1  1  0  0  0
  6 19  1  0  0  0  0
  6  1  1  6  0  0  0
  6 26  1  0  0  0  0
  8  5  1  0  0  0  0
  9 17  1  0  0  0  0
  9  2  2  0  0  0  0
 10 12  1  0  0  0  0
 11 13  1  0  0  0  0
 11  4  2  0  0  0  0
 14  4  1  0  0  0  0
 14 10  1  0  0  0  0
 15 18  2  0  0  0  0
 15 17  1  0  0  0  0
 16  7  1  1  0  0  0
 16  5  1  0  0  0  0
 17 14  2  0  0  0  0
 18 11  1  0  0  0  0
 19 23  1  0  0  0  0
 21 24  1  1  0  0  0
 21  6  1  0  0  0  0
 22 27  2  0  0  0  0
 23 16  1  0  0  0  0
 24 20  1  0  0  0  0
 25 27  1  0  0  0  0
 25 21  1  0  0  0  0
 26 20  1  6  0  0  0
 27  9  1  0  0  0  0
 29 28  1  0  0  0  0
 30 19  1  0  0  0  0
 30 31  1  0  0  0  0
M  END
>  <MODEL>
5

>  <REMARK>
 VINA RESULT:      -4.7      3.507      6.307
  Name = 
  2 active torsions:
  status: ('A' for Active; 'I' for Inactive)
    1  A    between atoms: C_5  and  C_23
    2  A    between atoms: N_20  and  C_27
                            x       y       z     vdW  Elec       q    Type
                         _______ _______ _______ _____ _____    ______ ____

>  <TORSDO>
F 2

$$$$
=
 OpenBabel10222415263D

 31 35  0  0  1  0  0  0  0  0999 V2000
  184.3030  176.7570  137.8660 C   0  0  0  0  0  2  0  0  0  0  0  0
  179.9170  177.2880  138.3690 C   0  0  0  0  0  3  0  0  0  0  0  0
  179.6530  176.1100  139.0680 C   0  0  0  0  0  0  0  0  0  0  0  0
  179.3100  177.4900  142.4680 N   0  0  0  0  0  0  0  0  0  0  0  0
  179.6240  174.5700  136.9600 C   0  0  1  0  0  3  0  0  0  0  0  0
  183.0410  177.5660  137.6240 C   0  0  2  0  0  0  0  0  0  0  0  0
  180.2240  175.2830  134.6730 N   0  0  0  0  0  1  0  0  0  0  0  0
  179.7200  174.8380  138.4020 N   0  0  0  0  0  2  0  0  0  0  0  0
  180.0310  178.5140  139.0110 C   0  0  0  0  0  0  0  0  0  0  0  0
  179.4580  176.1690  140.4610 C   0  0  0  0  0  0  0  0  0  0  0  0
  179.3840  178.6770  143.1220 C   0  0  0  0  0  0  0  0  0  0  0  0
  179.1950  174.9150  141.2320 C   0  0  0  0  0  1  0  0  0  0  0  0
  179.1670  178.7280  144.5270 N   0  0  0  0  0  1  0  0  0  0  0  0
  179.5100  177.4110  141.1230 C   0  0  0  0  0  0  0  0  0  0  0  0
  179.8800  179.7940  141.0990 C   0  0  0  0  0  3  0  0  0  0  0  0
  180.3850  175.5830  136.0870 C   0  0  2  0  0  3  0  0  0  0  0  0
  179.8010  178.5880  140.3960 C   0  0  0  0  0  0  0  0  0  0  0  0
  179.6690  179.8170  142.4390 N   0  0  0  0  0  0  0  0  0  0  0  0
  182.1910  177.1630  136.4810 N   0  0  0  0  0  0  0  0  0  0  0  0
  183.3480  177.5030  140.0350 C   0  0  0  0  0  2  0  0  0  0  0  0
  182.9980  179.0060  138.1320 C   0  0  2  0  0  3  0  0  0  0  0  0
  179.6600  180.5940  137.9680 O   0  0  0  0  0  0  0  0  0  0  0  0
  181.8590  175.7330  136.4350 C   0  0  0  0  0  2  0  0  0  0  0  0
  183.0880  178.9520  139.6480 C   0  0  0  0  0  2  0  0  0  0  0  0
  181.8170  179.7610  137.6960 N   0  0  0  0  0  2  0  0  0  0  0  0
  183.1150  176.6260  138.8140 C   0  0  2  0  0  3  0  0  0  0  0  0
  180.4770  179.6690  138.2130 C   0  0  0  0  0  0  0  0  0  0  0  0
  180.2530  172.3770  137.9720 C   0  0  0  0  0  1  0  0  0  0  0  0
  180.0690  173.1410  136.6750 C   0  0  0  0  0  2  0  0  0  0  0  0
  182.7970  177.5790  135.2110 C   0  0  0  0  0  2  0  0  0  0  0  0
  183.4690  176.5190  134.5940 O   0  0  0  0  0  1  0  0  0  0  0  0
  2  9  2  0  0  0  0
  2  3  1  0  0  0  0
  3 10  2  0  0  0  0
  4 11  2  0  0  0  0
  5 29  1  1  0  0  0
  5  8  1  0  0  0  0
  6  1  1  6  0  0  0
  6 21  1  0  0  0  0
  6 26  1  0  0  0  0
  8  3  1  0  0  0  0
  9 17  1  0  0  0  0
 10 14  1  0  0  0  0
 10 12  1  0  0  0  0
 11 13  1  0  0  0  0
 14  4  1  0  0  0  0
 15 18  2  0  0  0  0
 16  7  1  6  0  0  0
 16 23  1  0  0  0  0
 16  5  1  0  0  0  0
 17 15  1  0  0  0  0
 17 14  2  0  0  0  0
 18 11  1  0  0  0  0
 19  6  1  0  0  0  0
 21 24  1  1  0  0  0
 22 27  2  0  0  0  0
 23 19  1  0  0  0  0
 24 20  1  0  0  0  0
 25 21  1  0  0  0  0
 25 27  1  0  0  0  0
 26  1  1  6  0  0  0
 26 20  1  0  0  0  0
 27  9  1  0  0  0  0
 29 28  1  0  0  0  0
 30 19  1  0  0  0  0
 31 30  1  0  0  0  0
M  END
>  <MODEL>
6

>  <REMARK>
 VINA RESULT:      -4.7      2.522      5.605
  Name = 
  2 active torsions:
  status: ('A' for Active; 'I' for Inactive)
    1  A    between atoms: C_5  and  C_23
    2  A    between atoms: N_20  and  C_27
                            x       y       z     vdW  Elec       q    Type
                         _______ _______ _______ _____ _____    ______ ____

>  <TORSDO>
F 2

$$$$
=
 OpenBabel10222415263D

 31 35  0  0  1  0  0  0  0  0999 V2000
  182.8910  177.1740  140.5600 C   0  0  0  0  0  2  0  0  0  0  0  0
  183.3730  176.6810  136.1670 C   0  0  0  0  0  3  0  0  0  0  0  0
  184.0380  175.4540  136.1760 C   0  0  0  0  0  0  0  0  0  0  0  0
  181.2460  173.2480  135.2190 N   0  0  0  0  0  0  0  0  0  0  0  0
  186.3890  176.4500  136.7220 C   0  0  1  0  0  3  0  0  0  0  0  0
  182.6970  177.7020  139.1500 C   0  0  2  0  0  0  0  0  0  0  0  0
  186.8350  178.8130  137.2800 N   0  0  0  0  0  1  0  0  0  0  0  0
  185.3980  175.3680  136.6330 N   0  0  0  0  0  2  0  0  0  0  0  0
  182.0130  176.7790  135.9000 C   0  0  0  0  0  0  0  0  0  0  0  0
  183.3200  174.2840  135.8680 C   0  0  0  0  0  0  0  0  0  0  0  0
  179.9230  173.3120  134.9220 C   0  0  0  0  0  0  0  0  0  0  0  0
  184.0090  172.9570  135.8930 C   0  0  0  0  0  1  0  0  0  0  0  0
  179.2110  172.1250  134.5940 N   0  0  0  0  0  1  0  0  0  0  0  0
  181.9530  174.3680  135.5350 C   0  0  0  0  0  0  0  0  0  0  0  0
  179.9320  175.6530  135.2530 C   0  0  0  0  0  3  0  0  0  0  0  0
  185.8160  177.7770  137.2470 C   0  0  2  0  0  3  0  0  0  0  0  0
  181.2970  175.6200  135.5540 C   0  0  0  0  0  0  0  0  0  0  0  0
  179.2750  174.5070  134.9420 N   0  0  0  0  0  0  0  0  0  0  0  0
  183.8450  178.4010  138.5280 N   0  0  0  0  0  0  0  0  0  0  0  0
  181.4160  175.6400  139.2780 C   0  0  0  0  0  2  0  0  0  0  0  0
  181.2760  178.0120  138.6840 C   0  0  2  0  0  3  0  0  0  0  0  0
  180.9650  178.7170  135.0650 O   0  0  0  0  0  0  0  0  0  0  0  0
  185.1190  177.6730  138.5960 C   0  0  0  0  0  2  0  0  0  0  0  0
  180.5100  176.7010  138.6700 C   0  0  0  0  0  2  0  0  0  0  0  0
  181.2060  178.6840  137.3800 N   0  0  0  0  0  2  0  0  0  0  0  0
  182.8240  176.2070  139.3830 C   0  0  2  0  0  3  0  0  0  0  0  0
  181.3700  178.0920  136.0790 C   0  0  0  0  0  0  0  0  0  0  0  0
  188.3420  174.9000  136.8220 C   0  0  0  0  0  1  0  0  0  0  0  0
  187.5780  175.9860  137.5540 C   0  0  0  0  0  2  0  0  0  0  0  0
  184.0030  179.7440  139.0950 C   0  0  0  0  0  2  0  0  0  0  0  0
  184.9350  179.7530  140.1380 O   0  0  0  0  0  1  0  0  0  0  0  0
  2  3  1  0  0  0  0
  3  8  1  0  0  0  0
  4 14  1  0  0  0  0
  5 16  1  0  0  0  0
  5 29  1  1  0  0  0
  6 26  1  0  0  0  0
  6  1  1  1  0  0  0
  8  5  1  0  0  0  0
  9 27  1  0  0  0  0
  9  2  2  0  0  0  0
 10 12  1  0  0  0  0
 10  3  2  0  0  0  0
 11 18  1  0  0  0  0
 11  4  2  0  0  0  0
 13 11  1  0  0  0  0
 14 17  2  0  0  0  0
 14 10  1  0  0  0  0
 15 17  1  0  0  0  0
 16  7  1  1  0  0  0
 16 23  1  0  0  0  0
 17  9  1  0  0  0  0
 18 15  2  0  0  0  0
 19 23  1  0  0  0  0
 19 30  1  0  0  0  0
 19  6  1  0  0  0  0
 21 24  1  6  0  0  0
 21  6  1  0  0  0  0
 22 27  2  0  0  0  0
 24 20  1  0  0  0  0
 25 21  1  0  0  0  0
 26 20  1  1  0  0  0
 26  1  1  0  0  0  0
 27 25  1  0  0  0  0
 28 29  1  0  0  0  0
 30 31  1  0  0  0  0
M  END
>  <MODEL>
7

>  <REMARK>
 VINA RESULT:      -4.5      2.573      5.959
  Name = 
  2 active torsions:
  status: ('A' for Active; 'I' for Inactive)
    1  A    between atoms: C_5  and  C_23
    2  A    between atoms: N_20  and  C_27
                            x       y       z     vdW  Elec       q    Type
                         _______ _______ _______ _____ _____    ______ ____

>  <TORSDO>
F 2

$$$$
=
 OpenBabel10222415263D

 31 35  0  0  1  0  0  0  0  0999 V2000
  184.7510  177.5680  134.8620 C   0  0  0  0  0  2  0  0  0  0  0  0
  183.3350  175.2750  138.3990 C   0  0  0  0  0  3  0  0  0  0  0  0
  182.0420  175.7940  138.4680 C   0  0  0  0  0  0  0  0  0  0  0  0
  180.1780  172.9710  137.0070 N   0  0  0  0  0  0  0  0  0  0  0  0
  182.7260  178.0040  139.6800 C   0  0  1  0  0  3  0  0  0  0  0  0
  185.0160  176.5630  135.9680 C   0  0  2  0  0  0  0  0  0  0  0  0
  185.0470  178.7240  140.1140 N   0  0  0  0  0  1  0  0  0  0  0  0
  181.8250  177.1500  138.8920 N   0  0  0  0  0  2  0  0  0  0  0  0
  183.5990  174.0340  137.8340 C   0  0  0  0  0  0  0  0  0  0  0  0
  180.9670  175.0230  137.9870 C   0  0  0  0  0  0  0  0  0  0  0  0
  180.3990  171.7400  136.4770 C   0  0  0  0  0  0  0  0  0  0  0  0
  179.5760  175.5700  138.0330 C   0  0  0  0  0  1  0  0  0  0  0  0
  179.3030  170.9620  136.0100 N   0  0  0  0  0  1  0  0  0  0  0  0
  181.2070  173.7370  137.4650 C   0  0  0  0  0  0  0  0  0  0  0  0
  182.7250  171.9760  136.8250 C   0  0  0  0  0  3  0  0  0  0  0  0
  184.2060  177.8830  139.2780 C   0  0  2  0  0  3  0  0  0  0  0  0
  182.5290  173.2420  137.3850 C   0  0  0  0  0  0  0  0  0  0  0  0
  181.6630  171.2520  136.3870 N   0  0  0  0  0  0  0  0  0  0  0  0
  185.3830  177.1040  137.2970 N   0  0  0  0  0  0  0  0  0  0  0  0
  183.2580  175.6010  134.5940 C   0  0  0  0  0  2  0  0  0  0  0  0
  185.4580  175.1550  135.5740 C   0  0  2  0  0  3  0  0  0  0  0  0
  185.4810  172.7150  138.3560 O   0  0  0  0  0  0  0  0  0  0  0  0
  184.4830  178.1480  137.8060 C   0  0  0  0  0  2  0  0  0  0  0  0
  184.3130  174.5230  134.8020 C   0  0  0  0  0  2  0  0  0  0  0  0
  185.8630  174.3140  136.7070 N   0  0  0  0  0  2  0  0  0  0  0  0
  183.5960  176.7880  135.4820 C   0  0  2  0  0  3  0  0  0  0  0  0
  185.0090  173.6470  137.6540 C   0  0  0  0  0  0  0  0  0  0  0  0
  181.1650  179.6000  138.5640 C   0  0  0  0  0  1  0  0  0  0  0  0
  182.2460  179.4480  139.6170 C   0  0  0  0  0  2  0  0  0  0  0  0
  186.7670  177.5890  137.2960 C   0  0  0  0  0  2  0  0  0  0  0  0
  186.8190  178.9870  137.3300 O   0  0  0  0  0  1  0  0  0  0  0  0
  1 26  1  0  0  0  0
  2  3  1  0  0  0  0
  3  8  1  0  0  0  0
  4 14  1  0  0  0  0
  5 29  1  6  0  0  0
  6  1  1  6  0  0  0
  6 19  1  0  0  0  0
  8  5  1  0  0  0  0
  9  2  2  0  0  0  0
 10 12  1  0  0  0  0
 10  3  2  0  0  0  0
 11  4  2  0  0  0  0
 13 11  1  0  0  0  0
 14 10  1  0  0  0  0
 15 17  1  0  0  0  0
 16  5  1  0  0  0  0
 16  7  1  1  0  0  0
 17 14  2  0  0  0  0
 17  9  1  0  0  0  0
 18 11  1  0  0  0  0
 18 15  2  0  0  0  0
 19 23  1  0  0  0  0
 20 24  1  0  0  0  0
 21 24  1  1  0  0  0
 21  6  1  0  0  0  0
 21 25  1  0  0  0  0
 23 16  1  0  0  0  0
 25 27  1  0  0  0  0
 26 20  1  6  0  0  0
 26  6  1  0  0  0  0
 27  9  1  0  0  0  0
 27 22  2  0  0  0  0
 28 29  1  0  0  0  0
 30 19  1  0  0  0  0
 30 31  1  0  0  0  0
M  END
>  <MODEL>
8

>  <REMARK>
 VINA RESULT:      -4.5      2.683      6.355
  Name = 
  2 active torsions:
  status: ('A' for Active; 'I' for Inactive)
    1  A    between atoms: C_5  and  C_23
    2  A    between atoms: N_20  and  C_27
                            x       y       z     vdW  Elec       q    Type
                         _______ _______ _______ _____ _____    ______ ____

>  <TORSDO>
F 2

$$$$
=
 OpenBabel10222415263D

 31 35  0  0  1  0  0  0  0  0999 V2000
  186.4470  178.0100  134.6920 C   0  0  0  0  0  2  0  0  0  0  0  0
  187.6940  174.9080  137.6240 C   0  0  0  0  0  3  0  0  0  0  0  0
  187.5520  173.7890  136.8020 C   0  0  0  0  0  0  0  0  0  0  0  0
  191.0960  173.1790  135.9960 N   0  0  0  0  0  0  0  0  0  0  0  0
  184.9650  173.5910  137.0960 C   0  0  1  0  0  3  0  0  0  0  0  0
  186.9050  177.6310  136.0890 C   0  0  2  0  0  0  0  0  0  0  0  0
  183.5410  175.2290  138.2740 N   0  0  0  0  0  1  0  0  0  0  0  0
  186.2450  173.3270  136.4240 N   0  0  0  0  0  2  0  0  0  0  0  0
  188.9330  175.4870  137.8700 C   0  0  0  0  0  0  0  0  0  0  0  0
  188.7000  173.2050  136.2370 C   0  0  0  0  0  0  0  0  0  0  0  0
  192.3240  173.7010  136.2420 C   0  0  0  0  0  0  0  0  0  0  0  0
  188.5680  172.0180  135.3370 C   0  0  0  0  0  1  0  0  0  0  0  0
  193.4800  173.0920  135.6790 N   0  0  0  0  0  1  0  0  0  0  0  0
  189.9720  173.7400  136.5230 C   0  0  0  0  0  0  0  0  0  0  0  0
  191.3650  175.4080  137.5670 C   0  0  0  0  0  3  0  0  0  0  0  0
  184.8110  175.0400  137.5900 C   0  0  2  0  0  3  0  0  0  0  0  0
  190.0880  174.8870  137.3400 C   0  0  0  0  0  0  0  0  0  0  0  0
  192.4530  174.8080  137.0200 N   0  0  0  0  0  0  0  0  0  0  0  0
  185.8670  177.1590  137.0330 N   0  0  0  0  0  0  0  0  0  0  0  0
  188.7140  176.9990  134.5940 C   0  0  0  0  0  2  0  0  0  0  0  0
  188.1880  178.2640  136.6240 C   0  0  2  0  0  3  0  0  0  0  0  0
  189.4340  176.7790  139.7760 O   0  0  0  0  0  0  0  0  0  0  0  0
  184.9970  176.0970  136.5110 C   0  0  0  0  0  2  0  0  0  0  0  0
  189.3290  177.7820  135.7450 C   0  0  0  0  0  2  0  0  0  0  0  0
  188.4510  177.9790  138.0400 N   0  0  0  0  0  2  0  0  0  0  0  0
  187.2510  176.7330  134.9150 C   0  0  2  0  0  3  0  0  0  0  0  0
  188.9610  176.7600  138.6100 C   0  0  0  0  0  0  0  0  0  0  0  0
  183.3170  171.8010  136.5470 C   0  0  0  0  0  1  0  0  0  0  0  0
  183.8150  173.1860  136.1840 C   0  0  0  0  0  2  0  0  0  0  0  0
  185.0560  178.2820  137.5170 C   0  0  0  0  0  2  0  0  0  0  0  0
  184.8880  178.2310  138.9050 O   0  0  0  0  0  1  0  0  0  0  0  0
  1 26  1  0  0  0  0
  2  9  1  0  0  0  0
  3  2  2  0  0  0  0
  4 11  2  0  0  0  0
  4 14  1  0  0  0  0
  5 29  1  6  0  0  0
  5 16  1  0  0  0  0
  6  1  1  6  0  0  0
  6 21  1  0  0  0  0
  6 19  1  0  0  0  0
  8  3  1  0  0  0  0
  8  5  1  0  0  0  0
  9 27  1  0  0  0  0
 10 14  2  0  0  0  0
 10  3  1  0  0  0  0
 11 18  1  0  0  0  0
 12 10  1  0  0  0  0
 13 11  1  0  0  0  0
 14 17  1  0  0  0  0
 16  7  1  6  0  0  0
 17 15  1  0  0  0  0
 17  9  2  0  0  0  0
 18 15  2  0  0  0  0
 19 30  1  0  0  0  0
 20 24  1  0  0  0  0
 21 24  1  6  0  0  0
 21 25  1  0  0  0  0
 23 19  1  0  0  0  0
 23 16  1  0  0  0  0
 25 27  1  0  0  0  0
 26 20  1  6  0  0  0
 26  6  1  0  0  0  0
 27 22  2  0  0  0  0
 29 28  1  0  0  0  0
 30 31  1  0  0  0  0
M  END
>  <MODEL>
9

>  <REMARK>
 VINA RESULT:      -4.3      4.203      6.762
  Name = 
  2 active torsions:
  status: ('A' for Active; 'I' for Inactive)
    1  A    between atoms: C_5  and  C_23
    2  A    between atoms: N_20  and  C_27
                            x       y       z     vdW  Elec       q    Type
                         _______ _______ _______ _____ _____    ______ ____

>  <TORSDO>
F 2

$$$$
