=
 OpenBabel10222417343D

 57 63  0  0  1  0  0  0  0  0999 V2000
  180.9120  180.0350  138.8400 C   0  0  0  0  0  0  0  0  0  0  0  0
  182.9640  178.8280  139.3610 C   0  0  0  0  0  0  0  0  0  0  0  0
  182.0880  179.8960  139.5890 C   0  0  0  0  0  3  0  0  0  0  0  0
  182.3890  176.4320  135.9430 C   0  0  0  0  0  3  0  0  0  0  0  0
  181.4840  178.0280  137.6020 C   0  0  0  0  0  0  0  0  0  0  0  0
  183.5520  176.6870  138.1090 C   0  0  0  0  0  2  0  0  0  0  0  0
  182.6600  177.8820  138.3610 C   0  0  0  0  0  0  0  0  0  0  0  0
  181.1440  177.0180  136.5500 C   0  0  0  0  0  2  0  0  0  0  0  0
  180.6160  179.0950  137.8450 C   0  0  0  0  0  3  0  0  0  0  0  0
  183.5110  176.2560  136.6590 C   0  0  0  0  0  0  0  0  0  0  0  0
  185.4290  178.7490  139.4520 C   0  0  0  0  0  3  0  0  0  0  0  0
  184.2130  178.7650  140.1390 C   0  0  0  0  0  0  0  0  0  0  0  0
  187.7990  178.6000  139.4560 F   0  0  0  0  0  0  0  0  0  0  0  0
  182.8960  178.5980  142.2810 C   0  0  0  0  0  1  0  0  0  0  0  0
  186.6320  178.6400  140.1460 C   0  0  0  0  0  0  0  0  0  0  0  0
  185.4180  178.5280  142.2530 C   0  0  0  0  0  0  0  0  0  0  0  0
  184.2000  178.6520  141.5470 C   0  0  0  0  0  0  0  0  0  0  0  0
  186.6340  178.5240  141.5380 C   0  0  0  0  0  0  0  0  0  0  0  0
  187.8200  178.3970  142.1840 F   0  0  0  0  0  0  0  0  0  0  0  0
  185.3340  179.6260  144.5380 C   0  0  0  0  0  1  0  0  0  0  0  0
  185.3900  178.3250  143.7510 C   0  0  2  0  0  3  0  0  0  0  0  0
  187.1320  177.6050  145.3680 C   0  0  0  0  0  3  0  0  0  0  0  0
  186.4710  177.3990  144.2280 C   0  0  0  0  0  3  0  0  0  0  0  0
  188.2110  176.6700  145.7940 C   0  0  0  0  0  2  0  0  0  0  0  0
  189.4450  177.4620  146.2000 C   0  0  2  0  0  3  0  0  0  0  0  0
  190.3690  177.6550  145.0000 C   0  0  1  0  0  3  0  0  0  0  0  0
  190.0390  176.7370  144.0030 O   0  0  0  0  0  1  0  0  0  0  0  0
  191.4530  179.2400  143.8940 C   0  0  0  0  0  1  0  0  0  0  0  0
  190.2250  178.9500  144.4940 O   0  0  0  0  0  0  0  0  0  0  0  0
  190.1430  176.7520  147.2650 N   0  0  0  0  0  2  0  0  0  0  0  0
  192.1250  175.6900  146.8450 C   0  0  0  0  0  1  0  0  0  0  0  0
  191.9970  177.4230  148.2720 O   0  0  0  0  0  1  0  0  0  0  0  0
  191.5150  176.9840  147.0850 N   0  0  0  0  0  0  0  0  0  0  0  0
  179.4390  181.8960  138.0030 N   0  0  0  0  0  1  0  0  0  0  0  0
  179.7100  181.4990  140.2690 O   0  0  0  0  0  0  0  0  0  0  0  0
  179.9990  181.1640  139.0900 C   0  0  0  0  0  0  0  0  0  0  0  0
  185.1340  176.0740  134.7750 C   0  0  0  0  0  1  0  0  0  0  0  0
  184.6540  175.6110  136.0700 N   0  0  0  0  0  0  0  0  0  0  0  0
  188.9810  173.0420  136.0670 C   0  0  0  0  0  0  0  0  0  0  0  0
  186.7100  172.8390  136.0270 C   0  0  0  0  0  0  0  0  0  0  0  0
  188.6810  171.4560  135.4890 S   0  0  0  0  0  0  0  0  0  0  0  0
  186.9970  171.5870  135.5670 C   0  0  0  0  0  0  0  0  0  0  0  0
  185.4560  173.2850  136.2850 C   0  0  0  0  0  0  0  0  0  0  0  0
  184.3760  172.4170  136.0590 C   0  0  0  0  0  3  0  0  0  0  0  0
  185.4590  174.6760  136.8630 C   0  0  1  0  0  3  0  0  0  0  0  0
  184.6370  171.1140  135.5570 C   0  0  0  0  0  0  0  0  0  0  0  0
  185.9670  170.6780  135.3140 C   0  0  0  0  0  3  0  0  0  0  0  0
  183.5050  170.1860  135.3050 C   0  0  0  0  0  1  0  0  0  0  0  0
  187.7480  173.6540  136.3030 C   0  0  0  0  0  0  0  0  0  0  0  0
  187.2400  175.2420  136.9400 S   0  0  0  0  0  0  0  0  0  0  0  0
  191.5130  172.9980  135.8990 C   0  0  0  0  0  3  0  0  0  0  0  0
  190.2730  173.5930  136.3490 N   0  0  0  0  0  0  0  0  0  0  0  0
  192.0030  174.6710  137.4810 C   0  0  2  0  0  3  0  0  0  0  0  0
  192.6080  173.7410  136.5230 N   0  0  0  0  0  0  0  0  0  0  0  0
  190.5020  174.6750  137.2720 C   0  0  0  0  0  2  0  0  0  0  0  0
  193.1600  176.5940  138.6540 C   0  0  0  0  0  1  0  0  0  0  0  0
  192.5980  176.0700  137.3400 C   0  0  0  0  0  2  0  0  0  0  0  0
  1 36  1  0  0  0  0
  1  3  1  0  0  0  0
  2  3  2  0  0  0  0
  2 12  1  0  0  0  0
  4  8  1  0  0  0  0
  4 10  2  0  0  0  0
  5  9  1  0  0  0  0
  5  7  2  0  0  0  0
  6  7  1  0  0  0  0
  7  2  1  0  0  0  0
  8  5  1  0  0  0  0
  9  1  2  0  0  0  0
 10  6  1  0  0  0  0
 11 12  2  0  0  0  0
 11 15  1  0  0  0  0
 12 17  1  0  0  0  0
 13 15  1  0  0  0  0
 15 18  2  0  0  0  0
 16 21  1  0  0  0  0
 17 16  2  0  0  0  0
 17 14  1  0  0  0  0
 18 19  1  0  0  0  0
 18 16  1  0  0  0  0
 21 23  1  0  0  0  0
 21 20  1  1  0  0  0
 22 24  1  0  0  0  0
 23 22  2  0  0  0  0
 25 24  1  6  0  0  0
 25 30  1  0  0  0  0
 26 27  1  6  0  0  0
 26 25  1  0  0  0  0
 28 29  1  0  0  0  0
 29 26  1  0  0  0  0
 31 33  1  0  0  0  0
 33 30  1  0  0  0  0
 33 32  1  0  0  0  0
 34 36  1  0  0  0  0
 36 35  2  0  0  0  0
 37 38  1  0  0  0  0
 38 10  1  0  0  0  0
 39 49  2  0  0  0  0
 39 52  1  0  0  0  0
 40 43  1  0  0  0  0
 40 49  1  0  0  0  0
 41 42  1  0  0  0  0
 41 39  1  0  0  0  0
 42 40  2  0  0  0  0
 43 45  1  0  0  0  0
 44 43  2  0  0  0  0
 45 38  1  6  0  0  0
 45 50  1  0  0  0  0
 46 44  1  0  0  0  0
 47 46  2  0  0  0  0
 47 42  1  0  0  0  0
 48 46  1  0  0  0  0
 49 50  1  0  0  0  0
 51 52  1  0  0  0  0
 51 54  2  0  0  0  0
 52 55  1  0  0  0  0
 53 57  1  6  0  0  0
 54 53  1  0  0  0  0
 55 53  1  0  0  0  0
 57 56  1  0  0  0  0
M  END
>  <MODEL>
1

>  <REMARK>
 VINA RESULT:      -8.1      0.000      0.000
  Name = 
  14 active torsions:
  status: ('A' for Active; 'I' for Inactive)
    1  A    between atoms: C_1  and  N_15
    2  A    between atoms: C_3  and  C_17
    3  A    between atoms: C_7  and  C_9
    4  A    between atoms: O_8  and  C_40
    5  A    between atoms: C_20  and  C_57
    6  A    between atoms: N_25  and  C_44
    7  A    between atoms: N_25  and  C_54
    8  A    between atoms: C_26  and  C_33
    9  A    between atoms: C_28  and  C_50
   10  A    between atoms: C_34  and  C_50
   11  A    between atoms: N_39  and  N_52
   12  A    between atoms: C_40  and  C_48
   13  A    between atoms: C_48  and  N_52
   14  A    between atoms: C_48  and  C_57
                            x       y       z     vdW  Elec       q    Type
                         _______ _______ _______ _____ _____    ______ ____

>  <TORSDO>
F 14

$$$$
=
 OpenBabel10222417343D

 57 63  0  0  1  0  0  0  0  0999 V2000
  193.0070  176.4200  137.2090 C   0  0  0  0  0  0  0  0  0  0  0  0
  190.6320  176.3020  137.7450 C   0  0  0  0  0  0  0  0  0  0  0  0
  191.6740  176.2430  136.8120 C   0  0  0  0  0  3  0  0  0  0  0  0
  191.4680  177.7020  141.6300 C   0  0  0  0  0  3  0  0  0  0  0  0
  192.2650  176.7330  139.4980 C   0  0  0  0  0  0  0  0  0  0  0  0
  189.8410  176.5730  140.1530 C   0  0  0  0  0  2  0  0  0  0  0  0
  190.9270  176.5450  139.1010 C   0  0  0  0  0  0  0  0  0  0  0  0
  192.5900  176.9750  140.9400 C   0  0  0  0  0  2  0  0  0  0  0  0
  193.2940  176.6650  138.5570 C   0  0  0  0  0  3  0  0  0  0  0  0
  190.1850  177.5130  141.2870 C   0  0  0  0  0  0  0  0  0  0  0  0
  188.4260  177.2950  137.2600 C   0  0  0  0  0  3  0  0  0  0  0  0
  189.2470  176.1660  137.2620 C   0  0  0  0  0  0  0  0  0  0  0  0
  186.3090  178.3060  136.8890 F   0  0  0  0  0  0  0  0  0  0  0  0
  189.5800  173.6890  136.9360 C   0  0  0  0  0  1  0  0  0  0  0  0
  187.0950  177.2020  136.8570 C   0  0  0  0  0  0  0  0  0  0  0  0
  187.3690  174.8140  136.4740 C   0  0  0  0  0  0  0  0  0  0  0  0
  188.7220  174.9150  136.8690 C   0  0  0  0  0  0  0  0  0  0  0  0
  186.5620  175.9700  136.4710 C   0  0  0  0  0  0  0  0  0  0  0  0
  185.2560  175.9060  136.1060 F   0  0  0  0  0  0  0  0  0  0  0  0
  186.6140  173.2310  134.6410 C   0  0  0  0  0  1  0  0  0  0  0  0
  186.7950  173.4570  136.1350 C   0  0  2  0  0  3  0  0  0  0  0  0
  184.5370  172.4590  136.4090 C   0  0  0  0  0  3  0  0  0  0  0  0
  185.5600  173.1390  136.9280 C   0  0  0  0  0  3  0  0  0  0  0  0
  183.3230  172.1820  137.2270 C   0  0  0  0  0  2  0  0  0  0  0  0
  182.1090  172.8300  136.5790 C   0  0  2  0  0  3  0  0  0  0  0  0
  181.6860  174.0680  137.3670 C   0  0  1  0  0  3  0  0  0  0  0  0
  182.8030  174.6350  137.9820 O   0  0  0  0  0  1  0  0  0  0  0  0
  181.8650  176.1710  136.6930 C   0  0  0  0  0  1  0  0  0  0  0  0
  181.1160  175.0080  136.5040 O   0  0  0  0  0  0  0  0  0  0  0  0
  181.0160  171.8660  136.5320 N   0  0  0  0  0  2  0  0  0  0  0  0
  179.8330  171.5730  134.5960 C   0  0  0  0  0  1  0  0  0  0  0  0
  181.0420  169.9070  135.5010 O   0  0  0  0  0  1  0  0  0  0  0  0
  181.0710  171.2430  135.2760 N   0  0  0  0  0  0  0  0  0  0  0  0
  195.2460  175.5520  136.4570 N   0  0  0  0  0  1  0  0  0  0  0  0
  194.0180  177.0180  135.1480 O   0  0  0  0  0  0  0  0  0  0  0  0
  194.0930  176.3560  136.2170 C   0  0  0  0  0  0  0  0  0  0  0  0
  188.9940  179.6050  141.9390 C   0  0  0  0  0  1  0  0  0  0  0  0
  189.1330  178.1580  142.0280 N   0  0  0  0  0  0  0  0  0  0  0  0
  184.6240  178.4750  144.2380 C   0  0  0  0  0  0  0  0  0  0  0  0
  186.8180  177.9560  144.5790 C   0  0  0  0  0  0  0  0  0  0  0  0
  184.8450  178.5520  145.9370 S   0  0  0  0  0  0  0  0  0  0  0  0
  186.4840  178.1360  145.8900 C   0  0  0  0  0  0  0  0  0  0  0  0
  188.0380  177.5460  144.1560 C   0  0  0  0  0  0  0  0  0  0  0  0
  189.0330  177.2980  145.1150 C   0  0  0  0  0  3  0  0  0  0  0  0
  188.0830  177.3540  142.6620 C   0  0  1  0  0  3  0  0  0  0  0  0
  188.7270  177.5010  146.4880 C   0  0  0  0  0  0  0  0  0  0  0  0
  187.4300  177.9150  146.8930 C   0  0  0  0  0  3  0  0  0  0  0  0
  189.7700  177.2510  147.5150 C   0  0  0  0  0  1  0  0  0  0  0  0
  185.8480  178.1330  143.6600 C   0  0  0  0  0  0  0  0  0  0  0  0
  186.4010  177.8210  141.9910 S   0  0  0  0  0  0  0  0  0  0  0  0
  183.2450  178.6550  142.1140 C   0  0  0  0  0  3  0  0  0  0  0  0
  183.3740  178.6370  143.5550 N   0  0  0  0  0  0  0  0  0  0  0  0
  181.2160  179.3710  143.0670 C   0  0  2  0  0  3  0  0  0  0  0  0
  181.8610  179.0110  141.8020 N   0  0  0  0  0  0  0  0  0  0  0  0
  182.1430  179.0010  144.2070 C   0  0  0  0  0  2  0  0  0  0  0  0
  179.5760  177.7220  142.0650 C   0  0  0  0  0  1  0  0  0  0  0  0
  179.8540  178.6950  143.2020 C   0  0  0  0  0  2  0  0  0  0  0  0
  1  9  1  0  0  0  0
  2  7  2  0  0  0  0
  3  1  2  0  0  0  0
  3  2  1  0  0  0  0
  5  8  1  0  0  0  0
  6 10  1  0  0  0  0
  7  5  1  0  0  0  0
  7  6  1  0  0  0  0
  8  4  1  0  0  0  0
  9  5  2  0  0  0  0
 10  4  2  0  0  0  0
 10 38  1  0  0  0  0
 11 12  1  0  0  0  0
 12  2  1  0  0  0  0
 15 13  1  0  0  0  0
 15 11  2  0  0  0  0
 16 17  1  0  0  0  0
 17 14  1  0  0  0  0
 17 12  2  0  0  0  0
 18 16  2  0  0  0  0
 18 15  1  0  0  0  0
 19 18  1  0  0  0  0
 21 20  1  6  0  0  0
 21 16  1  0  0  0  0
 21 23  1  0  0  0  0
 22 23  2  0  0  0  0
 22 24  1  0  0  0  0
 25 24  1  1  0  0  0
 25 26  1  0  0  0  0
 26 27  1  6  0  0  0
 29 28  1  0  0  0  0
 29 26  1  0  0  0  0
 30 25  1  0  0  0  0
 31 33  1  0  0  0  0
 33 32  1  0  0  0  0
 33 30  1  0  0  0  0
 35 36  2  0  0  0  0
 36 34  1  0  0  0  0
 36  1  1  0  0  0  0
 37 38  1  0  0  0  0
 39 41  1  0  0  0  0
 40 42  1  0  0  0  0
 42 41  1  0  0  0  0
 42 47  2  0  0  0  0
 43 40  2  0  0  0  0
 43 44  1  0  0  0  0
 44 46  2  0  0  0  0
 45 38  1  6  0  0  0
 45 43  1  0  0  0  0
 46 47  1  0  0  0  0
 46 48  1  0  0  0  0
 49 39  2  0  0  0  0
 49 40  1  0  0  0  0
 50 45  1  0  0  0  0
 50 49  1  0  0  0  0
 51 52  1  0  0  0  0
 52 55  1  0  0  0  0
 52 39  1  0  0  0  0
 53 57  1  1  0  0  0
 53 55  1  0  0  0  0
 54 51  2  0  0  0  0
 54 53  1  0  0  0  0
 56 57  1  0  0  0  0
M  END
>  <MODEL>
2

>  <REMARK>
 VINA RESULT:      -7.9      4.057     11.416
  Name = 
  14 active torsions:
  status: ('A' for Active; 'I' for Inactive)
    1  A    between atoms: C_1  and  N_15
    2  A    between atoms: C_3  and  C_17
    3  A    between atoms: C_7  and  C_9
    4  A    between atoms: O_8  and  C_40
    5  A    between atoms: C_20  and  C_57
    6  A    between atoms: N_25  and  C_44
    7  A    between atoms: N_25  and  C_54
    8  A    between atoms: C_26  and  C_33
    9  A    between atoms: C_28  and  C_50
   10  A    between atoms: C_34  and  C_50
   11  A    between atoms: N_39  and  N_52
   12  A    between atoms: C_40  and  C_48
   13  A    between atoms: C_48  and  N_52
   14  A    between atoms: C_48  and  C_57
                            x       y       z     vdW  Elec       q    Type
                         _______ _______ _______ _____ _____    ______ ____

>  <TORSDO>
F 14

$$$$
=
 OpenBabel10222417343D

 57 63  0  0  1  0  0  0  0  0999 V2000
  192.9410  176.3050  136.8130 C   0  0  0  0  0  0  0  0  0  0  0  0
  190.6820  176.0030  137.6780 C   0  0  0  0  0  0  0  0  0  0  0  0
  191.5960  175.9630  136.6180 C   0  0  0  0  0  3  0  0  0  0  0  0
  191.8540  177.8230  141.2930 C   0  0  0  0  0  3  0  0  0  0  0  0
  192.4700  176.7490  139.1520 C   0  0  0  0  0  0  0  0  0  0  0  0
  190.1830  176.4100  140.1440 C   0  0  0  0  0  2  0  0  0  0  0  0
  191.1220  176.3950  138.9590 C   0  0  0  0  0  0  0  0  0  0  0  0
  192.9500  177.1510  140.5130 C   0  0  0  0  0  2  0  0  0  0  0  0
  193.3710  176.6980  138.0860 C   0  0  0  0  0  3  0  0  0  0  0  0
  190.5650  177.4780  141.1460 C   0  0  0  0  0  0  0  0  0  0  0  0
  188.9070  174.3510  137.2180 C   0  0  0  0  0  3  0  0  0  0  0  0
  189.2700  175.6880  137.4020 C   0  0  0  0  0  0  0  0  0  0  0  0
  187.2690  172.7110  136.7060 F   0  0  0  0  0  0  0  0  0  0  0  0
  188.7030  178.1430  137.3810 C   0  0  0  0  0  1  0  0  0  0  0  0
  187.5920  174.0120  136.9060 C   0  0  0  0  0  0  0  0  0  0  0  0
  186.9710  176.3660  136.9240 C   0  0  0  0  0  0  0  0  0  0  0  0
  188.3020  176.7050  137.2540 C   0  0  0  0  0  0  0  0  0  0  0  0
  186.6260  175.0090  136.7530 C   0  0  0  0  0  0  0  0  0  0  0  0
  185.3590  174.6490  136.4260 F   0  0  0  0  0  0  0  0  0  0  0  0
  185.6160  178.2530  137.9420 C   0  0  0  0  0  1  0  0  0  0  0  0
  185.9620  177.4660  136.6870 C   0  0  2  0  0  3  0  0  0  0  0  0
  183.5100  177.1930  136.3960 C   0  0  0  0  0  3  0  0  0  0  0  0
  184.7480  176.9860  135.9450 C   0  0  0  0  0  3  0  0  0  0  0  0
  182.3350  176.6810  135.6370 C   0  0  0  0  0  2  0  0  0  0  0  0
  181.4440  175.8640  136.5600 C   0  0  2  0  0  3  0  0  0  0  0  0
  181.2090  176.6130  137.8690 C   0  0  1  0  0  3  0  0  0  0  0  0
  180.0680  177.4080  137.7560 O   0  0  0  0  0  1  0  0  0  0  0  0
  179.6710  175.7950  139.2390 C   0  0  0  0  0  1  0  0  0  0  0  0
  181.0250  175.6990  138.9120 O   0  0  0  0  0  0  0  0  0  0  0  0
  182.0740  174.5760  136.8210 N   0  0  0  0  0  2  0  0  0  0  0  0
  180.2390  173.3000  136.3330 C   0  0  0  0  0  1  0  0  0  0  0  0
  182.3270  172.5510  135.9620 O   0  0  0  0  0  1  0  0  0  0  0  0
  181.5670  173.6690  135.8790 N   0  0  0  0  0  0  0  0  0  0  0  0
  195.0710  177.0590  135.7060 N   0  0  0  0  0  1  0  0  0  0  0  0
  193.6660  175.5180  134.6960 O   0  0  0  0  0  0  0  0  0  0  0  0
  193.8910  176.2600  135.6890 C   0  0  0  0  0  0  0  0  0  0  0  0
  189.5220  179.5310  142.1050 C   0  0  0  0  0  1  0  0  0  0  0  0
  189.5530  178.0800  141.9730 N   0  0  0  0  0  0  0  0  0  0  0  0
  184.9030  178.3970  143.8690 C   0  0  0  0  0  0  0  0  0  0  0  0
  187.0510  177.7870  144.3320 C   0  0  0  0  0  0  0  0  0  0  0  0
  185.0000  178.3560  145.5810 S   0  0  0  0  0  0  0  0  0  0  0  0
  186.6260  177.8920  145.6240 C   0  0  0  0  0  0  0  0  0  0  0  0
  188.2880  177.3670  143.9710 C   0  0  0  0  0  0  0  0  0  0  0  0
  189.2020  177.0260  144.9810 C   0  0  0  0  0  3  0  0  0  0  0  0
  188.4380  177.2710  142.4750 C   0  0  1  0  0  3  0  0  0  0  0  0
  188.8010  177.1480  146.3380 C   0  0  0  0  0  0  0  0  0  0  0  0
  187.4900  177.5770  146.6760 C   0  0  0  0  0  3  0  0  0  0  0  0
  189.7580  176.8000  147.4190 C   0  0  0  0  0  1  0  0  0  0  0  0
  186.1570  178.0540  143.3590 C   0  0  0  0  0  0  0  0  0  0  0  0
  186.8230  177.8340  141.7170 S   0  0  0  0  0  0  0  0  0  0  0  0
  182.4480  179.0210  143.7030 C   0  0  0  0  0  3  0  0  0  0  0  0
  183.7120  178.6430  143.1100 N   0  0  0  0  0  0  0  0  0  0  0  0
  182.0900  178.4570  141.4460 C   0  0  2  0  0  3  0  0  0  0  0  0
  181.4440  179.0110  142.6400 N   0  0  0  0  0  0  0  0  0  0  0  0
  183.5790  178.3480  141.7070 C   0  0  0  0  0  2  0  0  0  0  0  0
  183.0570  179.7500  139.4960 C   0  0  0  0  0  1  0  0  0  0  0  0
  181.7900  179.3070  140.2140 C   0  0  0  0  0  2  0  0  0  0  0  0
  1  9  1  0  0  0  0
  2  7  2  0  0  0  0
  3  1  2  0  0  0  0
  3  2  1  0  0  0  0
  5  8  1  0  0  0  0
  6 10  1  0  0  0  0
  7  5  1  0  0  0  0
  7  6  1  0  0  0  0
  8  4  1  0  0  0  0
  9  5  2  0  0  0  0
 10  4  2  0  0  0  0
 10 38  1  0  0  0  0
 11 12  1  0  0  0  0
 12  2  1  0  0  0  0
 13 15  1  0  0  0  0
 15 11  2  0  0  0  0
 16 17  1  0  0  0  0
 17 14  1  0  0  0  0
 17 12  2  0  0  0  0
 18 15  1  0  0  0  0
 18 16  2  0  0  0  0
 19 18  1  0  0  0  0
 21 16  1  0  0  0  0
 21 20  1  1  0  0  0
 23 22  2  0  0  0  0
 23 21  1  0  0  0  0
 24 22  1  0  0  0  0
 25 24  1  6  0  0  0
 25 30  1  0  0  0  0
 25 26  1  0  0  0  0
 26 27  1  6  0  0  0
 26 29  1  0  0  0  0
 29 28  1  0  0  0  0
 33 32  1  0  0  0  0
 33 31  1  0  0  0  0
 33 30  1  0  0  0  0
 35 36  2  0  0  0  0
 36 34  1  0  0  0  0
 36  1  1  0  0  0  0
 38 37  1  0  0  0  0
 39 41  1  0  0  0  0
 40 42  1  0  0  0  0
 41 42  1  0  0  0  0
 42 47  2  0  0  0  0
 43 40  2  0  0  0  0
 43 44  1  0  0  0  0
 44 46  2  0  0  0  0
 45 38  1  6  0  0  0
 45 43  1  0  0  0  0
 46 47  1  0  0  0  0
 46 48  1  0  0  0  0
 49 39  2  0  0  0  0
 49 40  1  0  0  0  0
 50 45  1  0  0  0  0
 50 49  1  0  0  0  0
 52 51  1  0  0  0  0
 52 39  1  0  0  0  0
 53 57  1  6  0  0  0
 53 55  1  0  0  0  0
 53 54  1  0  0  0  0
 54 51  2  0  0  0  0
 55 52  1  0  0  0  0
 56 57  1  0  0  0  0
M  END
>  <MODEL>
3

>  <REMARK>
 VINA RESULT:      -7.7      4.114     10.964
  Name = 
  14 active torsions:
  status: ('A' for Active; 'I' for Inactive)
    1  A    between atoms: C_1  and  N_15
    2  A    between atoms: C_3  and  C_17
    3  A    between atoms: C_7  and  C_9
    4  A    between atoms: O_8  and  C_40
    5  A    between atoms: C_20  and  C_57
    6  A    between atoms: N_25  and  C_44
    7  A    between atoms: N_25  and  C_54
    8  A    between atoms: C_26  and  C_33
    9  A    between atoms: C_28  and  C_50
   10  A    between atoms: C_34  and  C_50
   11  A    between atoms: N_39  and  N_52
   12  A    between atoms: C_40  and  C_48
   13  A    between atoms: C_48  and  N_52
   14  A    between atoms: C_48  and  C_57
                            x       y       z     vdW  Elec       q    Type
                         _______ _______ _______ _____ _____    ______ ____

>  <TORSDO>
F 14

$$$$
=
 OpenBabel10222417343D

 57 63  0  0  1  0  0  0  0  0999 V2000
  186.0450  178.8250  146.2700 C   0  0  0  0  0  0  0  0  0  0  0  0
  186.5880  177.9060  144.0790 C   0  0  0  0  0  0  0  0  0  0  0  0
  186.9760  178.2910  145.3680 C   0  0  0  0  0  3  0  0  0  0  0  0
  182.7630  179.0080  142.6990 C   0  0  0  0  0  3  0  0  0  0  0  0
  184.3130  178.6070  144.5850 C   0  0  0  0  0  0  0  0  0  0  0  0
  184.7690  177.6170  142.3170 C   0  0  0  0  0  2  0  0  0  0  0  0
  185.2450  178.0600  143.6820 C   0  0  0  0  0  0  0  0  0  0  0  0
  182.8800  178.7590  144.1780 C   0  0  0  0  0  2  0  0  0  0  0  0
  184.7120  178.9800  145.8690 C   0  0  0  0  0  3  0  0  0  0  0  0
  183.6230  178.4710  141.8200 C   0  0  0  0  0  0  0  0  0  0  0  0
  188.4410  176.3540  143.5760 C   0  0  0  0  0  3  0  0  0  0  0  0
  187.6210  177.4040  143.1550 C   0  0  0  0  0  0  0  0  0  0  0  0
  190.2620  174.8790  143.1940 F   0  0  0  0  0  0  0  0  0  0  0  0
  187.0060  179.1750  141.4710 C   0  0  0  0  0  1  0  0  0  0  0  0
  189.4610  175.8820  142.7540 C   0  0  0  0  0  0  0  0  0  0  0  0
  188.8810  177.5360  141.0650 C   0  0  0  0  0  0  0  0  0  0  0  0
  187.8380  178.0040  141.8950 C   0  0  0  0  0  0  0  0  0  0  0  0
  189.6900  176.4680  141.5070 C   0  0  0  0  0  0  0  0  0  0  0  0
  190.7060  176.0010  140.7380 F   0  0  0  0  0  0  0  0  0  0  0  0
  187.9870  178.1950  138.7850 C   0  0  0  0  0  1  0  0  0  0  0  0
  189.1580  178.2380  139.7550 C   0  0  2  0  0  3  0  0  0  0  0  0
  190.4950  177.1500  137.9670 C   0  0  0  0  0  3  0  0  0  0  0  0
  190.4510  177.8020  139.1290 C   0  0  0  0  0  3  0  0  0  0  0  0
  191.8000  176.7190  137.3910 C   0  0  0  0  0  2  0  0  0  0  0  0
  191.6340  175.3830  136.6840 C   0  0  2  0  0  3  0  0  0  0  0  0
  190.1690  174.9520  136.7030 C   0  0  1  0  0  3  0  0  0  0  0  0
  189.6930  174.8550  135.3950 O   0  0  0  0  0  1  0  0  0  0  0  0
  189.0960  173.0180  136.5700 C   0  0  0  0  0  1  0  0  0  0  0  0
  190.0480  173.7060  137.3260 O   0  0  0  0  0  0  0  0  0  0  0  0
  192.4620  174.3810  137.3450 N   0  0  0  0  0  2  0  0  0  0  0  0
  193.5540  172.6090  136.3970 C   0  0  0  0  0  1  0  0  0  0  0  0
  194.6540  174.4590  137.0460 O   0  0  0  0  0  1  0  0  0  0  0  0
  193.5010  174.0570  136.4600 N   0  0  0  0  0  0  0  0  0  0  0  0
  187.3270  178.3900  148.3910 N   0  0  0  0  0  1  0  0  0  0  0  0
  186.0620  180.3120  148.1190 O   0  0  0  0  0  0  0  0  0  0  0  0
  186.4660  179.2260  147.6230 C   0  0  0  0  0  0  0  0  0  0  0  0
  184.5230  179.1960  139.6100 C   0  0  0  0  0  1  0  0  0  0  0  0
  183.4280  178.6580  140.4070 N   0  0  0  0  0  0  0  0  0  0  0  0
  181.8960  176.3230  136.2210 C   0  0  0  0  0  0  0  0  0  0  0  0
  181.7190  178.2440  137.4380 C   0  0  0  0  0  0  0  0  0  0  0  0
  181.2880  177.4940  135.1260 S   0  0  0  0  0  0  0  0  0  0  0  0
  181.2590  178.7520  136.2580 C   0  0  0  0  0  0  0  0  0  0  0  0
  181.7730  178.9450  138.5960 C   0  0  0  0  0  0  0  0  0  0  0  0
  181.3420  180.2810  138.5930 C   0  0  0  0  0  3  0  0  0  0  0  0
  182.2440  178.0960  139.7480 C   0  0  1  0  0  3  0  0  0  0  0  0
  180.8800  180.8490  137.3750 C   0  0  0  0  0  0  0  0  0  0  0  0
  180.8230  180.0770  136.1850 C   0  0  0  0  0  3  0  0  0  0  0  0
  180.4270  182.2640  137.3520 C   0  0  0  0  0  1  0  0  0  0  0  0
  182.0760  176.9440  137.4590 C   0  0  0  0  0  0  0  0  0  0  0  0
  182.6150  176.3930  139.0700 S   0  0  0  0  0  0  0  0  0  0  0  0
  182.9310  174.4460  134.8610 C   0  0  0  0  0  3  0  0  0  0  0  0
  182.0860  174.9330  135.9300 N   0  0  0  0  0  0  0  0  0  0  0  0
  181.6350  172.6590  135.6780 C   0  0  2  0  0  3  0  0  0  0  0  0
  182.7320  173.0000  134.7690 N   0  0  0  0  0  0  0  0  0  0  0  0
  181.3110  173.8750  136.5240 C   0  0  0  0  0  2  0  0  0  0  0  0
  183.3900  171.5430  137.1220 C   0  0  0  0  0  1  0  0  0  0  0  0
  181.9870  171.4480  136.5380 C   0  0  0  0  0  2  0  0  0  0  0  0
  1 36  1  0  0  0  0
  2  3  1  0  0  0  0
  3  1  2  0  0  0  0
  4  8  1  0  0  0  0
  5  9  2  0  0  0  0
  6  7  1  0  0  0  0
  7  2  2  0  0  0  0
  7  5  1  0  0  0  0
  8  5  1  0  0  0  0
  9  1  1  0  0  0  0
 10  6  1  0  0  0  0
 10  4  2  0  0  0  0
 12 11  1  0  0  0  0
 12  2  1  0  0  0  0
 14 17  1  0  0  0  0
 15 13  1  0  0  0  0
 15 11  2  0  0  0  0
 16 18  2  0  0  0  0
 16 17  1  0  0  0  0
 17 12  2  0  0  0  0
 18 15  1  0  0  0  0
 19 18  1  0  0  0  0
 21 20  1  6  0  0  0
 21 16  1  0  0  0  0
 22 23  2  0  0  0  0
 23 21  1  0  0  0  0
 24 22  1  0  0  0  0
 25 26  1  0  0  0  0
 25 30  1  0  0  0  0
 25 24  1  1  0  0  0
 26 27  1  6  0  0  0
 26 29  1  0  0  0  0
 28 29  1  0  0  0  0
 31 33  1  0  0  0  0
 33 32  1  0  0  0  0
 33 30  1  0  0  0  0
 36 35  2  0  0  0  0
 36 34  1  0  0  0  0
 37 38  1  0  0  0  0
 38 10  1  0  0  0  0
 39 49  2  0  0  0  0
 40 49  1  0  0  0  0
 40 43  1  0  0  0  0
 41 39  1  0  0  0  0
 41 42  1  0  0  0  0
 42 40  2  0  0  0  0
 43 45  1  0  0  0  0
 44 43  2  0  0  0  0
 45 38  1  6  0  0  0
 46 44  1  0  0  0  0
 47 42  1  0  0  0  0
 47 46  2  0  0  0  0
 48 46  1  0  0  0  0
 49 50  1  0  0  0  0
 50 45  1  0  0  0  0
 51 52  1  0  0  0  0
 52 39  1  0  0  0  0
 52 55  1  0  0  0  0
 53 55  1  0  0  0  0
 53 57  1  1  0  0  0
 54 51  2  0  0  0  0
 54 53  1  0  0  0  0
 57 56  1  0  0  0  0
M  END
>  <MODEL>
4

>  <REMARK>
 VINA RESULT:      -7.7      3.246      8.359
  Name = 
  14 active torsions:
  status: ('A' for Active; 'I' for Inactive)
    1  A    between atoms: C_1  and  N_15
    2  A    between atoms: C_3  and  C_17
    3  A    between atoms: C_7  and  C_9
    4  A    between atoms: O_8  and  C_40
    5  A    between atoms: C_20  and  C_57
    6  A    between atoms: N_25  and  C_44
    7  A    between atoms: N_25  and  C_54
    8  A    between atoms: C_26  and  C_33
    9  A    between atoms: C_28  and  C_50
   10  A    between atoms: C_34  and  C_50
   11  A    between atoms: N_39  and  N_52
   12  A    between atoms: C_40  and  C_48
   13  A    between atoms: C_48  and  N_52
   14  A    between atoms: C_48  and  C_57
                            x       y       z     vdW  Elec       q    Type
                         _______ _______ _______ _____ _____    ______ ____

>  <TORSDO>
F 14

$$$$
=
 OpenBabel10222417343D

 57 63  0  0  1  0  0  0  0  0999 V2000
  187.5190  178.2540  139.3520 C   0  0  0  0  0  0  0  0  0  0  0  0
  185.5640  178.3610  140.8050 C   0  0  0  0  0  0  0  0  0  0  0  0
  186.9500  178.4320  140.6210 C   0  0  0  0  0  3  0  0  0  0  0  0
  183.1730  176.9260  137.6470 C   0  0  0  0  0  3  0  0  0  0  0  0
  185.3010  177.9170  138.4260 C   0  0  0  0  0  0  0  0  0  0  0  0
  183.2240  178.0660  139.8380 C   0  0  0  0  0  2  0  0  0  0  0  0
  184.7300  178.1060  139.6980 C   0  0  0  0  0  0  0  0  0  0  0  0
  184.4210  177.6620  137.2420 C   0  0  0  0  0  2  0  0  0  0  0  0
  186.6850  177.9960  138.2570 C   0  0  0  0  0  3  0  0  0  0  0  0
  182.5950  177.1160  138.8430 C   0  0  0  0  0  0  0  0  0  0  0  0
  183.8020  179.1450  142.3440 C   0  0  0  0  0  3  0  0  0  0  0  0
  185.0280  178.4990  142.1700 C   0  0  0  0  0  0  0  0  0  0  0  0
  182.1020  179.9950  143.7680 F   0  0  0  0  0  0  0  0  0  0  0  0
  187.1010  177.4250  143.1170 C   0  0  0  0  0  1  0  0  0  0  0  0
  183.2810  179.3410  143.6220 C   0  0  0  0  0  0  0  0  0  0  0  0
  185.2360  178.2650  144.5940 C   0  0  0  0  0  0  0  0  0  0  0  0
  185.7550  178.0550  143.2960 C   0  0  0  0  0  0  0  0  0  0  0  0
  183.9920  178.9110  144.7450 C   0  0  0  0  0  0  0  0  0  0  0  0
  183.4700  179.1370  145.9770 F   0  0  0  0  0  0  0  0  0  0  0  0
  186.2500  178.9840  146.8050 C   0  0  0  0  0  1  0  0  0  0  0  0
  186.0590  177.8610  145.7960 C   0  0  2  0  0  3  0  0  0  0  0  0
  188.4470  177.2840  146.1650 C   0  0  0  0  0  3  0  0  0  0  0  0
  187.3490  177.1930  145.4140 C   0  0  0  0  0  3  0  0  0  0  0  0
  189.7110  176.6210  145.7380 C   0  0  0  0  0  2  0  0  0  0  0  0
  190.8160  177.6570  145.6060 C   0  0  2  0  0  3  0  0  0  0  0  0
  191.0030  178.0480  144.1420 C   0  0  1  0  0  3  0  0  0  0  0  0
  191.9120  179.1030  144.0520 O   0  0  0  0  0  1  0  0  0  0  0  0
  191.9700  177.5050  142.2230 C   0  0  0  0  0  1  0  0  0  0  0  0
  191.4980  176.9580  143.4190 O   0  0  0  0  0  0  0  0  0  0  0  0
  192.0560  177.1100  146.1440 N   0  0  0  0  0  2  0  0  0  0  0  0
  192.2650  176.6330  148.3710 C   0  0  0  0  0  1  0  0  0  0  0  0
  192.3510  175.0200  146.8080 O   0  0  0  0  0  1  0  0  0  0  0  0
  191.7010  176.1660  147.1190 N   0  0  0  0  0  0  0  0  0  0  0  0
  189.8540  177.6480  140.0680 N   0  0  0  0  0  1  0  0  0  0  0  0
  189.4700  179.0040  138.2290 O   0  0  0  0  0  0  0  0  0  0  0  0
  188.9790  178.3290  139.1730 C   0  0  0  0  0  0  0  0  0  0  0  0
  181.3880  175.1090  139.7010 C   0  0  0  0  0  1  0  0  0  0  0  0
  181.3540  176.4610  139.1610 N   0  0  0  0  0  0  0  0  0  0  0  0
  179.4990  181.1210  138.7530 C   0  0  0  0  0  0  0  0  0  0  0  0
  179.7640  179.3530  140.1700 C   0  0  0  0  0  0  0  0  0  0  0  0
  179.2800  181.7690  140.3260 S   0  0  0  0  0  0  0  0  0  0  0  0
  179.5180  180.2960  141.1240 C   0  0  0  0  0  0  0  0  0  0  0  0
  179.9350  178.0350  140.4300 C   0  0  0  0  0  0  0  0  0  0  0  0
  179.8680  177.6000  141.7640 C   0  0  0  0  0  3  0  0  0  0  0  0
  180.1020  177.2260  139.1700 C   0  0  1  0  0  3  0  0  0  0  0  0
  179.6400  178.5600  142.7870 C   0  0  0  0  0  0  0  0  0  0  0  0
  179.4490  179.9320  142.4710 C   0  0  0  0  0  3  0  0  0  0  0  0
  179.5750  178.1190  144.2040 C   0  0  0  0  0  1  0  0  0  0  0  0
  179.7670  179.7560  138.8830 C   0  0  0  0  0  0  0  0  0  0  0  0
  180.0510  178.4210  137.7320 S   0  0  0  0  0  0  0  0  0  0  0  0
  178.9310  181.2280  136.2810 C   0  0  0  0  0  3  0  0  0  0  0  0
  179.3340  181.8440  137.5270 N   0  0  0  0  0  0  0  0  0  0  0  0
  179.6770  183.4160  135.8390 C   0  0  2  0  0  3  0  0  0  0  0  0
  179.0410  182.2420  135.2340 N   0  0  0  0  0  0  0  0  0  0  0  0
  179.7410  183.2120  137.3400 C   0  0  0  0  0  2  0  0  0  0  0  0
  178.9950  185.7400  136.5780 C   0  0  0  0  0  1  0  0  0  0  0  0
  178.9330  184.6960  135.4710 C   0  0  0  0  0  2  0  0  0  0  0  0
  1  3  1  0  0  0  0
  2 12  1  0  0  0  0
  3  2  2  0  0  0  0
  4 10  2  0  0  0  0
  5  7  2  0  0  0  0
  7  6  1  0  0  0  0
  7  2  1  0  0  0  0
  8  4  1  0  0  0  0
  8  5  1  0  0  0  0
  9  5  1  0  0  0  0
  9  1  2  0  0  0  0
 10 38  1  0  0  0  0
 10  6  1  0  0  0  0
 11 15  1  0  0  0  0
 12 11  2  0  0  0  0
 12 17  1  0  0  0  0
 14 17  1  0  0  0  0
 15 13  1  0  0  0  0
 15 18  2  0  0  0  0
 16 18  1  0  0  0  0
 16 21  1  0  0  0  0
 17 16  2  0  0  0  0
 18 19  1  0  0  0  0
 21 20  1  6  0  0  0
 23 21  1  0  0  0  0
 23 22  2  0  0  0  0
 24 22  1  0  0  0  0
 25 24  1  6  0  0  0
 25 30  1  0  0  0  0
 26 27  1  1  0  0  0
 26 25  1  0  0  0  0
 28 29  1  0  0  0  0
 29 26  1  0  0  0  0
 30 33  1  0  0  0  0
 32 33  1  0  0  0  0
 33 31  1  0  0  0  0
 35 36  2  0  0  0  0
 36  1  1  0  0  0  0
 36 34  1  0  0  0  0
 38 37  1  0  0  0  0
 39 49  2  0  0  0  0
 39 41  1  0  0  0  0
 40 43  2  0  0  0  0
 40 42  1  0  0  0  0
 41 42  1  0  0  0  0
 42 47  2  0  0  0  0
 43 44  1  0  0  0  0
 44 46  2  0  0  0  0
 45 38  1  1  0  0  0
 45 43  1  0  0  0  0
 46 48  1  0  0  0  0
 47 46  1  0  0  0  0
 49 40  1  0  0  0  0
 50 49  1  0  0  0  0
 50 45  1  0  0  0  0
 51 52  1  0  0  0  0
 52 39  1  0  0  0  0
 53 57  1  1  0  0  0
 53 55  1  0  0  0  0
 54 53  1  0  0  0  0
 54 51  2  0  0  0  0
 55 52  1  0  0  0  0
 57 56  1  0  0  0  0
M  END
>  <MODEL>
5

>  <REMARK>
 VINA RESULT:      -7.7      4.178      8.291
  Name = 
  14 active torsions:
  status: ('A' for Active; 'I' for Inactive)
    1  A    between atoms: C_1  and  N_15
    2  A    between atoms: C_3  and  C_17
    3  A    between atoms: C_7  and  C_9
    4  A    between atoms: O_8  and  C_40
    5  A    between atoms: C_20  and  C_57
    6  A    between atoms: N_25  and  C_44
    7  A    between atoms: N_25  and  C_54
    8  A    between atoms: C_26  and  C_33
    9  A    between atoms: C_28  and  C_50
   10  A    between atoms: C_34  and  C_50
   11  A    between atoms: N_39  and  N_52
   12  A    between atoms: C_40  and  C_48
   13  A    between atoms: C_48  and  N_52
   14  A    between atoms: C_48  and  C_57
                            x       y       z     vdW  Elec       q    Type
                         _______ _______ _______ _____ _____    ______ ____

>  <TORSDO>
F 14

$$$$
=
 OpenBabel10222417343D

 57 63  0  0  1  0  0  0  0  0999 V2000
  181.4950  179.2000  137.0670 C   0  0  0  0  0  0  0  0  0  0  0  0
  183.2340  178.2130  138.4610 C   0  0  0  0  0  0  0  0  0  0  0  0
  182.3880  179.2830  138.1440 C   0  0  0  0  0  3  0  0  0  0  0  0
  183.5630  175.0150  135.7380 C   0  0  0  0  0  3  0  0  0  0  0  0
  182.2970  176.9580  136.5980 C   0  0  0  0  0  0  0  0  0  0  0  0
  184.0480  175.8390  138.0160 C   0  0  0  0  0  2  0  0  0  0  0  0
  183.1870  177.0380  137.6850 C   0  0  0  0  0  0  0  0  0  0  0  0
  182.2280  175.7070  135.7780 C   0  0  0  0  0  2  0  0  0  0  0  0
  181.4550  178.0310  136.2970 C   0  0  0  0  0  3  0  0  0  0  0  0
  184.4130  175.0530  136.7760 C   0  0  0  0  0  0  0  0  0  0  0  0
  185.5520  178.4770  139.2640 C   0  0  0  0  0  3  0  0  0  0  0  0
  184.1920  178.3790  139.5670 C   0  0  0  0  0  0  0  0  0  0  0  0
  187.8140  178.6520  139.9650 F   0  0  0  0  0  0  0  0  0  0  0  0
  182.3210  178.1980  141.2450 C   0  0  0  0  0  1  0  0  0  0  0  0
  186.4970  178.5850  140.2820 C   0  0  0  0  0  0  0  0  0  0  0  0
  184.7290  178.4690  141.9500 C   0  0  0  0  0  0  0  0  0  0  0  0
  183.7710  178.3730  140.9150 C   0  0  0  0  0  0  0  0  0  0  0  0
  186.0960  178.5760  141.6200 C   0  0  0  0  0  0  0  0  0  0  0  0
  187.0410  178.6600  142.5900 F   0  0  0  0  0  0  0  0  0  0  0  0
  183.0090  179.1690  143.6780 C   0  0  0  0  0  1  0  0  0  0  0  0
  184.2760  178.3780  143.3900 C   0  0  2  0  0  3  0  0  0  0  0  0
  185.9290  177.7250  145.1250 C   0  0  0  0  0  3  0  0  0  0  0  0
  185.3820  178.6720  144.3620 C   0  0  0  0  0  3  0  0  0  0  0  0
  187.0120  178.0650  146.0900 C   0  0  0  0  0  2  0  0  0  0  0  0
  188.2790  177.3050  145.7300 C   0  0  2  0  0  3  0  0  0  0  0  0
  189.3620  177.5540  146.7780 C   0  0  1  0  0  3  0  0  0  0  0  0
  188.8030  178.1940  147.8850 O   0  0  0  0  0  1  0  0  0  0  0  0
  191.2600  176.6200  147.4370 C   0  0  0  0  0  1  0  0  0  0  0  0
  189.9160  176.3370  147.1870 O   0  0  0  0  0  0  0  0  0  0  0  0
  188.7410  177.7340  144.4160 N   0  0  0  0  0  2  0  0  0  0  0  0
  190.7160  177.7080  143.2610 C   0  0  0  0  0  1  0  0  0  0  0  0
  189.3200  175.9460  143.2460 O   0  0  0  0  0  1  0  0  0  0  0  0
  189.8160  176.9030  144.0660 N   0  0  0  0  0  0  0  0  0  0  0  0
  179.9820  180.4180  135.4680 N   0  0  0  0  0  1  0  0  0  0  0  0
  180.4080  181.2430  137.5900 O   0  0  0  0  0  0  0  0  0  0  0  0
  180.6110  180.3330  136.7430 C   0  0  0  0  0  0  0  0  0  0  0  0
  185.7710  173.1170  137.5660 C   0  0  0  0  0  1  0  0  0  0  0  0
  185.6420  174.3070  136.7360 N   0  0  0  0  0  0  0  0  0  0  0  0
  190.5810  174.1480  135.7870 C   0  0  0  0  0  0  0  0  0  0  0  0
  188.7950  175.5390  136.0660 C   0  0  0  0  0  0  0  0  0  0  0  0
  191.2580  175.6880  136.1230 S   0  0  0  0  0  0  0  0  0  0  0  0
  189.7680  176.4740  136.2710 C   0  0  0  0  0  0  0  0  0  0  0  0
  187.4690  175.8150  136.0390 C   0  0  0  0  0  0  0  0  0  0  0  0
  187.0560  177.1420  136.2440 C   0  0  0  0  0  3  0  0  0  0  0  0
  186.6450  174.5990  135.7060 C   0  0  1  0  0  3  0  0  0  0  0  0
  188.0410  178.1370  136.4860 C   0  0  0  0  0  0  0  0  0  0  0  0
  189.4230  177.8090  136.4900 C   0  0  0  0  0  3  0  0  0  0  0  0
  187.6210  179.5430  136.7130 C   0  0  0  0  0  1  0  0  0  0  0  0
  189.1910  174.2760  135.8070 C   0  0  0  0  0  0  0  0  0  0  0  0
  187.8270  173.1630  135.5110 S   0  0  0  0  0  0  0  0  0  0  0  0
  190.8150  171.9200  134.5940 C   0  0  0  0  0  3  0  0  0  0  0  0
  191.3240  172.9700  135.4490 N   0  0  0  0  0  0  0  0  0  0  0  0
  192.7810  171.1600  135.6410 C   0  0  2  0  0  3  0  0  0  0  0  0
  191.7800  170.8220  134.6250 N   0  0  0  0  0  0  0  0  0  0  0  0
  192.5670  172.5970  136.0720 C   0  0  0  0  0  2  0  0  0  0  0  0
  195.2540  171.1700  136.1850 C   0  0  0  0  0  1  0  0  0  0  0  0
  194.1960  170.9290  135.1170 C   0  0  0  0  0  2  0  0  0  0  0  0
  1  3  1  0  0  0  0
  2 12  1  0  0  0  0
  3  2  2  0  0  0  0
  4  8  1  0  0  0  0
  4 10  2  0  0  0  0
  5  7  2  0  0  0  0
  7  6  1  0  0  0  0
  7  2  1  0  0  0  0
  8  5  1  0  0  0  0
  9  5  1  0  0  0  0
  9  1  2  0  0  0  0
 10  6  1  0  0  0  0
 11 12  2  0  0  0  0
 11 15  1  0  0  0  0
 12 17  1  0  0  0  0
 13 15  1  0  0  0  0
 15 18  2  0  0  0  0
 16 21  1  0  0  0  0
 17 14  1  0  0  0  0
 17 16  2  0  0  0  0
 18 16  1  0  0  0  0
 18 19  1  0  0  0  0
 21 20  1  6  0  0  0
 21 23  1  0  0  0  0
 22 24  1  0  0  0  0
 23 22  2  0  0  0  0
 25 24  1  1  0  0  0
 25 26  1  0  0  0  0
 26 29  1  0  0  0  0
 26 27  1  1  0  0  0
 29 28  1  0  0  0  0
 30 25  1  0  0  0  0
 31 33  1  0  0  0  0
 32 33  1  0  0  0  0
 33 30  1  0  0  0  0
 34 36  1  0  0  0  0
 36  1  1  0  0  0  0
 36 35  2  0  0  0  0
 38 10  1  0  0  0  0
 38 37  1  0  0  0  0
 39 49  2  0  0  0  0
 39 41  1  0  0  0  0
 40 42  1  0  0  0  0
 41 42  1  0  0  0  0
 42 47  2  0  0  0  0
 43 40  2  0  0  0  0
 43 44  1  0  0  0  0
 44 46  2  0  0  0  0
 45 43  1  0  0  0  0
 45 38  1  1  0  0  0
 46 47  1  0  0  0  0
 46 48  1  0  0  0  0
 49 40  1  0  0  0  0
 50 45  1  0  0  0  0
 50 49  1  0  0  0  0
 51 54  2  0  0  0  0
 51 52  1  0  0  0  0
 52 39  1  0  0  0  0
 52 55  1  0  0  0  0
 53 57  1  6  0  0  0
 53 55  1  0  0  0  0
 54 53  1  0  0  0  0
 57 56  1  0  0  0  0
M  END
>  <MODEL>
6

>  <REMARK>
 VINA RESULT:      -7.6      2.034      3.506
  Name = 
  14 active torsions:
  status: ('A' for Active; 'I' for Inactive)
    1  A    between atoms: C_1  and  N_15
    2  A    between atoms: C_3  and  C_17
    3  A    between atoms: C_7  and  C_9
    4  A    between atoms: O_8  and  C_40
    5  A    between atoms: C_20  and  C_57
    6  A    between atoms: N_25  and  C_44
    7  A    between atoms: N_25  and  C_54
    8  A    between atoms: C_26  and  C_33
    9  A    between atoms: C_28  and  C_50
   10  A    between atoms: C_34  and  C_50
   11  A    between atoms: N_39  and  N_52
   12  A    between atoms: C_40  and  C_48
   13  A    between atoms: C_48  and  N_52
   14  A    between atoms: C_48  and  C_57
                            x       y       z     vdW  Elec       q    Type
                         _______ _______ _______ _____ _____    ______ ____

>  <TORSDO>
F 14

$$$$
=
 OpenBabel10222417343D

 57 63  0  0  1  0  0  0  0  0999 V2000
  192.8910  176.3120  136.8110 C   0  0  0  0  0  0  0  0  0  0  0  0
  190.6430  176.0400  137.7150 C   0  0  0  0  0  0  0  0  0  0  0  0
  191.5350  176.0020  136.6360 C   0  0  0  0  0  3  0  0  0  0  0  0
  191.9240  177.7590  141.3420 C   0  0  0  0  0  3  0  0  0  0  0  0
  192.4750  176.7170  139.1670 C   0  0  0  0  0  0  0  0  0  0  0  0
  190.2010  176.4070  140.1980 C   0  0  0  0  0  2  0  0  0  0  0  0
  191.1160  176.3960  138.9940 C   0  0  0  0  0  0  0  0  0  0  0  0
  192.9900  177.0800  140.5260 C   0  0  0  0  0  2  0  0  0  0  0  0
  193.3540  176.6690  138.0840 C   0  0  0  0  0  3  0  0  0  0  0  0
  190.6250  177.4460  141.2130 C   0  0  0  0  0  0  0  0  0  0  0  0
  188.8330  174.4460  137.1920 C   0  0  0  0  0  3  0  0  0  0  0  0
  189.2190  175.7620  137.4600 C   0  0  0  0  0  0  0  0  0  0  0  0
  187.1580  172.8650  136.6140 F   0  0  0  0  0  0  0  0  0  0  0  0
  188.6840  178.2180  137.6330 C   0  0  0  0  0  1  0  0  0  0  0  0
  187.5050  174.1450  136.8970 C   0  0  0  0  0  0  0  0  0  0  0  0
  186.9160  176.4980  137.1030 C   0  0  0  0  0  0  0  0  0  0  0  0
  188.2610  176.7980  137.4150 C   0  0  0  0  0  0  0  0  0  0  0  0
  186.5480  175.1610  136.8450 C   0  0  0  0  0  0  0  0  0  0  0  0
  185.2670  174.8400  136.5330 F   0  0  0  0  0  0  0  0  0  0  0  0
  185.9810  178.6250  138.1200 C   0  0  0  0  0  1  0  0  0  0  0  0
  185.9150  177.6230  136.9760 C   0  0  2  0  0  3  0  0  0  0  0  0
  183.4930  177.4480  137.4990 C   0  0  0  0  0  3  0  0  0  0  0  0
  184.5220  177.1300  136.7130 C   0  0  0  0  0  3  0  0  0  0  0  0
  182.1300  176.9200  137.2100 C   0  0  0  0  0  2  0  0  0  0  0  0
  181.1000  177.6810  138.0300 C   0  0  2  0  0  3  0  0  0  0  0  0
  180.0790  176.7140  138.6270 C   0  0  1  0  0  3  0  0  0  0  0  0
  179.8640  175.6570  137.7430 O   0  0  0  0  0  1  0  0  0  0  0  0
  180.3140  174.8320  139.7730 C   0  0  0  0  0  1  0  0  0  0  0  0
  180.5600  176.2060  139.8380 O   0  0  0  0  0  0  0  0  0  0  0  0
  180.4310  178.6560  137.1780 N   0  0  0  0  0  2  0  0  0  0  0  0
  179.2940  180.4420  138.0440 C   0  0  0  0  0  1  0  0  0  0  0  0
  181.1600  180.7160  136.8200 O   0  0  0  0  0  1  0  0  0  0  0  0
  180.6170  179.9150  137.7680 N   0  0  0  0  0  0  0  0  0  0  0  0
  195.0480  176.9870  135.7060 N   0  0  0  0  0  1  0  0  0  0  0  0
  193.5290  175.6010  134.6390 O   0  0  0  0  0  0  0  0  0  0  0  0
  193.8180  176.2690  135.6680 C   0  0  0  0  0  0  0  0  0  0  0  0
  189.5340  179.5040  142.1020 C   0  0  0  0  0  1  0  0  0  0  0  0
  189.6430  178.0520  142.0730 N   0  0  0  0  0  0  0  0  0  0  0  0
  185.2770  178.2860  144.5620 C   0  0  0  0  0  0  0  0  0  0  0  0
  187.4790  177.7190  144.7390 C   0  0  0  0  0  0  0  0  0  0  0  0
  185.5990  178.2520  146.2470 S   0  0  0  0  0  0  0  0  0  0  0  0
  187.2260  177.8190  146.0760 C   0  0  0  0  0  0  0  0  0  0  0  0
  188.6660  177.3210  144.2190 C   0  0  0  0  0  0  0  0  0  0  0  0
  189.7120  177.0010  145.1000 C   0  0  0  0  0  3  0  0  0  0  0  0
  188.6190  177.2230  142.7170 C   0  0  1  0  0  3  0  0  0  0  0  0
  189.4900  177.1200  146.4990 C   0  0  0  0  0  0  0  0  0  0  0  0
  188.2260  177.5240  147.0060 C   0  0  0  0  0  3  0  0  0  0  0  0
  190.5870  176.7930  147.4450 C   0  0  0  0  0  1  0  0  0  0  0  0
  186.4600  177.9650  143.8920 C   0  0  0  0  0  0  0  0  0  0  0  0
  186.9090  177.7530  142.1770 S   0  0  0  0  0  0  0  0  0  0  0  0
  183.7800  178.6190  142.5400 C   0  0  0  0  0  3  0  0  0  0  0  0
  183.9930  178.5060  143.9670 N   0  0  0  0  0  0  0  0  0  0  0  0
  181.8210  179.2940  143.6560 C   0  0  2  0  0  3  0  0  0  0  0  0
  182.3860  179.0090  142.3340 N   0  0  0  0  0  0  0  0  0  0  0  0
  182.8080  178.8400  144.7130 C   0  0  0  0  0  2  0  0  0  0  0  0
  179.7960  178.3140  142.4930 C   0  0  0  0  0  1  0  0  0  0  0  0
  180.4590  178.6260  143.8280 C   0  0  0  0  0  2  0  0  0  0  0  0
  1  9  1  0  0  0  0
  2  7  2  0  0  0  0
  3  1  2  0  0  0  0
  3  2  1  0  0  0  0
  5  8  1  0  0  0  0
  6 10  1  0  0  0  0
  7  5  1  0  0  0  0
  7  6  1  0  0  0  0
  8  4  1  0  0  0  0
  9  5  2  0  0  0  0
 10  4  2  0  0  0  0
 10 38  1  0  0  0  0
 11 12  1  0  0  0  0
 12  2  1  0  0  0  0
 13 15  1  0  0  0  0
 15 11  2  0  0  0  0
 16 17  1  0  0  0  0
 17 12  2  0  0  0  0
 17 14  1  0  0  0  0
 18 15  1  0  0  0  0
 18 16  2  0  0  0  0
 19 18  1  0  0  0  0
 21 16  1  0  0  0  0
 21 20  1  1  0  0  0
 23 21  1  0  0  0  0
 23 22  2  0  0  0  0
 24 22  1  0  0  0  0
 25 24  1  6  0  0  0
 25 26  1  0  0  0  0
 26 27  1  6  0  0  0
 26 29  1  0  0  0  0
 28 29  1  0  0  0  0
 30 33  1  0  0  0  0
 30 25  1  0  0  0  0
 32 33  1  0  0  0  0
 33 31  1  0  0  0  0
 35 36  2  0  0  0  0
 36 34  1  0  0  0  0
 36  1  1  0  0  0  0
 38 37  1  0  0  0  0
 39 41  1  0  0  0  0
 40 42  1  0  0  0  0
 42 41  1  0  0  0  0
 42 47  2  0  0  0  0
 43 40  2  0  0  0  0
 43 44  1  0  0  0  0
 44 46  2  0  0  0  0
 45 38  1  6  0  0  0
 45 43  1  0  0  0  0
 46 47  1  0  0  0  0
 46 48  1  0  0  0  0
 49 39  2  0  0  0  0
 49 40  1  0  0  0  0
 50 45  1  0  0  0  0
 50 49  1  0  0  0  0
 51 52  1  0  0  0  0
 52 39  1  0  0  0  0
 52 55  1  0  0  0  0
 53 57  1  1  0  0  0
 53 55  1  0  0  0  0
 54 51  2  0  0  0  0
 54 53  1  0  0  0  0
 56 57  1  0  0  0  0
M  END
>  <MODEL>
7

>  <REMARK>
 VINA RESULT:      -7.5      4.123     11.082
  Name = 
  14 active torsions:
  status: ('A' for Active; 'I' for Inactive)
    1  A    between atoms: C_1  and  N_15
    2  A    between atoms: C_3  and  C_17
    3  A    between atoms: C_7  and  C_9
    4  A    between atoms: O_8  and  C_40
    5  A    between atoms: C_20  and  C_57
    6  A    between atoms: N_25  and  C_44
    7  A    between atoms: N_25  and  C_54
    8  A    between atoms: C_26  and  C_33
    9  A    between atoms: C_28  and  C_50
   10  A    between atoms: C_34  and  C_50
   11  A    between atoms: N_39  and  N_52
   12  A    between atoms: C_40  and  C_48
   13  A    between atoms: C_48  and  N_52
   14  A    between atoms: C_48  and  C_57
                            x       y       z     vdW  Elec       q    Type
                         _______ _______ _______ _____ _____    ______ ____

>  <TORSDO>
F 14

$$$$
=
 OpenBabel10222417343D

 57 63  0  0  1  0  0  0  0  0999 V2000
  182.0570  178.6290  137.5320 C   0  0  0  0  0  0  0  0  0  0  0  0
  184.1880  178.0830  138.5830 C   0  0  0  0  0  0  0  0  0  0  0  0
  182.9580  178.7520  138.5990 C   0  0  0  0  0  3  0  0  0  0  0  0
  185.4520  176.2550  135.0030 C   0  0  0  0  0  3  0  0  0  0  0  0
  183.6240  177.1610  136.4020 C   0  0  0  0  0  0  0  0  0  0  0  0
  185.8210  176.4980  137.4340 C   0  0  0  0  0  2  0  0  0  0  0  0
  184.5250  177.2760  137.4770 C   0  0  0  0  0  0  0  0  0  0  0  0
  183.9660  176.2920  135.2310 C   0  0  0  0  0  2  0  0  0  0  0  0
  182.3990  177.8290  136.4350 C   0  0  0  0  0  3  0  0  0  0  0  0
  186.3270  176.3330  136.0180 C   0  0  0  0  0  0  0  0  0  0  0  0
  186.4740  178.4840  139.4220 C   0  0  0  0  0  3  0  0  0  0  0  0
  185.1190  178.2960  139.7040 C   0  0  0  0  0  0  0  0  0  0  0  0
  188.7110  178.7930  140.1570 F   0  0  0  0  0  0  0  0  0  0  0  0
  183.2410  177.9760  141.3530 C   0  0  0  0  0  1  0  0  0  0  0  0
  187.3960  178.6390  140.4540 C   0  0  0  0  0  0  0  0  0  0  0  0
  185.6160  178.3900  142.0960 C   0  0  0  0  0  0  0  0  0  0  0  0
  184.6810  178.2470  141.0460 C   0  0  0  0  0  0  0  0  0  0  0  0
  186.9780  178.5880  141.7860 C   0  0  0  0  0  0  0  0  0  0  0  0
  187.9030  178.7210  142.7700 F   0  0  0  0  0  0  0  0  0  0  0  0
  183.9610  179.1400  143.8660 C   0  0  0  0  0  1  0  0  0  0  0  0
  185.1510  178.2540  143.5270 C   0  0  2  0  0  3  0  0  0  0  0  0
  186.9900  177.3330  144.9200 C   0  0  0  0  0  3  0  0  0  0  0  0
  186.2750  178.3830  144.5140 C   0  0  0  0  0  3  0  0  0  0  0  0
  188.0850  177.5060  145.9160 C   0  0  0  0  0  2  0  0  0  0  0  0
  189.3630  176.8690  145.3910 C   0  0  2  0  0  3  0  0  0  0  0  0
  190.5010  177.0650  146.3890 C   0  0  1  0  0  3  0  0  0  0  0  0
  189.9840  177.1250  147.6830 O   0  0  0  0  0  1  0  0  0  0  0  0
  192.0970  176.0150  147.5130 C   0  0  0  0  0  1  0  0  0  0  0  0
  191.3960  175.9940  146.3050 O   0  0  0  0  0  0  0  0  0  0  0  0
  189.7080  177.4700  144.1080 N   0  0  0  0  0  2  0  0  0  0  0  0
  190.9070  177.1170  142.1930 C   0  0  0  0  0  1  0  0  0  0  0  0
  189.2420  175.7380  142.8100 O   0  0  0  0  0  1  0  0  0  0  0  0
  190.2710  176.4570  143.3180 N   0  0  0  0  0  0  0  0  0  0  0  0
  180.6200  180.5990  136.9120 N   0  0  0  0  0  1  0  0  0  0  0  0
  179.7810  178.8420  138.1690 O   0  0  0  0  0  0  0  0  0  0  0  0
  180.7670  179.3390  137.5620 C   0  0  0  0  0  0  0  0  0  0  0  0
  188.4010  177.2020  134.9400 C   0  0  0  0  0  1  0  0  0  0  0  0
  187.7390  176.2050  135.7710 N   0  0  0  0  0  0  0  0  0  0  0  0
  192.1230  173.7360  135.7820 C   0  0  0  0  0  0  0  0  0  0  0  0
  189.8610  173.4880  135.6300 C   0  0  0  0  0  0  0  0  0  0  0  0
  191.8860  172.1870  135.0860 S   0  0  0  0  0  0  0  0  0  0  0  0
  190.1970  172.2760  135.1000 C   0  0  0  0  0  0  0  0  0  0  0  0
  188.5880  173.8880  135.8640 C   0  0  0  0  0  0  0  0  0  0  0  0
  187.5380  173.0150  135.5340 C   0  0  0  0  0  3  0  0  0  0  0  0
  188.5330  175.2360  136.5340 C   0  0  1  0  0  3  0  0  0  0  0  0
  187.8520  171.7550  134.9560 C   0  0  0  0  0  0  0  0  0  0  0  0
  189.2010  171.3650  134.7420 C   0  0  0  0  0  3  0  0  0  0  0  0
  186.7540  170.8220  134.5940 C   0  0  0  0  0  1  0  0  0  0  0  0
  190.8660  174.3040  136.0050 C   0  0  0  0  0  0  0  0  0  0  0  0
  190.2940  175.8340  136.7260 S   0  0  0  0  0  0  0  0  0  0  0  0
  193.7320  175.6890  135.9830 C   0  0  0  0  0  3  0  0  0  0  0  0
  193.3890  174.2940  136.1550 N   0  0  0  0  0  0  0  0  0  0  0  0
  195.6840  174.4880  136.5180 C   0  0  2  0  0  3  0  0  0  0  0  0
  195.1490  175.8370  136.3140 N   0  0  0  0  0  0  0  0  0  0  0  0
  194.5280  173.5080  136.5510 C   0  0  0  0  0  2  0  0  0  0  0  0
  195.6990  174.0300  139.0090 C   0  0  0  0  0  1  0  0  0  0  0  0
  196.5250  174.4160  137.7900 C   0  0  0  0  0  2  0  0  0  0  0  0
  1 36  1  0  0  0  0
  1  3  1  0  0  0  0
  2  3  2  0  0  0  0
  2 12  1  0  0  0  0
  4  8  1  0  0  0  0
  4 10  2  0  0  0  0
  5  9  1  0  0  0  0
  5  7  2  0  0  0  0
  6  7  1  0  0  0  0
  7  2  1  0  0  0  0
  8  5  1  0  0  0  0
  9  1  2  0  0  0  0
 10  6  1  0  0  0  0
 11 12  2  0  0  0  0
 11 15  1  0  0  0  0
 12 17  1  0  0  0  0
 13 15  1  0  0  0  0
 15 18  2  0  0  0  0
 16 21  1  0  0  0  0
 17 14  1  0  0  0  0
 17 16  2  0  0  0  0
 18 16  1  0  0  0  0
 18 19  1  0  0  0  0
 21 20  1  1  0  0  0
 21 23  1  0  0  0  0
 22 24  1  0  0  0  0
 23 22  2  0  0  0  0
 25 24  1  1  0  0  0
 25 26  1  0  0  0  0
 26 27  1  1  0  0  0
 29 26  1  0  0  0  0
 29 28  1  0  0  0  0
 30 25  1  0  0  0  0
 31 33  1  0  0  0  0
 32 33  1  0  0  0  0
 33 30  1  0  0  0  0
 34 36  1  0  0  0  0
 36 35  2  0  0  0  0
 37 38  1  0  0  0  0
 38 10  1  0  0  0  0
 39 49  2  0  0  0  0
 39 52  1  0  0  0  0
 40 43  1  0  0  0  0
 40 49  1  0  0  0  0
 41 42  1  0  0  0  0
 41 39  1  0  0  0  0
 42 40  2  0  0  0  0
 43 45  1  0  0  0  0
 44 43  2  0  0  0  0
 45 38  1  6  0  0  0
 45 50  1  0  0  0  0
 46 44  1  0  0  0  0
 47 46  2  0  0  0  0
 47 42  1  0  0  0  0
 48 46  1  0  0  0  0
 49 50  1  0  0  0  0
 51 52  1  0  0  0  0
 51 54  2  0  0  0  0
 52 55  1  0  0  0  0
 53 55  1  0  0  0  0
 53 57  1  1  0  0  0
 54 53  1  0  0  0  0
 57 56  1  0  0  0  0
M  END
>  <MODEL>
8

>  <REMARK>
 VINA RESULT:      -7.0      1.974      2.934
  Name = 
  14 active torsions:
  status: ('A' for Active; 'I' for Inactive)
    1  A    between atoms: C_1  and  N_15
    2  A    between atoms: C_3  and  C_17
    3  A    between atoms: C_7  and  C_9
    4  A    between atoms: O_8  and  C_40
    5  A    between atoms: C_20  and  C_57
    6  A    between atoms: N_25  and  C_44
    7  A    between atoms: N_25  and  C_54
    8  A    between atoms: C_26  and  C_33
    9  A    between atoms: C_28  and  C_50
   10  A    between atoms: C_34  and  C_50
   11  A    between atoms: N_39  and  N_52
   12  A    between atoms: C_40  and  C_48
   13  A    between atoms: C_48  and  N_52
   14  A    between atoms: C_48  and  C_57
                            x       y       z     vdW  Elec       q    Type
                         _______ _______ _______ _____ _____    ______ ____

>  <TORSDO>
F 14

$$$$
=
 OpenBabel10222417343D

 57 63  0  0  1  0  0  0  0  0999 V2000
  181.0680  178.7430  143.0320 C   0  0  0  0  0  0  0  0  0  0  0  0
  182.1110  178.7170  140.8290 C   0  0  0  0  0  0  0  0  0  0  0  0
  180.9750  178.6080  141.6400 C   0  0  0  0  0  3  0  0  0  0  0  0
  185.9070  178.7640  142.6580 C   0  0  0  0  0  3  0  0  0  0  0  0
  183.4600  179.0890  142.8210 C   0  0  0  0  0  0  0  0  0  0  0  0
  184.6140  179.1360  140.5860 C   0  0  0  0  0  2  0  0  0  0  0  0
  183.3660  178.9640  141.4220 C   0  0  0  0  0  0  0  0  0  0  0  0
  184.7860  179.3690  143.4590 C   0  0  0  0  0  2  0  0  0  0  0  0
  182.3170  178.9840  143.6160 C   0  0  0  0  0  3  0  0  0  0  0  0
  185.8490  178.6640  141.3210 C   0  0  0  0  0  0  0  0  0  0  0  0
  181.6260  179.6040  138.5780 C   0  0  0  0  0  3  0  0  0  0  0  0
  181.9620  178.5100  139.3790 C   0  0  0  0  0  0  0  0  0  0  0  0
  181.0750  180.5140  136.4550 F   0  0  0  0  0  0  0  0  0  0  0  0
  182.3770  176.0410  139.6660 C   0  0  0  0  0  1  0  0  0  0  0  0
  181.4270  179.4430  137.2080 C   0  0  0  0  0  0  0  0  0  0  0  0
  181.8710  177.0580  137.4140 C   0  0  0  0  0  0  0  0  0  0  0  0
  182.0860  177.2270  138.8000 C   0  0  0  0  0  0  0  0  0  0  0  0
  181.5420  178.1790  136.6240 C   0  0  0  0  0  0  0  0  0  0  0  0
  181.3200  178.0500  135.2910 F   0  0  0  0  0  0  0  0  0  0  0  0
  181.4730  174.5800  137.7810 C   0  0  0  0  0  1  0  0  0  0  0  0
  181.9240  175.6700  136.8190 C   0  0  2  0  0  3  0  0  0  0  0  0
  184.2370  174.7640  136.8300 C   0  0  0  0  0  3  0  0  0  0  0  0
  183.2460  175.3680  136.1730 C   0  0  0  0  0  3  0  0  0  0  0  0
  185.5390  174.5020  136.1550 C   0  0  0  0  0  2  0  0  0  0  0  0
  186.6260  175.3590  136.7860 C   0  0  2  0  0  3  0  0  0  0  0  0
  187.0050  176.5060  135.8520 C   0  0  1  0  0  3  0  0  0  0  0  0
  186.4190  177.6890  136.3030 O   0  0  0  0  0  1  0  0  0  0  0  0
  188.5980  178.0440  135.7890 C   0  0  0  0  0  1  0  0  0  0  0  0
  188.3940  176.6640  135.8320 O   0  0  0  0  0  0  0  0  0  0  0  0
  187.7920  174.5290  137.0640 N   0  0  0  0  0  2  0  0  0  0  0  0
  187.9350  172.2510  137.2030 C   0  0  0  0  0  1  0  0  0  0  0  0
  188.6460  173.3660  135.3850 O   0  0  0  0  0  1  0  0  0  0  0  0
  187.6540  173.3570  136.3070 N   0  0  0  0  0  0  0  0  0  0  0  0
  179.0230  179.7530  144.0950 N   0  0  0  0  0  1  0  0  0  0  0  0
  179.5700  177.5240  144.4110 O   0  0  0  0  0  0  0  0  0  0  0  0
  179.8640  178.6240  143.8730 C   0  0  0  0  0  0  0  0  0  0  0  0
  187.4110  178.8760  139.3890 C   0  0  0  0  0  1  0  0  0  0  0  0
  186.9760  178.1610  140.5810 N   0  0  0  0  0  0  0  0  0  0  0  0
  190.7590  177.3170  143.7890 C   0  0  0  0  0  0  0  0  0  0  0  0
  190.1400  177.2290  141.5960 C   0  0  0  0  0  0  0  0  0  0  0  0
  192.2300  177.2640  142.9080 S   0  0  0  0  0  0  0  0  0  0  0  0
  191.4880  177.2020  141.3890 C   0  0  0  0  0  0  0  0  0  0  0  0
  189.2170  177.1240  140.6090 C   0  0  0  0  0  0  0  0  0  0  0  0
  189.6640  176.9910  139.2840 C   0  0  0  0  0  3  0  0  0  0  0  0
  187.8120  177.0980  141.1490 C   0  0  1  0  0  3  0  0  0  0  0  0
  191.0630  176.9860  139.0300 C   0  0  0  0  0  0  0  0  0  0  0  0
  191.9980  177.0810  140.0940 C   0  0  0  0  0  3  0  0  0  0  0  0
  191.5520  176.8540  137.6340 C   0  0  0  0  0  1  0  0  0  0  0  0
  189.7070  177.2940  142.8710 C   0  0  0  0  0  0  0  0  0  0  0  0
  187.9270  177.2740  143.0080 S   0  0  0  0  0  0  0  0  0  0  0  0
  191.6640  176.7450  146.0910 C   0  0  0  0  0  3  0  0  0  0  0  0
  190.6460  177.2860  145.2170 N   0  0  0  0  0  0  0  0  0  0  0  0
  189.7050  177.1090  147.3430 C   0  0  2  0  0  3  0  0  0  0  0  0
  191.1170  176.7320  147.4470 N   0  0  0  0  0  0  0  0  0  0  0  0
  189.4360  177.5970  145.9340 C   0  0  0  0  0  2  0  0  0  0  0  0
  187.9480  177.9410  148.9660 C   0  0  0  0  0  1  0  0  0  0  0  0
  189.3390  178.1610  148.3870 C   0  0  0  0  0  2  0  0  0  0  0  0
  1  9  1  0  0  0  0
  1 36  1  0  0  0  0
  2  7  2  0  0  0  0
  2  3  1  0  0  0  0
  3  1  2  0  0  0  0
  4  8  1  0  0  0  0
  5  8  1  0  0  0  0
  5  9  2  0  0  0  0
  6 10  1  0  0  0  0
  6  7  1  0  0  0  0
  7  5  1  0  0  0  0
 10  4  2  0  0  0  0
 11 12  1  0  0  0  0
 12  2  1  0  0  0  0
 13 15  1  0  0  0  0
 15 11  2  0  0  0  0
 16 17  1  0  0  0  0
 17 12  2  0  0  0  0
 17 14  1  0  0  0  0
 18 15  1  0  0  0  0
 18 16  2  0  0  0  0
 19 18  1  0  0  0  0
 21 16  1  0  0  0  0
 21 20  1  1  0  0  0
 23 21  1  0  0  0  0
 23 22  2  0  0  0  0
 24 22  1  0  0  0  0
 25 24  1  6  0  0  0
 25 30  1  0  0  0  0
 26 27  1  1  0  0  0
 26 25  1  0  0  0  0
 28 29  1  0  0  0  0
 29 26  1  0  0  0  0
 32 33  1  0  0  0  0
 33 30  1  0  0  0  0
 33 31  1  0  0  0  0
 36 34  1  0  0  0  0
 36 35  2  0  0  0  0
 37 38  1  0  0  0  0
 38 10  1  0  0  0  0
 39 52  1  0  0  0  0
 40 49  1  0  0  0  0
 41 39  1  0  0  0  0
 42 40  1  0  0  0  0
 42 41  1  0  0  0  0
 43 45  1  0  0  0  0
 43 40  2  0  0  0  0
 44 43  1  0  0  0  0
 45 38  1  6  0  0  0
 45 50  1  0  0  0  0
 46 44  2  0  0  0  0
 46 47  1  0  0  0  0
 47 42  2  0  0  0  0
 48 46  1  0  0  0  0
 49 50  1  0  0  0  0
 49 39  2  0  0  0  0
 51 54  2  0  0  0  0
 52 55  1  0  0  0  0
 52 51  1  0  0  0  0
 53 54  1  0  0  0  0
 53 57  1  1  0  0  0
 55 53  1  0  0  0  0
 57 56  1  0  0  0  0
M  END
>  <MODEL>
9

>  <REMARK>
 VINA RESULT:      -6.8      3.895      8.256
  Name = 
  14 active torsions:
  status: ('A' for Active; 'I' for Inactive)
    1  A    between atoms: C_1  and  N_15
    2  A    between atoms: C_3  and  C_17
    3  A    between atoms: C_7  and  C_9
    4  A    between atoms: O_8  and  C_40
    5  A    between atoms: C_20  and  C_57
    6  A    between atoms: N_25  and  C_44
    7  A    between atoms: N_25  and  C_54
    8  A    between atoms: C_26  and  C_33
    9  A    between atoms: C_28  and  C_50
   10  A    between atoms: C_34  and  C_50
   11  A    between atoms: N_39  and  N_52
   12  A    between atoms: C_40  and  C_48
   13  A    between atoms: C_48  and  N_52
   14  A    between atoms: C_48  and  C_57
                            x       y       z     vdW  Elec       q    Type
                         _______ _______ _______ _____ _____    ______ ____

>  <TORSDO>
F 14

$$$$
