=
 OpenBabel10222419443D

 33 36  0  0  1  0  0  0  0  0999 V2000
  188.6280  177.7460  140.2690 C   0  0  1  0  0  3  0  0  0  0  0  0
  188.9660  178.9230  142.3270 O   0  0  0  0  0  1  0  0  0  0  0  0
  189.3840  177.8020  141.6020 C   0  0  1  0  0  3  0  0  0  0  0  0
  189.7140  177.0400  144.8700 C   0  0  0  0  0  0  0  0  0  0  0  0
  189.5420  177.8320  146.0910 C   0  0  0  0  0  2  0  0  0  0  0  0
  190.8920  176.5280  144.6660 N   0  0  0  0  0  2  0  0  0  0  0  0
  191.2000  175.7590  143.4960 C   0  0  0  0  0  3  0  0  0  0  0  0
  186.6080  177.2810  145.2340 C   0  0  0  0  0  3  0  0  0  0  0  0
  188.4150  178.1450  146.7220 C   0  0  0  0  0  3  0  0  0  0  0  0
  187.0330  177.7720  146.3960 C   0  0  0  0  0  0  0  0  0  0  0  0
  189.1520  176.5280  142.4360 C   0  0  2  0  0  3  0  0  0  0  0  0
  188.6770  176.8690  143.8280 C   0  0  0  0  0  0  0  0  0  0  0  0
  186.0500  178.0180  147.3950 N   0  0  0  0  0  1  0  0  0  0  0  0
  187.3620  176.9600  144.0160 C   0  0  0  0  0  3  0  0  0  0  0  0
  190.3770  175.7210  142.4910 N   0  0  0  0  0  0  0  0  0  0  0  0
  186.2820  178.0420  140.4520 N   0  0  0  0  0  0  0  0  0  0  0  0
  187.4310  178.5740  140.3360 N   0  0  0  0  0  0  0  0  0  0  0  0
  184.5630  179.4080  139.2960 C   0  0  0  0  0  1  0  0  0  0  0  0
  185.1120  178.8170  140.5150 N   0  0  0  0  0  0  0  0  0  0  0  0
  182.3570  178.9880  143.2200 C   0  0  0  0  0  2  0  0  0  0  0  0
  183.0480  178.4700  141.9590 C   0  0  0  0  0  2  0  0  0  0  0  0
  185.1280  179.5200  142.8240 C   0  0  0  0  0  3  0  0  0  0  0  0
  184.5030  179.7680  144.1680 C   0  0  0  0  0  2  0  0  0  0  0  0
  184.4570  178.9970  141.7830 C   0  0  0  0  0  0  0  0  0  0  0  0
  183.3010  178.8630  144.4050 C   0  0  0  0  0  2  0  0  0  0  0  0
  189.4840  178.2220  139.1880 N   0  0  0  0  0  2  0  0  0  0  0  0
  191.4630  175.6690  136.4540 C   0  0  0  0  0  0  0  0  0  0  0  0
  190.3290  176.3850  136.0590 C   0  0  0  0  0  3  0  0  0  0  0  0
  191.3050  176.6380  138.6670 C   0  0  0  0  0  3  0  0  0  0  0  0
  190.1620  177.3530  138.2770 C   0  0  0  0  0  0  0  0  0  0  0  0
  191.9520  175.7960  137.7570 C   0  0  0  0  0  3  0  0  0  0  0  0
  189.6820  177.2260  136.9690 C   0  0  0  0  0  3  0  0  0  0  0  0
  192.1040  174.8320  135.5500 O   0  0  0  0  0  1  0  0  0  0  0  0
  1 26  1  6  0  0  0
  1 17  1  0  0  0  0
  1  3  1  0  0  0  0
  3  2  1  1  0  0  0
  4  5  1  0  0  0  0
  5  9  1  0  0  0  0
  6  4  1  0  0  0  0
  7  6  1  0  0  0  0
  8 10  1  0  0  0  0
 10  9  2  0  0  0  0
 10 13  1  0  0  0  0
 11  3  1  6  0  0  0
 11 15  1  0  0  0  0
 11 12  1  0  0  0  0
 12 14  1  0  0  0  0
 12  4  2  0  0  0  0
 14  8  2  0  0  0  0
 15  7  2  0  0  0  0
 16 19  1  0  0  0  0
 17 16  2  0  0  0  0
 18 19  1  0  0  0  0
 19 24  1  0  0  0  0
 20 25  1  0  0  0  0
 21 20  1  0  0  0  0
 22 23  1  0  0  0  0
 23 25  1  0  0  0  0
 24 21  1  0  0  0  0
 24 22  2  0  0  0  0
 27 31  1  0  0  0  0
 28 27  2  0  0  0  0
 28 32  1  0  0  0  0
 30 29  1  0  0  0  0
 30 26  1  0  0  0  0
 31 29  2  0  0  0  0
 32 30  2  0  0  0  0
 33 27  1  0  0  0  0
M  END
>  <MODEL>
1

>  <REMARK>
 VINA RESULT:      -8.6      0.000      0.000
  Name = 
  7 active torsions:
  status: ('A' for Active; 'I' for Inactive)
    1  A    between atoms: N_6  and  N_24
    2  A    between atoms: N_6  and  C_26
    3  A    between atoms: C_17  and  C_23
    4  A    between atoms: C_18  and  N_19
    5  A    between atoms: N_19  and  C_22
    6  A    between atoms: C_22  and  C_23
    7  A    between atoms: C_22  and  N_25
                            x       y       z     vdW  Elec       q    Type
                         _______ _______ _______ _____ _____    ______ ____

>  <TORSDO>
F 7

$$$$
=
 OpenBabel10222419443D

 33 36  0  0  1  0  0  0  0  0999 V2000
  188.1160  178.6510  142.0350 C   0  0  1  0  0  3  0  0  0  0  0  0
  190.0400  178.9970  143.4190 O   0  0  0  0  0  1  0  0  0  0  0  0
  189.4410  178.0780  142.5500 C   0  0  1  0  0  3  0  0  0  0  0  0
  190.5820  176.7680  145.4410 C   0  0  0  0  0  0  0  0  0  0  0  0
  190.9370  177.3730  146.7270 C   0  0  0  0  0  2  0  0  0  0  0  0
  191.5240  176.1260  144.8160 N   0  0  0  0  0  2  0  0  0  0  0  0
  191.3150  175.5140  143.5370 C   0  0  0  0  0  3  0  0  0  0  0  0
  187.8320  177.4070  146.8080 C   0  0  0  0  0  3  0  0  0  0  0  0
  190.1310  177.7470  147.7160 C   0  0  0  0  0  3  0  0  0  0  0  0
  188.6710  177.6390  147.8160 C   0  0  0  0  0  0  0  0  0  0  0  0
  189.2310  176.7370  143.2780 C   0  0  2  0  0  3  0  0  0  0  0  0
  189.2670  176.9200  144.7760 C   0  0  0  0  0  0  0  0  0  0  0  0
  188.0970  177.8680  149.0970 N   0  0  0  0  0  1  0  0  0  0  0  0
  188.1120  177.1750  145.3860 C   0  0  0  0  0  3  0  0  0  0  0  0
  190.2390  175.7580  142.8520 N   0  0  0  0  0  0  0  0  0  0  0  0
  187.8940  177.9550  139.7800 N   0  0  0  0  0  0  0  0  0  0  0  0
  188.1920  178.8800  140.5980 N   0  0  0  0  0  0  0  0  0  0  0  0
  189.1090  178.8380  137.8050 C   0  0  0  0  0  1  0  0  0  0  0  0
  187.9620  178.1470  138.3900 N   0  0  0  0  0  0  0  0  0  0  0  0
  184.4480  177.1010  137.1660 C   0  0  0  0  0  2  0  0  0  0  0  0
  185.4690  177.9430  137.9310 C   0  0  0  0  0  2  0  0  0  0  0  0
  187.1940  176.9980  136.4110 C   0  0  0  0  0  3  0  0  0  0  0  0
  186.1470  176.4090  135.5080 C   0  0  0  0  0  2  0  0  0  0  0  0
  186.9050  177.6370  137.5580 C   0  0  0  0  0  0  0  0  0  0  0  0
  184.7990  177.0960  135.6870 C   0  0  0  0  0  2  0  0  0  0  0  0
  187.0270  177.7220  142.3180 N   0  0  0  0  0  2  0  0  0  0  0  0
  183.0730  178.9410  143.2100 C   0  0  0  0  0  0  0  0  0  0  0  0
  183.4250  178.5800  141.9070 C   0  0  0  0  0  3  0  0  0  0  0  0
  185.3370  178.4950  143.9440 C   0  0  0  0  0  3  0  0  0  0  0  0
  185.6960  178.1390  142.6350 C   0  0  0  0  0  0  0  0  0  0  0  0
  184.0280  178.8970  144.2300 C   0  0  0  0  0  3  0  0  0  0  0  0
  184.7340  178.1780  141.6210 C   0  0  0  0  0  3  0  0  0  0  0  0
  181.7750  179.3410  143.4930 O   0  0  0  0  0  1  0  0  0  0  0  0
  1 17  1  6  0  0  0
  1 26  1  0  0  0  0
  1  3  1  0  0  0  0
  3  2  1  1  0  0  0
  4  5  1  0  0  0  0
  5  9  1  0  0  0  0
  6  4  1  0  0  0  0
  7  6  1  0  0  0  0
  8 10  1  0  0  0  0
  9 10  2  0  0  0  0
 10 13  1  0  0  0  0
 11  3  1  6  0  0  0
 11 12  1  0  0  0  0
 12 14  1  0  0  0  0
 12  4  2  0  0  0  0
 14  8  2  0  0  0  0
 15 11  1  0  0  0  0
 15  7  2  0  0  0  0
 16 17  2  0  0  0  0
 18 19  1  0  0  0  0
 19 16  1  0  0  0  0
 20 21  1  0  0  0  0
 22 24  2  0  0  0  0
 23 25  1  0  0  0  0
 23 22  1  0  0  0  0
 24 21  1  0  0  0  0
 24 19  1  0  0  0  0
 25 20  1  0  0  0  0
 26 30  1  0  0  0  0
 27 33  1  0  0  0  0
 27 31  1  0  0  0  0
 28 27  2  0  0  0  0
 29 31  2  0  0  0  0
 30 29  1  0  0  0  0
 32 28  1  0  0  0  0
 32 30  2  0  0  0  0
M  END
>  <MODEL>
2

>  <REMARK>
 VINA RESULT:      -8.4      2.445      5.717
  Name = 
  7 active torsions:
  status: ('A' for Active; 'I' for Inactive)
    1  A    between atoms: N_6  and  N_24
    2  A    between atoms: N_6  and  C_26
    3  A    between atoms: C_17  and  C_23
    4  A    between atoms: C_18  and  N_19
    5  A    between atoms: N_19  and  C_22
    6  A    between atoms: C_22  and  C_23
    7  A    between atoms: C_22  and  N_25
                            x       y       z     vdW  Elec       q    Type
                         _______ _______ _______ _____ _____    ______ ____

>  <TORSDO>
F 7

$$$$
=
 OpenBabel10222419443D

 33 36  0  0  1  0  0  0  0  0999 V2000
  188.4620  178.4870  142.0070 C   0  0  1  0  0  3  0  0  0  0  0  0
  190.1160  179.0190  143.6550 O   0  0  0  0  0  1  0  0  0  0  0  0
  189.7320  178.0360  142.7370 C   0  0  1  0  0  3  0  0  0  0  0  0
  190.7300  176.7960  145.7100 C   0  0  0  0  0  0  0  0  0  0  0  0
  190.9890  177.4280  147.0070 C   0  0  0  0  0  2  0  0  0  0  0  0
  191.7270  176.1730  145.1530 N   0  0  0  0  0  2  0  0  0  0  0  0
  191.6130  175.5390  143.8720 C   0  0  0  0  0  3  0  0  0  0  0  0
  187.8860  177.3730  146.9000 C   0  0  0  0  0  3  0  0  0  0  0  0
  190.1150  177.7900  147.9400 C   0  0  0  0  0  3  0  0  0  0  0  0
  188.6550  177.6420  147.9530 C   0  0  0  0  0  0  0  0  0  0  0  0
  189.5150  176.6980  143.4710 C   0  0  2  0  0  3  0  0  0  0  0  0
  189.4550  176.9010  144.9650 C   0  0  0  0  0  0  0  0  0  0  0  0
  187.9980  177.8700  149.1940 N   0  0  0  0  0  1  0  0  0  0  0  0
  188.2580  177.1310  145.5010 C   0  0  0  0  0  3  0  0  0  0  0  0
  190.5740  175.7440  143.1210 N   0  0  0  0  0  0  0  0  0  0  0  0
  189.4420  177.6230  140.0280 N   0  0  0  0  0  0  0  0  0  0  0  0
  188.6850  178.4910  140.5670 N   0  0  0  0  0  0  0  0  0  0  0  0
  189.0700  178.6240  137.7880 C   0  0  0  0  0  1  0  0  0  0  0  0
  189.6770  177.6060  138.6430 N   0  0  0  0  0  0  0  0  0  0  0  0
  192.8550  175.7090  137.5300 C   0  0  0  0  0  2  0  0  0  0  0  0
  192.0150  176.6330  138.4110 C   0  0  0  0  0  2  0  0  0  0  0  0
  190.0120  175.5670  137.3970 C   0  0  0  0  0  3  0  0  0  0  0  0
  190.8470  174.4890  136.7630 C   0  0  0  0  0  2  0  0  0  0  0  0
  190.5350  176.5920  138.0900 C   0  0  0  0  0  0  0  0  0  0  0  0
  192.1950  174.3410  137.4540 C   0  0  0  0  0  2  0  0  0  0  0  0
  187.3580  177.5860  142.3210 N   0  0  0  0  0  2  0  0  0  0  0  0
  183.4370  178.9190  143.1970 C   0  0  0  0  0  0  0  0  0  0  0  0
  184.3590  178.7100  144.2260 C   0  0  0  0  0  3  0  0  0  0  0  0
  185.1010  178.2520  141.5700 C   0  0  0  0  0  3  0  0  0  0  0  0
  186.0280  178.0340  142.6010 C   0  0  0  0  0  0  0  0  0  0  0  0
  183.8080  178.6910  141.8690 C   0  0  0  0  0  3  0  0  0  0  0  0
  185.6530  178.2690  143.9280 C   0  0  0  0  0  3  0  0  0  0  0  0
  182.1530  179.3540  143.4940 O   0  0  0  0  0  1  0  0  0  0  0  0
  1 17  1  6  0  0  0
  1 26  1  0  0  0  0
  1  3  1  0  0  0  0
  3  2  1  1  0  0  0
  4  5  1  0  0  0  0
  5  9  1  0  0  0  0
  6  4  1  0  0  0  0
  7  6  1  0  0  0  0
  8 10  1  0  0  0  0
  9 10  2  0  0  0  0
 10 13  1  0  0  0  0
 11  3  1  6  0  0  0
 11 12  1  0  0  0  0
 12 14  1  0  0  0  0
 12  4  2  0  0  0  0
 14  8  2  0  0  0  0
 15 11  1  0  0  0  0
 15  7  2  0  0  0  0
 16 17  2  0  0  0  0
 18 19  1  0  0  0  0
 19 16  1  0  0  0  0
 20 21  1  0  0  0  0
 22 24  2  0  0  0  0
 23 22  1  0  0  0  0
 23 25  1  0  0  0  0
 24 21  1  0  0  0  0
 24 19  1  0  0  0  0
 25 20  1  0  0  0  0
 26 30  1  0  0  0  0
 27 33  1  0  0  0  0
 27 28  1  0  0  0  0
 29 31  1  0  0  0  0
 29 30  2  0  0  0  0
 30 32  1  0  0  0  0
 31 27  2  0  0  0  0
 32 28  2  0  0  0  0
M  END
>  <MODEL>
3

>  <REMARK>
 VINA RESULT:      -8.4      2.181      6.554
  Name = 
  7 active torsions:
  status: ('A' for Active; 'I' for Inactive)
    1  A    between atoms: N_6  and  N_24
    2  A    between atoms: N_6  and  C_26
    3  A    between atoms: C_17  and  C_23
    4  A    between atoms: C_18  and  N_19
    5  A    between atoms: N_19  and  C_22
    6  A    between atoms: C_22  and  C_23
    7  A    between atoms: C_22  and  N_25
                            x       y       z     vdW  Elec       q    Type
                         _______ _______ _______ _____ _____    ______ ____

>  <TORSDO>
F 7

$$$$
=
 OpenBabel10222419443D

 33 36  0  0  1  0  0  0  0  0999 V2000
  186.0910  178.5270  141.2070 C   0  0  1  0  0  3  0  0  0  0  0  0
  188.3240  179.1810  141.7710 O   0  0  0  0  0  1  0  0  0  0  0  0
  187.5430  178.6590  140.7340 C   0  0  1  0  0  3  0  0  0  0  0  0
  190.6450  177.3410  140.6120 C   0  0  0  0  0  0  0  0  0  0  0  0
  191.8310  177.5270  141.4520 C   0  0  0  0  0  2  0  0  0  0  0  0
  190.7630  177.6510  139.3550 N   0  0  0  0  0  2  0  0  0  0  0  0
  189.6700  177.5430  138.4340 C   0  0  0  0  0  3  0  0  0  0  0  0
  190.0450  175.7010  143.2180 C   0  0  0  0  0  3  0  0  0  0  0  0
  192.1090  176.9710  142.6270 C   0  0  0  0  0  3  0  0  0  0  0  0
  191.3280  176.0010  143.4030 C   0  0  0  0  0  0  0  0  0  0  0  0
  188.1160  177.3000  140.2870 C   0  0  2  0  0  3  0  0  0  0  0  0
  189.3180  176.9180  141.1160 C   0  0  0  0  0  0  0  0  0  0  0  0
  191.9910  175.3720  144.4940 N   0  0  0  0  0  1  0  0  0  0  0  0
  189.0950  176.2060  142.2190 C   0  0  0  0  0  3  0  0  0  0  0  0
  188.4610  177.3340  138.8610 N   0  0  0  0  0  0  0  0  0  0  0  0
  185.6840  178.0610  143.4960 N   0  0  0  0  0  0  0  0  0  0  0  0
  185.9800  178.9190  142.6060 N   0  0  0  0  0  0  0  0  0  0  0  0
  184.3250  179.0020  145.3470 C   0  0  0  0  0  1  0  0  0  0  0  0
  185.5670  178.4120  144.8510 N   0  0  0  0  0  0  0  0  0  0  0  0
  187.7350  178.2690  148.0470 C   0  0  0  0  0  2  0  0  0  0  0  0
  186.4420  178.2440  147.2330 C   0  0  0  0  0  2  0  0  0  0  0  0
  187.8550  177.7520  145.2470 C   0  0  0  0  0  3  0  0  0  0  0  0
  189.0630  177.5030  146.1060 C   0  0  0  0  0  2  0  0  0  0  0  0
  186.6720  178.1620  145.7380 C   0  0  0  0  0  0  0  0  0  0  0  0
  188.6740  177.1830  147.5440 C   0  0  0  0  0  2  0  0  0  0  0  0
  185.2230  179.3780  140.3980 N   0  0  0  0  0  2  0  0  0  0  0  0
  181.2180  178.4260  139.4160 C   0  0  0  0  0  0  0  0  0  0  0  0
  181.9720  179.2580  138.5830 C   0  0  0  0  0  3  0  0  0  0  0  0
  183.1090  178.2090  140.9120 C   0  0  0  0  0  3  0  0  0  0  0  0
  183.8680  179.0490  140.0810 C   0  0  0  0  0  0  0  0  0  0  0  0
  181.7860  177.9010  140.5790 C   0  0  0  0  0  3  0  0  0  0  0  0
  183.2950  179.5670  138.9150 C   0  0  0  0  0  3  0  0  0  0  0  0
  179.9040  178.1220  139.0860 O   0  0  0  0  0  1  0  0  0  0  0  0
  1 26  1  6  0  0  0
  1 17  1  0  0  0  0
  3  1  1  0  0  0  0
  3  2  1  1  0  0  0
  4 12  2  0  0  0  0
  4  5  1  0  0  0  0
  5  9  1  0  0  0  0
  6  4  1  0  0  0  0
  7 15  2  0  0  0  0
  7  6  1  0  0  0  0
  8 10  1  0  0  0  0
  9 10  2  0  0  0  0
 10 13  1  0  0  0  0
 11  3  1  1  0  0  0
 11 12  1  0  0  0  0
 12 14  1  0  0  0  0
 14  8  2  0  0  0  0
 15 11  1  0  0  0  0
 16 19  1  0  0  0  0
 17 16  2  0  0  0  0
 19 18  1  0  0  0  0
 19 24  1  0  0  0  0
 21 20  1  0  0  0  0
 22 24  2  0  0  0  0
 22 23  1  0  0  0  0
 23 25  1  0  0  0  0
 24 21  1  0  0  0  0
 25 20  1  0  0  0  0
 27 31  1  0  0  0  0
 28 32  1  0  0  0  0
 28 27  2  0  0  0  0
 30 26  1  0  0  0  0
 30 29  1  0  0  0  0
 31 29  2  0  0  0  0
 32 30  2  0  0  0  0
 33 27  1  0  0  0  0
M  END
>  <MODEL>
4

>  <REMARK>
 VINA RESULT:      -8.2      2.325      6.157
  Name = 
  7 active torsions:
  status: ('A' for Active; 'I' for Inactive)
    1  A    between atoms: N_6  and  N_24
    2  A    between atoms: N_6  and  C_26
    3  A    between atoms: C_17  and  C_23
    4  A    between atoms: C_18  and  N_19
    5  A    between atoms: N_19  and  C_22
    6  A    between atoms: C_22  and  C_23
    7  A    between atoms: C_22  and  N_25
                            x       y       z     vdW  Elec       q    Type
                         _______ _______ _______ _____ _____    ______ ____

>  <TORSDO>
F 7

$$$$
=
 OpenBabel10222419443D

 33 36  0  0  1  0  0  0  0  0999 V2000
  186.9670  178.8380  141.0060 C   0  0  1  0  0  3  0  0  0  0  0  0
  184.8760  179.7980  140.3420 O   0  0  0  0  0  1  0  0  0  0  0  0
  185.5680  179.2870  141.4450 C   0  0  1  0  0  3  0  0  0  0  0  0
  182.2970  178.7390  142.0530 C   0  0  0  0  0  0  0  0  0  0  0  0
  181.0790  179.1580  141.3550 C   0  0  0  0  0  3  0  0  0  0  0  0
  182.4270  179.1280  143.2870 N   0  0  0  0  0  2  0  0  0  0  0  0
  183.5850  178.8110  144.0720 C   0  0  0  0  0  3  0  0  0  0  0  0
  182.1440  176.8830  139.5290 C   0  0  0  0  0  3  0  0  0  0  0  0
  180.5220  178.6280  140.2710 C   0  0  0  0  0  3  0  0  0  0  0  0
  180.9480  177.4660  139.4820 C   0  0  0  0  0  0  0  0  0  0  0  0
  184.7710  178.1230  142.0650 C   0  0  2  0  0  3  0  0  0  0  0  0
  183.4100  177.9940  141.4240 C   0  0  1  0  0  3  0  0  0  0  0  0
  180.0160  176.9580  138.5350 N   0  0  0  0  0  1  0  0  0  0  0  0
  183.3120  177.1990  140.3600 C   0  0  0  0  0  3  0  0  0  0  0  0
  184.6440  178.3040  143.5160 N   0  0  0  0  0  0  0  0  0  0  0  0
  188.3720  178.0440  142.7430 N   0  0  0  0  0  0  0  0  0  0  0  0
  187.4600  177.7930  141.8940 N   0  0  0  0  0  0  0  0  0  0  0  0
  189.5530  175.8850  143.0610 C   0  0  0  0  0  1  0  0  0  0  0  0
  188.8680  177.0540  143.6080 N   0  0  0  0  0  0  0  0  0  0  0  0
  189.6030  177.0050  147.4020 C   0  0  0  0  0  2  0  0  0  0  0  0
  189.9360  177.1200  145.9150 C   0  0  0  0  0  2  0  0  0  0  0  0
  187.5220  177.5760  145.5420 C   0  0  0  0  0  3  0  0  0  0  0  0
  187.2740  177.7390  147.0160 C   0  0  0  0  0  2  0  0  0  0  0  0
  188.7120  177.2220  145.0290 C   0  0  0  0  0  0  0  0  0  0  0  0
  188.5600  178.0480  147.7720 C   0  0  0  0  0  2  0  0  0  0  0  0
  186.9220  178.3290  139.6400 N   0  0  0  0  0  2  0  0  0  0  0  0
  190.2690  176.7580  137.5780 C   0  0  0  0  0  0  0  0  0  0  0  0
  188.9730  176.3790  137.2160 C   0  0  0  0  0  3  0  0  0  0  0  0
  189.3660  178.1880  139.3110 C   0  0  0  0  0  3  0  0  0  0  0  0
  188.0640  177.8050  138.9550 C   0  0  0  0  0  0  0  0  0  0  0  0
  190.4650  177.6640  138.6240 C   0  0  0  0  0  3  0  0  0  0  0  0
  187.8730  176.9030  137.9030 C   0  0  0  0  0  3  0  0  0  0  0  0
  191.3600  176.2360  136.8970 O   0  0  0  0  0  1  0  0  0  0  0  0
  1 26  1  6  0  0  0
  1  3  1  0  0  0  0
  1 17  1  0  0  0  0
  3  2  1  6  0  0  0
  4  6  1  0  0  0  0
  5  4  2  0  0  0  0
  6  7  1  0  0  0  0
  8 14  2  0  0  0  0
  9  5  1  0  0  0  0
 10  8  1  0  0  0  0
 10  9  2  0  0  0  0
 11  3  1  6  0  0  0
 11 15  1  0  0  0  0
 12 14  1  1  0  0  0
 12  4  1  0  0  0  0
 12 11  1  0  0  0  0
 13 10  1  0  0  0  0
 15  7  2  0  0  0  0
 16 19  1  0  0  0  0
 17 16  2  0  0  0  0
 18 19  1  0  0  0  0
 19 24  1  0  0  0  0
 20 25  1  0  0  0  0
 21 20  1  0  0  0  0
 22 23  1  0  0  0  0
 23 25  1  0  0  0  0
 24 22  2  0  0  0  0
 24 21  1  0  0  0  0
 27 31  1  0  0  0  0
 28 27  2  0  0  0  0
 28 32  1  0  0  0  0
 30 29  1  0  0  0  0
 30 26  1  0  0  0  0
 31 29  2  0  0  0  0
 32 30  2  0  0  0  0
 33 27  1  0  0  0  0
M  END
>  <MODEL>
5

>  <REMARK>
 VINA RESULT:      -8.2      2.237      6.069
  Name = 
  7 active torsions:
  status: ('A' for Active; 'I' for Inactive)
    1  A    between atoms: N_6  and  N_24
    2  A    between atoms: N_6  and  C_26
    3  A    between atoms: C_17  and  C_23
    4  A    between atoms: C_18  and  N_19
    5  A    between atoms: N_19  and  C_22
    6  A    between atoms: C_22  and  C_23
    7  A    between atoms: C_22  and  N_25
                            x       y       z     vdW  Elec       q    Type
                         _______ _______ _______ _____ _____    ______ ____

>  <TORSDO>
F 7

$$$$
=
 OpenBabel10222419443D

 33 36  0  0  1  0  0  0  0  0999 V2000
  189.5640  177.4710  141.1360 C   0  0  1  0  0  3  0  0  0  0  0  0
  190.3990  176.0070  139.4340 O   0  0  0  0  0  1  0  0  0  0  0  0
  189.8940  177.2940  139.6490 C   0  0  1  0  0  3  0  0  0  0  0  0
  189.3180  177.1720  136.3290 C   0  0  0  0  0  0  0  0  0  0  0  0
  189.8930  176.3570  135.2560 C   0  0  0  0  0  3  0  0  0  0  0  0
  189.4570  178.4600  136.2240 N   0  0  0  0  0  2  0  0  0  0  0  0
  188.9670  179.3670  137.2200 C   0  0  0  0  0  3  0  0  0  0  0  0
  187.9890  174.3510  136.6690 C   0  0  0  0  0  3  0  0  0  0  0  0
  189.5960  175.1060  134.9160 C   0  0  0  0  0  3  0  0  0  0  0  0
  188.5990  174.1990  135.4950 C   0  0  0  0  0  0  0  0  0  0  0  0
  188.6520  177.5180  138.7660 C   0  0  2  0  0  3  0  0  0  0  0  0
  188.6820  176.6250  137.5490 C   0  0  1  0  0  3  0  0  0  0  0  0
  188.3060  173.0160  134.7610 N   0  0  0  0  0  1  0  0  0  0  0  0
  188.1100  175.4280  137.6590 C   0  0  0  0  0  3  0  0  0  0  0  0
  188.5520  178.9280  138.3700 N   0  0  0  0  0  0  0  0  0  0  0  0
  187.6010  178.5750  141.8750 N   0  0  0  0  0  0  0  0  0  0  0  0
  188.1220  177.5560  141.3240 N   0  0  0  0  0  0  0  0  0  0  0  0
  185.3350  178.9400  140.9330 C   0  0  0  0  0  1  0  0  0  0  0  0
  186.2140  178.6820  142.0720 N   0  0  0  0  0  0  0  0  0  0  0  0
  185.8540  177.5920  145.7620 C   0  0  0  0  0  2  0  0  0  0  0  0
  186.5960  178.0280  144.4990 C   0  0  0  0  0  2  0  0  0  0  0  0
  184.4140  178.8790  143.6670 C   0  0  0  0  0  3  0  0  0  0  0  0
  183.7740  178.7010  145.0160 C   0  0  0  0  0  2  0  0  0  0  0  0
  185.6770  178.5090  143.3950 C   0  0  0  0  0  0  0  0  0  0  0  0
  184.8130  178.6390  146.1270 C   0  0  0  0  0  2  0  0  0  0  0  0
  190.0840  176.3420  141.9010 N   0  0  0  0  0  2  0  0  0  0  0  0
  191.4520  176.6950  145.8910 C   0  0  0  0  0  0  0  0  0  0  0  0
  190.4120  177.5050  145.4250 C   0  0  0  0  0  3  0  0  0  0  0  0
  191.5980  175.6350  143.7190 C   0  0  0  0  0  3  0  0  0  0  0  0
  190.5590  176.4510  143.2450 C   0  0  0  0  0  0  0  0  0  0  0  0
  192.0440  175.7590  145.0380 C   0  0  0  0  0  3  0  0  0  0  0  0
  189.9660  177.3810  144.1050 C   0  0  0  0  0  3  0  0  0  0  0  0
  191.8940  176.8190  147.2000 O   0  0  0  0  0  1  0  0  0  0  0  0
  1 17  1  6  0  0  0
  1 26  1  0  0  0  0
  3  2  1  1  0  0  0
  3  1  1  0  0  0  0
  4 12  1  0  0  0  0
  5  4  2  0  0  0  0
  6  4  1  0  0  0  0
  6  7  1  0  0  0  0
  7 15  2  0  0  0  0
  8 14  2  0  0  0  0
  9  5  1  0  0  0  0
  9 10  2  0  0  0  0
 10  8  1  0  0  0  0
 11  3  1  6  0  0  0
 12 14  1  6  0  0  0
 12 11  1  0  0  0  0
 13 10  1  0  0  0  0
 15 11  1  0  0  0  0
 16 19  1  0  0  0  0
 17 16  2  0  0  0  0
 18 19  1  0  0  0  0
 19 24  1  0  0  0  0
 20 25  1  0  0  0  0
 21 20  1  0  0  0  0
 22 23  1  0  0  0  0
 23 25  1  0  0  0  0
 24 22  2  0  0  0  0
 24 21  1  0  0  0  0
 26 30  1  0  0  0  0
 27 33  1  0  0  0  0
 28 27  1  0  0  0  0
 29 31  1  0  0  0  0
 30 29  2  0  0  0  0
 30 32  1  0  0  0  0
 31 27  2  0  0  0  0
 32 28  2  0  0  0  0
M  END
>  <MODEL>
6

>  <REMARK>
 VINA RESULT:      -8.2      2.376      6.945
  Name = 
  7 active torsions:
  status: ('A' for Active; 'I' for Inactive)
    1  A    between atoms: N_6  and  N_24
    2  A    between atoms: N_6  and  C_26
    3  A    between atoms: C_17  and  C_23
    4  A    between atoms: C_18  and  N_19
    5  A    between atoms: N_19  and  C_22
    6  A    between atoms: C_22  and  C_23
    7  A    between atoms: C_22  and  N_25
                            x       y       z     vdW  Elec       q    Type
                         _______ _______ _______ _____ _____    ______ ____

>  <TORSDO>
F 7

$$$$
=
 OpenBabel10222419443D

 33 36  0  0  1  0  0  0  0  0999 V2000
  188.6150  178.3430  140.3200 C   0  0  1  0  0  3  0  0  0  0  0  0
  189.6530  178.7150  138.1950 O   0  0  0  0  0  1  0  0  0  0  0  0
  188.4630  178.2910  138.7960 C   0  0  1  0  0  3  0  0  0  0  0  0
  189.0660  176.5580  135.9660 C   0  0  0  0  0  0  0  0  0  0  0  0
  190.1830  176.5720  135.0180 C   0  0  0  0  0  3  0  0  0  0  0  0
  187.8920  176.8590  135.4930 N   0  0  0  0  0  2  0  0  0  0  0  0
  186.7230  176.9100  136.3200 C   0  0  0  0  0  3  0  0  0  0  0  0
  191.3650  174.9960  137.4190 C   0  0  0  0  0  3  0  0  0  0  0  0
  191.3650  175.9730  135.1230 C   0  0  0  0  0  3  0  0  0  0  0  0
  191.8790  175.1140  136.1960 C   0  0  0  0  0  0  0  0  0  0  0  0
  188.1160  176.8700  138.3120 C   0  0  2  0  0  3  0  0  0  0  0  0
  189.2020  176.3180  137.4200 C   0  0  1  0  0  3  0  0  0  0  0  0
  193.0720  174.3900  135.9210 N   0  0  0  0  0  1  0  0  0  0  0  0
  190.1830  175.6350  138.0080 C   0  0  0  0  0  3  0  0  0  0  0  0
  186.8240  176.8670  137.6150 N   0  0  0  0  0  0  0  0  0  0  0  0
  186.7940  178.7880  141.7730 N   0  0  0  0  0  0  0  0  0  0  0  0
  187.3560  177.9860  140.9620 N   0  0  0  0  0  0  0  0  0  0  0  0
  184.3800  178.2390  141.6100 C   0  0  0  0  0  1  0  0  0  0  0  0
  185.5830  178.4680  142.4080 N   0  0  0  0  0  0  0  0  0  0  0  0
  186.5330  177.4650  146.0170 C   0  0  0  0  0  2  0  0  0  0  0  0
  186.7870  177.8410  144.5580 C   0  0  0  0  0  2  0  0  0  0  0  0
  184.4870  178.7840  144.5350 C   0  0  0  0  0  3  0  0  0  0  0  0
  184.3700  178.6620  146.0290 C   0  0  0  0  0  2  0  0  0  0  0  0
  185.5520  178.3470  143.8410 C   0  0  0  0  0  0  0  0  0  0  0  0
  185.7360  178.5690  146.6950 C   0  0  0  0  0  2  0  0  0  0  0  0
  189.6550  177.4150  140.7510 N   0  0  0  0  0  2  0  0  0  0  0  0
  191.2450  177.2830  144.6710 C   0  0  0  0  0  0  0  0  0  0  0  0
  191.1230  176.1120  143.9180 C   0  0  0  0  0  3  0  0  0  0  0  0
  190.3190  178.5610  142.8350 C   0  0  0  0  0  3  0  0  0  0  0  0
  190.1880  177.3860  142.0780 C   0  0  0  0  0  0  0  0  0  0  0  0
  190.8450  178.5070  144.1300 C   0  0  0  0  0  3  0  0  0  0  0  0
  190.5960  176.1650  142.6230 C   0  0  0  0  0  3  0  0  0  0  0  0
  191.7660  177.2290  145.9570 O   0  0  0  0  0  1  0  0  0  0  0  0
  1 26  1  1  0  0  0
  1 17  1  0  0  0  0
  3  2  1  6  0  0  0
  3  1  1  0  0  0  0
  4 12  1  0  0  0  0
  5  9  1  0  0  0  0
  5  4  2  0  0  0  0
  6  4  1  0  0  0  0
  6  7  1  0  0  0  0
  7 15  2  0  0  0  0
  8 14  2  0  0  0  0
  9 10  2  0  0  0  0
 10  8  1  0  0  0  0
 11  3  1  6  0  0  0
 12 14  1  6  0  0  0
 12 11  1  0  0  0  0
 13 10  1  0  0  0  0
 15 11  1  0  0  0  0
 16 19  1  0  0  0  0
 17 16  2  0  0  0  0
 18 19  1  0  0  0  0
 19 24  1  0  0  0  0
 20 25  1  0  0  0  0
 21 20  1  0  0  0  0
 22 23  1  0  0  0  0
 23 25  1  0  0  0  0
 24 22  2  0  0  0  0
 24 21  1  0  0  0  0
 26 30  1  0  0  0  0
 27 33  1  0  0  0  0
 28 27  2  0  0  0  0
 29 31  2  0  0  0  0
 30 32  2  0  0  0  0
 30 29  1  0  0  0  0
 31 27  1  0  0  0  0
 32 28  1  0  0  0  0
M  END
>  <MODEL>
7

>  <REMARK>
 VINA RESULT:      -8.2      2.259      6.885
  Name = 
  7 active torsions:
  status: ('A' for Active; 'I' for Inactive)
    1  A    between atoms: N_6  and  N_24
    2  A    between atoms: N_6  and  C_26
    3  A    between atoms: C_17  and  C_23
    4  A    between atoms: C_18  and  N_19
    5  A    between atoms: N_19  and  C_22
    6  A    between atoms: C_22  and  C_23
    7  A    between atoms: C_22  and  N_25
                            x       y       z     vdW  Elec       q    Type
                         _______ _______ _______ _____ _____    ______ ____

>  <TORSDO>
F 7

$$$$
=
 OpenBabel10222419443D

 33 36  0  0  1  0  0  0  0  0999 V2000
  187.9840  177.9420  141.4600 C   0  0  1  0  0  3  0  0  0  0  0  0
  189.3980  178.8370  143.1730 O   0  0  0  0  0  1  0  0  0  0  0  0
  189.2360  177.7390  142.3220 C   0  0  1  0  0  3  0  0  0  0  0  0
  190.4470  176.7820  145.3210 C   0  0  0  0  0  0  0  0  0  0  0  0
  190.7210  177.5200  146.5560 C   0  0  0  0  0  2  0  0  0  0  0  0
  191.4580  176.1870  144.7590 N   0  0  0  0  0  2  0  0  0  0  0  0
  191.3310  175.4570  143.5320 C   0  0  0  0  0  3  0  0  0  0  0  0
  187.6260  177.2580  146.6060 C   0  0  0  0  0  3  0  0  0  0  0  0
  189.8660  177.8920  147.5050 C   0  0  0  0  0  3  0  0  0  0  0  0
  188.4210  177.6510  147.5990 C   0  0  0  0  0  0  0  0  0  0  0  0
  189.1430  176.4460  143.1550 C   0  0  2  0  0  3  0  0  0  0  0  0
  189.1360  176.7510  144.6340 C   0  0  0  0  0  0  0  0  0  0  0  0
  187.8070  177.9250  148.8520 N   0  0  0  0  0  1  0  0  0  0  0  0
  187.9510  176.9410  145.2110 C   0  0  0  0  0  3  0  0  0  0  0  0
  190.2470  175.5390  142.8200 N   0  0  0  0  0  0  0  0  0  0  0  0
  185.8820  177.9970  142.5570 N   0  0  0  0  0  0  0  0  0  0  0  0
  186.9460  178.6130  142.2320 N   0  0  0  0  0  0  0  0  0  0  0  0
  185.1700  179.2150  144.5980 C   0  0  0  0  0  1  0  0  0  0  0  0
  184.8650  178.6210  143.2980 N   0  0  0  0  0  0  0  0  0  0  0  0
  181.9520  178.6690  140.7590 C   0  0  0  0  0  2  0  0  0  0  0  0
  183.3190  178.2670  141.3100 C   0  0  0  0  0  2  0  0  0  0  0  0
  182.4940  179.0020  143.5360 C   0  0  0  0  0  3  0  0  0  0  0  0
  181.0830  179.1200  143.0290 C   0  0  0  0  0  2  0  0  0  0  0  0
  183.5360  178.6850  142.7490 C   0  0  0  0  0  0  0  0  0  0  0  0
  180.8700  178.3010  141.7630 C   0  0  0  0  0  2  0  0  0  0  0  0
  188.3100  178.7480  140.2890 N   0  0  0  0  0  2  0  0  0  0  0  0
  188.2410  177.2610  136.3260 C   0  0  0  0  0  0  0  0  0  0  0  0
  189.4530  177.6050  136.9320 C   0  0  0  0  0  3  0  0  0  0  0  0
  187.0560  177.8940  138.3400 C   0  0  0  0  0  3  0  0  0  0  0  0
  188.2700  178.2470  138.9490 C   0  0  0  0  0  0  0  0  0  0  0  0
  187.0430  177.4040  137.0310 C   0  0  0  0  0  3  0  0  0  0  0  0
  189.4670  178.0950  138.2420 C   0  0  0  0  0  3  0  0  0  0  0  0
  188.2290  176.7760  135.0260 O   0  0  0  0  0  1  0  0  0  0  0  0
  1 26  1  6  0  0  0
  1 17  1  0  0  0  0
  1  3  1  0  0  0  0
  3  2  1  1  0  0  0
  4  5  1  0  0  0  0
  5  9  1  0  0  0  0
  6  4  1  0  0  0  0
  7  6  1  0  0  0  0
  8 10  1  0  0  0  0
  9 10  2  0  0  0  0
 10 13  1  0  0  0  0
 11  3  1  6  0  0  0
 11 12  1  0  0  0  0
 12 14  1  0  0  0  0
 12  4  2  0  0  0  0
 14  8  2  0  0  0  0
 15 11  1  0  0  0  0
 15  7  2  0  0  0  0
 16 19  1  0  0  0  0
 17 16  2  0  0  0  0
 19 18  1  0  0  0  0
 20 21  1  0  0  0  0
 20 25  1  0  0  0  0
 21 24  1  0  0  0  0
 23 22  1  0  0  0  0
 24 19  1  0  0  0  0
 24 22  2  0  0  0  0
 25 23  1  0  0  0  0
 27 28  2  0  0  0  0
 27 31  1  0  0  0  0
 28 32  1  0  0  0  0
 29 30  1  0  0  0  0
 30 26  1  0  0  0  0
 31 29  2  0  0  0  0
 32 30  2  0  0  0  0
 33 27  1  0  0  0  0
M  END
>  <MODEL>
8

>  <REMARK>
 VINA RESULT:      -8.0      1.683      2.486
  Name = 
  7 active torsions:
  status: ('A' for Active; 'I' for Inactive)
    1  A    between atoms: N_6  and  N_24
    2  A    between atoms: N_6  and  C_26
    3  A    between atoms: C_17  and  C_23
    4  A    between atoms: C_18  and  N_19
    5  A    between atoms: N_19  and  C_22
    6  A    between atoms: C_22  and  C_23
    7  A    between atoms: C_22  and  N_25
                            x       y       z     vdW  Elec       q    Type
                         _______ _______ _______ _____ _____    ______ ____

>  <TORSDO>
F 7

$$$$
=
 OpenBabel10222419443D

 33 36  0  0  1  0  0  0  0  0999 V2000
  189.2690  177.8860  140.2950 C   0  0  1  0  0  3  0  0  0  0  0  0
  188.2420  176.2190  138.9160 O   0  0  0  0  0  1  0  0  0  0  0  0
  189.0240  177.3790  138.8700 C   0  0  1  0  0  3  0  0  0  0  0  0
  186.8890  177.2560  136.2620 C   0  0  0  0  0  0  0  0  0  0  0  0
  185.8340  176.3090  135.8930 C   0  0  0  0  0  3  0  0  0  0  0  0
  187.8640  177.4060  135.4140 N   0  0  0  0  0  2  0  0  0  0  0  0
  188.9720  178.2790  135.6680 C   0  0  0  0  0  3  0  0  0  0  0  0
  184.5060  177.9240  138.1890 C   0  0  0  0  0  3  0  0  0  0  0  0
  184.5910  176.2320  136.3570 C   0  0  0  0  0  3  0  0  0  0  0  0
  183.9150  177.0810  137.3460 C   0  0  0  0  0  0  0  0  0  0  0  0
  188.3220  178.4430  138.0050 C   0  0  2  0  0  3  0  0  0  0  0  0
  186.9610  177.9700  137.5570 C   0  0  1  0  0  3  0  0  0  0  0  0
  182.5030  176.9390  137.4530 N   0  0  0  0  0  1  0  0  0  0  0  0
  185.9270  178.2540  138.3470 C   0  0  0  0  0  3  0  0  0  0  0  0
  189.1540  178.7940  136.8470 N   0  0  0  0  0  0  0  0  0  0  0  0
  187.4480  178.5620  141.6550 N   0  0  0  0  0  0  0  0  0  0  0  0
  188.1090  177.6100  141.1330 N   0  0  0  0  0  0  0  0  0  0  0  0
  185.0080  178.1570  141.8620 C   0  0  0  0  0  1  0  0  0  0  0  0
  186.3280  178.3240  142.4690 N   0  0  0  0  0  0  0  0  0  0  0  0
  185.8050  178.8220  146.2660 C   0  0  0  0  0  2  0  0  0  0  0  0
  185.3850  178.6890  144.8030 C   0  0  0  0  0  2  0  0  0  0  0  0
  187.5940  177.6220  144.4000 C   0  0  0  0  0  3  0  0  0  0  0  0
  187.8630  177.5080  145.8750 C   0  0  0  0  0  2  0  0  0  0  0  0
  186.5040  178.2230  143.8930 C   0  0  0  0  0  0  0  0  0  0  0  0
  186.5770  177.5820  146.6880 C   0  0  0  0  0  2  0  0  0  0  0  0
  190.4410  177.2300  140.8650 N   0  0  0  0  0  2  0  0  0  0  0  0
  191.3670  177.2120  144.9940 C   0  0  0  0  0  0  0  0  0  0  0  0
  191.1630  176.0110  144.3110 C   0  0  0  0  0  3  0  0  0  0  0  0
  190.9650  178.4450  142.9500 C   0  0  0  0  0  3  0  0  0  0  0  0
  190.7520  177.2410  142.2610 C   0  0  0  0  0  0  0  0  0  0  0  0
  191.2700  178.4290  144.3140 C   0  0  0  0  0  3  0  0  0  0  0  0
  190.8580  176.0260  142.9460 C   0  0  0  0  0  3  0  0  0  0  0  0
  191.6690  177.1970  146.3490 O   0  0  0  0  0  1  0  0  0  0  0  0
  1 26  1  1  0  0  0
  1 17  1  0  0  0  0
  3  2  1  1  0  0  0
  3  1  1  0  0  0  0
  4 12  1  0  0  0  0
  5  4  2  0  0  0  0
  5  9  1  0  0  0  0
  6  7  1  0  0  0  0
  6  4  1  0  0  0  0
  7 15  2  0  0  0  0
  8 14  2  0  0  0  0
  9 10  2  0  0  0  0
 10 13  1  0  0  0  0
 10  8  1  0  0  0  0
 11  3  1  6  0  0  0
 12 11  1  0  0  0  0
 12 14  1  6  0  0  0
 15 11  1  0  0  0  0
 16 19  1  0  0  0  0
 17 16  2  0  0  0  0
 18 19  1  0  0  0  0
 19 24  1  0  0  0  0
 20 25  1  0  0  0  0
 21 20  1  0  0  0  0
 22 23  1  0  0  0  0
 23 25  1  0  0  0  0
 24 22  2  0  0  0  0
 24 21  1  0  0  0  0
 26 30  1  0  0  0  0
 27 33  1  0  0  0  0
 28 27  2  0  0  0  0
 29 31  2  0  0  0  0
 30 32  2  0  0  0  0
 30 29  1  0  0  0  0
 31 27  1  0  0  0  0
 32 28  1  0  0  0  0
M  END
>  <MODEL>
9

>  <REMARK>
 VINA RESULT:      -7.9      2.505      6.604
  Name = 
  7 active torsions:
  status: ('A' for Active; 'I' for Inactive)
    1  A    between atoms: N_6  and  N_24
    2  A    between atoms: N_6  and  C_26
    3  A    between atoms: C_17  and  C_23
    4  A    between atoms: C_18  and  N_19
    5  A    between atoms: N_19  and  C_22
    6  A    between atoms: C_22  and  C_23
    7  A    between atoms: C_22  and  N_25
                            x       y       z     vdW  Elec       q    Type
                         _______ _______ _______ _____ _____    ______ ____

>  <TORSDO>
F 7

$$$$
