=
 OpenBabel10222418133D

 45 50  0  0  1  0  0  0  0  0999 V2000
  190.2870  177.9250  142.6480 C   0  0  0  0  0  2  0  0  0  0  0  0
  191.6680  177.6720  142.6700 C   0  0  0  0  0  3  0  0  0  0  0  0
  188.8480  177.8790  140.5750 C   0  0  0  0  0  0  0  0  0  0  0  0
  190.6780  177.3480  139.3230 N   0  0  0  0  0  0  0  0  0  0  0  0
  189.3350  177.5940  139.2840 C   0  0  0  0  0  0  0  0  0  0  0  0
  189.9170  177.7920  141.3720 N   0  0  0  0  0  0  0  0  0  0  0  0
  192.1070  177.3870  141.3600 C   0  0  0  0  0  3  0  0  0  0  0  0
  190.9480  177.4890  140.6340 C   0  0  0  0  0  0  0  0  0  0  0  0
  184.9260  178.8350  141.8520 C   0  0  0  0  0  3  0  0  0  0  0  0
  187.1330  178.0830  142.3310 N   0  0  0  0  0  0  0  0  0  0  0  0
  185.8810  178.3840  142.7660 C   0  0  0  0  0  0  0  0  0  0  0  0
  186.5570  178.6440  140.1240 N   0  0  0  0  0  0  0  0  0  0  0  0
  185.2940  178.9580  140.5130 C   0  0  0  0  0  3  0  0  0  0  0  0
  187.4810  178.2100  141.0240 C   0  0  0  0  0  0  0  0  0  0  0  0
  184.3740  178.4390  144.5970 O   0  0  0  0  0  0  0  0  0  0  0  0
  185.5490  178.2260  144.1900 C   0  0  0  0  0  0  0  0  0  0  0  0
  186.5650  177.8220  145.1120 N   0  0  0  0  0  2  0  0  0  0  0  0
  186.3170  177.6700  146.5370 C   0  0  0  0  0  2  0  0  0  0  0  0
  187.4430  178.1920  147.2910 N   0  0  0  0  0  2  0  0  0  0  0  0
  188.1590  177.0830  147.7620 N   0  0  0  0  0  2  0  0  0  0  0  0
  189.5630  177.4580  147.7770 C   0  0  0  0  0  2  0  0  0  0  0  0
  191.9430  175.9960  145.4120 O   0  0  0  0  0  0  0  0  0  0  0  0
  190.1980  177.0340  146.5390 N   0  0  0  0  0  2  0  0  0  0  0  0
  191.4450  176.3370  146.5160 C   0  0  0  0  0  0  0  0  0  0  0  0
  192.1690  176.0060  147.7760 C   0  0  0  0  0  1  0  0  0  0  0  0
  188.5640  177.5560  137.9970 C   0  0  2  0  0  3  0  0  0  0  0  0
  188.2710  175.3890  136.8110 C   0  0  1  0  0  3  0  0  0  0  0  0
  189.4980  175.2760  137.7190 C   0  0  2  0  0  3  0  0  0  0  0  0
  189.1890  176.5780  137.0120 C   0  0  2  0  0  3  0  0  0  0  0  0
  188.4920  174.8410  135.5450 O   0  0  0  0  0  1  0  0  0  0  0  0
  190.7050  174.6160  137.0620 C   0  0  0  0  0  2  0  0  0  0  0  0
  191.8250  174.7510  137.8870 O   0  0  0  0  0  0  0  0  0  0  0  0
  192.9970  175.5540  136.9570 P   0  0  2  0  0  0  0  0  0  0  0  0
  193.5410  176.7350  137.7330 O   0  0  0  0  0  1  0  0  0  0  0  0
  192.2660  176.1210  135.5420 O   0  0  0  0  0  0  0  0  0  0  0  0
  195.7110  175.1300  136.4130 C   0  0  0  0  0  2  0  0  0  0  0  0
  194.3470  173.2310  137.3290 O   0  0  0  0  0  0  0  0  0  0  0  0
  196.8330  174.2440  136.9260 C   0  0  1  0  0  3  0  0  0  0  0  0
  198.0290  174.9600  136.9200 O   0  0  0  0  0  1  0  0  0  0  0  0
  195.1360  173.1990  138.5230 C   0  0  2  0  0  3  0  0  0  0  0  0
  195.5710  174.5300  139.1290 C   0  0  0  0  0  2  0  0  0  0  0  0
  196.5710  173.6930  138.3340 C   0  0  2  0  0  3  0  0  0  0  0  0
  194.3670  174.4200  136.5470 C   0  0  1  0  0  3  0  0  0  0  0  0
  187.3570  178.7910  136.6110 C   0  0  0  0  0  1  0  0  0  0  0  0
  188.4830  178.8320  137.4340 O   0  0  0  0  0  0  0  0  0  0  0  0
  1  2  1  0  0  0  0
  3 14  1  0  0  0  0
  3  6  1  0  0  0  0
  4  8  2  0  0  0  0
  5  4  1  0  0  0  0
  5  3  2  0  0  0  0
  6  1  1  0  0  0  0
  7  2  2  0  0  0  0
  8  7  1  0  0  0  0
  8  6  1  0  0  0  0
  9 11  2  0  0  0  0
 10 11  1  0  0  0  0
 11 16  1  0  0  0  0
 12 13  2  0  0  0  0
 12 14  1  0  0  0  0
 13  9  1  0  0  0  0
 14 10  2  0  0  0  0
 16 15  2  0  0  0  0
 16 17  1  0  0  0  0
 17 18  1  0  0  0  0
 18 19  1  0  0  0  0
 19 20  1  0  0  0  0
 20 21  1  0  0  0  0
 22 24  2  0  0  0  0
 23 21  1  0  0  0  0
 24 23  1  0  0  0  0
 24 25  1  0  0  0  0
 26 45  1  6  0  0  0
 26  5  1  0  0  0  0
 27 30  1  6  0  0  0
 27 29  1  0  0  0  0
 27 28  1  0  0  0  0
 28 31  1  6  0  0  0
 29 28  1  0  0  0  0
 29 26  1  1  0  0  0
 31 32  1  0  0  0  0
 33 35  2  6  0  0  0
 33 34  1  0  0  0  0
 33 32  1  0  0  0  0
 36 43  1  0  0  0  0
 36 38  1  0  0  0  0
 37 40  1  0  0  0  0
 38 39  1  1  0  0  0
 38 42  1  0  0  0  0
 40 41  1  1  0  0  0
 42 40  1  0  0  0  0
 42 41  1  1  0  0  0
 43 33  1  1  0  0  0
 43 37  1  0  0  0  0
 44 45  1  0  0  0  0
M  END
>  <MODEL>
1

>  <REMARK>
 VINA RESULT:      -8.3      0.000      0.000
  Name = 
  14 active torsions:
  status: ('A' for Active; 'I' for Inactive)
    1  A    between atoms: N_2  and  C_34
    2  A    between atoms: N_2  and  N_37
    3  A    between atoms: P_6  and  O_21
    4  A    between atoms: P_6  and  C_45
    5  A    between atoms: N_7  and  C_34
    6  A    between atoms: C_11  and  O_21
    7  A    between atoms: C_11  and  C_22
    8  A    between atoms: C_12  and  C_29
    9  A    between atoms: C_20  and  C_36
   10  A    between atoms: O_26  and  C_33
   11  A    between atoms: C_27  and  C_33
   12  A    between atoms: C_30  and  C_33
   13  A    between atoms: N_35  and  C_39
   14  A    between atoms: N_37  and  C_39
                            x       y       z     vdW  Elec       q    Type
                         _______ _______ _______ _____ _____    ______ ____

>  <TORSDO>
F 14

$$$$
=
 OpenBabel10222418133D

 45 50  0  0  1  0  0  0  0  0999 V2000
  180.9830  174.4150  137.9400 C   0  0  0  0  0  2  0  0  0  0  0  0
  179.7960  174.1770  138.6520 C   0  0  0  0  0  3  0  0  0  0  0  0
  182.6720  176.1990  138.5160 C   0  0  0  0  0  0  0  0  0  0  0  0
  181.3830  176.8420  140.2820 N   0  0  0  0  0  0  0  0  0  0  0  0
  182.5400  177.0890  139.6010 C   0  0  0  0  0  0  0  0  0  0  0  0
  181.5840  175.4260  138.5710 N   0  0  0  0  0  0  0  0  0  0  0  0
  179.7110  175.0850  139.7280 C   0  0  0  0  0  3  0  0  0  0  0  0
  180.8650  175.8140  139.5880 C   0  0  0  0  0  0  0  0  0  0  0  0
  185.7270  175.8860  135.5990 C   0  0  0  0  0  3  0  0  0  0  0  0
  184.7360  175.1750  137.6440 N   0  0  0  0  0  0  0  0  0  0  0  0
  185.7270  175.0540  136.7230 C   0  0  0  0  0  0  0  0  0  0  0  0
  183.7320  176.9060  136.4140 N   0  0  0  0  0  0  0  0  0  0  0  0
  184.7010  176.8210  135.4660 C   0  0  0  0  0  3  0  0  0  0  0  0
  183.7390  176.0880  137.5010 C   0  0  0  0  0  0  0  0  0  0  0  0
  186.5110  172.9220  137.4030 O   0  0  0  0  0  0  0  0  0  0  0  0
  186.7870  174.0540  136.9220 C   0  0  0  0  0  0  0  0  0  0  0  0
  188.1340  174.3720  136.5590 N   0  0  0  0  0  2  0  0  0  0  0  0
  189.2370  173.4430  136.7500 C   0  0  0  0  0  2  0  0  0  0  0  0
  190.2460  174.0470  137.6020 N   0  0  0  0  0  2  0  0  0  0  0  0
  190.3660  175.3840  137.1980 N   0  0  0  0  0  2  0  0  0  0  0  0
  190.4520  176.1880  138.4050 C   0  0  0  0  0  2  0  0  0  0  0  0
  189.0170  179.4970  137.7850 O   0  0  0  0  0  0  0  0  0  0  0  0
  190.3210  177.5970  138.0690 N   0  0  0  0  0  2  0  0  0  0  0  0
  189.0640  178.2760  138.0850 C   0  0  0  0  0  0  0  0  0  0  0  0
  187.8060  177.5660  138.4510 C   0  0  0  0  0  1  0  0  0  0  0  0
  183.4800  178.1850  140.0120 C   0  0  2  0  0  3  0  0  0  0  0  0
  183.9540  178.9110  142.3420 C   0  0  1  0  0  3  0  0  0  0  0  0
  185.2800  178.8570  141.5790 C   0  0  2  0  0  3  0  0  0  0  0  0
  184.1990  177.8330  141.3060 C   0  0  2  0  0  3  0  0  0  0  0  0
  184.0520  178.3560  143.6210 O   0  0  0  0  0  1  0  0  0  0  0  0
  186.4190  178.1990  142.3480 C   0  0  0  0  0  2  0  0  0  0  0  0
  187.6470  178.6290  141.8360 O   0  0  0  0  0  0  0  0  0  0  0  0
  188.8220  177.6170  142.5270 P   0  0  2  0  0  0  0  0  0  0  0  0
  190.0210  177.5260  141.6070 O   0  0  0  0  0  0  0  0  0  0  0  0
  188.1610  176.0730  142.7150 O   0  0  0  0  0  1  0  0  0  0  0  0
  188.9080  177.4060  145.3180 C   0  0  0  0  0  2  0  0  0  0  0  0
  190.7080  178.7060  144.1450 O   0  0  0  0  0  0  0  0  0  0  0  0
  189.9620  177.4120  146.4120 C   0  0  1  0  0  3  0  0  0  0  0  0
  189.6000  176.5090  147.4100 O   0  0  0  0  0  1  0  0  0  0  0  0
  191.7070  177.7780  144.5830 C   0  0  2  0  0  3  0  0  0  0  0  0
  191.3530  176.2940  144.5850 C   0  0  0  0  0  2  0  0  0  0  0  0
  191.3670  177.0740  145.8980 C   0  0  2  0  0  3  0  0  0  0  0  0
  189.3520  178.2760  144.1450 C   0  0  1  0  0  3  0  0  0  0  0  0
  182.6220  179.8560  138.8400 C   0  0  0  0  0  1  0  0  0  0  0  0
  182.7960  179.3950  140.1450 O   0  0  0  0  0  0  0  0  0  0  0  0
  1  6  1  0  0  0  0
  1  2  1  0  0  0  0
  2  7  2  0  0  0  0
  3  6  1  0  0  0  0
  3  5  2  0  0  0  0
  5 26  1  0  0  0  0
  5  4  1  0  0  0  0
  6  8  1  0  0  0  0
  8  7  1  0  0  0  0
  8  4  2  0  0  0  0
  9 11  2  0  0  0  0
 11 16  1  0  0  0  0
 11 10  1  0  0  0  0
 12 14  1  0  0  0  0
 13  9  1  0  0  0  0
 13 12  2  0  0  0  0
 14 10  2  0  0  0  0
 14  3  1  0  0  0  0
 16 15  2  0  0  0  0
 17 18  1  0  0  0  0
 17 16  1  0  0  0  0
 18 19  1  0  0  0  0
 20 19  1  0  0  0  0
 20 21  1  0  0  0  0
 22 24  2  0  0  0  0
 23 24  1  0  0  0  0
 23 21  1  0  0  0  0
 24 25  1  0  0  0  0
 26 45  1  1  0  0  0
 27 30  1  1  0  0  0
 28 27  1  0  0  0  0
 28 31  1  1  0  0  0
 29 26  1  6  0  0  0
 29 28  1  0  0  0  0
 29 27  1  0  0  0  0
 32 31  1  0  0  0  0
 32 33  1  0  0  0  0
 33 34  2  6  0  0  0
 33 35  1  0  0  0  0
 36 38  1  0  0  0  0
 37 43  1  0  0  0  0
 37 40  1  0  0  0  0
 38 39  1  1  0  0  0
 40 41  1  6  0  0  0
 40 42  1  0  0  0  0
 42 41  1  6  0  0  0
 42 38  1  0  0  0  0
 43 33  1  6  0  0  0
 43 36  1  0  0  0  0
 44 45  1  0  0  0  0
M  END
>  <MODEL>
2

>  <REMARK>
 VINA RESULT:      -8.2      4.610      8.874
  Name = 
  14 active torsions:
  status: ('A' for Active; 'I' for Inactive)
    1  A    between atoms: N_2  and  C_34
    2  A    between atoms: N_2  and  N_37
    3  A    between atoms: P_6  and  O_21
    4  A    between atoms: P_6  and  C_45
    5  A    between atoms: N_7  and  C_34
    6  A    between atoms: C_11  and  O_21
    7  A    between atoms: C_11  and  C_22
    8  A    between atoms: C_12  and  C_29
    9  A    between atoms: C_20  and  C_36
   10  A    between atoms: O_26  and  C_33
   11  A    between atoms: C_27  and  C_33
   12  A    between atoms: C_30  and  C_33
   13  A    between atoms: N_35  and  C_39
   14  A    between atoms: N_37  and  C_39
                            x       y       z     vdW  Elec       q    Type
                         _______ _______ _______ _____ _____    ______ ____

>  <TORSDO>
F 14

$$$$
=
 OpenBabel10222418133D

 45 50  0  0  1  0  0  0  0  0999 V2000
  190.2360  177.9230  142.4360 C   0  0  0  0  0  2  0  0  0  0  0  0
  191.6060  177.6120  142.4280 C   0  0  0  0  0  3  0  0  0  0  0  0
  188.7150  177.7650  140.4280 C   0  0  0  0  0  0  0  0  0  0  0  0
  190.4700  177.0520  139.1610 N   0  0  0  0  0  0  0  0  0  0  0  0
  189.1380  177.3520  139.1490 C   0  0  0  0  0  0  0  0  0  0  0  0
  189.8110  177.7000  141.1900 N   0  0  0  0  0  0  0  0  0  0  0  0
  191.9800  177.1990  141.1330 C   0  0  0  0  0  3  0  0  0  0  0  0
  190.7980  177.2910  140.4430 C   0  0  0  0  0  0  0  0  0  0  0  0
  184.8890  178.9980  141.7610 C   0  0  0  0  0  3  0  0  0  0  0  0
  187.0700  178.1600  142.2190 N   0  0  0  0  0  0  0  0  0  0  0  0
  185.8500  178.5500  142.6720 C   0  0  0  0  0  0  0  0  0  0  0  0
  186.4520  178.6220  140.0010 N   0  0  0  0  0  0  0  0  0  0  0  0
  185.2200  179.0240  140.4070 C   0  0  0  0  0  3  0  0  0  0  0  0
  187.3820  178.1930  140.8960 C   0  0  0  0  0  0  0  0  0  0  0  0
  184.6740  179.2430  144.6120 O   0  0  0  0  0  0  0  0  0  0  0  0
  185.5560  178.4930  144.1120 C   0  0  0  0  0  0  0  0  0  0  0  0
  186.2740  177.5760  144.9430 N   0  0  0  0  0  2  0  0  0  0  0  0
  186.0550  177.4810  146.3780 C   0  0  0  0  0  2  0  0  0  0  0  0
  187.0020  178.3320  147.0760 N   0  0  0  0  0  2  0  0  0  0  0  0
  187.9460  177.4820  147.6680 N   0  0  0  0  0  2  0  0  0  0  0  0
  189.2030  177.6880  146.9670 C   0  0  0  0  0  2  0  0  0  0  0  0
  192.4150  176.3060  148.0470 O   0  0  0  0  0  0  0  0  0  0  0  0
  190.3100  177.2570  147.8060 N   0  0  0  0  0  2  0  0  0  0  0  0
  191.4900  176.6560  147.2690 C   0  0  0  0  0  0  0  0  0  0  0  0
  191.6470  176.4350  145.8030 C   0  0  0  0  0  1  0  0  0  0  0  0
  188.3150  177.2400  137.8990 C   0  0  2  0  0  3  0  0  0  0  0  0
  188.8420  175.3060  136.4270 C   0  0  1  0  0  3  0  0  0  0  0  0
  187.3780  175.6910  136.2040 C   0  0  2  0  0  3  0  0  0  0  0  0
  187.9910  175.7860  137.5850 C   0  0  2  0  0  3  0  0  0  0  0  0
  189.0210  173.9230  136.5250 O   0  0  0  0  0  1  0  0  0  0  0  0
  186.4190  174.5080  136.1550 C   0  0  0  0  0  2  0  0  0  0  0  0
  185.1050  174.9680  136.0380 O   0  0  0  0  0  0  0  0  0  0  0  0
  184.1850  174.0380  137.1200 P   0  0  2  0  0  0  0  0  0  0  0  0
  185.1050  173.1960  137.9780 O   0  0  0  0  0  1  0  0  0  0  0  0
  183.1790  173.0120  136.2290 O   0  0  0  0  0  0  0  0  0  0  0  0
  183.5850  176.5920  138.0980 C   0  0  0  0  0  2  0  0  0  0  0  0
  181.7930  174.8340  138.1210 O   0  0  0  0  0  0  0  0  0  0  0  0
  182.3640  177.4870  138.2280 C   0  0  1  0  0  3  0  0  0  0  0  0
  182.7330  178.8120  138.0040 O   0  0  0  0  0  1  0  0  0  0  0  0
  180.9970  175.5890  137.2000 C   0  0  2  0  0  3  0  0  0  0  0  0
  181.7120  176.3070  136.0590 C   0  0  0  0  0  2  0  0  0  0  0  0
  181.2290  177.1000  137.2710 C   0  0  2  0  0  3  0  0  0  0  0  0
  183.1840  175.1230  138.1940 C   0  0  1  0  0  3  0  0  0  0  0  0
  188.8660  179.2100  137.0530 C   0  0  0  0  0  1  0  0  0  0  0  0
  188.9720  177.8380  136.8220 O   0  0  0  0  0  0  0  0  0  0  0  0
  2  1  1  0  0  0  0
  3 14  1  0  0  0  0
  3  6  1  0  0  0  0
  4  8  2  0  0  0  0
  5  4  1  0  0  0  0
  5  3  2  0  0  0  0
  6  1  1  0  0  0  0
  7  2  2  0  0  0  0
  8  7  1  0  0  0  0
  8  6  1  0  0  0  0
  9 11  2  0  0  0  0
 10 11  1  0  0  0  0
 11 16  1  0  0  0  0
 12 13  2  0  0  0  0
 12 14  1  0  0  0  0
 13  9  1  0  0  0  0
 14 10  2  0  0  0  0
 16 15  2  0  0  0  0
 16 17  1  0  0  0  0
 17 18  1  0  0  0  0
 18 19  1  0  0  0  0
 19 20  1  0  0  0  0
 21 20  1  0  0  0  0
 21 23  1  0  0  0  0
 24 23  1  0  0  0  0
 24 22  2  0  0  0  0
 25 24  1  0  0  0  0
 26 45  1  6  0  0  0
 26  5  1  0  0  0  0
 27 30  1  1  0  0  0
 27 29  1  0  0  0  0
 28 31  1  1  0  0  0
 28 27  1  0  0  0  0
 28 29  1  0  0  0  0
 29 26  1  6  0  0  0
 32 31  1  0  0  0  0
 32 33  1  0  0  0  0
 33 35  2  6  0  0  0
 33 34  1  0  0  0  0
 36 43  1  0  0  0  0
 36 38  1  0  0  0  0
 37 43  1  0  0  0  0
 38 39  1  6  0  0  0
 40 41  1  6  0  0  0
 40 42  1  0  0  0  0
 40 37  1  0  0  0  0
 42 41  1  6  0  0  0
 42 38  1  0  0  0  0
 43 33  1  6  0  0  0
 45 44  1  0  0  0  0
M  END
>  <MODEL>
3

>  <REMARK>
 VINA RESULT:      -8.0      3.299      6.550
  Name = 
  14 active torsions:
  status: ('A' for Active; 'I' for Inactive)
    1  A    between atoms: N_2  and  C_34
    2  A    between atoms: N_2  and  N_37
    3  A    between atoms: P_6  and  O_21
    4  A    between atoms: P_6  and  C_45
    5  A    between atoms: N_7  and  C_34
    6  A    between atoms: C_11  and  O_21
    7  A    between atoms: C_11  and  C_22
    8  A    between atoms: C_12  and  C_29
    9  A    between atoms: C_20  and  C_36
   10  A    between atoms: O_26  and  C_33
   11  A    between atoms: C_27  and  C_33
   12  A    between atoms: C_30  and  C_33
   13  A    between atoms: N_35  and  C_39
   14  A    between atoms: N_37  and  C_39
                            x       y       z     vdW  Elec       q    Type
                         _______ _______ _______ _____ _____    ______ ____

>  <TORSDO>
F 14

$$$$
=
 OpenBabel10222418133D

 45 50  0  0  1  0  0  0  0  0999 V2000
  188.7940  178.3830  143.1190 C   0  0  0  0  0  2  0  0  0  0  0  0
  190.0540  178.1450  143.6920 C   0  0  0  0  0  3  0  0  0  0  0  0
  188.2060  177.9440  140.7050 C   0  0  0  0  0  0  0  0  0  0  0  0
  190.3260  177.1970  140.3290 N   0  0  0  0  0  0  0  0  0  0  0  0
  189.1080  177.4250  139.7550 C   0  0  0  0  0  0  0  0  0  0  0  0
  188.9040  178.0130  141.8410 N   0  0  0  0  0  0  0  0  0  0  0  0
  190.9190  177.6220  142.7080 C   0  0  0  0  0  3  0  0  0  0  0  0
  190.1110  177.5820  141.6000 C   0  0  0  0  0  0  0  0  0  0  0  0
  184.1580  179.1070  140.2590 C   0  0  0  0  0  3  0  0  0  0  0  0
  185.9720  178.4100  141.6330 N   0  0  0  0  0  0  0  0  0  0  0  0
  184.6690  178.7800  141.5170 C   0  0  0  0  0  0  0  0  0  0  0  0
  186.3040  178.6600  139.3220 N   0  0  0  0  0  0  0  0  0  0  0  0
  185.0100  179.0370  139.1570 C   0  0  0  0  0  3  0  0  0  0  0  0
  186.7930  178.3480  140.5530 C   0  0  0  0  0  0  0  0  0  0  0  0
  182.5610  178.8410  142.6010 O   0  0  0  0  0  0  0  0  0  0  0  0
  183.8170  178.8270  142.7150 C   0  0  0  0  0  0  0  0  0  0  0  0
  184.4210  178.8500  144.0110 N   0  0  0  0  0  2  0  0  0  0  0  0
  183.6430  178.9210  145.2380 C   0  0  0  0  0  2  0  0  0  0  0  0
  184.4980  178.6430  146.3790 N   0  0  0  0  0  2  0  0  0  0  0  0
  185.8140  178.6200  145.8980 N   0  0  0  0  0  2  0  0  0  0  0  0
  186.6740  178.3000  147.0260 C   0  0  0  0  0  2  0  0  0  0  0  0
  189.9570  176.6930  146.8540 O   0  0  0  0  0  0  0  0  0  0  0  0
  187.7930  177.4870  146.5760 N   0  0  0  0  0  2  0  0  0  0  0  0
  189.0260  177.4160  147.2940 C   0  0  0  0  0  0  0  0  0  0  0  0
  189.2320  178.1830  148.5550 C   0  0  0  0  0  1  0  0  0  0  0  0
  188.8550  177.1440  138.3030 C   0  0  2  0  0  3  0  0  0  0  0  0
  190.1640  175.3140  137.2430 C   0  0  1  0  0  3  0  0  0  0  0  0
  188.8170  175.4170  136.5230 C   0  0  2  0  0  3  0  0  0  0  0  0
  188.9050  175.6510  138.0170 C   0  0  2  0  0  3  0  0  0  0  0  0
  190.5300  173.9910  137.5040 O   0  0  0  0  0  1  0  0  0  0  0  0
  188.1440  174.0760  136.2580 C   0  0  0  0  0  2  0  0  0  0  0  0
  187.1140  173.8720  137.1800 O   0  0  0  0  0  0  0  0  0  0  0  0
  185.6670  174.0000  136.3020 P   0  0  2  0  0  0  0  0  0  0  0  0
  185.2330  172.6280  135.8310 O   0  0  0  0  0  1  0  0  0  0  0  0
  185.9410  174.9790  134.9510 O   0  0  0  0  0  0  0  0  0  0  0  0
  184.1500  176.2140  137.1010 C   0  0  0  0  0  2  0  0  0  0  0  0
  183.1840  173.9150  137.3900 O   0  0  0  0  0  0  0  0  0  0  0  0
  182.6820  176.5790  137.2370 C   0  0  1  0  0  3  0  0  0  0  0  0
  182.5000  177.9130  136.8790 O   0  0  0  0  0  1  0  0  0  0  0  0
  182.1300  174.2070  136.4650 C   0  0  2  0  0  3  0  0  0  0  0  0
  182.4760  175.0220  135.2230 C   0  0  0  0  0  2  0  0  0  0  0  0
  181.7590  175.6890  136.3940 C   0  0  2  0  0  3  0  0  0  0  0  0
  184.3550  174.7220  137.3450 C   0  0  1  0  0  3  0  0  0  0  0  0
  189.1450  179.0290  137.1770 C   0  0  0  0  0  1  0  0  0  0  0  0
  189.7750  177.8270  137.5020 O   0  0  0  0  0  0  0  0  0  0  0  0
  1  2  1  0  0  0  0
  3  6  1  0  0  0  0
  4  8  2  0  0  0  0
  5  4  1  0  0  0  0
  5  3  2  0  0  0  0
  6  1  1  0  0  0  0
  7  2  2  0  0  0  0
  8  6  1  0  0  0  0
  8  7  1  0  0  0  0
  9 11  2  0  0  0  0
 11 10  1  0  0  0  0
 11 16  1  0  0  0  0
 12 14  1  0  0  0  0
 13 12  2  0  0  0  0
 13  9  1  0  0  0  0
 14  3  1  0  0  0  0
 14 10  2  0  0  0  0
 15 16  2  0  0  0  0
 16 17  1  0  0  0  0
 17 18  1  0  0  0  0
 18 19  1  0  0  0  0
 20 19  1  0  0  0  0
 20 21  1  0  0  0  0
 22 24  2  0  0  0  0
 23 21  1  0  0  0  0
 23 24  1  0  0  0  0
 24 25  1  0  0  0  0
 26 45  1  6  0  0  0
 26  5  1  0  0  0  0
 27 30  1  1  0  0  0
 27 29  1  0  0  0  0
 28 31  1  1  0  0  0
 28 27  1  0  0  0  0
 28 29  1  0  0  0  0
 29 26  1  6  0  0  0
 31 32  1  0  0  0  0
 33 35  2  6  0  0  0
 33 32  1  0  0  0  0
 34 33  1  0  0  0  0
 36 38  1  0  0  0  0
 36 43  1  0  0  0  0
 38 39  1  6  0  0  0
 40 41  1  6  0  0  0
 40 37  1  0  0  0  0
 42 41  1  6  0  0  0
 42 40  1  0  0  0  0
 42 38  1  0  0  0  0
 43 33  1  6  0  0  0
 43 37  1  0  0  0  0
 44 45  1  0  0  0  0
M  END
>  <MODEL>
4

>  <REMARK>
 VINA RESULT:      -7.9      3.153      6.269
  Name = 
  14 active torsions:
  status: ('A' for Active; 'I' for Inactive)
    1  A    between atoms: N_2  and  C_34
    2  A    between atoms: N_2  and  N_37
    3  A    between atoms: P_6  and  O_21
    4  A    between atoms: P_6  and  C_45
    5  A    between atoms: N_7  and  C_34
    6  A    between atoms: C_11  and  O_21
    7  A    between atoms: C_11  and  C_22
    8  A    between atoms: C_12  and  C_29
    9  A    between atoms: C_20  and  C_36
   10  A    between atoms: O_26  and  C_33
   11  A    between atoms: C_27  and  C_33
   12  A    between atoms: C_30  and  C_33
   13  A    between atoms: N_35  and  C_39
   14  A    between atoms: N_37  and  C_39
                            x       y       z     vdW  Elec       q    Type
                         _______ _______ _______ _____ _____    ______ ____

>  <TORSDO>
F 14

$$$$
=
 OpenBabel10222418133D

 45 50  0  0  1  0  0  0  0  0999 V2000
  187.3930  177.7940  147.3270 C   0  0  0  0  0  2  0  0  0  0  0  0
  188.5270  177.4890  148.0960 C   0  0  0  0  0  3  0  0  0  0  0  0
  187.3150  177.7640  144.8040 C   0  0  0  0  0  0  0  0  0  0  0  0
  189.5070  177.1410  144.7490 N   0  0  0  0  0  0  0  0  0  0  0  0
  188.4140  177.4370  143.9850 C   0  0  0  0  0  0  0  0  0  0  0  0
  187.7720  177.6520  146.0550 N   0  0  0  0  0  0  0  0  0  0  0  0
  189.5960  177.1640  147.2360 C   0  0  0  0  0  3  0  0  0  0  0  0
  189.0250  177.2960  145.9960 C   0  0  0  0  0  0  0  0  0  0  0  0
  183.3670  178.8870  143.7630 C   0  0  0  0  0  3  0  0  0  0  0  0
  185.5190  178.0770  143.1470 N   0  0  0  0  0  0  0  0  0  0  0  0
  184.2570  178.4310  142.7870 C   0  0  0  0  0  0  0  0  0  0  0  0
  185.0820  178.6040  145.3940 N   0  0  0  0  0  0  0  0  0  0  0  0
  183.8110  178.9670  145.0820 C   0  0  0  0  0  3  0  0  0  0  0  0
  185.9390  178.1560  144.4370 C   0  0  0  0  0  0  0  0  0  0  0  0
  183.0090  177.4630  141.0180 O   0  0  0  0  0  0  0  0  0  0  0  0
  183.8490  178.3320  141.3780 C   0  0  0  0  0  0  0  0  0  0  0  0
  184.4040  179.2340  140.4160 N   0  0  0  0  0  2  0  0  0  0  0  0
  184.0660  179.1800  139.0030 C   0  0  0  0  0  2  0  0  0  0  0  0
  184.9930  178.3030  138.3100 N   0  0  0  0  0  2  0  0  0  0  0  0
  184.2920  177.7540  137.2270 N   0  0  0  0  0  2  0  0  0  0  0  0
  183.3240  176.8180  137.7760 C   0  0  0  0  0  2  0  0  0  0  0  0
  183.1820  173.8150  135.6890 O   0  0  0  0  0  0  0  0  0  0  0  0
  182.9280  175.8640  136.7530 N   0  0  0  0  0  2  0  0  0  0  0  0
  183.5730  174.5990  136.5920 C   0  0  0  0  0  0  0  0  0  0  0  0
  184.7020  174.1900  137.4750 C   0  0  0  0  0  1  0  0  0  0  0  0
  188.4670  177.4040  142.4860 C   0  0  2  0  0  3  0  0  0  0  0  0
  190.9210  177.6220  142.1420 C   0  0  1  0  0  3  0  0  0  0  0  0
  190.2630  177.4160  140.7760 C   0  0  2  0  0  3  0  0  0  0  0  0
  189.7250  176.7020  141.9980 C   0  0  2  0  0  3  0  0  0  0  0  0
  192.0800  176.8560  142.2970 O   0  0  0  0  0  1  0  0  0  0  0  0
  190.9820  176.4170  139.8780 C   0  0  0  0  0  2  0  0  0  0  0  0
  191.4470  177.0610  138.7280 O   0  0  0  0  0  0  0  0  0  0  0  0
  191.4950  175.8760  137.5140 P   0  0  2  0  0  0  0  0  0  0  0  0
  191.0670  174.5410  138.0860 O   0  0  0  0  0  1  0  0  0  0  0  0
  193.0840  175.7440  136.9520 O   0  0  0  0  0  0  0  0  0  0  0  0
  189.5490  175.1540  135.6330 C   0  0  0  0  0  2  0  0  0  0  0  0
  189.6830  177.5470  136.3820 O   0  0  0  0  0  0  0  0  0  0  0  0
  188.1670  175.6220  135.2130 C   0  0  1  0  0  3  0  0  0  0  0  0
  187.3840  174.5170  134.8800 O   0  0  0  0  0  1  0  0  0  0  0  0
  188.3760  177.4710  136.9630 C   0  0  2  0  0  3  0  0  0  0  0  0
  187.9930  176.1890  137.6970 C   0  0  0  0  0  2  0  0  0  0  0  0
  187.4560  176.4490  136.2920 C   0  0  2  0  0  3  0  0  0  0  0  0
  190.3790  176.3300  136.1430 C   0  0  1  0  0  3  0  0  0  0  0  0
  187.6450  178.5720  140.7940 C   0  0  0  0  0  1  0  0  0  0  0  0
  188.3960  178.6980  141.9630 O   0  0  0  0  0  0  0  0  0  0  0  0
  1  2  1  0  0  0  0
  3  6  1  0  0  0  0
  4  8  2  0  0  0  0
  5  4  1  0  0  0  0
  5  3  2  0  0  0  0
  6  1  1  0  0  0  0
  7  2  2  0  0  0  0
  8  6  1  0  0  0  0
  8  7  1  0  0  0  0
  9 13  1  0  0  0  0
 10 14  2  0  0  0  0
 11 10  1  0  0  0  0
 11  9  2  0  0  0  0
 13 12  2  0  0  0  0
 14  3  1  0  0  0  0
 14 12  1  0  0  0  0
 15 16  2  0  0  0  0
 16 11  1  0  0  0  0
 17 16  1  0  0  0  0
 18 17  1  0  0  0  0
 19 18  1  0  0  0  0
 20 21  1  0  0  0  0
 20 19  1  0  0  0  0
 22 24  2  0  0  0  0
 23 21  1  0  0  0  0
 24 23  1  0  0  0  0
 24 25  1  0  0  0  0
 26 45  1  6  0  0  0
 26  5  1  0  0  0  0
 27 30  1  6  0  0  0
 28 31  1  6  0  0  0
 28 29  1  0  0  0  0
 28 27  1  0  0  0  0
 29 27  1  0  0  0  0
 29 26  1  1  0  0  0
 32 31  1  0  0  0  0
 33 35  2  6  0  0  0
 33 34  1  0  0  0  0
 33 32  1  0  0  0  0
 36 43  1  0  0  0  0
 37 40  1  0  0  0  0
 38 39  1  1  0  0  0
 38 36  1  0  0  0  0
 38 42  1  0  0  0  0
 40 41  1  1  0  0  0
 42 40  1  0  0  0  0
 42 41  1  1  0  0  0
 43 37  1  0  0  0  0
 43 33  1  1  0  0  0
 44 45  1  0  0  0  0
M  END
>  <MODEL>
5

>  <REMARK>
 VINA RESULT:      -7.9      2.881      6.999
  Name = 
  14 active torsions:
  status: ('A' for Active; 'I' for Inactive)
    1  A    between atoms: N_2  and  C_34
    2  A    between atoms: N_2  and  N_37
    3  A    between atoms: P_6  and  O_21
    4  A    between atoms: P_6  and  C_45
    5  A    between atoms: N_7  and  C_34
    6  A    between atoms: C_11  and  O_21
    7  A    between atoms: C_11  and  C_22
    8  A    between atoms: C_12  and  C_29
    9  A    between atoms: C_20  and  C_36
   10  A    between atoms: O_26  and  C_33
   11  A    between atoms: C_27  and  C_33
   12  A    between atoms: C_30  and  C_33
   13  A    between atoms: N_35  and  C_39
   14  A    between atoms: N_37  and  C_39
                            x       y       z     vdW  Elec       q    Type
                         _______ _______ _______ _____ _____    ______ ____

>  <TORSDO>
F 14

$$$$
=
 OpenBabel10222418133D

 45 50  0  0  1  0  0  0  0  0999 V2000
  187.3080  177.8230  147.1830 C   0  0  0  0  0  2  0  0  0  0  0  0
  188.4280  177.4950  147.9630 C   0  0  0  0  0  3  0  0  0  0  0  0
  187.2610  177.8120  144.6590 C   0  0  0  0  0  0  0  0  0  0  0  0
  189.4430  177.1570  144.6260 N   0  0  0  0  0  0  0  0  0  0  0  0
  188.3650  177.4740  143.8520 C   0  0  0  0  0  0  0  0  0  0  0  0
  187.7010  177.6840  145.9150 N   0  0  0  0  0  0  0  0  0  0  0  0
  189.5030  177.1600  147.1140 C   0  0  0  0  0  3  0  0  0  0  0  0
  188.9490  177.3100  145.8680 C   0  0  0  0  0  0  0  0  0  0  0  0
  183.3430  179.0010  143.5780 C   0  0  0  0  0  3  0  0  0  0  0  0
  185.5110  178.2270  142.9750 N   0  0  0  0  0  0  0  0  0  0  0  0
  184.2600  178.6030  142.6020 C   0  0  0  0  0  0  0  0  0  0  0  0
  185.0120  178.6170  145.2360 N   0  0  0  0  0  0  0  0  0  0  0  0
  183.7500  179.0000  144.9110 C   0  0  0  0  0  3  0  0  0  0  0  0
  185.8960  178.2270  144.2780 C   0  0  0  0  0  0  0  0  0  0  0  0
  184.3320  179.4790  140.3990 O   0  0  0  0  0  0  0  0  0  0  0  0
  183.8910  178.5910  141.1780 C   0  0  0  0  0  0  0  0  0  0  0  0
  183.0330  177.5610  140.6800 N   0  0  0  0  0  2  0  0  0  0  0  0
  182.6060  177.4990  139.2910 C   0  0  0  0  0  2  0  0  0  0  0  0
  181.1760  177.7410  139.2060 N   0  0  0  0  0  2  0  0  0  0  0  0
  180.5800  176.9910  140.2290 N   0  0  0  0  0  2  0  0  0  0  0  0
  179.4690  177.7760  140.7400 C   0  0  0  0  0  2  0  0  0  0  0  0
  179.4100  178.3860  144.3480 O   0  0  0  0  0  0  0  0  0  0  0  0
  179.3410  177.5720  142.1740 N   0  0  0  0  0  2  0  0  0  0  0  0
  179.5370  178.6250  143.1190 C   0  0  0  0  0  0  0  0  0  0  0  0
  179.8890  180.0050  142.6780 C   0  0  0  0  0  1  0  0  0  0  0  0
  188.4360  177.4520  142.3530 C   0  0  2  0  0  3  0  0  0  0  0  0
  190.9090  177.6350  142.1560 C   0  0  1  0  0  3  0  0  0  0  0  0
  190.3210  177.5570  140.7450 C   0  0  2  0  0  3  0  0  0  0  0  0
  189.7040  176.7600  141.8750 C   0  0  2  0  0  3  0  0  0  0  0  0
  192.0420  176.8310  142.3070 O   0  0  0  0  0  1  0  0  0  0  0  0
  191.0660  176.6150  139.8070 C   0  0  0  0  0  2  0  0  0  0  0  0
  191.0350  177.1200  138.5050 O   0  0  0  0  0  0  0  0  0  0  0  0
  191.8110  175.9630  137.5340 P   0  0  2  0  0  0  0  0  0  0  0  0
  191.4800  176.2130  136.0790 O   0  0  0  0  0  0  0  0  0  0  0  0
  191.2450  174.4300  137.9670 O   0  0  0  0  0  1  0  0  0  0  0  0
  194.1750  174.8950  138.5900 C   0  0  0  0  0  2  0  0  0  0  0  0
  194.3110  176.3720  136.5640 O   0  0  0  0  0  0  0  0  0  0  0  0
  195.5490  174.4930  138.0830 C   0  0  1  0  0  3  0  0  0  0  0  0
  195.9780  173.3520  138.7590 O   0  0  0  0  0  1  0  0  0  0  0  0
  194.8130  175.2900  135.7700 C   0  0  2  0  0  3  0  0  0  0  0  0
  194.2120  173.9050  135.9880 C   0  0  0  0  0  2  0  0  0  0  0  0
  195.5830  174.2380  136.5710 C   0  0  2  0  0  3  0  0  0  0  0  0
  193.6200  176.0530  137.7650 C   0  0  1  0  0  3  0  0  0  0  0  0
  187.6380  178.6240  140.6520 C   0  0  0  0  0  1  0  0  0  0  0  0
  188.3630  178.7490  141.8380 O   0  0  0  0  0  0  0  0  0  0  0  0
  1  2  1  0  0  0  0
  3  6  1  0  0  0  0
  4  8  2  0  0  0  0
  5  4  1  0  0  0  0
  5  3  2  0  0  0  0
  6  1  1  0  0  0  0
  7  2  2  0  0  0  0
  8  6  1  0  0  0  0
  8  7  1  0  0  0  0
  9 13  1  0  0  0  0
 10 14  2  0  0  0  0
 11 10  1  0  0  0  0
 11  9  2  0  0  0  0
 13 12  2  0  0  0  0
 14  3  1  0  0  0  0
 14 12  1  0  0  0  0
 15 16  2  0  0  0  0
 16 11  1  0  0  0  0
 17 16  1  0  0  0  0
 18 17  1  0  0  0  0
 19 18  1  0  0  0  0
 19 20  1  0  0  0  0
 20 21  1  0  0  0  0
 21 23  1  0  0  0  0
 23 24  1  0  0  0  0
 24 22  2  0  0  0  0
 25 24  1  0  0  0  0
 26 45  1  1  0  0  0
 26  5  1  0  0  0  0
 27 30  1  6  0  0  0
 28 31  1  6  0  0  0
 28 29  1  0  0  0  0
 28 27  1  0  0  0  0
 29 27  1  0  0  0  0
 29 26  1  1  0  0  0
 32 31  1  0  0  0  0
 33 34  2  6  0  0  0
 33 35  1  0  0  0  0
 33 32  1  0  0  0  0
 37 43  1  0  0  0  0
 38 36  1  0  0  0  0
 38 39  1  1  0  0  0
 40 41  1  1  0  0  0
 40 37  1  0  0  0  0
 40 42  1  0  0  0  0
 42 41  1  1  0  0  0
 42 38  1  0  0  0  0
 43 33  1  6  0  0  0
 43 36  1  0  0  0  0
 44 45  1  0  0  0  0
M  END
>  <MODEL>
6

>  <REMARK>
 VINA RESULT:      -7.8      2.950      6.255
  Name = 
  14 active torsions:
  status: ('A' for Active; 'I' for Inactive)
    1  A    between atoms: N_2  and  C_34
    2  A    between atoms: N_2  and  N_37
    3  A    between atoms: P_6  and  O_21
    4  A    between atoms: P_6  and  C_45
    5  A    between atoms: N_7  and  C_34
    6  A    between atoms: C_11  and  O_21
    7  A    between atoms: C_11  and  C_22
    8  A    between atoms: C_12  and  C_29
    9  A    between atoms: C_20  and  C_36
   10  A    between atoms: O_26  and  C_33
   11  A    between atoms: C_27  and  C_33
   12  A    between atoms: C_30  and  C_33
   13  A    between atoms: N_35  and  C_39
   14  A    between atoms: N_37  and  C_39
                            x       y       z     vdW  Elec       q    Type
                         _______ _______ _______ _____ _____    ______ ____

>  <TORSDO>
F 14

$$$$
=
 OpenBabel10222418133D

 45 50  0  0  1  0  0  0  0  0999 V2000
  190.5380  176.7300  141.3660 C   0  0  0  0  0  2  0  0  0  0  0  0
  190.0520  177.3970  142.5020 C   0  0  0  0  0  3  0  0  0  0  0  0
  189.5020  176.8620  139.0680 C   0  0  0  0  0  0  0  0  0  0  0  0
  187.8980  178.2640  139.8770 N   0  0  0  0  0  0  0  0  0  0  0  0
  188.3550  177.6210  138.7630 C   0  0  0  0  0  0  0  0  0  0  0  0
  189.7170  177.0710  140.3700 N   0  0  0  0  0  0  0  0  0  0  0  0
  188.9100  178.1450  142.1470 C   0  0  0  0  0  3  0  0  0  0  0  0
  188.7870  177.8740  140.8080 C   0  0  0  0  0  0  0  0  0  0  0  0
  191.8770  174.3890  136.5820 C   0  0  0  0  0  3  0  0  0  0  0  0
  191.5430  176.4320  137.7560 N   0  0  0  0  0  0  0  0  0  0  0  0
  192.3250  175.6590  136.9580 C   0  0  0  0  0  0  0  0  0  0  0  0
  189.8860  174.7710  137.8350 N   0  0  0  0  0  0  0  0  0  0  0  0
  190.6320  173.9610  137.0400 C   0  0  0  0  0  3  0  0  0  0  0  0
  190.3330  176.0030  138.2000 C   0  0  0  0  0  0  0  0  0  0  0  0
  194.2000  177.1000  137.1240 O   0  0  0  0  0  0  0  0  0  0  0  0
  193.6260  176.1680  136.4990 C   0  0  0  0  0  0  0  0  0  0  0  0
  194.2400  175.5940  135.3420 N   0  0  0  0  0  2  0  0  0  0  0  0
  195.5130  176.0630  134.8160 C   0  0  0  0  0  2  0  0  0  0  0  0
  196.5750  175.1620  135.2270 N   0  0  0  0  0  2  0  0  0  0  0  0
  197.3300  175.8450  136.1900 N   0  0  0  0  0  2  0  0  0  0  0  0
  197.9130  174.8410  137.0650 C   0  0  0  0  0  2  0  0  0  0  0  0
  196.6040  175.2270  140.4600 O   0  0  0  0  0  0  0  0  0  0  0  0
  197.7700  175.2540  138.4520 N   0  0  0  0  0  2  0  0  0  0  0  0
  196.6720  174.8380  139.2660 C   0  0  0  0  0  0  0  0  0  0  0  0
  195.6020  173.9500  138.7270 C   0  0  0  0  0  1  0  0  0  0  0  0
  187.6630  177.7500  137.4370 C   0  0  2  0  0  3  0  0  0  0  0  0
  187.3660  176.0450  135.6520 C   0  0  1  0  0  3  0  0  0  0  0  0
  186.0120  176.7100  135.9070 C   0  0  2  0  0  3  0  0  0  0  0  0
  186.9650  176.4530  137.0550 C   0  0  2  0  0  3  0  0  0  0  0  0
  187.2630  174.6560  135.5250 O   0  0  0  0  0  1  0  0  0  0  0  0
  184.8420  175.7380  135.9910 C   0  0  0  0  0  2  0  0  0  0  0  0
  183.6630  176.4380  136.2600 O   0  0  0  0  0  0  0  0  0  0  0  0
  183.0130  175.7390  137.6640 P   0  0  2  0  0  0  0  0  0  0  0  0
  183.8020  174.5000  138.0300 O   0  0  0  0  0  1  0  0  0  0  0  0
  181.4120  175.2940  137.3530 O   0  0  0  0  0  0  0  0  0  0  0  0
  184.0950  178.0430  138.8320 C   0  0  0  0  0  2  0  0  0  0  0  0
  181.7850  177.3170  139.4970 O   0  0  0  0  0  0  0  0  0  0  0  0
  183.5870  179.3470  139.4220 C   0  0  1  0  0  3  0  0  0  0  0  0
  184.4660  180.3780  139.0950 O   0  0  0  0  0  1  0  0  0  0  0  0
  181.2180  178.5140  138.9510 C   0  0  2  0  0  3  0  0  0  0  0  0
  181.7860  179.0390  137.6360 C   0  0  0  0  0  2  0  0  0  0  0  0
  182.1720  179.7100  138.9520 C   0  0  2  0  0  3  0  0  0  0  0  0
  183.0770  176.9260  139.0490 C   0  0  1  0  0  3  0  0  0  0  0  0
  189.0470  179.3760  136.8510 C   0  0  0  0  0  1  0  0  0  0  0  0
  188.5690  178.1300  136.4440 O   0  0  0  0  0  0  0  0  0  0  0  0
  1  2  1  0  0  0  0
  3  6  1  0  0  0  0
  4  8  2  0  0  0  0
  5  3  2  0  0  0  0
  5  4  1  0  0  0  0
  6  8  1  0  0  0  0
  6  1  1  0  0  0  0
  7  2  2  0  0  0  0
  8  7  1  0  0  0  0
  9 11  2  0  0  0  0
  9 13  1  0  0  0  0
 10 14  2  0  0  0  0
 11 10  1  0  0  0  0
 12 14  1  0  0  0  0
 13 12  2  0  0  0  0
 14  3  1  0  0  0  0
 16 11  1  0  0  0  0
 16 15  2  0  0  0  0
 17 16  1  0  0  0  0
 18 19  1  0  0  0  0
 18 17  1  0  0  0  0
 19 20  1  0  0  0  0
 20 21  1  0  0  0  0
 21 23  1  0  0  0  0
 23 24  1  0  0  0  0
 24 22  2  0  0  0  0
 25 24  1  0  0  0  0
 26 45  1  6  0  0  0
 26  5  1  0  0  0  0
 27 30  1  1  0  0  0
 27 28  1  0  0  0  0
 27 29  1  0  0  0  0
 28 31  1  1  0  0  0
 28 29  1  0  0  0  0
 29 26  1  6  0  0  0
 31 32  1  0  0  0  0
 32 33  1  0  0  0  0
 33 35  2  6  0  0  0
 33 34  1  0  0  0  0
 36 43  1  0  0  0  0
 36 38  1  0  0  0  0
 38 39  1  6  0  0  0
 40 41  1  6  0  0  0
 40 42  1  0  0  0  0
 40 37  1  0  0  0  0
 42 41  1  6  0  0  0
 42 38  1  0  0  0  0
 43 33  1  6  0  0  0
 43 37  1  0  0  0  0
 45 44  1  0  0  0  0
M  END
>  <MODEL>
7

>  <REMARK>
 VINA RESULT:      -7.7      3.725      9.524
  Name = 
  14 active torsions:
  status: ('A' for Active; 'I' for Inactive)
    1  A    between atoms: N_2  and  C_34
    2  A    between atoms: N_2  and  N_37
    3  A    between atoms: P_6  and  O_21
    4  A    between atoms: P_6  and  C_45
    5  A    between atoms: N_7  and  C_34
    6  A    between atoms: C_11  and  O_21
    7  A    between atoms: C_11  and  C_22
    8  A    between atoms: C_12  and  C_29
    9  A    between atoms: C_20  and  C_36
   10  A    between atoms: O_26  and  C_33
   11  A    between atoms: C_27  and  C_33
   12  A    between atoms: C_30  and  C_33
   13  A    between atoms: N_35  and  C_39
   14  A    between atoms: N_37  and  C_39
                            x       y       z     vdW  Elec       q    Type
                         _______ _______ _______ _____ _____    ______ ____

>  <TORSDO>
F 14

$$$$
=
 OpenBabel10222418133D

 45 50  0  0  1  0  0  0  0  0999 V2000
  189.8430  177.0210  147.4180 C   0  0  0  0  0  2  0  0  0  0  0  0
  191.1460  176.5900  147.7170 C   0  0  0  0  0  3  0  0  0  0  0  0
  188.9440  177.3690  145.0860 C   0  0  0  0  0  0  0  0  0  0  0  0
  190.9540  176.7330  144.2200 N   0  0  0  0  0  0  0  0  0  0  0  0
  189.6930  177.1540  143.9110 C   0  0  0  0  0  0  0  0  0  0  0  0
  189.7770  177.0660  146.0850 N   0  0  0  0  0  0  0  0  0  0  0  0
  191.8530  176.3830  146.5150 C   0  0  0  0  0  3  0  0  0  0  0  0
  190.9170  176.7070  145.5650 C   0  0  0  0  0  0  0  0  0  0  0  0
  184.9490  178.6850  145.5800 C   0  0  0  0  0  3  0  0  0  0  0  0
  186.7250  177.9410  144.1810 N   0  0  0  0  0  0  0  0  0  0  0  0
  185.4390  178.3610  144.3120 C   0  0  0  0  0  0  0  0  0  0  0  0
  187.0850  178.1480  146.4920 N   0  0  0  0  0  0  0  0  0  0  0  0
  185.8070  178.5700  146.6730 C   0  0  0  0  0  3  0  0  0  0  0  0
  187.5510  177.8290  145.2540 C   0  0  0  0  0  0  0  0  0  0  0  0
  183.3390  178.6300  143.2440 O   0  0  0  0  0  0  0  0  0  0  0  0
  184.5840  178.4700  143.1210 C   0  0  0  0  0  0  0  0  0  0  0  0
  185.1740  178.4020  141.8190 N   0  0  0  0  0  2  0  0  0  0  0  0
  184.3890  178.4780  140.5970 C   0  0  0  0  0  2  0  0  0  0  0  0
  184.9010  179.5410  139.7500 N   0  0  0  0  0  2  0  0  0  0  0  0
  183.7910  180.1320  139.1320 N   0  0  0  0  0  2  0  0  0  0  0  0
  182.7050  179.1680  139.1950 C   0  0  0  0  0  2  0  0  0  0  0  0
  181.3590  178.7250  135.8200 O   0  0  0  0  0  0  0  0  0  0  0  0
  182.4490  178.6280  137.8690 N   0  0  0  0  0  2  0  0  0  0  0  0
  181.5360  179.2390  136.9550 C   0  0  0  0  0  0  0  0  0  0  0  0
  180.7880  180.4760  137.3200 C   0  0  0  0  0  1  0  0  0  0  0  0
  189.2500  177.3450  142.4900 C   0  0  2  0  0  3  0  0  0  0  0  0
  191.3170  177.6940  141.1510 C   0  0  1  0  0  3  0  0  0  0  0  0
  190.1630  177.4140  140.1850 C   0  0  2  0  0  3  0  0  0  0  0  0
  190.2310  176.7030  141.5200 C   0  0  2  0  0  3  0  0  0  0  0  0
  192.4810  177.0000  140.8070 O   0  0  0  0  0  1  0  0  0  0  0  0
  190.5030  176.4340  139.0700 C   0  0  0  0  0  2  0  0  0  0  0  0
  190.5970  177.1150  137.8530 O   0  0  0  0  0  0  0  0  0  0  0  0
  190.0690  176.0240  136.6630 P   0  0  2  0  0  0  0  0  0  0  0  0
  189.5870  174.7480  137.3200 O   0  0  0  0  0  1  0  0  0  0  0  0
  191.3730  175.6580  135.6520 O   0  0  0  0  0  0  0  0  0  0  0  0
  187.4380  175.9090  135.7130 C   0  0  0  0  0  2  0  0  0  0  0  0
  188.5500  178.1500  135.9340 O   0  0  0  0  0  0  0  0  0  0  0  0
  186.2060  176.7980  135.7090 C   0  0  1  0  0  3  0  0  0  0  0  0
  185.0660  176.0120  135.8630 O   0  0  0  0  0  1  0  0  0  0  0  0
  187.6020  178.5580  136.9260 C   0  0  2  0  0  3  0  0  0  0  0  0
  187.1630  177.5270  137.9630 C   0  0  0  0  0  2  0  0  0  0  0  0
  186.2380  177.8770  136.8000 C   0  0  2  0  0  3  0  0  0  0  0  0
  188.7070  176.7560  135.6930 C   0  0  1  0  0  3  0  0  0  0  0  0
  188.0150  178.7620  141.3200 C   0  0  0  0  0  1  0  0  0  0  0  0
  189.0950  178.7030  142.2020 O   0  0  0  0  0  0  0  0  0  0  0  0
  1  2  1  0  0  0  0
  3 14  1  0  0  0  0
  3  6  1  0  0  0  0
  4  8  2  0  0  0  0
  5  4  1  0  0  0  0
  5  3  2  0  0  0  0
  6  1  1  0  0  0  0
  7  2  2  0  0  0  0
  8  6  1  0  0  0  0
  8  7  1  0  0  0  0
  9 13  1  0  0  0  0
 10 11  1  0  0  0  0
 10 14  2  0  0  0  0
 11  9  2  0  0  0  0
 12 13  2  0  0  0  0
 14 12  1  0  0  0  0
 16 15  2  0  0  0  0
 16 11  1  0  0  0  0
 17 16  1  0  0  0  0
 18 17  1  0  0  0  0
 19 18  1  0  0  0  0
 20 21  1  0  0  0  0
 20 19  1  0  0  0  0
 22 24  2  0  0  0  0
 23 21  1  0  0  0  0
 24 25  1  0  0  0  0
 24 23  1  0  0  0  0
 26 45  1  6  0  0  0
 26  5  1  0  0  0  0
 27 30  1  6  0  0  0
 27 29  1  0  0  0  0
 28 31  1  6  0  0  0
 28 27  1  0  0  0  0
 28 29  1  0  0  0  0
 29 26  1  1  0  0  0
 32 31  1  0  0  0  0
 33 35  2  6  0  0  0
 33 34  1  0  0  0  0
 33 32  1  0  0  0  0
 37 40  1  0  0  0  0
 38 36  1  0  0  0  0
 38 39  1  1  0  0  0
 38 42  1  0  0  0  0
 40 41  1  1  0  0  0
 42 40  1  0  0  0  0
 42 41  1  1  0  0  0
 43 36  1  0  0  0  0
 43 37  1  0  0  0  0
 43 33  1  1  0  0  0
 44 45  1  0  0  0  0
M  END
>  <MODEL>
8

>  <REMARK>
 VINA RESULT:      -7.6      3.057      7.371
  Name = 
  14 active torsions:
  status: ('A' for Active; 'I' for Inactive)
    1  A    between atoms: N_2  and  C_34
    2  A    between atoms: N_2  and  N_37
    3  A    between atoms: P_6  and  O_21
    4  A    between atoms: P_6  and  C_45
    5  A    between atoms: N_7  and  C_34
    6  A    between atoms: C_11  and  O_21
    7  A    between atoms: C_11  and  C_22
    8  A    between atoms: C_12  and  C_29
    9  A    between atoms: C_20  and  C_36
   10  A    between atoms: O_26  and  C_33
   11  A    between atoms: C_27  and  C_33
   12  A    between atoms: C_30  and  C_33
   13  A    between atoms: N_35  and  C_39
   14  A    between atoms: N_37  and  C_39
                            x       y       z     vdW  Elec       q    Type
                         _______ _______ _______ _____ _____    ______ ____

>  <TORSDO>
F 14

$$$$
=
 OpenBabel10222418133D

 45 50  0  0  1  0  0  0  0  0999 V2000
  186.3740  178.8300  141.9750 C   0  0  0  0  0  2  0  0  0  0  0  0
  185.0130  179.1370  141.8200 C   0  0  0  0  0  3  0  0  0  0  0  0
  187.9050  178.1000  140.1070 C   0  0  0  0  0  0  0  0  0  0  0  0
  186.1730  178.2520  138.6340 N   0  0  0  0  0  0  0  0  0  0  0  0
  187.4970  177.9480  138.7660 C   0  0  0  0  0  0  0  0  0  0  0  0
  186.8090  178.5020  140.7570 N   0  0  0  0  0  0  0  0  0  0  0  0
  184.6520  178.9760  140.4660 C   0  0  0  0  0  3  0  0  0  0  0  0
  185.8350  178.5800  139.8940 C   0  0  0  0  0  0  0  0  0  0  0  0
  191.6980  177.4660  141.8810 C   0  0  0  0  0  3  0  0  0  0  0  0
  189.3770  177.9570  142.0770 N   0  0  0  0  0  0  0  0  0  0  0  0
  190.5830  177.7580  142.6710 C   0  0  0  0  0  0  0  0  0  0  0  0
  190.3070  177.6020  139.9500 N   0  0  0  0  0  0  0  0  0  0  0  0
  191.5320  177.3930  140.4990 C   0  0  0  0  0  3  0  0  0  0  0  0
  189.2270  177.8810  140.7290 C   0  0  0  0  0  0  0  0  0  0  0  0
  190.3970  178.9270  144.7260 O   0  0  0  0  0  0  0  0  0  0  0  0
  190.6980  177.8550  144.1340 C   0  0  0  0  0  0  0  0  0  0  0  0
  191.1480  176.7230  144.8840 N   0  0  0  0  0  2  0  0  0  0  0  0
  191.3100  176.7530  146.3290 C   0  0  0  0  0  2  0  0  0  0  0  0
  190.0310  176.5080  146.9720 N   0  0  0  0  0  2  0  0  0  0  0  0
  189.8000  177.5890  147.8340 N   0  0  0  0  0  2  0  0  0  0  0  0
  188.3720  177.8560  147.8100 C   0  0  0  0  0  2  0  0  0  0  0  0
  186.0960  177.5150  144.9640 O   0  0  0  0  0  0  0  0  0  0  0  0
  187.8220  177.4780  146.5170 N   0  0  0  0  0  2  0  0  0  0  0  0
  186.5150  177.8720  146.0960 C   0  0  0  0  0  0  0  0  0  0  0  0
  185.6360  178.6980  146.9710 C   0  0  0  0  0  1  0  0  0  0  0  0
  188.3270  177.5090  137.5960 C   0  0  2  0  0  3  0  0  0  0  0  0
  190.1220  175.8090  137.3250 C   0  0  1  0  0  3  0  0  0  0  0  0
  189.0150  175.5010  136.3140 C   0  0  2  0  0  3  0  0  0  0  0  0
  188.6680  176.0290  137.6900 C   0  0  2  0  0  3  0  0  0  0  0  0
  190.5930  174.6600  137.9680 O   0  0  0  0  0  1  0  0  0  0  0  0
  188.6390  174.0260  136.2280 C   0  0  0  0  0  2  0  0  0  0  0  0
  187.3460  173.8970  135.7120 O   0  0  0  0  0  0  0  0  0  0  0  0
  186.6350  172.6030  136.5510 P   0  0  2  0  0  0  0  0  0  0  0  0
  187.6710  171.9320  137.4270 O   0  0  0  0  0  1  0  0  0  0  0  0
  186.0630  171.4800  135.4240 O   0  0  0  0  0  0  0  0  0  0  0  0
  185.0710  174.7160  137.5150 C   0  0  0  0  0  2  0  0  0  0  0  0
  184.0910  172.4050  137.4700 O   0  0  0  0  0  0  0  0  0  0  0  0
  183.5970  175.0710  137.6050 C   0  0  1  0  0  3  0  0  0  0  0  0
  183.4350  176.4400  137.3980 O   0  0  0  0  0  1  0  0  0  0  0  0
  183.0950  172.8110  136.5240 C   0  0  2  0  0  3  0  0  0  0  0  0
  183.5140  173.7660  135.4110 C   0  0  0  0  0  2  0  0  0  0  0  0
  182.7270  174.2940  136.6080 C   0  0  2  0  0  3  0  0  0  0  0  0
  185.2610  173.2040  137.5920 C   0  0  1  0  0  3  0  0  0  0  0  0
  189.0560  179.5540  137.1590 C   0  0  0  0  0  1  0  0  0  0  0  0
  189.4930  178.2740  137.5050 O   0  0  0  0  0  0  0  0  0  0  0  0
  2  1  1  0  0  0  0
  3 14  1  0  0  0  0
  3  6  1  0  0  0  0
  4  5  1  0  0  0  0
  4  8  2  0  0  0  0
  5  3  2  0  0  0  0
  6  1  1  0  0  0  0
  7  2  2  0  0  0  0
  8  7  1  0  0  0  0
  8  6  1  0  0  0  0
  9 11  2  0  0  0  0
 10 11  1  0  0  0  0
 11 16  1  0  0  0  0
 12 13  2  0  0  0  0
 12 14  1  0  0  0  0
 13  9  1  0  0  0  0
 14 10  2  0  0  0  0
 16 15  2  0  0  0  0
 16 17  1  0  0  0  0
 17 18  1  0  0  0  0
 18 19  1  0  0  0  0
 19 20  1  0  0  0  0
 21 20  1  0  0  0  0
 22 24  2  0  0  0  0
 23 21  1  0  0  0  0
 24 23  1  0  0  0  0
 24 25  1  0  0  0  0
 26 45  1  1  0  0  0
 26  5  1  0  0  0  0
 27 29  1  0  0  0  0
 27 30  1  1  0  0  0
 28 31  1  1  0  0  0
 28 27  1  0  0  0  0
 28 29  1  0  0  0  0
 29 26  1  6  0  0  0
 32 31  1  0  0  0  0
 32 33  1  0  0  0  0
 33 35  2  6  0  0  0
 33 34  1  0  0  0  0
 36 43  1  0  0  0  0
 36 38  1  0  0  0  0
 37 43  1  0  0  0  0
 38 39  1  6  0  0  0
 40 41  1  6  0  0  0
 40 42  1  0  0  0  0
 40 37  1  0  0  0  0
 42 41  1  6  0  0  0
 42 38  1  0  0  0  0
 43 33  1  6  0  0  0
 44 45  1  0  0  0  0
M  END
>  <MODEL>
9

>  <REMARK>
 VINA RESULT:      -7.5      3.011      6.651
  Name = 
  14 active torsions:
  status: ('A' for Active; 'I' for Inactive)
    1  A    between atoms: N_2  and  C_34
    2  A    between atoms: N_2  and  N_37
    3  A    between atoms: P_6  and  O_21
    4  A    between atoms: P_6  and  C_45
    5  A    between atoms: N_7  and  C_34
    6  A    between atoms: C_11  and  O_21
    7  A    between atoms: C_11  and  C_22
    8  A    between atoms: C_12  and  C_29
    9  A    between atoms: C_20  and  C_36
   10  A    between atoms: O_26  and  C_33
   11  A    between atoms: C_27  and  C_33
   12  A    between atoms: C_30  and  C_33
   13  A    between atoms: N_35  and  C_39
   14  A    between atoms: N_37  and  C_39
                            x       y       z     vdW  Elec       q    Type
                         _______ _______ _______ _____ _____    ______ ____

>  <TORSDO>
F 14

$$$$
