=
 OpenBabel10222417563D

 33 36  0  0  1  0  0  0  0  0999 V2000
  187.2530  178.2700  147.3540 C   0  0  0  0  0  0  0  0  0  0  0  0
  186.4400  177.5220  142.6990 C   0  0  0  0  0  2  0  0  0  0  0  0
  185.2340  178.7110  146.0660 C   0  0  0  0  0  3  0  0  0  0  0  0
  187.5730  177.3420  143.6620 C   0  0  0  0  0  0  0  0  0  0  0  0
  187.9380  178.2890  148.5720 C   0  0  0  0  0  3  0  0  0  0  0  0
  185.3090  178.1390  143.5450 C   0  0  1  0  0  3  0  0  0  0  0  0
  189.8990  177.3560  147.4920 C   0  0  0  0  0  0  0  0  0  0  0  0
  189.2580  177.8320  148.6410 C   0  0  0  0  0  3  0  0  0  0  0  0
  191.5500  176.7860  147.5860 Cl  0  0  0  0  0  0  0  0  0  0  0  0
  185.9260  178.7270  147.2850 C   0  0  0  0  0  3  0  0  0  0  0  0
  187.1830  177.7840  144.9830 C   0  0  0  0  0  0  0  0  0  0  0  0
  188.7370  176.8520  143.3690 N   0  0  0  0  0  0  0  0  0  0  0  0
  185.8860  178.2380  144.9240 C   0  0  0  0  0  0  0  0  0  0  0  0
  187.9020  177.7880  146.1880 C   0  0  0  0  0  0  0  0  0  0  0  0
  189.2240  177.3320  146.2690 C   0  0  0  0  0  3  0  0  0  0  0  0
  184.9980  179.4650  143.0370 N   0  0  0  0  0  2  0  0  0  0  0  0
  183.5560  178.5780  140.8260 O   0  0  0  0  0  0  0  0  0  0  0  0
  185.4860  179.5250  141.7240 N   0  0  0  0  0  2  0  0  0  0  0  0
  184.7060  179.0560  140.6280 C   0  0  0  0  0  0  0  0  0  0  0  0
  185.2390  179.1300  139.3060 N   0  0  0  0  0  2  0  0  0  0  0  0
  184.4920  178.6710  138.1460 C   0  0  0  0  0  2  0  0  0  0  0  0
  184.5980  177.2130  136.2060 N   0  0  0  0  0  1  0  0  0  0  0  0
  185.2110  177.5040  137.4910 C   0  0  1  0  0  3  0  0  0  0  0  0
  187.0530  179.0560  136.8500 O   0  0  0  0  0  0  0  0  0  0  0  0
  186.6640  177.8040  137.3060 C   0  0  0  0  0  0  0  0  0  0  0  0
  187.5370  176.9280  137.5490 O   0  0  0  0  0  1  0  0  0  0  0  0
  189.0960  176.4110  142.0290 C   0  0  0  0  0  2  0  0  0  0  0  0
  191.5270  177.1210  141.7270 C   0  0  0  0  0  2  0  0  0  0  0  0
  192.0290  177.0010  139.2670 C   0  0  0  0  0  2  0  0  0  0  0  0
  192.4340  177.6190  140.6090 C   0  0  0  0  0  2  0  0  0  0  0  0
  189.7870  177.5730  139.9870 O   0  0  0  0  0  0  0  0  0  0  0  0
  190.0540  177.4020  141.3730 C   0  0  1  0  0  3  0  0  0  0  0  0
  190.5390  176.6440  139.2380 C   0  0  0  0  0  2  0  0  0  0  0  0
  1  5  1  0  0  0  0
  2  6  1  0  0  0  0
  2  4  1  0  0  0  0
  3 10  1  0  0  0  0
  4 11  1  0  0  0  0
  5  8  2  0  0  0  0
  6 16  1  6  0  0  0
  6 13  1  0  0  0  0
  7  9  1  0  0  0  0
  7  8  1  0  0  0  0
 10  1  2  0  0  0  0
 11 14  2  0  0  0  0
 12  4  2  0  0  0  0
 13 11  1  0  0  0  0
 13  3  2  0  0  0  0
 14 15  1  0  0  0  0
 14  1  1  0  0  0  0
 15  7  2  0  0  0  0
 18 16  1  0  0  0  0
 19 17  2  0  0  0  0
 19 18  1  0  0  0  0
 20 19  1  0  0  0  0
 21 20  1  0  0  0  0
 23 22  1  6  0  0  0
 23 21  1  0  0  0  0
 24 25  2  0  0  0  0
 25 23  1  0  0  0  0
 25 26  1  0  0  0  0
 27 12  1  0  0  0  0
 29 30  1  0  0  0  0
 30 28  1  0  0  0  0
 31 32  1  0  0  0  0
 32 28  1  0  0  0  0
 32 27  1  6  0  0  0
 33 29  1  0  0  0  0
 33 31  1  0  0  0  0
M  END
>  <MODEL>
1

>  <REMARK>
 VINA RESULT:      -9.8      0.000      0.000
  Name = 
  7 active torsions:
  status: ('A' for Active; 'I' for Inactive)
    1  A    between atoms: C_10  and  N_24
    2  A    between atoms: C_11  and  CA_30
    3  A    between atoms: N_20  and  N_24
    4  A    between atoms: N_21  and  C_25
    5  A    between atoms: C_23  and  C_25
    6  A    between atoms: CA_30  and  C_32
    7  A    between atoms: N_31  and  C_32
                            x       y       z     vdW  Elec       q    Type
                         _______ _______ _______ _____ _____    ______ ____

>  <TORSDO>
F 7

$$$$
=
 OpenBabel10222417563D

 33 36  0  0  1  0  0  0  0  0999 V2000
  190.5380  177.2460  144.6640 C   0  0  0  0  0  0  0  0  0  0  0  0
  188.4830  178.0030  140.4100 C   0  0  0  0  0  2  0  0  0  0  0  0
  191.5480  177.1910  142.4480 C   0  0  0  0  0  3  0  0  0  0  0  0
  188.0620  177.9760  141.8470 C   0  0  0  0  0  0  0  0  0  0  0  0
  190.6590  177.1250  146.0510 C   0  0  0  0  0  3  0  0  0  0  0  0
  189.9850  177.6580  140.4410 C   0  0  1  0  0  3  0  0  0  0  0  0
  188.2950  177.6010  146.3070 C   0  0  0  0  0  0  0  0  0  0  0  0
  189.5400  177.3020  146.8710 C   0  0  0  0  0  3  0  0  0  0  0  0
  186.8990  177.8220  147.3380 Cl  0  0  0  0  0  0  0  0  0  0  0  0
  191.6630  177.0700  143.8410 C   0  0  0  0  0  3  0  0  0  0  0  0
  189.1930  177.6640  142.6950 C   0  0  0  0  0  0  0  0  0  0  0  0
  186.8640  178.2070  142.2830 N   0  0  0  0  0  0  0  0  0  0  0  0
  190.2980  177.4840  141.8960 C   0  0  0  0  0  0  0  0  0  0  0  0
  189.2760  177.5500  144.0910 C   0  0  0  0  0  0  0  0  0  0  0  0
  188.1630  177.7260  144.9220 C   0  0  0  0  0  3  0  0  0  0  0  0
  190.2060  176.4090  139.7300 N   0  0  0  0  0  2  0  0  0  0  0  0
  191.2360  174.4360  138.0570 O   0  0  0  0  0  0  0  0  0  0  0  0
  191.4350  176.5260  139.0690 N   0  0  0  0  0  2  0  0  0  0  0  0
  191.9170  175.4850  138.2230 C   0  0  0  0  0  0  0  0  0  0  0  0
  193.1770  175.6390  137.5700 N   0  0  0  0  0  2  0  0  0  0  0  0
  193.7210  174.6150  136.6930 C   0  0  0  0  0  2  0  0  0  0  0  0
  195.9400  175.6020  136.6920 N   0  0  0  0  0  1  0  0  0  0  0  0
  195.1930  174.3950  136.9990 C   0  0  1  0  0  3  0  0  0  0  0  0
  195.8660  174.9730  139.3280 O   0  0  0  0  0  1  0  0  0  0  0  0
  195.3940  174.0230  138.4330 C   0  0  0  0  0  0  0  0  0  0  0  0
  195.1490  172.8530  138.8340 O   0  0  0  0  0  0  0  0  0  0  0  0
  185.7480  178.5230  141.4030 C   0  0  0  0  0  2  0  0  0  0  0  0
  183.3000  178.6300  142.1100 C   0  0  0  0  0  2  0  0  0  0  0  0
  183.2620  178.7040  144.6220 C   0  0  0  0  0  2  0  0  0  0  0  0
  182.4900  179.0230  143.3380 C   0  0  0  0  0  2  0  0  0  0  0  0
  185.1150  179.7260  143.4390 O   0  0  0  0  0  0  0  0  0  0  0  0
  184.6790  179.3160  142.1490 C   0  0  1  0  0  3  0  0  0  0  0  0
  184.7770  178.7410  144.3910 C   0  0  0  0  0  2  0  0  0  0  0  0
  1  5  1  0  0  0  0
  2  6  1  0  0  0  0
  2  4  1  0  0  0  0
  3 10  1  0  0  0  0
  4 12  2  0  0  0  0
  4 11  1  0  0  0  0
  5  8  2  0  0  0  0
  6 16  1  6  0  0  0
  6 13  1  0  0  0  0
  7  8  1  0  0  0  0
  7  9  1  0  0  0  0
 10  1  2  0  0  0  0
 11 14  2  0  0  0  0
 13  3  2  0  0  0  0
 13 11  1  0  0  0  0
 14  1  1  0  0  0  0
 14 15  1  0  0  0  0
 15  7  2  0  0  0  0
 17 19  2  0  0  0  0
 18 16  1  0  0  0  0
 19 18  1  0  0  0  0
 20 19  1  0  0  0  0
 21 23  1  0  0  0  0
 21 20  1  0  0  0  0
 23 22  1  1  0  0  0
 23 25  1  0  0  0  0
 25 26  2  0  0  0  0
 25 24  1  0  0  0  0
 27 12  1  0  0  0  0
 28 32  1  0  0  0  0
 28 30  1  0  0  0  0
 30 29  1  0  0  0  0
 31 33  1  0  0  0  0
 32 27  1  1  0  0  0
 32 31  1  0  0  0  0
 33 29  1  0  0  0  0
M  END
>  <MODEL>
2

>  <REMARK>
 VINA RESULT:      -9.6      3.720      7.072
  Name = 
  7 active torsions:
  status: ('A' for Active; 'I' for Inactive)
    1  A    between atoms: C_10  and  N_24
    2  A    between atoms: C_11  and  CA_30
    3  A    between atoms: N_20  and  N_24
    4  A    between atoms: N_21  and  C_25
    5  A    between atoms: C_23  and  C_25
    6  A    between atoms: CA_30  and  C_32
    7  A    between atoms: N_31  and  C_32
                            x       y       z     vdW  Elec       q    Type
                         _______ _______ _______ _____ _____    ______ ____

>  <TORSDO>
F 7

$$$$
=
 OpenBabel10222417563D

 33 36  0  0  1  0  0  0  0  0999 V2000
  187.7390  177.7670  147.0230 C   0  0  0  0  0  0  0  0  0  0  0  0
  185.9250  177.9790  142.6010 C   0  0  0  0  0  2  0  0  0  0  0  0
  185.4710  178.3180  146.3270 C   0  0  0  0  0  3  0  0  0  0  0  0
  187.2490  177.6830  143.2350 C   0  0  0  0  0  0  0  0  0  0  0  0
  188.6780  177.5760  148.0400 C   0  0  0  0  0  3  0  0  0  0  0  0
  184.9950  178.3090  143.7850 C   0  0  1  0  0  3  0  0  0  0  0  0
  190.3730  177.0510  146.3860 C   0  0  0  0  0  0  0  0  0  0  0  0
  189.9920  177.2180  147.7220 C   0  0  0  0  0  3  0  0  0  0  0  0
  192.0180  176.6040  145.9960 Cl  0  0  0  0  0  0  0  0  0  0  0  0
  186.4180  178.1240  147.3430 C   0  0  0  0  0  3  0  0  0  0  0  0
  187.1530  177.7990  144.6750 C   0  0  0  0  0  0  0  0  0  0  0  0
  188.3300  177.3590  142.5990 N   0  0  0  0  0  0  0  0  0  0  0  0
  185.8630  178.1540  144.9960 C   0  0  0  0  0  0  0  0  0  0  0  0
  188.1230  177.5980  145.6680 C   0  0  0  0  0  0  0  0  0  0  0  0
  189.4410  177.2390  145.3620 C   0  0  0  0  0  3  0  0  0  0  0  0
  184.5420  179.6860  143.6690 N   0  0  0  0  0  2  0  0  0  0  0  0
  182.6290  178.6230  141.9470 O   0  0  0  0  0  0  0  0  0  0  0  0
  183.1680  179.6900  143.9480 N   0  0  0  0  0  2  0  0  0  0  0  0
  182.2310  179.1330  143.0300 C   0  0  0  0  0  0  0  0  0  0  0  0
  180.8400  179.1600  143.3470 N   0  0  0  0  0  2  0  0  0  0  0  0
  179.8350  178.6050  142.4530 C   0  0  0  0  0  2  0  0  0  0  0  0
  179.4610  180.9970  142.2540 N   0  0  0  0  0  1  0  0  0  0  0  0
  179.2040  179.7120  141.6260 C   0  0  1  0  0  3  0  0  0  0  0  0
  179.2510  178.8000  139.3060 O   0  0  0  0  0  0  0  0  0  0  0  0
  179.7420  179.7120  140.2300 C   0  0  0  0  0  0  0  0  0  0  0  0
  180.6440  180.5240  139.8890 O   0  0  0  0  0  1  0  0  0  0  0  0
  188.3920  177.2460  141.1490 C   0  0  0  0  0  2  0  0  0  0  0  0
  190.9400  177.2760  141.2770 C   0  0  0  0  0  2  0  0  0  0  0  0
  191.7990  176.6990  138.9870 C   0  0  0  0  0  2  0  0  0  0  0  0
  192.1230  177.3740  140.3230 C   0  0  0  0  0  2  0  0  0  0  0  0
  189.7080  177.9080  139.1920 O   0  0  0  0  0  0  0  0  0  0  0  0
  189.6800  177.8660  140.6130 C   0  0  1  0  0  3  0  0  0  0  0  0
  190.2950  176.7260  138.6920 C   0  0  0  0  0  2  0  0  0  0  0  0
  1 10  2  0  0  0  0
  1  5  1  0  0  0  0
  2  4  1  0  0  0  0
  2  6  1  0  0  0  0
  3 10  1  0  0  0  0
  4 11  1  0  0  0  0
  6 16  1  6  0  0  0
  6 13  1  0  0  0  0
  7  8  1  0  0  0  0
  8  5  2  0  0  0  0
  9  7  1  0  0  0  0
 11 13  1  0  0  0  0
 11 14  2  0  0  0  0
 12  4  2  0  0  0  0
 13  3  2  0  0  0  0
 14  1  1  0  0  0  0
 15 14  1  0  0  0  0
 15  7  2  0  0  0  0
 16 18  1  0  0  0  0
 17 19  2  0  0  0  0
 19 20  1  0  0  0  0
 19 18  1  0  0  0  0
 21 20  1  0  0  0  0
 23 22  1  1  0  0  0
 23 21  1  0  0  0  0
 24 25  2  0  0  0  0
 25 23  1  0  0  0  0
 26 25  1  0  0  0  0
 27 12  1  0  0  0  0
 29 30  1  0  0  0  0
 30 28  1  0  0  0  0
 31 32  1  0  0  0  0
 32 27  1  6  0  0  0
 32 28  1  0  0  0  0
 33 29  1  0  0  0  0
 33 31  1  0  0  0  0
M  END
>  <MODEL>
3

>  <REMARK>
 VINA RESULT:      -9.5      2.474      3.679
  Name = 
  7 active torsions:
  status: ('A' for Active; 'I' for Inactive)
    1  A    between atoms: C_10  and  N_24
    2  A    between atoms: C_11  and  CA_30
    3  A    between atoms: N_20  and  N_24
    4  A    between atoms: N_21  and  C_25
    5  A    between atoms: C_23  and  C_25
    6  A    between atoms: CA_30  and  C_32
    7  A    between atoms: N_31  and  C_32
                            x       y       z     vdW  Elec       q    Type
                         _______ _______ _______ _____ _____    ______ ____

>  <TORSDO>
F 7

$$$$
=
 OpenBabel10222417563D

 33 36  0  0  1  0  0  0  0  0999 V2000
  189.1280  177.3730  145.3990 C   0  0  0  0  0  0  0  0  0  0  0  0
  188.4210  178.2350  140.7470 C   0  0  0  0  0  2  0  0  0  0  0  0
  190.7240  177.2520  143.5640 C   0  0  0  0  0  3  0  0  0  0  0  0
  187.6060  178.2370  142.0030 C   0  0  0  0  0  0  0  0  0  0  0  0
  188.8410  177.2490  146.7620 C   0  0  0  0  0  3  0  0  0  0  0  0
  189.8290  177.8040  141.2010 C   0  0  1  0  0  3  0  0  0  0  0  0
  186.5330  177.8630  146.3380 C   0  0  0  0  0  0  0  0  0  0  0  0
  187.5460  177.4940  147.2300 C   0  0  0  0  0  3  0  0  0  0  0  0
  184.9160  178.1680  146.9320 Cl  0  0  0  0  0  0  0  0  0  0  0  0
  190.4290  177.1290  144.9300 C   0  0  0  0  0  3  0  0  0  0  0  0
  188.4280  177.8620  143.1340 C   0  0  0  0  0  0  0  0  0  0  0  0
  186.3480  178.5390  142.0820 N   0  0  0  0  0  0  0  0  0  0  0  0
  189.7030  177.6160  142.6820 C   0  0  0  0  0  0  0  0  0  0  0  0
  188.1020  177.7480  144.4940 C   0  0  0  0  0  0  0  0  0  0  0  0
  186.8090  177.9910  144.9750 C   0  0  0  0  0  3  0  0  0  0  0  0
  190.1730  176.5420  140.5650 N   0  0  0  0  0  2  0  0  0  0  0  0
  190.6350  175.0000  138.2930 O   0  0  0  0  0  0  0  0  0  0  0  0
  191.1970  176.8110  139.6480 N   0  0  0  0  0  2  0  0  0  0  0  0
  191.3910  175.9880  138.5000 C   0  0  0  0  0  0  0  0  0  0  0  0
  192.4490  176.2920  137.5910 N   0  0  0  0  0  2  0  0  0  0  0  0
  192.6950  175.4920  136.4010 C   0  0  0  0  0  2  0  0  0  0  0  0
  194.7150  176.7940  136.0470 N   0  0  0  0  0  1  0  0  0  0  0  0
  194.1850  175.4430  136.1060 C   0  0  1  0  0  3  0  0  0  0  0  0
  194.3140  173.5340  137.7030 O   0  0  0  0  0  1  0  0  0  0  0  0
  194.9130  174.6550  137.1480 C   0  0  0  0  0  0  0  0  0  0  0  0
  196.0600  175.0070  137.5330 O   0  0  0  0  0  0  0  0  0  0  0  0
  185.5510  178.9170  140.9240 C   0  0  0  0  0  2  0  0  0  0  0  0
  183.2790  178.7430  142.0710 C   0  0  0  0  0  2  0  0  0  0  0  0
  181.5360  179.2330  140.3280 C   0  0  0  0  0  2  0  0  0  0  0  0
  181.8190  178.5620  141.6750 C   0  0  0  0  0  2  0  0  0  0  0  0
  183.5990  178.1500  139.6610 O   0  0  0  0  0  0  0  0  0  0  0  0
  184.1960  178.2160  140.9500 C   0  0  1  0  0  3  0  0  0  0  0  0
  182.7910  179.2880  139.4510 C   0  0  0  0  0  2  0  0  0  0  0  0
  1  5  1  0  0  0  0
  2  6  1  0  0  0  0
  2  4  1  0  0  0  0
  3 10  1  0  0  0  0
  4 12  2  0  0  0  0
  4 11  1  0  0  0  0
  5  8  2  0  0  0  0
  6 16  1  6  0  0  0
  6 13  1  0  0  0  0
  7  9  1  0  0  0  0
  7  8  1  0  0  0  0
 10  1  2  0  0  0  0
 11 14  2  0  0  0  0
 13 11  1  0  0  0  0
 13  3  2  0  0  0  0
 14 15  1  0  0  0  0
 14  1  1  0  0  0  0
 15  7  2  0  0  0  0
 17 19  2  0  0  0  0
 18 16  1  0  0  0  0
 19 18  1  0  0  0  0
 20 19  1  0  0  0  0
 21 20  1  0  0  0  0
 23 22  1  1  0  0  0
 23 21  1  0  0  0  0
 23 25  1  0  0  0  0
 25 26  2  0  0  0  0
 25 24  1  0  0  0  0
 27 12  1  0  0  0  0
 29 30  1  0  0  0  0
 30 28  1  0  0  0  0
 31 32  1  0  0  0  0
 32 27  1  6  0  0  0
 32 28  1  0  0  0  0
 33 31  1  0  0  0  0
 33 29  1  0  0  0  0
M  END
>  <MODEL>
4

>  <REMARK>
 VINA RESULT:      -9.3      3.573      6.687
  Name = 
  7 active torsions:
  status: ('A' for Active; 'I' for Inactive)
    1  A    between atoms: C_10  and  N_24
    2  A    between atoms: C_11  and  CA_30
    3  A    between atoms: N_20  and  N_24
    4  A    between atoms: N_21  and  C_25
    5  A    between atoms: C_23  and  C_25
    6  A    between atoms: CA_30  and  C_32
    7  A    between atoms: N_31  and  C_32
                            x       y       z     vdW  Elec       q    Type
                         _______ _______ _______ _____ _____    ______ ____

>  <TORSDO>
F 7

$$$$
=
 OpenBabel10222417563D

 33 36  0  0  1  0  0  0  0  0999 V2000
  187.0310  178.2430  147.1790 C   0  0  0  0  0  0  0  0  0  0  0  0
  186.4460  177.5020  142.4890 C   0  0  0  0  0  2  0  0  0  0  0  0
  185.0560  178.6260  145.8070 C   0  0  0  0  0  3  0  0  0  0  0  0
  187.5410  177.3520  143.4990 C   0  0  0  0  0  0  0  0  0  0  0  0
  187.6610  178.2740  148.4260 C   0  0  0  0  0  3  0  0  0  0  0  0
  185.2600  178.0750  143.2880 C   0  0  1  0  0  3  0  0  0  0  0  0
  189.6970  177.4130  147.4280 C   0  0  0  0  0  0  0  0  0  0  0  0
  188.9910  177.8600  148.5500 C   0  0  0  0  0  3  0  0  0  0  0  0
  191.3610  176.8970  147.5900 Cl  0  0  0  0  0  0  0  0  0  0  0  0
  185.6940  178.6560  147.0550 C   0  0  0  0  0  3  0  0  0  0  0  0
  187.0800  177.7720  144.8050 C   0  0  0  0  0  0  0  0  0  0  0  0
  188.7320  176.9020  143.2540 N   0  0  0  0  0  0  0  0  0  0  0  0
  185.7730  178.1840  144.6920 C   0  0  0  0  0  0  0  0  0  0  0  0
  187.7460  177.7900  146.0400 C   0  0  0  0  0  0  0  0  0  0  0  0
  189.0770  177.3770  146.1760 C   0  0  0  0  0  3  0  0  0  0  0  0
  184.9280  179.3940  142.7750 N   0  0  0  0  0  2  0  0  0  0  0  0
  184.9320  179.5420  139.9930 O   0  0  0  0  0  0  0  0  0  0  0  0
  183.7730  179.2510  141.9940 N   0  0  0  0  0  2  0  0  0  0  0  0
  183.8300  179.3370  140.5730 C   0  0  0  0  0  0  0  0  0  0  0  0
  182.6310  179.1900  139.8130 N   0  0  0  0  0  2  0  0  0  0  0  0
  182.6250  179.2640  138.3600 C   0  0  0  0  0  2  0  0  0  0  0  0
  180.2090  179.0950  138.1860 N   0  0  0  0  0  1  0  0  0  0  0  0
  181.3520  179.9370  137.8770 C   0  0  1  0  0  3  0  0  0  0  0  0
  180.0560  181.5360  139.2830 O   0  0  0  0  0  1  0  0  0  0  0  0
  181.1800  181.2800  138.5120 C   0  0  0  0  0  0  0  0  0  0  0  0
  182.0420  182.1850  138.3430 O   0  0  0  0  0  0  0  0  0  0  0  0
  189.1630  176.4830  141.9290 C   0  0  0  0  0  2  0  0  0  0  0  0
  191.6220  177.1360  141.7360 C   0  0  0  0  0  2  0  0  0  0  0  0
  192.1990  177.1130  139.2900 C   0  0  0  0  0  2  0  0  0  0  0  0
  192.5770  177.6580  140.6700 C   0  0  0  0  0  2  0  0  0  0  0  0
  189.9510  177.7160  139.9650 O   0  0  0  0  0  0  0  0  0  0  0  0
  190.1690  177.4750  141.3490 C   0  0  1  0  0  3  0  0  0  0  0  0
  190.7020  176.8010  139.1980 C   0  0  0  0  0  2  0  0  0  0  0  0
  1  5  1  0  0  0  0
  2  6  1  0  0  0  0
  2  4  1  0  0  0  0
  3 10  1  0  0  0  0
  4 11  1  0  0  0  0
  5  8  2  0  0  0  0
  6 16  1  6  0  0  0
  6 13  1  0  0  0  0
  7  9  1  0  0  0  0
  7  8  1  0  0  0  0
 10  1  2  0  0  0  0
 11 14  2  0  0  0  0
 12  4  2  0  0  0  0
 13 11  1  0  0  0  0
 13  3  2  0  0  0  0
 14 15  1  0  0  0  0
 14  1  1  0  0  0  0
 15  7  2  0  0  0  0
 17 19  2  0  0  0  0
 18 16  1  0  0  0  0
 19 18  1  0  0  0  0
 20 19  1  0  0  0  0
 21 20  1  0  0  0  0
 23 22  1  1  0  0  0
 23 21  1  0  0  0  0
 23 25  1  0  0  0  0
 25 24  1  0  0  0  0
 26 25  2  0  0  0  0
 27 12  1  0  0  0  0
 29 30  1  0  0  0  0
 30 28  1  0  0  0  0
 31 32  1  0  0  0  0
 32 28  1  0  0  0  0
 32 27  1  6  0  0  0
 33 29  1  0  0  0  0
 33 31  1  0  0  0  0
M  END
>  <MODEL>
5

>  <REMARK>
 VINA RESULT:      -9.3      1.907      2.642
  Name = 
  7 active torsions:
  status: ('A' for Active; 'I' for Inactive)
    1  A    between atoms: C_10  and  N_24
    2  A    between atoms: C_11  and  CA_30
    3  A    between atoms: N_20  and  N_24
    4  A    between atoms: N_21  and  C_25
    5  A    between atoms: C_23  and  C_25
    6  A    between atoms: CA_30  and  C_32
    7  A    between atoms: N_31  and  C_32
                            x       y       z     vdW  Elec       q    Type
                         _______ _______ _______ _____ _____    ______ ____

>  <TORSDO>
F 7

$$$$
=
 OpenBabel10222417563D

 33 36  0  0  1  0  0  0  0  0999 V2000
  184.4830  178.6360  144.6750 C   0  0  0  0  0  0  0  0  0  0  0  0
  186.0840  178.3110  140.1790 C   0  0  0  0  0  2  0  0  0  0  0  0
  183.2440  178.8750  142.5910 C   0  0  0  0  0  3  0  0  0  0  0  0
  186.6540  178.2140  141.5600 C   0  0  0  0  0  0  0  0  0  0  0  0
  184.5070  178.6280  146.0720 C   0  0  0  0  0  3  0  0  0  0  0  0
  184.5910  178.6220  140.3980 C   0  0  1  0  0  3  0  0  0  0  0  0
  186.8890  178.1750  146.0350 C   0  0  0  0  0  0  0  0  0  0  0  0
  185.7080  178.3970  146.7510 C   0  0  0  0  0  3  0  0  0  0  0  0
  188.3880  177.8870  146.8910 Cl  0  0  0  0  0  0  0  0  0  0  0  0
  183.2750  178.8650  143.9940 C   0  0  0  0  0  3  0  0  0  0  0  0
  185.6160  178.4260  142.5460 C   0  0  0  0  0  0  0  0  0  0  0  0
  187.8940  177.9670  141.8450 N   0  0  0  0  0  0  0  0  0  0  0  0
  184.4310  178.6570  141.8870 C   0  0  0  0  0  0  0  0  0  0  0  0
  185.6800  178.4100  143.9480 C   0  0  0  0  0  0  0  0  0  0  0  0
  186.8760  178.1800  144.6380 C   0  0  0  0  0  3  0  0  0  0  0  0
  184.2850  179.9270  139.8330 N   0  0  0  0  0  2  0  0  0  0  0  0
  182.7710  182.0880  138.9410 O   0  0  0  0  0  0  0  0  0  0  0  0
  183.1030  179.7860  139.0940 N   0  0  0  0  0  2  0  0  0  0  0  0
  182.3650  180.9270  138.6630 C   0  0  0  0  0  0  0  0  0  0  0  0
  181.1630  180.7420  137.9160 N   0  0  0  0  0  2  0  0  0  0  0  0
  180.3680  181.8660  137.4450 C   0  0  0  0  0  2  0  0  0  0  0  0
  180.1150  181.8920  135.0300 N   0  0  0  0  0  1  0  0  0  0  0  0
  180.9250  182.3840  136.1300 C   0  0  1  0  0  3  0  0  0  0  0  0
  180.1350  184.5700  135.2300 O   0  0  0  0  0  0  0  0  0  0  0  0
  180.9540  183.8790  136.1110 C   0  0  0  0  0  0  0  0  0  0  0  0
  181.7240  184.5160  136.8800 O   0  0  0  0  0  1  0  0  0  0  0  0
  188.9130  177.7530  140.8280 C   0  0  0  0  0  2  0  0  0  0  0  0
  190.5840  178.3630  142.6560 C   0  0  0  0  0  2  0  0  0  0  0  0
  190.8770  176.3230  144.0950 C   0  0  0  0  0  2  0  0  0  0  0  0
  191.4990  177.6470  143.6420 C   0  0  0  0  0  2  0  0  0  0  0  0
  190.4140  176.0430  141.7330 O   0  0  0  0  0  0  0  0  0  0  0  0
  190.2590  177.4320  141.4710 C   0  0  1  0  0  3  0  0  0  0  0  0
  189.9410  175.7460  143.0280 C   0  0  0  0  0  2  0  0  0  0  0  0
  1  5  1  0  0  0  0
  2  6  1  0  0  0  0
  2  4  1  0  0  0  0
  3 10  1  0  0  0  0
  4 12  2  0  0  0  0
  4 11  1  0  0  0  0
  5  8  2  0  0  0  0
  6 16  1  6  0  0  0
  6 13  1  0  0  0  0
  7  8  1  0  0  0  0
  7  9  1  0  0  0  0
 10  1  2  0  0  0  0
 11 14  2  0  0  0  0
 13 11  1  0  0  0  0
 13  3  2  0  0  0  0
 14 15  1  0  0  0  0
 14  1  1  0  0  0  0
 15  7  2  0  0  0  0
 18 16  1  0  0  0  0
 19 17  2  0  0  0  0
 19 18  1  0  0  0  0
 20 19  1  0  0  0  0
 21 20  1  0  0  0  0
 23 22  1  6  0  0  0
 23 21  1  0  0  0  0
 24 25  2  0  0  0  0
 25 23  1  0  0  0  0
 25 26  1  0  0  0  0
 27 12  1  0  0  0  0
 28 30  1  0  0  0  0
 30 29  1  0  0  0  0
 31 33  1  0  0  0  0
 32 27  1  1  0  0  0
 32 31  1  0  0  0  0
 32 28  1  0  0  0  0
 33 29  1  0  0  0  0
M  END
>  <MODEL>
6

>  <REMARK>
 VINA RESULT:      -9.2      3.462      4.508
  Name = 
  7 active torsions:
  status: ('A' for Active; 'I' for Inactive)
    1  A    between atoms: C_10  and  N_24
    2  A    between atoms: C_11  and  CA_30
    3  A    between atoms: N_20  and  N_24
    4  A    between atoms: N_21  and  C_25
    5  A    between atoms: C_23  and  C_25
    6  A    between atoms: CA_30  and  C_32
    7  A    between atoms: N_31  and  C_32
                            x       y       z     vdW  Elec       q    Type
                         _______ _______ _______ _____ _____    ______ ____

>  <TORSDO>
F 7

$$$$
=
 OpenBabel10222417563D

 33 36  0  0  1  0  0  0  0  0999 V2000
  190.7100  177.1780  144.5610 C   0  0  0  0  0  0  0  0  0  0  0  0
  188.1240  178.2860  140.6910 C   0  0  0  0  0  2  0  0  0  0  0  0
  191.3940  177.2050  142.2240 C   0  0  0  0  0  3  0  0  0  0  0  0
  187.9090  178.1940  142.1700 C   0  0  0  0  0  0  0  0  0  0  0  0
  191.0180  176.9690  145.9080 C   0  0  0  0  0  3  0  0  0  0  0  0
  189.5940  177.8670  140.4890 C   0  0  1  0  0  3  0  0  0  0  0  0
  188.7440  177.5450  146.5250 C   0  0  0  0  0  0  0  0  0  0  0  0
  190.0370  177.1520  146.8880 C   0  0  0  0  0  3  0  0  0  0  0  0
  187.5220  177.7720  147.7560 Cl  0  0  0  0  0  0  0  0  0  0  0  0
  191.6960  176.9970  143.5780 C   0  0  0  0  0  3  0  0  0  0  0  0
  189.1280  177.7770  142.8300 C   0  0  0  0  0  0  0  0  0  0  0  0
  186.7980  178.4570  142.7850 N   0  0  0  0  0  0  0  0  0  0  0  0
  190.0970  177.5910  141.8730 C   0  0  0  0  0  0  0  0  0  0  0  0
  189.3990  177.5760  144.1920 C   0  0  0  0  0  0  0  0  0  0  0  0
  188.4250  177.7570  145.1810 C   0  0  0  0  0  3  0  0  0  0  0  0
  189.6410  176.6530  139.6900 N   0  0  0  0  0  2  0  0  0  0  0  0
  191.2190  174.8280  138.2990 O   0  0  0  0  0  0  0  0  0  0  0  0
  190.3200  176.9680  138.5050 N   0  0  0  0  0  2  0  0  0  0  0  0
  191.1160  175.9960  137.8330 C   0  0  0  0  0  0  0  0  0  0  0  0
  191.7970  176.3570  136.6320 N   0  0  0  0  0  2  0  0  0  0  0  0
  192.6210  175.4090  135.8980 C   0  0  0  0  0  2  0  0  0  0  0  0
  194.2050  177.1050  136.6130 N   0  0  0  0  0  1  0  0  0  0  0  0
  194.0890  175.7770  136.0380 C   0  0  1  0  0  3  0  0  0  0  0  0
  194.2760  173.5190  137.0780 O   0  0  0  0  0  0  0  0  0  0  0  0
  194.8110  174.7860  136.8940 C   0  0  0  0  0  0  0  0  0  0  0  0
  195.8950  175.0950  137.4590 O   0  0  0  0  0  1  0  0  0  0  0  0
  185.5900  178.8800  142.0910 C   0  0  0  0  0  2  0  0  0  0  0  0
  183.7500  178.9890  143.8540 C   0  0  0  0  0  2  0  0  0  0  0  0
  181.5560  178.9850  142.6280 C   0  0  0  0  0  2  0  0  0  0  0  0
  182.2590  178.6950  143.9570 C   0  0  0  0  0  2  0  0  0  0  0  0
  183.4380  177.7870  141.6810 O   0  0  0  0  0  0  0  0  0  0  0  0
  184.3610  178.1960  142.6820 C   0  0  1  0  0  3  0  0  0  0  0  0
  182.5080  178.8210  141.4390 C   0  0  0  0  0  2  0  0  0  0  0  0
  1  5  1  0  0  0  0
  2  4  1  0  0  0  0
  3 10  1  0  0  0  0
  4 12  2  0  0  0  0
  4 11  1  0  0  0  0
  5  8  2  0  0  0  0
  6 16  1  6  0  0  0
  6  2  1  0  0  0  0
  6 13  1  0  0  0  0
  7  8  1  0  0  0  0
  7  9  1  0  0  0  0
 10  1  2  0  0  0  0
 11 14  2  0  0  0  0
 13  3  2  0  0  0  0
 13 11  1  0  0  0  0
 14  1  1  0  0  0  0
 14 15  1  0  0  0  0
 15  7  2  0  0  0  0
 18 16  1  0  0  0  0
 19 17  2  0  0  0  0
 19 18  1  0  0  0  0
 20 19  1  0  0  0  0
 21 23  1  0  0  0  0
 21 20  1  0  0  0  0
 23 22  1  1  0  0  0
 23 25  1  0  0  0  0
 25 24  2  0  0  0  0
 25 26  1  0  0  0  0
 27 12  1  0  0  0  0
 28 30  1  0  0  0  0
 29 30  1  0  0  0  0
 31 32  1  0  0  0  0
 32 27  1  6  0  0  0
 32 28  1  0  0  0  0
 33 31  1  0  0  0  0
 33 29  1  0  0  0  0
M  END
>  <MODEL>
7

>  <REMARK>
 VINA RESULT:      -9.1      3.555      6.749
  Name = 
  7 active torsions:
  status: ('A' for Active; 'I' for Inactive)
    1  A    between atoms: C_10  and  N_24
    2  A    between atoms: C_11  and  CA_30
    3  A    between atoms: N_20  and  N_24
    4  A    between atoms: N_21  and  C_25
    5  A    between atoms: C_23  and  C_25
    6  A    between atoms: CA_30  and  C_32
    7  A    between atoms: N_31  and  C_32
                            x       y       z     vdW  Elec       q    Type
                         _______ _______ _______ _____ _____    ______ ____

>  <TORSDO>
F 7

$$$$
=
 OpenBabel10222417563D

 33 36  0  0  1  0  0  0  0  0999 V2000
  184.6610  178.5910  145.1580 C   0  0  0  0  0  0  0  0  0  0  0  0
  186.6660  178.1280  140.8390 C   0  0  0  0  0  2  0  0  0  0  0  0
  183.6240  178.7870  142.9640 C   0  0  0  0  0  3  0  0  0  0  0  0
  187.1050  178.0620  142.2690 C   0  0  0  0  0  0  0  0  0  0  0  0
  184.5570  178.6200  146.5510 C   0  0  0  0  0  3  0  0  0  0  0  0
  185.1630  178.4620  140.9110 C   0  0  1  0  0  3  0  0  0  0  0  0
  186.9260  178.1400  146.7470 C   0  0  0  0  0  0  0  0  0  0  0  0
  185.6870  178.3940  147.3440 C   0  0  0  0  0  3  0  0  0  0  0  0
  188.3360  177.8600  147.7440 Cl  0  0  0  0  0  0  0  0  0  0  0  0
  183.5250  178.8140  144.3620 C   0  0  0  0  0  3  0  0  0  0  0  0
  185.9840  178.3120  143.1500 C   0  0  0  0  0  0  0  0  0  0  0  0
  188.3100  177.8100  142.6740 N   0  0  0  0  0  0  0  0  0  0  0  0
  184.8680  178.5370  142.3780 C   0  0  0  0  0  0  0  0  0  0  0  0
  185.9180  178.3330  144.5510 C   0  0  0  0  0  0  0  0  0  0  0  0
  187.0420  178.1080  145.3550 C   0  0  0  0  0  3  0  0  0  0  0  0
  184.9280  179.7540  140.2870 N   0  0  0  0  0  2  0  0  0  0  0  0
  182.1790  179.4020  140.0100 O   0  0  0  0  0  0  0  0  0  0  0  0
  184.3030  179.5070  139.0570 N   0  0  0  0  0  2  0  0  0  0  0  0
  182.8910  179.3330  138.9710 C   0  0  0  0  0  0  0  0  0  0  0  0
  182.2930  179.0780  137.7010 N   0  0  0  0  0  2  0  0  0  0  0  0
  180.8580  178.8950  137.5480 C   0  0  0  0  0  2  0  0  0  0  0  0
  181.7090  176.7000  136.9540 N   0  0  0  0  0  1  0  0  0  0  0  0
  180.5320  177.4180  137.4110 C   0  0  1  0  0  3  0  0  0  0  0  0
  180.3120  175.5160  139.0080 O   0  0  0  0  0  0  0  0  0  0  0  0
  180.0630  176.8490  138.7120 C   0  0  0  0  0  0  0  0  0  0  0  0
  179.4340  177.5650  139.5370 O   0  0  0  0  0  1  0  0  0  0  0  0
  189.4160  177.5590  141.7610 C   0  0  0  0  0  2  0  0  0  0  0  0
  190.6350  178.6410  143.7230 C   0  0  0  0  0  2  0  0  0  0  0  0
  191.6810  176.7840  145.0540 C   0  0  0  0  0  2  0  0  0  0  0  0
  191.7280  178.2770  144.7200 C   0  0  0  0  0  2  0  0  0  0  0  0
  191.4500  176.5290  142.6550 O   0  0  0  0  0  0  0  0  0  0  0  0
  190.7540  177.7550  142.4680 C   0  0  1  0  0  3  0  0  0  0  0  0
  191.0950  175.9660  143.8990 C   0  0  0  0  0  2  0  0  0  0  0  0
  1  5  1  0  0  0  0
  2  6  1  0  0  0  0
  2  4  1  0  0  0  0
  3 10  1  0  0  0  0
  4 12  2  0  0  0  0
  4 11  1  0  0  0  0
  5  8  2  0  0  0  0
  6 16  1  6  0  0  0
  6 13  1  0  0  0  0
  7  8  1  0  0  0  0
  7  9  1  0  0  0  0
 10  1  2  0  0  0  0
 11 14  2  0  0  0  0
 13  3  2  0  0  0  0
 13 11  1  0  0  0  0
 14  1  1  0  0  0  0
 14 15  1  0  0  0  0
 15  7  2  0  0  0  0
 18 16  1  0  0  0  0
 19 18  1  0  0  0  0
 19 17  2  0  0  0  0
 20 19  1  0  0  0  0
 21 20  1  0  0  0  0
 23 22  1  1  0  0  0
 23 21  1  0  0  0  0
 23 25  1  0  0  0  0
 25 24  2  0  0  0  0
 25 26  1  0  0  0  0
 27 12  1  0  0  0  0
 28 30  1  0  0  0  0
 30 29  1  0  0  0  0
 31 33  1  0  0  0  0
 32 27  1  1  0  0  0
 32 31  1  0  0  0  0
 32 28  1  0  0  0  0
 33 29  1  0  0  0  0
M  END
>  <MODEL>
8

>  <REMARK>
 VINA RESULT:      -9.0      2.567      3.842
  Name = 
  7 active torsions:
  status: ('A' for Active; 'I' for Inactive)
    1  A    between atoms: C_10  and  N_24
    2  A    between atoms: C_11  and  CA_30
    3  A    between atoms: N_20  and  N_24
    4  A    between atoms: N_21  and  C_25
    5  A    between atoms: C_23  and  C_25
    6  A    between atoms: CA_30  and  C_32
    7  A    between atoms: N_31  and  C_32
                            x       y       z     vdW  Elec       q    Type
                         _______ _______ _______ _____ _____    ______ ____

>  <TORSDO>
F 7

$$$$
=
 OpenBabel10222417563D

 33 36  0  0  1  0  0  0  0  0999 V2000
  187.9810  177.5010  146.3550 C   0  0  0  0  0  0  0  0  0  0  0  0
  185.2600  178.3060  142.5020 C   0  0  0  0  0  2  0  0  0  0  0  0
  185.5710  177.8310  146.2280 C   0  0  0  0  0  3  0  0  0  0  0  0
  186.7120  178.0940  142.8000 C   0  0  0  0  0  0  0  0  0  0  0  0
  189.1290  177.2560  147.1130 C   0  0  0  0  0  3  0  0  0  0  0  0
  184.5720  178.2530  143.8800 C   0  0  1  0  0  3  0  0  0  0  0  0
  190.4810  177.3290  145.1010 C   0  0  0  0  0  0  0  0  0  0  0  0
  190.3760  177.1700  146.4870 C   0  0  0  0  0  3  0  0  0  0  0  0
  192.0450  177.2200  144.3250 Cl  0  0  0  0  0  0  0  0  0  0  0  0
  186.7270  177.5850  146.9830 C   0  0  0  0  0  3  0  0  0  0  0  0
  186.9110  177.9080  144.2210 C   0  0  0  0  0  0  0  0  0  0  0  0
  187.6630  178.0680  141.9190 N   0  0  0  0  0  0  0  0  0  0  0  0
  185.6880  177.9940  144.8450 C   0  0  0  0  0  0  0  0  0  0  0  0
  188.0850  177.6630  144.9490 C   0  0  0  0  0  0  0  0  0  0  0  0
  189.3400  177.5740  144.3330 C   0  0  0  0  0  3  0  0  0  0  0  0
  183.9590  179.5410  144.1610 N   0  0  0  0  0  2  0  0  0  0  0  0
  181.3350  178.6100  144.2380 O   0  0  0  0  0  0  0  0  0  0  0  0
  183.0260  179.7810  143.1420 N   0  0  0  0  0  2  0  0  0  0  0  0
  181.6950  179.2800  143.2320 C   0  0  0  0  0  0  0  0  0  0  0  0
  180.7760  179.5410  142.1720 N   0  0  0  0  0  2  0  0  0  0  0  0
  179.4030  179.0590  142.2060 C   0  0  0  0  0  2  0  0  0  0  0  0
  179.6630  179.2800  139.8010 N   0  0  0  0  0  1  0  0  0  0  0  0
  179.0090  178.5110  140.8450 C   0  0  1  0  0  3  0  0  0  0  0  0
  179.7960  176.5690  139.4950 O   0  0  0  0  0  0  0  0  0  0  0  0
  179.3790  177.0670  140.7210 C   0  0  0  0  0  0  0  0  0  0  0  0
  179.3050  176.2970  141.7160 O   0  0  0  0  0  1  0  0  0  0  0  0
  187.4290  178.2540  140.4950 C   0  0  0  0  0  2  0  0  0  0  0  0
  189.8480  177.4540  140.3880 C   0  0  0  0  0  2  0  0  0  0  0  0
  190.1330  176.2620  138.1950 C   0  0  0  0  0  2  0  0  0  0  0  0
  190.8460  176.9960  139.3330 C   0  0  0  0  0  2  0  0  0  0  0  0
  188.5760  178.1140  138.3370 O   0  0  0  0  0  0  0  0  0  0  0  0
  188.7500  178.3140  139.7340 C   0  0  1  0  0  3  0  0  0  0  0  0
  188.6860  176.7400  138.0350 C   0  0  0  0  0  2  0  0  0  0  0  0
  1 10  2  0  0  0  0
  1  5  1  0  0  0  0
  2  4  1  0  0  0  0
  2  6  1  0  0  0  0
  3 10  1  0  0  0  0
  4 11  1  0  0  0  0
  6 16  1  1  0  0  0
  6 13  1  0  0  0  0
  7  8  1  0  0  0  0
  8  5  2  0  0  0  0
  9  7  1  0  0  0  0
 11 13  1  0  0  0  0
 11 14  2  0  0  0  0
 12  4  2  0  0  0  0
 13  3  2  0  0  0  0
 14  1  1  0  0  0  0
 15 14  1  0  0  0  0
 15  7  2  0  0  0  0
 18 19  1  0  0  0  0
 18 16  1  0  0  0  0
 19 17  2  0  0  0  0
 20 21  1  0  0  0  0
 20 19  1  0  0  0  0
 23 22  1  6  0  0  0
 23 21  1  0  0  0  0
 24 25  2  0  0  0  0
 25 23  1  0  0  0  0
 25 26  1  0  0  0  0
 27 12  1  0  0  0  0
 29 30  1  0  0  0  0
 30 28  1  0  0  0  0
 31 32  1  0  0  0  0
 32 28  1  0  0  0  0
 32 27  1  1  0  0  0
 33 29  1  0  0  0  0
 33 31  1  0  0  0  0
M  END
>  <MODEL>
9

>  <REMARK>
 VINA RESULT:      -8.9      2.910      3.928
  Name = 
  7 active torsions:
  status: ('A' for Active; 'I' for Inactive)
    1  A    between atoms: C_10  and  N_24
    2  A    between atoms: C_11  and  CA_30
    3  A    between atoms: N_20  and  N_24
    4  A    between atoms: N_21  and  C_25
    5  A    between atoms: C_23  and  C_25
    6  A    between atoms: CA_30  and  C_32
    7  A    between atoms: N_31  and  C_32
                            x       y       z     vdW  Elec       q    Type
                         _______ _______ _______ _____ _____    ______ ____

>  <TORSDO>
F 7

$$$$
