=
 OpenBabel10222418083D

 25 29  0  0  1  0  0  0  0  0999 V2000
  186.7710  178.6590  147.4470 C   0  0  0  0  0  2  0  0  0  0  0  0
  191.0620  176.5570  148.0590 C   0  0  0  0  0  3  0  0  0  0  0  0
  190.3650  177.4350  145.7350 C   0  0  2  0  0  3  0  0  0  0  0  0
  182.9640  179.6280  144.5880 N   0  0  0  0  0  1  0  0  0  0  0  0
  191.0240  177.3230  141.2910 O   0  0  0  0  0  0  0  0  0  0  0  0
  184.7660  178.1680  143.5810 C   0  0  0  0  0  2  0  0  0  0  0  0
  187.9050  176.8610  145.2010 C   0  0  0  0  0  2  0  0  0  0  0  0
  189.2950  177.9930  143.3280 C   0  0  2  0  0  3  0  0  0  0  0  0
  192.0310  175.8410  147.4900 C   0  0  0  0  0  3  0  0  0  0  0  0
  186.2850  178.1580  143.6800 C   0  0  1  0  0  3  0  0  0  0  0  0
  192.0250  178.9870  143.1210 N   0  0  0  0  0  1  0  0  0  0  0  0
  191.3250  176.3820  145.1930 C   0  0  0  0  0  0  0  0  0  0  0  0
  188.8780  177.4620  147.7200 C   0  0  0  0  0  0  0  0  0  0  0  0
  190.9850  177.6230  142.7720 P   0  0  2  0  0  0  0  0  0  0  0  0
  191.5440  176.1820  143.7220 C   0  0  0  0  0  2  0  0  0  0  0  0
  190.0750  177.2550  147.2280 C   0  0  0  0  0  0  0  0  0  0  0  0
  184.2170  178.9700  144.7300 C   0  0  0  0  0  0  0  0  0  0  0  0
  186.1090  178.3630  146.1090 C   0  0  1  0  0  3  0  0  0  0  0  0
  189.1200  177.6970  144.8450 C   0  0  2  0  0  3  0  0  0  0  0  0
  192.1220  175.7030  146.0240 C   0  0  0  0  0  3  0  0  0  0  0  0
  188.2830  177.3070  142.4210 C   0  0  0  0  0  3  0  0  0  0  0  0
  184.8540  179.0310  145.8670 N   0  0  0  0  0  0  0  0  0  0  0  0
  186.7100  177.7400  145.0670 C   0  0  2  0  0  3  0  0  0  0  0  0
  186.9460  177.3810  142.5690 C   0  0  0  0  0  3  0  0  0  0  0  0
  187.6310  177.6100  148.0850 C   0  0  0  0  0  3  0  0  0  0  0  0
  1 25  1  0  0  0  0
  3 12  1  6  0  0  0
  3 16  1  0  0  0  0
  4 17  1  0  0  0  0
  6 10  1  0  0  0  0
  6 17  1  0  0  0  0
  8 21  1  6  0  0  0
  8 19  1  0  0  0  0
  9  2  2  0  0  0  0
 10 24  1  6  0  0  0
 10 23  1  0  0  0  0
 12 20  2  0  0  0  0
 13 25  2  0  0  0  0
 14  5  2  6  0  0  0
 14 11  1  0  0  0  0
 14  8  1  0  0  0  0
 14 15  1  0  0  0  0
 15 12  1  0  0  0  0
 16 13  2  0  0  0  0
 16  2  1  0  0  0  0
 17 22  2  0  0  0  0
 18  1  1  6  0  0  0
 19  7  1  6  0  0  0
 19  3  1  0  0  0  0
 20  9  1  0  0  0  0
 21 24  2  0  0  0  0
 22 18  1  0  0  0  0
 23  7  1  6  0  0  0
 23 18  1  0  0  0  0
M  END
>  <MODEL>
1

>  <REMARK>
 VINA RESULT:     -10.6      0.000      0.000
  Name = 
  0 active torsions:
  status: ('A' for Active; 'I' for Inactive)
                            x       y       z     vdW  Elec       q    Type
                         _______ _______ _______ _____ _____    ______ ____

>  <TORSDO>
F 0

$$$$
=
 OpenBabel10222418083D

 25 29  0  0  1  0  0  0  0  0999 V2000
  185.0840  179.3580  143.9810 C   0  0  0  0  0  2  0  0  0  0  0  0
  187.7310  177.5280  147.5670 C   0  0  0  0  0  3  0  0  0  0  0  0
  188.8250  178.0800  145.2950 C   0  0  2  0  0  3  0  0  0  0  0  0
  184.2440  179.8060  139.2170 N   0  0  0  0  0  1  0  0  0  0  0  0
  192.2900  177.4420  142.5070 O   0  0  0  0  0  0  0  0  0  0  0  0
  186.1740  178.3080  139.8680 C   0  0  0  0  0  2  0  0  0  0  0  0
  187.3350  177.3430  143.3190 C   0  0  0  0  0  2  0  0  0  0  0  0
  189.6810  178.2890  142.7510 C   0  0  2  0  0  3  0  0  0  0  0  0
  188.7910  176.7870  147.8880 C   0  0  0  0  0  3  0  0  0  0  0  0
  187.2300  178.3720  140.9640 C   0  0  1  0  0  3  0  0  0  0  0  0
  191.8900  179.3610  144.3170 N   0  0  0  0  0  1  0  0  0  0  0  0
  189.8410  177.0080  145.6710 C   0  0  0  0  0  0  0  0  0  0  0  0
  186.3930  178.2920  145.7410 C   0  0  0  0  0  0  0  0  0  0  0  0
  191.2830  177.9220  143.5260 P   0  0  2  0  0  0  0  0  0  0  0  0
  190.9800  176.6350  144.7680 C   0  0  0  0  0  2  0  0  0  0  0  0
  187.5970  178.0750  146.2110 C   0  0  0  0  0  0  0  0  0  0  0  0
  185.0390  179.2230  140.2420 C   0  0  0  0  0  0  0  0  0  0  0  0
  185.4780  178.8710  142.5940 C   0  0  1  0  0  3  0  0  0  0  0  0
  188.5160  178.1780  143.7770 C   0  0  2  0  0  3  0  0  0  0  0  0
  189.8350  176.4710  146.8950 C   0  0  0  0  0  3  0  0  0  0  0  0
  189.5050  177.4540  141.4910 C   0  0  0  0  0  3  0  0  0  0  0  0
  184.7490  179.4510  141.4930 N   0  0  0  0  0  0  0  0  0  0  0  0
  186.5890  178.1480  142.3130 C   0  0  2  0  0  3  0  0  0  0  0  0
  188.4220  177.4910  140.6900 C   0  0  0  0  0  3  0  0  0  0  0  0
  185.2350  178.4330  145.1520 C   0  0  0  0  0  3  0  0  0  0  0  0
  1 25  1  0  0  0  0
  2  9  2  0  0  0  0
  3 12  1  6  0  0  0
  3 16  1  0  0  0  0
  4 17  1  0  0  0  0
  6 17  1  0  0  0  0
  8 21  1  6  0  0  0
  8 14  1  0  0  0  0
  8 19  1  0  0  0  0
 10  6  1  6  0  0  0
 10 23  1  0  0  0  0
 12 20  2  0  0  0  0
 13 16  2  0  0  0  0
 14  5  2  6  0  0  0
 14 11  1  0  0  0  0
 14 15  1  0  0  0  0
 15 12  1  0  0  0  0
 16  2  1  0  0  0  0
 17 22  2  0  0  0  0
 18  1  1  1  0  0  0
 19  7  1  6  0  0  0
 19  3  1  0  0  0  0
 20  9  1  0  0  0  0
 22 18  1  0  0  0  0
 23 18  1  0  0  0  0
 23  7  1  1  0  0  0
 24 10  1  0  0  0  0
 24 21  2  0  0  0  0
 25 13  2  0  0  0  0
M  END
>  <MODEL>
2

>  <REMARK>
 VINA RESULT:     -10.6      1.918      2.982
  Name = 
  0 active torsions:
  status: ('A' for Active; 'I' for Inactive)
                            x       y       z     vdW  Elec       q    Type
                         _______ _______ _______ _____ _____    ______ ____

>  <TORSDO>
F 0

$$$$
=
 OpenBabel10222418083D

 25 29  0  0  1  0  0  0  0  0999 V2000
  190.5630  177.9980  143.0830 C   0  0  0  0  0  2  0  0  0  0  0  0
  186.9400  178.4140  139.9360 C   0  0  0  0  0  3  0  0  0  0  0  0
  186.5190  178.7720  142.4570 C   0  0  2  0  0  3  0  0  0  0  0  0
  192.1150  176.8260  147.5350 N   0  0  0  0  0  1  0  0  0  0  0  0
  183.5320  178.9460  145.8090 O   0  0  0  0  0  0  0  0  0  0  0  0
  189.6490  176.4860  147.0940 C   0  0  0  0  0  2  0  0  0  0  0  0
  187.7460  177.0060  143.8850 C   0  0  0  0  0  2  0  0  0  0  0  0
  186.1850  178.6620  145.1260 C   0  0  2  0  0  3  0  0  0  0  0  0
  185.6270  178.2900  139.7420 C   0  0  0  0  0  3  0  0  0  0  0  0
  188.6090  177.2600  146.2950 C   0  0  1  0  0  3  0  0  0  0  0  0
  184.5290  180.9170  144.3120 N   0  0  0  0  0  1  0  0  0  0  0  0
  185.0860  178.3550  142.1440 C   0  0  0  0  0  0  0  0  0  0  0  0
  188.6990  178.0610  141.5120 C   0  0  0  0  0  0  0  0  0  0  0  0
  184.5080  179.2060  144.6850 P   0  0  2  0  0  0  0  0  0  0  0  0
  184.0280  178.2730  143.2050 C   0  0  0  0  0  2  0  0  0  0  0  0
  187.4800  178.4910  141.2980 C   0  0  0  0  0  0  0  0  0  0  0  0
  191.0180  176.9090  146.6340 C   0  0  0  0  0  0  0  0  0  0  0  0
  190.1710  177.3830  144.4190 C   0  0  1  0  0  3  0  0  0  0  0  0
  187.0280  178.3420  143.8590 C   0  0  2  0  0  3  0  0  0  0  0  0
  184.6900  178.1950  140.8770 C   0  0  0  0  0  3  0  0  0  0  0  0
  186.1190  177.5390  146.1510 C   0  0  0  0  0  3  0  0  0  0  0  0
  191.2180  177.3060  145.4080 N   0  0  0  0  0  0  0  0  0  0  0  0
  188.8980  177.1430  144.8180 C   0  0  2  0  0  3  0  0  0  0  0  0
  187.1920  176.9170  146.6780 C   0  0  0  0  0  3  0  0  0  0  0  0
  189.8580  177.5520  141.8370 C   0  0  0  0  0  3  0  0  0  0  0  0
  2 16  1  0  0  0  0
  3 16  1  6  0  0  0
  3 19  1  0  0  0  0
  8 21  1  1  0  0  0
  9  2  2  0  0  0  0
  9 20  1  0  0  0  0
 10 24  1  6  0  0  0
 10  6  1  0  0  0  0
 12  3  1  0  0  0  0
 12 15  1  0  0  0  0
 13 25  2  0  0  0  0
 14 11  1  6  0  0  0
 14  8  1  0  0  0  0
 14  5  2  0  0  0  0
 15 14  1  0  0  0  0
 16 13  2  0  0  0  0
 17  6  1  0  0  0  0
 17  4  1  0  0  0  0
 18  1  1  1  0  0  0
 18 23  1  0  0  0  0
 18 22  1  0  0  0  0
 19  7  1  6  0  0  0
 19  8  1  0  0  0  0
 20 12  2  0  0  0  0
 21 24  2  0  0  0  0
 22 17  2  0  0  0  0
 23  7  1  6  0  0  0
 23 10  1  0  0  0  0
 25  1  1  0  0  0  0
M  END
>  <MODEL>
3

>  <REMARK>
 VINA RESULT:      -8.3      2.944      6.643
  Name = 
  0 active torsions:
  status: ('A' for Active; 'I' for Inactive)
                            x       y       z     vdW  Elec       q    Type
                         _______ _______ _______ _____ _____    ______ ____

>  <TORSDO>
F 0

$$$$
=
 OpenBabel10222418083D

 25 29  0  0  1  0  0  0  0  0999 V2000
  186.3650  177.8310  142.6340 C   0  0  0  0  0  2  0  0  0  0  0  0
  186.0920  178.5200  137.8740 C   0  0  0  0  0  3  0  0  0  0  0  0
  188.1520  177.3520  138.9020 C   0  0  2  0  0  3  0  0  0  0  0  0
  189.0710  177.4480  146.6510 N   0  0  0  0  0  1  0  0  0  0  0  0
  192.4420  176.1120  138.4050 O   0  0  0  0  0  0  0  0  0  0  0  0
  190.3240  177.9410  144.5110 C   0  0  0  0  0  2  0  0  0  0  0  0
  188.9340  178.5330  141.0610 C   0  0  0  0  0  2  0  0  0  0  0  0
  190.3900  176.5770  140.1820 C   0  0  2  0  0  3  0  0  0  0  0  0
  186.7760  178.7150  136.7460 C   0  0  0  0  0  3  0  0  0  0  0  0
  190.1560  177.4860  143.0680 C   0  0  1  0  0  3  0  0  0  0  0  0
  190.2050  174.7370  137.9310 N   0  0  0  0  0  1  0  0  0  0  0  0
  188.8940  177.8650  137.6730 C   0  0  0  0  0  0  0  0  0  0  0  0
  186.2990  178.3130  140.2440 C   0  0  0  0  0  0  0  0  0  0  0  0
  190.9370  176.2280  138.4850 P   0  0  2  0  0  0  0  0  0  0  0  0
  190.3560  177.6030  137.4550 C   0  0  0  0  0  2  0  0  0  0  0  0
  186.7690  177.9900  139.0640 C   0  0  0  0  0  0  0  0  0  0  0  0
  189.0380  177.6790  145.2480 C   0  0  0  0  0  0  0  0  0  0  0  0
  187.7650  177.9740  143.2130 C   0  0  1  0  0  3  0  0  0  0  0  0
  189.0070  177.2890  140.1960 C   0  0  2  0  0  3  0  0  0  0  0  0
  188.2230  178.4390  136.6690 C   0  0  0  0  0  3  0  0  0  0  0  0
  191.4890  177.2980  140.9490 C   0  0  0  0  0  3  0  0  0  0  0  0
  187.8930  177.7080  144.6240 N   0  0  0  0  0  0  0  0  0  0  0  0
  188.9000  178.0830  142.4800 C   0  0  2  0  0  3  0  0  0  0  0  0
  191.3930  177.6990  142.2320 C   0  0  0  0  0  3  0  0  0  0  0  0
  185.9710  178.6730  141.4570 C   0  0  0  0  0  3  0  0  0  0  0  0
  2 16  1  0  0  0  0
  3 12  1  6  0  0  0
  3 16  1  0  0  0  0
  3 19  1  0  0  0  0
  5 14  2  0  0  0  0
  6 17  1  0  0  0  0
  8 19  1  0  0  0  0
  8 21  1  6  0  0  0
  9  2  2  0  0  0  0
 10 24  1  6  0  0  0
 10  6  1  0  0  0  0
 13 25  2  0  0  0  0
 14 11  1  6  0  0  0
 14  8  1  0  0  0  0
 15 12  1  0  0  0  0
 15 14  1  0  0  0  0
 16 13  2  0  0  0  0
 17  4  1  0  0  0  0
 18  1  1  6  0  0  0
 18 22  1  0  0  0  0
 19  7  1  6  0  0  0
 20  9  1  0  0  0  0
 20 12  2  0  0  0  0
 21 24  2  0  0  0  0
 22 17  2  0  0  0  0
 23  7  1  6  0  0  0
 23 10  1  0  0  0  0
 23 18  1  0  0  0  0
 25  1  1  0  0  0  0
M  END
>  <MODEL>
4

>  <REMARK>
 VINA RESULT:      -7.6      3.657      6.601
  Name = 
  0 active torsions:
  status: ('A' for Active; 'I' for Inactive)
                            x       y       z     vdW  Elec       q    Type
                         _______ _______ _______ _____ _____    ______ ____

>  <TORSDO>
F 0

$$$$
