=
 OpenBabel10222420073D

 27 29  0  0  1  0  0  0  0  0999 V2000
  189.4490  177.5340  143.9860 C   0  0  2  0  0  3  0  0  0  0  0  0
  186.9590  177.9800  143.9550 C   0  0  0  0  0  3  0  0  0  0  0  0
  186.8760  177.8530  146.7370 C   0  0  0  0  0  3  0  0  0  0  0  0
  188.0870  177.6690  146.0690 C   0  0  0  0  0  3  0  0  0  0  0  0
  185.7070  178.1030  146.0140 C   0  0  0  0  0  3  0  0  0  0  0  0
  185.7370  178.1690  144.6160 C   0  0  0  0  0  0  0  0  0  0  0  0
  188.1350  177.7320  144.6790 C   0  0  0  0  0  0  0  0  0  0  0  0
  184.4950  178.4100  143.8480 C   0  0  0  0  0  0  0  0  0  0  0  0
  182.1730  178.8730  142.3790 C   0  0  0  0  0  3  0  0  0  0  0  0
  182.1440  179.0140  143.7660 C   0  0  0  0  0  3  0  0  0  0  0  0
  183.3290  178.5150  141.7530 N   0  0  0  0  0  0  0  0  0  0  0  0
  184.4740  178.2840  142.4490 C   0  0  0  0  0  3  0  0  0  0  0  0
  183.3110  178.7800  144.4990 C   0  0  0  0  0  3  0  0  0  0  0  0
  190.6840  177.7200  144.8910 C   0  0  2  0  0  3  0  0  0  0  0  0
  191.6460  179.1420  144.2960 S   0  0  0  0  0  1  0  0  0  0  0  0
  191.5040  176.5900  144.8880 O   0  0  0  0  0  0  0  0  0  0  0  0
  191.8010  176.3610  146.2370 C   0  0  0  0  0  1  0  0  0  0  0  0
  189.4780  178.2870  142.6430 C   0  0  0  0  0  2  0  0  0  0  0  0
  190.7570  176.2420  139.8820 O   0  0  0  0  0  0  0  0  0  0  0  0
  190.7350  176.9180  140.9450 C   0  0  0  0  0  0  0  0  0  0  0  0
  189.4930  177.4210  141.4660 N   0  0  0  0  0  0  0  0  0  0  0  0
  191.9270  177.1780  141.6030 O   0  0  0  0  0  1  0  0  0  0  0  0
  188.2770  177.3580  140.6650 C   0  0  0  0  0  2  0  0  0  0  0  0
  187.9550  176.5940  138.1140 O   0  0  0  0  0  1  0  0  0  0  0  0
  187.0110  178.4930  138.9790 O   0  0  0  0  0  0  0  0  0  0  0  0
  188.0750  177.9840  138.2090 C   0  0  1  0  0  3  0  0  0  0  0  0
  188.2690  178.4610  139.6120 C   0  0  2  0  0  3  0  0  0  0  0  0
  1 18  1  6  0  0  0
  1  7  1  0  0  0  0
  1 14  1  0  0  0  0
  2  6  2  0  0  0  0
  2  7  1  0  0  0  0
  4  3  1  0  0  0  0
  5  3  2  0  0  0  0
  6  5  1  0  0  0  0
  7  4  2  0  0  0  0
  8 13  1  0  0  0  0
  8  6  1  0  0  0  0
  9 10  1  0  0  0  0
 10 13  2  0  0  0  0
 11  9  2  0  0  0  0
 11 12  1  0  0  0  0
 12  8  2  0  0  0  0
 14 15  1  6  0  0  0
 16 14  1  0  0  0  0
 16 17  1  0  0  0  0
 19 20  2  0  0  0  0
 20 21  1  0  0  0  0
 20 22  1  0  0  0  0
 21 18  1  0  0  0  0
 23 21  1  0  0  0  0
 25 27  1  0  0  0  0
 26 24  1  1  0  0  0
 26 25  1  0  0  0  0
 26 27  1  0  0  0  0
 27 23  1  1  0  0  0
M  END
>  <MODEL>
1

>  <REMARK>
 VINA RESULT:      -8.2      0.000      0.000
  Name = 
  8 active torsions:
  status: ('A' for Active; 'I' for Inactive)
    1  A    between atoms: C_1  and  N_17
    2  A    between atoms: C_1  and  C_26
    3  A    between atoms: O_5  and  C_8
    4  A    between atoms: C_6  and  C_22
    5  A    between atoms: C_8  and  C_24
    6  A    between atoms: C_14  and  N_17
    7  A    between atoms: C_14  and  C_24
    8  A    between atoms: C_24  and  C_27
                            x       y       z     vdW  Elec       q    Type
                         _______ _______ _______ _____ _____    ______ ____

>  <TORSDO>
F 8

$$$$
=
 OpenBabel10222420073D

 27 29  0  0  1  0  0  0  0  0999 V2000
  188.8600  177.2350  142.9250 C   0  0  2  0  0  3  0  0  0  0  0  0
  186.4310  177.8730  143.2260 C   0  0  0  0  0  3  0  0  0  0  0  0
  186.7990  178.0750  145.9800 C   0  0  0  0  0  3  0  0  0  0  0  0
  187.8700  177.7170  145.1600 C   0  0  0  0  0  3  0  0  0  0  0  0
  185.5440  178.3320  145.4230 C   0  0  0  0  0  3  0  0  0  0  0  0
  185.3480  178.2350  144.0400 C   0  0  0  0  0  0  0  0  0  0  0  0
  187.6920  177.6160  143.7830 C   0  0  0  0  0  0  0  0  0  0  0  0
  184.0140  178.4840  143.4510 C   0  0  0  0  0  0  0  0  0  0  0  0
  181.5140  178.9660  142.3180 C   0  0  0  0  0  3  0  0  0  0  0  0
  181.6590  179.0210  143.7030 C   0  0  0  0  0  3  0  0  0  0  0  0
  182.5890  178.6810  141.5290 N   0  0  0  0  0  0  0  0  0  0  0  0
  183.8180  178.4430  142.0610 C   0  0  0  0  0  3  0  0  0  0  0  0
  182.9130  178.7790  144.2670 C   0  0  0  0  0  3  0  0  0  0  0  0
  190.1270  176.8350  143.7080 C   0  0  2  0  0  3  0  0  0  0  0  0
  191.3680  178.1520  143.5400 S   0  0  0  0  0  1  0  0  0  0  0  0
  190.6730  175.6400  143.2360 O   0  0  0  0  0  0  0  0  0  0  0  0
  191.8140  175.4360  144.0190 C   0  0  0  0  0  1  0  0  0  0  0  0
  189.0630  178.2590  141.7910 C   0  0  0  0  0  2  0  0  0  0  0  0
  187.6660  177.4250  138.5060 O   0  0  0  0  0  0  0  0  0  0  0  0
  187.8010  177.9750  139.6320 C   0  0  0  0  0  0  0  0  0  0  0  0
  188.9540  177.6990  140.4460 N   0  0  0  0  0  0  0  0  0  0  0  0
  186.8190  178.8440  140.0790 O   0  0  0  0  0  1  0  0  0  0  0  0
  189.8640  176.6160  140.0940 C   0  0  0  0  0  2  0  0  0  0  0  0
  191.0670  174.9840  138.3390 O   0  0  0  0  0  1  0  0  0  0  0  0
  190.8400  177.2370  137.9970 O   0  0  0  0  0  0  0  0  0  0  0  0
  191.7220  176.2170  138.4050 C   0  0  1  0  0  3  0  0  0  0  0  0
  191.0970  177.1620  139.3800 C   0  0  2  0  0  3  0  0  0  0  0  0
  1 18  1  6  0  0  0
  1 14  1  0  0  0  0
  1  7  1  0  0  0  0
  2  7  2  0  0  0  0
  2  6  1  0  0  0  0
  4  3  2  0  0  0  0
  5  3  1  0  0  0  0
  6  5  2  0  0  0  0
  7  4  1  0  0  0  0
  8  6  1  0  0  0  0
  8 13  1  0  0  0  0
  9 10  1  0  0  0  0
 10 13  2  0  0  0  0
 11 12  1  0  0  0  0
 11  9  2  0  0  0  0
 12  8  2  0  0  0  0
 14 15  1  6  0  0  0
 16 14  1  0  0  0  0
 16 17  1  0  0  0  0
 19 20  2  0  0  0  0
 20 22  1  0  0  0  0
 20 21  1  0  0  0  0
 21 18  1  0  0  0  0
 23 21  1  0  0  0  0
 25 26  1  0  0  0  0
 25 27  1  0  0  0  0
 26 24  1  1  0  0  0
 26 27  1  0  0  0  0
 27 23  1  1  0  0  0
M  END
>  <MODEL>
2

>  <REMARK>
 VINA RESULT:      -8.0      1.305      2.273
  Name = 
  8 active torsions:
  status: ('A' for Active; 'I' for Inactive)
    1  A    between atoms: C_1  and  N_17
    2  A    between atoms: C_1  and  C_26
    3  A    between atoms: O_5  and  C_8
    4  A    between atoms: C_6  and  C_22
    5  A    between atoms: C_8  and  C_24
    6  A    between atoms: C_14  and  N_17
    7  A    between atoms: C_14  and  C_24
    8  A    between atoms: C_24  and  C_27
                            x       y       z     vdW  Elec       q    Type
                         _______ _______ _______ _____ _____    ______ ____

>  <TORSDO>
F 8

$$$$
=
 OpenBabel10222420073D

 27 29  0  0  1  0  0  0  0  0999 V2000
  185.3370  179.0090  141.5810 C   0  0  2  0  0  3  0  0  0  0  0  0
  186.1140  178.5320  143.9410 C   0  0  0  0  0  3  0  0  0  0  0  0
  183.5390  178.9770  144.9060 C   0  0  0  0  0  3  0  0  0  0  0  0
  183.7990  179.0980  143.5410 C   0  0  0  0  0  3  0  0  0  0  0  0
  184.5650  178.6320  145.7890 C   0  0  0  0  0  3  0  0  0  0  0  0
  185.8630  178.4050  145.3150 C   0  0  0  0  0  0  0  0  0  0  0  0
  185.0850  178.8760  143.0530 C   0  0  0  0  0  0  0  0  0  0  0  0
  186.9550  178.0630  146.2520 C   0  0  0  0  0  0  0  0  0  0  0  0
  189.0070  177.4420  148.0320 C   0  0  0  0  0  3  0  0  0  0  0  0
  189.1480  177.1130  146.6850 C   0  0  0  0  0  3  0  0  0  0  0  0
  187.8750  178.0640  148.4690 N   0  0  0  0  0  0  0  0  0  0  0  0
  186.8620  178.3770  147.6180 C   0  0  0  0  0  3  0  0  0  0  0  0
  188.1170  177.4260  145.7960 C   0  0  0  0  0  3  0  0  0  0  0  0
  184.0680  179.2100  140.7300 C   0  0  2  0  0  3  0  0  0  0  0  0
  183.4340  177.5860  140.2170 S   0  0  0  0  0  1  0  0  0  0  0  0
  184.3240  179.9730  139.5890 O   0  0  0  0  0  0  0  0  0  0  0  0
  183.1810  179.8240  138.7960 C   0  0  0  0  0  1  0  0  0  0  0  0
  186.3110  177.9200  141.0940 C   0  0  0  0  0  2  0  0  0  0  0  0
  188.9460  178.9280  138.7520 O   0  0  0  0  0  1  0  0  0  0  0  0
  187.8180  178.5690  139.1850 C   0  0  0  0  0  0  0  0  0  0  0  0
  187.5870  178.4300  140.5970 N   0  0  0  0  0  0  0  0  0  0  0  0
  186.8040  178.3020  138.2790 O   0  0  0  0  0  0  0  0  0  0  0  0
  188.7010  178.4770  141.5350 C   0  0  0  0  0  2  0  0  0  0  0  0
  191.0800  177.4380  140.8590 O   0  0  0  0  0  1  0  0  0  0  0  0
  190.1310  177.1500  142.9240 O   0  0  0  0  0  0  0  0  0  0  0  0
  190.3590  176.5540  141.6690 C   0  0  1  0  0  3  0  0  0  0  0  0
  189.0170  177.0810  142.0640 C   0  0  2  0  0  3  0  0  0  0  0  0
  1 18  1  6  0  0  0
  1  7  1  0  0  0  0
  2  6  1  0  0  0  0
  3  5  1  0  0  0  0
  4  3  2  0  0  0  0
  6  5  2  0  0  0  0
  6  8  1  0  0  0  0
  7  4  1  0  0  0  0
  7  2  2  0  0  0  0
  8 12  1  0  0  0  0
  9 11  1  0  0  0  0
 10  9  2  0  0  0  0
 12 11  2  0  0  0  0
 13  8  2  0  0  0  0
 13 10  1  0  0  0  0
 14 15  1  6  0  0  0
 14  1  1  0  0  0  0
 16 14  1  0  0  0  0
 17 16  1  0  0  0  0
 19 20  1  0  0  0  0
 20 21  1  0  0  0  0
 21 18  1  0  0  0  0
 21 23  1  0  0  0  0
 22 20  2  0  0  0  0
 26 24  1  6  0  0  0
 26 27  1  0  0  0  0
 26 25  1  0  0  0  0
 27 23  1  6  0  0  0
 27 25  1  0  0  0  0
M  END
>  <MODEL>
3

>  <REMARK>
 VINA RESULT:      -7.9      2.777      5.783
  Name = 
  8 active torsions:
  status: ('A' for Active; 'I' for Inactive)
    1  A    between atoms: C_1  and  N_17
    2  A    between atoms: C_1  and  C_26
    3  A    between atoms: O_5  and  C_8
    4  A    between atoms: C_6  and  C_22
    5  A    between atoms: C_8  and  C_24
    6  A    between atoms: C_14  and  N_17
    7  A    between atoms: C_14  and  C_24
    8  A    between atoms: C_24  and  C_27
                            x       y       z     vdW  Elec       q    Type
                         _______ _______ _______ _____ _____    ______ ____

>  <TORSDO>
F 8

$$$$
=
 OpenBabel10222420073D

 27 29  0  0  1  0  0  0  0  0999 V2000
  188.1160  178.3190  140.0230 C   0  0  2  0  0  3  0  0  0  0  0  0
  186.7830  178.3770  142.1730 C   0  0  0  0  0  3  0  0  0  0  0  0
  184.4460  178.8720  140.7390 C   0  0  0  0  0  3  0  0  0  0  0  0
  185.6570  178.7250  140.0630 C   0  0  0  0  0  3  0  0  0  0  0  0
  184.4020  178.7710  142.1320 C   0  0  0  0  0  3  0  0  0  0  0  0
  185.5700  178.5220  142.8620 C   0  0  0  0  0  0  0  0  0  0  0  0
  186.8290  178.4770  140.7740 C   0  0  0  0  0  0  0  0  0  0  0  0
  185.5290  178.4370  144.3390 C   0  0  0  0  0  0  0  0  0  0  0  0
  185.4360  178.3030  147.1200 C   0  0  0  0  0  3  0  0  0  0  0  0
  186.5640  177.8300  146.4510 C   0  0  0  0  0  3  0  0  0  0  0  0
  184.3930  178.8270  146.4170 N   0  0  0  0  0  0  0  0  0  0  0  0
  184.4170  178.9030  145.0590 C   0  0  0  0  0  3  0  0  0  0  0  0
  186.6060  177.8990  145.0560 C   0  0  0  0  0  3  0  0  0  0  0  0
  187.9710  178.3610  138.4890 C   0  0  2  0  0  3  0  0  0  0  0  0
  188.0150  176.6630  137.8420 S   0  0  0  0  0  1  0  0  0  0  0  0
  188.9970  179.0960  137.8910 O   0  0  0  0  0  0  0  0  0  0  0  0
  189.1060  178.5710  136.5990 C   0  0  0  0  0  1  0  0  0  0  0  0
  188.9390  177.1470  140.5920 C   0  0  0  0  0  2  0  0  0  0  0  0
  192.5890  177.4950  140.5080 O   0  0  0  0  0  1  0  0  0  0  0  0
  191.4100  177.2660  140.1240 C   0  0  0  0  0  0  0  0  0  0  0  0
  190.2960  177.5060  141.0000 N   0  0  0  0  0  0  0  0  0  0  0  0
  191.2030  176.7700  138.8460 O   0  0  0  0  0  0  0  0  0  0  0  0
  190.5160  177.7970  142.4110 C   0  0  0  0  0  2  0  0  0  0  0  0
  191.6950  177.9240  144.8170 O   0  0  0  0  0  1  0  0  0  0  0  0
  189.8160  176.6800  144.4100 O   0  0  0  0  0  0  0  0  0  0  0  0
  191.2150  176.6350  144.5620 C   0  0  1  0  0  3  0  0  0  0  0  0
  190.5580  176.5080  143.2250 C   0  0  2  0  0  3  0  0  0  0  0  0
  1 18  1  6  0  0  0
  1  7  1  0  0  0  0
  2  6  1  0  0  0  0
  3  5  1  0  0  0  0
  4  3  2  0  0  0  0
  4  7  1  0  0  0  0
  5  6  2  0  0  0  0
  6  8  1  0  0  0  0
  7  2  2  0  0  0  0
  8 13  2  0  0  0  0
  8 12  1  0  0  0  0
 10  9  2  0  0  0  0
 11  9  1  0  0  0  0
 12 11  2  0  0  0  0
 13 10  1  0  0  0  0
 14 15  1  6  0  0  0
 14  1  1  0  0  0  0
 16 14  1  0  0  0  0
 17 16  1  0  0  0  0
 18 21  1  0  0  0  0
 20 19  1  0  0  0  0
 20 21  1  0  0  0  0
 21 23  1  0  0  0  0
 22 20  2  0  0  0  0
 25 26  1  0  0  0  0
 26 24  1  6  0  0  0
 27 23  1  6  0  0  0
 27 25  1  0  0  0  0
 27 26  1  0  0  0  0
M  END
>  <MODEL>
4

>  <REMARK>
 VINA RESULT:      -7.7      2.251      5.207
  Name = 
  8 active torsions:
  status: ('A' for Active; 'I' for Inactive)
    1  A    between atoms: C_1  and  N_17
    2  A    between atoms: C_1  and  C_26
    3  A    between atoms: O_5  and  C_8
    4  A    between atoms: C_6  and  C_22
    5  A    between atoms: C_8  and  C_24
    6  A    between atoms: C_14  and  N_17
    7  A    between atoms: C_14  and  C_24
    8  A    between atoms: C_24  and  C_27
                            x       y       z     vdW  Elec       q    Type
                         _______ _______ _______ _____ _____    ______ ____

>  <TORSDO>
F 8

$$$$
=
 OpenBabel10222420073D

 27 29  0  0  1  0  0  0  0  0999 V2000
  188.5610  177.8470  144.4870 C   0  0  2  0  0  3  0  0  0  0  0  0
  186.5600  178.2460  142.9910 C   0  0  0  0  0  3  0  0  0  0  0  0
  184.8930  178.3940  145.2190 C   0  0  0  0  0  3  0  0  0  0  0  0
  186.2590  178.1650  145.3870 C   0  0  0  0  0  3  0  0  0  0  0  0
  184.3600  178.5500  143.9370 C   0  0  0  0  0  3  0  0  0  0  0  0
  185.1890  178.4790  142.8100 C   0  0  0  0  0  0  0  0  0  0  0  0
  187.0970  178.0910  144.2770 C   0  0  0  0  0  0  0  0  0  0  0  0
  184.6220  178.6210  141.4510 C   0  0  0  0  0  0  0  0  0  0  0  0
  183.5760  178.9090  138.8850 C   0  0  0  0  0  3  0  0  0  0  0  0
  182.7250  178.5680  139.9350 C   0  0  0  0  0  3  0  0  0  0  0  0
  184.9050  179.1010  139.1160 N   0  0  0  0  0  0  0  0  0  0  0  0
  185.4370  178.9660  140.3600 C   0  0  0  0  0  3  0  0  0  0  0  0
  183.2540  178.4240  141.2200 C   0  0  0  0  0  3  0  0  0  0  0  0
  189.3760  177.6910  143.1880 C   0  0  2  0  0  3  0  0  0  0  0  0
  190.0110  175.9910  143.0870 S   0  0  0  0  0  1  0  0  0  0  0  0
  190.4550  178.5770  143.1420 O   0  0  0  0  0  0  0  0  0  0  0  0
  191.5660  177.7720  142.8680 C   0  0  0  0  0  1  0  0  0  0  0  0
  188.7870  176.7650  145.5600 C   0  0  0  0  0  2  0  0  0  0  0  0
  189.8010  178.2650  148.7480 O   0  0  0  0  0  1  0  0  0  0  0  0
  189.0630  177.8240  147.8270 C   0  0  0  0  0  0  0  0  0  0  0  0
  189.6360  177.1870  146.6730 N   0  0  0  0  0  0  0  0  0  0  0  0
  187.6880  177.9710  147.9380 O   0  0  0  0  0  0  0  0  0  0  0  0
  191.0720  177.2400  146.4370 C   0  0  0  0  0  2  0  0  0  0  0  0
  192.7620  176.7550  148.4630 O   0  0  0  0  0  1  0  0  0  0  0  0
  191.2590  175.2090  147.6920 O   0  0  0  0  0  0  0  0  0  0  0  0
  192.6050  175.6210  147.6600 C   0  0  1  0  0  3  0  0  0  0  0  0
  191.6810  175.8430  146.5060 C   0  0  2  0  0  3  0  0  0  0  0  0
  1 18  1  1  0  0  0
  2  7  1  0  0  0  0
  3  4  1  0  0  0  0
  5  3  2  0  0  0  0
  6  2  2  0  0  0  0
  6  5  1  0  0  0  0
  7  1  1  0  0  0  0
  7  4  2  0  0  0  0
  8  6  1  0  0  0  0
  9 11  2  0  0  0  0
  9 10  1  0  0  0  0
 10 13  2  0  0  0  0
 11 12  1  0  0  0  0
 12  8  2  0  0  0  0
 13  8  1  0  0  0  0
 14 15  1  1  0  0  0
 14  1  1  0  0  0  0
 16 14  1  0  0  0  0
 17 16  1  0  0  0  0
 18 21  1  0  0  0  0
 20 22  2  0  0  0  0
 20 19  1  0  0  0  0
 21 20  1  0  0  0  0
 23 21  1  0  0  0  0
 26 25  1  0  0  0  0
 26 24  1  1  0  0  0
 27 23  1  1  0  0  0
 27 26  1  0  0  0  0
 27 25  1  0  0  0  0
M  END
>  <MODEL>
5

>  <REMARK>
 VINA RESULT:      -7.4      2.728      5.495
  Name = 
  8 active torsions:
  status: ('A' for Active; 'I' for Inactive)
    1  A    between atoms: C_1  and  N_17
    2  A    between atoms: C_1  and  C_26
    3  A    between atoms: O_5  and  C_8
    4  A    between atoms: C_6  and  C_22
    5  A    between atoms: C_8  and  C_24
    6  A    between atoms: C_14  and  N_17
    7  A    between atoms: C_14  and  C_24
    8  A    between atoms: C_24  and  C_27
                            x       y       z     vdW  Elec       q    Type
                         _______ _______ _______ _____ _____    ______ ____

>  <TORSDO>
F 8

$$$$
=
 OpenBabel10222420073D

 27 29  0  0  1  0  0  0  0  0999 V2000
  187.2530  177.9720  143.1650 C   0  0  2  0  0  3  0  0  0  0  0  0
  184.7590  178.3640  143.3270 C   0  0  0  0  0  3  0  0  0  0  0  0
  184.9700  178.7370  146.0790 C   0  0  0  0  0  3  0  0  0  0  0  0
  186.1100  178.4550  145.3270 C   0  0  0  0  0  3  0  0  0  0  0  0
  183.7240  178.8330  145.4560 C   0  0  0  0  0  3  0  0  0  0  0  0
  183.6060  178.6490  144.0730 C   0  0  0  0  0  0  0  0  0  0  0  0
  186.0110  178.2690  143.9500 C   0  0  0  0  0  0  0  0  0  0  0  0
  182.2830  178.7280  143.4140 C   0  0  0  0  0  0  0  0  0  0  0  0
  179.8040  178.8940  142.1530 C   0  0  0  0  0  3  0  0  0  0  0  0
  179.8580  178.7510  143.5390 C   0  0  0  0  0  3  0  0  0  0  0  0
  180.9560  178.9540  141.4270 N   0  0  0  0  0  0  0  0  0  0  0  0
  182.1760  178.8760  142.0220 C   0  0  0  0  0  3  0  0  0  0  0  0
  181.1030  178.6670  144.1670 C   0  0  0  0  0  3  0  0  0  0  0  0
  187.0590  177.9730  141.6360 C   0  0  2  0  0  3  0  0  0  0  0  0
  188.6850  178.0780  140.8320 S   0  0  0  0  0  1  0  0  0  0  0  0
  186.2780  179.0510  141.2130 O   0  0  0  0  0  0  0  0  0  0  0  0
  185.8140  178.6800  139.9460 C   0  0  0  0  0  1  0  0  0  0  0  0
  187.9900  176.7520  143.7510 C   0  0  0  0  0  2  0  0  0  0  0  0
  191.6360  176.4130  143.9350 O   0  0  0  0  0  1  0  0  0  0  0  0
  190.4480  176.2500  143.5470 C   0  0  0  0  0  0  0  0  0  0  0  0
  189.3770  177.0110  144.1310 N   0  0  0  0  0  0  0  0  0  0  0  0
  190.1870  175.3200  142.5530 O   0  0  0  0  0  0  0  0  0  0  0  0
  189.6070  177.8100  145.3280 C   0  0  0  0  0  2  0  0  0  0  0  0
  191.6570  177.1360  146.9190 O   0  0  0  0  0  1  0  0  0  0  0  0
  189.6070  177.7630  147.7220 O   0  0  0  0  0  0  0  0  0  0  0  0
  190.4460  176.6690  147.4390 C   0  0  1  0  0  3  0  0  0  0  0  0
  189.2700  177.0080  146.5810 C   0  0  2  0  0  3  0  0  0  0  0  0
  1 18  1  1  0  0  0
  1  7  1  0  0  0  0
  2  7  2  0  0  0  0
  2  6  1  0  0  0  0
  4  3  2  0  0  0  0
  5  3  1  0  0  0  0
  6  5  2  0  0  0  0
  7  4  1  0  0  0  0
  8  6  1  0  0  0  0
  8 13  1  0  0  0  0
  9 10  1  0  0  0  0
 10 13  2  0  0  0  0
 11 12  1  0  0  0  0
 11  9  2  0  0  0  0
 12  8  2  0  0  0  0
 14 15  1  6  0  0  0
 14  1  1  0  0  0  0
 16 14  1  0  0  0  0
 17 16  1  0  0  0  0
 18 21  1  0  0  0  0
 20 19  1  0  0  0  0
 20 21  1  0  0  0  0
 21 23  1  0  0  0  0
 22 20  2  0  0  0  0
 26 24  1  6  0  0  0
 26 25  1  0  0  0  0
 27 23  1  6  0  0  0
 27 26  1  0  0  0  0
 27 25  1  0  0  0  0
M  END
>  <MODEL>
6

>  <REMARK>
 VINA RESULT:      -7.3      2.125      4.833
  Name = 
  8 active torsions:
  status: ('A' for Active; 'I' for Inactive)
    1  A    between atoms: C_1  and  N_17
    2  A    between atoms: C_1  and  C_26
    3  A    between atoms: O_5  and  C_8
    4  A    between atoms: C_6  and  C_22
    5  A    between atoms: C_8  and  C_24
    6  A    between atoms: C_14  and  N_17
    7  A    between atoms: C_14  and  C_24
    8  A    between atoms: C_24  and  C_27
                            x       y       z     vdW  Elec       q    Type
                         _______ _______ _______ _____ _____    ______ ____

>  <TORSDO>
F 8

$$$$
=
 OpenBabel10222420073D

 27 29  0  0  1  0  0  0  0  0999 V2000
  188.1770  177.6390  145.4610 C   0  0  2  0  0  3  0  0  0  0  0  0
  186.3190  178.2340  143.8500 C   0  0  0  0  0  3  0  0  0  0  0  0
  184.5660  178.6290  145.9780 C   0  0  0  0  0  3  0  0  0  0  0  0
  185.8840  178.2450  146.2260 C   0  0  0  0  0  3  0  0  0  0  0  0
  184.1240  178.8160  144.6660 C   0  0  0  0  0  3  0  0  0  0  0  0
  184.9970  178.6210  143.5880 C   0  0  0  0  0  0  0  0  0  0  0  0
  186.7650  178.0470  145.1660 C   0  0  0  0  0  0  0  0  0  0  0  0
  184.5250  178.7970  142.1970 C   0  0  0  0  0  0  0  0  0  0  0  0
  183.6550  179.1480  139.5740 C   0  0  0  0  0  3  0  0  0  0  0  0
  182.7440  178.7380  140.5470 C   0  0  0  0  0  3  0  0  0  0  0  0
  184.9560  179.3770  139.9090 N   0  0  0  0  0  0  0  0  0  0  0  0
  185.4020  179.2120  141.1830 C   0  0  0  0  0  3  0  0  0  0  0  0
  183.1850  178.5620  141.8610 C   0  0  0  0  0  3  0  0  0  0  0  0
  188.6000  177.8140  146.9330 C   0  0  2  0  0  3  0  0  0  0  0  0
  189.9770  176.6840  147.2930 S   0  0  0  0  0  1  0  0  0  0  0  0
  187.5500  177.5370  147.8110 O   0  0  0  0  0  0  0  0  0  0  0  0
  187.9560  178.0800  149.0350 C   0  0  0  0  0  1  0  0  0  0  0  0
  189.1430  178.2140  144.4080 C   0  0  0  0  0  2  0  0  0  0  0  0
  191.9360  176.1780  143.1840 O   0  0  0  0  0  0  0  0  0  0  0  0
  191.2800  176.9870  143.8940 C   0  0  0  0  0  0  0  0  0  0  0  0
  189.8800  177.2050  143.6490 N   0  0  0  0  0  0  0  0  0  0  0  0
  191.9290  177.6690  144.9110 O   0  0  0  0  0  1  0  0  0  0  0  0
  189.2500  176.6790  142.4460 C   0  0  0  0  0  2  0  0  0  0  0  0
  190.5600  176.3160  140.1340 O   0  0  0  0  0  1  0  0  0  0  0  0
  188.4690  177.2420  140.2530 O   0  0  0  0  0  0  0  0  0  0  0  0
  189.8430  177.5170  140.1200 C   0  0  1  0  0  3  0  0  0  0  0  0
  189.1040  177.7730  141.3930 C   0  0  2  0  0  3  0  0  0  0  0  0
  1 18  1  6  0  0  0
  1 14  1  0  0  0  0
  2  7  1  0  0  0  0
  3  4  1  0  0  0  0
  5  3  2  0  0  0  0
  6  2  2  0  0  0  0
  6  5  1  0  0  0  0
  7  1  1  0  0  0  0
  7  4  2  0  0  0  0
  8  6  1  0  0  0  0
  9 11  2  0  0  0  0
  9 10  1  0  0  0  0
 10 13  2  0  0  0  0
 11 12  1  0  0  0  0
 12  8  2  0  0  0  0
 13  8  1  0  0  0  0
 14 15  1  1  0  0  0
 14 16  1  0  0  0  0
 16 17  1  0  0  0  0
 19 20  2  0  0  0  0
 20 22  1  0  0  0  0
 21 20  1  0  0  0  0
 21 18  1  0  0  0  0
 23 21  1  0  0  0  0
 25 27  1  0  0  0  0
 26 24  1  1  0  0  0
 26 25  1  0  0  0  0
 26 27  1  0  0  0  0
 27 23  1  1  0  0  0
M  END
>  <MODEL>
7

>  <REMARK>
 VINA RESULT:      -7.3      1.963      2.826
  Name = 
  8 active torsions:
  status: ('A' for Active; 'I' for Inactive)
    1  A    between atoms: C_1  and  N_17
    2  A    between atoms: C_1  and  C_26
    3  A    between atoms: O_5  and  C_8
    4  A    between atoms: C_6  and  C_22
    5  A    between atoms: C_8  and  C_24
    6  A    between atoms: C_14  and  N_17
    7  A    between atoms: C_14  and  C_24
    8  A    between atoms: C_24  and  C_27
                            x       y       z     vdW  Elec       q    Type
                         _______ _______ _______ _____ _____    ______ ____

>  <TORSDO>
F 8

$$$$
=
 OpenBabel10222420073D

 27 29  0  0  1  0  0  0  0  0999 V2000
  188.1830  177.9720  143.2490 C   0  0  2  0  0  3  0  0  0  0  0  0
  185.7140  178.3000  142.8050 C   0  0  0  0  0  3  0  0  0  0  0  0
  186.2200  178.6280  140.0860 C   0  0  0  0  0  3  0  0  0  0  0  0
  187.2770  178.3930  140.9660 C   0  0  0  0  0  3  0  0  0  0  0  0
  184.9100  178.6980  140.5650 C   0  0  0  0  0  3  0  0  0  0  0  0
  184.6430  178.5340  141.9300 C   0  0  0  0  0  0  0  0  0  0  0  0
  187.0300  178.2270  142.3260 C   0  0  0  0  0  0  0  0  0  0  0  0
  183.2590  178.6310  142.4420 C   0  0  0  0  0  0  0  0  0  0  0  0
  180.6430  178.8290  143.3820 C   0  0  0  0  0  3  0  0  0  0  0  0
  181.6990  178.8410  144.2920 C   0  0  0  0  0  3  0  0  0  0  0  0
  180.8930  178.7240  142.0460 N   0  0  0  0  0  0  0  0  0  0  0  0
  182.1610  178.6270  141.5650 C   0  0  0  0  0  3  0  0  0  0  0  0
  183.0090  178.7410  143.8160 C   0  0  0  0  0  3  0  0  0  0  0  0
  189.5250  177.7070  142.5390 C   0  0  2  0  0  3  0  0  0  0  0  0
  190.0470  175.9990  142.8770 S   0  0  0  0  0  1  0  0  0  0  0  0
  190.5250  178.5780  142.9770 O   0  0  0  0  0  0  0  0  0  0  0  0
  191.6960  177.8120  142.9620 C   0  0  0  0  0  1  0  0  0  0  0  0
  187.7900  176.9670  144.3480 C   0  0  0  0  0  2  0  0  0  0  0  0
  187.0770  178.4370  147.6300 O   0  0  0  0  0  1  0  0  0  0  0  0
  186.8890  177.9400  146.4870 C   0  0  0  0  0  0  0  0  0  0  0  0
  187.9960  177.4520  145.7110 N   0  0  0  0  0  0  0  0  0  0  0  0
  185.5980  177.8770  145.9850 O   0  0  0  0  0  0  0  0  0  0  0  0
  189.3660  177.7270  146.1250 C   0  0  0  0  0  2  0  0  0  0  0  0
  191.9740  177.1110  146.2190 O   0  0  0  0  0  1  0  0  0  0  0  0
  190.6920  177.4040  148.0930 O   0  0  0  0  0  0  0  0  0  0  0  0
  191.2680  176.4520  147.2300 C   0  0  1  0  0  3  0  0  0  0  0  0
  189.8040  176.7520  147.2140 C   0  0  2  0  0  3  0  0  0  0  0  0
  1 18  1  6  0  0  0
  3  5  2  0  0  0  0
  3  4  1  0  0  0  0
  4  7  2  0  0  0  0
  5  6  1  0  0  0  0
  6  8  1  0  0  0  0
  6  2  2  0  0  0  0
  7  2  1  0  0  0  0
  7  1  1  0  0  0  0
  8 13  1  0  0  0  0
  9 10  1  0  0  0  0
 11  9  2  0  0  0  0
 12 11  1  0  0  0  0
 12  8  2  0  0  0  0
 13 10  2  0  0  0  0
 14 15  1  1  0  0  0
 14 16  1  0  0  0  0
 14  1  1  0  0  0  0
 17 16  1  0  0  0  0
 18 21  1  0  0  0  0
 20 19  1  0  0  0  0
 21 23  1  0  0  0  0
 21 20  1  0  0  0  0
 22 20  2  0  0  0  0
 26 24  1  6  0  0  0
 26 25  1  0  0  0  0
 27 23  1  6  0  0  0
 27 26  1  0  0  0  0
 27 25  1  0  0  0  0
M  END
>  <MODEL>
8

>  <REMARK>
 VINA RESULT:      -7.2      2.475      5.332
  Name = 
  8 active torsions:
  status: ('A' for Active; 'I' for Inactive)
    1  A    between atoms: C_1  and  N_17
    2  A    between atoms: C_1  and  C_26
    3  A    between atoms: O_5  and  C_8
    4  A    between atoms: C_6  and  C_22
    5  A    between atoms: C_8  and  C_24
    6  A    between atoms: C_14  and  N_17
    7  A    between atoms: C_14  and  C_24
    8  A    between atoms: C_24  and  C_27
                            x       y       z     vdW  Elec       q    Type
                         _______ _______ _______ _____ _____    ______ ____

>  <TORSDO>
F 8

$$$$
=
 OpenBabel10222420073D

 27 29  0  0  1  0  0  0  0  0999 V2000
  188.2730  177.4640  140.7120 C   0  0  2  0  0  3  0  0  0  0  0  0
  188.5270  177.4820  143.2290 C   0  0  0  0  0  3  0  0  0  0  0  0
  191.0510  176.3240  143.0080 C   0  0  0  0  0  3  0  0  0  0  0  0
  190.3090  176.5980  141.8590 C   0  0  0  0  0  3  0  0  0  0  0  0
  190.5320  176.6300  144.2680 C   0  0  0  0  0  3  0  0  0  0  0  0
  189.2640  177.2130  144.3910 C   0  0  0  0  0  0  0  0  0  0  0  0
  189.0470  177.1770  141.9630 C   0  0  0  0  0  0  0  0  0  0  0  0
  188.7030  177.5160  145.7260 C   0  0  0  0  0  0  0  0  0  0  0  0
  187.6280  178.1070  148.2280 C   0  0  0  0  0  3  0  0  0  0  0  0
  188.9740  177.7550  148.1280 C   0  0  0  0  0  3  0  0  0  0  0  0
  186.8520  178.1620  147.1100 N   0  0  0  0  0  0  0  0  0  0  0  0
  187.3550  177.8790  145.8790 C   0  0  0  0  0  3  0  0  0  0  0  0
  189.5080  177.4590  146.8720 C   0  0  0  0  0  3  0  0  0  0  0  0
  189.0100  177.1050  139.4070 C   0  0  2  0  0  3  0  0  0  0  0  0
  189.3530  178.6300  138.4800 S   0  0  0  0  0  1  0  0  0  0  0  0
  188.2520  176.2510  138.6020 O   0  0  0  0  0  0  0  0  0  0  0  0
  188.8030  176.3860  137.3220 C   0  0  0  0  0  1  0  0  0  0  0  0
  187.6460  178.8700  140.7690 C   0  0  0  0  0  2  0  0  0  0  0  0
  184.1400  178.8640  139.6950 O   0  0  0  0  0  1  0  0  0  0  0  0
  185.3960  178.7730  139.6440 C   0  0  0  0  0  0  0  0  0  0  0  0
  186.1860  178.8780  140.8400 N   0  0  0  0  0  0  0  0  0  0  0  0
  186.0070  178.5760  138.4150 O   0  0  0  0  0  0  0  0  0  0  0  0
  185.5790  179.3180  142.0890 C   0  0  0  0  0  2  0  0  0  0  0  0
  184.1940  179.8830  144.3160 O   0  0  0  0  0  1  0  0  0  0  0  0
  183.5380  178.2900  142.8070 O   0  0  0  0  0  0  0  0  0  0  0  0
  184.1690  178.5110  144.0460 C   0  0  1  0  0  3  0  0  0  0  0  0
  184.9390  178.1410  142.8190 C   0  0  2  0  0  3  0  0  0  0  0  0
  1 18  1  6  0  0  0
  1  7  1  0  0  0  0
  2  6  1  0  0  0  0
  3  5  1  0  0  0  0
  4  7  1  0  0  0  0
  4  3  2  0  0  0  0
  5  6  2  0  0  0  0
  6  8  1  0  0  0  0
  7  2  2  0  0  0  0
  8 12  2  0  0  0  0
  8 13  1  0  0  0  0
 10  9  1  0  0  0  0
 11  9  2  0  0  0  0
 12 11  1  0  0  0  0
 13 10  2  0  0  0  0
 14 15  1  6  0  0  0
 14  1  1  0  0  0  0
 16 14  1  0  0  0  0
 17 16  1  0  0  0  0
 18 21  1  0  0  0  0
 20 19  1  0  0  0  0
 20 21  1  0  0  0  0
 21 23  1  0  0  0  0
 22 20  2  0  0  0  0
 25 27  1  0  0  0  0
 25 26  1  0  0  0  0
 26 24  1  6  0  0  0
 27 23  1  6  0  0  0
 27 26  1  0  0  0  0
M  END
>  <MODEL>
9

>  <REMARK>
 VINA RESULT:      -7.1      2.760      5.844
  Name = 
  8 active torsions:
  status: ('A' for Active; 'I' for Inactive)
    1  A    between atoms: C_1  and  N_17
    2  A    between atoms: C_1  and  C_26
    3  A    between atoms: O_5  and  C_8
    4  A    between atoms: C_6  and  C_22
    5  A    between atoms: C_8  and  C_24
    6  A    between atoms: C_14  and  N_17
    7  A    between atoms: C_14  and  C_24
    8  A    between atoms: C_24  and  C_27
                            x       y       z     vdW  Elec       q    Type
                         _______ _______ _______ _____ _____    ______ ____

>  <TORSDO>
F 8

$$$$
