=
 OpenBabel10222417153D

 56 59  0  0  1  0  0  0  0  0999 V2000
  190.4930  175.2120  136.8980 C   0  0  0  0  0  3  0  0  0  0  0  0
  190.3680  176.8160  138.7240 C   0  0  0  0  0  0  0  0  0  0  0  0
  191.8890  175.2400  136.9660 C   0  0  0  0  0  3  0  0  0  0  0  0
  191.7710  176.8440  138.7590 C   0  0  0  0  0  3  0  0  0  0  0  0
  193.9160  176.1060  137.9360 O   0  0  0  0  0  1  0  0  0  0  0  0
  192.5280  176.0680  137.8850 C   0  0  0  0  0  0  0  0  0  0  0  0
  189.7210  176.0020  137.7610 C   0  0  0  0  0  0  0  0  0  0  0  0
  189.6040  177.7100  139.6250 C   0  0  0  0  0  0  0  0  0  0  0  0
  188.9050  178.6650  139.1160 N   0  0  0  0  0  2  0  0  0  0  0  0
  189.7750  177.6930  141.0460 N   0  0  0  0  0  2  0  0  0  0  0  0
  189.4740  176.7820  144.1870 C   0  0  2  0  0  3  0  0  0  0  0  0
  189.8950  178.2410  144.0310 C   0  0  0  0  0  2  0  0  0  0  0  0
  190.4520  176.6430  141.8050 C   0  0  2  0  0  3  0  0  0  0  0  0
  189.4790  176.0440  142.8390 C   0  0  0  0  0  2  0  0  0  0  0  0
  191.6910  177.2150  142.5070 C   0  0  2  0  0  3  0  0  0  0  0  0
  191.3180  178.3410  143.4820 C   0  0  0  0  0  2  0  0  0  0  0  0
  192.6960  177.7230  141.5020 C   0  0  0  0  0  1  0  0  0  0  0  0
  188.2110  176.6820  144.7740 O   0  0  0  0  0  0  0  0  0  0  0  0
  187.4780  177.7840  144.3180 C   0  0  0  0  0  2  0  0  0  0  0  0
  186.4410  177.3650  143.4760 O   0  0  0  0  0  0  0  0  0  0  0  0
  186.6250  178.0710  142.3330 N   0  0  0  0  0  2  0  0  0  0  0  0
  185.3270  178.6090  141.9300 C   0  0  1  0  0  3  0  0  0  0  0  0
  185.0940  180.3810  143.4680 O   0  0  0  0  0  0  0  0  0  0  0  0
  184.6260  179.3380  143.0530 C   0  0  0  0  0  0  0  0  0  0  0  0
  183.3190  178.8630  143.6340 C   0  0  1  0  0  3  0  0  0  0  0  0
  183.1600  179.1610  145.1270 C   0  0  0  0  0  2  0  0  0  0  0  0
  184.1440  178.5000  145.8640 O   0  0  0  0  0  1  0  0  0  0  0  0
  182.2450  179.3870  142.9130 O   0  0  0  0  0  0  0  0  0  0  0  0
  180.5420  178.2050  141.9900 O   0  0  0  0  0  1  0  0  0  0  0  0
  181.1700  178.5430  143.1850 C   0  0  0  0  0  2  0  0  0  0  0  0
  185.3730  179.3630  140.7310 O   0  0  0  0  0  0  0  0  0  0  0  0
  184.1480  179.2930  140.0470 C   0  0  0  0  0  3  0  0  0  0  0  0
  184.3930  178.7530  138.6460 C   0  0  0  0  0  2  0  0  0  0  0  0
  183.8100  177.8530  139.7020 C   0  0  0  0  0  2  0  0  0  0  0  0
  188.2870  175.9600  137.6850 N   0  0  0  0  0  2  0  0  0  0  0  0
  187.5360  176.1710  136.4590 C   0  0  1  0  0  3  0  0  0  0  0  0
  187.2030  178.5490  136.3850 O   0  0  0  0  0  0  0  0  0  0  0  0
  188.7180  177.7100  134.8430 N   0  0  0  0  0  1  0  0  0  0  0  0
  187.7890  177.5420  135.9040 C   0  0  0  0  0  0  0  0  0  0  0  0
  187.8500  175.0810  135.4460 C   0  0  0  0  0  2  0  0  0  0  0  0
  186.7920  174.0800  135.4100 N   0  0  0  0  0  2  0  0  0  0  0  0
  187.2160  172.9530  136.2220 C   0  0  2  0  0  3  0  0  0  0  0  0
  188.2740  172.1580  135.4740 C   0  0  0  0  0  1  0  0  0  0  0  0
  185.1980  171.9590  135.4240 C   0  0  0  0  0  2  0  0  0  0  0  0
  186.0470  172.1510  136.5840 N   0  0  0  0  0  0  0  0  0  0  0  0
  183.8190  171.8290  135.9950 C   0  0  1  0  0  3  0  0  0  0  0  0
  184.0190  172.3010  137.4120 C   0  0  0  0  0  2  0  0  0  0  0  0
  185.3160  172.8120  137.5160 O   0  0  0  0  0  0  0  0  0  0  0  0
  182.7990  172.6860  135.2350 C   0  0  2  0  0  3  0  0  0  0  0  0
  183.2900  173.9810  135.0410 O   0  0  0  0  0  1  0  0  0  0  0  0
  181.4850  172.7520  136.0010 C   0  0  0  0  0  2  0  0  0  0  0  0
  180.2460  174.6130  135.2430 O   0  0  0  0  0  0  0  0  0  0  0  0
  180.9800  174.1540  136.1080 C   0  0  0  0  0  0  0  0  0  0  0  0
  181.3550  174.9800  137.2890 C   0  0  0  0  0  2  0  0  0  0  0  0
  180.8260  175.4170  139.5690 O   0  0  0  0  0  1  0  0  0  0  0  0
  180.5310  174.5770  138.4920 C   0  0  0  0  0  2  0  0  0  0  0  0
  1  3  2  0  0  0  0
  1  7  1  0  0  0  0
  2  4  1  0  0  0  0
  2  8  1  0  0  0  0
  3  6  1  0  0  0  0
  6  5  1  0  0  0  0
  6  4  2  0  0  0  0
  7  2  2  0  0  0  0
  8 10  1  0  0  0  0
  9  8  2  0  0  0  0
 11 18  1  6  0  0  0
 12 11  1  0  0  0  0
 13 10  1  1  0  0  0
 13 15  1  0  0  0  0
 13 14  1  0  0  0  0
 14 11  1  0  0  0  0
 15 17  1  6  0  0  0
 15 16  1  0  0  0  0
 16 12  1  0  0  0  0
 19 18  1  0  0  0  0
 20 19  1  0  0  0  0
 21 20  1  0  0  0  0
 22 31  1  6  0  0  0
 22 21  1  0  0  0  0
 22 24  1  0  0  0  0
 24 23  2  0  0  0  0
 24 25  1  0  0  0  0
 25 26  1  1  0  0  0
 26 27  1  0  0  0  0
 28 30  1  0  0  0  0
 28 25  1  0  0  0  0
 29 30  1  0  0  0  0
 32 31  1  0  0  0  0
 33 34  1  0  0  0  0
 33 32  1  0  0  0  0
 34 32  1  0  0  0  0
 35  7  1  0  0  0  0
 36 40  1  6  0  0  0
 36 35  1  0  0  0  0
 38 39  1  0  0  0  0
 39 37  2  0  0  0  0
 39 36  1  0  0  0  0
 41 40  1  0  0  0  0
 41 42  1  0  0  0  0
 42 43  1  6  0  0  0
 42 45  1  0  0  0  0
 44 46  1  0  0  0  0
 44 45  1  0  0  0  0
 45 48  1  0  0  0  0
 46 49  1  6  0  0  0
 46 47  1  0  0  0  0
 47 48  1  0  0  0  0
 49 50  1  1  0  0  0
 49 51  1  0  0  0  0
 51 53  1  0  0  0  0
 52 53  2  0  0  0  0
 53 54  1  0  0  0  0
 54 56  1  0  0  0  0
 56 55  1  0  0  0  0
M  END
>  <MODEL>
1

>  <REMARK>
 VINA RESULT:      -5.7      0.000      0.000
  Name = 
  26 active torsions:
  status: ('A' for Active; 'I' for Inactive)
    1  A    between atoms: C_1  and  C_8
    2  A    between atoms: O_3  and  C_15
    3  A    between atoms: O_3  and  C_44
    4  A    between atoms: N_4  and  C_25
    5  A    between atoms: C_10  and  C_14
    6  A    between atoms: C_10  and  C_42
    7  A    between atoms: C_12  and  C_18
    8  A    between atoms: C_12  and  N_30
    9  A    between atoms: C_12  and  C_33
   10  A    between atoms: N_13  and  C_28
   11  A    between atoms: C_15  and  N_43
   12  A    between atoms: C_15  and  C_56
   13  A    between atoms: C_18  and  N_29
   14  A    between atoms: C_22  and  O_38
   15  A    between atoms: C_23  and  O_37
   16  A    between atoms: C_23  and  O_38
   17  A    between atoms: C_27  and  C_52
   18  A    between atoms: C_28  and  N_29
   19  A    between atoms: N_30  and  C_48
   20  A    between atoms: C_31  and  O_51
   21  A    between atoms: C_34  and  C_35
   22  A    between atoms: C_35  and  C_39
   23  A    between atoms: O_37  and  N_43
   24  A    between atoms: C_39  and  C_42
   25  A    between atoms: O_51  and  C_52
   26  A    between atoms: C_52  and  C_56
                            x       y       z     vdW  Elec       q    Type
                         _______ _______ _______ _____ _____    ______ ____

>  <TORSDO>
F 26

$$$$
=
 OpenBabel10222417153D

 56 59  0  0  1  0  0  0  0  0999 V2000
  190.1010  175.1520  136.8790 C   0  0  0  0  0  3  0  0  0  0  0  0
  190.1690  176.8360  138.6340 C   0  0  0  0  0  0  0  0  0  0  0  0
  191.4970  175.1720  136.8020 C   0  0  0  0  0  3  0  0  0  0  0  0
  191.5680  176.8550  138.5240 C   0  0  0  0  0  3  0  0  0  0  0  0
  193.6150  176.0640  137.5210 O   0  0  0  0  0  1  0  0  0  0  0  0
  192.2290  176.0350  137.6130 C   0  0  0  0  0  0  0  0  0  0  0  0
  189.4250  175.9860  137.7800 C   0  0  0  0  0  0  0  0  0  0  0  0
  189.5040  177.7750  139.5680 C   0  0  0  0  0  0  0  0  0  0  0  0
  188.8720  178.7910  139.0910 N   0  0  0  0  0  2  0  0  0  0  0  0
  189.7100  177.7220  140.9830 N   0  0  0  0  0  2  0  0  0  0  0  0
  189.3800  176.7600  144.1060 C   0  0  2  0  0  3  0  0  0  0  0  0
  189.9020  178.1890  143.9780 C   0  0  0  0  0  2  0  0  0  0  0  0
  190.3200  176.6080  141.7090 C   0  0  2  0  0  3  0  0  0  0  0  0
  189.3170  176.0560  142.7410 C   0  0  0  0  0  2  0  0  0  0  0  0
  191.6030  177.0750  142.4080 C   0  0  2  0  0  3  0  0  0  0  0  0
  191.3230  178.2010  143.4140 C   0  0  0  0  0  2  0  0  0  0  0  0
  192.6310  177.5340  141.4020 C   0  0  0  0  0  1  0  0  0  0  0  0
  188.1190  176.7360  144.7070 O   0  0  0  0  0  0  0  0  0  0  0  0
  187.4200  177.8360  144.1960 C   0  0  0  0  0  2  0  0  0  0  0  0
  186.3350  177.4080  143.4230 O   0  0  0  0  0  0  0  0  0  0  0  0
  186.3230  178.2500  142.3600 N   0  0  0  0  0  2  0  0  0  0  0  0
  184.9690  178.7860  142.2340 C   0  0  1  0  0  3  0  0  0  0  0  0
  185.2560  180.5140  143.8130 O   0  0  0  0  0  0  0  0  0  0  0  0
  184.5510  179.5960  143.4390 C   0  0  0  0  0  0  0  0  0  0  0  0
  183.2480  179.3610  144.1590 C   0  0  1  0  0  3  0  0  0  0  0  0
  182.1030  178.9240  143.2400 C   0  0  0  0  0  2  0  0  0  0  0  0
  180.8850  178.9790  143.9190 O   0  0  0  0  0  1  0  0  0  0  0  0
  183.4200  178.4440  145.1970 O   0  0  0  0  0  0  0  0  0  0  0  0
  184.9750  177.9410  146.7720 O   0  0  0  0  0  1  0  0  0  0  0  0
  184.4560  178.9570  145.9750 C   0  0  0  0  0  2  0  0  0  0  0  0
  184.7380  179.4630  141.0110 O   0  0  0  0  0  0  0  0  0  0  0  0
  184.2120  178.5900  140.0440 C   0  0  0  0  0  3  0  0  0  0  0  0
  183.9280  179.3720  138.7710 C   0  0  0  0  0  2  0  0  0  0  0  0
  185.1450  178.4900  138.8500 C   0  0  0  0  0  2  0  0  0  0  0  0
  187.9890  175.9510  137.8530 N   0  0  0  0  0  2  0  0  0  0  0  0
  187.1180  176.1460  136.7070 C   0  0  1  0  0  3  0  0  0  0  0  0
  188.2210  177.0000  134.7520 O   0  0  0  0  0  0  0  0  0  0  0  0
  187.4000  178.6060  136.2090 N   0  0  0  0  0  1  0  0  0  0  0  0
  187.6220  177.2550  135.8310 C   0  0  0  0  0  0  0  0  0  0  0  0
  186.9470  174.8460  135.9380 C   0  0  0  0  0  2  0  0  0  0  0  0
  185.5480  174.4410  135.8960 N   0  0  0  0  0  2  0  0  0  0  0  0
  185.3560  173.4020  136.8910 C   0  0  2  0  0  3  0  0  0  0  0  0
  185.4440  172.0380  136.2250 C   0  0  0  0  0  1  0  0  0  0  0  0
  182.9790  173.3530  136.6780 C   0  0  0  0  0  2  0  0  0  0  0  0
  184.0820  173.6210  137.5790 N   0  0  0  0  0  0  0  0  0  0  0  0
  181.8840  174.2550  137.1580 C   0  0  1  0  0  3  0  0  0  0  0  0
  182.6230  175.1810  138.0890 C   0  0  0  0  0  2  0  0  0  0  0  0
  183.9910  174.9210  137.9560 O   0  0  0  0  0  0  0  0  0  0  0  0
  181.2090  175.0070  136.0030 C   0  0  2  0  0  3  0  0  0  0  0  0
  182.0790  175.9580  135.4600 O   0  0  0  0  0  1  0  0  0  0  0  0
  179.9420  175.6970  136.4880 C   0  0  0  0  0  2  0  0  0  0  0  0
  179.3270  177.5880  135.2150 O   0  0  0  0  0  0  0  0  0  0  0  0
  179.9560  177.1580  136.1730 C   0  0  0  0  0  0  0  0  0  0  0  0
  180.7200  178.0890  137.0490 C   0  0  0  0  0  2  0  0  0  0  0  0
  179.1650  179.8680  137.3410 O   0  0  0  0  0  1  0  0  0  0  0  0
  179.7810  178.8000  137.9990 C   0  0  0  0  0  2  0  0  0  0  0  0
  1  7  1  0  0  0  0
  2  8  1  0  0  0  0
  3  1  2  0  0  0  0
  3  6  1  0  0  0  0
  4  2  1  0  0  0  0
  5  6  1  0  0  0  0
  6  4  2  0  0  0  0
  7 35  1  0  0  0  0
  7  2  2  0  0  0  0
  8 10  1  0  0  0  0
  9  8  2  0  0  0  0
 11 18  1  6  0  0  0
 12 11  1  0  0  0  0
 13 10  1  1  0  0  0
 13 15  1  0  0  0  0
 13 14  1  0  0  0  0
 14 11  1  0  0  0  0
 15 17  1  6  0  0  0
 15 16  1  0  0  0  0
 16 12  1  0  0  0  0
 19 18  1  0  0  0  0
 20 19  1  0  0  0  0
 21 20  1  0  0  0  0
 22 31  1  6  0  0  0
 22 21  1  0  0  0  0
 22 24  1  0  0  0  0
 24 23  2  0  0  0  0
 24 25  1  0  0  0  0
 25 26  1  6  0  0  0
 25 28  1  0  0  0  0
 26 27  1  0  0  0  0
 28 30  1  0  0  0  0
 30 29  1  0  0  0  0
 32 31  1  0  0  0  0
 33 34  1  0  0  0  0
 33 32  1  0  0  0  0
 34 32  1  0  0  0  0
 36 40  1  6  0  0  0
 36 35  1  0  0  0  0
 37 39  2  0  0  0  0
 39 38  1  0  0  0  0
 39 36  1  0  0  0  0
 41 40  1  0  0  0  0
 41 42  1  0  0  0  0
 42 43  1  6  0  0  0
 42 45  1  0  0  0  0
 44 46  1  0  0  0  0
 44 45  1  0  0  0  0
 45 48  1  0  0  0  0
 46 49  1  6  0  0  0
 46 47  1  0  0  0  0
 48 47  1  0  0  0  0
 49 50  1  1  0  0  0
 49 51  1  0  0  0  0
 52 53  2  0  0  0  0
 53 51  1  0  0  0  0
 53 54  1  0  0  0  0
 54 56  1  0  0  0  0
 55 56  1  0  0  0  0
M  END
>  <MODEL>
2

>  <REMARK>
 VINA RESULT:      -5.5      1.535      2.183
  Name = 
  26 active torsions:
  status: ('A' for Active; 'I' for Inactive)
    1  A    between atoms: C_1  and  C_8
    2  A    between atoms: O_3  and  C_15
    3  A    between atoms: O_3  and  C_44
    4  A    between atoms: N_4  and  C_25
    5  A    between atoms: C_10  and  C_14
    6  A    between atoms: C_10  and  C_42
    7  A    between atoms: C_12  and  C_18
    8  A    between atoms: C_12  and  N_30
    9  A    between atoms: C_12  and  C_33
   10  A    between atoms: N_13  and  C_28
   11  A    between atoms: C_15  and  N_43
   12  A    between atoms: C_15  and  C_56
   13  A    between atoms: C_18  and  N_29
   14  A    between atoms: C_22  and  O_38
   15  A    between atoms: C_23  and  O_37
   16  A    between atoms: C_23  and  O_38
   17  A    between atoms: C_27  and  C_52
   18  A    between atoms: C_28  and  N_29
   19  A    between atoms: N_30  and  C_48
   20  A    between atoms: C_31  and  O_51
   21  A    between atoms: C_34  and  C_35
   22  A    between atoms: C_35  and  C_39
   23  A    between atoms: O_37  and  N_43
   24  A    between atoms: C_39  and  C_42
   25  A    between atoms: O_51  and  C_52
   26  A    between atoms: C_52  and  C_56
                            x       y       z     vdW  Elec       q    Type
                         _______ _______ _______ _____ _____    ______ ____

>  <TORSDO>
F 26

$$$$
=
 OpenBabel10222417153D

 56 59  0  0  1  0  0  0  0  0999 V2000
  184.5850  177.9760  137.4990 C   0  0  0  0  0  3  0  0  0  0  0  0
  183.2540  177.4030  139.4540 C   0  0  0  0  0  0  0  0  0  0  0  0
  185.6150  178.4280  138.3300 C   0  0  0  0  0  3  0  0  0  0  0  0
  184.2930  177.8820  140.2670 C   0  0  0  0  0  3  0  0  0  0  0  0
  186.4810  178.8620  140.5340 O   0  0  0  0  0  1  0  0  0  0  0  0
  185.4620  178.3960  139.7130 C   0  0  0  0  0  0  0  0  0  0  0  0
  183.3970  177.4730  138.0460 C   0  0  0  0  0  0  0  0  0  0  0  0
  182.0000  176.9290  140.0850 C   0  0  0  0  0  0  0  0  0  0  0  0
  181.6220  175.7130  139.8920 N   0  0  0  0  0  2  0  0  0  0  0  0
  181.0810  177.8210  140.7240 N   0  0  0  0  0  2  0  0  0  0  0  0
  182.0210  179.0990  143.6000 C   0  0  2  0  0  3  0  0  0  0  0  0
  180.6870  178.3630  143.6870 C   0  0  0  0  0  2  0  0  0  0  0  0
  181.3680  179.2030  141.1080 C   0  0  2  0  0  3  0  0  0  0  0  0
  182.5060  179.2240  142.1470 C   0  0  0  0  0  2  0  0  0  0  0  0
  180.1070  179.8620  141.6830 C   0  0  2  0  0  3  0  0  0  0  0  0
  179.5980  179.1200  142.9270 C   0  0  0  0  0  2  0  0  0  0  0  0
  179.0130  179.9320  140.6460 C   0  0  0  0  0  1  0  0  0  0  0  0
  182.9990  178.4620  144.3690 O   0  0  0  0  0  0  0  0  0  0  0  0
  184.2260  178.7490  143.7580 C   0  0  0  0  0  2  0  0  0  0  0  0
  185.1210  177.6900  143.9450 O   0  0  0  0  0  0  0  0  0  0  0  0
  186.3470  178.2570  143.8230 N   0  0  0  0  0  2  0  0  0  0  0  0
  187.3380  177.2670  144.2410 C   0  0  1  0  0  3  0  0  0  0  0  0
  188.8380  178.3860  142.8060 O   0  0  0  0  0  0  0  0  0  0  0  0
  188.7130  177.5470  143.6770 C   0  0  0  0  0  0  0  0  0  0  0  0
  189.9550  176.8800  144.2080 C   0  0  1  0  0  3  0  0  0  0  0  0
  190.8210  176.2320  143.1240 C   0  0  0  0  0  2  0  0  0  0  0  0
  190.0190  175.6950  142.1160 O   0  0  0  0  0  1  0  0  0  0  0  0
  190.7090  177.7810  144.9630 O   0  0  0  0  0  0  0  0  0  0  0  0
  190.8710  176.3110  146.6850 O   0  0  0  0  0  1  0  0  0  0  0  0
  191.5870  176.9950  145.7080 C   0  0  0  0  0  2  0  0  0  0  0  0
  187.3550  177.0350  145.6380 O   0  0  0  0  0  0  0  0  0  0  0  0
  187.4370  178.2460  146.3470 C   0  0  0  0  0  3  0  0  0  0  0  0
  186.8120  178.0590  147.7210 C   0  0  0  0  0  2  0  0  0  0  0  0
  188.3100  178.0840  147.5800 C   0  0  0  0  0  2  0  0  0  0  0  0
  182.3480  177.0060  137.1810 N   0  0  0  0  0  2  0  0  0  0  0  0
  182.2840  175.6570  136.6460 C   0  0  1  0  0  3  0  0  0  0  0  0
  180.5210  175.8540  135.0260 O   0  0  0  0  0  0  0  0  0  0  0  0
  180.0590  174.4760  136.8330 N   0  0  0  0  0  1  0  0  0  0  0  0
  180.9140  175.3550  136.1150 C   0  0  0  0  0  0  0  0  0  0  0  0
  183.3610  175.4470  135.5930 C   0  0  0  0  0  2  0  0  0  0  0  0
  183.4910  174.0370  135.2500 N   0  0  0  0  0  2  0  0  0  0  0  0
  184.8730  173.6510  135.4730 C   0  0  2  0  0  3  0  0  0  0  0  0
  184.9320  172.5670  136.5370 C   0  0  0  0  0  1  0  0  0  0  0  0
  186.8140  174.9400  134.9530 C   0  0  0  0  0  2  0  0  0  0  0  0
  185.6570  174.8370  135.8200 N   0  0  0  0  0  0  0  0  0  0  0  0
  187.8410  175.6370  135.7910 C   0  0  1  0  0  3  0  0  0  0  0  0
  187.2370  175.5480  137.1690 C   0  0  0  0  0  2  0  0  0  0  0  0
  186.1130  174.7200  137.0930 O   0  0  0  0  0  0  0  0  0  0  0  0
  189.2110  174.9500  135.7110 C   0  0  2  0  0  3  0  0  0  0  0  0
  189.1480  173.8200  134.8890 O   0  0  0  0  0  1  0  0  0  0  0  0
  189.6820  174.5410  137.0990 C   0  0  0  0  0  2  0  0  0  0  0  0
  191.0820  175.4690  138.7580 O   0  0  0  0  0  0  0  0  0  0  0  0
  190.8210  175.3870  137.5650 C   0  0  0  0  0  0  0  0  0  0  0  0
  191.6560  176.1100  136.5650 C   0  0  0  0  0  2  0  0  0  0  0  0
  193.7870  175.0790  136.8040 O   0  0  0  0  0  1  0  0  0  0  0  0
  193.0740  176.2510  137.0700 C   0  0  0  0  0  2  0  0  0  0  0  0
  1  7  2  0  0  0  0
  1  3  1  0  0  0  0
  2  8  1  0  0  0  0
  2  4  2  0  0  0  0
  3  6  2  0  0  0  0
  6  4  1  0  0  0  0
  6  5  1  0  0  0  0
  7  2  1  0  0  0  0
  8 10  1  0  0  0  0
  9  8  2  0  0  0  0
 11 12  1  0  0  0  0
 11 18  1  1  0  0  0
 13 10  1  1  0  0  0
 13 15  1  0  0  0  0
 13 14  1  0  0  0  0
 14 11  1  0  0  0  0
 15 17  1  6  0  0  0
 15 16  1  0  0  0  0
 16 12  1  0  0  0  0
 19 20  1  0  0  0  0
 19 18  1  0  0  0  0
 21 20  1  0  0  0  0
 21 22  1  0  0  0  0
 22 24  1  1  0  0  0
 22 31  1  0  0  0  0
 23 24  2  0  0  0  0
 24 25  1  0  0  0  0
 25 26  1  6  0  0  0
 25 28  1  0  0  0  0
 27 26  1  0  0  0  0
 28 30  1  0  0  0  0
 30 29  1  0  0  0  0
 31 32  1  0  0  0  0
 32 34  1  0  0  0  0
 32 33  1  0  0  0  0
 34 33  1  0  0  0  0
 35  7  1  0  0  0  0
 36 40  1  6  0  0  0
 36 35  1  0  0  0  0
 37 39  2  0  0  0  0
 39 36  1  0  0  0  0
 39 38  1  0  0  0  0
 41 42  1  0  0  0  0
 41 40  1  0  0  0  0
 42 45  1  0  0  0  0
 42 43  1  1  0  0  0
 44 46  1  0  0  0  0
 44 45  1  0  0  0  0
 45 48  1  0  0  0  0
 46 49  1  1  0  0  0
 46 47  1  0  0  0  0
 48 47  1  0  0  0  0
 49 50  1  6  0  0  0
 49 51  1  0  0  0  0
 51 53  1  0  0  0  0
 53 52  2  0  0  0  0
 54 56  1  0  0  0  0
 54 53  1  0  0  0  0
 55 56  1  0  0  0  0
M  END
>  <MODEL>
3

>  <REMARK>
 VINA RESULT:      -5.2      2.505      7.806
  Name = 
  26 active torsions:
  status: ('A' for Active; 'I' for Inactive)
    1  A    between atoms: C_1  and  C_8
    2  A    between atoms: O_3  and  C_15
    3  A    between atoms: O_3  and  C_44
    4  A    between atoms: N_4  and  C_25
    5  A    between atoms: C_10  and  C_14
    6  A    between atoms: C_10  and  C_42
    7  A    between atoms: C_12  and  C_18
    8  A    between atoms: C_12  and  N_30
    9  A    between atoms: C_12  and  C_33
   10  A    between atoms: N_13  and  C_28
   11  A    between atoms: C_15  and  N_43
   12  A    between atoms: C_15  and  C_56
   13  A    between atoms: C_18  and  N_29
   14  A    between atoms: C_22  and  O_38
   15  A    between atoms: C_23  and  O_37
   16  A    between atoms: C_23  and  O_38
   17  A    between atoms: C_27  and  C_52
   18  A    between atoms: C_28  and  N_29
   19  A    between atoms: N_30  and  C_48
   20  A    between atoms: C_31  and  O_51
   21  A    between atoms: C_34  and  C_35
   22  A    between atoms: C_35  and  C_39
   23  A    between atoms: O_37  and  N_43
   24  A    between atoms: C_39  and  C_42
   25  A    between atoms: O_51  and  C_52
   26  A    between atoms: C_52  and  C_56
                            x       y       z     vdW  Elec       q    Type
                         _______ _______ _______ _____ _____    ______ ____

>  <TORSDO>
F 26

$$$$
=
 OpenBabel10222417153D

 56 59  0  0  1  0  0  0  0  0999 V2000
  191.6450  176.6320  137.8210 C   0  0  0  0  0  3  0  0  0  0  0  0
  190.1380  174.9750  136.8710 C   0  0  0  0  0  0  0  0  0  0  0  0
  192.5950  176.3330  136.8400 C   0  0  0  0  0  3  0  0  0  0  0  0
  191.1150  174.6780  135.9080 C   0  0  0  0  0  3  0  0  0  0  0  0
  193.2910  175.0400  134.9310 O   0  0  0  0  0  1  0  0  0  0  0  0
  192.3370  175.3460  135.8940 C   0  0  0  0  0  0  0  0  0  0  0  0
  190.4190  175.9530  137.8560 C   0  0  0  0  0  0  0  0  0  0  0  0
  188.8800  174.1910  136.8910 C   0  0  0  0  0  0  0  0  0  0  0  0
  188.9430  172.9050  136.8640 N   0  0  0  0  0  2  0  0  0  0  0  0
  187.5960  174.8000  136.7270 N   0  0  0  0  0  2  0  0  0  0  0  0
  184.7480  176.4290  136.8910 C   0  0  2  0  0  3  0  0  0  0  0  0
  184.8770  175.5850  135.6250 C   0  0  0  0  0  2  0  0  0  0  0  0
  187.3190  176.2330  136.8230 C   0  0  2  0  0  3  0  0  0  0  0  0
  186.0620  176.4580  137.6870 C   0  0  0  0  0  2  0  0  0  0  0  0
  187.1170  176.8260  135.4230 C   0  0  2  0  0  3  0  0  0  0  0  0
  185.9410  176.1630  134.6910 C   0  0  0  0  0  2  0  0  0  0  0  0
  188.3720  176.6950  134.5940 C   0  0  0  0  0  1  0  0  0  0  0  0
  183.7150  175.9610  137.7050 O   0  0  0  0  0  0  0  0  0  0  0  0
  182.6250  176.8120  137.4830 C   0  0  0  0  0  2  0  0  0  0  0  0
  183.0270  178.1500  137.5710 O   0  0  0  0  0  0  0  0  0  0  0  0
  181.8790  178.8340  137.8010 N   0  0  0  0  0  2  0  0  0  0  0  0
  181.8460  179.1840  139.2190 C   0  0  1  0  0  3  0  0  0  0  0  0
  184.1850  179.4820  139.2820 O   0  0  0  0  0  0  0  0  0  0  0  0
  183.2040  179.0760  139.8750 C   0  0  0  0  0  0  0  0  0  0  0  0
  183.3850  178.5530  141.2770 C   0  0  1  0  0  3  0  0  0  0  0  0
  184.0260  179.5590  142.2360 C   0  0  0  0  0  2  0  0  0  0  0  0
  185.4100  179.5900  142.0570 O   0  0  0  0  0  1  0  0  0  0  0  0
  182.1700  178.0940  141.7890 O   0  0  0  0  0  0  0  0  0  0  0  0
  181.8100  178.3940  144.0090 O   0  0  0  0  0  1  0  0  0  0  0  0
  181.8070  179.0190  142.7660 C   0  0  0  0  0  2  0  0  0  0  0  0
  181.2050  180.4180  139.4850 O   0  0  0  0  0  0  0  0  0  0  0  0
  179.9450  180.2140  140.0730 C   0  0  0  0  0  3  0  0  0  0  0  0
  178.9580  181.2150  139.4930 C   0  0  0  0  0  2  0  0  0  0  0  0
  178.9310  179.7840  139.0270 C   0  0  0  0  0  2  0  0  0  0  0  0
  189.4490  176.2740  138.8670 N   0  0  0  0  0  2  0  0  0  0  0  0
  189.5240  177.4520  139.7140 C   0  0  1  0  0  3  0  0  0  0  0  0
  189.1290  179.2700  138.1950 O   0  0  0  0  0  0  0  0  0  0  0  0
  187.4080  178.8300  139.6860 N   0  0  0  0  0  1  0  0  0  0  0  0
  188.6990  178.5710  139.1520 C   0  0  0  0  0  0  0  0  0  0  0  0
  189.1230  177.1100  141.1400 C   0  0  0  0  0  2  0  0  0  0  0  0
  190.2750  176.6740  141.9190 N   0  0  0  0  0  2  0  0  0  0  0  0
  190.4230  177.5820  143.0420 C   0  0  2  0  0  3  0  0  0  0  0  0
  191.7070  178.3800  142.8830 C   0  0  0  0  0  1  0  0  0  0  0  0
  189.0890  177.0070  144.9360 C   0  0  0  0  0  2  0  0  0  0  0  0
  190.3730  176.8200  144.2900 N   0  0  0  0  0  0  0  0  0  0  0  0
  189.3860  176.8570  146.3960 C   0  0  1  0  0  3  0  0  0  0  0  0
  190.8910  176.9300  146.4210 C   0  0  0  0  0  2  0  0  0  0  0  0
  191.3250  177.2810  145.1390 O   0  0  0  0  0  0  0  0  0  0  0  0
  188.7360  177.9660  147.2330 C   0  0  2  0  0  3  0  0  0  0  0  0
  189.4090  178.1260  148.4480 O   0  0  0  0  0  1  0  0  0  0  0  0
  187.2740  177.6400  147.5040 C   0  0  0  0  0  2  0  0  0  0  0  0
  185.8970  179.5140  147.9090 O   0  0  0  0  0  0  0  0  0  0  0  0
  186.3730  178.7520  147.0770 C   0  0  0  0  0  0  0  0  0  0  0  0
  186.0790  178.9440  145.6290 C   0  0  0  0  0  2  0  0  0  0  0  0
  186.4240  177.3180  143.9260 O   0  0  0  0  0  1  0  0  0  0  0  0
  185.6110  177.6440  145.0150 C   0  0  0  0  0  2  0  0  0  0  0  0
  1  7  1  0  0  0  0
  2  8  1  0  0  0  0
  2  7  2  0  0  0  0
  3  1  2  0  0  0  0
  4  2  1  0  0  0  0
  5  6  1  0  0  0  0
  6  4  2  0  0  0  0
  6  3  1  0  0  0  0
  7 35  1  0  0  0  0
  9  8  2  0  0  0  0
 10  8  1  0  0  0  0
 11 14  1  0  0  0  0
 11 18  1  1  0  0  0
 12 11  1  0  0  0  0
 13 10  1  6  0  0  0
 13 14  1  0  0  0  0
 15 17  1  6  0  0  0
 15 13  1  0  0  0  0
 16 15  1  0  0  0  0
 16 12  1  0  0  0  0
 19 20  1  0  0  0  0
 19 18  1  0  0  0  0
 20 21  1  0  0  0  0
 22 21  1  6  0  0  0
 22 31  1  0  0  0  0
 22 24  1  0  0  0  0
 23 24  2  0  0  0  0
 24 25  1  0  0  0  0
 25 28  1  0  0  0  0
 25 26  1  1  0  0  0
 27 26  1  0  0  0  0
 28 30  1  0  0  0  0
 30 29  1  0  0  0  0
 31 32  1  0  0  0  0
 33 32  1  0  0  0  0
 34 33  1  0  0  0  0
 34 32  1  0  0  0  0
 35 36  1  0  0  0  0
 36 40  1  1  0  0  0
 37 39  2  0  0  0  0
 39 38  1  0  0  0  0
 39 36  1  0  0  0  0
 40 41  1  0  0  0  0
 41 42  1  0  0  0  0
 42 43  1  6  0  0  0
 42 45  1  0  0  0  0
 44 46  1  0  0  0  0
 45 44  1  0  0  0  0
 45 48  1  0  0  0  0
 46 47  1  0  0  0  0
 46 49  1  1  0  0  0
 48 47  1  0  0  0  0
 49 51  1  0  0  0  0
 49 50  1  1  0  0  0
 53 51  1  0  0  0  0
 53 52  2  0  0  0  0
 54 53  1  0  0  0  0
 55 56  1  0  0  0  0
 56 54  1  0  0  0  0
M  END
>  <MODEL>
4

>  <REMARK>
 VINA RESULT:      -4.8      2.514      7.708
  Name = 
  26 active torsions:
  status: ('A' for Active; 'I' for Inactive)
    1  A    between atoms: C_1  and  C_8
    2  A    between atoms: O_3  and  C_15
    3  A    between atoms: O_3  and  C_44
    4  A    between atoms: N_4  and  C_25
    5  A    between atoms: C_10  and  C_14
    6  A    between atoms: C_10  and  C_42
    7  A    between atoms: C_12  and  C_18
    8  A    between atoms: C_12  and  N_30
    9  A    between atoms: C_12  and  C_33
   10  A    between atoms: N_13  and  C_28
   11  A    between atoms: C_15  and  N_43
   12  A    between atoms: C_15  and  C_56
   13  A    between atoms: C_18  and  N_29
   14  A    between atoms: C_22  and  O_38
   15  A    between atoms: C_23  and  O_37
   16  A    between atoms: C_23  and  O_38
   17  A    between atoms: C_27  and  C_52
   18  A    between atoms: C_28  and  N_29
   19  A    between atoms: N_30  and  C_48
   20  A    between atoms: C_31  and  O_51
   21  A    between atoms: C_34  and  C_35
   22  A    between atoms: C_35  and  C_39
   23  A    between atoms: O_37  and  N_43
   24  A    between atoms: C_39  and  C_42
   25  A    between atoms: O_51  and  C_52
   26  A    between atoms: C_52  and  C_56
                            x       y       z     vdW  Elec       q    Type
                         _______ _______ _______ _____ _____    ______ ____

>  <TORSDO>
F 26

$$$$
=
 OpenBabel10222417153D

 56 59  0  0  1  0  0  0  0  0999 V2000
  182.6090  179.4990  137.1440 C   0  0  0  0  0  3  0  0  0  0  0  0
  182.1030  178.0920  139.0640 C   0  0  0  0  0  0  0  0  0  0  0  0
  181.2420  179.6330  136.8800 C   0  0  0  0  0  3  0  0  0  0  0  0
  180.7380  178.2230  138.7660 C   0  0  0  0  0  3  0  0  0  0  0  0
  178.9520  179.1040  137.4020 O   0  0  0  0  0  1  0  0  0  0  0  0
  180.3080  178.9820  137.6800 C   0  0  0  0  0  0  0  0  0  0  0  0
  183.0530  178.7240  138.2240 C   0  0  0  0  0  0  0  0  0  0  0  0
  182.5180  177.2180  140.1870 C   0  0  0  0  0  0  0  0  0  0  0  0
  182.5480  175.9430  140.0110 N   0  0  0  0  0  2  0  0  0  0  0  0
  182.6820  177.7120  141.5200 N   0  0  0  0  0  2  0  0  0  0  0  0
  184.4590  179.2070  143.8420 C   0  0  2  0  0  3  0  0  0  0  0  0
  183.5200  178.1450  144.4070 C   0  0  0  0  0  2  0  0  0  0  0  0
  182.7680  179.1220  141.8970 C   0  0  2  0  0  3  0  0  0  0  0  0
  184.2060  179.4490  142.3460 C   0  0  0  0  0  2  0  0  0  0  0  0
  181.7750  179.4280  143.0260 C   0  0  2  0  0  3  0  0  0  0  0  0
  182.0610  178.5830  144.2760 C   0  0  0  0  0  2  0  0  0  0  0  0
  180.3530  179.2000  142.5710 C   0  0  0  0  0  1  0  0  0  0  0  0
  185.7960  178.8560  144.0420 O   0  0  0  0  0  0  0  0  0  0  0  0
  185.8730  178.3280  145.3370 C   0  0  0  0  0  2  0  0  0  0  0  0
  187.1960  178.3500  145.7940 O   0  0  0  0  0  0  0  0  0  0  0  0
  187.8190  177.3840  145.0740 N   0  0  0  0  0  2  0  0  0  0  0  0
  189.2550  177.5050  145.3170 C   0  0  1  0  0  3  0  0  0  0  0  0
  190.3860  179.1270  144.0320 O   0  0  0  0  0  0  0  0  0  0  0  0
  190.0140  177.9710  144.0960 C   0  0  0  0  0  0  0  0  0  0  0  0
  190.4000  177.0360  142.9790 C   0  0  1  0  0  3  0  0  0  0  0  0
  190.4830  175.5670  143.4010 C   0  0  0  0  0  2  0  0  0  0  0  0
  191.7980  175.2240  143.7190 O   0  0  0  0  0  1  0  0  0  0  0  0
  189.5330  177.1850  141.8950 O   0  0  0  0  0  0  0  0  0  0  0  0
  190.6820  176.1460  140.2360 O   0  0  0  0  0  1  0  0  0  0  0  0
  190.3550  177.3820  140.7870 C   0  0  0  0  0  2  0  0  0  0  0  0
  189.5730  178.2510  146.4790 O   0  0  0  0  0  0  0  0  0  0  0  0
  189.7480  177.4060  147.5870 C   0  0  0  0  0  3  0  0  0  0  0  0
  189.8830  178.2550  148.8420 C   0  0  0  0  0  2  0  0  0  0  0  0
  188.5850  177.5470  148.5560 C   0  0  0  0  0  2  0  0  0  0  0  0
  184.4600  178.5990  138.4890 N   0  0  0  0  0  2  0  0  0  0  0  0
  185.4040  177.9900  137.5670 C   0  0  1  0  0  3  0  0  0  0  0  0
  187.2630  177.7630  139.0710 O   0  0  0  0  0  0  0  0  0  0  0  0
  187.6710  179.0290  137.1720 N   0  0  0  0  0  1  0  0  0  0  0  0
  186.8180  178.2490  137.9970 C   0  0  0  0  0  0  0  0  0  0  0  0
  185.1190  176.5040  137.4160 C   0  0  0  0  0  2  0  0  0  0  0  0
  185.5460  176.0180  136.1110 N   0  0  0  0  0  2  0  0  0  0  0  0
  186.5120  174.9550  136.3250 C   0  0  2  0  0  3  0  0  0  0  0  0
  187.8850  175.4170  135.8660 C   0  0  0  0  0  1  0  0  0  0  0  0
  184.6710  173.8890  135.2410 C   0  0  0  0  0  2  0  0  0  0  0  0
  186.0570  173.7430  135.6410 N   0  0  0  0  0  0  0  0  0  0  0  0
  184.1330  172.4920  135.2640 C   0  0  1  0  0  3  0  0  0  0  0  0
  185.2140  171.7490  136.0050 C   0  0  0  0  0  2  0  0  0  0  0  0
  186.1240  172.6910  136.4940 O   0  0  0  0  0  0  0  0  0  0  0  0
  182.7760  172.4090  135.9750 C   0  0  2  0  0  3  0  0  0  0  0  0
  182.8450  173.0050  137.2390 O   0  0  0  0  0  1  0  0  0  0  0  0
  182.3410  170.9570  136.1230 C   0  0  0  0  0  2  0  0  0  0  0  0
  180.7750  169.6280  134.9600 O   0  0  0  0  0  0  0  0  0  0  0  0
  181.0180  170.7110  135.4760 C   0  0  0  0  0  0  0  0  0  0  0  0
  179.9850  171.7850  135.4860 C   0  0  0  0  0  2  0  0  0  0  0  0
  178.9490  172.8250  137.3600 O   0  0  0  0  0  1  0  0  0  0  0  0
  179.0660  171.6130  136.6750 C   0  0  0  0  0  2  0  0  0  0  0  0
  1  7  1  0  0  0  0
  2  8  1  0  0  0  0
  3  1  2  0  0  0  0
  3  6  1  0  0  0  0
  4  2  1  0  0  0  0
  5  6  1  0  0  0  0
  6  4  2  0  0  0  0
  7 35  1  0  0  0  0
  7  2  2  0  0  0  0
  8 10  1  0  0  0  0
  9  8  2  0  0  0  0
 11 18  1  6  0  0  0
 11 12  1  0  0  0  0
 13 10  1  1  0  0  0
 13 14  1  0  0  0  0
 13 15  1  0  0  0  0
 14 11  1  0  0  0  0
 15 17  1  6  0  0  0
 15 16  1  0  0  0  0
 16 12  1  0  0  0  0
 18 19  1  0  0  0  0
 19 20  1  0  0  0  0
 21 22  1  0  0  0  0
 21 20  1  0  0  0  0
 22 24  1  6  0  0  0
 22 31  1  0  0  0  0
 23 24  2  0  0  0  0
 25 26  1  1  0  0  0
 25 24  1  0  0  0  0
 26 27  1  0  0  0  0
 28 25  1  0  0  0  0
 29 30  1  0  0  0  0
 30 28  1  0  0  0  0
 31 32  1  0  0  0  0
 32 34  1  0  0  0  0
 32 33  1  0  0  0  0
 34 33  1  0  0  0  0
 36 40  1  1  0  0  0
 36 39  1  0  0  0  0
 36 35  1  0  0  0  0
 38 39  1  0  0  0  0
 39 37  2  0  0  0  0
 41 42  1  0  0  0  0
 41 40  1  0  0  0  0
 42 43  1  6  0  0  0
 44 46  1  0  0  0  0
 44 45  1  0  0  0  0
 45 42  1  0  0  0  0
 45 48  1  0  0  0  0
 46 49  1  1  0  0  0
 46 47  1  0  0  0  0
 47 48  1  0  0  0  0
 49 51  1  0  0  0  0
 49 50  1  1  0  0  0
 52 53  2  0  0  0  0
 53 54  1  0  0  0  0
 53 51  1  0  0  0  0
 54 56  1  0  0  0  0
 56 55  1  0  0  0  0
M  END
>  <MODEL>
5

>  <REMARK>
 VINA RESULT:      -4.8      2.666      6.912
  Name = 
  26 active torsions:
  status: ('A' for Active; 'I' for Inactive)
    1  A    between atoms: C_1  and  C_8
    2  A    between atoms: O_3  and  C_15
    3  A    between atoms: O_3  and  C_44
    4  A    between atoms: N_4  and  C_25
    5  A    between atoms: C_10  and  C_14
    6  A    between atoms: C_10  and  C_42
    7  A    between atoms: C_12  and  C_18
    8  A    between atoms: C_12  and  N_30
    9  A    between atoms: C_12  and  C_33
   10  A    between atoms: N_13  and  C_28
   11  A    between atoms: C_15  and  N_43
   12  A    between atoms: C_15  and  C_56
   13  A    between atoms: C_18  and  N_29
   14  A    between atoms: C_22  and  O_38
   15  A    between atoms: C_23  and  O_37
   16  A    between atoms: C_23  and  O_38
   17  A    between atoms: C_27  and  C_52
   18  A    between atoms: C_28  and  N_29
   19  A    between atoms: N_30  and  C_48
   20  A    between atoms: C_31  and  O_51
   21  A    between atoms: C_34  and  C_35
   22  A    between atoms: C_35  and  C_39
   23  A    between atoms: O_37  and  N_43
   24  A    between atoms: C_39  and  C_42
   25  A    between atoms: O_51  and  C_52
   26  A    between atoms: C_52  and  C_56
                            x       y       z     vdW  Elec       q    Type
                         _______ _______ _______ _____ _____    ______ ____

>  <TORSDO>
F 26

$$$$
=
 OpenBabel10222417153D

 56 59  0  0  1  0  0  0  0  0999 V2000
  189.0330  175.1510  136.4220 C   0  0  0  0  0  3  0  0  0  0  0  0
  189.8360  176.9120  137.8970 C   0  0  0  0  0  0  0  0  0  0  0  0
  190.3050  175.0480  135.8500 C   0  0  0  0  0  3  0  0  0  0  0  0
  191.0980  176.8050  137.2930 C   0  0  0  0  0  3  0  0  0  0  0  0
  192.5890  175.7930  135.6890 O   0  0  0  0  0  1  0  0  0  0  0  0
  191.3320  175.8860  136.2740 C   0  0  0  0  0  0  0  0  0  0  0  0
  188.7820  176.0840  137.4370 C   0  0  0  0  0  0  0  0  0  0  0  0
  189.6130  177.9510  138.9300 C   0  0  0  0  0  0  0  0  0  0  0  0
  189.0370  179.0540  138.5950 N   0  0  0  0  0  2  0  0  0  0  0  0
  190.1980  177.8730  140.2330 N   0  0  0  0  0  2  0  0  0  0  0  0
  190.1590  176.7330  143.3130 C   0  0  2  0  0  3  0  0  0  0  0  0
  190.7600  178.1330  143.2070 C   0  0  0  0  0  2  0  0  0  0  0  0
  190.8090  176.6800  140.8180 C   0  0  2  0  0  3  0  0  0  0  0  0
  189.8940  176.1240  141.9270 C   0  0  0  0  0  2  0  0  0  0  0  0
  192.1920  177.0200  141.3870 C   0  0  2  0  0  3  0  0  0  0  0  0
  192.1050  178.0940  142.4820 C   0  0  0  0  0  2  0  0  0  0  0  0
  193.1280  177.4800  140.2960 C   0  0  0  0  0  1  0  0  0  0  0  0
  188.9760  176.7470  144.0550 O   0  0  0  0  0  0  0  0  0  0  0  0
  187.9300  176.7500  143.1250 C   0  0  0  0  0  2  0  0  0  0  0  0
  186.6940  176.7560  143.7820 O   0  0  0  0  0  0  0  0  0  0  0  0
  186.6450  177.9610  144.4010 N   0  0  0  0  0  2  0  0  0  0  0  0
  185.7910  177.8220  145.5780 C   0  0  1  0  0  3  0  0  0  0  0  0
  185.6500  179.3300  147.3850 O   0  0  0  0  0  0  0  0  0  0  0  0
  186.3490  178.5350  146.7890 C   0  0  0  0  0  0  0  0  0  0  0  0
  187.7220  178.2420  147.3370 C   0  0  1  0  0  3  0  0  0  0  0  0
  188.0180  178.9360  148.6690 C   0  0  0  0  0  2  0  0  0  0  0  0
  188.2440  177.9920  149.6720 O   0  0  0  0  0  1  0  0  0  0  0  0
  187.9200  176.8640  147.4490 O   0  0  0  0  0  0  0  0  0  0  0  0
  189.7900  177.8520  146.6250 O   0  0  0  0  0  1  0  0  0  0  0  0
  189.2080  176.6350  146.9660 C   0  0  0  0  0  2  0  0  0  0  0  0
  184.4310  178.1370  145.3350 O   0  0  0  0  0  0  0  0  0  0  0  0
  184.2330  178.5010  143.9920 C   0  0  0  0  0  3  0  0  0  0  0  0
  182.8380  179.0880  143.8380 C   0  0  0  0  0  2  0  0  0  0  0  0
  184.0340  180.0020  143.8690 C   0  0  0  0  0  2  0  0  0  0  0  0
  187.4720  176.1760  138.0210 N   0  0  0  0  0  2  0  0  0  0  0  0
  186.3060  176.6790  137.3150 C   0  0  1  0  0  3  0  0  0  0  0  0
  186.2940  179.0590  137.6390 O   0  0  0  0  0  0  0  0  0  0  0  0
  187.0120  178.3450  135.5530 N   0  0  0  0  0  1  0  0  0  0  0  0
  186.5220  178.0930  136.8620 C   0  0  0  0  0  0  0  0  0  0  0  0
  185.9440  175.7600  136.1590 C   0  0  0  0  0  2  0  0  0  0  0  0
  184.5010  175.7040  135.9660 N   0  0  0  0  0  2  0  0  0  0  0  0
  184.0780  174.3290  136.1650 C   0  0  2  0  0  3  0  0  0  0  0  0
  183.6590  173.7290  134.8330 C   0  0  0  0  0  1  0  0  0  0  0  0
  181.9100  175.1340  136.7550 C   0  0  0  0  0  2  0  0  0  0  0  0
  183.0140  174.2920  137.1700 N   0  0  0  0  0  0  0  0  0  0  0  0
  181.3000  175.6010  138.0410 C   0  0  1  0  0  3  0  0  0  0  0  0
  182.3560  175.2220  139.0470 C   0  0  0  0  0  2  0  0  0  0  0  0
  183.4830  174.7860  138.3430 O   0  0  0  0  0  0  0  0  0  0  0  0
  181.0210  177.1100  138.0310 C   0  0  2  0  0  3  0  0  0  0  0  0
  181.9480  177.7770  137.2240 O   0  0  0  0  0  1  0  0  0  0  0  0
  181.0830  177.6710  139.4450 C   0  0  0  0  0  2  0  0  0  0  0  0
  178.9350  176.7770  139.8440 O   0  0  0  0  0  0  0  0  0  0  0  0
  179.7400  177.6630  140.0990 C   0  0  0  0  0  0  0  0  0  0  0  0
  179.3980  178.7260  141.0860 C   0  0  0  0  0  2  0  0  0  0  0  0
  179.9990  180.9430  141.7080 O   0  0  0  0  0  1  0  0  0  0  0  0
  180.4890  179.7730  141.1240 C   0  0  0  0  0  2  0  0  0  0  0  0
  1  7  1  0  0  0  0
  2  8  1  0  0  0  0
  3  6  1  0  0  0  0
  3  1  2  0  0  0  0
  4  2  1  0  0  0  0
  5  6  1  0  0  0  0
  6  4  2  0  0  0  0
  7  2  2  0  0  0  0
  7 35  1  0  0  0  0
  8 10  1  0  0  0  0
  9  8  2  0  0  0  0
 11 18  1  1  0  0  0
 12 11  1  0  0  0  0
 13 10  1  1  0  0  0
 13 15  1  0  0  0  0
 13 14  1  0  0  0  0
 14 11  1  0  0  0  0
 15 17  1  6  0  0  0
 15 16  1  0  0  0  0
 16 12  1  0  0  0  0
 19 20  1  0  0  0  0
 19 18  1  0  0  0  0
 20 21  1  0  0  0  0
 22 21  1  6  0  0  0
 22 24  1  0  0  0  0
 24 25  1  0  0  0  0
 24 23  2  0  0  0  0
 25 28  1  0  0  0  0
 25 26  1  1  0  0  0
 26 27  1  0  0  0  0
 29 30  1  0  0  0  0
 30 28  1  0  0  0  0
 31 22  1  0  0  0  0
 32 31  1  0  0  0  0
 33 34  1  0  0  0  0
 33 32  1  0  0  0  0
 34 32  1  0  0  0  0
 36 40  1  6  0  0  0
 36 35  1  0  0  0  0
 38 39  1  0  0  0  0
 39 36  1  0  0  0  0
 39 37  2  0  0  0  0
 41 40  1  0  0  0  0
 41 42  1  0  0  0  0
 42 43  1  6  0  0  0
 42 45  1  0  0  0  0
 44 45  1  0  0  0  0
 44 46  1  0  0  0  0
 45 48  1  0  0  0  0
 46 49  1  6  0  0  0
 46 47  1  0  0  0  0
 48 47  1  0  0  0  0
 49 50  1  6  0  0  0
 49 51  1  0  0  0  0
 51 53  1  0  0  0  0
 52 53  2  0  0  0  0
 53 54  1  0  0  0  0
 54 56  1  0  0  0  0
 56 55  1  0  0  0  0
M  END
>  <MODEL>
6

>  <REMARK>
 VINA RESULT:      -4.6      2.135      4.061
  Name = 
  26 active torsions:
  status: ('A' for Active; 'I' for Inactive)
    1  A    between atoms: C_1  and  C_8
    2  A    between atoms: O_3  and  C_15
    3  A    between atoms: O_3  and  C_44
    4  A    between atoms: N_4  and  C_25
    5  A    between atoms: C_10  and  C_14
    6  A    between atoms: C_10  and  C_42
    7  A    between atoms: C_12  and  C_18
    8  A    between atoms: C_12  and  N_30
    9  A    between atoms: C_12  and  C_33
   10  A    between atoms: N_13  and  C_28
   11  A    between atoms: C_15  and  N_43
   12  A    between atoms: C_15  and  C_56
   13  A    between atoms: C_18  and  N_29
   14  A    between atoms: C_22  and  O_38
   15  A    between atoms: C_23  and  O_37
   16  A    between atoms: C_23  and  O_38
   17  A    between atoms: C_27  and  C_52
   18  A    between atoms: C_28  and  N_29
   19  A    between atoms: N_30  and  C_48
   20  A    between atoms: C_31  and  O_51
   21  A    between atoms: C_34  and  C_35
   22  A    between atoms: C_35  and  C_39
   23  A    between atoms: O_37  and  N_43
   24  A    between atoms: C_39  and  C_42
   25  A    between atoms: O_51  and  C_52
   26  A    between atoms: C_52  and  C_56
                            x       y       z     vdW  Elec       q    Type
                         _______ _______ _______ _____ _____    ______ ____

>  <TORSDO>
F 26

$$$$
=
 OpenBabel10222417153D

 56 59  0  0  1  0  0  0  0  0999 V2000
  189.9940  178.3060  145.7270 C   0  0  0  0  0  3  0  0  0  0  0  0
  187.9760  177.1510  145.0110 C   0  0  0  0  0  0  0  0  0  0  0  0
  189.5140  178.3360  147.0400 C   0  0  0  0  0  3  0  0  0  0  0  0
  187.5060  177.2110  146.3320 C   0  0  0  0  0  3  0  0  0  0  0  0
  187.7840  177.8510  148.6420 O   0  0  0  0  0  1  0  0  0  0  0  0
  188.2640  177.8030  147.3390 C   0  0  0  0  0  0  0  0  0  0  0  0
  189.2320  177.7290  144.7020 C   0  0  0  0  0  0  0  0  0  0  0  0
  187.1060  176.5740  143.9590 C   0  0  0  0  0  0  0  0  0  0  0  0
  187.1570  175.3090  143.7270 N   0  0  0  0  0  2  0  0  0  0  0  0
  186.3670  177.3910  143.0440 N   0  0  0  0  0  2  0  0  0  0  0  0
  183.5720  179.1120  142.9420 C   0  0  2  0  0  3  0  0  0  0  0  0
  183.8400  178.3410  141.6520 C   0  0  0  0  0  2  0  0  0  0  0  0
  186.1220  178.8240  143.1950 C   0  0  2  0  0  3  0  0  0  0  0  0
  184.7700  179.0450  143.9020 C   0  0  0  0  0  2  0  0  0  0  0  0
  186.1230  179.5070  141.8210 C   0  0  2  0  0  3  0  0  0  0  0  0
  185.0340  178.9330  140.9030 C   0  0  0  0  0  2  0  0  0  0  0  0
  187.4720  179.3790  141.1550 C   0  0  0  0  0  1  0  0  0  0  0  0
  182.4270  178.6360  143.5850 O   0  0  0  0  0  0  0  0  0  0  0  0
  181.4150  178.6130  142.6170 C   0  0  0  0  0  2  0  0  0  0  0  0
  180.1640  178.7920  143.2170 O   0  0  0  0  0  0  0  0  0  0  0  0
  179.3270  178.0010  142.5010 N   0  0  0  0  0  2  0  0  0  0  0  0
  179.8170  177.9670  141.1250 C   0  0  1  0  0  3  0  0  0  0  0  0
  179.3180  175.6630  141.1820 O   0  0  0  0  0  0  0  0  0  0  0  0
  179.7710  176.5810  140.5250 C   0  0  0  0  0  0  0  0  0  0  0  0
  180.1950  176.2980  139.1070 C   0  0  1  0  0  3  0  0  0  0  0  0
  179.0500  176.3630  138.0930 C   0  0  0  0  0  2  0  0  0  0  0  0
  179.3930  177.1890  137.0210 O   0  0  0  0  0  1  0  0  0  0  0  0
  181.2330  177.1520  138.7280 O   0  0  0  0  0  0  0  0  0  0  0  0
  183.2030  176.7160  137.6880 O   0  0  0  0  0  1  0  0  0  0  0  0
  182.3860  176.3700  138.7600 C   0  0  0  0  0  2  0  0  0  0  0  0
  179.2270  178.9470  140.2880 O   0  0  0  0  0  0  0  0  0  0  0  0
  180.1100  180.0190  140.0700 C   0  0  0  0  0  3  0  0  0  0  0  0
  180.0570  180.4130  138.6020 C   0  0  0  0  0  2  0  0  0  0  0  0
  179.3470  181.2560  139.6280 C   0  0  0  0  0  2  0  0  0  0  0  0
  189.7390  177.7000  143.3580 N   0  0  0  0  0  2  0  0  0  0  0  0
  191.0460  177.1740  142.9990 C   0  0  1  0  0  3  0  0  0  0  0  0
  190.3770  174.8700  142.8710 O   0  0  0  0  0  0  0  0  0  0  0  0
  192.1800  175.3050  144.2630 N   0  0  0  0  0  1  0  0  0  0  0  0
  191.1610  175.7240  143.3660 C   0  0  0  0  0  0  0  0  0  0  0  0
  191.3300  177.4110  141.5230 C   0  0  0  0  0  2  0  0  0  0  0  0
  190.1700  177.0770  140.7060 N   0  0  0  0  0  2  0  0  0  0  0  0
  190.5520  177.2220  139.3130 C   0  0  2  0  0  3  0  0  0  0  0  0
  189.3920  177.8140  138.5280 C   0  0  0  0  0  1  0  0  0  0  0  0
  192.1710  176.0930  137.9700 C   0  0  0  0  0  2  0  0  0  0  0  0
  190.9900  175.9250  138.7950 N   0  0  0  0  0  0  0  0  0  0  0  0
  192.0830  174.9790  136.9720 C   0  0  1  0  0  3  0  0  0  0  0  0
  190.6650  174.5040  137.1520 C   0  0  0  0  0  2  0  0  0  0  0  0
  190.0170  175.4010  138.0080 O   0  0  0  0  0  0  0  0  0  0  0  0
  192.3570  175.4650  135.5430 C   0  0  2  0  0  3  0  0  0  0  0  0
  191.2970  175.1270  134.6960 O   0  0  0  0  0  1  0  0  0  0  0  0
  193.6450  174.8510  135.0110 C   0  0  0  0  0  2  0  0  0  0  0  0
  195.2800  176.2910  135.9210 O   0  0  0  0  0  0  0  0  0  0  0  0
  194.8090  175.1620  135.8950 C   0  0  0  0  0  0  0  0  0  0  0  0
  195.3740  174.0930  136.7650 C   0  0  0  0  0  2  0  0  0  0  0  0
  196.9950  172.4560  136.1650 O   0  0  0  0  0  1  0  0  0  0  0  0
  195.6750  172.8570  135.9450 C   0  0  0  0  0  2  0  0  0  0  0  0
  1  3  1  0  0  0  0
  2  4  2  0  0  0  0
  3  6  2  0  0  0  0
  4  6  1  0  0  0  0
  6  5  1  0  0  0  0
  7  2  1  0  0  0  0
  7  1  2  0  0  0  0
  8  2  1  0  0  0  0
  9  8  2  0  0  0  0
 10  8  1  0  0  0  0
 11 18  1  1  0  0  0
 11 14  1  0  0  0  0
 12 11  1  0  0  0  0
 13 10  1  6  0  0  0
 13 14  1  0  0  0  0
 15 17  1  6  0  0  0
 15 13  1  0  0  0  0
 16 12  1  0  0  0  0
 16 15  1  0  0  0  0
 19 20  1  0  0  0  0
 19 18  1  0  0  0  0
 21 20  1  0  0  0  0
 22 31  1  6  0  0  0
 22 21  1  0  0  0  0
 24 22  1  0  0  0  0
 24 23  2  0  0  0  0
 25 26  1  6  0  0  0
 25 24  1  0  0  0  0
 27 26  1  0  0  0  0
 28 30  1  0  0  0  0
 28 25  1  0  0  0  0
 29 30  1  0  0  0  0
 32 31  1  0  0  0  0
 33 34  1  0  0  0  0
 33 32  1  0  0  0  0
 34 32  1  0  0  0  0
 35  7  1  0  0  0  0
 36 40  1  6  0  0  0
 36 35  1  0  0  0  0
 36 39  1  0  0  0  0
 37 39  2  0  0  0  0
 39 38  1  0  0  0  0
 41 40  1  0  0  0  0
 42 43  1  6  0  0  0
 42 41  1  0  0  0  0
 44 45  1  0  0  0  0
 45 42  1  0  0  0  0
 46 49  1  6  0  0  0
 46 47  1  0  0  0  0
 46 44  1  0  0  0  0
 47 48  1  0  0  0  0
 48 45  1  0  0  0  0
 49 50  1  6  0  0  0
 51 49  1  0  0  0  0
 51 53  1  0  0  0  0
 53 52  2  0  0  0  0
 53 54  1  0  0  0  0
 56 55  1  0  0  0  0
 56 54  1  0  0  0  0
M  END
>  <MODEL>
7

>  <REMARK>
 VINA RESULT:      -4.6      3.039      8.376
  Name = 
  26 active torsions:
  status: ('A' for Active; 'I' for Inactive)
    1  A    between atoms: C_1  and  C_8
    2  A    between atoms: O_3  and  C_15
    3  A    between atoms: O_3  and  C_44
    4  A    between atoms: N_4  and  C_25
    5  A    between atoms: C_10  and  C_14
    6  A    between atoms: C_10  and  C_42
    7  A    between atoms: C_12  and  C_18
    8  A    between atoms: C_12  and  N_30
    9  A    between atoms: C_12  and  C_33
   10  A    between atoms: N_13  and  C_28
   11  A    between atoms: C_15  and  N_43
   12  A    between atoms: C_15  and  C_56
   13  A    between atoms: C_18  and  N_29
   14  A    between atoms: C_22  and  O_38
   15  A    between atoms: C_23  and  O_37
   16  A    between atoms: C_23  and  O_38
   17  A    between atoms: C_27  and  C_52
   18  A    between atoms: C_28  and  N_29
   19  A    between atoms: N_30  and  C_48
   20  A    between atoms: C_31  and  O_51
   21  A    between atoms: C_34  and  C_35
   22  A    between atoms: C_35  and  C_39
   23  A    between atoms: O_37  and  N_43
   24  A    between atoms: C_39  and  C_42
   25  A    between atoms: O_51  and  C_52
   26  A    between atoms: C_52  and  C_56
                            x       y       z     vdW  Elec       q    Type
                         _______ _______ _______ _____ _____    ______ ____

>  <TORSDO>
F 26

$$$$
=
 OpenBabel10222417153D

 56 59  0  0  1  0  0  0  0  0999 V2000
  187.7890  178.1570  142.0220 C   0  0  0  0  0  3  0  0  0  0  0  0
  188.4560  177.7370  139.7190 C   0  0  0  0  0  0  0  0  0  0  0  0
  186.5770  178.6930  141.5750 C   0  0  0  0  0  3  0  0  0  0  0  0
  187.2420  178.2990  139.2940 C   0  0  0  0  0  3  0  0  0  0  0  0
  185.1140  179.3300  139.7720 O   0  0  0  0  0  1  0  0  0  0  0  0
  186.3110  178.7790  140.2120 C   0  0  0  0  0  0  0  0  0  0  0  0
  188.7400  177.6860  141.1060 C   0  0  0  0  0  0  0  0  0  0  0  0
  189.4460  177.3010  138.7060 C   0  0  0  0  0  0  0  0  0  0  0  0
  190.7000  177.4810  138.9390 N   0  0  0  0  0  2  0  0  0  0  0  0
  189.0640  176.8850  137.3920 N   0  0  0  0  0  2  0  0  0  0  0  0
  187.8460  174.1190  136.1080 C   0  0  2  0  0  3  0  0  0  0  0  0
  188.9610  174.7240  135.2600 C   0  0  0  0  0  2  0  0  0  0  0  0
  187.7050  176.5440  136.9720 C   0  0  2  0  0  3  0  0  0  0  0  0
  187.4360  175.0540  137.2570 C   0  0  0  0  0  2  0  0  0  0  0  0
  187.5250  176.8430  135.4780 C   0  0  2  0  0  3  0  0  0  0  0  0
  188.5050  176.0340  134.6160 C   0  0  0  0  0  2  0  0  0  0  0  0
  187.6950  178.3160  135.1970 C   0  0  0  0  0  1  0  0  0  0  0  0
  188.2220  172.8760  136.6240 O   0  0  0  0  0  0  0  0  0  0  0  0
  187.1160  172.3960  137.3360 C   0  0  0  0  0  2  0  0  0  0  0  0
  185.9420  172.5860  136.5980 O   0  0  0  0  0  0  0  0  0  0  0  0
  184.9550  172.5980  137.5280 N   0  0  0  0  0  2  0  0  0  0  0  0
  183.7100  172.9500  136.8500 C   0  0  1  0  0  3  0  0  0  0  0  0
  183.0530  170.6850  136.8890 O   0  0  0  0  0  0  0  0  0  0  0  0
  182.6820  171.8430  136.9120 C   0  0  0  0  0  0  0  0  0  0  0  0
  181.2090  172.1160  137.0790 C   0  0  1  0  0  3  0  0  0  0  0  0
  180.3090  171.1690  136.2820 C   0  0  0  0  0  2  0  0  0  0  0  0
  179.9430  171.7500  135.0670 O   0  0  0  0  0  1  0  0  0  0  0  0
  180.8600  172.1020  138.4310 O   0  0  0  0  0  0  0  0  0  0  0  0
  180.5330  174.3420  138.5930 O   0  0  0  0  0  1  0  0  0  0  0  0
  179.9010  173.1030  138.5760 C   0  0  0  0  0  2  0  0  0  0  0  0
  183.1870  174.2070  137.2400 O   0  0  0  0  0  0  0  0  0  0  0  0
  184.1350  175.2270  137.0490 C   0  0  0  0  0  3  0  0  0  0  0  0
  183.5310  176.3060  136.1630 C   0  0  0  0  0  2  0  0  0  0  0  0
  183.6410  176.5330  137.6470 C   0  0  0  0  0  2  0  0  0  0  0  0
  189.9790  177.1310  141.5790 N   0  0  0  0  0  2  0  0  0  0  0  0
  190.2600  176.8580  142.9780 C   0  0  1  0  0  3  0  0  0  0  0  0
  190.3130  174.4570  143.0250 O   0  0  0  0  0  0  0  0  0  0  0  0
  192.3490  175.5030  143.3970 N   0  0  0  0  0  1  0  0  0  0  0  0
  190.9530  175.5370  143.1390 C   0  0  0  0  0  0  0  0  0  0  0  0
  191.0560  177.9970  143.5950 C   0  0  0  0  0  2  0  0  0  0  0  0
  190.1930  178.8840  144.3640 N   0  0  0  0  0  2  0  0  0  0  0  0
  189.9380  178.2540  145.6470 C   0  0  2  0  0  3  0  0  0  0  0  0
  191.1350  177.4040  146.0420 C   0  0  0  0  0  1  0  0  0  0  0  0
  187.6840  178.2510  144.8630 C   0  0  0  0  0  2  0  0  0  0  0  0
  188.6930  177.4880  145.5710 N   0  0  0  0  0  0  0  0  0  0  0  0
  186.3890  177.7870  145.4550 C   0  0  1  0  0  3  0  0  0  0  0  0
  186.8510  177.0410  146.6800 C   0  0  0  0  0  2  0  0  0  0  0  0
  188.2240  177.2610  146.8240 O   0  0  0  0  0  0  0  0  0  0  0  0
  185.4610  178.9590  145.8030 C   0  0  2  0  0  3  0  0  0  0  0  0
  185.5370  179.2590  147.1670 O   0  0  0  0  0  1  0  0  0  0  0  0
  184.0220  178.6250  145.4360 C   0  0  0  0  0  2  0  0  0  0  0  0
  184.1040  180.1820  143.6640 O   0  0  0  0  0  0  0  0  0  0  0  0
  183.6770  179.1070  144.0660 C   0  0  0  0  0  0  0  0  0  0  0  0
  182.8300  178.2590  143.1810 C   0  0  0  0  0  2  0  0  0  0  0  0
  181.8610  178.1530  141.0090 O   0  0  0  0  0  1  0  0  0  0  0  0
  182.4570  179.0200  141.9280 C   0  0  0  0  0  2  0  0  0  0  0  0
  2  7  1  0  0  0  0
  3  1  1  0  0  0  0
  4  2  2  0  0  0  0
  4  6  1  0  0  0  0
  5  6  1  0  0  0  0
  6  3  2  0  0  0  0
  7 35  1  0  0  0  0
  7  1  2  0  0  0  0
  8  9  2  0  0  0  0
  8  2  1  0  0  0  0
 10  8  1  0  0  0  0
 11 18  1  1  0  0  0
 11 14  1  0  0  0  0
 12 11  1  0  0  0  0
 13 14  1  0  0  0  0
 13 10  1  6  0  0  0
 15 17  1  1  0  0  0
 15 13  1  0  0  0  0
 16 12  1  0  0  0  0
 16 15  1  0  0  0  0
 18 19  1  0  0  0  0
 20 19  1  0  0  0  0
 20 21  1  0  0  0  0
 22 24  1  1  0  0  0
 22 31  1  0  0  0  0
 22 21  1  0  0  0  0
 23 24  2  0  0  0  0
 24 25  1  0  0  0  0
 25 26  1  6  0  0  0
 25 28  1  0  0  0  0
 27 26  1  0  0  0  0
 28 30  1  0  0  0  0
 30 29  1  0  0  0  0
 32 31  1  0  0  0  0
 32 34  1  0  0  0  0
 33 32  1  0  0  0  0
 33 34  1  0  0  0  0
 35 36  1  0  0  0  0
 36 39  1  0  0  0  0
 36 40  1  6  0  0  0
 37 39  2  0  0  0  0
 39 38  1  0  0  0  0
 40 41  1  0  0  0  0
 41 42  1  0  0  0  0
 42 43  1  6  0  0  0
 44 46  1  0  0  0  0
 44 45  1  0  0  0  0
 45 42  1  0  0  0  0
 45 48  1  0  0  0  0
 46 49  1  1  0  0  0
 46 47  1  0  0  0  0
 47 48  1  0  0  0  0
 49 50  1  1  0  0  0
 51 49  1  0  0  0  0
 52 53  2  0  0  0  0
 53 51  1  0  0  0  0
 54 53  1  0  0  0  0
 55 56  1  0  0  0  0
 56 54  1  0  0  0  0
M  END
>  <MODEL>
8

>  <REMARK>
 VINA RESULT:      -4.3      2.167      8.632
  Name = 
  26 active torsions:
  status: ('A' for Active; 'I' for Inactive)
    1  A    between atoms: C_1  and  C_8
    2  A    between atoms: O_3  and  C_15
    3  A    between atoms: O_3  and  C_44
    4  A    between atoms: N_4  and  C_25
    5  A    between atoms: C_10  and  C_14
    6  A    between atoms: C_10  and  C_42
    7  A    between atoms: C_12  and  C_18
    8  A    between atoms: C_12  and  N_30
    9  A    between atoms: C_12  and  C_33
   10  A    between atoms: N_13  and  C_28
   11  A    between atoms: C_15  and  N_43
   12  A    between atoms: C_15  and  C_56
   13  A    between atoms: C_18  and  N_29
   14  A    between atoms: C_22  and  O_38
   15  A    between atoms: C_23  and  O_37
   16  A    between atoms: C_23  and  O_38
   17  A    between atoms: C_27  and  C_52
   18  A    between atoms: C_28  and  N_29
   19  A    between atoms: N_30  and  C_48
   20  A    between atoms: C_31  and  O_51
   21  A    between atoms: C_34  and  C_35
   22  A    between atoms: C_35  and  C_39
   23  A    between atoms: O_37  and  N_43
   24  A    between atoms: C_39  and  C_42
   25  A    between atoms: O_51  and  C_52
   26  A    between atoms: C_52  and  C_56
                            x       y       z     vdW  Elec       q    Type
                         _______ _______ _______ _____ _____    ______ ____

>  <TORSDO>
F 26

$$$$
=
 OpenBabel10222417153D

 56 59  0  0  1  0  0  0  0  0999 V2000
  189.0620  174.9110  135.6840 C   0  0  0  0  0  3  0  0  0  0  0  0
  189.8480  176.8010  137.0010 C   0  0  0  0  0  0  0  0  0  0  0  0
  190.2830  174.8760  135.0020 C   0  0  0  0  0  3  0  0  0  0  0  0
  191.0560  176.7600  136.2890 C   0  0  0  0  0  3  0  0  0  0  0  0
  192.4770  175.7830  134.6010 O   0  0  0  0  0  1  0  0  0  0  0  0
  191.2730  175.8100  135.2930 C   0  0  0  0  0  0  0  0  0  0  0  0
  188.8270  175.8740  136.6750 C   0  0  0  0  0  0  0  0  0  0  0  0
  189.6340  177.8710  138.0030 C   0  0  0  0  0  0  0  0  0  0  0  0
  189.0970  178.9810  137.6300 N   0  0  0  0  0  2  0  0  0  0  0  0
  190.1900  177.8080  139.3200 N   0  0  0  0  0  2  0  0  0  0  0  0
  190.0460  176.7420  142.4230 C   0  0  2  0  0  3  0  0  0  0  0  0
  190.6870  178.1220  142.3000 C   0  0  0  0  0  2  0  0  0  0  0  0
  190.7530  176.6130  139.9470 C   0  0  2  0  0  3  0  0  0  0  0  0
  189.7970  176.1080  141.0460 C   0  0  0  0  0  2  0  0  0  0  0  0
  192.1310  176.9290  140.5420 C   0  0  2  0  0  3  0  0  0  0  0  0
  192.0480  178.0300  141.6090 C   0  0  0  0  0  2  0  0  0  0  0  0
  193.1050  177.3370  139.4630 C   0  0  0  0  0  1  0  0  0  0  0  0
  188.8460  176.8050  143.1360 O   0  0  0  0  0  0  0  0  0  0  0  0
  189.1950  176.7810  144.4920 C   0  0  0  0  0  2  0  0  0  0  0  0
  188.5400  177.8090  145.1810 O   0  0  0  0  0  0  0  0  0  0  0  0
  187.2210  177.5250  145.0410 N   0  0  0  0  0  2  0  0  0  0  0  0
  186.4690  178.5350  145.7830 C   0  0  1  0  0  3  0  0  0  0  0  0
  184.2540  179.3430  145.8410 O   0  0  0  0  0  0  0  0  0  0  0  0
  185.1210  178.8260  145.1630 C   0  0  0  0  0  0  0  0  0  0  0  0
  184.8290  178.5710  143.7070 C   0  0  1  0  0  3  0  0  0  0  0  0
  183.3550  178.2790  143.4120 C   0  0  0  0  0  2  0  0  0  0  0  0
  182.8260  179.2490  142.5600 O   0  0  0  0  0  1  0  0  0  0  0  0
  185.2830  179.6340  142.9230 O   0  0  0  0  0  0  0  0  0  0  0  0
  185.4540  179.3760  140.6750 O   0  0  0  0  0  1  0  0  0  0  0  0
  186.0270  179.0490  141.9000 C   0  0  0  0  0  2  0  0  0  0  0  0
  186.3890  178.2750  147.1730 O   0  0  0  0  0  0  0  0  0  0  0  0
  187.5430  177.6150  147.6280 C   0  0  0  0  0  3  0  0  0  0  0  0
  188.5290  178.6470  148.1550 C   0  0  0  0  0  2  0  0  0  0  0  0
  187.7220  177.8240  149.1230 C   0  0  0  0  0  2  0  0  0  0  0  0
  187.5700  175.8950  137.3730 N   0  0  0  0  0  2  0  0  0  0  0  0
  186.2810  175.9910  136.7100 C   0  0  1  0  0  3  0  0  0  0  0  0
  185.5910  178.2750  136.4320 O   0  0  0  0  0  0  0  0  0  0  0  0
  186.7450  177.3610  134.6400 N   0  0  0  0  0  1  0  0  0  0  0  0
  186.1690  177.2710  135.9360 C   0  0  0  0  0  0  0  0  0  0  0  0
  186.0390  174.7730  135.8330 C   0  0  0  0  0  2  0  0  0  0  0  0
  184.6350  174.3810  135.8540 N   0  0  0  0  0  2  0  0  0  0  0  0
  184.4750  173.3550  136.8690 C   0  0  2  0  0  3  0  0  0  0  0  0
  184.3420  171.9970  136.1990 C   0  0  0  0  0  1  0  0  0  0  0  0
  182.1250  173.7670  136.9180 C   0  0  0  0  0  2  0  0  0  0  0  0
  183.3310  173.6890  137.7180 N   0  0  0  0  0  0  0  0  0  0  0  0
  181.2700  174.7640  137.6380 C   0  0  1  0  0  3  0  0  0  0  0  0
  182.2510  175.3850  138.5990 C   0  0  0  0  0  2  0  0  0  0  0  0
  183.5260  174.9080  138.2790 O   0  0  0  0  0  0  0  0  0  0  0  0
  180.6590  175.7970  136.6810 C   0  0  2  0  0  3  0  0  0  0  0  0
  180.5320  175.2610  135.3950 O   0  0  0  0  0  1  0  0  0  0  0  0
  181.5250  177.0470  136.6250 C   0  0  0  0  0  2  0  0  0  0  0  0
  179.7650  178.2370  135.5960 O   0  0  0  0  0  0  0  0  0  0  0  0
  180.7080  178.2720  136.3760 C   0  0  0  0  0  0  0  0  0  0  0  0
  181.0320  179.5310  137.1050 C   0  0  0  0  0  2  0  0  0  0  0  0
  181.5790  180.0810  139.3550 O   0  0  0  0  0  1  0  0  0  0  0  0
  181.9130  179.2320  138.2980 C   0  0  0  0  0  2  0  0  0  0  0  0
  1  7  1  0  0  0  0
  2  8  1  0  0  0  0
  3  6  1  0  0  0  0
  3  1  2  0  0  0  0
  4  2  1  0  0  0  0
  5  6  1  0  0  0  0
  6  4  2  0  0  0  0
  7  2  2  0  0  0  0
  7 35  1  0  0  0  0
  8 10  1  0  0  0  0
  9  8  2  0  0  0  0
 11 18  1  6  0  0  0
 12 11  1  0  0  0  0
 13 10  1  1  0  0  0
 13 15  1  0  0  0  0
 13 14  1  0  0  0  0
 14 11  1  0  0  0  0
 15 17  1  6  0  0  0
 15 16  1  0  0  0  0
 16 12  1  0  0  0  0
 18 19  1  0  0  0  0
 19 20  1  0  0  0  0
 21 20  1  0  0  0  0
 22 21  1  6  0  0  0
 22 31  1  0  0  0  0
 24 22  1  0  0  0  0
 24 23  2  0  0  0  0
 25 26  1  1  0  0  0
 25 24  1  0  0  0  0
 27 26  1  0  0  0  0
 28 25  1  0  0  0  0
 29 30  1  0  0  0  0
 30 28  1  0  0  0  0
 31 32  1  0  0  0  0
 32 33  1  0  0  0  0
 32 34  1  0  0  0  0
 33 34  1  0  0  0  0
 36 40  1  6  0  0  0
 36 35  1  0  0  0  0
 38 39  1  0  0  0  0
 39 37  2  0  0  0  0
 39 36  1  0  0  0  0
 40 41  1  0  0  0  0
 41 42  1  0  0  0  0
 42 43  1  6  0  0  0
 42 45  1  0  0  0  0
 44 46  1  0  0  0  0
 44 45  1  0  0  0  0
 45 48  1  0  0  0  0
 46 49  1  6  0  0  0
 46 47  1  0  0  0  0
 48 47  1  0  0  0  0
 49 50  1  6  0  0  0
 51 49  1  0  0  0  0
 52 53  2  0  0  0  0
 53 51  1  0  0  0  0
 53 54  1  0  0  0  0
 54 56  1  0  0  0  0
 56 55  1  0  0  0  0
M  END
>  <MODEL>
9

>  <REMARK>
 VINA RESULT:      -4.3      2.065      3.757
  Name = 
  26 active torsions:
  status: ('A' for Active; 'I' for Inactive)
    1  A    between atoms: C_1  and  C_8
    2  A    between atoms: O_3  and  C_15
    3  A    between atoms: O_3  and  C_44
    4  A    between atoms: N_4  and  C_25
    5  A    between atoms: C_10  and  C_14
    6  A    between atoms: C_10  and  C_42
    7  A    between atoms: C_12  and  C_18
    8  A    between atoms: C_12  and  N_30
    9  A    between atoms: C_12  and  C_33
   10  A    between atoms: N_13  and  C_28
   11  A    between atoms: C_15  and  N_43
   12  A    between atoms: C_15  and  C_56
   13  A    between atoms: C_18  and  N_29
   14  A    between atoms: C_22  and  O_38
   15  A    between atoms: C_23  and  O_37
   16  A    between atoms: C_23  and  O_38
   17  A    between atoms: C_27  and  C_52
   18  A    between atoms: C_28  and  N_29
   19  A    between atoms: N_30  and  C_48
   20  A    between atoms: C_31  and  O_51
   21  A    between atoms: C_34  and  C_35
   22  A    between atoms: C_35  and  C_39
   23  A    between atoms: O_37  and  N_43
   24  A    between atoms: C_39  and  C_42
   25  A    between atoms: O_51  and  C_52
   26  A    between atoms: C_52  and  C_56
                            x       y       z     vdW  Elec       q    Type
                         _______ _______ _______ _____ _____    ______ ____

>  <TORSDO>
F 26

$$$$
