=
 OpenBabel10222421083D

 29 33  0  0  0  0  0  0  0  0999 V2000
  185.9230  178.4560  147.3210 C   0  0  0  0  0  3  0  0  0  0  0  0
  184.0600  178.7600  145.8560 N   0  0  0  0  0  0  0  0  0  0  0  0
  186.2350  178.1770  144.8860 C   0  0  0  0  0  0  0  0  0  0  0  0
  188.0760  178.0720  148.7140 C   0  0  0  0  0  3  0  0  0  0  0  0
  187.6110  177.8810  145.0890 C   0  0  0  0  0  0  0  0  0  0  0  0
  188.0770  177.9020  146.4140 C   0  0  0  0  0  0  0  0  0  0  0  0
  187.2750  178.1720  147.4700 C   0  0  0  0  0  0  0  0  0  0  0  0
  189.4420  177.7060  148.2790 N   0  0  0  0  0  2  0  0  0  0  0  0
  182.4340  178.9200  142.8260 C   0  0  0  0  0  3  0  0  0  0  0  0
  183.6800  178.5950  142.3630 N   0  0  0  0  0  0  0  0  0  0  0  0
  183.5800  178.7720  144.5940 C   0  0  0  0  0  0  0  0  0  0  0  0
  185.3860  178.4670  146.0280 C   0  0  0  0  0  0  0  0  0  0  0  0
  185.7080  178.2120  143.6200 N   0  0  0  0  0  2  0  0  0  0  0  0
  189.3770  177.6120  146.8740 N   0  0  0  0  0  0  0  0  0  0  0  0
  184.3970  178.5040  143.4870 C   0  0  0  0  0  0  0  0  0  0  0  0
  182.3360  179.0370  144.1850 N   0  0  0  0  0  0  0  0  0  0  0  0
  188.5270  177.5610  143.9650 C   0  0  0  0  0  0  0  0  0  0  0  0
  190.2750  176.9580  141.8470 C   0  0  0  0  0  0  0  0  0  0  0  0
  189.4060  178.5360  143.4660 C   0  0  0  0  0  3  0  0  0  0  0  0
  190.2760  178.2360  142.4140 C   0  0  0  0  0  3  0  0  0  0  0  0
  189.4110  175.9780  142.3420 C   0  0  0  0  0  3  0  0  0  0  0  0
  188.5420  176.2790  143.3950 C   0  0  0  0  0  3  0  0  0  0  0  0
  191.2150  176.6340  140.7380 C   0  0  0  0  0  2  0  0  0  0  0  0
  190.5060  176.7550  139.4020 C   0  0  0  0  0  2  0  0  0  0  0  0
  191.1320  176.7290  136.7480 O   0  0  0  0  0  0  0  0  0  0  0  0
  191.5350  174.4740  138.0110 O   0  0  0  0  0  1  0  0  0  0  0  0
  191.5920  176.1620  138.0730 P   0  0  2  0  0  0  0  0  0  0  0  0
  193.8660  176.7480  137.1910 O   0  0  0  0  0  1  0  0  0  0  0  0
  193.2380  176.6730  138.3880 N   0  0  0  0  0  2  0  0  0  0  0  0
  1  7  1  0  0  0  0
  2 12  1  0  0  0  0
  3  5  2  0  0  0  0
  3 12  1  0  0  0  0
  5  6  1  0  0  0  0
  6 14  2  0  0  0  0
  6  7  1  0  0  0  0
  7  4  2  0  0  0  0
  8  4  1  0  0  0  0
  9 16  2  0  0  0  0
 10  9  1  0  0  0  0
 10 15  2  0  0  0  0
 11  2  2  0  0  0  0
 12  1  2  0  0  0  0
 13  3  1  0  0  0  0
 14  8  1  0  0  0  0
 15 13  1  0  0  0  0
 15 11  1  0  0  0  0
 16 11  1  0  0  0  0
 17  5  1  0  0  0  0
 18 21  2  0  0  0  0
 18 20  1  0  0  0  0
 19 17  1  0  0  0  0
 20 19  2  0  0  0  0
 21 22  1  0  0  0  0
 22 17  2  0  0  0  0
 23 18  1  0  0  0  0
 24 23  1  0  0  0  0
 26 27  1  0  0  0  0
 27 25  2  6  0  0  0
 27 29  1  0  0  0  0
 27 24  1  0  0  0  0
 28 29  1  0  0  0  0
M  END
>  <MODEL>
1

>  <REMARK>
 VINA RESULT:      -9.3      0.000      0.000
  Name = 
  5 active torsions:
  status: ('A' for Active; 'I' for Inactive)
    1  A    between atoms: C_2  and  C_6
    2  A    between atoms: C_7  and  C_28
    3  A    between atoms: C_13  and  P_17
    4  A    between atoms: C_13  and  C_28
    5  A    between atoms: P_17  and  N_26
                            x       y       z     vdW  Elec       q    Type
                         _______ _______ _______ _____ _____    ______ ____

>  <TORSDO>
F 5

$$$$
=
 OpenBabel10222421083D

 29 33  0  0  1  0  0  0  0  0999 V2000
  188.5270  177.4740  147.2550 C   0  0  0  0  0  3  0  0  0  0  0  0
  186.2500  178.0940  146.8780 N   0  0  0  0  0  0  0  0  0  0  0  0
  187.7180  177.7800  144.9400 C   0  0  0  0  0  0  0  0  0  0  0  0
  191.0250  176.7980  147.4220 C   0  0  0  0  0  3  0  0  0  0  0  0
  189.0100  177.4610  144.4390 C   0  0  0  0  0  0  0  0  0  0  0  0
  190.0060  177.1750  145.3860 C   0  0  0  0  0  0  0  0  0  0  0  0
  189.7750  177.1790  146.7200 C   0  0  1  0  0  3  0  0  0  0  0  0
  192.0230  176.5610  146.3560 N   0  0  0  0  0  0  0  0  0  0  0  0
  183.4890  178.9440  145.0060 C   0  0  0  0  0  3  0  0  0  0  0  0
  184.3710  178.7520  143.9780 N   0  0  0  0  0  0  0  0  0  0  0  0
  185.2720  178.3970  145.9980 C   0  0  0  0  0  0  0  0  0  0  0  0
  187.4840  177.7830  146.3730 C   0  0  0  0  0  0  0  0  0  0  0  0
  186.6980  178.1070  144.0830 N   0  0  0  0  0  2  0  0  0  0  0  0
  191.3430  176.8000  145.1440 N   0  0  0  0  0  0  0  0  0  0  0  0
  185.4940  178.4070  144.6150 C   0  0  0  0  0  0  0  0  0  0  0  0
  184.0050  178.7370  146.2560 N   0  0  0  0  0  0  0  0  0  0  0  0
  189.3100  177.4250  142.9850 C   0  0  0  0  0  0  0  0  0  0  0  0
  189.8730  177.3420  140.2310 C   0  0  0  0  0  0  0  0  0  0  0  0
  190.1830  176.4570  142.4640 C   0  0  0  0  0  3  0  0  0  0  0  0
  190.4620  176.4140  141.0950 C   0  0  0  0  0  3  0  0  0  0  0  0
  188.9950  178.3040  140.7380 C   0  0  0  0  0  3  0  0  0  0  0  0
  188.7160  178.3450  142.1070 C   0  0  0  0  0  3  0  0  0  0  0  0
  190.1550  177.2850  138.7710 C   0  0  0  0  0  2  0  0  0  0  0  0
  188.9300  176.7950  138.0220 C   0  0  0  0  0  2  0  0  0  0  0  0
  188.6570  177.8300  135.5140 O   0  0  0  0  0  0  0  0  0  0  0  0
  188.9730  179.5940  137.4180 O   0  0  0  0  0  1  0  0  0  0  0  0
  188.2930  178.1180  136.9530 P   0  0  2  0  0  0  0  0  0  0  0  0
  186.2870  178.6670  138.3560 O   0  0  0  0  0  1  0  0  0  0  0  0
  186.5510  178.2100  137.1090 N   0  0  0  0  0  2  0  0  0  0  0  0
  3 12  1  0  0  0  0
  5  3  2  0  0  0  0
  5  6  1  0  0  0  0
  6  7  1  0  0  0  0
  7  1  1  6  0  0  0
  7  4  1  0  0  0  0
  8  4  2  0  0  0  0
  9 16  2  0  0  0  0
 10 15  2  0  0  0  0
 10  9  1  0  0  0  0
 11 16  1  0  0  0  0
 11  2  2  0  0  0  0
 12  2  1  0  0  0  0
 12  1  2  0  0  0  0
 13 15  1  0  0  0  0
 13  3  1  0  0  0  0
 14  6  2  0  0  0  0
 14  8  1  0  0  0  0
 15 11  1  0  0  0  0
 17  5  1  0  0  0  0
 18 21  2  0  0  0  0
 18 20  1  0  0  0  0
 19 17  1  0  0  0  0
 20 19  2  0  0  0  0
 21 22  1  0  0  0  0
 22 17  2  0  0  0  0
 23 18  1  0  0  0  0
 24 23  1  0  0  0  0
 27 25  2  6  0  0  0
 27 29  1  0  0  0  0
 27 26  1  0  0  0  0
 27 24  1  0  0  0  0
 29 28  1  0  0  0  0
M  END
>  <MODEL>
2

>  <REMARK>
 VINA RESULT:      -9.2      2.514      3.225
  Name = 
  5 active torsions:
  status: ('A' for Active; 'I' for Inactive)
    1  A    between atoms: C_2  and  C_6
    2  A    between atoms: C_7  and  C_28
    3  A    between atoms: C_13  and  P_17
    4  A    between atoms: C_13  and  C_28
    5  A    between atoms: P_17  and  N_26
                            x       y       z     vdW  Elec       q    Type
                         _______ _______ _______ _____ _____    ______ ____

>  <TORSDO>
F 5

$$$$
=
 OpenBabel10222421083D

 29 33  0  0  0  0  0  0  0  0999 V2000
  190.7080  177.0910  145.1010 C   0  0  0  0  0  3  0  0  0  0  0  0
  191.1550  177.0850  142.7540 N   0  0  0  0  0  0  0  0  0  0  0  0
  188.8690  177.5410  143.5140 C   0  0  0  0  0  0  0  0  0  0  0  0
  189.9930  177.1550  147.5940 C   0  0  0  0  0  3  0  0  0  0  0  0
  187.9600  177.6890  144.5970 C   0  0  0  0  0  0  0  0  0  0  0  0
  188.4790  177.5150  145.8900 C   0  0  0  0  0  0  0  0  0  0  0  0
  189.7820  177.2340  146.1270 C   0  0  0  0  0  0  0  0  0  0  0  0
  188.6720  177.4260  148.2010 N   0  0  0  0  0  2  0  0  0  0  0  0
  190.3950  177.3300  139.4060 C   0  0  0  0  0  3  0  0  0  0  0  0
  189.1460  177.5740  139.9090 N   0  0  0  0  0  0  0  0  0  0  0  0
  190.6880  177.2230  141.4950 C   0  0  0  0  0  0  0  0  0  0  0  0
  190.2630  177.2380  143.7820 C   0  0  0  0  0  0  0  0  0  0  0  0
  188.4360  177.6610  142.2170 N   0  0  0  0  0  2  0  0  0  0  0  0
  187.7970  177.6430  147.1160 N   0  0  0  0  0  0  0  0  0  0  0  0
  189.3420  177.5050  141.2290 C   0  0  0  0  0  0  0  0  0  0  0  0
  191.3630  177.1100  140.3470 N   0  0  0  0  0  0  0  0  0  0  0  0
  186.5260  178.0150  144.3900 C   0  0  0  0  0  0  0  0  0  0  0  0
  183.8130  178.6460  144.0040 C   0  0  0  0  0  0  0  0  0  0  0  0
  185.7350  178.4520  145.4650 C   0  0  0  0  0  3  0  0  0  0  0  0
  184.3870  178.7680  145.2730 C   0  0  0  0  0  3  0  0  0  0  0  0
  184.5940  178.2200  142.9250 C   0  0  0  0  0  3  0  0  0  0  0  0
  185.9420  177.9060  143.1180 C   0  0  0  0  0  3  0  0  0  0  0  0
  182.3820  178.9990  143.7960 C   0  0  0  0  0  2  0  0  0  0  0  0
  182.0440  178.9510  142.3180 C   0  0  0  0  0  2  0  0  0  0  0  0
  179.9590  179.3260  140.6000 O   0  0  0  0  0  0  0  0  0  0  0  0
  179.9300  180.8390  142.7330 O   0  0  0  0  0  1  0  0  0  0  0  0
  180.2820  179.3200  142.0780 P   0  0  2  0  0  0  0  0  0  0  0  0
  178.9360  178.6240  144.0770 O   0  0  0  0  0  1  0  0  0  0  0  0
  179.3120  178.1050  142.8840 N   0  0  0  0  0  2  0  0  0  0  0  0
  1  7  1  0  0  0  0
  2 12  1  0  0  0  0
  3 12  1  0  0  0  0
  3  5  2  0  0  0  0
  4  8  1  0  0  0  0
  5  6  1  0  0  0  0
  6  7  1  0  0  0  0
  6 14  2  0  0  0  0
  7  4  2  0  0  0  0
  9 10  1  0  0  0  0
  9 16  2  0  0  0  0
 10 15  2  0  0  0  0
 11  2  2  0  0  0  0
 12  1  2  0  0  0  0
 13  3  1  0  0  0  0
 14  8  1  0  0  0  0
 15 11  1  0  0  0  0
 15 13  1  0  0  0  0
 16 11  1  0  0  0  0
 17  5  1  0  0  0  0
 17 19  1  0  0  0  0
 18 20  1  0  0  0  0
 20 19  2  0  0  0  0
 21 22  1  0  0  0  0
 21 18  2  0  0  0  0
 22 17  2  0  0  0  0
 23 18  1  0  0  0  0
 24 23  1  0  0  0  0
 27 25  2  6  0  0  0
 27 24  1  0  0  0  0
 27 26  1  0  0  0  0
 27 29  1  0  0  0  0
 29 28  1  0  0  0  0
M  END
>  <MODEL>
3

>  <REMARK>
 VINA RESULT:      -9.1      5.204      7.848
  Name = 
  5 active torsions:
  status: ('A' for Active; 'I' for Inactive)
    1  A    between atoms: C_2  and  C_6
    2  A    between atoms: C_7  and  C_28
    3  A    between atoms: C_13  and  P_17
    4  A    between atoms: C_13  and  C_28
    5  A    between atoms: P_17  and  N_26
                            x       y       z     vdW  Elec       q    Type
                         _______ _______ _______ _____ _____    ______ ____

>  <TORSDO>
F 5

$$$$
=
 OpenBabel10222421083D

 29 33  0  0  0  0  0  0  0  0999 V2000
  185.7050  178.5700  146.9820 C   0  0  0  0  0  3  0  0  0  0  0  0
  183.7640  178.8570  145.6190 N   0  0  0  0  0  0  0  0  0  0  0  0
  185.8730  178.2210  144.5420 C   0  0  0  0  0  0  0  0  0  0  0  0
  187.9320  178.1980  148.2590 C   0  0  0  0  0  3  0  0  0  0  0  0
  187.2550  177.9150  144.6730 C   0  0  0  0  0  0  0  0  0  0  0  0
  187.7970  177.9660  145.9670 C   0  0  0  0  0  0  0  0  0  0  0  0
  187.0610  178.2740  147.0610 C   0  0  0  0  0  0  0  0  0  0  0  0
  189.2660  177.8040  147.7560 N   0  0  0  0  0  2  0  0  0  0  0  0
  181.9670  178.9540  142.6850 C   0  0  0  0  0  3  0  0  0  0  0  0
  183.1800  178.6030  142.1600 N   0  0  0  0  0  0  0  0  0  0  0  0
  183.2120  178.8410  144.3870 C   0  0  0  0  0  0  0  0  0  0  0  0
  185.0950  178.5520  145.7220 C   0  0  0  0  0  0  0  0  0  0  0  0
  185.2730  178.2290  143.3080 N   0  0  0  0  0  2  0  0  0  0  0  0
  189.1180  177.6730  146.3600 N   0  0  0  0  0  0  0  0  0  0  0  0
  183.9600  178.5330  143.2420 C   0  0  0  0  0  0  0  0  0  0  0  0
  181.9490  179.1100  144.0430 N   0  0  0  0  0  0  0  0  0  0  0  0
  188.1010  177.5540  143.5070 C   0  0  0  0  0  0  0  0  0  0  0  0
  189.6960  176.8550  141.2990 C   0  0  0  0  0  0  0  0  0  0  0  0
  188.8840  176.3880  143.5320 C   0  0  0  0  0  3  0  0  0  0  0  0
  189.6750  176.0390  142.4340 C   0  0  0  0  0  3  0  0  0  0  0  0
  188.9140  178.0130  141.2600 C   0  0  0  0  0  3  0  0  0  0  0  0
  188.1210  178.3590  142.3580 C   0  0  0  0  0  3  0  0  0  0  0  0
  190.5250  176.4750  140.1230 C   0  0  0  0  0  2  0  0  0  0  0  0
  190.6130  177.6360  139.1500 C   0  0  0  0  0  2  0  0  0  0  0  0
  188.6590  176.2120  137.8890 O   0  0  0  0  0  1  0  0  0  0  0  0
  190.8620  176.5370  136.5180 O   0  0  0  0  0  0  0  0  0  0  0  0
  189.7580  177.2120  137.6050 P   0  0  2  0  0  0  0  0  0  0  0  0
  188.9840  179.5810  137.8900 O   0  0  0  0  0  1  0  0  0  0  0  0
  189.0650  178.6590  136.9020 N   0  0  0  0  0  2  0  0  0  0  0  0
  1  7  1  0  0  0  0
  2 12  1  0  0  0  0
  3  5  2  0  0  0  0
  3 12  1  0  0  0  0
  5  6  1  0  0  0  0
  6 14  2  0  0  0  0
  6  7  1  0  0  0  0
  7  4  2  0  0  0  0
  8  4  1  0  0  0  0
  9 16  2  0  0  0  0
 10  9  1  0  0  0  0
 10 15  2  0  0  0  0
 11  2  2  0  0  0  0
 12  1  2  0  0  0  0
 13  3  1  0  0  0  0
 14  8  1  0  0  0  0
 15 13  1  0  0  0  0
 15 11  1  0  0  0  0
 16 11  1  0  0  0  0
 17 19  1  0  0  0  0
 17  5  1  0  0  0  0
 18 20  1  0  0  0  0
 20 19  2  0  0  0  0
 21 18  2  0  0  0  0
 21 22  1  0  0  0  0
 22 17  2  0  0  0  0
 23 18  1  0  0  0  0
 24 23  1  0  0  0  0
 27 26  2  6  0  0  0
 27 25  1  0  0  0  0
 27 24  1  0  0  0  0
 29 27  1  0  0  0  0
 29 28  1  0  0  0  0
M  END
>  <MODEL>
4

>  <REMARK>
 VINA RESULT:      -9.1      1.473      1.885
  Name = 
  5 active torsions:
  status: ('A' for Active; 'I' for Inactive)
    1  A    between atoms: C_2  and  C_6
    2  A    between atoms: C_7  and  C_28
    3  A    between atoms: C_13  and  P_17
    4  A    between atoms: C_13  and  C_28
    5  A    between atoms: P_17  and  N_26
                            x       y       z     vdW  Elec       q    Type
                         _______ _______ _______ _____ _____    ______ ____

>  <TORSDO>
F 5

$$$$
=
 OpenBabel10222421083D

 29 33  0  0  1  0  0  0  0  0999 V2000
  188.9700  177.1280  147.6320 C   0  0  0  0  0  3  0  0  0  0  0  0
  186.7380  177.8810  147.2340 N   0  0  0  0  0  0  0  0  0  0  0  0
  188.2280  177.5570  145.3140 C   0  0  0  0  0  0  0  0  0  0  0  0
  191.4250  176.3120  147.8210 C   0  0  0  0  0  3  0  0  0  0  0  0
  189.5100  177.1870  144.8260 C   0  0  0  0  0  0  0  0  0  0  0  0
  190.4700  176.8150  145.7820 C   0  0  0  0  0  0  0  0  0  0  0  0
  190.2110  176.7840  147.1100 C   0  0  1  0  0  3  0  0  0  0  0  0
  192.4310  176.0600  146.7670 N   0  0  0  0  0  0  0  0  0  0  0  0
  184.0660  178.9430  145.3420 C   0  0  0  0  0  3  0  0  0  0  0  0
  184.9580  178.7410  144.3250 N   0  0  0  0  0  0  0  0  0  0  0  0
  185.7950  178.2670  146.3470 C   0  0  0  0  0  0  0  0  0  0  0  0
  187.9640  177.5230  146.7410 C   0  0  0  0  0  0  0  0  0  0  0  0
  187.2440  177.9680  144.4500 N   0  0  0  0  0  2  0  0  0  0  0  0
  191.7900  176.3770  145.5510 N   0  0  0  0  0  0  0  0  0  0  0  0
  186.0470  178.3130  144.9700 C   0  0  0  0  0  0  0  0  0  0  0  0
  184.5430  178.6650  146.5930 N   0  0  0  0  0  0  0  0  0  0  0  0
  189.8390  177.1860  143.3780 C   0  0  0  0  0  0  0  0  0  0  0  0
  190.4720  177.1740  140.6390 C   0  0  0  0  0  0  0  0  0  0  0  0
  191.1040  177.6060  142.9360 C   0  0  0  0  0  3  0  0  0  0  0  0
  191.4200  177.5990  141.5750 C   0  0  0  0  0  3  0  0  0  0  0  0
  189.2130  176.7460  141.0680 C   0  0  0  0  0  3  0  0  0  0  0  0
  188.8990  176.7530  142.4300 C   0  0  0  0  0  3  0  0  0  0  0  0
  190.8150  177.1490  139.1900 C   0  0  0  0  0  2  0  0  0  0  0  0
  189.8400  176.2620  138.4390 C   0  0  0  0  0  2  0  0  0  0  0  0
  187.2900  176.6670  137.5600 O   0  0  0  0  0  1  0  0  0  0  0  0
  189.1710  177.3920  135.8940 O   0  0  0  0  0  0  0  0  0  0  0  0
  188.6680  177.2880  137.5050 P   0  0  2  0  0  0  0  0  0  0  0  0
  189.0550  179.7530  137.2470 O   0  0  0  0  0  1  0  0  0  0  0  0
  188.6140  178.8960  138.1970 N   0  0  0  0  0  2  0  0  0  0  0  0
  3 12  1  0  0  0  0
  5  3  2  0  0  0  0
  5  6  1  0  0  0  0
  6  7  1  0  0  0  0
  7  1  1  6  0  0  0
  7  4  1  0  0  0  0
  8  4  2  0  0  0  0
  9 16  2  0  0  0  0
 10 15  2  0  0  0  0
 10  9  1  0  0  0  0
 11 16  1  0  0  0  0
 11  2  2  0  0  0  0
 12  2  1  0  0  0  0
 12  1  2  0  0  0  0
 13 15  1  0  0  0  0
 13  3  1  0  0  0  0
 14  6  2  0  0  0  0
 14  8  1  0  0  0  0
 15 11  1  0  0  0  0
 17  5  1  0  0  0  0
 18 21  2  0  0  0  0
 18 20  1  0  0  0  0
 19 17  1  0  0  0  0
 20 19  2  0  0  0  0
 21 22  1  0  0  0  0
 22 17  2  0  0  0  0
 23 18  1  0  0  0  0
 24 23  1  0  0  0  0
 27 26  2  6  0  0  0
 27 25  1  0  0  0  0
 27 29  1  0  0  0  0
 27 24  1  0  0  0  0
 28 29  1  0  0  0  0
M  END
>  <MODEL>
5

>  <REMARK>
 VINA RESULT:      -8.9      2.272      2.973
  Name = 
  5 active torsions:
  status: ('A' for Active; 'I' for Inactive)
    1  A    between atoms: C_2  and  C_6
    2  A    between atoms: C_7  and  C_28
    3  A    between atoms: C_13  and  P_17
    4  A    between atoms: C_13  and  C_28
    5  A    between atoms: P_17  and  N_26
                            x       y       z     vdW  Elec       q    Type
                         _______ _______ _______ _____ _____    ______ ____

>  <TORSDO>
F 5

$$$$
=
 OpenBabel10222421083D

 29 33  0  0  1  0  0  0  0  0999 V2000
  188.5530  177.4770  147.1900 C   0  0  0  0  0  3  0  0  0  0  0  0
  186.2870  178.1340  146.8100 N   0  0  0  0  0  0  0  0  0  0  0  0
  187.7410  177.7550  144.8730 C   0  0  0  0  0  0  0  0  0  0  0  0
  191.0380  176.7540  147.3610 C   0  0  0  0  0  3  0  0  0  0  0  0
  189.0240  177.4020  144.3730 C   0  0  0  0  0  0  0  0  0  0  0  0
  190.0190  177.1130  145.3220 C   0  0  0  0  0  0  0  0  0  0  0  0
  189.7920  177.1460  146.6560 C   0  0  1  0  0  3  0  0  0  0  0  0
  192.0260  176.4780  146.2960 N   0  0  0  0  0  0  0  0  0  0  0  0
  183.5360  179.0030  144.9320 C   0  0  0  0  0  3  0  0  0  0  0  0
  184.4100  178.7750  143.9050 N   0  0  0  0  0  0  0  0  0  0  0  0
  185.3110  178.4400  145.9280 C   0  0  0  0  0  0  0  0  0  0  0  0
  187.5130  177.7900  146.3060 C   0  0  0  0  0  0  0  0  0  0  0  0
  186.7240  178.0860  144.0130 N   0  0  0  0  0  2  0  0  0  0  0  0
  191.3470  176.7070  145.0820 N   0  0  0  0  0  0  0  0  0  0  0  0
  185.5290  178.4190  144.5440 C   0  0  0  0  0  0  0  0  0  0  0  0
  184.0530  178.8090  146.1840 N   0  0  0  0  0  0  0  0  0  0  0  0
  189.3180  177.3330  142.9190 C   0  0  0  0  0  0  0  0  0  0  0  0
  189.8780  177.2180  140.1660 C   0  0  0  0  0  0  0  0  0  0  0  0
  188.6490  178.1780  142.0180 C   0  0  0  0  0  3  0  0  0  0  0  0
  188.9280  178.1220  140.6500 C   0  0  0  0  0  3  0  0  0  0  0  0
  190.5560  176.3780  141.0540 C   0  0  0  0  0  3  0  0  0  0  0  0
  190.2760  176.4360  142.4220 C   0  0  0  0  0  3  0  0  0  0  0  0
  190.1880  177.1710  138.7110 C   0  0  0  0  0  2  0  0  0  0  0  0
  191.6600  176.8670  138.5020 C   0  0  0  0  0  2  0  0  0  0  0  0
  191.7650  175.7960  135.9960 O   0  0  0  0  0  0  0  0  0  0  0  0
  190.5990  174.3010  137.7990 O   0  0  0  0  0  1  0  0  0  0  0  0
  191.8410  175.3950  137.4530 P   0  0  2  0  0  0  0  0  0  0  0  0
  194.3030  175.6250  137.8730 O   0  0  0  0  0  1  0  0  0  0  0  0
  193.3860  174.6340  137.7710 N   0  0  0  0  0  2  0  0  0  0  0  0
  3 12  1  0  0  0  0
  5  3  2  0  0  0  0
  5  6  1  0  0  0  0
  6  7  1  0  0  0  0
  7  1  1  6  0  0  0
  7  4  1  0  0  0  0
  8  4  2  0  0  0  0
  9 16  2  0  0  0  0
 10 15  2  0  0  0  0
 10  9  1  0  0  0  0
 11 16  1  0  0  0  0
 11  2  2  0  0  0  0
 12  2  1  0  0  0  0
 12  1  2  0  0  0  0
 13 15  1  0  0  0  0
 13  3  1  0  0  0  0
 14  6  2  0  0  0  0
 14  8  1  0  0  0  0
 15 11  1  0  0  0  0
 17  5  1  0  0  0  0
 18 20  2  0  0  0  0
 18 21  1  0  0  0  0
 19 17  2  0  0  0  0
 20 19  1  0  0  0  0
 21 22  2  0  0  0  0
 22 17  1  0  0  0  0
 23 18  1  0  0  0  0
 24 23  1  0  0  0  0
 27 25  2  6  0  0  0
 27 29  1  0  0  0  0
 27 26  1  0  0  0  0
 27 24  1  0  0  0  0
 29 28  1  0  0  0  0
M  END
>  <MODEL>
6

>  <REMARK>
 VINA RESULT:      -8.7      1.581      2.134
  Name = 
  5 active torsions:
  status: ('A' for Active; 'I' for Inactive)
    1  A    between atoms: C_2  and  C_6
    2  A    between atoms: C_7  and  C_28
    3  A    between atoms: C_13  and  P_17
    4  A    between atoms: C_13  and  C_28
    5  A    between atoms: P_17  and  N_26
                            x       y       z     vdW  Elec       q    Type
                         _______ _______ _______ _____ _____    ______ ____

>  <TORSDO>
F 5

$$$$
=
 OpenBabel10222421083D

 29 33  0  0  0  0  0  0  0  0999 V2000
  183.6450  178.8580  140.8080 C   0  0  0  0  0  3  0  0  0  0  0  0
  185.6210  178.7230  139.4700 N   0  0  0  0  0  0  0  0  0  0  0  0
  185.8230  178.4360  141.8970 C   0  0  0  0  0  0  0  0  0  0  0  0
  181.6430  178.9580  142.4530 C   0  0  0  0  0  3  0  0  0  0  0  0
  185.1880  178.3940  143.1680 C   0  0  0  0  0  0  0  0  0  0  0  0
  183.8000  178.6020  143.1920 C   0  0  0  0  0  0  0  0  0  0  0  0
  183.0700  178.8190  142.0720 C   0  0  0  0  0  0  0  0  0  0  0  0
  181.6060  178.7930  143.9220 N   0  0  0  0  0  2  0  0  0  0  0  0
  188.9880  178.3570  138.8600 C   0  0  0  0  0  3  0  0  0  0  0  0
  189.0180  178.2100  140.2200 N   0  0  0  0  0  0  0  0  0  0  0  0
  186.9580  178.5500  139.4090 C   0  0  0  0  0  0  0  0  0  0  0  0
  185.0300  178.6720  140.7040 C   0  0  0  0  0  0  0  0  0  0  0  0
  187.1820  178.2780  141.7890 N   0  0  0  0  0  2  0  0  0  0  0  0
  182.9440  178.5740  144.3110 N   0  0  0  0  0  0  0  0  0  0  0  0
  187.7310  178.3330  140.5570 C   0  0  0  0  0  0  0  0  0  0  0  0
  187.7460  178.5680  138.3300 N   0  0  0  0  0  0  0  0  0  0  0  0
  185.9410  178.1410  144.4220 C   0  0  0  0  0  0  0  0  0  0  0  0
  187.3810  177.6650  146.7900 C   0  0  0  0  0  0  0  0  0  0  0  0
  186.9140  177.1300  144.4750 C   0  0  0  0  0  3  0  0  0  0  0  0
  187.6310  176.8930  145.6510 C   0  0  0  0  0  3  0  0  0  0  0  0
  186.4210  178.6790  146.7470 C   0  0  0  0  0  3  0  0  0  0  0  0
  185.7060  178.9150  145.5690 C   0  0  0  0  0  3  0  0  0  0  0  0
  188.1570  177.4250  148.0380 C   0  0  0  0  0  2  0  0  0  0  0  0
  189.4880  178.1500  147.9700 C   0  0  0  0  0  2  0  0  0  0  0  0
  190.2810  175.5940  147.4480 O   0  0  0  0  0  0  0  0  0  0  0  0
  192.1670  177.1930  148.3000 O   0  0  0  0  0  1  0  0  0  0  0  0
  190.7730  177.0210  147.3590 P   0  0  2  0  0  0  0  0  0  0  0  0
  191.5510  176.2590  145.1000 O   0  0  0  0  0  1  0  0  0  0  0  0
  191.1500  177.4080  145.6930 N   0  0  0  0  0  2  0  0  0  0  0  0
  1  7  1  0  0  0  0
  2 12  1  0  0  0  0
  3  5  2  0  0  0  0
  4  8  1  0  0  0  0
  5  6  1  0  0  0  0
  5 17  1  0  0  0  0
  6 14  2  0  0  0  0
  7  4  2  0  0  0  0
  7  6  1  0  0  0  0
  8 14  1  0  0  0  0
  9 10  1  0  0  0  0
 10 15  2  0  0  0  0
 11  2  2  0  0  0  0
 11 15  1  0  0  0  0
 12  1  2  0  0  0  0
 12  3  1  0  0  0  0
 13  3  1  0  0  0  0
 15 13  1  0  0  0  0
 16  9  2  0  0  0  0
 16 11  1  0  0  0  0
 17 19  2  0  0  0  0
 17 22  1  0  0  0  0
 18 23  1  0  0  0  0
 19 20  1  0  0  0  0
 20 18  2  0  0  0  0
 21 18  1  0  0  0  0
 22 21  2  0  0  0  0
 24 23  1  0  0  0  0
 27 25  2  1  0  0  0
 27 24  1  0  0  0  0
 27 26  1  0  0  0  0
 28 29  1  0  0  0  0
 29 27  1  0  0  0  0
M  END
>  <MODEL>
7

>  <REMARK>
 VINA RESULT:      -8.6      4.091      6.835
  Name = 
  5 active torsions:
  status: ('A' for Active; 'I' for Inactive)
    1  A    between atoms: C_2  and  C_6
    2  A    between atoms: C_7  and  C_28
    3  A    between atoms: C_13  and  P_17
    4  A    between atoms: C_13  and  C_28
    5  A    between atoms: P_17  and  N_26
                            x       y       z     vdW  Elec       q    Type
                         _______ _______ _______ _____ _____    ______ ____

>  <TORSDO>
F 5

$$$$
=
 OpenBabel10222421083D

 29 33  0  0  1  0  0  0  0  0999 V2000
  190.4220  177.5170  141.6930 C   0  0  0  0  0  3  0  0  0  0  0  0
  191.1570  177.0710  143.9220 N   0  0  0  0  0  0  0  0  0  0  0  0
  188.8010  177.6390  143.5540 C   0  0  0  0  0  0  0  0  0  0  0  0
  189.4010  178.0310  139.3650 C   0  0  0  0  0  3  0  0  0  0  0  0
  187.7680  177.9880  142.6410 C   0  0  0  0  0  0  0  0  0  0  0  0
  188.1260  178.0960  141.2870 C   0  0  0  0  0  0  0  0  0  0  0  0
  189.3830  177.8690  140.8400 C   0  0  0  0  0  0  0  0  0  0  0  0
  188.0120  178.3730  138.9870 N   0  0  0  0  0  0  0  0  0  0  0  0
  190.8400  176.7510  147.3350 C   0  0  0  0  0  3  0  0  0  0  0  0
  189.5430  177.0770  147.0470 N   0  0  0  0  0  0  0  0  0  0  0  0
  190.8560  176.9800  145.2350 C   0  0  0  0  0  0  0  0  0  0  0  0
  190.1450  177.4020  143.0610 C   0  0  1  0  0  3  0  0  0  0  0  0
  188.5430  177.5470  144.8980 N   0  0  0  0  0  2  0  0  0  0  0  0
  187.2860  178.3900  140.1950 N   0  0  0  0  0  0  0  0  0  0  0  0
  189.5630  177.2190  145.7190 C   0  0  0  0  0  0  0  0  0  0  0  0
  191.6720  176.6840  146.2520 N   0  0  0  0  0  0  0  0  0  0  0  0
  186.3700  178.2280  143.0800 C   0  0  0  0  0  0  0  0  0  0  0  0
  183.7170  178.6700  143.9010 C   0  0  0  0  0  0  0  0  0  0  0  0
  185.3510  178.4180  142.1320 C   0  0  0  0  0  3  0  0  0  0  0  0
  184.0320  178.6360  142.5400 C   0  0  0  0  0  3  0  0  0  0  0  0
  184.7210  178.4730  144.8530 C   0  0  0  0  0  3  0  0  0  0  0  0
  186.0400  178.2540  144.4440 C   0  0  0  0  0  3  0  0  0  0  0  0
  182.3090  178.8840  144.3360 C   0  0  0  0  0  2  0  0  0  0  0  0
  181.4610  179.3210  143.1560 C   0  0  0  0  0  2  0  0  0  0  0  0
  178.9680  179.9330  144.0760 O   0  0  0  0  0  0  0  0  0  0  0  0
  179.6990  177.4440  144.4090 O   0  0  0  0  0  1  0  0  0  0  0  0
  179.7370  178.8110  143.4150 P   0  0  2  0  0  0  0  0  0  0  0  0
  179.0940  177.0840  141.7130 O   0  0  0  0  0  1  0  0  0  0  0  0
  179.0020  178.4250  141.8730 N   0  0  0  0  0  2  0  0  0  0  0  0
  2 11  2  0  0  0  0
  3 13  1  0  0  0  0
  4  7  1  0  0  0  0
  5 17  1  0  0  0  0
  5  3  2  0  0  0  0
  6  5  1  0  0  0  0
  7  6  1  0  0  0  0
  7  1  2  0  0  0  0
  8  4  2  0  0  0  0
  8 14  1  0  0  0  0
 10  9  1  0  0  0  0
 11 15  1  0  0  0  0
 11 16  1  0  0  0  0
 12  1  1  1  0  0  0
 12  3  1  0  0  0  0
 12  2  1  0  0  0  0
 13 15  1  0  0  0  0
 14  6  2  0  0  0  0
 15 10  2  0  0  0  0
 16  9  2  0  0  0  0
 17 22  1  0  0  0  0
 18 23  1  0  0  0  0
 18 21  1  0  0  0  0
 19 20  1  0  0  0  0
 19 17  2  0  0  0  0
 20 18  2  0  0  0  0
 22 21  2  0  0  0  0
 24 27  1  0  0  0  0
 24 23  1  0  0  0  0
 27 25  2  1  0  0  0
 27 26  1  0  0  0  0
 28 29  1  0  0  0  0
 29 27  1  0  0  0  0
M  END
>  <MODEL>
8

>  <REMARK>
 VINA RESULT:      -8.5      5.606      8.718
  Name = 
  5 active torsions:
  status: ('A' for Active; 'I' for Inactive)
    1  A    between atoms: C_2  and  C_6
    2  A    between atoms: C_7  and  C_28
    3  A    between atoms: C_13  and  P_17
    4  A    between atoms: C_13  and  C_28
    5  A    between atoms: P_17  and  N_26
                            x       y       z     vdW  Elec       q    Type
                         _______ _______ _______ _____ _____    ______ ____

>  <TORSDO>
F 5

$$$$
=
 OpenBabel10222421083D

 29 33  0  0  1  0  0  0  0  0999 V2000
  184.3730  178.6230  145.7930 C   0  0  0  0  0  3  0  0  0  0  0  0
  186.1640  178.3300  147.3470 N   0  0  0  0  0  0  0  0  0  0  0  0
  186.6510  178.1680  144.9500 C   0  0  0  0  0  0  0  0  0  0  0  0
  182.5940  178.9120  143.9280 C   0  0  0  0  0  3  0  0  0  0  0  0
  186.1740  178.2150  143.6120 C   0  0  0  0  0  0  0  0  0  0  0  0
  184.8010  178.4540  143.4350 C   0  0  0  0  0  0  0  0  0  0  0  0
  183.9500  178.6500  144.4690 C   0  0  0  0  0  0  0  0  0  0  0  0
  182.7360  178.8560  142.4570 N   0  0  0  0  0  0  0  0  0  0  0  0
  189.4010  177.7050  148.3370 C   0  0  0  0  0  3  0  0  0  0  0  0
  189.5910  177.6280  146.9840 N   0  0  0  0  0  0  0  0  0  0  0  0
  187.4740  178.0800  147.5590 C   0  0  0  0  0  0  0  0  0  0  0  0
  185.7280  178.3770  146.0510 C   0  0  1  0  0  3  0  0  0  0  0  0
  187.9720  177.9050  145.2110 N   0  0  0  0  0  2  0  0  0  0  0  0
  184.0990  178.5810  142.2200 N   0  0  0  0  0  0  0  0  0  0  0  0
  188.3680  177.8660  146.5010 C   0  0  0  0  0  0  0  0  0  0  0  0
  188.1190  177.9790  148.7250 N   0  0  0  0  0  0  0  0  0  0  0  0
  187.0700  178.0250  142.4430 C   0  0  0  0  0  0  0  0  0  0  0  0
  188.7640  177.6500  140.2300 C   0  0  0  0  0  0  0  0  0  0  0  0
  188.2190  177.2250  142.5510 C   0  0  0  0  0  3  0  0  0  0  0  0
  189.0600  177.0370  141.4510 C   0  0  0  0  0  3  0  0  0  0  0  0
  187.6190  178.4410  140.1090 C   0  0  0  0  0  3  0  0  0  0  0  0
  186.7770  178.6280  141.2100 C   0  0  0  0  0  3  0  0  0  0  0  0
  189.6500  177.4350  139.0540 C   0  0  0  0  0  2  0  0  0  0  0  0
  190.9560  176.8000  139.4950 C   0  0  0  0  0  2  0  0  0  0  0  0
  191.3070  176.7790  136.7900 O   0  0  0  0  0  0  0  0  0  0  0  0
  191.5850  174.4610  137.9680 O   0  0  0  0  0  1  0  0  0  0  0  0
  191.8330  176.1310  138.0520 P   0  0  2  0  0  0  0  0  0  0  0  0
  193.7300  177.0750  139.3940 O   0  0  0  0  0  1  0  0  0  0  0  0
  193.5470  176.4540  138.2050 N   0  0  0  0  0  2  0  0  0  0  0  0
  2 11  2  0  0  0  0
  3 13  1  0  0  0  0
  3 12  1  0  0  0  0
  4  7  1  0  0  0  0
  5  3  2  0  0  0  0
  6  5  1  0  0  0  0
  6  7  1  0  0  0  0
  7  1  2  0  0  0  0
  8  4  2  0  0  0  0
  9 16  2  0  0  0  0
 10  9  1  0  0  0  0
 11 16  1  0  0  0  0
 12  1  1  1  0  0  0
 12  2  1  0  0  0  0
 13 15  1  0  0  0  0
 14  8  1  0  0  0  0
 14  6  2  0  0  0  0
 15 10  2  0  0  0  0
 15 11  1  0  0  0  0
 17 19  1  0  0  0  0
 17  5  1  0  0  0  0
 18 20  1  0  0  0  0
 20 19  2  0  0  0  0
 21 18  2  0  0  0  0
 21 22  1  0  0  0  0
 22 17  2  0  0  0  0
 23 24  1  0  0  0  0
 23 18  1  0  0  0  0
 26 27  1  0  0  0  0
 27 25  2  6  0  0  0
 27 29  1  0  0  0  0
 27 24  1  0  0  0  0
 29 28  1  0  0  0  0
M  END
>  <MODEL>
9

>  <REMARK>
 VINA RESULT:      -8.5      1.480      4.347
  Name = 
  5 active torsions:
  status: ('A' for Active; 'I' for Inactive)
    1  A    between atoms: C_2  and  C_6
    2  A    between atoms: C_7  and  C_28
    3  A    between atoms: C_13  and  P_17
    4  A    between atoms: C_13  and  C_28
    5  A    between atoms: P_17  and  N_26
                            x       y       z     vdW  Elec       q    Type
                         _______ _______ _______ _____ _____    ______ ____

>  <TORSDO>
F 5

$$$$
