=
 OpenBabel10222418263D

 26 29  0  0  0  0  0  0  0  0999 V2000
  185.6580  178.2550  146.3800 C   0  0  0  0  0  3  0  0  0  0  0  0
  188.4700  177.3120  146.2880 O   0  0  0  0  0  0  0  0  0  0  0  0
  189.6400  176.9130  145.8260 C   0  0  0  0  0  0  0  0  0  0  0  0
  187.7120  177.5480  145.2500 C   0  0  0  0  0  0  0  0  0  0  0  0
  188.3990  177.2970  144.0970 C   0  0  0  0  0  0  0  0  0  0  0  0
  187.7990  177.4750  142.8500 C   0  0  0  0  0  0  0  0  0  0  0  0
  184.4690  178.6070  143.8830 C   0  0  0  0  0  3  0  0  0  0  0  0
  183.7680  178.8630  145.0670 C   0  0  0  0  0  0  0  0  0  0  0  0
  184.3700  178.6840  146.2760 N   0  0  0  0  0  0  0  0  0  0  0  0
  186.3920  177.9880  145.2240 C   0  0  0  0  0  0  0  0  0  0  0  0
  185.7900  178.1660  143.9560 C   0  0  0  0  0  0  0  0  0  0  0  0
  182.4840  179.2910  145.0100 F   0  0  0  0  0  0  0  0  0  0  0  0
  186.5000  177.9080  142.8130 N   0  0  0  0  0  0  0  0  0  0  0  0
  189.6710  176.8780  144.4320 C   0  0  0  0  0  3  0  0  0  0  0  0
  190.7440  176.5600  146.6720 C   0  0  0  0  0  0  0  0  0  0  0  0
  192.7950  175.9040  148.2480 C   0  0  0  0  0  1  0  0  0  0  0  0
  191.6700  176.2640  147.3850 C   0  0  0  0  0  0  0  0  0  0  0  0
  188.5120  177.2170  141.6770 O   0  0  0  0  0  0  0  0  0  0  0  0
  188.7390  178.2130  140.6880 C   0  0  0  0  0  2  0  0  0  0  0  0
  188.6000  177.6130  139.2990 C   0  0  0  0  0  2  0  0  0  0  0  0
  186.7730  178.0320  137.8160 C   0  0  0  0  0  2  0  0  0  0  0  0
  187.8710  177.5410  135.7340 O   0  0  0  0  0  0  0  0  0  0  0  0
  189.1210  177.8070  136.3160 C   0  0  0  0  0  2  0  0  0  0  0  0
  188.0050  178.5900  138.3950 N   0  0  0  0  0  0  0  0  0  0  0  0
  187.0800  176.9740  136.7460 C   0  0  0  0  0  2  0  0  0  0  0  0
  188.9810  178.9320  137.3500 C   0  0  0  0  0  2  0  0  0  0  0  0
  3  2  1  0  0  0  0
  3 15  1  0  0  0  0
  4  2  1  0  0  0  0
  5 14  1  0  0  0  0
  5  4  2  0  0  0  0
  6  5  1  0  0  0  0
  7 11  2  0  0  0  0
  7  8  1  0  0  0  0
  8  9  2  0  0  0  0
  9  1  1  0  0  0  0
 10  4  1  0  0  0  0
 10  1  2  0  0  0  0
 11 10  1  0  0  0  0
 12  8  1  0  0  0  0
 13  6  2  0  0  0  0
 13 11  1  0  0  0  0
 14  3  2  0  0  0  0
 15 17  3  0  0  0  0
 17 16  1  0  0  0  0
 18  6  1  0  0  0  0
 19 18  1  0  0  0  0
 20 19  1  0  0  0  0
 21 24  1  0  0  0  0
 22 23  1  0  0  0  0
 22 25  1  0  0  0  0
 23 26  1  0  0  0  0
 24 20  1  0  0  0  0
 25 21  1  0  0  0  0
 26 24  1  0  0  0  0
M  END
>  <MODEL>
1

>  <REMARK>
 VINA RESULT:      -9.2      0.000      0.000
  Name = 
  5 active torsions:
  status: ('A' for Active; 'I' for Inactive)
    1  A    between atoms: C_2  and  C_6
    2  A    between atoms: C_2  and  N_8
    3  A    between atoms: C_6  and  O_17
    4  A    between atoms: C_9  and  C_13
    5  A    between atoms: C_14  and  O_17
                            x       y       z     vdW  Elec       q    Type
                         _______ _______ _______ _____ _____    ______ ____

>  <TORSDO>
F 5

$$$$
=
 OpenBabel10222418263D

 26 29  0  0  0  0  0  0  0  0999 V2000
  189.2920  177.2030  146.9580 C   0  0  0  0  0  3  0  0  0  0  0  0
  187.1010  177.7670  145.0390 O   0  0  0  0  0  0  0  0  0  0  0  0
  186.4350  177.9060  143.9080 C   0  0  0  0  0  0  0  0  0  0  0  0
  188.3080  177.3770  144.7230 C   0  0  0  0  0  0  0  0  0  0  0  0
  188.4270  177.2630  143.3670 C   0  0  0  0  0  0  0  0  0  0  0  0
  189.6290  176.8590  142.7840 C   0  0  0  0  0  0  0  0  0  0  0  0
  191.6880  176.3980  145.7810 C   0  0  0  0  0  3  0  0  0  0  0  0
  191.5610  176.5170  147.1700 C   0  0  0  0  0  0  0  0  0  0  0  0
  190.3800  176.9120  147.7220 N   0  0  0  0  0  0  0  0  0  0  0  0
  189.3760  177.0980  145.5700 C   0  0  0  0  0  0  0  0  0  0  0  0
  190.5920  176.6900  144.9710 C   0  0  0  0  0  0  0  0  0  0  0  0
  192.6200  176.2380  147.9680 F   0  0  0  0  0  0  0  0  0  0  0  0
  190.6870  176.5820  143.6080 N   0  0  0  0  0  0  0  0  0  0  0  0
  187.2180  177.6020  142.7950 C   0  0  0  0  0  3  0  0  0  0  0  0
  185.0630  178.3240  143.8470 C   0  0  0  0  0  0  0  0  0  0  0  0
  182.5110  179.0980  143.7340 C   0  0  0  0  0  1  0  0  0  0  0  0
  183.9100  178.6730  143.7960 C   0  0  0  0  0  0  0  0  0  0  0  0
  189.7390  176.7440  141.3960 O   0  0  0  0  0  0  0  0  0  0  0  0
  190.9120  177.1300  140.6900 C   0  0  0  0  0  2  0  0  0  0  0  0
  190.6060  177.2750  139.2080 C   0  0  0  0  0  2  0  0  0  0  0  0
  188.8610  176.2660  137.9240 C   0  0  0  0  0  2  0  0  0  0  0  0
  188.5280  178.0220  136.3160 O   0  0  0  0  0  0  0  0  0  0  0  0
  189.0660  178.9600  137.2100 C   0  0  0  0  0  2  0  0  0  0  0  0
  189.1650  177.2300  138.9940 N   0  0  0  0  0  0  0  0  0  0  0  0
  189.2230  176.8230  136.5410 C   0  0  0  0  0  2  0  0  0  0  0  0
  188.6910  178.5790  138.6490 C   0  0  0  0  0  2  0  0  0  0  0  0
  1  9  1  0  0  0  0
  3  2  1  0  0  0  0
  4  2  1  0  0  0  0
  4 10  1  0  0  0  0
  5  4  2  0  0  0  0
  6  5  1  0  0  0  0
  6 13  2  0  0  0  0
  7  8  1  0  0  0  0
  8  9  2  0  0  0  0
  8 12  1  0  0  0  0
 10  1  2  0  0  0  0
 11 10  1  0  0  0  0
 11  7  2  0  0  0  0
 13 11  1  0  0  0  0
 14  5  1  0  0  0  0
 14  3  2  0  0  0  0
 15  3  1  0  0  0  0
 16 17  1  0  0  0  0
 17 15  3  0  0  0  0
 18  6  1  0  0  0  0
 19 18  1  0  0  0  0
 20 19  1  0  0  0  0
 21 24  1  0  0  0  0
 22 25  1  0  0  0  0
 22 23  1  0  0  0  0
 23 26  1  0  0  0  0
 24 20  1  0  0  0  0
 25 21  1  0  0  0  0
 26 24  1  0  0  0  0
M  END
>  <MODEL>
2

>  <REMARK>
 VINA RESULT:      -8.6      2.948      5.144
  Name = 
  5 active torsions:
  status: ('A' for Active; 'I' for Inactive)
    1  A    between atoms: C_2  and  C_6
    2  A    between atoms: C_2  and  N_8
    3  A    between atoms: C_6  and  O_17
    4  A    between atoms: C_9  and  C_13
    5  A    between atoms: C_14  and  O_17
                            x       y       z     vdW  Elec       q    Type
                         _______ _______ _______ _____ _____    ______ ____

>  <TORSDO>
F 5

$$$$
=
 OpenBabel10222418263D

 26 29  0  0  0  0  0  0  0  0999 V2000
  187.9360  177.7470  147.0180 C   0  0  0  0  0  3  0  0  0  0  0  0
  185.7610  178.1750  145.0460 O   0  0  0  0  0  0  0  0  0  0  0  0
  185.1100  178.2550  143.9010 C   0  0  0  0  0  0  0  0  0  0  0  0
  186.9850  177.8140  144.7630 C   0  0  0  0  0  0  0  0  0  0  0  0
  187.1300  177.6580  143.4140 C   0  0  0  0  0  0  0  0  0  0  0  0
  188.3540  177.2740  142.8640 C   0  0  0  0  0  0  0  0  0  0  0  0
  190.3770  176.9810  145.9060 C   0  0  0  0  0  3  0  0  0  0  0  0
  190.2230  177.1430  147.2880 C   0  0  0  0  0  0  0  0  0  0  0  0
  189.0210  177.5180  147.8080 N   0  0  0  0  0  0  0  0  0  0  0  0
  188.0470  177.5980  145.6350 C   0  0  0  0  0  0  0  0  0  0  0  0
  189.2850  177.2090  145.0700 C   0  0  0  0  0  0  0  0  0  0  0  0
  191.2760  176.9250  148.1120 F   0  0  0  0  0  0  0  0  0  0  0  0
  189.4060  177.0590  143.7130 N   0  0  0  0  0  0  0  0  0  0  0  0
  185.9210  177.9380  142.8110 C   0  0  0  0  0  3  0  0  0  0  0  0
  183.7260  178.6250  143.8040 C   0  0  0  0  0  0  0  0  0  0  0  0
  181.1550  179.3150  143.6220 C   0  0  0  0  0  1  0  0  0  0  0  0
  182.5650  178.9370  143.7210 C   0  0  0  0  0  0  0  0  0  0  0  0
  188.4910  177.1150  141.4820 O   0  0  0  0  0  0  0  0  0  0  0  0
  188.8390  178.1930  140.6220 C   0  0  0  0  0  2  0  0  0  0  0  0
  188.8790  177.7190  139.1790 C   0  0  0  0  0  2  0  0  0  0  0  0
  186.8870  178.0370  137.8960 C   0  0  0  0  0  2  0  0  0  0  0  0
  187.7740  177.5510  135.7160 O   0  0  0  0  0  0  0  0  0  0  0  0
  189.0670  177.8760  136.1550 C   0  0  0  0  0  2  0  0  0  0  0  0
  188.1500  178.6540  138.3310 N   0  0  0  0  0  0  0  0  0  0  0  0
  187.1210  176.9720  136.8150 C   0  0  0  0  0  2  0  0  0  0  0  0
  188.9930  179.0140  137.1820 C   0  0  0  0  0  2  0  0  0  0  0  0
  1  9  1  0  0  0  0
  3  2  1  0  0  0  0
  4  2  1  0  0  0  0
  4 10  1  0  0  0  0
  5  4  2  0  0  0  0
  6  5  1  0  0  0  0
  6 13  2  0  0  0  0
  7  8  1  0  0  0  0
  8  9  2  0  0  0  0
  8 12  1  0  0  0  0
 10  1  2  0  0  0  0
 11 10  1  0  0  0  0
 11  7  2  0  0  0  0
 13 11  1  0  0  0  0
 14  5  1  0  0  0  0
 14  3  2  0  0  0  0
 15  3  1  0  0  0  0
 16 17  1  0  0  0  0
 17 15  3  0  0  0  0
 18  6  1  0  0  0  0
 19 18  1  0  0  0  0
 20 19  1  0  0  0  0
 21 24  1  0  0  0  0
 22 23  1  0  0  0  0
 22 25  1  0  0  0  0
 23 26  1  0  0  0  0
 24 20  1  0  0  0  0
 25 21  1  0  0  0  0
 26 24  1  0  0  0  0
M  END
>  <MODEL>
3

>  <REMARK>
 VINA RESULT:      -8.5      2.495      4.935
  Name = 
  5 active torsions:
  status: ('A' for Active; 'I' for Inactive)
    1  A    between atoms: C_2  and  C_6
    2  A    between atoms: C_2  and  N_8
    3  A    between atoms: C_6  and  O_17
    4  A    between atoms: C_9  and  C_13
    5  A    between atoms: C_14  and  O_17
                            x       y       z     vdW  Elec       q    Type
                         _______ _______ _______ _____ _____    ______ ____

>  <TORSDO>
F 5

$$$$
=
 OpenBabel10222418263D

 26 29  0  0  0  0  0  0  0  0999 V2000
  191.3640  176.9130  144.8830 C   0  0  0  0  0  3  0  0  0  0  0  0
  189.7300  177.6150  142.5070 O   0  0  0  0  0  0  0  0  0  0  0  0
  188.6980  177.9400  141.7520 C   0  0  0  0  0  0  0  0  0  0  0  0
  189.2850  177.5070  143.7320 C   0  0  0  0  0  0  0  0  0  0  0  0
  187.9450  177.7630  143.7710 C   0  0  0  0  0  0  0  0  0  0  0  0
  187.2390  177.7090  144.9730 C   0  0  0  0  0  0  0  0  0  0  0  0
  189.9410  176.8080  147.2790 C   0  0  0  0  0  3  0  0  0  0  0  0
  191.3150  176.5450  147.2340 C   0  0  0  0  0  0  0  0  0  0  0  0
  191.9890  176.6030  146.0520 N   0  0  0  0  0  0  0  0  0  0  0  0
  189.9940  177.1820  144.8840 C   0  0  0  0  0  0  0  0  0  0  0  0
  189.2710  177.1280  146.0990 C   0  0  0  0  0  0  0  0  0  0  0  0
  191.9780  176.2320  148.3730 F   0  0  0  0  0  0  0  0  0  0  0  0
  187.9270  177.3900  146.1140 N   0  0  0  0  0  0  0  0  0  0  0  0
  187.5200  178.0530  142.4900 C   0  0  0  0  0  3  0  0  0  0  0  0
  188.7920  178.1500  140.3350 C   0  0  0  0  0  0  0  0  0  0  0  0
  188.9690  178.5420  137.7010 C   0  0  0  0  0  1  0  0  0  0  0  0
  188.8730  178.3280  139.1450 C   0  0  0  0  0  0  0  0  0  0  0  0
  185.8670  177.9760  145.0020 O   0  0  0  0  0  0  0  0  0  0  0  0
  185.3500  179.2930  145.1360 C   0  0  0  0  0  2  0  0  0  0  0  0
  184.3630  179.5840  144.0180 C   0  0  0  0  0  2  0  0  0  0  0  0
  183.8260  178.1180  142.2070 C   0  0  0  0  0  2  0  0  0  0  0  0
  181.6140  178.9270  141.7250 O   0  0  0  0  0  0  0  0  0  0  0  0
  181.4980  179.4260  143.0320 C   0  0  0  0  0  2  0  0  0  0  0  0
  183.6590  178.3620  143.6490 N   0  0  0  0  0  0  0  0  0  0  0  0
  182.9640  179.0720  141.3690 C   0  0  0  0  0  2  0  0  0  0  0  0
  182.2400  178.5010  144.0070 C   0  0  0  0  0  2  0  0  0  0  0  0
  1 10  2  0  0  0  0
  1  9  1  0  0  0  0
  2  4  1  0  0  0  0
  3 14  2  0  0  0  0
  3  2  1  0  0  0  0
  4  5  2  0  0  0  0
  4 10  1  0  0  0  0
  5  6  1  0  0  0  0
  6 18  1  0  0  0  0
  6 13  2  0  0  0  0
  8  7  1  0  0  0  0
  8 12  1  0  0  0  0
  9  8  2  0  0  0  0
 10 11  1  0  0  0  0
 11 13  1  0  0  0  0
 11  7  2  0  0  0  0
 14  5  1  0  0  0  0
 15  3  1  0  0  0  0
 16 17  1  0  0  0  0
 17 15  3  0  0  0  0
 18 19  1  0  0  0  0
 20 19  1  0  0  0  0
 21 24  1  0  0  0  0
 22 23  1  0  0  0  0
 23 26  1  0  0  0  0
 24 26  1  0  0  0  0
 24 20  1  0  0  0  0
 25 22  1  0  0  0  0
 25 21  1  0  0  0  0
M  END
>  <MODEL>
4

>  <REMARK>
 VINA RESULT:      -8.1      3.248      6.694
  Name = 
  5 active torsions:
  status: ('A' for Active; 'I' for Inactive)
    1  A    between atoms: C_2  and  C_6
    2  A    between atoms: C_2  and  N_8
    3  A    between atoms: C_6  and  O_17
    4  A    between atoms: C_9  and  C_13
    5  A    between atoms: C_14  and  O_17
                            x       y       z     vdW  Elec       q    Type
                         _______ _______ _______ _____ _____    ______ ____

>  <TORSDO>
F 5

$$$$
=
 OpenBabel10222418263D

 26 29  0  0  0  0  0  0  0  0999 V2000
  189.8110  177.5080  146.1610 C   0  0  0  0  0  3  0  0  0  0  0  0
  190.0970  177.3750  143.2110 O   0  0  0  0  0  0  0  0  0  0  0  0
  189.7990  177.3760  141.9250 C   0  0  0  0  0  0  0  0  0  0  0  0
  188.9760  177.5510  143.8600 C   0  0  0  0  0  0  0  0  0  0  0  0
  187.9360  177.6660  142.9820 C   0  0  0  0  0  0  0  0  0  0  0  0
  186.6310  177.8610  143.4380 C   0  0  0  0  0  0  0  0  0  0  0  0
  187.2000  177.8960  147.0580 C   0  0  0  0  0  3  0  0  0  0  0  0
  188.2690  177.7770  147.9540 C   0  0  0  0  0  0  0  0  0  0  0  0
  189.5360  177.5870  147.4920 N   0  0  0  0  0  0  0  0  0  0  0  0
  188.7740  177.6210  145.2340 C   0  0  0  0  0  0  0  0  0  0  0  0
  187.4480  177.8180  145.6890 C   0  0  0  0  0  0  0  0  0  0  0  0
  188.0400  177.8500  149.2870 F   0  0  0  0  0  0  0  0  0  0  0  0
  186.4210  177.9320  144.7890 N   0  0  0  0  0  0  0  0  0  0  0  0
  188.4350  177.5570  141.7000 C   0  0  0  0  0  3  0  0  0  0  0  0
  190.7780  177.2090  140.8890 C   0  0  0  0  0  0  0  0  0  0  0  0
  192.6000  176.9010  138.9620 C   0  0  0  0  0  1  0  0  0  0  0  0
  191.6010  177.0700  140.0190 C   0  0  0  0  0  0  0  0  0  0  0  0
  185.5750  177.9800  142.5310 O   0  0  0  0  0  0  0  0  0  0  0  0
  185.3170  179.1800  141.8130 C   0  0  0  0  0  2  0  0  0  0  0  0
  184.1600  178.9760  140.8500 C   0  0  0  0  0  2  0  0  0  0  0  0
  183.2650  180.0360  138.9020 C   0  0  0  0  0  2  0  0  0  0  0  0
  183.1540  178.1160  137.4600 O   0  0  0  0  0  0  0  0  0  0  0  0
  184.1520  177.4770  138.2120 C   0  0  0  0  0  2  0  0  0  0  0  0
  184.4930  179.5450  139.5490 N   0  0  0  0  0  0  0  0  0  0  0  0
  182.4060  178.8810  138.3700 C   0  0  0  0  0  2  0  0  0  0  0  0
  185.1540  178.5170  138.7330 C   0  0  0  0  0  2  0  0  0  0  0  0
  1  9  1  0  0  0  0
  2  4  1  0  0  0  0
  3  2  1  0  0  0  0
  4 10  1  0  0  0  0
  5  6  1  0  0  0  0
  5  4  2  0  0  0  0
  6 13  2  0  0  0  0
  7  8  1  0  0  0  0
  8 12  1  0  0  0  0
  9  8  2  0  0  0  0
 10 11  1  0  0  0  0
 10  1  2  0  0  0  0
 11  7  2  0  0  0  0
 13 11  1  0  0  0  0
 14  3  2  0  0  0  0
 14  5  1  0  0  0  0
 15  3  1  0  0  0  0
 16 17  1  0  0  0  0
 17 15  3  0  0  0  0
 18  6  1  0  0  0  0
 19 18  1  0  0  0  0
 20 19  1  0  0  0  0
 21 24  1  0  0  0  0
 22 23  1  0  0  0  0
 22 25  1  0  0  0  0
 23 26  1  0  0  0  0
 24 20  1  0  0  0  0
 25 21  1  0  0  0  0
 26 24  1  0  0  0  0
M  END
>  <MODEL>
5

>  <REMARK>
 VINA RESULT:      -8.0      3.120      4.643
  Name = 
  5 active torsions:
  status: ('A' for Active; 'I' for Inactive)
    1  A    between atoms: C_2  and  C_6
    2  A    between atoms: C_2  and  N_8
    3  A    between atoms: C_6  and  O_17
    4  A    between atoms: C_9  and  C_13
    5  A    between atoms: C_14  and  O_17
                            x       y       z     vdW  Elec       q    Type
                         _______ _______ _______ _____ _____    ______ ____

>  <TORSDO>
F 5

$$$$
=
 OpenBabel10222418263D

 26 29  0  0  0  0  0  0  0  0999 V2000
  187.4670  177.4700  145.8800 C   0  0  0  0  0  3  0  0  0  0  0  0
  185.1940  178.2330  144.1320 O   0  0  0  0  0  0  0  0  0  0  0  0
  184.5010  178.5830  143.0650 C   0  0  0  0  0  0  0  0  0  0  0  0
  186.4390  178.1100  143.7520 C   0  0  0  0  0  0  0  0  0  0  0  0
  186.5550  178.3850  142.4200 C   0  0  0  0  0  0  0  0  0  0  0  0
  187.7920  178.3210  141.7790 C   0  0  0  0  0  0  0  0  0  0  0  0
  189.9350  177.3460  144.5880 C   0  0  0  0  0  3  0  0  0  0  0  0
  189.8110  177.0650  145.9540 C   0  0  0  0  0  0  0  0  0  0  0  0
  188.5950  177.1320  146.5630 N   0  0  0  0  0  0  0  0  0  0  0  0
  187.5460  177.7580  144.5180 C   0  0  0  0  0  0  0  0  0  0  0  0
  188.7980  177.6950  143.8610 C   0  0  0  0  0  0  0  0  0  0  0  0
  190.9080  176.7240  146.6720 F   0  0  0  0  0  0  0  0  0  0  0  0
  188.8890  177.9760  142.5230 N   0  0  0  0  0  0  0  0  0  0  0  0
  185.3030  178.7010  141.9310 C   0  0  0  0  0  3  0  0  0  0  0  0
  183.0840  178.8130  143.0860 C   0  0  0  0  0  0  0  0  0  0  0  0
  180.4500  179.2410  143.1260 C   0  0  0  0  0  1  0  0  0  0  0  0
  181.8940  179.0070  143.1040 C   0  0  0  0  0  0  0  0  0  0  0  0
  187.8990  178.6030  140.4140 O   0  0  0  0  0  0  0  0  0  0  0  0
  188.3100  177.6280  139.4650 C   0  0  0  0  0  2  0  0  0  0  0  0
  189.8000  177.7570  139.1930 C   0  0  0  0  0  2  0  0  0  0  0  0
  191.5570  176.8600  140.5440 C   0  0  0  0  0  2  0  0  0  0  0  0
  193.2470  176.6420  138.8480 O   0  0  0  0  0  0  0  0  0  0  0  0
  192.2590  176.5910  137.8520 C   0  0  0  0  0  2  0  0  0  0  0  0
  190.4830  176.5320  139.5920 N   0  0  0  0  0  0  0  0  0  0  0  0
  192.7580  177.5060  139.8410 C   0  0  0  0  0  2  0  0  0  0  0  0
  191.0160  175.8710  138.3920 C   0  0  0  0  0  2  0  0  0  0  0  0
  1  9  1  0  0  0  0
  3 15  1  0  0  0  0
  3  2  1  0  0  0  0
  4  2  1  0  0  0  0
  4 10  1  0  0  0  0
  5  4  2  0  0  0  0
  6  5  1  0  0  0  0
  6 13  2  0  0  0  0
  7  8  1  0  0  0  0
  8  9  2  0  0  0  0
  8 12  1  0  0  0  0
 10  1  2  0  0  0  0
 11 10  1  0  0  0  0
 11  7  2  0  0  0  0
 13 11  1  0  0  0  0
 14  5  1  0  0  0  0
 14  3  2  0  0  0  0
 15 17  3  0  0  0  0
 17 16  1  0  0  0  0
 18  6  1  0  0  0  0
 19 18  1  0  0  0  0
 20 19  1  0  0  0  0
 20 24  1  0  0  0  0
 22 25  1  0  0  0  0
 23 26  1  0  0  0  0
 23 22  1  0  0  0  0
 24 21  1  0  0  0  0
 25 21  1  0  0  0  0
 26 24  1  0  0  0  0
M  END
>  <MODEL>
6

>  <REMARK>
 VINA RESULT:      -7.8      3.143      5.677
  Name = 
  5 active torsions:
  status: ('A' for Active; 'I' for Inactive)
    1  A    between atoms: C_2  and  C_6
    2  A    between atoms: C_2  and  N_8
    3  A    between atoms: C_6  and  O_17
    4  A    between atoms: C_9  and  C_13
    5  A    between atoms: C_14  and  O_17
                            x       y       z     vdW  Elec       q    Type
                         _______ _______ _______ _____ _____    ______ ____

>  <TORSDO>
F 5

$$$$
=
 OpenBabel10222418263D

 26 29  0  0  0  0  0  0  0  0999 V2000
  186.5430  177.8110  146.6530 C   0  0  0  0  0  3  0  0  0  0  0  0
  184.3460  178.4660  144.7690 O   0  0  0  0  0  0  0  0  0  0  0  0
  183.6950  178.7300  143.6520 C   0  0  0  0  0  0  0  0  0  0  0  0
  185.5960  178.2710  144.4420 C   0  0  0  0  0  0  0  0  0  0  0  0
  185.7590  178.4120  143.0930 C   0  0  0  0  0  0  0  0  0  0  0  0
  187.0120  178.2500  142.5010 C   0  0  0  0  0  0  0  0  0  0  0  0
  189.0410  177.4920  145.4570 C   0  0  0  0  0  3  0  0  0  0  0  0
  188.8700  177.3480  146.8390 C   0  0  0  0  0  0  0  0  0  0  0  0
  187.6400  177.5090  147.4000 N   0  0  0  0  0  0  0  0  0  0  0  0
  186.6700  177.9630  145.2720 C   0  0  0  0  0  0  0  0  0  0  0  0
  187.9370  177.8010  144.6640 C   0  0  0  0  0  0  0  0  0  0  0  0
  189.9350  177.0480  147.6210 F   0  0  0  0  0  0  0  0  0  0  0  0
  188.0750  177.9470  143.3080 N   0  0  0  0  0  0  0  0  0  0  0  0
  184.5330  178.7140  142.5370 C   0  0  0  0  0  3  0  0  0  0  0  0
  182.2860  179.0010  143.6060 C   0  0  0  0  0  0  0  0  0  0  0  0
  179.6670  179.5070  143.5200 C   0  0  0  0  0  1  0  0  0  0  0  0
  181.1030  179.2300  143.5660 C   0  0  0  0  0  0  0  0  0  0  0  0
  187.1660  178.3950  141.1190 O   0  0  0  0  0  0  0  0  0  0  0  0
  188.3020  177.8980  140.4230 C   0  0  0  0  0  2  0  0  0  0  0  0
  188.0280  177.8660  138.9290 C   0  0  0  0  0  2  0  0  0  0  0  0
  189.7920  177.5000  137.3580 C   0  0  0  0  0  2  0  0  0  0  0  0
  188.4640  176.8610  135.4590 O   0  0  0  0  0  0  0  0  0  0  0  0
  187.4170  176.4670  136.3070 C   0  0  0  0  0  2  0  0  0  0  0  0
  188.8610  176.8520  138.2950 N   0  0  0  0  0  0  0  0  0  0  0  0
  189.0780  177.9610  136.0790 C   0  0  0  0  0  2  0  0  0  0  0  0
  187.9940  175.8850  137.6050 C   0  0  0  0  0  2  0  0  0  0  0  0
  1  9  1  0  0  0  0
  3  2  1  0  0  0  0
  4  2  1  0  0  0  0
  4 10  1  0  0  0  0
  5  4  2  0  0  0  0
  6  5  1  0  0  0  0
  6 13  2  0  0  0  0
  7  8  1  0  0  0  0
  8  9  2  0  0  0  0
  8 12  1  0  0  0  0
 10  1  2  0  0  0  0
 11 10  1  0  0  0  0
 11  7  2  0  0  0  0
 13 11  1  0  0  0  0
 14  5  1  0  0  0  0
 14  3  2  0  0  0  0
 15  3  1  0  0  0  0
 16 17  1  0  0  0  0
 17 15  3  0  0  0  0
 18  6  1  0  0  0  0
 19 18  1  0  0  0  0
 20 19  1  0  0  0  0
 21 24  1  0  0  0  0
 22 25  1  0  0  0  0
 22 23  1  0  0  0  0
 23 26  1  0  0  0  0
 24 20  1  0  0  0  0
 25 21  1  0  0  0  0
 26 24  1  0  0  0  0
M  END
>  <MODEL>
7

>  <REMARK>
 VINA RESULT:      -7.7      2.492      5.292
  Name = 
  5 active torsions:
  status: ('A' for Active; 'I' for Inactive)
    1  A    between atoms: C_2  and  C_6
    2  A    between atoms: C_2  and  N_8
    3  A    between atoms: C_6  and  O_17
    4  A    between atoms: C_9  and  C_13
    5  A    between atoms: C_14  and  O_17
                            x       y       z     vdW  Elec       q    Type
                         _______ _______ _______ _____ _____    ______ ____

>  <TORSDO>
F 5

$$$$
=
 OpenBabel10222418263D

 26 29  0  0  0  0  0  0  0  0999 V2000
  187.2620  178.3980  138.0330 C   0  0  0  0  0  3  0  0  0  0  0  0
  186.5050  178.4100  140.9020 O   0  0  0  0  0  0  0  0  0  0  0  0
  186.5790  178.2960  142.2140 C   0  0  0  0  0  0  0  0  0  0  0  0
  187.6840  178.1060  140.4270 C   0  0  0  0  0  0  0  0  0  0  0  0
  188.5360  177.7890  141.4460 C   0  0  0  0  0  0  0  0  0  0  0  0
  189.8590  177.4280  141.1900 C   0  0  0  0  0  0  0  0  0  0  0  0
  189.9080  177.6740  137.5330 C   0  0  0  0  0  3  0  0  0  0  0  0
  189.0320  178.0000  136.4920 C   0  0  0  0  0  0  0  0  0  0  0  0
  187.7430  178.3500  136.7600 N   0  0  0  0  0  0  0  0  0  0  0  0
  188.1020  178.0800  139.1000 C   0  0  0  0  0  0  0  0  0  0  0  0
  189.4450  177.7120  138.8480 C   0  0  0  0  0  0  0  0  0  0  0  0
  189.4680  177.9650  135.2100 F   0  0  0  0  0  0  0  0  0  0  0  0
  190.2810  177.3990  139.8880 N   0  0  0  0  0  0  0  0  0  0  0  0
  187.8480  177.9020  142.6380 C   0  0  0  0  0  3  0  0  0  0  0  0
  185.4730  178.5520  143.0920 C   0  0  0  0  0  0  0  0  0  0  0  0
  183.4160  179.0300  144.7250 C   0  0  0  0  0  1  0  0  0  0  0  0
  184.5440  178.7690  143.8300 C   0  0  0  0  0  0  0  0  0  0  0  0
  190.7220  177.1070  142.2410 O   0  0  0  0  0  0  0  0  0  0  0  0
  191.5150  178.0850  142.9020 C   0  0  0  0  0  2  0  0  0  0  0  0
  191.2320  178.0660  144.3950 C   0  0  0  0  0  2  0  0  0  0  0  0
  189.4110  176.9690  145.4900 C   0  0  0  0  0  2  0  0  0  0  0  0
  190.4450  176.5900  147.6270 O   0  0  0  0  0  0  0  0  0  0  0  0
  191.7170  176.6570  147.0380 C   0  0  0  0  0  2  0  0  0  0  0  0
  190.6840  176.7700  144.7790 N   0  0  0  0  0  0  0  0  0  0  0  0
  189.6350  177.4900  146.9160 C   0  0  0  0  0  2  0  0  0  0  0  0
  191.6640  176.0690  145.6210 C   0  0  0  0  0  2  0  0  0  0  0  0
  1 10  1  0  0  0  0
  2  3  1  0  0  0  0
  3 14  2  0  0  0  0
  3 15  1  0  0  0  0
  4  2  1  0  0  0  0
  4  5  2  0  0  0  0
  5 14  1  0  0  0  0
  6  5  1  0  0  0  0
  6 18  1  0  0  0  0
  7 11  1  0  0  0  0
  8  9  1  0  0  0  0
  8  7  2  0  0  0  0
  9  1  2  0  0  0  0
 10  4  1  0  0  0  0
 11 10  2  0  0  0  0
 11 13  1  0  0  0  0
 12  8  1  0  0  0  0
 13  6  2  0  0  0  0
 15 17  3  0  0  0  0
 17 16  1  0  0  0  0
 18 19  1  0  0  0  0
 19 20  1  0  0  0  0
 20 24  1  0  0  0  0
 21 25  1  0  0  0  0
 23 22  1  0  0  0  0
 24 21  1  0  0  0  0
 24 26  1  0  0  0  0
 25 22  1  0  0  0  0
 26 23  1  0  0  0  0
M  END
>  <MODEL>
8

>  <REMARK>
 VINA RESULT:      -7.7      3.357      7.747
  Name = 
  5 active torsions:
  status: ('A' for Active; 'I' for Inactive)
    1  A    between atoms: C_2  and  C_6
    2  A    between atoms: C_2  and  N_8
    3  A    between atoms: C_6  and  O_17
    4  A    between atoms: C_9  and  C_13
    5  A    between atoms: C_14  and  O_17
                            x       y       z     vdW  Elec       q    Type
                         _______ _______ _______ _____ _____    ______ ____

>  <TORSDO>
F 5

$$$$
=
 OpenBabel10222418263D

 26 29  0  0  0  0  0  0  0  0999 V2000
  182.4680  178.6670  141.3070 C   0  0  0  0  0  3  0  0  0  0  0  0
  185.3890  178.5040  140.8100 O   0  0  0  0  0  0  0  0  0  0  0  0
  186.6900  178.4410  141.0180 C   0  0  0  0  0  0  0  0  0  0  0  0
  184.8190  178.5630  141.9850 C   0  0  0  0  0  0  0  0  0  0  0  0
  185.7640  178.5390  142.9700 C   0  0  0  0  0  0  0  0  0  0  0  0
  185.4000  178.5910  144.3150 C   0  0  0  0  0  0  0  0  0  0  0  0
  181.7530  178.7730  144.0000 C   0  0  0  0  0  3  0  0  0  0  0  0
  180.7870  178.7970  142.9880 C   0  0  0  0  0  0  0  0  0  0  0  0
  181.1610  178.7450  141.6790 N   0  0  0  0  0  0  0  0  0  0  0  0
  183.4630  178.6410  142.2850 C   0  0  0  0  0  0  0  0  0  0  0  0
  183.1010  178.6950  143.6530 C   0  0  0  0  0  0  0  0  0  0  0  0
  179.4740  178.8740  143.3120 F   0  0  0  0  0  0  0  0  0  0  0  0
  184.0680  178.6690  144.6230 N   0  0  0  0  0  0  0  0  0  0  0  0
  187.0080  178.4590  142.3760 C   0  0  0  0  0  3  0  0  0  0  0  0
  187.6560  178.3630  139.9590 C   0  0  0  0  0  0  0  0  0  0  0  0
  189.4520  178.2200  137.9900 C   0  0  0  0  0  1  0  0  0  0  0  0
  188.4680  178.2990  139.0700 C   0  0  0  0  0  0  0  0  0  0  0  0
  186.3760  178.5640  145.3150 O   0  0  0  0  0  0  0  0  0  0  0  0
  186.8050  177.3560  145.9300 C   0  0  0  0  0  2  0  0  0  0  0  0
  188.2250  177.0270  145.5030 C   0  0  0  0  0  2  0  0  0  0  0  0
  190.2150  178.2470  144.9860 C   0  0  0  0  0  2  0  0  0  0  0  0
  191.7690  176.9990  146.3290 O   0  0  0  0  0  0  0  0  0  0  0  0
  190.7240  176.5680  147.1620 C   0  0  0  0  0  2  0  0  0  0  0  0
  189.1360  178.0650  145.9700 N   0  0  0  0  0  0  0  0  0  0  0  0
  191.2280  177.0950  145.0380 C   0  0  0  0  0  2  0  0  0  0  0  0
  189.6690  177.6760  147.2840 C   0  0  0  0  0  2  0  0  0  0  0  0
  1  9  2  0  0  0  0
  1 10  1  0  0  0  0
  2  3  1  0  0  0  0
  2  4  1  0  0  0  0
  3 14  2  0  0  0  0
  4 10  1  0  0  0  0
  4  5  2  0  0  0  0
  5  6  1  0  0  0  0
  6 13  2  0  0  0  0
  6 18  1  0  0  0  0
  8 12  1  0  0  0  0
  8  7  2  0  0  0  0
  9  8  1  0  0  0  0
 10 11  2  0  0  0  0
 11  7  1  0  0  0  0
 11 13  1  0  0  0  0
 14  5  1  0  0  0  0
 15  3  1  0  0  0  0
 16 17  1  0  0  0  0
 17 15  3  0  0  0  0
 18 19  1  0  0  0  0
 20 19  1  0  0  0  0
 20 24  1  0  0  0  0
 21 25  1  0  0  0  0
 21 24  1  0  0  0  0
 22 23  1  0  0  0  0
 23 26  1  0  0  0  0
 24 26  1  0  0  0  0
 25 22  1  0  0  0  0
M  END
>  <MODEL>
9

>  <REMARK>
 VINA RESULT:      -7.6      2.589      6.723
  Name = 
  5 active torsions:
  status: ('A' for Active; 'I' for Inactive)
    1  A    between atoms: C_2  and  C_6
    2  A    between atoms: C_2  and  N_8
    3  A    between atoms: C_6  and  O_17
    4  A    between atoms: C_9  and  C_13
    5  A    between atoms: C_14  and  O_17
                            x       y       z     vdW  Elec       q    Type
                         _______ _______ _______ _____ _____    ______ ____

>  <TORSDO>
F 5

$$$$
