=
 OpenBabel10222415183D

 43 47  0  0  1  0  0  0  0  0999 V2000
  182.1690  178.7510  141.2440 N   0  0  0  0  0  0  0  0  0  0  0  0
  183.2570  178.3490  140.6520 C   0  0  0  0  0  0  0  0  0  0  0  0
  185.1150  179.7800  140.3350 O   0  0  0  0  0  0  0  0  0  0  0  0
  185.2130  178.4750  142.2690 N   0  0  0  0  0  0  0  0  0  0  0  0
  184.5580  178.9140  141.0630 C   0  0  0  0  0  0  0  0  0  0  0  0
  184.5630  178.4510  143.5490 C   0  0  0  0  0  3  0  0  0  0  0  0
  184.1490  179.5550  144.1620 C   0  0  0  0  0  2  0  0  0  0  0  0
  186.6260  178.1290  142.2330 C   0  0  0  0  0  2  0  0  0  0  0  0
  186.9480  177.1130  143.3160 C   0  0  0  0  0  2  0  0  0  0  0  0
  188.2030  177.4950  144.0270 C   0  0  0  0  0  0  0  0  0  0  0  0
  188.2870  177.8550  145.3670 C   0  0  0  0  0  0  0  0  0  0  0  0
  192.2240  175.7440  147.0520 C   0  0  0  0  0  1  0  0  0  0  0  0
  191.5160  176.8480  144.8360 C   0  0  0  0  0  2  0  0  0  0  0  0
  190.2280  177.3050  146.7340 C   0  0  0  0  0  0  0  0  0  0  0  0
  191.4630  176.7310  146.3050 N   0  0  0  0  0  0  0  0  0  0  0  0
  189.6310  177.8920  145.5870 C   0  0  0  0  0  0  0  0  0  0  0  0
  187.5620  178.5340  147.6440 C   0  0  0  0  0  2  0  0  0  0  0  0
  190.3070  177.5940  144.4880 N   0  0  0  0  0  0  0  0  0  0  0  0
  187.9560  177.0740  147.7930 C   0  0  0  0  0  0  0  0  0  0  0  0
  189.4700  176.8490  147.7410 C   0  0  0  0  0  3  0  0  0  0  0  0
  187.2980  177.5850  146.4780 C   0  0  0  0  0  0  0  0  0  0  0  0
  189.4490  177.2930  143.5230 N   0  0  0  0  0  0  0  0  0  0  0  0
  183.2160  177.2940  139.5830 C   0  0  0  0  0  2  0  0  0  0  0  0
  184.3500  177.7590  137.4640 N   0  0  0  0  0  0  0  0  0  0  0  0
  183.3220  177.9190  138.2230 C   0  0  0  0  0  3  0  0  0  0  0  0
  185.4920  176.9670  137.8530 C   0  0  0  0  0  2  0  0  0  0  0  0
  186.7250  178.9750  137.5260 O   0  0  0  0  0  0  0  0  0  0  0  0
  186.7450  177.7140  137.5580 C   0  0  0  0  0  0  0  0  0  0  0  0
  187.9210  177.0090  137.3000 O   0  0  0  0  0  0  0  0  0  0  0  0
  189.2290  177.5290  135.3590 C   0  0  0  0  0  2  0  0  0  0  0  0
  190.0470  176.6340  136.2660 C   0  0  0  0  0  2  0  0  0  0  0  0
  189.1070  177.6610  136.8630 C   0  0  0  0  0  3  0  0  0  0  0  0
  180.8310  178.2590  140.9390 C   0  0  0  0  0  2  0  0  0  0  0  0
  179.9450  179.3990  140.4660 C   0  0  0  0  0  2  0  0  0  0  0  0
  179.8120  179.3520  138.9780 C   0  0  0  0  0  0  0  0  0  0  0  0
  179.6390  180.5470  138.2150 N   0  0  0  0  0  2  0  0  0  0  0  0
  179.8770  178.2430  138.3850 O   0  0  0  0  0  0  0  0  0  0  0  0
  179.9060  182.9440  138.2520 C   0  0  0  0  0  3  0  0  0  0  0  0
  179.4590  181.8280  138.8240 C   0  0  0  0  0  3  0  0  0  0  0  0
  179.6600  183.1570  135.8210 C   0  0  0  0  0  1  0  0  0  0  0  0
  180.6470  182.9510  136.9540 C   0  0  1  0  0  3  0  0  0  0  0  0
  181.5750  183.9950  136.9520 O   0  0  0  0  0  0  0  0  0  0  0  0
  180.8640  185.0770  136.7110 O   0  0  0  0  0  1  0  0  0  0  0  0
  2  5  1  0  0  0  0
  2  1  2  0  0  0  0
  3  5  2  0  0  0  0
  4  6  1  0  0  0  0
  5  4  1  0  0  0  0
  6  7  2  0  0  0  0
  8  4  1  0  0  0  0
  8  9  1  0  0  0  0
  9 10  1  0  0  0  0
 10 11  1  0  0  0  0
 11 16  2  0  0  0  0
 11 21  1  0  0  0  0
 13 15  1  0  0  0  0
 14 20  2  0  0  0  0
 15 14  1  0  0  0  0
 15 12  1  0  0  0  0
 16 14  1  0  0  0  0
 17 19  1  0  0  0  0
 18 13  1  0  0  0  0
 18 16  1  0  0  0  0
 20 19  1  0  0  0  0
 21 17  1  0  0  0  0
 21 19  2  0  0  0  0
 22 10  2  0  0  0  0
 22 18  1  0  0  0  0
 23  2  1  0  0  0  0
 24 26  1  0  0  0  0
 24 25  2  0  0  0  0
 25 23  1  0  0  0  0
 27 28  2  0  0  0  0
 28 26  1  0  0  0  0
 29 28  1  0  0  0  0
 30 31  1  0  0  0  0
 30 32  1  0  0  0  0
 31 32  1  0  0  0  0
 32 29  1  0  0  0  0
 33  1  1  0  0  0  0
 34 33  1  0  0  0  0
 35 34  1  0  0  0  0
 36 39  1  0  0  0  0
 36 35  1  0  0  0  0
 37 35  2  0  0  0  0
 38 39  2  0  0  0  0
 41 40  1  6  0  0  0
 41 38  1  0  0  0  0
 42 41  1  0  0  0  0
 43 42  1  0  0  0  0
M  END
>  <MODEL>
1

>  <REMARK>
 VINA RESULT:      -7.4      0.000      0.000
  Name = 
  17 active torsions:
  status: ('A' for Active; 'I' for Inactive)
    1  A    between atoms: C_2  and  C_6
    2  A    between atoms: N_3  and  C_29
    3  A    between atoms: C_4  and  C_40
    4  A    between atoms: C_5  and  C_6
    5  A    between atoms: C_5  and  N_11
    6  A    between atoms: C_10  and  C_39
    7  A    between atoms: N_11  and  C_12
    8  A    between atoms: N_13  and  C_20
    9  A    between atoms: C_19  and  C_26
   10  A    between atoms: C_20  and  C_38
   11  A    between atoms: C_22  and  N_37
   12  A    between atoms: C_26  and  C_31
   13  A    between atoms: O_27  and  C_36
   14  A    between atoms: O_27  and  C_38
   15  A    between atoms: O_28  and  C_39
   16  A    between atoms: C_29  and  C_40
   17  A    between atoms: C_31  and  C_43
                            x       y       z     vdW  Elec       q    Type
                         _______ _______ _______ _____ _____    ______ ____

>  <TORSDO>
F 17

$$$$
=
 OpenBabel10222415183D

 43 47  0  0  1  0  0  0  0  0999 V2000
  184.9490  177.5760  137.8980 N   0  0  0  0  0  0  0  0  0  0  0  0
  183.9390  178.1790  138.4570 C   0  0  0  0  0  0  0  0  0  0  0  0
  184.3810  180.4250  139.0610 O   0  0  0  0  0  0  0  0  0  0  0  0
  184.2400  178.9450  140.8610 N   0  0  0  0  0  0  0  0  0  0  0  0
  184.1890  179.2410  139.4520 C   0  0  0  0  0  0  0  0  0  0  0  0
  183.2030  178.2300  141.5490 C   0  0  0  0  0  3  0  0  0  0  0  0
  181.9690  178.7060  141.6790 C   0  0  0  0  0  2  0  0  0  0  0  0
  185.3350  179.4670  141.6650 C   0  0  0  0  0  2  0  0  0  0  0  0
  186.5560  178.5720  141.5410 C   0  0  0  0  0  2  0  0  0  0  0  0
  186.7870  177.8320  142.8150 C   0  0  0  0  0  0  0  0  0  0  0  0
  187.9430  177.1270  143.1350 C   0  0  0  0  0  0  0  0  0  0  0  0
  188.8500  178.1010  147.7200 C   0  0  0  0  0  1  0  0  0  0  0  0
  186.7440  177.7320  146.2850 C   0  0  0  0  0  2  0  0  0  0  0  0
  188.7890  177.0000  145.4160 C   0  0  0  0  0  0  0  0  0  0  0  0
  188.1590  177.4700  146.6080 N   0  0  0  0  0  0  0  0  0  0  0  0
  187.7610  176.8290  144.4520 C   0  0  0  0  0  0  0  0  0  0  0  0
  190.1370  176.0000  142.8410 C   0  0  0  0  0  2  0  0  0  0  0  0
  186.6030  177.2950  144.8950 N   0  0  0  0  0  0  0  0  0  0  0  0
  190.4710  177.2930  143.5660 C   0  0  0  0  0  0  0  0  0  0  0  0
  190.0410  177.2890  145.0360 C   0  0  0  0  0  3  0  0  0  0  0  0
  189.3190  177.2480  142.5190 C   0  0  0  0  0  0  0  0  0  0  0  0
  186.0060  177.9640  143.9190 N   0  0  0  0  0  0  0  0  0  0  0  0
  182.5250  177.8400  138.0800 C   0  0  0  0  0  2  0  0  0  0  0  0
  181.1360  179.5550  137.0220 N   0  0  0  0  0  0  0  0  0  0  0  0
  182.0740  178.6790  136.9200 C   0  0  0  0  0  3  0  0  0  0  0  0
  180.4350  179.8090  138.2580 C   0  0  0  0  0  2  0  0  0  0  0  0
  180.1910  181.6330  139.7660 O   0  0  0  0  0  0  0  0  0  0  0  0
  180.5730  181.2440  138.6280 C   0  0  0  0  0  0  0  0  0  0  0  0
  181.1030  182.1440  137.7030 O   0  0  0  0  0  0  0  0  0  0  0  0
  181.1220  184.0910  136.3030 C   0  0  0  0  0  2  0  0  0  0  0  0
  180.2960  184.3920  137.5370 C   0  0  0  0  0  2  0  0  0  0  0  0
  180.2730  183.0040  136.9310 C   0  0  0  0  0  3  0  0  0  0  0  0
  184.8330  176.5250  136.8940 C   0  0  0  0  0  2  0  0  0  0  0  0
  186.0660  176.5050  136.0060 C   0  0  0  0  0  2  0  0  0  0  0  0
  186.8080  175.2230  136.2000 C   0  0  0  0  0  0  0  0  0  0  0  0
  188.2350  175.1830  136.1550 N   0  0  0  0  0  2  0  0  0  0  0  0
  186.1670  174.1650  136.4300 O   0  0  0  0  0  0  0  0  0  0  0  0
  189.4390  177.1960  136.7170 C   0  0  0  0  0  3  0  0  0  0  0  0
  189.0250  176.3210  135.8030 C   0  0  0  0  0  3  0  0  0  0  0  0
  190.3660  177.2090  138.9880 C   0  0  0  0  0  1  0  0  0  0  0  0
  189.0970  177.0790  138.1670 C   0  0  1  0  0  3  0  0  0  0  0  0
  188.2120  178.1000  138.5220 O   0  0  0  0  0  0  0  0  0  0  0  0
  188.9830  179.0830  138.9400 O   0  0  0  0  0  1  0  0  0  0  0  0
  1  2  2  0  0  0  0
  2  5  1  0  0  0  0
  3  5  2  0  0  0  0
  4  6  1  0  0  0  0
  4  8  1  0  0  0  0
  5  4  1  0  0  0  0
  6  7  2  0  0  0  0
  9  8  1  0  0  0  0
  9 10  1  0  0  0  0
 10 11  1  0  0  0  0
 10 22  2  0  0  0  0
 11 16  1  0  0  0  0
 13 15  1  0  0  0  0
 14 15  1  0  0  0  0
 15 12  1  0  0  0  0
 16 18  1  0  0  0  0
 16 14  2  0  0  0  0
 17 19  1  0  0  0  0
 18 13  1  0  0  0  0
 19 20  2  3  0  0  0
 20 14  1  0  0  0  0
 21 17  1  0  0  0  0
 21 11  2  3  0  0  0
 21 19  1  0  0  0  0
 22 18  1  0  0  0  0
 23  2  1  0  0  0  0
 24 26  1  0  0  0  0
 25 24  2  0  0  0  0
 25 23  1  0  0  0  0
 26 28  1  0  0  0  0
 28 27  2  0  0  0  0
 29 28  1  0  0  0  0
 30 32  1  0  0  0  0
 30 31  1  0  0  0  0
 32 31  1  0  0  0  0
 32 29  1  0  0  0  0
 33  1  1  0  0  0  0
 34 35  1  0  0  0  0
 34 33  1  0  0  0  0
 35 37  2  0  0  0  0
 36 35  1  0  0  0  0
 38 41  1  0  0  0  0
 39 36  1  0  0  0  0
 39 38  2  0  0  0  0
 41 42  1  0  0  0  0
 41 40  1  1  0  0  0
 42 43  1  0  0  0  0
M  END
>  <MODEL>
2

>  <REMARK>
 VINA RESULT:      -7.3      1.923      6.666
  Name = 
  17 active torsions:
  status: ('A' for Active; 'I' for Inactive)
    1  A    between atoms: C_2  and  C_6
    2  A    between atoms: N_3  and  C_29
    3  A    between atoms: C_4  and  C_40
    4  A    between atoms: C_5  and  C_6
    5  A    between atoms: C_5  and  N_11
    6  A    between atoms: C_10  and  C_39
    7  A    between atoms: N_11  and  C_12
    8  A    between atoms: N_13  and  C_20
    9  A    between atoms: C_19  and  C_26
   10  A    between atoms: C_20  and  C_38
   11  A    between atoms: C_22  and  N_37
   12  A    between atoms: C_26  and  C_31
   13  A    between atoms: O_27  and  C_36
   14  A    between atoms: O_27  and  C_38
   15  A    between atoms: O_28  and  C_39
   16  A    between atoms: C_29  and  C_40
   17  A    between atoms: C_31  and  C_43
                            x       y       z     vdW  Elec       q    Type
                         _______ _______ _______ _____ _____    ______ ____

>  <TORSDO>
F 17

$$$$
=
 OpenBabel10222415183D

 43 47  0  0  1  0  0  0  0  0999 V2000
  185.2910  177.6580  137.8230 N   0  0  0  0  0  0  0  0  0  0  0  0
  184.2300  178.1830  138.3660 C   0  0  0  0  0  0  0  0  0  0  0  0
  184.4940  180.4300  139.0590 O   0  0  0  0  0  0  0  0  0  0  0  0
  184.4340  178.8780  140.8010 N   0  0  0  0  0  0  0  0  0  0  0  0
  184.3840  179.2220  139.4030 C   0  0  0  0  0  0  0  0  0  0  0  0
  183.4420  178.0640  141.4430 C   0  0  0  0  0  3  0  0  0  0  0  0
  182.4380  178.5790  142.1470 C   0  0  0  0  0  2  0  0  0  0  0  0
  185.4740  179.4490  141.6440 C   0  0  0  0  0  2  0  0  0  0  0  0
  186.7090  178.5630  141.6340 C   0  0  0  0  0  2  0  0  0  0  0  0
  186.8470  177.8520  142.9380 C   0  0  0  0  0  0  0  0  0  0  0  0
  188.0260  177.3020  143.4300 C   0  0  0  0  0  0  0  0  0  0  0  0
  188.1280  178.3600  148.0850 C   0  0  0  0  0  1  0  0  0  0  0  0
  186.3170  177.7280  146.3660 C   0  0  0  0  0  2  0  0  0  0  0  0
  188.5430  177.2730  145.8110 C   0  0  0  0  0  0  0  0  0  0  0  0
  187.6920  177.6510  146.8920 N   0  0  0  0  0  0  0  0  0  0  0  0
  187.6960  176.9760  144.7110 C   0  0  0  0  0  0  0  0  0  0  0  0
  190.3670  176.4720  143.4700 C   0  0  0  0  0  2  0  0  0  0  0  0
  186.4360  177.2850  144.9760 N   0  0  0  0  0  0  0  0  0  0  0  0
  190.4220  177.7940  144.2180 C   0  0  0  0  0  0  0  0  0  0  0  0
  189.7890  177.7250  145.6100 C   0  0  0  0  0  3  0  0  0  0  0  0
  189.4490  177.6040  143.0170 C   0  0  0  0  0  0  0  0  0  0  0  0
  185.9040  177.8750  143.9160 N   0  0  0  0  0  0  0  0  0  0  0  0
  182.8510  177.7760  137.9290 C   0  0  0  0  0  2  0  0  0  0  0  0
  181.9660  175.4970  138.0580 N   0  0  0  0  0  0  0  0  0  0  0  0
  182.4090  176.5440  138.6630 C   0  0  0  0  0  3  0  0  0  0  0  0
  181.8540  175.4140  136.6210 C   0  0  0  0  0  2  0  0  0  0  0  0
  180.2950  174.0240  135.4830 O   0  0  0  0  0  0  0  0  0  0  0  0
  181.3050  174.0850  136.2370 C   0  0  0  0  0  0  0  0  0  0  0  0
  181.9020  172.9260  136.7330 O   0  0  0  0  0  0  0  0  0  0  0  0
  183.2050  170.9130  136.7320 C   0  0  0  0  0  2  0  0  0  0  0  0
  184.1060  172.0710  136.3550 C   0  0  0  0  0  2  0  0  0  0  0  0
  182.6610  172.0570  135.9010 C   0  0  0  0  0  3  0  0  0  0  0  0
  185.2690  176.6380  136.7820 C   0  0  0  0  0  2  0  0  0  0  0  0
  186.6590  176.4520  136.1960 C   0  0  0  0  0  2  0  0  0  0  0  0
  187.3620  175.3410  136.9060 C   0  0  0  0  0  0  0  0  0  0  0  0
  188.7730  175.3870  137.1300 N   0  0  0  0  0  2  0  0  0  0  0  0
  186.6990  174.3620  137.3360 O   0  0  0  0  0  0  0  0  0  0  0  0
  189.9090  177.5080  137.2850 C   0  0  0  0  0  3  0  0  0  0  0  0
  189.6040  176.4160  136.5890 C   0  0  0  0  0  3  0  0  0  0  0  0
  190.5010  177.4840  139.6660 C   0  0  0  0  0  1  0  0  0  0  0  0
  189.3950  177.7620  138.6650 C   0  0  1  0  0  3  0  0  0  0  0  0
  188.9970  179.0960  138.7780 O   0  0  0  0  0  0  0  0  0  0  0  0
  188.9520  179.5400  137.5380 O   0  0  0  0  0  1  0  0  0  0  0  0
  1  2  2  0  0  0  0
  2  5  1  0  0  0  0
  3  5  2  0  0  0  0
  4  6  1  0  0  0  0
  4  8  1  0  0  0  0
  5  4  1  0  0  0  0
  6  7  2  0  0  0  0
  9  8  1  0  0  0  0
  9 10  1  0  0  0  0
 10 11  1  0  0  0  0
 10 22  2  0  0  0  0
 11 16  1  0  0  0  0
 13 15  1  0  0  0  0
 14 15  1  0  0  0  0
 15 12  1  0  0  0  0
 16 18  1  0  0  0  0
 16 14  2  0  0  0  0
 17 19  1  0  0  0  0
 18 13  1  0  0  0  0
 19 20  2  3  0  0  0
 20 14  1  0  0  0  0
 21 11  2  3  0  0  0
 21 17  1  0  0  0  0
 21 19  1  0  0  0  0
 22 18  1  0  0  0  0
 23  2  1  0  0  0  0
 23 25  1  0  0  0  0
 24 25  2  0  0  0  0
 26 24  1  0  0  0  0
 27 28  2  0  0  0  0
 28 26  1  0  0  0  0
 28 29  1  0  0  0  0
 31 30  1  0  0  0  0
 32 31  1  0  0  0  0
 32 30  1  0  0  0  0
 32 29  1  0  0  0  0
 33  1  1  0  0  0  0
 34 33  1  0  0  0  0
 34 35  1  0  0  0  0
 35 36  1  0  0  0  0
 35 37  2  0  0  0  0
 38 41  1  0  0  0  0
 39 36  1  0  0  0  0
 39 38  2  0  0  0  0
 41 42  1  0  0  0  0
 41 40  1  1  0  0  0
 43 42  1  0  0  0  0
M  END
>  <MODEL>
3

>  <REMARK>
 VINA RESULT:      -7.3      3.075      6.361
  Name = 
  17 active torsions:
  status: ('A' for Active; 'I' for Inactive)
    1  A    between atoms: C_2  and  C_6
    2  A    between atoms: N_3  and  C_29
    3  A    between atoms: C_4  and  C_40
    4  A    between atoms: C_5  and  C_6
    5  A    between atoms: C_5  and  N_11
    6  A    between atoms: C_10  and  C_39
    7  A    between atoms: N_11  and  C_12
    8  A    between atoms: N_13  and  C_20
    9  A    between atoms: C_19  and  C_26
   10  A    between atoms: C_20  and  C_38
   11  A    between atoms: C_22  and  N_37
   12  A    between atoms: C_26  and  C_31
   13  A    between atoms: O_27  and  C_36
   14  A    between atoms: O_27  and  C_38
   15  A    between atoms: O_28  and  C_39
   16  A    between atoms: C_29  and  C_40
   17  A    between atoms: C_31  and  C_43
                            x       y       z     vdW  Elec       q    Type
                         _______ _______ _______ _____ _____    ______ ____

>  <TORSDO>
F 17

$$$$
=
 OpenBabel10222415183D

 43 47  0  0  1  0  0  0  0  0999 V2000
  189.5660  176.7050  137.5290 N   0  0  0  0  0  0  0  0  0  0  0  0
  188.9320  177.6600  138.1470 C   0  0  0  0  0  0  0  0  0  0  0  0
  187.8460  179.3840  136.9430 O   0  0  0  0  0  0  0  0  0  0  0  0
  186.4580  177.6150  137.5690 N   0  0  0  0  0  0  0  0  0  0  0  0
  187.7420  178.2660  137.5180 C   0  0  0  0  0  0  0  0  0  0  0  0
  186.2550  176.2520  137.1680 C   0  0  0  0  0  3  0  0  0  0  0  0
  185.0520  175.6900  137.1230 C   0  0  0  0  0  2  0  0  0  0  0  0
  185.2790  178.3800  137.9490 C   0  0  0  0  0  2  0  0  0  0  0  0
  185.4330  178.9220  139.3600 C   0  0  0  0  0  2  0  0  0  0  0  0
  184.3050  178.4570  140.2180 C   0  0  0  0  0  0  0  0  0  0  0  0
  184.3440  178.3520  141.6050 C   0  0  0  0  0  0  0  0  0  0  0  0
  180.1330  179.9760  143.1640 C   0  0  0  0  0  1  0  0  0  0  0  0
  180.9620  178.6180  141.1400 C   0  0  0  0  0  2  0  0  0  0  0  0
  182.3850  178.7830  142.9880 C   0  0  0  0  0  0  0  0  0  0  0  0
  181.0460  179.0230  142.5540 N   0  0  0  0  0  0  0  0  0  0  0  0
  183.0420  178.1080  141.9260 C   0  0  0  0  0  0  0  0  0  0  0  0
  185.2730  178.2710  143.9070 C   0  0  0  0  0  2  0  0  0  0  0  0
  182.2810  178.0570  140.8440 N   0  0  0  0  0  0  0  0  0  0  0  0
  184.6050  179.6330  143.8170 C   0  0  0  0  0  0  0  0  0  0  0  0
  183.0750  179.5570  143.8370 C   0  0  0  0  0  3  0  0  0  0  0  0
  185.3020  179.0100  142.5720 C   0  0  0  0  0  0  0  0  0  0  0  0
  183.0260  178.3220  139.7800 N   0  0  0  0  0  0  0  0  0  0  0  0
  189.3690  178.1300  139.5050 C   0  0  0  0  0  2  0  0  0  0  0  0
  188.9980  177.2290  141.7500 N   0  0  0  0  0  0  0  0  0  0  0  0
  188.5360  177.4890  140.5770 C   0  0  0  0  0  3  0  0  0  0  0  0
  190.3540  177.5280  142.1410 C   0  0  0  0  0  2  0  0  0  0  0  0
  191.4410  178.5840  143.9750 O   0  0  0  0  0  0  0  0  0  0  0  0
  190.3640  178.1270  143.5040 C   0  0  0  0  0  0  0  0  0  0  0  0
  189.1860  178.1530  144.2510 O   0  0  0  0  0  0  0  0  0  0  0  0
  188.3020  177.6800  146.4280 C   0  0  0  0  0  2  0  0  0  0  0  0
  189.7220  177.1570  146.3600 C   0  0  0  0  0  2  0  0  0  0  0  0
  188.8330  177.0970  145.1350 C   0  0  0  0  0  3  0  0  0  0  0  0
  190.7410  176.0180  138.0510 C   0  0  0  0  0  2  0  0  0  0  0  0
  191.9780  176.4170  137.2640 C   0  0  0  0  0  2  0  0  0  0  0  0
  193.1820  176.3520  138.1470 C   0  0  0  0  0  0  0  0  0  0  0  0
  194.3090  175.5470  137.7970 N   0  0  0  0  0  2  0  0  0  0  0  0
  193.2130  177.0340  139.2040 O   0  0  0  0  0  0  0  0  0  0  0  0
  195.4200  174.0740  136.2440 C   0  0  0  0  0  3  0  0  0  0  0  0
  194.3080  174.6730  136.6670 C   0  0  0  0  0  3  0  0  0  0  0  0
  197.2590  172.9530  137.4180 C   0  0  0  0  0  1  0  0  0  0  0  0
  196.7510  174.2820  136.8900 C   0  0  1  0  0  3  0  0  0  0  0  0
  197.6550  174.7800  135.9490 O   0  0  0  0  0  0  0  0  0  0  0  0
  197.7370  176.0690  136.2090 O   0  0  0  0  0  1  0  0  0  0  0  0
  1 33  1  0  0  0  0
  1  2  2  0  0  0  0
  2 23  1  0  0  0  0
  3  5  2  0  0  0  0
  4  8  1  0  0  0  0
  5  4  1  0  0  0  0
  5  2  1  0  0  0  0
  6  4  1  0  0  0  0
  7  6  2  0  0  0  0
  8  9  1  0  0  0  0
  9 10  1  0  0  0  0
 10 11  1  0  0  0  0
 11 16  2  0  0  0  0
 11 21  1  0  0  0  0
 13 15  1  0  0  0  0
 14 20  2  0  0  0  0
 15 14  1  0  0  0  0
 15 12  1  0  0  0  0
 16 14  1  0  0  0  0
 18 13  1  0  0  0  0
 18 16  1  0  0  0  0
 19 20  1  0  0  0  0
 19 17  1  0  0  0  0
 21 19  2  0  0  0  0
 21 17  1  0  0  0  0
 22 10  2  0  0  0  0
 22 18  1  0  0  0  0
 23 25  1  0  0  0  0
 24 26  1  0  0  0  0
 25 24  2  0  0  0  0
 26 28  1  0  0  0  0
 28 27  2  0  0  0  0
 28 29  1  0  0  0  0
 29 32  1  0  0  0  0
 31 30  1  0  0  0  0
 32 31  1  0  0  0  0
 32 30  1  0  0  0  0
 34 33  1  0  0  0  0
 34 35  1  0  0  0  0
 35 37  2  0  0  0  0
 36 35  1  0  0  0  0
 38 39  2  0  0  0  0
 38 41  1  0  0  0  0
 39 36  1  0  0  0  0
 41 40  1  6  0  0  0
 42 43  1  0  0  0  0
 42 41  1  0  0  0  0
M  END
>  <MODEL>
4

>  <REMARK>
 VINA RESULT:      -7.0      3.991     10.558
  Name = 
  17 active torsions:
  status: ('A' for Active; 'I' for Inactive)
    1  A    between atoms: C_2  and  C_6
    2  A    between atoms: N_3  and  C_29
    3  A    between atoms: C_4  and  C_40
    4  A    between atoms: C_5  and  C_6
    5  A    between atoms: C_5  and  N_11
    6  A    between atoms: C_10  and  C_39
    7  A    between atoms: N_11  and  C_12
    8  A    between atoms: N_13  and  C_20
    9  A    between atoms: C_19  and  C_26
   10  A    between atoms: C_20  and  C_38
   11  A    between atoms: C_22  and  N_37
   12  A    between atoms: C_26  and  C_31
   13  A    between atoms: O_27  and  C_36
   14  A    between atoms: O_27  and  C_38
   15  A    between atoms: O_28  and  C_39
   16  A    between atoms: C_29  and  C_40
   17  A    between atoms: C_31  and  C_43
                            x       y       z     vdW  Elec       q    Type
                         _______ _______ _______ _____ _____    ______ ____

>  <TORSDO>
F 17

$$$$
=
 OpenBabel10222415183D

 43 47  0  0  1  0  0  0  0  0999 V2000
  189.9300  174.6630  137.8000 N   0  0  0  0  0  0  0  0  0  0  0  0
  190.5610  175.7700  138.0710 C   0  0  0  0  0  0  0  0  0  0  0  0
  190.5750  176.2770  140.3820 O   0  0  0  0  0  0  0  0  0  0  0  0
  189.2360  177.6840  139.0880 N   0  0  0  0  0  0  0  0  0  0  0  0
  190.1450  176.5760  139.2350 C   0  0  0  0  0  0  0  0  0  0  0  0
  189.4410  178.7440  138.1420 C   0  0  0  0  0  3  0  0  0  0  0  0
  188.6570  178.9190  137.0830 C   0  0  0  0  0  2  0  0  0  0  0  0
  188.1040  177.8100  139.9940 C   0  0  0  0  0  2  0  0  0  0  0  0
  188.4930  178.6240  141.2170 C   0  0  0  0  0  2  0  0  0  0  0  0
  188.1730  177.8710  142.4640 C   0  0  0  0  0  0  0  0  0  0  0  0
  189.1110  177.3150  143.3280 C   0  0  0  0  0  0  0  0  0  0  0  0
  187.5260  178.2160  147.7410 C   0  0  0  0  0  1  0  0  0  0  0  0
  186.4600  177.6260  145.4730 C   0  0  0  0  0  2  0  0  0  0  0  0
  188.7460  177.2110  145.7350 C   0  0  0  0  0  0  0  0  0  0  0  0
  187.5580  177.5440  146.4520 N   0  0  0  0  0  0  0  0  0  0  0  0
  188.3530  176.9430  144.3980 C   0  0  0  0  0  0  0  0  0  0  0  0
  191.3000  176.5060  144.1770 C   0  0  0  0  0  2  0  0  0  0  0  0
  187.0750  177.2310  144.2050 N   0  0  0  0  0  0  0  0  0  0  0  0
  191.0580  177.8030  144.9320 C   0  0  0  0  0  0  0  0  0  0  0  0
  189.9720  177.6810  146.0050 C   0  0  0  0  0  3  0  0  0  0  0  0
  190.5810  177.6440  143.4590 C   0  0  0  0  0  0  0  0  0  0  0  0
  186.9430  177.8520  143.0420 N   0  0  0  0  0  0  0  0  0  0  0  0
  191.7290  176.2220  137.2410 C   0  0  0  0  0  2  0  0  0  0  0  0
  193.8770  176.0070  138.3930 N   0  0  0  0  0  0  0  0  0  0  0  0
  192.8390  176.7180  138.1200 C   0  0  0  0  0  3  0  0  0  0  0  0
  194.0680  174.6710  137.8810 C   0  0  0  0  0  2  0  0  0  0  0  0
  195.3480  172.9650  138.9340 O   0  0  0  0  0  0  0  0  0  0  0  0
  195.3430  174.1100  138.4030 C   0  0  0  0  0  0  0  0  0  0  0  0
  196.5120  174.8660  138.3180 O   0  0  0  0  0  0  0  0  0  0  0  0
  197.2070  173.5210  136.4600 C   0  0  0  0  0  2  0  0  0  0  0  0
  198.4200  173.8260  137.3140 C   0  0  0  0  0  2  0  0  0  0  0  0
  197.3270  174.8620  137.1520 C   0  0  0  0  0  3  0  0  0  0  0  0
  190.2560  173.7750  136.6900 C   0  0  0  0  0  2  0  0  0  0  0  0
  189.0670  173.6460  135.7520 C   0  0  0  0  0  2  0  0  0  0  0  0
  187.8090  173.5100  136.5450 C   0  0  0  0  0  0  0  0  0  0  0  0
  186.7730  174.4890  136.4560 N   0  0  0  0  0  2  0  0  0  0  0  0
  187.6480  172.5050  137.2850 O   0  0  0  0  0  0  0  0  0  0  0  0
  186.1090  176.7400  135.8970 C   0  0  0  0  0  3  0  0  0  0  0  0
  186.9230  175.7020  135.7150 C   0  0  0  0  0  3  0  0  0  0  0  0
  185.1410  177.8420  137.8620 C   0  0  0  0  0  1  0  0  0  0  0  0
  184.9670  176.7160  136.8600 C   0  0  1  0  0  3  0  0  0  0  0  0
  183.7670  176.8980  136.1680 O   0  0  0  0  0  0  0  0  0  0  0  0
  182.9980  175.9030  136.5610 O   0  0  0  0  0  1  0  0  0  0  0  0
  1  2  2  0  0  0  0
  2  5  1  0  0  0  0
  4  5  1  0  0  0  0
  4  8  1  0  0  0  0
  5  3  2  0  0  0  0
  6  4  1  0  0  0  0
  7  6  2  0  0  0  0
  8  9  1  0  0  0  0
  9 10  1  0  0  0  0
 10 22  2  0  0  0  0
 10 11  1  0  0  0  0
 11 21  2  3  0  0  0
 11 16  1  0  0  0  0
 13 15  1  0  0  0  0
 14 20  1  0  0  0  0
 14 15  1  0  0  0  0
 15 12  1  0  0  0  0
 16 14  2  0  0  0  0
 17 19  1  0  0  0  0
 18 16  1  0  0  0  0
 18 13  1  0  0  0  0
 19 20  2  3  0  0  0
 21 17  1  0  0  0  0
 21 19  1  0  0  0  0
 22 18  1  0  0  0  0
 23  2  1  0  0  0  0
 23 25  1  0  0  0  0
 25 24  2  0  0  0  0
 26 24  1  0  0  0  0
 26 28  1  0  0  0  0
 28 27  2  0  0  0  0
 29 28  1  0  0  0  0
 30 32  1  0  0  0  0
 30 31  1  0  0  0  0
 32 31  1  0  0  0  0
 32 29  1  0  0  0  0
 33  1  1  0  0  0  0
 34 35  1  0  0  0  0
 34 33  1  0  0  0  0
 35 37  2  0  0  0  0
 36 35  1  0  0  0  0
 38 41  1  0  0  0  0
 39 38  2  0  0  0  0
 39 36  1  0  0  0  0
 41 40  1  1  0  0  0
 42 43  1  0  0  0  0
 42 41  1  0  0  0  0
M  END
>  <MODEL>
5

>  <REMARK>
 VINA RESULT:      -7.0      4.246      7.541
  Name = 
  17 active torsions:
  status: ('A' for Active; 'I' for Inactive)
    1  A    between atoms: C_2  and  C_6
    2  A    between atoms: N_3  and  C_29
    3  A    between atoms: C_4  and  C_40
    4  A    between atoms: C_5  and  C_6
    5  A    between atoms: C_5  and  N_11
    6  A    between atoms: C_10  and  C_39
    7  A    between atoms: N_11  and  C_12
    8  A    between atoms: N_13  and  C_20
    9  A    between atoms: C_19  and  C_26
   10  A    between atoms: C_20  and  C_38
   11  A    between atoms: C_22  and  N_37
   12  A    between atoms: C_26  and  C_31
   13  A    between atoms: O_27  and  C_36
   14  A    between atoms: O_27  and  C_38
   15  A    between atoms: O_28  and  C_39
   16  A    between atoms: C_29  and  C_40
   17  A    between atoms: C_31  and  C_43
                            x       y       z     vdW  Elec       q    Type
                         _______ _______ _______ _____ _____    ______ ____

>  <TORSDO>
F 17

$$$$
=
 OpenBabel10222415183D

 43 47  0  0  1  0  0  0  0  0999 V2000
  188.8340  177.6050  140.0270 N   0  0  0  0  0  0  0  0  0  0  0  0
  188.9850  177.7080  138.7380 C   0  0  0  0  0  0  0  0  0  0  0  0
  188.0200  179.3710  137.3590 O   0  0  0  0  0  0  0  0  0  0  0  0
  186.6420  177.5320  137.7700 N   0  0  0  0  0  0  0  0  0  0  0  0
  187.8820  178.2500  137.9200 C   0  0  0  0  0  0  0  0  0  0  0  0
  186.5780  176.1590  137.3550 C   0  0  0  0  0  3  0  0  0  0  0  0
  186.6740  175.7910  136.0820 C   0  0  0  0  0  2  0  0  0  0  0  0
  185.3800  178.2340  137.9480 C   0  0  0  0  0  2  0  0  0  0  0  0
  185.3670  178.9710  139.2760 C   0  0  0  0  0  2  0  0  0  0  0  0
  184.2080  178.5270  140.1030 C   0  0  0  0  0  0  0  0  0  0  0  0
  184.2160  178.3940  141.4880 C   0  0  0  0  0  0  0  0  0  0  0  0
  180.0300  180.1240  142.9990 C   0  0  0  0  0  1  0  0  0  0  0  0
  180.8550  178.7790  140.9640 C   0  0  0  0  0  2  0  0  0  0  0  0
  182.2450  178.8620  142.8420 C   0  0  0  0  0  0  0  0  0  0  0  0
  180.9240  179.1540  142.3880 N   0  0  0  0  0  0  0  0  0  0  0  0
  182.9010  178.1870  141.7800 C   0  0  0  0  0  0  0  0  0  0  0  0
  185.0970  178.2390  143.8060 C   0  0  0  0  0  2  0  0  0  0  0  0
  182.1610  178.1810  140.6820 N   0  0  0  0  0  0  0  0  0  0  0  0
  184.4750  179.6230  143.7300 C   0  0  0  0  0  0  0  0  0  0  0  0
  182.9440  179.5970  143.7190 C   0  0  0  0  0  3  0  0  0  0  0  0
  185.1760  179.0020  142.4860 C   0  0  0  0  0  0  0  0  0  0  0  0
  182.9340  178.4420  139.6380 N   0  0  0  0  0  0  0  0  0  0  0  0
  190.2740  177.3180  138.0720 C   0  0  0  0  0  2  0  0  0  0  0  0
  191.3920  175.1460  137.9240 N   0  0  0  0  0  0  0  0  0  0  0  0
  190.3120  175.8390  137.8220 C   0  0  0  0  0  3  0  0  0  0  0  0
  192.6630  175.7280  138.2850 C   0  0  0  0  0  2  0  0  0  0  0  0
  193.2310  175.9810  135.9890 O   0  0  0  0  0  0  0  0  0  0  0  0
  193.6070  175.6240  137.1390 C   0  0  0  0  0  0  0  0  0  0  0  0
  194.8880  175.1130  137.3480 O   0  0  0  0  0  0  0  0  0  0  0  0
  196.6550  173.9160  138.4400 C   0  0  0  0  0  2  0  0  0  0  0  0
  195.4630  172.9920  138.2990 C   0  0  0  0  0  2  0  0  0  0  0  0
  195.2510  174.4690  138.5640 C   0  0  0  0  0  3  0  0  0  0  0  0
  189.8520  177.1010  140.9420 C   0  0  0  0  0  2  0  0  0  0  0  0
  189.4210  177.3180  142.3830 C   0  0  0  0  0  2  0  0  0  0  0  0
  190.0380  176.2750  143.2570 C   0  0  0  0  0  0  0  0  0  0  0  0
  190.4630  176.5860  144.5850 N   0  0  0  0  0  2  0  0  0  0  0  0
  190.1620  175.1000  142.8270 O   0  0  0  0  0  0  0  0  0  0  0  0
  189.6530  178.2590  146.1220 C   0  0  0  0  0  3  0  0  0  0  0  0
  190.4440  177.9160  145.1070 C   0  0  0  0  0  3  0  0  0  0  0  0
  188.5090  177.7140  148.2220 C   0  0  0  0  0  1  0  0  0  0  0  0
  188.7110  177.3010  146.7760 C   0  0  1  0  0  3  0  0  0  0  0  0
  187.4810  177.3290  146.1140 O   0  0  0  0  0  0  0  0  0  0  0  0
  186.6400  177.8450  146.9870 O   0  0  0  0  0  1  0  0  0  0  0  0
  1 33  1  0  0  0  0
  2  1  2  0  0  0  0
  3  5  2  0  0  0  0
  4  5  1  0  0  0  0
  4  8  1  0  0  0  0
  5  2  1  0  0  0  0
  6  4  1  0  0  0  0
  7  6  2  0  0  0  0
  8  9  1  0  0  0  0
  9 10  1  0  0  0  0
 10 11  1  0  0  0  0
 11 16  2  0  0  0  0
 11 21  1  0  0  0  0
 13 15  1  0  0  0  0
 14 20  2  0  0  0  0
 15 14  1  0  0  0  0
 15 12  1  0  0  0  0
 16 14  1  0  0  0  0
 18 13  1  0  0  0  0
 18 16  1  0  0  0  0
 19 17  1  0  0  0  0
 20 19  1  0  0  0  0
 21 19  2  0  0  0  0
 21 17  1  0  0  0  0
 22 10  2  0  0  0  0
 22 18  1  0  0  0  0
 23  2  1  0  0  0  0
 24 26  1  0  0  0  0
 25 24  2  0  0  0  0
 25 23  1  0  0  0  0
 27 28  2  0  0  0  0
 28 29  1  0  0  0  0
 28 26  1  0  0  0  0
 29 32  1  0  0  0  0
 30 32  1  0  0  0  0
 31 30  1  0  0  0  0
 31 32  1  0  0  0  0
 33 34  1  0  0  0  0
 34 35  1  0  0  0  0
 35 36  1  0  0  0  0
 36 39  1  0  0  0  0
 37 35  2  0  0  0  0
 38 41  1  0  0  0  0
 39 38  2  0  0  0  0
 41 40  1  1  0  0  0
 42 41  1  0  0  0  0
 42 43  1  0  0  0  0
M  END
>  <MODEL>
6

>  <REMARK>
 VINA RESULT:      -7.0      3.483      9.143
  Name = 
  17 active torsions:
  status: ('A' for Active; 'I' for Inactive)
    1  A    between atoms: C_2  and  C_6
    2  A    between atoms: N_3  and  C_29
    3  A    between atoms: C_4  and  C_40
    4  A    between atoms: C_5  and  C_6
    5  A    between atoms: C_5  and  N_11
    6  A    between atoms: C_10  and  C_39
    7  A    between atoms: N_11  and  C_12
    8  A    between atoms: N_13  and  C_20
    9  A    between atoms: C_19  and  C_26
   10  A    between atoms: C_20  and  C_38
   11  A    between atoms: C_22  and  N_37
   12  A    between atoms: C_26  and  C_31
   13  A    between atoms: O_27  and  C_36
   14  A    between atoms: O_27  and  C_38
   15  A    between atoms: O_28  and  C_39
   16  A    between atoms: C_29  and  C_40
   17  A    between atoms: C_31  and  C_43
                            x       y       z     vdW  Elec       q    Type
                         _______ _______ _______ _____ _____    ______ ____

>  <TORSDO>
F 17

$$$$
=
 OpenBabel10222415183D

 43 47  0  0  1  0  0  0  0  0999 V2000
  183.9400  177.4700  137.5130 N   0  0  0  0  0  0  0  0  0  0  0  0
  184.8570  178.1960  138.0840 C   0  0  0  0  0  0  0  0  0  0  0  0
  184.5480  180.3150  139.0930 O   0  0  0  0  0  0  0  0  0  0  0  0
  184.0980  178.5000  140.4900 N   0  0  0  0  0  0  0  0  0  0  0  0
  184.4930  179.0620  139.2230 C   0  0  0  0  0  0  0  0  0  0  0  0
  183.0660  177.5090  140.6190 C   0  0  0  0  0  3  0  0  0  0  0  0
  181.7780  177.7910  140.4500 C   0  0  0  0  0  2  0  0  0  0  0  0
  184.6870  179.0110  141.7180 C   0  0  0  0  0  2  0  0  0  0  0  0
  186.1640  178.6610  141.7820 C   0  0  0  0  0  2  0  0  0  0  0  0
  186.4690  177.9360  143.0490 C   0  0  0  0  0  0  0  0  0  0  0  0
  187.6400  177.2300  143.3070 C   0  0  0  0  0  0  0  0  0  0  0  0
  188.8300  178.2570  147.8150 C   0  0  0  0  0  1  0  0  0  0  0  0
  186.6390  177.8800  146.5160 C   0  0  0  0  0  2  0  0  0  0  0  0
  188.6230  177.1280  145.5340 C   0  0  0  0  0  0  0  0  0  0  0  0
  188.0690  177.6160  146.7550 N   0  0  0  0  0  0  0  0  0  0  0  0
  187.5380  176.9500  144.6360 C   0  0  0  0  0  0  0  0  0  0  0  0
  189.8080  176.0890  142.8940 C   0  0  0  0  0  2  0  0  0  0  0  0
  186.4110  177.4260  145.1430 N   0  0  0  0  0  0  0  0  0  0  0  0
  190.1900  177.3900  143.5800 C   0  0  0  0  0  0  0  0  0  0  0  0
  189.8510  177.4060  145.0740 C   0  0  0  0  0  3  0  0  0  0  0  0
  188.9760  177.3360  142.6070 C   0  0  0  0  0  0  0  0  0  0  0  0
  185.7580  178.0850  144.1970 N   0  0  0  0  0  0  0  0  0  0  0  0
  186.2880  178.1410  137.6280 C   0  0  0  0  0  2  0  0  0  0  0  0
  188.4510  178.5340  138.7030 N   0  0  0  0  0  0  0  0  0  0  0  0
  187.2170  178.1790  138.8050 C   0  0  0  0  0  3  0  0  0  0  0  0
  189.0510  178.9240  137.4500 C   0  0  0  0  0  2  0  0  0  0  0  0
  189.4790  177.3640  135.7060 O   0  0  0  0  0  0  0  0  0  0  0  0
  189.7820  177.7690  136.8620 C   0  0  0  0  0  0  0  0  0  0  0  0
  190.7780  177.1360  137.6050 O   0  0  0  0  0  0  0  0  0  0  0  0
  192.5830  175.6010  137.9720 C   0  0  0  0  0  2  0  0  0  0  0  0
  192.5780  175.9990  136.5110 C   0  0  0  0  0  2  0  0  0  0  0  0
  191.2700  175.8470  137.2580 C   0  0  0  0  0  3  0  0  0  0  0  0
  184.1770  176.5680  136.3930 C   0  0  0  0  0  2  0  0  0  0  0  0
  182.9770  175.6590  136.1840 C   0  0  0  0  0  2  0  0  0  0  0  0
  182.9340  174.6220  137.2590 C   0  0  0  0  0  0  0  0  0  0  0  0
  183.5790  173.3590  137.0900 N   0  0  0  0  0  2  0  0  0  0  0  0
  182.3420  174.8750  138.3410 O   0  0  0  0  0  0  0  0  0  0  0  0
  185.5060  172.9850  135.6880 C   0  0  0  0  0  3  0  0  0  0  0  0
  184.1850  172.9650  135.8570 C   0  0  0  0  0  3  0  0  0  0  0  0
  187.5140  172.3750  136.9590 C   0  0  0  0  0  1  0  0  0  0  0  0
  186.4540  173.4400  136.7500 C   0  0  1  0  0  3  0  0  0  0  0  0
  187.0680  174.6290  136.3490 O   0  0  0  0  0  0  0  0  0  0  0  0
  187.8090  174.9890  137.3780 O   0  0  0  0  0  1  0  0  0  0  0  0
  1  2  2  0  0  0  0
  2  5  1  0  0  0  0
  3  5  2  0  0  0  0
  4  6  1  0  0  0  0
  4  8  1  0  0  0  0
  5  4  1  0  0  0  0
  7  6  2  0  0  0  0
  8  9  1  0  0  0  0
  9 10  1  0  0  0  0
 10 11  1  0  0  0  0
 10 22  2  0  0  0  0
 11 16  1  0  0  0  0
 13 15  1  0  0  0  0
 14 15  1  0  0  0  0
 15 12  1  0  0  0  0
 16 18  1  0  0  0  0
 16 14  2  0  0  0  0
 17 19  1  0  0  0  0
 18 13  1  0  0  0  0
 19 20  2  3  0  0  0
 20 14  1  0  0  0  0
 21 17  1  0  0  0  0
 21 11  2  3  0  0  0
 21 19  1  0  0  0  0
 22 18  1  0  0  0  0
 23  2  1  0  0  0  0
 23 25  1  0  0  0  0
 24 25  2  0  0  0  0
 26 24  1  0  0  0  0
 27 28  2  0  0  0  0
 28 26  1  0  0  0  0
 28 29  1  0  0  0  0
 31 32  1  0  0  0  0
 31 30  1  0  0  0  0
 32 29  1  0  0  0  0
 32 30  1  0  0  0  0
 33  1  1  0  0  0  0
 34 33  1  0  0  0  0
 34 35  1  0  0  0  0
 35 37  2  0  0  0  0
 36 35  1  0  0  0  0
 38 39  2  0  0  0  0
 38 41  1  0  0  0  0
 39 36  1  0  0  0  0
 41 40  1  6  0  0  0
 42 41  1  0  0  0  0
 42 43  1  0  0  0  0
M  END
>  <MODEL>
7

>  <REMARK>
 VINA RESULT:      -6.9      2.995      5.751
  Name = 
  17 active torsions:
  status: ('A' for Active; 'I' for Inactive)
    1  A    between atoms: C_2  and  C_6
    2  A    between atoms: N_3  and  C_29
    3  A    between atoms: C_4  and  C_40
    4  A    between atoms: C_5  and  C_6
    5  A    between atoms: C_5  and  N_11
    6  A    between atoms: C_10  and  C_39
    7  A    between atoms: N_11  and  C_12
    8  A    between atoms: N_13  and  C_20
    9  A    between atoms: C_19  and  C_26
   10  A    between atoms: C_20  and  C_38
   11  A    between atoms: C_22  and  N_37
   12  A    between atoms: C_26  and  C_31
   13  A    between atoms: O_27  and  C_36
   14  A    between atoms: O_27  and  C_38
   15  A    between atoms: O_28  and  C_39
   16  A    between atoms: C_29  and  C_40
   17  A    between atoms: C_31  and  C_43
                            x       y       z     vdW  Elec       q    Type
                         _______ _______ _______ _____ _____    ______ ____

>  <TORSDO>
F 17

$$$$
=
 OpenBabel10222415183D

 43 47  0  0  1  0  0  0  0  0999 V2000
  185.9190  178.4830  139.3220 N   0  0  0  0  0  0  0  0  0  0  0  0
  184.9790  178.6610  140.2050 C   0  0  0  0  0  0  0  0  0  0  0  0
  186.2770  179.9750  141.6840 O   0  0  0  0  0  0  0  0  0  0  0  0
  184.6330  178.6830  142.7220 N   0  0  0  0  0  0  0  0  0  0  0  0
  185.3320  179.1500  141.5520 C   0  0  0  0  0  0  0  0  0  0  0  0
  183.2030  178.7080  142.8410 C   0  0  0  0  0  3  0  0  0  0  0  0
  182.5830  178.7670  144.0150 C   0  0  0  0  0  2  0  0  0  0  0  0
  185.3910  178.2520  143.8880 C   0  0  0  0  0  2  0  0  0  0  0  0
  186.4290  177.2160  143.4910 C   0  0  0  0  0  2  0  0  0  0  0  0
  187.7580  177.5670  144.0700 C   0  0  0  0  0  0  0  0  0  0  0  0
  187.9940  177.8740  145.4060 C   0  0  0  0  0  0  0  0  0  0  0  0
  192.0830  175.6900  146.5520 C   0  0  0  0  0  1  0  0  0  0  0  0
  191.1370  176.8830  144.4750 C   0  0  0  0  0  2  0  0  0  0  0  0
  190.0730  177.2660  146.5220 C   0  0  0  0  0  0  0  0  0  0  0  0
  191.2480  176.7070  145.9340 N   0  0  0  0  0  0  0  0  0  0  0  0
  189.3550  177.8990  145.4740 C   0  0  0  0  0  0  0  0  0  0  0  0
  187.5340  178.4630  147.7750 C   0  0  0  0  0  2  0  0  0  0  0  0
  189.9000  177.6450  144.2950 N   0  0  0  0  0  0  0  0  0  0  0  0
  187.9330  176.9970  147.8210 C   0  0  0  0  0  0  0  0  0  0  0  0
  189.4300  176.7720  147.5890 C   0  0  0  0  0  3  0  0  0  0  0  0
  187.1340  177.5620  146.6090 C   0  0  0  0  0  0  0  0  0  0  0  0
  188.9380  177.3840  143.4220 N   0  0  0  0  0  0  0  0  0  0  0  0
  183.5360  178.4120  139.8660 C   0  0  0  0  0  2  0  0  0  0  0  0
  182.2540  179.8560  138.3620 N   0  0  0  0  0  0  0  0  0  0  0  0
  183.2010  179.0000  138.5270 C   0  0  0  0  0  3  0  0  0  0  0  0
  181.4290  180.3270  139.4480 C   0  0  0  0  0  2  0  0  0  0  0  0
  179.5430  181.7750  139.5400 O   0  0  0  0  0  0  0  0  0  0  0  0
  180.6630  181.5270  139.0140 C   0  0  0  0  0  0  0  0  0  0  0  0
  181.1840  182.3490  138.0140 O   0  0  0  0  0  0  0  0  0  0  0  0
  180.8330  183.7980  136.1370 C   0  0  0  0  0  2  0  0  0  0  0  0
  181.5540  184.5760  137.2180 C   0  0  0  0  0  2  0  0  0  0  0  0
  180.5200  183.5350  137.5950 C   0  0  0  0  0  3  0  0  0  0  0  0
  185.6950  178.0200  137.9570 C   0  0  0  0  0  2  0  0  0  0  0  0
  186.7810  177.0390  137.5480 C   0  0  0  0  0  2  0  0  0  0  0  0
  187.5200  177.5690  136.3620 C   0  0  0  0  0  0  0  0  0  0  0  0
  188.7520  178.2740  136.5170 N   0  0  0  0  0  2  0  0  0  0  0  0
  187.0620  177.3700  135.2070 O   0  0  0  0  0  0  0  0  0  0  0  0
  190.1680  177.8500  138.4220 C   0  0  0  0  0  3  0  0  0  0  0  0
  189.2820  178.6230  137.7970 C   0  0  0  0  0  3  0  0  0  0  0  0
  192.1650  176.6240  137.6950 C   0  0  0  0  0  1  0  0  0  0  0  0
  190.6580  176.5560  137.8580 C   0  0  1  0  0  3  0  0  0  0  0  0
  190.3360  175.5140  138.7310 O   0  0  0  0  0  0  0  0  0  0  0  0
  190.5560  176.0030  139.9350 O   0  0  0  0  0  1  0  0  0  0  0  0
  1  2  2  0  0  0  0
  2  5  1  0  0  0  0
  4  6  1  0  0  0  0
  4  8  1  0  0  0  0
  5  3  2  0  0  0  0
  5  4  1  0  0  0  0
  6  7  2  0  0  0  0
  9  8  1  0  0  0  0
  9 10  1  0  0  0  0
 10 11  1  0  0  0  0
 11 16  2  0  0  0  0
 11 21  1  0  0  0  0
 13 15  1  0  0  0  0
 14 20  2  0  0  0  0
 15 14  1  0  0  0  0
 15 12  1  0  0  0  0
 16 14  1  0  0  0  0
 17 19  1  0  0  0  0
 18 13  1  0  0  0  0
 18 16  1  0  0  0  0
 20 19  1  0  0  0  0
 21 17  1  0  0  0  0
 21 19  2  0  0  0  0
 22 10  2  0  0  0  0
 22 18  1  0  0  0  0
 23  2  1  0  0  0  0
 24 25  2  0  0  0  0
 24 26  1  0  0  0  0
 25 23  1  0  0  0  0
 28 26  1  0  0  0  0
 28 27  2  0  0  0  0
 29 28  1  0  0  0  0
 30 31  1  0  0  0  0
 30 32  1  0  0  0  0
 31 32  1  0  0  0  0
 32 29  1  0  0  0  0
 33  1  1  0  0  0  0
 34 33  1  0  0  0  0
 35 36  1  0  0  0  0
 35 34  1  0  0  0  0
 36 39  1  0  0  0  0
 37 35  2  0  0  0  0
 39 38  2  0  0  0  0
 41 40  1  1  0  0  0
 41 38  1  0  0  0  0
 41 42  1  0  0  0  0
 42 43  1  0  0  0  0
M  END
>  <MODEL>
8

>  <REMARK>
 VINA RESULT:      -6.9      1.726      6.587
  Name = 
  17 active torsions:
  status: ('A' for Active; 'I' for Inactive)
    1  A    between atoms: C_2  and  C_6
    2  A    between atoms: N_3  and  C_29
    3  A    between atoms: C_4  and  C_40
    4  A    between atoms: C_5  and  C_6
    5  A    between atoms: C_5  and  N_11
    6  A    between atoms: C_10  and  C_39
    7  A    between atoms: N_11  and  C_12
    8  A    between atoms: N_13  and  C_20
    9  A    between atoms: C_19  and  C_26
   10  A    between atoms: C_20  and  C_38
   11  A    between atoms: C_22  and  N_37
   12  A    between atoms: C_26  and  C_31
   13  A    between atoms: O_27  and  C_36
   14  A    between atoms: O_27  and  C_38
   15  A    between atoms: O_28  and  C_39
   16  A    between atoms: C_29  and  C_40
   17  A    between atoms: C_31  and  C_43
                            x       y       z     vdW  Elec       q    Type
                         _______ _______ _______ _____ _____    ______ ____

>  <TORSDO>
F 17

$$$$
=
 OpenBabel10222415183D

 43 47  0  0  1  0  0  0  0  0999 V2000
  188.2740  177.7990  140.0700 N   0  0  0  0  0  0  0  0  0  0  0  0
  189.4460  177.3130  139.7780 C   0  0  0  0  0  0  0  0  0  0  0  0
  189.9540  175.7780  141.5060 O   0  0  0  0  0  0  0  0  0  0  0  0
  191.5410  177.4630  141.2080 N   0  0  0  0  0  0  0  0  0  0  0  0
  190.3100  176.8010  140.8600 C   0  0  0  0  0  0  0  0  0  0  0  0
  192.5550  177.7870  140.2440 C   0  0  0  0  0  3  0  0  0  0  0  0
  193.4640  176.9070  139.8390 C   0  0  0  0  0  2  0  0  0  0  0  0
  191.8380  177.7400  142.6050 C   0  0  0  0  0  2  0  0  0  0  0  0
  190.8000  178.6830  143.1900 C   0  0  0  0  0  2  0  0  0  0  0  0
  189.9020  177.9480  144.1270 C   0  0  0  0  0  0  0  0  0  0  0  0
  190.3250  177.0730  145.1220 C   0  0  0  0  0  0  0  0  0  0  0  0
  187.6040  178.0030  148.9340 C   0  0  0  0  0  1  0  0  0  0  0  0
  187.2630  177.9440  146.3820 C   0  0  0  0  0  2  0  0  0  0  0  0
  189.1510  176.8680  147.2470 C   0  0  0  0  0  0  0  0  0  0  0  0
  187.9080  177.4640  147.6180 N   0  0  0  0  0  0  0  0  0  0  0  0
  189.1830  176.8420  145.8280 C   0  0  0  0  0  0  0  0  0  0  0  0
  191.8300  175.5970  146.4380 C   0  0  0  0  0  2  0  0  0  0  0  0
  188.1570  177.5010  145.3110 N   0  0  0  0  0  0  0  0  0  0  0  0
  191.6680  176.8370  147.3010 C   0  0  0  0  0  0  0  0  0  0  0  0
  190.2870  176.9410  147.9550 C   0  0  0  0  0  3  0  0  0  0  0  0
  191.6960  176.9530  145.7480 C   0  0  0  0  0  0  0  0  0  0  0  0
  188.5840  178.2330  144.2920 N   0  0  0  0  0  0  0  0  0  0  0  0
  189.9200  177.2290  138.3540 C   0  0  0  0  0  2  0  0  0  0  0  0
  189.4820  175.0280  137.3770 N   0  0  0  0  0  0  0  0  0  0  0  0
  190.2850  175.8160  138.0030 C   0  0  0  0  0  3  0  0  0  0  0  0
  188.1610  175.4300  136.9580 C   0  0  0  0  0  2  0  0  0  0  0  0
  188.1880  173.2930  135.9140 O   0  0  0  0  0  0  0  0  0  0  0  0
  187.5220  174.3290  136.1860 C   0  0  0  0  0  0  0  0  0  0  0  0
  186.2020  174.4680  135.7560 O   0  0  0  0  0  0  0  0  0  0  0  0
  185.5970  173.0540  137.5950 C   0  0  0  0  0  2  0  0  0  0  0  0
  184.9100  172.5420  136.3460 C   0  0  0  0  0  2  0  0  0  0  0  0
  185.1040  174.0300  136.5470 C   0  0  0  0  0  3  0  0  0  0  0  0
  187.3270  178.3190  139.0920 C   0  0  0  0  0  2  0  0  0  0  0  0
  185.9110  177.9070  139.4580 C   0  0  0  0  0  2  0  0  0  0  0  0
  185.1520  179.0940  139.9570 C   0  0  0  0  0  0  0  0  0  0  0  0
  184.9980  179.3340  141.3560 N   0  0  0  0  0  2  0  0  0  0  0  0
  184.6610  179.9080  139.1320 O   0  0  0  0  0  0  0  0  0  0  0  0
  184.9520  178.4170  143.5860 C   0  0  0  0  0  3  0  0  0  0  0  0
  185.4420  178.4060  142.3490 C   0  0  0  0  0  3  0  0  0  0  0  0
  182.5520  178.7740  143.9430 C   0  0  0  0  0  1  0  0  0  0  0  0
  183.9280  179.4040  144.0460 C   0  0  1  0  0  3  0  0  0  0  0  0
  184.1780  179.7510  145.3760 O   0  0  0  0  0  0  0  0  0  0  0  0
  184.0060  178.6340  146.0530 O   0  0  0  0  0  1  0  0  0  0  0  0
  2  1  2  0  0  0  0
  2  5  1  0  0  0  0
  4  8  1  0  0  0  0
  5  4  1  0  0  0  0
  5  3  2  0  0  0  0
  6  4  1  0  0  0  0
  7  6  2  0  0  0  0
  8  9  1  0  0  0  0
  9 10  1  0  0  0  0
 10 22  2  0  0  0  0
 10 11  1  0  0  0  0
 11 21  2  3  0  0  0
 11 16  1  0  0  0  0
 13 15  1  0  0  0  0
 14 15  1  0  0  0  0
 14 20  1  0  0  0  0
 15 12  1  0  0  0  0
 16 14  2  0  0  0  0
 17 19  1  0  0  0  0
 18 16  1  0  0  0  0
 18 13  1  0  0  0  0
 19 20  2  3  0  0  0
 21 17  1  0  0  0  0
 21 19  1  0  0  0  0
 22 18  1  0  0  0  0
 23  2  1  0  0  0  0
 24 25  2  0  0  0  0
 25 23  1  0  0  0  0
 26 24  1  0  0  0  0
 27 28  2  0  0  0  0
 28 26  1  0  0  0  0
 29 28  1  0  0  0  0
 29 32  1  0  0  0  0
 31 32  1  0  0  0  0
 31 30  1  0  0  0  0
 32 30  1  0  0  0  0
 33 34  1  0  0  0  0
 33  1  1  0  0  0  0
 34 35  1  0  0  0  0
 35 36  1  0  0  0  0
 36 39  1  0  0  0  0
 37 35  2  0  0  0  0
 38 41  1  0  0  0  0
 39 38  2  0  0  0  0
 41 40  1  1  0  0  0
 41 42  1  0  0  0  0
 42 43  1  0  0  0  0
M  END
>  <MODEL>
9

>  <REMARK>
 VINA RESULT:      -6.8      3.511      6.127
  Name = 
  17 active torsions:
  status: ('A' for Active; 'I' for Inactive)
    1  A    between atoms: C_2  and  C_6
    2  A    between atoms: N_3  and  C_29
    3  A    between atoms: C_4  and  C_40
    4  A    between atoms: C_5  and  C_6
    5  A    between atoms: C_5  and  N_11
    6  A    between atoms: C_10  and  C_39
    7  A    between atoms: N_11  and  C_12
    8  A    between atoms: N_13  and  C_20
    9  A    between atoms: C_19  and  C_26
   10  A    between atoms: C_20  and  C_38
   11  A    between atoms: C_22  and  N_37
   12  A    between atoms: C_26  and  C_31
   13  A    between atoms: O_27  and  C_36
   14  A    between atoms: O_27  and  C_38
   15  A    between atoms: O_28  and  C_39
   16  A    between atoms: C_29  and  C_40
   17  A    between atoms: C_31  and  C_43
                            x       y       z     vdW  Elec       q    Type
                         _______ _______ _______ _____ _____    ______ ____

>  <TORSDO>
F 17

$$$$
