=
 OpenBabel10222418503D

 42 46  0  0  1  0  0  0  0  0999 V2000
  185.7290  179.4110  142.6620 C   0  0  0  0  0  3  0  0  0  0  0  0
  183.7940  177.9410  141.1880 C   0  0  0  0  0  0  0  0  0  0  0  0
  184.3430  179.3970  143.2340 C   0  0  1  0  0  3  0  0  0  0  0  0
  179.3190  177.8440  140.3260 C   0  0  0  0  0  3  0  0  0  0  0  0
  181.6090  177.0720  140.1790 C   0  0  2  0  0  3  0  0  0  0  0  0
  179.8320  176.0290  138.8990 C   0  0  0  0  0  0  0  0  0  0  0  0
  182.9290  177.0840  140.3730 C   0  0  0  0  0  3  0  0  0  0  0  0
  180.8650  178.8830  141.6770 C   0  0  0  0  0  3  0  0  0  0  0  0
  182.0720  179.2580  142.4160 C   0  0  0  0  0  3  0  0  0  0  0  0
  183.3270  178.8560  142.2530 C   0  0  0  0  0  0  0  0  0  0  0  0
  186.0620  178.6470  141.6220 C   0  0  0  0  0  0  0  0  0  0  0  0
  178.9380  176.9010  139.4270 N   0  0  0  0  0  0  0  0  0  0  0  0
  181.1730  176.1070  139.2620 C   0  0  0  0  0  3  0  0  0  0  0  0
  180.6520  177.9570  140.7420 C   0  0  0  0  0  0  0  0  0  0  0  0
  185.0690  177.8680  140.9390 N   0  0  0  0  0  2  0  0  0  0  0  0
  179.3990  175.0410  137.9520 C   0  0  0  0  0  0  0  0  0  0  0  0
  179.0480  174.2430  137.1900 N   0  0  0  0  0  0  0  0  0  0  0  0
  184.3600  178.5770  144.5240 C   0  0  0  0  0  2  0  0  0  0  0  0
  185.2820  179.1820  145.5730 C   0  0  0  0  0  2  0  0  0  0  0  0
  185.5440  178.2170  146.6260 N   0  0  0  0  0  2  0  0  0  0  0  0
  186.8390  177.7330  146.8220 N   0  0  0  0  0  0  0  0  0  0  0  0
  189.6620  176.6340  143.7600 C   0  0  0  0  0  1  0  0  0  0  0  0
  190.9980  176.4880  147.0910 C   0  0  1  0  0  3  0  0  0  0  0  0
  190.2950  178.7270  144.7200 O   0  0  0  0  0  1  0  0  0  0  0  0
  189.5060  176.7040  147.2780 C   0  0  0  0  0  2  0  0  0  0  0  0
  187.6960  177.7680  145.8550 C   0  0  0  0  0  3  0  0  0  0  0  0
  191.3030  176.7610  145.6210 C   0  0  0  0  0  2  0  0  0  0  0  0
  189.0280  177.2740  146.0330 N   0  0  0  0  0  0  0  0  0  0  0  0
  191.6980  177.3930  147.8870 O   0  0  0  0  0  1  0  0  0  0  0  0
  190.0570  177.3850  145.0180 C   0  0  2  0  0  0  0  0  0  0  0  0
  187.4680  178.6570  141.1320 C   0  0  0  0  0  2  0  0  0  0  0  0
  187.5180  178.2400  139.6720 C   0  0  0  0  0  2  0  0  0  0  0  0
  188.9330  178.3770  139.1330 C   0  0  2  0  0  3  0  0  0  0  0  0
  189.0120  179.4640  138.2630 O   0  0  0  0  0  1  0  0  0  0  0  0
  191.0370  176.7780  140.0480 O   0  0  0  0  0  0  0  0  0  0  0  0
  187.4200  177.4430  136.5090 Cl  0  0  0  0  0  0  0  0  0  0  0  0
  189.3930  177.1140  138.4470 C   0  0  2  0  0  3  0  0  0  0  0  0
  188.7780  176.6260  137.2710 C   0  0  0  0  0  0  0  0  0  0  0  0
  189.2470  175.4540  136.6810 C   0  0  0  0  0  3  0  0  0  0  0  0
  190.8980  175.2460  138.3890 N   0  0  0  0  0  0  0  0  0  0  0  0
  190.4660  176.3850  138.9950 C   0  0  0  0  0  0  0  0  0  0  0  0
  190.3190  174.7720  137.2560 C   0  0  0  0  0  3  0  0  0  0  0  0
  1  3  1  0  0  0  0
  2 10  1  0  0  0  0
  3 18  1  1  0  0  0
  4 14  1  0  0  0  0
  5 13  1  6  0  0  0
  5  7  1  0  0  0  0
  5 14  1  0  0  0  0
  6 13  2  0  0  0  0
  6 12  1  0  0  0  0
  7  2  2  0  0  0  0
  8  9  1  0  0  0  0
 10  9  2  0  0  0  0
 10  3  1  0  0  0  0
 11  1  2  0  0  0  0
 12  4  2  0  0  0  0
 14  8  2  0  0  0  0
 15  2  1  0  0  0  0
 15 11  1  0  0  0  0
 16  6  1  0  0  0  0
 17 16  3  0  0  0  0
 18 19  1  0  0  0  0
 19 20  1  0  0  0  0
 20 21  1  0  0  0  0
 23 25  1  0  0  0  0
 23 29  1  1  0  0  0
 24 30  1  0  0  0  0
 26 28  1  0  0  0  0
 26 21  2  0  0  0  0
 27 23  1  0  0  0  0
 28 25  1  0  0  0  0
 30 22  1  6  0  0  0
 30 27  1  0  0  0  0
 30 28  1  0  0  0  0
 31 11  1  0  0  0  0
 32 31  1  0  0  0  0
 33 34  1  6  0  0  0
 33 32  1  0  0  0  0
 36 38  1  0  0  0  0
 37 41  1  0  0  0  0
 37 33  1  1  0  0  0
 38 37  1  0  0  0  0
 39 42  1  0  0  0  0
 39 38  2  0  0  0  0
 40 41  1  0  0  0  0
 41 35  2  0  0  0  0
 42 40  2  0  0  0  0
M  END
>  <MODEL>
1

>  <REMARK>
 VINA RESULT:      -9.0      0.000      0.000
  Name = 
  9 active torsions:
  status: ('A' for Active; 'I' for Inactive)
    1  A    between atoms: N_5  and  N_10
    2  A    between atoms: C_6  and  C_20
    3  A    between atoms: C_7  and  N_10
    4  A    between atoms: C_7  and  C_13
    5  A    between atoms: C_8  and  C_13
    6  A    between atoms: C_11  and  C_26
    7  A    between atoms: C_15  and  C_30
    8  A    between atoms: C_15  and  C_36
    9  A    between atoms: C_26  and  C_36
                            x       y       z     vdW  Elec       q    Type
                         _______ _______ _______ _____ _____    ______ ____

>  <TORSDO>
F 9

$$$$
=
 OpenBabel10222418503D

 42 46  0  0  1  0  0  0  0  0999 V2000
  190.7840  176.2860  138.9300 C   0  0  0  0  0  3  0  0  0  0  0  0
  188.2070  177.4850  138.8820 C   0  0  0  0  0  0  0  0  0  0  0  0
  189.9720  176.0410  137.6940 C   0  0  1  0  0  3  0  0  0  0  0  0
  184.0500  176.8780  137.1150 C   0  0  0  0  0  3  0  0  0  0  0  0
  185.7550  178.0270  138.3940 C   0  0  0  0  0  0  0  0  0  0  0  0
  183.4640  178.8210  138.3300 C   0  0  0  0  0  0  0  0  0  0  0  0
  186.9460  178.2250  138.9620 C   0  0  0  0  0  3  0  0  0  0  0  0
  186.1910  176.0450  136.9930 C   0  0  0  0  0  3  0  0  0  0  0  0
  187.6370  175.8410  137.0990 C   0  0  0  0  0  3  0  0  0  0  0  0
  188.5270  176.4540  137.8700 C   0  0  0  0  0  0  0  0  0  0  0  0
  190.3850  177.1450  139.8670 C   0  0  0  0  0  0  0  0  0  0  0  0
  183.1270  177.7890  137.5200 N   0  0  0  0  0  0  0  0  0  0  0  0
  184.7750  178.9500  138.7790 C   0  0  0  0  0  3  0  0  0  0  0  0
  185.3870  176.9680  137.5220 C   0  0  2  0  0  3  0  0  0  0  0  0
  189.1020  177.7810  139.7790 N   0  0  0  0  0  2  0  0  0  0  0  0
  182.4670  179.7690  138.7390 C   0  0  0  0  0  0  0  0  0  0  0  0
  181.6600  180.5320  139.0670 N   0  0  0  0  0  0  0  0  0  0  0  0
  190.6240  176.7870  136.5300 C   0  0  0  0  0  2  0  0  0  0  0  0
  191.0240  175.8470  135.4020 C   0  0  0  0  0  2  0  0  0  0  0  0
  192.4630  175.8790  135.2110 N   0  0  0  0  0  2  0  0  0  0  0  0
  193.3120  175.4340  136.2280 N   0  0  0  0  0  0  0  0  0  0  0  0
  197.2210  173.6960  135.7320 C   0  0  0  0  0  1  0  0  0  0  0  0
  196.2910  174.2330  139.1600 C   0  0  1  0  0  3  0  0  0  0  0  0
  197.4350  175.9370  136.5300 O   0  0  0  0  0  1  0  0  0  0  0  0
  195.0240  174.4980  138.3660 C   0  0  0  0  0  2  0  0  0  0  0  0
  194.5700  175.2600  135.9900 C   0  0  0  0  0  3  0  0  0  0  0  0
  197.4400  174.1920  138.1580 C   0  0  0  0  0  2  0  0  0  0  0  0
  195.4570  174.8010  137.0160 N   0  0  0  0  0  0  0  0  0  0  0  0
  196.4960  175.2780  140.0600 O   0  0  0  0  0  1  0  0  0  0  0  0
  196.8900  174.6880  136.8320 C   0  0  2  0  0  0  0  0  0  0  0  0
  191.2600  177.3930  141.0470 C   0  0  0  0  0  2  0  0  0  0  0  0
  190.4150  177.7000  142.2710 C   0  0  0  0  0  2  0  0  0  0  0  0
  190.6300  176.6410  143.3400 C   0  0  2  0  0  3  0  0  0  0  0  0
  190.2630  175.3860  142.8530 O   0  0  0  0  0  1  0  0  0  0  0  0
  191.8400  177.0700  145.8250 O   0  0  0  0  0  0  0  0  0  0  0  0
  187.4730  176.8750  143.1910 Cl  0  0  0  0  0  0  0  0  0  0  0  0
  189.8710  176.9610  144.6040 C   0  0  2  0  0  3  0  0  0  0  0  0
  188.4630  177.0810  144.6290 C   0  0  0  0  0  0  0  0  0  0  0  0
  187.8150  177.3780  145.8280 C   0  0  0  0  0  3  0  0  0  0  0  0
  189.9160  177.4430  146.9540 N   0  0  0  0  0  0  0  0  0  0  0  0
  190.5820  177.1570  145.8040 C   0  0  0  0  0  0  0  0  0  0  0  0
  188.5630  177.5540  146.9910 C   0  0  0  0  0  3  0  0  0  0  0  0
  1 11  2  0  0  0  0
  2  7  1  0  0  0  0
  2 15  1  0  0  0  0
  3 18  1  6  0  0  0
  3 10  1  0  0  0  0
  3  1  1  0  0  0  0
  4 12  2  0  0  0  0
  4 14  1  0  0  0  0
  5 13  1  0  0  0  0
  5  7  2  0  0  0  0
  6 16  1  0  0  0  0
  6 13  2  0  0  0  0
  8  9  2  0  0  0  0
  9 10  1  0  0  0  0
 10  2  2  0  0  0  0
 11 31  1  0  0  0  0
 12  6  1  0  0  0  0
 14  8  1  6  0  0  0
 14  5  1  0  0  0  0
 15 11  1  0  0  0  0
 16 17  3  0  0  0  0
 19 18  1  0  0  0  0
 20 19  1  0  0  0  0
 20 21  1  0  0  0  0
 23 29  1  1  0  0  0
 24 30  1  0  0  0  0
 25 23  1  0  0  0  0
 26 21  2  0  0  0  0
 26 28  1  0  0  0  0
 27 23  1  0  0  0  0
 28 25  1  0  0  0  0
 30 22  1  6  0  0  0
 30 28  1  0  0  0  0
 30 27  1  0  0  0  0
 31 32  1  0  0  0  0
 32 33  1  0  0  0  0
 33 34  1  6  0  0  0
 36 38  1  0  0  0  0
 37 33  1  6  0  0  0
 37 38  1  0  0  0  0
 37 41  1  0  0  0  0
 38 39  2  0  0  0  0
 39 42  1  0  0  0  0
 40 42  2  0  0  0  0
 41 35  2  0  0  0  0
 41 40  1  0  0  0  0
M  END
>  <MODEL>
2

>  <REMARK>
 VINA RESULT:      -8.9      3.660      8.261
  Name = 
  9 active torsions:
  status: ('A' for Active; 'I' for Inactive)
    1  A    between atoms: N_5  and  N_10
    2  A    between atoms: C_6  and  C_20
    3  A    between atoms: C_7  and  N_10
    4  A    between atoms: C_7  and  C_13
    5  A    between atoms: C_8  and  C_13
    6  A    between atoms: C_11  and  C_26
    7  A    between atoms: C_15  and  C_30
    8  A    between atoms: C_15  and  C_36
    9  A    between atoms: C_26  and  C_36
                            x       y       z     vdW  Elec       q    Type
                         _______ _______ _______ _____ _____    ______ ____

>  <TORSDO>
F 9

$$$$
=
 OpenBabel10222418503D

 42 46  0  0  1  0  0  0  0  0999 V2000
  189.6680  176.5270  138.2740 C   0  0  0  0  0  3  0  0  0  0  0  0
  190.3330  176.6590  141.0340 C   0  0  0  0  0  0  0  0  0  0  0  0
  188.8020  177.4170  139.1140 C   0  0  1  0  0  3  0  0  0  0  0  0
  188.4210  177.3680  145.1100 C   0  0  0  0  0  3  0  0  0  0  0  0
  190.2440  176.9410  143.5750 C   0  0  0  0  0  0  0  0  0  0  0  0
  190.5840  176.9670  145.9770 C   0  0  0  0  0  0  0  0  0  0  0  0
  190.8400  176.6910  142.4080 C   0  0  0  0  0  3  0  0  0  0  0  0
  187.9440  177.4700  142.8610 C   0  0  0  0  0  3  0  0  0  0  0  0
  188.0220  177.5150  141.4000 C   0  0  0  0  0  3  0  0  0  0  0  0
  189.0300  177.2040  140.5930 C   0  0  0  0  0  0  0  0  0  0  0  0
  190.7740  175.9680  138.7630 C   0  0  0  0  0  0  0  0  0  0  0  0
  189.2680  177.2290  146.1620 N   0  0  0  0  0  0  0  0  0  0  0  0
  191.0860  176.8160  144.6880 C   0  0  0  0  0  3  0  0  0  0  0  0
  188.8730  177.2430  143.7900 C   0  0  2  0  0  3  0  0  0  0  0  0
  191.1130  176.1070  140.1500 N   0  0  0  0  0  2  0  0  0  0  0  0
  191.4560  176.8280  147.1090 C   0  0  0  0  0  0  0  0  0  0  0  0
  192.1610  176.7170  148.0200 N   0  0  0  0  0  0  0  0  0  0  0  0
  189.0710  178.8690  138.7150 C   0  0  0  0  0  2  0  0  0  0  0  0
  188.9760  179.0750  137.2100 C   0  0  0  0  0  2  0  0  0  0  0  0
  187.5930  178.9770  136.7780 N   0  0  0  0  0  2  0  0  0  0  0  0
  186.5670  178.9500  137.7250 N   0  0  0  0  0  0  0  0  0  0  0  0
  182.5270  177.5970  137.0950 C   0  0  0  0  0  1  0  0  0  0  0  0
  183.2560  178.4640  140.5040 C   0  0  1  0  0  3  0  0  0  0  0  0
  183.7330  175.9620  138.3490 O   0  0  0  0  0  1  0  0  0  0  0  0
  184.4630  178.9390  139.7130 C   0  0  0  0  0  2  0  0  0  0  0  0
  185.5220  178.2160  137.5250 C   0  0  0  0  0  3  0  0  0  0  0  0
  182.4520  177.5560  139.5790 C   0  0  0  0  0  2  0  0  0  0  0  0
  184.4560  178.1760  138.4810 N   0  0  0  0  0  0  0  0  0  0  0  0
  183.6880  177.7350  141.6100 O   0  0  0  0  0  1  0  0  0  0  0  0
  183.3130  177.2930  138.3560 C   0  0  2  0  0  0  0  0  0  0  0  0
  191.6270  175.1380  137.8670 C   0  0  0  0  0  2  0  0  0  0  0  0
  192.3340  176.0190  136.8510 C   0  0  0  0  0  2  0  0  0  0  0  0
  193.8180  176.1070  137.1700 C   0  0  2  0  0  3  0  0  0  0  0  0
  194.4920  176.7650  136.1420 O   0  0  0  0  0  1  0  0  0  0  0  0
  195.1990  175.3930  139.4950 O   0  0  0  0  0  0  0  0  0  0  0  0
  193.4820  173.8910  134.9300 Cl  0  0  0  0  0  0  0  0  0  0  0  0
  194.4180  174.7440  137.4110 C   0  0  2  0  0  3  0  0  0  0  0  0
  194.3180  173.6980  136.4640 C   0  0  0  0  0  0  0  0  0  0  0  0
  194.8940  172.4580  136.7410 C   0  0  0  0  0  3  0  0  0  0  0  0
  195.6470  173.2710  138.8530 N   0  0  0  0  0  0  0  0  0  0  0  0
  195.0960  174.4920  138.6190 C   0  0  0  0  0  0  0  0  0  0  0  0
  195.5620  172.2620  137.9480 C   0  0  0  0  0  3  0  0  0  0  0  0
  1 11  2  0  0  0  0
  1  3  1  0  0  0  0
  2  7  1  0  0  0  0
  3 18  1  6  0  0  0
  3 10  1  0  0  0  0
  4 12  2  0  0  0  0
  5 14  1  0  0  0  0
  5 13  1  0  0  0  0
  6 12  1  0  0  0  0
  6 16  1  0  0  0  0
  7  5  2  0  0  0  0
  9  8  2  0  0  0  0
 10  2  2  0  0  0  0
 10  9  1  0  0  0  0
 11 15  1  0  0  0  0
 13  6  2  0  0  0  0
 14  8  1  6  0  0  0
 14  4  1  0  0  0  0
 15  2  1  0  0  0  0
 16 17  3  0  0  0  0
 19 18  1  0  0  0  0
 20 19  1  0  0  0  0
 20 21  1  0  0  0  0
 23 29  1  1  0  0  0
 24 30  1  0  0  0  0
 25 23  1  0  0  0  0
 26 21  2  0  0  0  0
 26 28  1  0  0  0  0
 27 23  1  0  0  0  0
 28 25  1  0  0  0  0
 30 22  1  6  0  0  0
 30 28  1  0  0  0  0
 30 27  1  0  0  0  0
 31 11  1  0  0  0  0
 32 33  1  0  0  0  0
 32 31  1  0  0  0  0
 33 34  1  6  0  0  0
 36 38  1  0  0  0  0
 37 33  1  1  0  0  0
 37 41  1  0  0  0  0
 38 39  2  0  0  0  0
 38 37  1  0  0  0  0
 39 42  1  0  0  0  0
 41 40  1  0  0  0  0
 41 35  2  0  0  0  0
 42 40  2  0  0  0  0
M  END
>  <MODEL>
3

>  <REMARK>
 VINA RESULT:      -8.8      3.462      8.783
  Name = 
  9 active torsions:
  status: ('A' for Active; 'I' for Inactive)
    1  A    between atoms: N_5  and  N_10
    2  A    between atoms: C_6  and  C_20
    3  A    between atoms: C_7  and  N_10
    4  A    between atoms: C_7  and  C_13
    5  A    between atoms: C_8  and  C_13
    6  A    between atoms: C_11  and  C_26
    7  A    between atoms: C_15  and  C_30
    8  A    between atoms: C_15  and  C_36
    9  A    between atoms: C_26  and  C_36
                            x       y       z     vdW  Elec       q    Type
                         _______ _______ _______ _____ _____    ______ ____

>  <TORSDO>
F 9

$$$$
=
 OpenBabel10222418503D

 42 46  0  0  1  0  0  0  0  0999 V2000
  189.4210  177.7180  137.5360 C   0  0  0  0  0  3  0  0  0  0  0  0
  189.0030  177.5770  140.3440 C   0  0  0  0  0  0  0  0  0  0  0  0
  190.5420  177.1250  138.3350 C   0  0  1  0  0  3  0  0  0  0  0  0
  191.3090  177.6060  144.2760 C   0  0  0  0  0  3  0  0  0  0  0  0
  189.3360  177.4690  142.8790 C   0  0  0  0  0  0  0  0  0  0  0  0
  189.1790  177.4920  145.2990 C   0  0  0  0  0  0  0  0  0  0  0  0
  188.6170  177.4930  141.7550 C   0  0  0  0  0  3  0  0  0  0  0  0
  191.6400  177.5020  142.0010 C   0  0  0  0  0  3  0  0  0  0  0  0
  191.4760  177.3570  140.5530 C   0  0  0  0  0  3  0  0  0  0  0  0
  190.3690  177.3560  139.8200 C   0  0  0  0  0  0  0  0  0  0  0  0
  188.2440  178.0050  138.0920 C   0  0  0  0  0  0  0  0  0  0  0  0
  190.5290  177.5840  145.3870 N   0  0  0  0  0  0  0  0  0  0  0  0
  188.5690  177.4390  144.0500 C   0  0  0  0  0  3  0  0  0  0  0  0
  190.7500  177.5370  142.9930 C   0  0  2  0  0  3  0  0  0  0  0  0
  188.0490  177.8620  139.5060 N   0  0  0  0  0  2  0  0  0  0  0  0
  188.3810  177.4690  146.4920 C   0  0  0  0  0  0  0  0  0  0  0  0
  187.7400  177.4500  147.4560 N   0  0  0  0  0  0  0  0  0  0  0  0
  190.6300  175.6330  138.0130 C   0  0  0  0  0  2  0  0  0  0  0  0
  190.8500  175.3810  136.5290 C   0  0  0  0  0  2  0  0  0  0  0  0
  192.2080  175.7360  136.1580 N   0  0  0  0  0  2  0  0  0  0  0  0
  193.2780  175.3390  136.9640 N   0  0  0  0  0  0  0  0  0  0  0  0
  197.0570  173.7660  135.6260 C   0  0  0  0  0  1  0  0  0  0  0  0
  196.8770  174.2980  139.1730 C   0  0  1  0  0  3  0  0  0  0  0  0
  197.3410  176.0220  136.3550 O   0  0  0  0  0  1  0  0  0  0  0  0
  195.4560  174.5000  138.6760 C   0  0  0  0  0  2  0  0  0  0  0  0
  194.4600  175.2160  136.4560 C   0  0  0  0  0  3  0  0  0  0  0  0
  197.7800  174.2970  137.9440 C   0  0  0  0  0  2  0  0  0  0  0  0
  195.5690  174.8070  137.2640 N   0  0  0  0  0  0  0  0  0  0  0  0
  197.2270  175.3600  140.0050 O   0  0  0  0  0  1  0  0  0  0  0  0
  196.9310  174.7540  136.7700 C   0  0  2  0  0  0  0  0  0  0  0  0
  187.1470  178.5390  137.2390 C   0  0  0  0  0  2  0  0  0  0  0  0
  185.8480  177.8080  137.5350 C   0  0  0  0  0  2  0  0  0  0  0  0
  185.4500  176.9390  136.3520 C   0  0  2  0  0  3  0  0  0  0  0  0
  184.1000  177.1220  136.0560 O   0  0  0  0  0  1  0  0  0  0  0  0
  187.6630  175.5860  135.3060 O   0  0  0  0  0  0  0  0  0  0  0  0
  183.4730  175.2970  138.2050 Cl  0  0  0  0  0  0  0  0  0  0  0  0
  185.7460  175.4820  136.6060 C   0  0  2  0  0  3  0  0  0  0  0  0
  184.9160  174.6740  137.4180 C   0  0  0  0  0  0  0  0  0  0  0  0
  185.2380  173.3320  137.6160 C   0  0  0  0  0  3  0  0  0  0  0  0
  187.1710  173.5860  136.2410 N   0  0  0  0  0  0  0  0  0  0  0  0
  186.8890  174.8990  136.0270 C   0  0  0  0  0  0  0  0  0  0  0  0
  186.3770  172.7990  137.0130 C   0  0  0  0  0  3  0  0  0  0  0  0
  1 11  2  0  0  0  0
  1  3  1  0  0  0  0
  2  7  1  0  0  0  0
  3 18  1  1  0  0  0
  3 10  1  0  0  0  0
  4 12  2  0  0  0  0
  5 14  1  0  0  0  0
  5 13  1  0  0  0  0
  6 12  1  0  0  0  0
  6 16  1  0  0  0  0
  7  5  2  0  0  0  0
  9  8  2  0  0  0  0
 10  2  2  0  0  0  0
 10  9  1  0  0  0  0
 11 15  1  0  0  0  0
 13  6  2  0  0  0  0
 14  8  1  1  0  0  0
 14  4  1  0  0  0  0
 15  2  1  0  0  0  0
 16 17  3  0  0  0  0
 19 18  1  0  0  0  0
 20 19  1  0  0  0  0
 20 21  1  0  0  0  0
 23 29  1  1  0  0  0
 24 30  1  0  0  0  0
 25 23  1  0  0  0  0
 26 21  2  0  0  0  0
 26 28  1  0  0  0  0
 27 23  1  0  0  0  0
 28 25  1  0  0  0  0
 30 22  1  6  0  0  0
 30 28  1  0  0  0  0
 30 27  1  0  0  0  0
 31 32  1  0  0  0  0
 31 11  1  0  0  0  0
 33 34  1  1  0  0  0
 33 32  1  0  0  0  0
 35 41  2  0  0  0  0
 37 33  1  1  0  0  0
 37 38  1  0  0  0  0
 38 39  2  0  0  0  0
 38 36  1  0  0  0  0
 40 42  2  0  0  0  0
 41 40  1  0  0  0  0
 41 37  1  0  0  0  0
 42 39  1  0  0  0  0
M  END
>  <MODEL>
4

>  <REMARK>
 VINA RESULT:      -8.6      4.598      8.979
  Name = 
  9 active torsions:
  status: ('A' for Active; 'I' for Inactive)
    1  A    between atoms: N_5  and  N_10
    2  A    between atoms: C_6  and  C_20
    3  A    between atoms: C_7  and  N_10
    4  A    between atoms: C_7  and  C_13
    5  A    between atoms: C_8  and  C_13
    6  A    between atoms: C_11  and  C_26
    7  A    between atoms: C_15  and  C_30
    8  A    between atoms: C_15  and  C_36
    9  A    between atoms: C_26  and  C_36
                            x       y       z     vdW  Elec       q    Type
                         _______ _______ _______ _____ _____    ______ ____

>  <TORSDO>
F 9

$$$$
=
 OpenBabel10222418503D

 42 46  0  0  1  0  0  0  0  0999 V2000
  188.8680  177.7490  137.7060 C   0  0  0  0  0  3  0  0  0  0  0  0
  188.8460  177.5230  140.5390 C   0  0  0  0  0  0  0  0  0  0  0  0
  190.1070  177.1760  138.3260 C   0  0  1  0  0  3  0  0  0  0  0  0
  191.6700  177.5350  144.1170 C   0  0  0  0  0  3  0  0  0  0  0  0
  189.5290  177.3640  143.0000 C   0  0  0  0  0  0  0  0  0  0  0  0
  189.7070  177.3200  145.4180 C   0  0  0  0  0  0  0  0  0  0  0  0
  188.6620  177.3910  141.9860 C   0  0  0  0  0  3  0  0  0  0  0  0
  191.6880  177.5000  141.8160 C   0  0  0  0  0  3  0  0  0  0  0  0
  191.3300  177.3860  140.4010 C   0  0  0  0  0  3  0  0  0  0  0  0
  190.1330  177.3640  139.8260 C   0  0  0  0  0  0  0  0  0  0  0  0
  187.7710  177.9800  138.4260 C   0  0  0  0  0  0  0  0  0  0  0  0
  191.0520  177.4580  145.3230 N   0  0  0  0  0  0  0  0  0  0  0  0
  188.9320  177.2770  144.2630 C   0  0  0  0  0  3  0  0  0  0  0  0
  190.9420  177.4790  142.9210 C   0  0  2  0  0  3  0  0  0  0  0  0
  187.7770  177.7950  139.8480 N   0  0  0  0  0  2  0  0  0  0  0  0
  189.0820  177.2390  146.7080 C   0  0  0  0  0  0  0  0  0  0  0  0
  188.5790  177.1710  147.7490 N   0  0  0  0  0  0  0  0  0  0  0  0
  190.1970  175.6960  137.9510 C   0  0  0  0  0  2  0  0  0  0  0  0
  190.3140  175.4950  136.4470 C   0  0  0  0  0  2  0  0  0  0  0  0
  191.6600  175.8130  136.0030 N   0  0  0  0  0  2  0  0  0  0  0  0
  192.7600  175.3620  136.7350 N   0  0  0  0  0  0  0  0  0  0  0  0
  196.5320  174.0270  135.1410 C   0  0  0  0  0  1  0  0  0  0  0  0
  196.4440  174.1890  138.7290 C   0  0  1  0  0  3  0  0  0  0  0  0
  196.7880  176.2030  136.0920 O   0  0  0  0  0  1  0  0  0  0  0  0
  195.0050  174.4050  138.2930 C   0  0  0  0  0  2  0  0  0  0  0  0
  193.9300  175.3200  136.1860 C   0  0  0  0  0  3  0  0  0  0  0  0
  197.3100  174.3350  137.4820 C   0  0  0  0  0  2  0  0  0  0  0  0
  195.0700  174.8580  136.9170 N   0  0  0  0  0  0  0  0  0  0  0  0
  196.7960  175.1680  139.6560 O   0  0  0  0  0  1  0  0  0  0  0  0
  196.4180  174.8900  136.3850 C   0  0  2  0  0  0  0  0  0  0  0  0
  186.5500  178.4960  137.7470 C   0  0  0  0  0  2  0  0  0  0  0  0
  185.3040  177.9690  138.4370 C   0  0  0  0  0  2  0  0  0  0  0  0
  184.1960  179.0090  138.3900 C   0  0  2  0  0  3  0  0  0  0  0  0
  184.5530  180.1250  139.1470 O   0  0  0  0  0  1  0  0  0  0  0  0
  181.9920  178.5630  136.7270 O   0  0  0  0  0  0  0  0  0  0  0  0
  183.8960  178.2480  141.4510 Cl  0  0  0  0  0  0  0  0  0  0  0  0
  182.8800  178.4450  138.8650 C   0  0  2  0  0  3  0  0  0  0  0  0
  182.6580  178.0800  140.2140 C   0  0  0  0  0  0  0  0  0  0  0  0
  181.4200  177.5650  140.5960 C   0  0  0  0  0  3  0  0  0  0  0  0
  180.6390  177.7580  138.3510 N   0  0  0  0  0  0  0  0  0  0  0  0
  181.8340  178.2630  137.9410 C   0  0  0  0  0  0  0  0  0  0  0  0
  180.4130  177.4110  139.6440 C   0  0  0  0  0  3  0  0  0  0  0  0
  1  3  1  0  0  0  0
  1 11  2  0  0  0  0
  2  7  1  0  0  0  0
  3 18  1  1  0  0  0
  3 10  1  0  0  0  0
  4 12  2  0  0  0  0
  5 13  1  0  0  0  0
  6 16  1  0  0  0  0
  7  5  2  0  0  0  0
  9  8  2  0  0  0  0
 10  9  1  0  0  0  0
 10  2  2  0  0  0  0
 11 15  1  0  0  0  0
 12  6  1  0  0  0  0
 13  6  2  0  0  0  0
 14  8  1  6  0  0  0
 14  5  1  0  0  0  0
 14  4  1  0  0  0  0
 15  2  1  0  0  0  0
 16 17  3  0  0  0  0
 19 18  1  0  0  0  0
 20 19  1  0  0  0  0
 20 21  1  0  0  0  0
 23 29  1  1  0  0  0
 24 30  1  0  0  0  0
 25 23  1  0  0  0  0
 26 21  2  0  0  0  0
 26 28  1  0  0  0  0
 27 23  1  0  0  0  0
 28 25  1  0  0  0  0
 30 22  1  6  0  0  0
 30 28  1  0  0  0  0
 30 27  1  0  0  0  0
 31 11  1  0  0  0  0
 31 32  1  0  0  0  0
 33 32  1  0  0  0  0
 33 34  1  1  0  0  0
 35 41  2  0  0  0  0
 37 33  1  6  0  0  0
 37 38  1  0  0  0  0
 38 39  2  0  0  0  0
 38 36  1  0  0  0  0
 40 42  2  0  0  0  0
 41 40  1  0  0  0  0
 41 37  1  0  0  0  0
 42 39  1  0  0  0  0
M  END
>  <MODEL>
5

>  <REMARK>
 VINA RESULT:      -8.4      3.546      9.559
  Name = 
  9 active torsions:
  status: ('A' for Active; 'I' for Inactive)
    1  A    between atoms: N_5  and  N_10
    2  A    between atoms: C_6  and  C_20
    3  A    between atoms: C_7  and  N_10
    4  A    between atoms: C_7  and  C_13
    5  A    between atoms: C_8  and  C_13
    6  A    between atoms: C_11  and  C_26
    7  A    between atoms: C_15  and  C_30
    8  A    between atoms: C_15  and  C_36
    9  A    between atoms: C_26  and  C_36
                            x       y       z     vdW  Elec       q    Type
                         _______ _______ _______ _____ _____    ______ ____

>  <TORSDO>
F 9

$$$$
=
 OpenBabel10222418503D

 42 46  0  0  1  0  0  0  0  0999 V2000
  183.4400  178.6770  144.6360 C   0  0  0  0  0  3  0  0  0  0  0  0
  185.1180  178.7000  142.3430 C   0  0  0  0  0  0  0  0  0  0  0  0
  184.9040  178.4840  144.8950 C   0  0  1  0  0  3  0  0  0  0  0  0
  189.0620  176.9980  140.8200 C   0  0  0  0  0  3  0  0  0  0  0  0
  187.0410  178.3250  140.6970 C   0  0  2  0  0  3  0  0  0  0  0  0
  188.5400  178.1150  138.8020 C   0  0  0  0  0  0  0  0  0  0  0  0
  185.8630  178.8170  141.0870 C   0  0  0  0  0  3  0  0  0  0  0  0
  187.8000  177.1650  142.7370 C   0  0  0  0  0  3  0  0  0  0  0  0
  186.8130  177.5380  143.7520 C   0  0  0  0  0  3  0  0  0  0  0  0
  185.6770  178.2140  143.6240 C   0  0  0  0  0  0  0  0  0  0  0  0
  182.9820  179.0030  143.4280 C   0  0  0  0  0  0  0  0  0  0  0  0
  189.3490  177.3070  139.5290 N   0  0  0  0  0  0  0  0  0  0  0  0
  187.3790  178.6280  139.3730 C   0  0  0  0  0  3  0  0  0  0  0  0
  187.9170  177.4990  141.4510 C   0  0  0  0  0  0  0  0  0  0  0  0
  183.8700  179.0660  142.3030 N   0  0  0  0  0  2  0  0  0  0  0  0
  188.8710  178.4260  137.4400 C   0  0  0  0  0  0  0  0  0  0  0  0
  189.1410  178.6760  136.3430 N   0  0  0  0  0  0  0  0  0  0  0  0
  185.4360  179.7230  145.6150 C   0  0  0  0  0  2  0  0  0  0  0  0
  186.0560  179.3780  146.9620 C   0  0  0  0  0  2  0  0  0  0  0  0
  186.2780  177.9470  147.0590 N   0  0  0  0  0  2  0  0  0  0  0  0
  187.5700  177.4540  147.2580 N   0  0  0  0  0  0  0  0  0  0  0  0
  190.4060  176.3780  144.2010 C   0  0  0  0  0  1  0  0  0  0  0  0
  191.7200  176.1830  147.5380 C   0  0  1  0  0  3  0  0  0  0  0  0
  191.0440  178.4550  145.1910 O   0  0  0  0  0  1  0  0  0  0  0  0
  190.2280  176.4050  147.7180 C   0  0  0  0  0  2  0  0  0  0  0  0
  188.4330  177.4960  146.2970 C   0  0  0  0  0  3  0  0  0  0  0  0
  192.0360  176.4730  146.0750 C   0  0  0  0  0  2  0  0  0  0  0  0
  189.7610  176.9920  146.4780 N   0  0  0  0  0  0  0  0  0  0  0  0
  192.4190  177.0740  148.3500 O   0  0  0  0  0  1  0  0  0  0  0  0
  190.7970  177.1100  145.4710 C   0  0  2  0  0  0  0  0  0  0  0  0
  181.5240  179.2390  143.2410 C   0  0  0  0  0  2  0  0  0  0  0  0
  180.8780  178.0360  142.5750 C   0  0  0  0  0  2  0  0  0  0  0  0
  179.9280  178.4880  141.4780 C   0  0  2  0  0  3  0  0  0  0  0  0
  179.2420  177.3920  140.9560 O   0  0  0  0  0  1  0  0  0  0  0  0
  179.4050  181.1440  140.7760 O   0  0  0  0  0  0  0  0  0  0  0  0
  182.2070  176.9750  139.8790 Cl  0  0  0  0  0  0  0  0  0  0  0  0
  180.6530  179.2300  140.3820 C   0  0  2  0  0  3  0  0  0  0  0  0
  181.6810  178.6320  139.6180 C   0  0  0  0  0  0  0  0  0  0  0  0
  182.3150  179.3660  138.6170 C   0  0  0  0  0  3  0  0  0  0  0  0
  180.9470  181.2530  139.1250 N   0  0  0  0  0  0  0  0  0  0  0  0
  180.3070  180.5680  140.1110 C   0  0  0  0  0  0  0  0  0  0  0  0
  181.9310  180.6860  138.3800 C   0  0  0  0  0  3  0  0  0  0  0  0
  1  3  1  0  0  0  0
  2 10  1  0  0  0  0
  3 18  1  6  0  0  0
  4 14  1  0  0  0  0
  5 13  1  6  0  0  0
  5  7  1  0  0  0  0
  5 14  1  0  0  0  0
  6 13  2  0  0  0  0
  6 12  1  0  0  0  0
  7  2  2  0  0  0  0
  8  9  1  0  0  0  0
 10  9  2  0  0  0  0
 10  3  1  0  0  0  0
 11  1  2  0  0  0  0
 12  4  2  0  0  0  0
 14  8  2  0  0  0  0
 15  2  1  0  0  0  0
 15 11  1  0  0  0  0
 16  6  1  0  0  0  0
 17 16  3  0  0  0  0
 18 19  1  0  0  0  0
 19 20  1  0  0  0  0
 20 21  1  0  0  0  0
 23 25  1  0  0  0  0
 23 29  1  1  0  0  0
 24 30  1  0  0  0  0
 26 28  1  0  0  0  0
 26 21  2  0  0  0  0
 27 23  1  0  0  0  0
 28 25  1  0  0  0  0
 30 22  1  6  0  0  0
 30 27  1  0  0  0  0
 30 28  1  0  0  0  0
 31 11  1  0  0  0  0
 32 31  1  0  0  0  0
 33 34  1  6  0  0  0
 33 32  1  0  0  0  0
 37 33  1  1  0  0  0
 38 36  1  0  0  0  0
 38 37  1  0  0  0  0
 39 38  2  0  0  0  0
 40 41  1  0  0  0  0
 41 37  1  0  0  0  0
 41 35  2  0  0  0  0
 42 39  1  0  0  0  0
 42 40  2  0  0  0  0
M  END
>  <MODEL>
6

>  <REMARK>
 VINA RESULT:      -8.4      2.994      6.624
  Name = 
  9 active torsions:
  status: ('A' for Active; 'I' for Inactive)
    1  A    between atoms: N_5  and  N_10
    2  A    between atoms: C_6  and  C_20
    3  A    between atoms: C_7  and  N_10
    4  A    between atoms: C_7  and  C_13
    5  A    between atoms: C_8  and  C_13
    6  A    between atoms: C_11  and  C_26
    7  A    between atoms: C_15  and  C_30
    8  A    between atoms: C_15  and  C_36
    9  A    between atoms: C_26  and  C_36
                            x       y       z     vdW  Elec       q    Type
                         _______ _______ _______ _____ _____    ______ ____

>  <TORSDO>
F 9

$$$$
=
 OpenBabel10222418503D

 42 46  0  0  1  0  0  0  0  0999 V2000
  188.6630  178.5850  139.9320 C   0  0  0  0  0  3  0  0  0  0  0  0
  190.3790  176.6800  138.7050 C   0  0  0  0  0  0  0  0  0  0  0  0
  188.2770  178.1510  138.5500 C   0  0  1  0  0  3  0  0  0  0  0  0
  191.8160  175.3340  134.5950 C   0  0  0  0  0  3  0  0  0  0  0  0
  191.6650  175.2600  137.0100 C   0  0  0  0  0  0  0  0  0  0  0  0
  193.1670  173.8010  135.7850 C   0  0  0  0  0  0  0  0  0  0  0  0
  191.3010  175.6430  138.2350 C   0  0  0  0  0  3  0  0  0  0  0  0
  190.2740  176.7200  135.5920 C   0  0  0  0  0  3  0  0  0  0  0  0
  189.3830  177.3970  136.5370 C   0  0  0  0  0  3  0  0  0  0  0  0
  189.3820  177.3790  137.8650 C   0  0  0  0  0  0  0  0  0  0  0  0
  189.6510  177.9900  140.5990 C   0  0  0  0  0  0  0  0  0  0  0  0
  192.7590  174.3570  134.6190 N   0  0  0  0  0  0  0  0  0  0  0  0
  192.6320  174.2470  136.9900 C   0  0  0  0  0  3  0  0  0  0  0  0
  191.2300  175.8090  135.7750 C   0  0  2  0  0  3  0  0  0  0  0  0
  190.4590  176.9870  139.9680 N   0  0  0  0  0  2  0  0  0  0  0  0
  194.1650  172.7680  135.7790 C   0  0  0  0  0  0  0  0  0  0  0  0
  194.9700  171.9370  135.7770 N   0  0  0  0  0  0  0  0  0  0  0  0
  186.9960  177.3200  138.6430 C   0  0  0  0  0  2  0  0  0  0  0  0
  185.8190  178.0080  137.9660 C   0  0  0  0  0  2  0  0  0  0  0  0
  185.4160  179.1760  138.7280 N   0  0  0  0  0  2  0  0  0  0  0  0
  184.4130  179.0660  139.6940 N   0  0  0  0  0  0  0  0  0  0  0  0
  184.9230  177.8820  143.8030 C   0  0  0  0  0  1  0  0  0  0  0  0
  181.5790  178.9110  142.9890 C   0  0  1  0  0  3  0  0  0  0  0  0
  184.5590  180.2390  143.6870 O   0  0  0  0  0  1  0  0  0  0  0  0
  182.2970  178.8240  141.6530 C   0  0  0  0  0  2  0  0  0  0  0  0
  184.7230  179.0430  140.9480 C   0  0  0  0  0  3  0  0  0  0  0  0
  182.6530  178.8560  144.0720 C   0  0  0  0  0  2  0  0  0  0  0  0
  183.7110  178.9280  141.9540 N   0  0  0  0  0  0  0  0  0  0  0  0
  180.9010  180.1260  143.0690 O   0  0  0  0  0  1  0  0  0  0  0  0
  183.9940  179.0020  143.3740 C   0  0  2  0  0  0  0  0  0  0  0  0
  189.9540  178.4240  141.9910 C   0  0  0  0  0  2  0  0  0  0  0  0
  188.8200  178.0320  142.9210 C   0  0  0  0  0  2  0  0  0  0  0  0
  189.0710  176.6520  143.5080 C   0  0  2  0  0  3  0  0  0  0  0  0
  187.8740  175.9420  143.5950 O   0  0  0  0  0  1  0  0  0  0  0  0
  191.7750  176.0880  143.9520 O   0  0  0  0  0  0  0  0  0  0  0  0
  187.3330  177.5400  146.0040 Cl  0  0  0  0  0  0  0  0  0  0  0  0
  189.7400  176.7330  144.8580 C   0  0  2  0  0  3  0  0  0  0  0  0
  189.0390  177.1170  146.0250 C   0  0  0  0  0  0  0  0  0  0  0  0
  189.7090  177.1730  147.2470 C   0  0  0  0  0  3  0  0  0  0  0  0
  191.7290  176.4880  146.1780 N   0  0  0  0  0  0  0  0  0  0  0  0
  191.1090  176.4250  144.9690 C   0  0  0  0  0  0  0  0  0  0  0  0
  191.0640  176.8500  147.3060 C   0  0  0  0  0  3  0  0  0  0  0  0
  1 11  2  0  0  0  0
  2 15  1  0  0  0  0
  3 18  1  1  0  0  0
  3  1  1  0  0  0  0
  4 12  2  0  0  0  0
  5  7  2  0  0  0  0
  6 13  2  0  0  0  0
  7  2  1  0  0  0  0
  8 14  1  0  0  0  0
  8  9  2  0  0  0  0
  9 10  1  0  0  0  0
 10  3  1  0  0  0  0
 10  2  2  0  0  0  0
 11 31  1  0  0  0  0
 12  6  1  0  0  0  0
 13  5  1  0  0  0  0
 14  4  1  6  0  0  0
 14  5  1  0  0  0  0
 15 11  1  0  0  0  0
 16  6  1  0  0  0  0
 17 16  3  0  0  0  0
 19 18  1  0  0  0  0
 19 20  1  0  0  0  0
 20 21  1  0  0  0  0
 21 26  2  0  0  0  0
 23 29  1  6  0  0  0
 23 27  1  0  0  0  0
 25 28  1  0  0  0  0
 25 23  1  0  0  0  0
 26 28  1  0  0  0  0
 28 30  1  0  0  0  0
 30 24  1  0  0  0  0
 30 22  1  1  0  0  0
 30 27  1  0  0  0  0
 31 32  1  0  0  0  0
 32 33  1  0  0  0  0
 33 34  1  1  0  0  0
 35 41  2  0  0  0  0
 36 38  1  0  0  0  0
 37 33  1  6  0  0  0
 37 41  1  0  0  0  0
 37 38  1  0  0  0  0
 38 39  2  0  0  0  0
 39 42  1  0  0  0  0
 40 42  2  0  0  0  0
 41 40  1  0  0  0  0
M  END
>  <MODEL>
7

>  <REMARK>
 VINA RESULT:      -8.3      3.348      9.085
  Name = 
  9 active torsions:
  status: ('A' for Active; 'I' for Inactive)
    1  A    between atoms: N_5  and  N_10
    2  A    between atoms: C_6  and  C_20
    3  A    between atoms: C_7  and  N_10
    4  A    between atoms: C_7  and  C_13
    5  A    between atoms: C_8  and  C_13
    6  A    between atoms: C_11  and  C_26
    7  A    between atoms: C_15  and  C_30
    8  A    between atoms: C_15  and  C_36
    9  A    between atoms: C_26  and  C_36
                            x       y       z     vdW  Elec       q    Type
                         _______ _______ _______ _____ _____    ______ ____

>  <TORSDO>
F 9

$$$$
=
 OpenBabel10222418503D

 42 46  0  0  1  0  0  0  0  0999 V2000
  183.9520  178.4200  145.2970 C   0  0  0  0  0  3  0  0  0  0  0  0
  185.5720  178.5850  142.9670 C   0  0  0  0  0  0  0  0  0  0  0  0
  185.3980  178.0700  145.4800 C   0  0  1  0  0  3  0  0  0  0  0  0
  189.3100  176.7510  141.1130 C   0  0  0  0  0  2  0  0  0  0  0  0
  187.4150  178.2540  141.2230 C   0  0  0  0  0  0  0  0  0  0  0  0
  188.8450  178.1540  139.2670 C   0  0  0  0  0  0  0  0  0  0  0  0
  186.2960  178.7920  141.7100 C   0  0  0  0  0  3  0  0  0  0  0  0
  188.1140  176.7870  143.0780 C   0  0  0  0  0  3  0  0  0  0  0  0
  187.1880  177.1140  144.1640 C   0  0  0  0  0  3  0  0  0  0  0  0
  186.1140  177.8960  144.1590 C   0  0  0  0  0  0  0  0  0  0  0  0
  183.4980  178.9330  144.1540 C   0  0  0  0  0  0  0  0  0  0  0  0
  189.5940  177.1940  139.8610 N   0  0  0  0  0  0  0  0  0  0  0  0
  187.7480  178.6890  139.9350 C   0  0  0  0  0  3  0  0  0  0  0  0
  188.2300  177.2670  141.8400 C   0  0  0  0  0  0  0  0  0  0  0  0
  184.3610  179.0600  143.0150 N   0  0  0  0  0  2  0  0  0  0  0  0
  189.1710  178.6030  137.9430 C   0  0  0  0  0  0  0  0  0  0  0  0
  189.4300  178.9640  136.8740 N   0  0  0  0  0  0  0  0  0  0  0  0
  186.0570  179.1590  146.3280 C   0  0  0  0  0  2  0  0  0  0  0  0
  186.1640  178.7560  147.7910 C   0  0  0  0  0  2  0  0  0  0  0  0
  187.5540  178.7520  148.2090 N   0  0  0  0  0  2  0  0  0  0  0  0
  188.5430  178.2860  147.3380 N   0  0  0  0  0  0  0  0  0  0  0  0
  192.3560  176.6150  148.4400 C   0  0  0  0  0  1  0  0  0  0  0  0
  191.6800  176.4980  144.9140 C   0  0  1  0  0  3  0  0  0  0  0  0
  190.8940  174.8700  147.7180 O   0  0  0  0  0  1  0  0  0  0  0  0
  190.5740  177.3620  145.4950 C   0  0  0  0  0  2  0  0  0  0  0  0
  189.4740  177.5040  147.7750 C   0  0  0  0  0  3  0  0  0  0  0  0
  192.3650  175.8070  146.0900 C   0  0  0  0  0  2  0  0  0  0  0  0
  190.4990  177.0190  146.9010 N   0  0  0  0  0  0  0  0  0  0  0  0
  191.1190  175.5370  144.0740 O   0  0  0  0  0  1  0  0  0  0  0  0
  191.5030  176.0590  147.3150 C   0  0  2  0  0  0  0  0  0  0  0  0
  182.0630  179.3160  144.0470 C   0  0  0  0  0  2  0  0  0  0  0  0
  181.3580  178.4340  143.0310 C   0  0  0  0  0  2  0  0  0  0  0  0
  181.2450  179.1540  141.6970 C   0  0  2  0  0  3  0  0  0  0  0  0
  179.9720  179.7070  141.5560 O   0  0  0  0  0  1  0  0  0  0  0  0
  183.3780  179.5340  139.9290 O   0  0  0  0  0  0  0  0  0  0  0  0
  179.3990  176.6200  141.2380 Cl  0  0  0  0  0  0  0  0  0  0  0  0
  181.5560  178.2370  140.5390 C   0  0  2  0  0  3  0  0  0  0  0  0
  180.7830  177.0860  140.2600 C   0  0  0  0  0  0  0  0  0  0  0  0
  181.1170  176.2760  139.1750 C   0  0  0  0  0  3  0  0  0  0  0  0
  182.9500  177.7120  138.6590 N   0  0  0  0  0  0  0  0  0  0  0  0
  182.6560  178.5250  139.7090 C   0  0  0  0  0  0  0  0  0  0  0  0
  182.2110  176.6080  138.3770 C   0  0  0  0  0  3  0  0  0  0  0  0
  1  3  1  0  0  0  0
  2 15  1  0  0  0  0
  2 10  1  0  0  0  0
  3 18  1  6  0  0  0
  4 14  1  0  0  0  0
  5  7  1  0  0  0  0
  5 14  1  0  0  0  0
  6 12  2  0  0  0  0
  6 13  1  0  0  0  0
  7  2  2  0  0  0  0
  8  9  1  0  0  0  0
 10  9  2  0  0  0  0
 10  3  1  0  0  0  0
 11  1  2  0  0  0  0
 12  4  1  0  0  0  0
 13  5  2  0  0  0  0
 14  8  2  0  0  0  0
 15 11  1  0  0  0  0
 16  6  1  0  0  0  0
 17 16  3  0  0  0  0
 18 19  1  0  0  0  0
 19 20  1  0  0  0  0
 21 26  2  0  0  0  0
 21 20  1  0  0  0  0
 23 29  1  6  0  0  0
 23 25  1  0  0  0  0
 23 27  1  0  0  0  0
 25 28  1  0  0  0  0
 27 30  1  0  0  0  0
 28 30  1  0  0  0  0
 28 26  1  0  0  0  0
 30 24  1  0  0  0  0
 30 22  1  1  0  0  0
 31 11  1  0  0  0  0
 32 31  1  0  0  0  0
 33 34  1  6  0  0  0
 33 32  1  0  0  0  0
 37 33  1  1  0  0  0
 38 37  1  0  0  0  0
 38 36  1  0  0  0  0
 39 38  2  0  0  0  0
 40 41  1  0  0  0  0
 41 35  2  0  0  0  0
 41 37  1  0  0  0  0
 42 40  2  0  0  0  0
 42 39  1  0  0  0  0
M  END
>  <MODEL>
8

>  <REMARK>
 VINA RESULT:      -8.3      2.827      6.539
  Name = 
  9 active torsions:
  status: ('A' for Active; 'I' for Inactive)
    1  A    between atoms: N_5  and  N_10
    2  A    between atoms: C_6  and  C_20
    3  A    between atoms: C_7  and  N_10
    4  A    between atoms: C_7  and  C_13
    5  A    between atoms: C_8  and  C_13
    6  A    between atoms: C_11  and  C_26
    7  A    between atoms: C_15  and  C_30
    8  A    between atoms: C_15  and  C_36
    9  A    between atoms: C_26  and  C_36
                            x       y       z     vdW  Elec       q    Type
                         _______ _______ _______ _____ _____    ______ ____

>  <TORSDO>
F 9

$$$$
=
 OpenBabel10222418503D

 42 46  0  0  1  0  0  0  0  0999 V2000
  189.6950  176.6420  138.3020 C   0  0  0  0  0  3  0  0  0  0  0  0
  190.3220  176.7500  141.0720 C   0  0  0  0  0  0  0  0  0  0  0  0
  188.7880  177.4880  139.1450 C   0  0  1  0  0  3  0  0  0  0  0  0
  188.3390  177.3230  145.1350 C   0  0  0  0  0  3  0  0  0  0  0  0
  190.1940  176.9860  143.6160 C   0  0  0  0  0  0  0  0  0  0  0  0
  190.5050  176.9840  146.0220 C   0  0  0  0  0  0  0  0  0  0  0  0
  190.8120  176.7770  142.4520 C   0  0  0  0  0  3  0  0  0  0  0  0
  187.8850  177.4470  142.8830 C   0  0  0  0  0  3  0  0  0  0  0  0
  187.9790  177.5190  141.4230 C   0  0  0  0  0  3  0  0  0  0  0  0
  189.0060  177.2570  140.6240 C   0  0  0  0  0  0  0  0  0  0  0  0
  190.8140  176.1140  138.7950 C   0  0  0  0  0  0  0  0  0  0  0  0
  189.1780  177.1960  146.1950 N   0  0  0  0  0  0  0  0  0  0  0  0
  191.0260  176.8710  144.7360 C   0  0  0  0  0  3  0  0  0  0  0  0
  188.8110  177.2370  143.8190 C   0  0  2  0  0  3  0  0  0  0  0  0
  191.1310  176.2410  140.1880 N   0  0  0  0  0  2  0  0  0  0  0  0
  191.3680  176.8550  147.1620 C   0  0  0  0  0  0  0  0  0  0  0  0
  192.0660  176.7520  148.0790 N   0  0  0  0  0  0  0  0  0  0  0  0
  189.0100  178.9540  138.7740 C   0  0  0  0  0  2  0  0  0  0  0  0
  188.9340  179.1810  137.2710 C   0  0  0  0  0  2  0  0  0  0  0  0
  187.5570  179.3970  136.8670 N   0  0  0  0  0  2  0  0  0  0  0  0
  186.5970  178.4100  137.1060 N   0  0  0  0  0  0  0  0  0  0  0  0
  183.9400  178.1780  140.4870 C   0  0  0  0  0  1  0  0  0  0  0  0
  183.3380  175.6690  137.9880 C   0  0  1  0  0  3  0  0  0  0  0  0
  182.7250  178.8980  138.5610 O   0  0  0  0  0  1  0  0  0  0  0  0
  184.6420  176.3270  137.5730 C   0  0  0  0  0  2  0  0  0  0  0  0
  185.6430  178.6270  137.9500 C   0  0  0  0  0  3  0  0  0  0  0  0
  182.7100  176.5630  139.0530 C   0  0  0  0  0  2  0  0  0  0  0  0
  184.6510  177.6280  138.2130 N   0  0  0  0  0  0  0  0  0  0  0  0
  182.4890  175.5950  136.8850 O   0  0  0  0  0  1  0  0  0  0  0  0
  183.5040  177.8570  139.0690 C   0  0  2  0  0  0  0  0  0  0  0  0
  191.7060  175.3300  137.8960 C   0  0  0  0  0  2  0  0  0  0  0  0
  193.0380  176.0400  137.7300 C   0  0  0  0  0  2  0  0  0  0  0  0
  193.4830  175.9920  136.2770 C   0  0  2  0  0  3  0  0  0  0  0  0
  192.7110  175.0720  135.5680 O   0  0  0  0  0  1  0  0  0  0  0  0
  195.4330  177.8100  135.4310 O   0  0  0  0  0  0  0  0  0  0  0  0
  194.4410  173.0700  137.0420 Cl  0  0  0  0  0  0  0  0  0  0  0  0
  194.9500  175.6600  136.1520 C   0  0  2  0  0  3  0  0  0  0  0  0
  195.4630  174.3820  136.4700 C   0  0  0  0  0  0  0  0  0  0  0  0
  196.8290  174.1320  136.3350 C   0  0  0  0  0  3  0  0  0  0  0  0
  197.1720  176.3720  135.5930 N   0  0  0  0  0  0  0  0  0  0  0  0
  195.8470  176.6530  135.7140 C   0  0  0  0  0  0  0  0  0  0  0  0
  197.6750  175.1460  135.8890 C   0  0  0  0  0  3  0  0  0  0  0  0
  1 11  2  0  0  0  0
  1  3  1  0  0  0  0
  2  7  1  0  0  0  0
  3 18  1  1  0  0  0
  3 10  1  0  0  0  0
  4 12  2  0  0  0  0
  5 14  1  0  0  0  0
  5 13  1  0  0  0  0
  6 12  1  0  0  0  0
  6 16  1  0  0  0  0
  7  5  2  0  0  0  0
  9  8  2  0  0  0  0
 10  2  2  0  0  0  0
 10  9  1  0  0  0  0
 11 15  1  0  0  0  0
 13  6  2  0  0  0  0
 14  8  1  6  0  0  0
 14  4  1  0  0  0  0
 15  2  1  0  0  0  0
 16 17  3  0  0  0  0
 19 18  1  0  0  0  0
 20 21  1  0  0  0  0
 20 19  1  0  0  0  0
 21 26  2  0  0  0  0
 23 29  1  6  0  0  0
 23 27  1  0  0  0  0
 24 30  1  0  0  0  0
 25 23  1  0  0  0  0
 25 28  1  0  0  0  0
 26 28  1  0  0  0  0
 27 30  1  0  0  0  0
 28 30  1  0  0  0  0
 30 22  1  1  0  0  0
 31 11  1  0  0  0  0
 32 31  1  0  0  0  0
 33 34  1  6  0  0  0
 33 32  1  0  0  0  0
 35 41  2  0  0  0  0
 37 33  1  1  0  0  0
 37 38  1  0  0  0  0
 38 36  1  0  0  0  0
 39 38  2  0  0  0  0
 40 41  1  0  0  0  0
 40 42  2  0  0  0  0
 41 37  1  0  0  0  0
 42 39  1  0  0  0  0
M  END
>  <MODEL>
9

>  <REMARK>
 VINA RESULT:      -8.2      3.935      9.100
  Name = 
  9 active torsions:
  status: ('A' for Active; 'I' for Inactive)
    1  A    between atoms: N_5  and  N_10
    2  A    between atoms: C_6  and  C_20
    3  A    between atoms: C_7  and  N_10
    4  A    between atoms: C_7  and  C_13
    5  A    between atoms: C_8  and  C_13
    6  A    between atoms: C_11  and  C_26
    7  A    between atoms: C_15  and  C_30
    8  A    between atoms: C_15  and  C_36
    9  A    between atoms: C_26  and  C_36
                            x       y       z     vdW  Elec       q    Type
                         _______ _______ _______ _____ _____    ______ ____

>  <TORSDO>
F 9

$$$$
