=
 OpenBabel10222418473D

 29 32  0  0  1  0  0  0  0  0999 V2000
  187.2860  177.8590  146.1680 C   0  0  0  0  0  0  0  0  0  0  0  0
  191.0250  176.3040  143.4870 C   0  0  0  0  0  0  0  0  0  0  0  0
  187.9800  177.2510  141.6860 C   0  0  0  0  0  3  0  0  0  0  0  0
  190.3920  177.2400  141.6390 C   0  0  0  0  0  0  0  0  0  0  0  0
  191.5120  176.8590  142.4200 N   0  0  0  0  0  0  0  0  0  0  0  0
  189.2000  178.2040  139.7950 C   0  0  0  0  0  0  0  0  0  0  0  0
  189.4190  177.3610  147.1370 N   0  0  0  0  0  0  0  0  0  0  0  0
  189.5180  176.2380  143.5390 C   0  0  1  0  0  3  0  0  0  0  0  0
  189.0450  176.8920  144.8140 C   0  0  0  0  0  0  0  0  0  0  0  0
  187.9830  177.8870  140.4340 C   0  0  0  0  0  3  0  0  0  0  0  0
  191.8070  176.1450  144.6720 N   0  0  0  0  0  0  0  0  0  0  0  0
  188.1570  177.8500  147.2670 C   0  0  0  0  0  3  0  0  0  0  0  0
  190.4250  177.8770  140.4010 C   0  0  0  0  0  3  0  0  0  0  0  0
  189.1860  178.8800  138.4720 C   0  0  0  0  0  1  0  0  0  0  0  0
  192.1200  176.2090  147.0580 C   0  0  0  0  0  1  0  0  0  0  0  0
  187.7350  177.3650  144.9430 C   0  0  0  0  0  3  0  0  0  0  0  0
  189.8820  176.8770  145.9530 C   0  0  0  0  0  0  0  0  0  0  0  0
  191.2780  176.3720  145.8410 C   0  0  0  0  0  0  0  0  0  0  0  0
  189.2100  176.9650  142.2780 C   0  0  0  0  0  0  0  0  0  0  0  0
  185.7990  179.4460  147.3720 C   0  0  0  0  0  1  0  0  0  0  0  0
  185.8890  178.3920  146.2840 C   0  0  1  0  0  3  0  0  0  0  0  0
  185.4030  178.9650  144.9580 C   0  0  0  0  0  2  0  0  0  0  0  0
  183.8850  178.9710  144.9030 C   0  0  0  0  0  2  0  0  0  0  0  0
  183.4190  178.8180  143.4670 C   0  0  0  0  0  2  0  0  0  0  0  0
  184.5690  178.3550  142.5870 C   0  0  0  0  0  2  0  0  0  0  0  0
  183.7600  177.9370  139.8710 O   0  0  0  0  0  0  0  0  0  0  0  0
  184.7740  179.2880  141.4870 N   0  0  0  0  0  2  0  0  0  0  0  0
  184.6270  179.9520  139.1170 N   0  0  0  0  0  1  0  0  0  0  0  0
  184.3600  179.0100  140.1480 C   0  0  0  0  0  0  0  0  0  0  0  0
  1 21  1  0  0  0  0
  1 12  1  0  0  0  0
  2  8  1  0  0  0  0
  2 11  1  0  0  0  0
  3 19  1  0  0  0  0
  4 19  2  0  0  0  0
  4  5  1  0  0  0  0
  5  2  2  0  0  0  0
  6 13  2  0  0  0  0
  6 10  1  0  0  0  0
  7 12  2  0  0  0  0
  8 19  1  6  0  0  0
  8  9  1  0  0  0  0
  9 16  1  0  0  0  0
  9 17  2  0  0  0  0
 10  3  2  0  0  0  0
 11 18  2  0  0  0  0
 13  4  1  0  0  0  0
 14  6  1  0  0  0  0
 16  1  2  0  0  0  0
 17  7  1  0  0  0  0
 18 17  1  0  0  0  0
 18 15  1  0  0  0  0
 21 20  1  1  0  0  0
 22 21  1  0  0  0  0
 23 22  1  0  0  0  0
 24 23  1  0  0  0  0
 25 24  1  0  0  0  0
 26 29  2  0  0  0  0
 27 25  1  0  0  0  0
 28 29  1  0  0  0  0
 29 27  1  0  0  0  0
M  END
>  <MODEL>
1

>  <REMARK>
 VINA RESULT:      -9.5      0.000      0.000
  Name = 
  6 active torsions:
  status: ('A' for Active; 'I' for Inactive)
    1  A    between atoms: C_1  and  C_27
    2  A    between atoms: C_17  and  C_19
    3  A    between atoms: C_17  and  C_29
    4  A    between atoms: C_19  and  C_27
    5  A    between atoms: N_21  and  C_26
    6  A    between atoms: C_26  and  C_29
                            x       y       z     vdW  Elec       q    Type
                         _______ _______ _______ _____ _____    ______ ____

>  <TORSDO>
F 6

$$$$
=
 OpenBabel10222418473D

 29 32  0  0  1  0  0  0  0  0999 V2000
  185.4520  178.2950  144.5650 C   0  0  0  0  0  0  0  0  0  0  0  0
  189.9830  177.0410  145.7810 C   0  0  0  0  0  0  0  0  0  0  0  0
  189.0550  176.6750  142.2580 C   0  0  0  0  0  3  0  0  0  0  0  0
  190.8230  177.2490  143.7960 C   0  0  0  0  0  0  0  0  0  0  0  0
  191.0810  177.3850  145.1830 N   0  0  0  0  0  0  0  0  0  0  0  0
  191.2580  177.3440  141.4400 C   0  0  0  0  0  0  0  0  0  0  0  0
  186.3070  178.6250  146.7780 N   0  0  0  0  0  0  0  0  0  0  0  0
  188.8620  176.6210  144.8620 C   0  0  1  0  0  3  0  0  0  0  0  0
  187.6450  177.4610  145.1620 C   0  0  0  0  0  0  0  0  0  0  0  0
  189.9350  176.9240  141.1920 C   0  0  0  0  0  3  0  0  0  0  0  0
  189.7210  177.4110  147.1360 N   0  0  0  0  0  0  0  0  0  0  0  0
  185.3150  178.8030  145.8650 C   0  0  0  0  0  3  0  0  0  0  0  0
  191.7150  177.5090  142.7580 C   0  0  0  0  0  3  0  0  0  0  0  0
  192.1750  177.6070  140.3000 C   0  0  0  0  0  1  0  0  0  0  0  0
  188.2900  178.2010  148.9030 C   0  0  0  0  0  1  0  0  0  0  0  0
  186.6180  177.6110  144.2240 C   0  0  0  0  0  3  0  0  0  0  0  0
  187.4560  177.9660  146.4690 C   0  0  0  0  0  0  0  0  0  0  0  0
  188.5310  177.8110  147.4860 C   0  0  0  0  0  0  0  0  0  0  0  0
  189.5260  176.8750  143.5550 C   0  0  0  0  0  0  0  0  0  0  0  0
  183.2950  179.4170  144.0460 C   0  0  0  0  0  1  0  0  0  0  0  0
  184.3730  178.4760  143.5400 C   0  0  1  0  0  3  0  0  0  0  0  0
  184.9410  178.9930  142.2230 C   0  0  0  0  0  2  0  0  0  0  0  0
  184.2050  178.3770  141.0450 C   0  0  0  0  0  2  0  0  0  0  0  0
  184.4640  179.1920  139.7910 C   0  0  0  0  0  2  0  0  0  0  0  0
  185.2110  178.3560  138.7640 C   0  0  0  0  0  2  0  0  0  0  0  0
  187.1760  177.5570  136.8400 O   0  0  0  0  0  0  0  0  0  0  0  0
  186.6470  178.5820  138.8730 N   0  0  0  0  0  2  0  0  0  0  0  0
  188.9680  178.3640  138.0730 N   0  0  0  0  0  1  0  0  0  0  0  0
  187.5770  178.1420  137.8820 C   0  0  0  0  0  0  0  0  0  0  0  0
  1 12  1  0  0  0  0
  2 11  1  0  0  0  0
  3 19  1  0  0  0  0
  4  5  1  0  0  0  0
  5  2  2  0  0  0  0
  6 13  2  0  0  0  0
  8 19  1  6  0  0  0
  8  9  1  0  0  0  0
  8  2  1  0  0  0  0
  9 17  2  0  0  0  0
 10  6  1  0  0  0  0
 10  3  2  0  0  0  0
 11 18  2  0  0  0  0
 12  7  2  0  0  0  0
 13  4  1  0  0  0  0
 14  6  1  0  0  0  0
 16  1  2  0  0  0  0
 16  9  1  0  0  0  0
 17  7  1  0  0  0  0
 17 18  1  0  0  0  0
 18 15  1  0  0  0  0
 19  4  2  0  0  0  0
 21 20  1  1  0  0  0
 21  1  1  0  0  0  0
 22 21  1  0  0  0  0
 23 22  1  0  0  0  0
 24 23  1  0  0  0  0
 25 27  1  0  0  0  0
 25 24  1  0  0  0  0
 26 29  2  0  0  0  0
 29 28  1  0  0  0  0
 29 27  1  0  0  0  0
M  END
>  <MODEL>
2

>  <REMARK>
 VINA RESULT:      -9.4      1.747      3.200
  Name = 
  6 active torsions:
  status: ('A' for Active; 'I' for Inactive)
    1  A    between atoms: C_1  and  C_27
    2  A    between atoms: C_17  and  C_19
    3  A    between atoms: C_17  and  C_29
    4  A    between atoms: C_19  and  C_27
    5  A    between atoms: N_21  and  C_26
    6  A    between atoms: C_26  and  C_29
                            x       y       z     vdW  Elec       q    Type
                         _______ _______ _______ _____ _____    ______ ____

>  <TORSDO>
F 6

$$$$
=
 OpenBabel10222418473D

 29 32  0  0  1  0  0  0  0  0999 V2000
  185.5410  178.2840  144.7490 C   0  0  0  0  0  0  0  0  0  0  0  0
  190.0800  177.0380  145.9440 C   0  0  0  0  0  0  0  0  0  0  0  0
  189.1330  176.6580  142.4270 C   0  0  0  0  0  3  0  0  0  0  0  0
  190.9090  177.2390  143.9540 C   0  0  0  0  0  0  0  0  0  0  0  0
  191.1750  177.3810  145.3390 N   0  0  0  0  0  0  0  0  0  0  0  0
  191.3310  177.3260  141.5950 C   0  0  0  0  0  0  0  0  0  0  0  0
  186.4080  178.6230  146.9560 N   0  0  0  0  0  0  0  0  0  0  0  0
  188.9540  176.6140  145.0330 C   0  0  1  0  0  3  0  0  0  0  0  0
  187.7380  177.4530  145.3370 C   0  0  0  0  0  0  0  0  0  0  0  0
  190.0070  176.9030  141.3560 C   0  0  0  0  0  3  0  0  0  0  0  0
  189.8250  177.4140  147.2990 N   0  0  0  0  0  0  0  0  0  0  0  0
  185.4110  178.7960  146.0470 C   0  0  0  0  0  3  0  0  0  0  0  0
  191.7950  177.4970  142.9100 C   0  0  0  0  0  3  0  0  0  0  0  0
  192.2420  177.5860  140.4490 C   0  0  0  0  0  1  0  0  0  0  0  0
  188.4030  178.2090  149.0710 C   0  0  0  0  0  1  0  0  0  0  0  0
  186.7060  177.5990  144.4040 C   0  0  0  0  0  3  0  0  0  0  0  0
  187.5560  177.9630  146.6430 C   0  0  0  0  0  0  0  0  0  0  0  0
  188.6370  177.8140  147.6550 C   0  0  0  0  0  0  0  0  0  0  0  0
  189.6110  176.8640  143.7210 C   0  0  0  0  0  0  0  0  0  0  0  0
  183.1620  178.9060  144.3840 C   0  0  0  0  0  1  0  0  0  0  0  0
  184.4560  178.4600  143.7280 C   0  0  1  0  0  3  0  0  0  0  0  0
  184.8670  179.4550  142.6490 C   0  0  0  0  0  2  0  0  0  0  0  0
  185.1730  178.7360  141.3470 C   0  0  0  0  0  2  0  0  0  0  0  0
  183.9000  178.5720  140.5370 C   0  0  0  0  0  2  0  0  0  0  0  0
  184.1000  179.1050  139.1270 C   0  0  0  0  0  2  0  0  0  0  0  0
  181.4340  179.6110  138.2120 O   0  0  0  0  0  0  0  0  0  0  0  0
  183.4850  180.4190  138.9890 N   0  0  0  0  0  2  0  0  0  0  0  0
  181.6300  181.9170  138.3640 N   0  0  0  0  0  1  0  0  0  0  0  0
  182.1520  180.6020  138.5090 C   0  0  0  0  0  0  0  0  0  0  0  0
  1 12  1  0  0  0  0
  2 11  1  0  0  0  0
  3 19  1  0  0  0  0
  4  5  1  0  0  0  0
  5  2  2  0  0  0  0
  6 13  2  0  0  0  0
  8 19  1  6  0  0  0
  8  9  1  0  0  0  0
  8  2  1  0  0  0  0
  9 17  2  0  0  0  0
 10  6  1  0  0  0  0
 10  3  2  0  0  0  0
 11 18  2  0  0  0  0
 12  7  2  0  0  0  0
 13  4  1  0  0  0  0
 14  6  1  0  0  0  0
 16  1  2  0  0  0  0
 16  9  1  0  0  0  0
 17  7  1  0  0  0  0
 17 18  1  0  0  0  0
 18 15  1  0  0  0  0
 19  4  2  0  0  0  0
 21 20  1  1  0  0  0
 21  1  1  0  0  0  0
 22 21  1  0  0  0  0
 23 22  1  0  0  0  0
 24 23  1  0  0  0  0
 25 24  1  0  0  0  0
 26 29  2  0  0  0  0
 27 25  1  0  0  0  0
 28 29  1  0  0  0  0
 29 27  1  0  0  0  0
M  END
>  <MODEL>
3

>  <REMARK>
 VINA RESULT:      -9.1      1.650      2.997
  Name = 
  6 active torsions:
  status: ('A' for Active; 'I' for Inactive)
    1  A    between atoms: C_1  and  C_27
    2  A    between atoms: C_17  and  C_19
    3  A    between atoms: C_17  and  C_29
    4  A    between atoms: C_19  and  C_27
    5  A    between atoms: N_21  and  C_26
    6  A    between atoms: C_26  and  C_29
                            x       y       z     vdW  Elec       q    Type
                         _______ _______ _______ _____ _____    ______ ____

>  <TORSDO>
F 6

$$$$
=
 OpenBabel10222418473D

 29 32  0  0  1  0  0  0  0  0999 V2000
  185.4250  178.6790  144.6010 C   0  0  0  0  0  0  0  0  0  0  0  0
  189.7940  176.8800  145.7200 C   0  0  0  0  0  0  0  0  0  0  0  0
  188.8540  176.8550  142.1810 C   0  0  0  0  0  3  0  0  0  0  0  0
  190.6630  177.1350  143.7530 C   0  0  0  0  0  0  0  0  0  0  0  0
  190.9260  177.1480  145.1460 N   0  0  0  0  0  0  0  0  0  0  0  0
  191.1190  177.3460  141.4080 C   0  0  0  0  0  0  0  0  0  0  0  0
  186.2970  178.7660  146.8300 N   0  0  0  0  0  0  0  0  0  0  0  0
  188.6400  176.6430  144.7760 C   0  0  1  0  0  3  0  0  0  0  0  0
  187.5160  177.5820  145.1360 C   0  0  0  0  0  0  0  0  0  0  0  0
  189.7600  177.0830  141.1340 C   0  0  0  0  0  3  0  0  0  0  0  0
  189.5640  177.1810  147.0980 N   0  0  0  0  0  0  0  0  0  0  0  0
  185.3340  179.1080  145.9320 C   0  0  0  0  0  3  0  0  0  0  0  0
  191.5830  177.3710  142.7340 C   0  0  0  0  0  3  0  0  0  0  0  0
  192.0640  177.5890  140.2880 C   0  0  0  0  0  1  0  0  0  0  0  0
  188.2130  177.9930  148.9170 C   0  0  0  0  0  1  0  0  0  0  0  0
  186.5160  177.9020  144.2110 C   0  0  0  0  0  3  0  0  0  0  0  0
  187.3730  178.0130  146.4740 C   0  0  0  0  0  0  0  0  0  0  0  0
  188.4210  177.6780  147.4770 C   0  0  0  0  0  0  0  0  0  0  0  0
  189.3350  176.9150  143.4890 C   0  0  0  0  0  0  0  0  0  0  0  0
  184.4740  178.1520  142.3650 C   0  0  0  0  0  1  0  0  0  0  0  0
  184.3770  179.0410  143.5910 C   0  0  1  0  0  3  0  0  0  0  0  0
  182.9770  178.9560  144.1910 C   0  0  0  0  0  2  0  0  0  0  0  0
  181.9250  178.9880  143.0960 C   0  0  0  0  0  2  0  0  0  0  0  0
  180.5760  178.5870  143.6650 C   0  0  0  0  0  2  0  0  0  0  0  0
  179.5080  178.6520  142.5850 C   0  0  0  0  0  2  0  0  0  0  0  0
  179.0490  176.0570  141.4640 O   0  0  0  0  0  0  0  0  0  0  0  0
  180.0380  178.1700  141.3170 N   0  0  0  0  0  2  0  0  0  0  0  0
  180.3660  176.4390  139.5930 N   0  0  0  0  0  1  0  0  0  0  0  0
  179.7840  176.8540  140.8220 C   0  0  0  0  0  0  0  0  0  0  0  0
  1 12  1  0  0  0  0
  2 11  1  0  0  0  0
  3 19  1  0  0  0  0
  4  5  1  0  0  0  0
  5  2  2  0  0  0  0
  6 13  2  0  0  0  0
  8 19  1  6  0  0  0
  8  9  1  0  0  0  0
  8  2  1  0  0  0  0
  9 17  2  0  0  0  0
 10  6  1  0  0  0  0
 10  3  2  0  0  0  0
 11 18  2  0  0  0  0
 12  7  2  0  0  0  0
 13  4  1  0  0  0  0
 14  6  1  0  0  0  0
 16  1  2  0  0  0  0
 16  9  1  0  0  0  0
 17  7  1  0  0  0  0
 17 18  1  0  0  0  0
 18 15  1  0  0  0  0
 19  4  2  0  0  0  0
 21 20  1  6  0  0  0
 21 22  1  0  0  0  0
 21  1  1  0  0  0  0
 23 24  1  0  0  0  0
 23 22  1  0  0  0  0
 25 24  1  0  0  0  0
 27 25  1  0  0  0  0
 28 29  1  0  0  0  0
 29 27  1  0  0  0  0
 29 26  2  0  0  0  0
M  END
>  <MODEL>
4

>  <REMARK>
 VINA RESULT:      -9.1      2.376      3.423
  Name = 
  6 active torsions:
  status: ('A' for Active; 'I' for Inactive)
    1  A    between atoms: C_1  and  C_27
    2  A    between atoms: C_17  and  C_19
    3  A    between atoms: C_17  and  C_29
    4  A    between atoms: C_19  and  C_27
    5  A    between atoms: N_21  and  C_26
    6  A    between atoms: C_26  and  C_29
                            x       y       z     vdW  Elec       q    Type
                         _______ _______ _______ _____ _____    ______ ____

>  <TORSDO>
F 6

$$$$
=
 OpenBabel10222418473D

 29 32  0  0  1  0  0  0  0  0999 V2000
  189.0790  177.3340  141.1690 C   0  0  0  0  0  0  0  0  0  0  0  0
  185.0390  178.5450  143.5750 C   0  0  0  0  0  0  0  0  0  0  0  0
  187.6960  176.9350  145.5120 C   0  0  0  0  0  3  0  0  0  0  0  0
  185.9440  178.5930  145.5420 C   0  0  0  0  0  0  0  0  0  0  0  0
  184.9560  179.1730  144.7070 N   0  0  0  0  0  0  0  0  0  0  0  0
  187.2720  178.2720  147.5130 C   0  0  0  0  0  0  0  0  0  0  0  0
  187.3000  178.5510  140.1250 N   0  0  0  0  0  0  0  0  0  0  0  0
  186.0860  177.4600  143.5230 C   0  0  1  0  0  3  0  0  0  0  0  0
  187.0070  177.7260  142.3590 C   0  0  0  0  0  0  0  0  0  0  0  0
  187.9990  177.2660  146.8430 C   0  0  0  0  0  3  0  0  0  0  0  0
  184.4890  179.0910  142.3750 N   0  0  0  0  0  0  0  0  0  0  0  0
  188.5590  178.0390  140.0750 C   0  0  0  0  0  3  0  0  0  0  0  0
  186.2270  178.9470  146.8590 C   0  0  0  0  0  3  0  0  0  0  0  0
  187.6080  178.6140  148.9190 C   0  0  0  0  0  1  0  0  0  0  0  0
  184.5550  179.5900  140.0210 C   0  0  0  0  0  1  0  0  0  0  0  0
  188.2900  177.1700  142.3070 C   0  0  0  0  0  3  0  0  0  0  0  0
  186.5120  178.4080  141.2250 C   0  0  0  0  0  0  0  0  0  0  0  0
  185.1470  179.0030  141.2540 C   0  0  0  0  0  0  0  0  0  0  0  0
  186.6750  177.6410  144.8780 C   0  0  0  0  0  0  0  0  0  0  0  0
  191.3390  177.5030  140.1470 C   0  0  0  0  0  1  0  0  0  0  0  0
  190.4640  176.7590  141.1390 C   0  0  1  0  0  3  0  0  0  0  0  0
  191.1040  176.7830  142.5220 C   0  0  0  0  0  2  0  0  0  0  0  0
  191.6300  178.1710  142.8440 C   0  0  0  0  0  2  0  0  0  0  0  0
  191.5990  178.4010  144.3430 C   0  0  0  0  0  2  0  0  0  0  0  0
  191.1740  177.1310  145.0630 C   0  0  0  0  0  2  0  0  0  0  0  0
  192.4300  174.8950  146.3360 O   0  0  0  0  0  0  0  0  0  0  0  0
  191.7030  177.1150  146.4200 N   0  0  0  0  0  2  0  0  0  0  0  0
  192.7660  176.0030  148.3460 N   0  0  0  0  0  1  0  0  0  0  0  0
  192.3050  175.9570  147.0020 C   0  0  0  0  0  0  0  0  0  0  0  0
  1 16  1  0  0  0  0
  2  5  2  0  0  0  0
  3 10  1  0  0  0  0
  4 13  2  0  0  0  0
  5  4  1  0  0  0  0
  6 14  1  0  0  0  0
  7 17  2  0  0  0  0
  8  9  1  6  0  0  0
  8  2  1  0  0  0  0
  8 19  1  0  0  0  0
 10  6  2  0  0  0  0
 11  2  1  0  0  0  0
 12  7  1  0  0  0  0
 12  1  2  0  0  0  0
 13  6  1  0  0  0  0
 15 18  1  0  0  0  0
 16  9  2  0  0  0  0
 17 18  1  0  0  0  0
 17  9  1  0  0  0  0
 18 11  2  0  0  0  0
 19  3  2  0  0  0  0
 19  4  1  0  0  0  0
 21 20  1  6  0  0  0
 21  1  1  0  0  0  0
 21 22  1  0  0  0  0
 22 23  1  0  0  0  0
 23 24  1  0  0  0  0
 24 25  1  0  0  0  0
 25 27  1  0  0  0  0
 26 29  2  0  0  0  0
 27 29  1  0  0  0  0
 29 28  1  0  0  0  0
M  END
>  <MODEL>
5

>  <REMARK>
 VINA RESULT:      -8.9      2.631      7.756
  Name = 
  6 active torsions:
  status: ('A' for Active; 'I' for Inactive)
    1  A    between atoms: C_1  and  C_27
    2  A    between atoms: C_17  and  C_19
    3  A    between atoms: C_17  and  C_29
    4  A    between atoms: C_19  and  C_27
    5  A    between atoms: N_21  and  C_26
    6  A    between atoms: C_26  and  C_29
                            x       y       z     vdW  Elec       q    Type
                         _______ _______ _______ _____ _____    ______ ____

>  <TORSDO>
F 6

$$$$
=
 OpenBabel10222418473D

 29 32  0  0  1  0  0  0  0  0999 V2000
  187.2050  178.4010  141.6780 C   0  0  0  0  0  0  0  0  0  0  0  0
  185.0330  178.2090  146.0170 C   0  0  0  0  0  0  0  0  0  0  0  0
  188.5390  177.1600  145.8750 C   0  0  0  0  0  3  0  0  0  0  0  0
  186.8520  178.2750  147.1910 C   0  0  0  0  0  0  0  0  0  0  0  0
  185.4890  178.6600  147.1450 N   0  0  0  0  0  0  0  0  0  0  0  0
  189.0780  178.1020  148.0640 C   0  0  0  0  0  0  0  0  0  0  0  0
  184.9750  179.2070  142.0140 N   0  0  0  0  0  0  0  0  0  0  0  0
  186.0390  177.4560  145.1800 C   0  0  1  0  0  3  0  0  0  0  0  0
  186.1050  178.0880  143.8120 C   0  0  0  0  0  0  0  0  0  0  0  0
  189.4670  177.4090  146.8990 C   0  0  0  0  0  3  0  0  0  0  0  0
  183.8310  178.7190  145.4370 N   0  0  0  0  0  0  0  0  0  0  0  0
  186.0610  179.0600  141.2080 C   0  0  0  0  0  3  0  0  0  0  0  0
  187.7530  178.5420  148.2190 C   0  0  0  0  0  3  0  0  0  0  0  0
  190.0740  178.3600  149.1370 C   0  0  0  0  0  1  0  0  0  0  0  0
  182.5040  179.4790  143.5780 C   0  0  0  0  0  1  0  0  0  0  0  0
  187.2150  177.9040  142.9810 C   0  0  0  0  0  3  0  0  0  0  0  0
  184.9620  178.7360  143.2910 C   0  0  0  0  0  0  0  0  0  0  0  0
  183.7650  178.9370  144.1540 C   0  0  0  0  0  0  0  0  0  0  0  0
  187.2380  177.6340  146.0420 C   0  0  0  0  0  0  0  0  0  0  0  0
  189.3330  177.1530  141.3690 C   0  0  0  0  0  1  0  0  0  0  0  0
  188.4150  178.2240  140.8090 C   0  0  1  0  0  3  0  0  0  0  0  0
  188.0220  177.8800  139.3760 C   0  0  0  0  0  2  0  0  0  0  0  0
  189.2520  177.8180  138.4860 C   0  0  0  0  0  2  0  0  0  0  0  0
  189.3370  176.4580  137.8190 C   0  0  0  0  0  2  0  0  0  0  0  0
  190.7890  176.0820  137.5720 C   0  0  0  0  0  2  0  0  0  0  0  0
  193.5670  176.7680  137.4550 O   0  0  0  0  0  0  0  0  0  0  0  0
  191.6150  176.4750  138.7060 N   0  0  0  0  0  2  0  0  0  0  0  0
  193.7560  177.1290  139.7380 N   0  0  0  0  0  1  0  0  0  0  0  0
  193.0030  176.7900  138.5810 C   0  0  0  0  0  0  0  0  0  0  0  0
  1 16  1  0  0  0  0
  2  5  2  0  0  0  0
  3 19  2  0  0  0  0
  3 10  1  0  0  0  0
  4 13  2  0  0  0  0
  5  4  1  0  0  0  0
  6 13  1  0  0  0  0
  6 14  1  0  0  0  0
  7 17  2  0  0  0  0
  8  9  1  6  0  0  0
  8  2  1  0  0  0  0
  8 19  1  0  0  0  0
 10  6  2  0  0  0  0
 11  2  1  0  0  0  0
 12  1  2  0  0  0  0
 12  7  1  0  0  0  0
 15 18  1  0  0  0  0
 16  9  2  0  0  0  0
 17  9  1  0  0  0  0
 17 18  1  0  0  0  0
 18 11  2  0  0  0  0
 19  4  1  0  0  0  0
 21 20  1  1  0  0  0
 21  1  1  0  0  0  0
 22 21  1  0  0  0  0
 23 22  1  0  0  0  0
 24 23  1  0  0  0  0
 25 24  1  0  0  0  0
 25 27  1  0  0  0  0
 26 29  2  0  0  0  0
 29 27  1  0  0  0  0
 29 28  1  0  0  0  0
M  END
>  <MODEL>
6

>  <REMARK>
 VINA RESULT:      -8.8      2.803      7.422
  Name = 
  6 active torsions:
  status: ('A' for Active; 'I' for Inactive)
    1  A    between atoms: C_1  and  C_27
    2  A    between atoms: C_17  and  C_19
    3  A    between atoms: C_17  and  C_29
    4  A    between atoms: C_19  and  C_27
    5  A    between atoms: N_21  and  C_26
    6  A    between atoms: C_26  and  C_29
                            x       y       z     vdW  Elec       q    Type
                         _______ _______ _______ _____ _____    ______ ____

>  <TORSDO>
F 6

$$$$
=
 OpenBabel10222418473D

 29 32  0  0  1  0  0  0  0  0999 V2000
  185.5150  178.3900  144.5170 C   0  0  0  0  0  0  0  0  0  0  0  0
  190.0180  177.0300  145.7230 C   0  0  0  0  0  0  0  0  0  0  0  0
  189.0700  176.6740  142.2030 C   0  0  0  0  0  3  0  0  0  0  0  0
  190.8570  177.2100  143.7330 C   0  0  0  0  0  0  0  0  0  0  0  0
  191.1230  177.3450  145.1190 N   0  0  0  0  0  0  0  0  0  0  0  0
  191.2860  177.2860  141.3750 C   0  0  0  0  0  0  0  0  0  0  0  0
  186.3860  178.7070  146.7260 N   0  0  0  0  0  0  0  0  0  0  0  0
  188.8840  176.6340  144.8090 C   0  0  1  0  0  3  0  0  0  0  0  0
  187.6900  177.5040  145.1100 C   0  0  0  0  0  0  0  0  0  0  0  0
  189.9520  176.8970  141.1340 C   0  0  0  0  0  3  0  0  0  0  0  0
  189.7700  177.4110  147.0770 N   0  0  0  0  0  0  0  0  0  0  0  0
  185.3950  178.9060  145.8160 C   0  0  0  0  0  3  0  0  0  0  0  0
  191.7510  177.4450  142.6920 C   0  0  0  0  0  3  0  0  0  0  0  0
  192.2050  177.5220  140.2320 C   0  0  0  0  0  1  0  0  0  0  0  0
  188.3650  178.2420  148.8450 C   0  0  0  0  0  1  0  0  0  0  0  0
  186.6630  177.6770  144.1750 C   0  0  0  0  0  3  0  0  0  0  0  0
  187.5180  178.0180  146.4150 C   0  0  0  0  0  0  0  0  0  0  0  0
  188.5920  177.8410  147.4300 C   0  0  0  0  0  0  0  0  0  0  0  0
  189.5490  176.8670  143.4980 C   0  0  0  0  0  0  0  0  0  0  0  0
  183.2300  179.2810  144.1080 C   0  0  0  0  0  1  0  0  0  0  0  0
  184.4380  178.5940  143.4950 C   0  0  1  0  0  3  0  0  0  0  0  0
  184.9480  179.3980  142.3040 C   0  0  0  0  0  2  0  0  0  0  0  0
  184.7410  178.6270  141.0110 C   0  0  0  0  0  2  0  0  0  0  0  0
  183.3600  177.9970  141.0020 C   0  0  0  0  0  2  0  0  0  0  0  0
  182.7800  178.0210  139.5970 C   0  0  0  0  0  2  0  0  0  0  0  0
  182.0200  175.2760  139.3030 O   0  0  0  0  0  0  0  0  0  0  0  0
  183.4510  177.0400  138.7540 N   0  0  0  0  0  2  0  0  0  0  0  0
  183.7550  174.7670  137.8510 N   0  0  0  0  0  1  0  0  0  0  0  0
  183.0290  175.6780  138.6650 C   0  0  0  0  0  0  0  0  0  0  0  0
  1 12  1  0  0  0  0
  2 11  1  0  0  0  0
  3 19  1  0  0  0  0
  4  5  1  0  0  0  0
  5  2  2  0  0  0  0
  6 13  2  0  0  0  0
  8 19  1  6  0  0  0
  8  9  1  0  0  0  0
  8  2  1  0  0  0  0
  9 17  2  0  0  0  0
 10  6  1  0  0  0  0
 10  3  2  0  0  0  0
 11 18  2  0  0  0  0
 12  7  2  0  0  0  0
 13  4  1  0  0  0  0
 14  6  1  0  0  0  0
 16  1  2  0  0  0  0
 16  9  1  0  0  0  0
 17  7  1  0  0  0  0
 17 18  1  0  0  0  0
 18 15  1  0  0  0  0
 19  4  2  0  0  0  0
 21 20  1  1  0  0  0
 21  1  1  0  0  0  0
 22 21  1  0  0  0  0
 23 22  1  0  0  0  0
 24 23  1  0  0  0  0
 25 24  1  0  0  0  0
 27 25  1  0  0  0  0
 28 29  1  0  0  0  0
 29 27  1  0  0  0  0
 29 26  2  0  0  0  0
M  END
>  <MODEL>
7

>  <REMARK>
 VINA RESULT:      -8.6      1.890      3.116
  Name = 
  6 active torsions:
  status: ('A' for Active; 'I' for Inactive)
    1  A    between atoms: C_1  and  C_27
    2  A    between atoms: C_17  and  C_19
    3  A    between atoms: C_17  and  C_29
    4  A    between atoms: C_19  and  C_27
    5  A    between atoms: N_21  and  C_26
    6  A    between atoms: C_26  and  C_29
                            x       y       z     vdW  Elec       q    Type
                         _______ _______ _______ _____ _____    ______ ____

>  <TORSDO>
F 6

$$$$
=
 OpenBabel10222418473D

 29 32  0  0  1  0  0  0  0  0999 V2000
  186.8790  177.8010  145.4380 C   0  0  0  0  0  0  0  0  0  0  0  0
  190.8680  176.4730  143.0080 C   0  0  0  0  0  0  0  0  0  0  0  0
  187.8960  177.2430  141.0120 C   0  0  0  0  0  3  0  0  0  0  0  0
  190.3020  177.3740  141.1210 C   0  0  0  0  0  0  0  0  0  0  0  0
  191.3900  177.0570  141.9740 N   0  0  0  0  0  0  0  0  0  0  0  0
  189.1770  178.2700  139.2020 C   0  0  0  0  0  0  0  0  0  0  0  0
  188.9700  177.4260  146.5440 N   0  0  0  0  0  0  0  0  0  0  0  0
  189.3670  176.3180  142.9620 C   0  0  1  0  0  3  0  0  0  0  0  0
  188.7750  176.9410  144.2020 C   0  0  0  0  0  0  0  0  0  0  0  0
  187.9420  177.8800  139.7610 C   0  0  0  0  0  3  0  0  0  0  0  0
  191.5800  176.3570  144.2410 N   0  0  0  0  0  0  0  0  0  0  0  0
  187.6750  177.8400  146.5910 C   0  0  0  0  0  3  0  0  0  0  0  0
  190.3780  178.0140  139.8860 C   0  0  0  0  0  3  0  0  0  0  0  0
  189.2090  178.9470  137.8800 C   0  0  0  0  0  1  0  0  0  0  0  0
  191.7330  176.4350  146.6420 C   0  0  0  0  0  1  0  0  0  0  0  0
  187.4340  177.3350  144.2460 C   0  0  0  0  0  3  0  0  0  0  0  0
  189.5360  176.9730  145.3930 C   0  0  0  0  0  0  0  0  0  0  0  0
  190.9630  176.5500  145.3730 C   0  0  0  0  0  0  0  0  0  0  0  0
  189.0990  177.0280  141.6820 C   0  0  0  0  0  0  0  0  0  0  0  0
  184.9480  178.3910  146.8890 C   0  0  0  0  0  1  0  0  0  0  0  0
  185.4480  178.2500  145.4630 C   0  0  1  0  0  3  0  0  0  0  0  0
  185.2670  179.5640  144.7120 C   0  0  0  0  0  2  0  0  0  0  0  0
  183.8720  179.6530  144.1180 C   0  0  0  0  0  2  0  0  0  0  0  0
  183.7440  178.6850  142.9550 C   0  0  0  0  0  2  0  0  0  0  0  0
  182.3360  178.7320  142.3840 C   0  0  0  0  0  2  0  0  0  0  0  0
  179.6690  177.6900  142.4250 O   0  0  0  0  0  0  0  0  0  0  0  0
  181.3620  178.9350  143.4480 N   0  0  0  0  0  2  0  0  0  0  0  0
  179.1290  178.6700  144.4570 N   0  0  0  0  0  1  0  0  0  0  0  0
  180.0390  178.3990  143.3990 C   0  0  0  0  0  0  0  0  0  0  0  0
  1 21  1  0  0  0  0
  1 12  1  0  0  0  0
  2 11  1  0  0  0  0
  3 19  1  0  0  0  0
  4 19  2  0  0  0  0
  4  5  1  0  0  0  0
  5  2  2  0  0  0  0
  6 10  1  0  0  0  0
  6 13  2  0  0  0  0
  7 12  2  0  0  0  0
  8 19  1  6  0  0  0
  8  2  1  0  0  0  0
  8  9  1  0  0  0  0
  9 16  1  0  0  0  0
  9 17  2  0  0  0  0
 10  3  2  0  0  0  0
 11 18  2  0  0  0  0
 13  4  1  0  0  0  0
 14  6  1  0  0  0  0
 16  1  2  0  0  0  0
 17  7  1  0  0  0  0
 18 17  1  0  0  0  0
 18 15  1  0  0  0  0
 21 20  1  1  0  0  0
 22 21  1  0  0  0  0
 23 22  1  0  0  0  0
 24 23  1  0  0  0  0
 25 24  1  0  0  0  0
 25 27  1  0  0  0  0
 26 29  2  0  0  0  0
 29 27  1  0  0  0  0
 29 28  1  0  0  0  0
M  END
>  <MODEL>
8

>  <REMARK>
 VINA RESULT:      -8.6      1.907      2.250
  Name = 
  6 active torsions:
  status: ('A' for Active; 'I' for Inactive)
    1  A    between atoms: C_1  and  C_27
    2  A    between atoms: C_17  and  C_19
    3  A    between atoms: C_17  and  C_29
    4  A    between atoms: C_19  and  C_27
    5  A    between atoms: N_21  and  C_26
    6  A    between atoms: C_26  and  C_29
                            x       y       z     vdW  Elec       q    Type
                         _______ _______ _______ _____ _____    ______ ____

>  <TORSDO>
F 6

$$$$
=
 OpenBabel10222418473D

 29 32  0  0  1  0  0  0  0  0999 V2000
  187.7820  177.2660  142.9540 C   0  0  0  0  0  0  0  0  0  0  0  0
  183.5290  179.1550  144.3410 C   0  0  0  0  0  0  0  0  0  0  0  0
  184.0470  178.7120  140.7430 C   0  0  0  0  0  3  0  0  0  0  0  0
  182.4430  178.6280  142.5420 C   0  0  0  0  0  0  0  0  0  0  0  0
  182.3450  178.8000  143.9460 N   0  0  0  0  0  0  0  0  0  0  0  0
  181.7200  178.0990  140.3180 C   0  0  0  0  0  0  0  0  0  0  0  0
  187.1800  177.4710  145.2630 N   0  0  0  0  0  0  0  0  0  0  0  0
  184.5570  179.2740  143.2420 C   0  0  1  0  0  3  0  0  0  0  0  0
  185.7400  178.4040  143.5850 C   0  0  0  0  0  0  0  0  0  0  0  0
  183.0300  178.3360  139.8510 C   0  0  0  0  0  3  0  0  0  0  0  0
  183.9270  179.0440  145.7080 N   0  0  0  0  0  0  0  0  0  0  0  0
  188.0400  177.0210  144.3100 C   0  0  0  0  0  3  0  0  0  0  0  0
  181.4160  178.2470  141.6820 C   0  0  0  0  0  3  0  0  0  0  0  0
  180.6560  177.6970  139.3620 C   0  0  0  0  0  1  0  0  0  0  0  0
  185.5020  178.4980  147.4440 C   0  0  0  0  0  1  0  0  0  0  0  0
  186.6330  177.9720  142.5990 C   0  0  0  0  0  3  0  0  0  0  0  0
  186.0500  178.1580  144.9420 C   0  0  0  0  0  0  0  0  0  0  0  0
  185.1190  178.6150  146.0100 C   0  0  0  0  0  0  0  0  0  0  0  0
  183.7240  178.8240  142.0940 C   0  0  0  0  0  0  0  0  0  0  0  0
  188.9840  177.8740  140.8650 C   0  0  0  0  0  1  0  0  0  0  0  0
  188.7140  176.7810  141.8840 C   0  0  1  0  0  3  0  0  0  0  0  0
  190.0270  176.2820  142.4760 C   0  0  0  0  0  2  0  0  0  0  0  0
  191.1030  177.3480  142.3640 C   0  0  0  0  0  2  0  0  0  0  0  0
  191.6780  177.6470  143.7370 C   0  0  0  0  0  2  0  0  0  0  0  0
  191.4440  176.4730  144.6730 C   0  0  0  0  0  2  0  0  0  0  0  0
  190.0690  176.5180  147.1850 O   0  0  0  0  0  0  0  0  0  0  0  0
  192.0550  176.7290  145.9710 N   0  0  0  0  0  2  0  0  0  0  0  0
  191.9630  177.0490  148.4140 N   0  0  0  0  0  1  0  0  0  0  0  0
  191.3060  176.7540  147.1880 C   0  0  0  0  0  0  0  0  0  0  0  0
  1 12  1  0  0  0  0
  2 11  1  0  0  0  0
  3 19  1  0  0  0  0
  4  5  1  0  0  0  0
  5  2  2  0  0  0  0
  6 13  2  0  0  0  0
  8 19  1  6  0  0  0
  8  9  1  0  0  0  0
  8  2  1  0  0  0  0
  9 17  2  0  0  0  0
 10  6  1  0  0  0  0
 10  3  2  0  0  0  0
 11 18  2  0  0  0  0
 12  7  2  0  0  0  0
 13  4  1  0  0  0  0
 14  6  1  0  0  0  0
 16  1  2  0  0  0  0
 16  9  1  0  0  0  0
 17  7  1  0  0  0  0
 17 18  1  0  0  0  0
 18 15  1  0  0  0  0
 19  4  2  0  0  0  0
 21 20  1  6  0  0  0
 21 22  1  0  0  0  0
 21  1  1  0  0  0  0
 23 22  1  0  0  0  0
 23 24  1  0  0  0  0
 24 25  1  0  0  0  0
 25 27  1  0  0  0  0
 26 29  2  0  0  0  0
 27 29  1  0  0  0  0
 29 28  1  0  0  0  0
M  END
>  <MODEL>
9

>  <REMARK>
 VINA RESULT:      -8.5      2.646      7.217
  Name = 
  6 active torsions:
  status: ('A' for Active; 'I' for Inactive)
    1  A    between atoms: C_1  and  C_27
    2  A    between atoms: C_17  and  C_19
    3  A    between atoms: C_17  and  C_29
    4  A    between atoms: C_19  and  C_27
    5  A    between atoms: N_21  and  C_26
    6  A    between atoms: C_26  and  C_29
                            x       y       z     vdW  Elec       q    Type
                         _______ _______ _______ _____ _____    ______ ____

>  <TORSDO>
F 6

$$$$
