=
 OpenBabel10222416553D

 28 31  0  0  1  0  0  0  0  0999 V2000
  190.5000  177.0240  145.8730 C   0  0  0  0  0  0  0  0  0  0  0  0
  186.1510  178.1180  144.8780 N   0  0  0  0  0  0  0  0  0  0  0  0
  191.2780  176.8370  142.3580 C   0  0  0  0  0  3  0  0  0  0  0  0
  186.1670  178.4970  146.2620 C   0  0  0  0  0  0  0  0  0  0  0  0
  187.1100  177.9860  147.1720 O   0  0  0  0  0  0  0  0  0  0  0  0
  187.3200  177.5970  143.0580 C   0  0  0  0  0  0  0  0  0  0  0  0
  186.6270  178.6160  142.6670 N   0  0  0  0  0  0  0  0  0  0  0  0
  189.3730  177.9310  146.2770 C   0  0  0  0  0  2  0  0  0  0  0  0
  188.4520  177.0210  142.3340 C   0  0  2  0  0  3  0  0  0  0  0  0
  190.4600  176.1830  143.4000 C   0  0  0  0  0  0  0  0  0  0  0  0
  187.0380  177.2260  144.3520 O   0  0  0  0  0  0  0  0  0  0  0  0
  190.5410  176.5940  144.6390 C   0  0  0  0  0  0  0  0  0  0  0  0
  189.0930  175.8020  142.9400 C   0  0  0  0  0  2  0  0  0  0  0  0
  188.1970  177.1280  146.8290 C   0  0  0  0  0  2  0  0  0  0  0  0
  189.1890  177.8060  141.5300 C   0  0  0  0  0  2  0  0  0  0  0  0
  190.6540  177.5790  141.4240 C   0  0  0  0  0  3  0  0  0  0  0  0
  185.3160  179.3260  146.6800 O   0  0  0  0  0  0  0  0  0  0  0  0
  185.7740  179.0220  143.7930 C   0  0  1  0  0  3  0  0  0  0  0  0
  182.6180  178.4990  141.7640 C   0  0  0  0  0  3  0  0  0  0  0  0
  183.3330  178.9200  144.4340 C   0  0  0  0  0  3  0  0  0  0  0  0
  181.6300  178.5600  142.7510 C   0  0  0  0  0  0  0  0  0  0  0  0
  181.9870  178.7700  144.0860 C   0  0  0  0  0  3  0  0  0  0  0  0
  184.3270  178.8600  143.4470 C   0  0  0  0  0  0  0  0  0  0  0  0
  180.3260  178.4140  142.4140 F   0  0  0  0  0  0  0  0  0  0  0  0
  183.9640  178.6490  142.1120 C   0  0  0  0  0  3  0  0  0  0  0  0
  191.4900  176.5650  146.8600 C   0  0  0  0  0  0  0  0  0  0  0  0
  191.6630  177.2070  147.9310 O   0  0  0  0  0  1  0  0  0  0  0  0
  192.2480  175.4240  146.6220 O   0  0  0  0  0  0  0  0  0  0  0  0
  1  8  1  0  0  0  0
  1 26  1  0  0  0  0
  2  4  1  0  0  0  0
  3 10  1  0  0  0  0
  4 17  2  0  0  0  0
  4  5  1  0  0  0  0
  6 11  1  0  0  0  0
  7  6  2  0  0  0  0
  7 18  1  0  0  0  0
  8 14  1  0  0  0  0
  9 15  1  1  0  0  0
  9 13  1  0  0  0  0
  9  6  1  0  0  0  0
 10 12  2  0  0  0  0
 11  2  1  0  0  0  0
 12  1  2  0  0  0  0
 13 10  1  0  0  0  0
 14  5  1  0  0  0  0
 16 15  1  0  0  0  0
 16  3  2  0  0  0  0
 18 23  1  6  0  0  0
 18  2  1  0  0  0  0
 19 25  2  0  0  0  0
 19 21  1  0  0  0  0
 21 22  2  0  0  0  0
 22 20  1  0  0  0  0
 23 20  2  0  0  0  0
 24 21  1  0  0  0  0
 25 23  1  0  0  0  0
 26 27  1  0  0  0  0
 28 26  2  0  0  0  0
M  END
>  <MODEL>
1

>  <REMARK>
 VINA RESULT:     -10.6      0.000      0.000
  Name = 
  2 active torsions:
  status: ('A' for Active; 'I' for Inactive)
    1  A    between atoms: C_1  and  C_20
    2  A    between atoms: C_24  and  C_26
                            x       y       z     vdW  Elec       q    Type
                         _______ _______ _______ _____ _____    ______ ____

>  <TORSDO>
F 2

$$$$
=
 OpenBabel10222416553D

 28 31  0  0  1  0  0  0  0  0999 V2000
  188.8560  177.7920  146.4260 C   0  0  0  0  0  0  0  0  0  0  0  0
  184.9370  178.2020  144.0650 N   0  0  0  0  0  0  0  0  0  0  0  0
  190.7080  177.5330  143.3440 C   0  0  0  0  0  3  0  0  0  0  0  0
  184.4740  178.6520  145.3480 C   0  0  0  0  0  0  0  0  0  0  0  0
  185.1400  178.3280  146.5430 O   0  0  0  0  0  0  0  0  0  0  0  0
  186.6680  177.7580  142.7410 C   0  0  0  0  0  0  0  0  0  0  0  0
  186.0160  178.6460  142.0650 N   0  0  0  0  0  0  0  0  0  0  0  0
  187.5590  178.5490  146.3840 C   0  0  0  0  0  2  0  0  0  0  0  0
  188.0300  177.3110  142.4510 C   0  0  2  0  0  3  0  0  0  0  0  0
  189.6900  176.8240  144.1470 C   0  0  0  0  0  0  0  0  0  0  0  0
  186.0430  177.4190  143.9180 O   0  0  0  0  0  0  0  0  0  0  0  0
  189.3310  177.3070  145.3080 C   0  0  0  0  0  0  0  0  0  0  0  0
  188.5900  176.2290  143.3340 C   0  0  0  0  0  2  0  0  0  0  0  0
  186.3750  177.6170  146.6280 C   0  0  0  0  0  2  0  0  0  0  0  0
  188.8830  178.1500  141.8360 C   0  0  0  0  0  2  0  0  0  0  0  0
  190.3240  178.1280  142.2000 C   0  0  0  0  0  3  0  0  0  0  0  0
  183.4440  179.3710  145.4100 O   0  0  0  0  0  0  0  0  0  0  0  0
  184.8130  178.9850  142.8370 C   0  0  1  0  0  3  0  0  0  0  0  0
  182.5550  177.4890  140.1880 C   0  0  0  0  0  3  0  0  0  0  0  0
  182.3030  178.9770  142.5410 C   0  0  0  0  0  3  0  0  0  0  0  0
  181.2890  177.8660  140.6450 C   0  0  0  0  0  0  0  0  0  0  0  0
  181.1630  178.6100  141.8210 C   0  0  0  0  0  3  0  0  0  0  0  0
  183.5750  178.6000  142.0870 C   0  0  0  0  0  0  0  0  0  0  0  0
  180.1840  177.5100  139.9470 F   0  0  0  0  0  0  0  0  0  0  0  0
  183.6960  177.8550  140.9080 C   0  0  0  0  0  3  0  0  0  0  0  0
  189.5360  177.5300  147.7050 C   0  0  0  0  0  0  0  0  0  0  0  0
  189.0540  177.9740  148.7820 O   0  0  0  0  0  1  0  0  0  0  0  0
  190.7170  176.7980  147.7400 O   0  0  0  0  0  0  0  0  0  0  0  0
  1 26  1  0  0  0  0
  2  4  1  0  0  0  0
  3 10  1  0  0  0  0
  4 17  2  0  0  0  0
  4  5  1  0  0  0  0
  5 14  1  0  0  0  0
  6 11  1  0  0  0  0
  7  6  2  0  0  0  0
  7 18  1  0  0  0  0
  8  1  1  0  0  0  0
  8 14  1  0  0  0  0
  9 15  1  1  0  0  0
  9  6  1  0  0  0  0
  9 13  1  0  0  0  0
 10 12  2  0  0  0  0
 11  2  1  0  0  0  0
 12  1  2  0  0  0  0
 13 10  1  0  0  0  0
 15 16  1  0  0  0  0
 16  3  2  0  0  0  0
 18 23  1  6  0  0  0
 18  2  1  0  0  0  0
 19 21  2  0  0  0  0
 19 25  1  0  0  0  0
 21 22  1  0  0  0  0
 22 20  2  0  0  0  0
 23 20  1  0  0  0  0
 24 21  1  0  0  0  0
 25 23  2  0  0  0  0
 26 28  2  0  0  0  0
 26 27  1  0  0  0  0
M  END
>  <MODEL>
2

>  <REMARK>
 VINA RESULT:      -9.9      1.347      1.775
  Name = 
  2 active torsions:
  status: ('A' for Active; 'I' for Inactive)
    1  A    between atoms: C_1  and  C_20
    2  A    between atoms: C_24  and  C_26
                            x       y       z     vdW  Elec       q    Type
                         _______ _______ _______ _____ _____    ______ ____

>  <TORSDO>
F 2

$$$$
=
 OpenBabel10222416553D

 28 31  0  0  1  0  0  0  0  0999 V2000
  188.0110  178.0060  146.6850 C   0  0  0  0  0  0  0  0  0  0  0  0
  185.0110  178.4100  143.2300 N   0  0  0  0  0  0  0  0  0  0  0  0
  190.7080  177.6200  144.3240 C   0  0  0  0  0  3  0  0  0  0  0  0
  184.1910  178.9080  144.2980 C   0  0  0  0  0  0  0  0  0  0  0  0
  184.4510  178.6100  145.6480 O   0  0  0  0  0  0  0  0  0  0  0  0
  187.0510  177.8960  142.5100 C   0  0  0  0  0  0  0  0  0  0  0  0
  186.6600  178.7740  141.6450 N   0  0  0  0  0  0  0  0  0  0  0  0
  186.8090  178.7830  146.2300 C   0  0  0  0  0  2  0  0  0  0  0  0
  188.4250  177.4170  142.6600 C   0  0  2  0  0  3  0  0  0  0  0  0
  189.4750  176.9550  144.7940 C   0  0  0  0  0  0  0  0  0  0  0  0
  186.0890  177.6040  143.4470 O   0  0  0  0  0  0  0  0  0  0  0  0
  188.7910  177.4790  145.7780 C   0  0  0  0  0  0  0  0  0  0  0  0
  188.6610  176.3540  143.6980 C   0  0  0  0  0  2  0  0  0  0  0  0
  185.5820  177.8800  146.1220 C   0  0  0  0  0  2  0  0  0  0  0  0
  189.4460  178.2220  142.3160 C   0  0  0  0  0  2  0  0  0  0  0  0
  190.7060  178.1870  143.1030 C   0  0  0  0  0  3  0  0  0  0  0  0
  183.2090  179.6460  144.0250 O   0  0  0  0  0  0  0  0  0  0  0  0
  185.2880  179.1570  142.0040 C   0  0  1  0  0  3  0  0  0  0  0  0
  182.5660  177.3060  140.1280 C   0  0  0  0  0  3  0  0  0  0  0  0
  184.2840  179.4710  139.7070 C   0  0  0  0  0  3  0  0  0  0  0  0
  182.5240  178.0070  138.9200 C   0  0  0  0  0  0  0  0  0  0  0  0
  183.3830  179.0890  138.7090 C   0  0  0  0  0  3  0  0  0  0  0  0
  184.3290  178.7710  140.9210 C   0  0  0  0  0  0  0  0  0  0  0  0
  181.6510  177.6360  137.9530 F   0  0  0  0  0  0  0  0  0  0  0  0
  183.4670  177.6880  141.1270 C   0  0  0  0  0  3  0  0  0  0  0  0
  188.2610  177.7730  148.1160 C   0  0  0  0  0  0  0  0  0  0  0  0
  187.4800  177.0450  148.7860 O   0  0  0  0  0  1  0  0  0  0  0  0
  189.3550  178.3550  148.7460 O   0  0  0  0  0  0  0  0  0  0  0  0
  1 26  1  0  0  0  0
  2 11  1  0  0  0  0
  2  4  1  0  0  0  0
  3 10  1  0  0  0  0
  4  5  1  0  0  0  0
  5 14  1  0  0  0  0
  6  9  1  0  0  0  0
  6 11  1  0  0  0  0
  7 18  1  0  0  0  0
  7  6  2  0  0  0  0
  8  1  1  0  0  0  0
  9 15  1  1  0  0  0
  9 13  1  0  0  0  0
 10 12  2  0  0  0  0
 12  1  2  0  0  0  0
 13 10  1  0  0  0  0
 14  8  1  0  0  0  0
 15 16  1  0  0  0  0
 16  3  2  0  0  0  0
 17  4  2  0  0  0  0
 18 23  1  6  0  0  0
 18  2  1  0  0  0  0
 19 25  1  0  0  0  0
 20 23  1  0  0  0  0
 21 19  2  0  0  0  0
 22 21  1  0  0  0  0
 22 20  2  0  0  0  0
 23 25  2  0  0  0  0
 24 21  1  0  0  0  0
 26 28  2  0  0  0  0
 26 27  1  0  0  0  0
M  END
>  <MODEL>
3

>  <REMARK>
 VINA RESULT:      -9.8      1.964      2.931
  Name = 
  2 active torsions:
  status: ('A' for Active; 'I' for Inactive)
    1  A    between atoms: C_1  and  C_20
    2  A    between atoms: C_24  and  C_26
                            x       y       z     vdW  Elec       q    Type
                         _______ _______ _______ _____ _____    ______ ____

>  <TORSDO>
F 2

$$$$
=
 OpenBabel10222416553D

 28 31  0  0  1  0  0  0  0  0999 V2000
  185.5960  178.6820  144.8730 C   0  0  0  0  0  0  0  0  0  0  0  0
  186.5640  178.2930  140.4000 N   0  0  0  0  0  0  0  0  0  0  0  0
  189.0080  177.8620  145.7020 C   0  0  0  0  0  3  0  0  0  0  0  0
  185.3110  178.9870  140.2990 C   0  0  0  0  0  0  0  0  0  0  0  0
  184.3640  178.9840  141.3380 O   0  0  0  0  0  0  0  0  0  0  0  0
  188.2750  177.6800  141.6810 C   0  0  0  0  0  0  0  0  0  0  0  0
  188.8550  178.3490  140.7390 N   0  0  0  0  0  0  0  0  0  0  0  0
  185.3520  179.3220  143.5370 C   0  0  0  0  0  2  0  0  0  0  0  0
  188.9080  177.2700  142.9350 C   0  0  2  0  0  3  0  0  0  0  0  0
  187.7940  177.2860  145.0860 C   0  0  0  0  0  0  0  0  0  0  0  0
  186.9160  177.5720  141.5010 O   0  0  0  0  0  0  0  0  0  0  0  0
  186.6940  177.9920  145.0410 C   0  0  0  0  0  0  0  0  0  0  0  0
  188.0710  176.4530  143.8800 C   0  0  0  0  0  2  0  0  0  0  0  0
  184.5580  178.3930  142.6220 C   0  0  0  0  0  2  0  0  0  0  0  0
  189.9170  178.0050  143.4350 C   0  0  0  0  0  2  0  0  0  0  0  0
  190.0520  178.1600  144.9070 C   0  0  0  0  0  3  0  0  0  0  0  0
  185.0510  179.6330  139.2500 O   0  0  0  0  0  0  0  0  0  0  0  0
  187.8080  178.7720  139.7980 C   0  0  1  0  0  3  0  0  0  0  0  0
  189.2200  178.1060  136.3470 C   0  0  0  0  0  3  0  0  0  0  0  0
  187.2460  177.0590  138.0270 C   0  0  0  0  0  3  0  0  0  0  0  0
  188.4470  177.0210  135.9260 C   0  0  0  0  0  0  0  0  0  0  0  0
  187.4600  176.4970  136.7660 C   0  0  0  0  0  3  0  0  0  0  0  0
  188.0200  178.1480  138.4540 C   0  0  0  0  0  0  0  0  0  0  0  0
  188.6550  176.4760  134.7030 F   0  0  0  0  0  0  0  0  0  0  0  0
  189.0070  178.6690  137.6090 C   0  0  0  0  0  3  0  0  0  0  0  0
  184.5880  178.7580  145.9430 C   0  0  0  0  0  0  0  0  0  0  0  0
  183.4110  179.1210  145.6790 O   0  0  0  0  0  0  0  0  0  0  0  0
  184.9240  178.4380  147.2540 O   0  0  0  0  0  1  0  0  0  0  0  0
  1 12  2  0  0  0  0
  1 26  1  0  0  0  0
  2 11  1  0  0  0  0
  4  2  1  0  0  0  0
  4  5  1  0  0  0  0
  5 14  1  0  0  0  0
  6  9  1  0  0  0  0
  7  6  2  0  0  0  0
  8  1  1  0  0  0  0
  9 15  1  1  0  0  0
  9 13  1  0  0  0  0
 10  3  1  0  0  0  0
 11  6  1  0  0  0  0
 12 10  2  0  0  0  0
 13 10  1  0  0  0  0
 14  8  1  0  0  0  0
 15 16  1  0  0  0  0
 16  3  2  0  0  0  0
 17  4  2  0  0  0  0
 18 23  1  6  0  0  0
 18  2  1  0  0  0  0
 18  7  1  0  0  0  0
 19 25  1  0  0  0  0
 20 23  1  0  0  0  0
 21 19  2  0  0  0  0
 21 22  1  0  0  0  0
 22 20  2  0  0  0  0
 24 21  1  0  0  0  0
 25 23  2  0  0  0  0
 26 28  1  0  0  0  0
 27 26  2  0  0  0  0
M  END
>  <MODEL>
4

>  <REMARK>
 VINA RESULT:      -9.7      3.675      6.193
  Name = 
  2 active torsions:
  status: ('A' for Active; 'I' for Inactive)
    1  A    between atoms: C_1  and  C_20
    2  A    between atoms: C_24  and  C_26
                            x       y       z     vdW  Elec       q    Type
                         _______ _______ _______ _____ _____    ______ ____

>  <TORSDO>
F 2

$$$$
=
 OpenBabel10222416553D

 28 31  0  0  1  0  0  0  0  0999 V2000
  185.9910  178.7440  142.8130 C   0  0  0  0  0  0  0  0  0  0  0  0
  189.1570  177.4530  139.7460 N   0  0  0  0  0  0  0  0  0  0  0  0
  188.0600  177.5090  145.4960 C   0  0  0  0  0  3  0  0  0  0  0  0
  188.3770  178.3230  138.9110 C   0  0  0  0  0  0  0  0  0  0  0  0
  187.0440  178.6550  139.2090 O   0  0  0  0  0  0  0  0  0  0  0  0
  189.6650  176.7820  141.8040 C   0  0  0  0  0  0  0  0  0  0  0  0
  190.8090  177.1750  141.3450 N   0  0  0  0  0  0  0  0  0  0  0  0
  186.6900  179.1840  141.5580 C   0  0  0  0  0  2  0  0  0  0  0  0
  189.3780  176.4870  143.2070 C   0  0  2  0  0  3  0  0  0  0  0  0
  187.2980  177.0510  144.3140 C   0  0  0  0  0  0  0  0  0  0  0  0
  188.6560  176.8780  140.8750 O   0  0  0  0  0  0  0  0  0  0  0  0
  186.6120  177.9160  143.6130 C   0  0  0  0  0  0  0  0  0  0  0  0
  187.9930  175.9930  143.5250 C   0  0  0  0  0  2  0  0  0  0  0  0
  186.3460  178.2630  140.3900 C   0  0  0  0  0  2  0  0  0  0  0  0
  190.0780  177.1130  144.1700 C   0  0  0  0  0  2  0  0  0  0  0  0
  189.4040  177.4870  145.4410 C   0  0  0  0  0  3  0  0  0  0  0  0
  188.9040  178.8180  137.8810 O   0  0  0  0  0  0  0  0  0  0  0  0
  190.5960  177.6060  139.9570 C   0  0  1  0  0  3  0  0  0  0  0  0
  191.3940  174.9010  137.4270 C   0  0  0  0  0  3  0  0  0  0  0  0
  192.7410  176.9230  138.8110 C   0  0  0  0  0  3  0  0  0  0  0  0
  192.7650  175.0880  137.2320 C   0  0  0  0  0  0  0  0  0  0  0  0
  193.4390  176.0980  137.9240 C   0  0  0  0  0  3  0  0  0  0  0  0
  191.3650  176.7390  139.0090 C   0  0  0  0  0  0  0  0  0  0  0  0
  193.4410  174.2880  136.3720 F   0  0  0  0  0  0  0  0  0  0  0  0
  190.6950  175.7260  138.3140 C   0  0  0  0  0  3  0  0  0  0  0  0
  184.6120  179.1690  143.0980 C   0  0  0  0  0  0  0  0  0  0  0  0
  184.3850  180.0300  143.9900 O   0  0  0  0  0  1  0  0  0  0  0  0
  183.5450  178.6230  142.3930 O   0  0  0  0  0  0  0  0  0  0  0  0
  1 26  1  0  0  0  0
  1 12  2  0  0  0  0
  2 18  1  0  0  0  0
  2 11  1  0  0  0  0
  4  5  1  0  0  0  0
  4  2  1  0  0  0  0
  5 14  1  0  0  0  0
  6  9  1  0  0  0  0
  7  6  2  0  0  0  0
  8  1  1  0  0  0  0
  9 13  1  1  0  0  0
  9 15  1  0  0  0  0
 10  3  1  0  0  0  0
 11  6  1  0  0  0  0
 12 10  2  0  0  0  0
 13 10  1  0  0  0  0
 14  8  1  0  0  0  0
 15 16  1  0  0  0  0
 16  3  2  0  0  0  0
 17  4  2  0  0  0  0
 18 23  1  6  0  0  0
 18  7  1  0  0  0  0
 19 25  1  0  0  0  0
 20 23  1  0  0  0  0
 21 19  2  0  0  0  0
 21 22  1  0  0  0  0
 22 20  2  0  0  0  0
 24 21  1  0  0  0  0
 25 23  2  0  0  0  0
 26 27  1  0  0  0  0
 28 26  2  0  0  0  0
M  END
>  <MODEL>
5

>  <REMARK>
 VINA RESULT:      -9.3      4.316      7.825
  Name = 
  2 active torsions:
  status: ('A' for Active; 'I' for Inactive)
    1  A    between atoms: C_1  and  C_20
    2  A    between atoms: C_24  and  C_26
                            x       y       z     vdW  Elec       q    Type
                         _______ _______ _______ _____ _____    ______ ____

>  <TORSDO>
F 2

$$$$
=
 OpenBabel10222416553D

 28 31  0  0  1  0  0  0  0  0999 V2000
  187.6800  178.1840  146.7880 C   0  0  0  0  0  0  0  0  0  0  0  0
  184.5960  178.4600  143.3950 N   0  0  0  0  0  0  0  0  0  0  0  0
  190.2970  177.5720  144.3850 C   0  0  0  0  0  3  0  0  0  0  0  0
  183.8200  179.0480  144.4510 C   0  0  0  0  0  0  0  0  0  0  0  0
  184.1110  178.8270  145.8090 O   0  0  0  0  0  0  0  0  0  0  0  0
  186.5990  177.8420  142.6550 C   0  0  0  0  0  0  0  0  0  0  0  0
  186.2080  178.6750  141.7460 N   0  0  0  0  0  0  0  0  0  0  0  0
  186.4880  178.9670  146.3160 C   0  0  0  0  0  2  0  0  0  0  0  0
  187.9630  177.3330  142.7990 C   0  0  2  0  0  3  0  0  0  0  0  0
  189.0590  176.9730  144.9290 C   0  0  0  0  0  0  0  0  0  0  0  0
  185.6560  177.6380  143.6340 O   0  0  0  0  0  0  0  0  0  0  0  0
  188.4190  177.5790  145.8950 C   0  0  0  0  0  0  0  0  0  0  0  0
  188.1980  176.3300  143.8950 C   0  0  0  0  0  2  0  0  0  0  0  0
  185.2340  178.0960  146.2990 C   0  0  0  0  0  2  0  0  0  0  0  0
  188.9960  178.0840  142.3770 C   0  0  0  0  0  2  0  0  0  0  0  0
  190.2760  178.0600  143.1310 C   0  0  0  0  0  3  0  0  0  0  0  0
  182.8530  179.7970  144.1570 O   0  0  0  0  0  0  0  0  0  0  0  0
  184.8580  179.1200  142.1170 C   0  0  1  0  0  3  0  0  0  0  0  0
  183.3480  178.1790  138.7730 C   0  0  0  0  0  3  0  0  0  0  0  0
  182.5260  178.4290  141.4330 C   0  0  0  0  0  3  0  0  0  0  0  0
  182.0210  177.9130  139.1230 C   0  0  0  0  0  0  0  0  0  0  0  0
  181.6100  178.0390  140.4530 C   0  0  0  0  0  3  0  0  0  0  0  0
  183.8580  178.6960  141.0870 C   0  0  0  0  0  0  0  0  0  0  0  0
  181.1330  177.5350  138.1720 F   0  0  0  0  0  0  0  0  0  0  0  0
  184.2650  178.5690  139.7530 C   0  0  0  0  0  3  0  0  0  0  0  0
  187.9640  178.0340  148.2240 C   0  0  0  0  0  0  0  0  0  0  0  0
  189.1480  178.1100  148.6470 O   0  0  0  0  0  0  0  0  0  0  0  0
  186.9330  177.8000  149.1270 O   0  0  0  0  0  1  0  0  0  0  0  0
  1 26  1  0  0  0  0
  2 11  1  0  0  0  0
  2  4  1  0  0  0  0
  3 10  1  0  0  0  0
  4  5  1  0  0  0  0
  5 14  1  0  0  0  0
  6  9  1  0  0  0  0
  6 11  1  0  0  0  0
  7 18  1  0  0  0  0
  7  6  2  0  0  0  0
  8  1  1  0  0  0  0
  9 15  1  1  0  0  0
  9 13  1  0  0  0  0
 10 12  2  0  0  0  0
 12  1  2  0  0  0  0
 13 10  1  0  0  0  0
 14  8  1  0  0  0  0
 15 16  1  0  0  0  0
 16  3  2  0  0  0  0
 17  4  2  0  0  0  0
 18 23  1  6  0  0  0
 18  2  1  0  0  0  0
 19 21  2  0  0  0  0
 19 25  1  0  0  0  0
 21 22  1  0  0  0  0
 22 20  2  0  0  0  0
 23 20  1  0  0  0  0
 24 21  1  0  0  0  0
 25 23  2  0  0  0  0
 26 27  2  0  0  0  0
 26 28  1  0  0  0  0
M  END
>  <MODEL>
6

>  <REMARK>
 VINA RESULT:      -9.0      1.918      2.941
  Name = 
  2 active torsions:
  status: ('A' for Active; 'I' for Inactive)
    1  A    between atoms: C_1  and  C_20
    2  A    between atoms: C_24  and  C_26
                            x       y       z     vdW  Elec       q    Type
                         _______ _______ _______ _____ _____    ______ ____

>  <TORSDO>
F 2

$$$$
=
 OpenBabel10222416553D

 28 31  0  0  1  0  0  0  0  0999 V2000
  181.7800  179.3940  138.5940 C   0  0  0  0  0  0  0  0  0  0  0  0
  184.7270  178.7310  142.0550 N   0  0  0  0  0  0  0  0  0  0  0  0
  179.0800  179.8080  140.9480 C   0  0  0  0  0  3  0  0  0  0  0  0
  185.6700  178.9750  141.0000 C   0  0  0  0  0  0  0  0  0  0  0  0
  185.3400  178.8150  139.6430 O   0  0  0  0  0  0  0  0  0  0  0  0
  182.6230  178.8640  142.7630 C   0  0  0  0  0  0  0  0  0  0  0  0
  183.2650  179.5490  143.6530 N   0  0  0  0  0  0  0  0  0  0  0  0
  183.1620  179.7390  139.0710 C   0  0  0  0  0  2  0  0  0  0  0  0
  181.1700  178.8480  142.6000 C   0  0  2  0  0  3  0  0  0  0  0  0
  180.0440  178.8020  140.4550 C   0  0  0  0  0  0  0  0  0  0  0  0
  183.4520  178.3120  141.8150 O   0  0  0  0  0  0  0  0  0  0  0  0
  180.8660  179.1140  139.4870 C   0  0  0  0  0  0  0  0  0  0  0  0
  180.6190  177.9440  141.5310 C   0  0  0  0  0  2  0  0  0  0  0  0
  184.0400  178.4930  139.1480 C   0  0  0  0  0  2  0  0  0  0  0  0
  180.4520  179.9230  142.9710 C   0  0  0  0  0  2  0  0  0  0  0  0
  179.2510  180.3090  142.1850 C   0  0  0  0  0  3  0  0  0  0  0  0
  186.8320  179.3590  141.2940 O   0  0  0  0  0  0  0  0  0  0  0  0
  184.6900  179.4900  143.3030 C   0  0  1  0  0  3  0  0  0  0  0  0
  185.9150  178.4370  146.7300 C   0  0  0  0  0  3  0  0  0  0  0  0
  186.4710  177.8610  144.0510 C   0  0  0  0  0  3  0  0  0  0  0  0
  186.9100  177.5110  146.4060 C   0  0  0  0  0  0  0  0  0  0  0  0
  187.1880  177.2230  145.0670 C   0  0  0  0  0  3  0  0  0  0  0  0
  185.4700  178.7900  144.3720 C   0  0  0  0  0  0  0  0  0  0  0  0
  187.6050  176.8930  147.3910 F   0  0  0  0  0  0  0  0  0  0  0  0
  185.1960  179.0750  145.7150 C   0  0  0  0  0  3  0  0  0  0  0  0
  181.4800  179.2930  137.1570 C   0  0  0  0  0  0  0  0  0  0  0  0
  180.9060  180.2440  136.5610 O   0  0  0  0  0  1  0  0  0  0  0  0
  181.8200  178.1500  136.4430 O   0  0  0  0  0  0  0  0  0  0  0  0
  1  8  1  0  0  0  0
  1 12  2  0  0  0  0
  2 18  1  0  0  0  0
  3 16  2  0  0  0  0
  4 17  2  0  0  0  0
  4  2  1  0  0  0  0
  5  4  1  0  0  0  0
  6  7  2  0  0  0  0
  8 14  1  0  0  0  0
  9 13  1  6  0  0  0
  9  6  1  0  0  0  0
  9 15  1  0  0  0  0
 10  3  1  0  0  0  0
 10 13  1  0  0  0  0
 11  2  1  0  0  0  0
 11  6  1  0  0  0  0
 12 10  2  0  0  0  0
 14  5  1  0  0  0  0
 16 15  1  0  0  0  0
 18  7  1  0  0  0  0
 18 23  1  1  0  0  0
 20 23  2  0  0  0  0
 20 22  1  0  0  0  0
 21 19  1  0  0  0  0
 21 24  1  0  0  0  0
 22 21  2  0  0  0  0
 23 25  1  0  0  0  0
 25 19  2  0  0  0  0
 26  1  1  0  0  0  0
 27 26  1  0  0  0  0
 28 26  2  0  0  0  0
M  END
>  <MODEL>
7

>  <REMARK>
 VINA RESULT:      -8.7      4.137      8.771
  Name = 
  2 active torsions:
  status: ('A' for Active; 'I' for Inactive)
    1  A    between atoms: C_1  and  C_20
    2  A    between atoms: C_24  and  C_26
                            x       y       z     vdW  Elec       q    Type
                         _______ _______ _______ _____ _____    ______ ____

>  <TORSDO>
F 2

$$$$
=
 OpenBabel10222416553D

 28 31  0  0  1  0  0  0  0  0999 V2000
  185.3500  178.6280  139.6530 C   0  0  0  0  0  0  0  0  0  0  0  0
  187.6380  177.7680  143.5420 N   0  0  0  0  0  0  0  0  0  0  0  0
  188.1060  177.3330  137.7230 C   0  0  0  0  0  3  0  0  0  0  0  0
  186.3250  177.9600  144.0920 C   0  0  0  0  0  0  0  0  0  0  0  0
  185.3200  178.6670  143.4090 O   0  0  0  0  0  0  0  0  0  0  0  0
  188.8840  177.3920  141.7390 C   0  0  0  0  0  0  0  0  0  0  0  0
  189.1840  176.3920  142.5030 N   0  0  0  0  0  0  0  0  0  0  0  0
  185.1800  178.0950  141.0470 C   0  0  0  0  0  2  0  0  0  0  0  0
  189.2220  177.4980  140.3200 C   0  0  2  0  0  3  0  0  0  0  0  0
  187.7500  178.4360  138.6400 C   0  0  0  0  0  0  0  0  0  0  0  0
  188.0060  178.2690  142.3290 O   0  0  0  0  0  0  0  0  0  0  0  0
  186.5260  178.5340  139.0890 C   0  0  0  0  0  0  0  0  0  0  0  0
  188.8220  178.7690  139.6220 C   0  0  0  0  0  2  0  0  0  0  0  0
  185.4380  179.1850  142.0840 C   0  0  0  0  0  2  0  0  0  0  0  0
  189.3660  176.3770  139.5900 C   0  0  0  0  0  2  0  0  0  0  0  0
  188.9290  176.3660  138.1690 C   0  0  0  0  0  3  0  0  0  0  0  0
  186.0550  177.4700  145.2190 O   0  0  0  0  0  0  0  0  0  0  0  0
  188.4400  176.5650  143.7580 C   0  0  1  0  0  3  0  0  0  0  0  0
  191.6430  176.7120  145.7740 C   0  0  0  0  0  3  0  0  0  0  0  0
  188.9080  177.1270  146.1760 C   0  0  0  0  0  3  0  0  0  0  0  0
  191.1710  177.0850  147.0360 C   0  0  0  0  0  0  0  0  0  0  0  0
  189.8030  177.2920  147.2370 C   0  0  0  0  0  3  0  0  0  0  0  0
  189.3780  176.7530  144.9090 C   0  0  0  0  0  0  0  0  0  0  0  0
  192.0390  177.2450  148.0630 F   0  0  0  0  0  0  0  0  0  0  0  0
  190.7490  176.5470  144.7130 C   0  0  0  0  0  3  0  0  0  0  0  0
  184.2420  179.3130  138.9670 C   0  0  0  0  0  0  0  0  0  0  0  0
  184.1680  180.5700  138.9840 O   0  0  0  0  0  1  0  0  0  0  0  0
  183.2660  178.5820  138.3000 O   0  0  0  0  0  0  0  0  0  0  0  0
  1  8  1  0  0  0  0
  2 18  1  0  0  0  0
  2  4  1  0  0  0  0
  3 16  2  0  0  0  0
  3 10  1  0  0  0  0
  4 17  2  0  0  0  0
  5  4  1  0  0  0  0
  6 11  1  0  0  0  0
  6  7  2  0  0  0  0
  7 18  1  0  0  0  0
  8 14  1  0  0  0  0
  9 15  1  6  0  0  0
  9  6  1  0  0  0  0
 10 12  2  0  0  0  0
 10 13  1  0  0  0  0
 11  2  1  0  0  0  0
 12  1  2  0  0  0  0
 13  9  1  0  0  0  0
 14  5  1  0  0  0  0
 16 15  1  0  0  0  0
 18 23  1  1  0  0  0
 19 21  1  0  0  0  0
 20 22  1  0  0  0  0
 21 22  2  0  0  0  0
 21 24  1  0  0  0  0
 23 20  2  0  0  0  0
 25 23  1  0  0  0  0
 25 19  2  0  0  0  0
 26 27  1  0  0  0  0
 26  1  1  0  0  0  0
 28 26  2  0  0  0  0
M  END
>  <MODEL>
8

>  <REMARK>
 VINA RESULT:      -8.3      3.769      7.048
  Name = 
  2 active torsions:
  status: ('A' for Active; 'I' for Inactive)
    1  A    between atoms: C_1  and  C_20
    2  A    between atoms: C_24  and  C_26
                            x       y       z     vdW  Elec       q    Type
                         _______ _______ _______ _____ _____    ______ ____

>  <TORSDO>
F 2

$$$$
=
 OpenBabel10222416553D

 28 31  0  0  1  0  0  0  0  0999 V2000
  186.6460  178.6290  141.0080 C   0  0  0  0  0  0  0  0  0  0  0  0
  189.8990  177.3940  144.0070 N   0  0  0  0  0  0  0  0  0  0  0  0
  184.3340  179.1890  143.7170 C   0  0  0  0  0  3  0  0  0  0  0  0
  190.7250  177.6000  142.8510 C   0  0  0  0  0  0  0  0  0  0  0  0
  190.2100  177.5720  141.5430 O   0  0  0  0  0  0  0  0  0  0  0  0
  187.9330  177.7200  144.9930 C   0  0  0  0  0  0  0  0  0  0  0  0
  188.7600  178.2630  145.8260 N   0  0  0  0  0  0  0  0  0  0  0  0
  188.1080  178.7790  141.3140 C   0  0  0  0  0  2  0  0  0  0  0  0
  186.4790  177.8830  145.0240 C   0  0  2  0  0  3  0  0  0  0  0  0
  185.0970  178.1140  143.0480 C   0  0  0  0  0  0  0  0  0  0  0  0
  188.5620  177.1420  143.9170 O   0  0  0  0  0  0  0  0  0  0  0  0
  185.8230  178.3950  141.9970 C   0  0  0  0  0  0  0  0  0  0  0  0
  185.6920  177.1240  143.9910 C   0  0  0  0  0  2  0  0  0  0  0  0
  188.8290  177.4370  141.2090 C   0  0  0  0  0  2  0  0  0  0  0  0
  185.9520  179.0050  145.5440 C   0  0  0  0  0  2  0  0  0  0  0  0
  184.7190  179.5810  144.9460 C   0  0  0  0  0  3  0  0  0  0  0  0
  191.9530  177.8250  143.0080 O   0  0  0  0  0  0  0  0  0  0  0  0
  190.1120  178.0650  145.2870 C   0  0  1  0  0  3  0  0  0  0  0  0
  191.7090  176.7190  148.4480 C   0  0  0  0  0  3  0  0  0  0  0  0
  191.6690  176.1220  145.7170 C   0  0  0  0  0  3  0  0  0  0  0  0
  192.4460  175.6370  147.9580 C   0  0  0  0  0  0  0  0  0  0  0  0
  192.4270  175.3380  146.5930 C   0  0  0  0  0  3  0  0  0  0  0  0
  190.9280  177.2070  146.2050 C   0  0  0  0  0  0  0  0  0  0  0  0
  193.1800  174.8780  148.8070 F   0  0  0  0  0  0  0  0  0  0  0  0
  190.9510  177.5020  147.5730 C   0  0  0  0  0  3  0  0  0  0  0  0
  186.1580  178.6620  139.6200 C   0  0  0  0  0  0  0  0  0  0  0  0
  186.8700  178.2050  138.6860 O   0  0  0  0  0  0  0  0  0  0  0  0
  184.9120  179.2020  139.3220 O   0  0  0  0  0  1  0  0  0  0  0  0
  1  8  1  0  0  0  0
  1 12  2  0  0  0  0
  2 18  1  0  0  0  0
  3 16  2  0  0  0  0
  4 17  2  0  0  0  0
  4  2  1  0  0  0  0
  5  4  1  0  0  0  0
  6  9  1  0  0  0  0
  6  7  2  0  0  0  0
  9 13  1  6  0  0  0
  9 15  1  0  0  0  0
 10  3  1  0  0  0  0
 10 13  1  0  0  0  0
 11  2  1  0  0  0  0
 11  6  1  0  0  0  0
 12 10  2  0  0  0  0
 14  8  1  0  0  0  0
 14  5  1  0  0  0  0
 16 15  1  0  0  0  0
 18  7  1  0  0  0  0
 18 23  1  1  0  0  0
 20 23  2  0  0  0  0
 20 22  1  0  0  0  0
 21 19  1  0  0  0  0
 21 24  1  0  0  0  0
 22 21  2  0  0  0  0
 23 25  1  0  0  0  0
 25 19  2  0  0  0  0
 26  1  1  0  0  0  0
 27 26  2  0  0  0  0
 28 26  1  0  0  0  0
M  END
>  <MODEL>
9

>  <REMARK>
 VINA RESULT:      -8.3      3.770      7.740
  Name = 
  2 active torsions:
  status: ('A' for Active; 'I' for Inactive)
    1  A    between atoms: C_1  and  C_20
    2  A    between atoms: C_24  and  C_26
                            x       y       z     vdW  Elec       q    Type
                         _______ _______ _______ _____ _____    ______ ____

>  <TORSDO>
F 2

$$$$
