=
 OpenBabel10222416463D

 45 48  0  0  1  0  0  0  0  0999 V2000
  188.0540  177.2650  146.0650 F   0  0  0  0  0  0  0  0  0  0  0  0
  189.5790  177.4210  139.6060 C   0  0  2  0  0  3  0  0  0  0  0  0
  184.4440  177.5440  137.6070 C   0  0  0  0  0  2  0  0  0  0  0  0
  181.5660  179.1220  143.2850 C   0  0  0  0  0  3  0  0  0  0  0  0
  187.9190  177.4110  143.6910 C   0  0  0  0  0  3  0  0  0  0  0  0
  185.2350  178.1910  143.9190 C   0  0  0  0  0  0  0  0  0  0  0  0
  187.7610  177.5860  141.2340 N   0  0  0  0  0  2  0  0  0  0  0  0
  189.9210  177.2970  136.7590 O   0  0  0  0  0  0  0  0  0  0  0  0
  183.7420  176.8040  138.7390 C   0  0  0  0  0  2  0  0  0  0  0  0
  186.3940  175.1290  137.2530 C   0  0  1  0  0  3  0  0  0  0  0  0
  188.8130  175.2280  136.5090 C   0  0  0  0  0  0  0  0  0  0  0  0
  183.2030  178.9570  141.3910 S   0  0  0  0  0  0  0  0  0  0  0  0
  182.9120  178.8760  143.0470 C   0  0  0  0  0  0  0  0  0  0  0  0
  189.1400  177.1680  141.0380 C   0  0  0  0  0  2  0  0  0  0  0  0
  185.2890  173.3020  136.3960 C   0  0  0  0  0  2  0  0  0  0  0  0
  185.9570  176.1300  136.1690 C   0  0  0  0  0  2  0  0  0  0  0  0
  183.8620  178.5740  144.0780 N   0  0  0  0  0  2  0  0  0  0  0  0
  189.4770  174.8890  135.4940 O   0  0  0  0  0  0  0  0  0  0  0  0
  186.5880  172.5260  136.1300 C   0  0  0  0  0  2  0  0  0  0  0  0
  185.3980  174.1560  137.5160 O   0  0  0  0  0  0  0  0  0  0  0  0
  182.2900  176.5680  138.4310 C   0  0  0  0  0  0  0  0  0  0  0  0
  181.8670  178.9140  138.6880 O   0  0  0  0  0  0  0  0  0  0  0  0
  180.8380  179.3500  142.1580 N   0  0  0  0  0  0  0  0  0  0  0  0
  181.2840  177.6820  138.3730 C   0  0  0  0  0  2  0  0  0  0  0  0
  184.5440  176.6640  136.3700 C   0  0  0  0  0  2  0  0  0  0  0  0
  181.8810  175.3270  138.1850 C   0  0  0  0  0  2  0  0  0  0  0  0
  185.8360  178.0690  142.6560 C   0  0  0  0  0  3  0  0  0  0  0  0
  181.0330  179.4800  139.6590 C   0  0  1  0  0  3  0  0  0  0  0  0
  181.5910  179.2840  141.0370 C   0  0  0  0  0  0  0  0  0  0  0  0
  189.2550  176.3780  137.3080 C   0  0  0  0  0  0  0  0  0  0  0  0
  185.9920  177.9170  145.0630 C   0  0  0  0  0  3  0  0  0  0  0  0
  187.3300  177.5280  144.9520 C   0  0  0  0  0  0  0  0  0  0  0  0
  188.9990  176.4140  138.7180 N   0  0  0  0  0  2  0  0  0  0  0  0
  187.7200  173.0680  136.8840 N   0  0  0  0  0  2  0  0  0  0  0  0
  187.1730  177.6810  142.5340 C   0  0  0  0  0  0  0  0  0  0  0  0
  187.6510  174.4730  136.8740 N   0  0  0  0  0  0  0  0  0  0  0  0
  191.8120  177.8380  140.6350 O   0  0  0  0  0  1  0  0  0  0  0  0
  191.6680  176.9100  138.5440 O   0  0  0  0  0  0  0  0  0  0  0  0
  191.0740  177.3790  139.5520 C   0  0  0  0  0  0  0  0  0  0  0  0
  180.7690  180.9540  139.3520 C   0  0  0  0  0  2  0  0  0  0  0  0
  181.5710  181.4610  138.1580 C   0  0  2  0  0  3  0  0  0  0  0  0
  182.7420  182.0610  138.5850 F   0  0  0  0  0  0  0  0  0  0  0  0
  181.2290  183.8480  137.2440 C   0  0  0  0  0  1  0  0  0  0  0  0
  180.7630  182.4390  137.3690 C   0  0  0  0  0  0  0  0  0  0  0  0
  179.7180  182.0970  136.8360 O   0  0  0  0  0  0  0  0  0  0  0  0
  2 39  1  1  0  0  0
  2 14  1  0  0  0  0
  3  9  1  0  0  0  0
  5 32  1  0  0  0  0
  6 17  1  0  0  0  0
  6 31  1  0  0  0  0
  7 35  1  0  0  0  0
  8 30  2  0  0  0  0
 10 16  1  6  0  0  0
 10 20  1  0  0  0  0
 11 36  1  0  0  0  0
 11 30  1  0  0  0  0
 12 13  1  0  0  0  0
 13  4  2  0  0  0  0
 13 17  1  0  0  0  0
 14  7  1  0  0  0  0
 15 20  1  0  0  0  0
 16 25  1  0  0  0  0
 18 11  2  0  0  0  0
 19 15  1  0  0  0  0
 19 34  1  0  0  0  0
 21  9  1  0  0  0  0
 22 28  1  0  0  0  0
 23  4  1  0  0  0  0
 24 21  1  0  0  0  0
 24 22  1  0  0  0  0
 25  3  1  0  0  0  0
 26 21  2  0  0  0  0
 27  6  2  0  0  0  0
 28 40  1  6  0  0  0
 28 29  1  0  0  0  0
 29 12  1  0  0  0  0
 29 23  2  0  0  0  0
 30 33  1  0  0  0  0
 32 31  2  0  0  0  0
 32  1  1  0  0  0  0
 33  2  1  0  0  0  0
 35 27  1  0  0  0  0
 35  5  2  0  0  0  0
 36 34  1  0  0  0  0
 36 10  1  0  0  0  0
 38 39  2  0  0  0  0
 39 37  1  0  0  0  0
 41 42  1  1  0  0  0
 41 40  1  0  0  0  0
 43 44  1  0  0  0  0
 44 41  1  0  0  0  0
 45 44  2  0  0  0  0
M  END
>  <MODEL>
1

>  <REMARK>
 VINA RESULT:      -9.3      0.000      0.000
  Name = 
  4 active torsions:
  status: ('A' for Active; 'I' for Inactive)
    1  A    between atoms: C_2  and  C_26
    2  A    between atoms: C_2  and  C_35
    3  A    between atoms: CA_3  and  C_22
    4  A    between atoms: C_25  and  C_26
                            x       y       z     vdW  Elec       q    Type
                         _______ _______ _______ _____ _____    ______ ____

>  <TORSDO>
F 4

$$$$
=
 OpenBabel10222416463D

 45 48  0  0  1  0  0  0  0  0999 V2000
  188.1580  177.1100  146.0240 F   0  0  0  0  0  0  0  0  0  0  0  0
  190.2290  177.2550  139.7180 C   0  0  2  0  0  3  0  0  0  0  0  0
  185.2840  177.4270  137.2890 C   0  0  0  0  0  2  0  0  0  0  0  0
  181.9480  179.0280  142.7030 C   0  0  0  0  0  3  0  0  0  0  0  0
  188.2280  177.2580  143.6470 C   0  0  0  0  0  3  0  0  0  0  0  0
  185.5410  178.0630  143.6460 C   0  0  0  0  0  0  0  0  0  0  0  0
  188.2810  177.4360  141.1850 N   0  0  0  0  0  2  0  0  0  0  0  0
  190.8110  177.1300  136.9100 O   0  0  0  0  0  0  0  0  0  0  0  0
  184.4820  176.6930  138.3560 C   0  0  0  0  0  2  0  0  0  0  0  0
  187.2350  174.9940  137.0980 C   0  0  1  0  0  3  0  0  0  0  0  0
  189.7090  175.0720  136.5640 C   0  0  0  0  0  0  0  0  0  0  0  0
  183.7390  178.8500  140.9560 S   0  0  0  0  0  0  0  0  0  0  0  0
  183.3070  178.7700  142.5810 C   0  0  0  0  0  0  0  0  0  0  0  0
  189.6670  177.0050  141.1070 C   0  0  0  0  0  2  0  0  0  0  0  0
  186.1910  173.1780  136.1490 C   0  0  0  0  0  2  0  0  0  0  0  0
  186.9020  176.0000  135.9830 C   0  0  0  0  0  2  0  0  0  0  0  0
  184.1620  178.4580  143.6880 N   0  0  0  0  0  2  0  0  0  0  0  0
  190.4540  174.7280  135.6080 O   0  0  0  0  0  0  0  0  0  0  0  0
  187.5000  172.3910  135.9930 C   0  0  0  0  0  2  0  0  0  0  0  0
  186.2120  174.0310  137.2740 O   0  0  0  0  0  0  0  0  0  0  0  0
  183.0590  176.4710  137.9250 C   0  0  0  0  0  0  0  0  0  0  0  0
  182.6380  178.8210  138.1490 O   0  0  0  0  0  0  0  0  0  0  0  0
  181.3210  179.2630  141.5190 N   0  0  0  0  0  0  0  0  0  0  0  0
  182.0720  177.5950  137.7830 C   0  0  0  0  0  2  0  0  0  0  0  0
  185.4820  176.5470  136.0640 C   0  0  0  0  0  2  0  0  0  0  0  0
  182.6620  175.2340  137.6430 C   0  0  0  0  0  2  0  0  0  0  0  0
  186.2460  177.9360  142.4390 C   0  0  0  0  0  3  0  0  0  0  0  0
  181.7290  179.3940  139.0460 C   0  0  1  0  0  3  0  0  0  0  0  0
  182.1660  179.1920  140.4660 C   0  0  0  0  0  0  0  0  0  0  0  0
  190.0920  176.2170  137.3990 C   0  0  0  0  0  0  0  0  0  0  0  0
  186.1950  177.7820  144.8510 C   0  0  0  0  0  3  0  0  0  0  0  0
  187.5340  177.3800  144.8530 C   0  0  0  0  0  0  0  0  0  0  0  0
  189.7170  176.2540  138.7820 N   0  0  0  0  0  2  0  0  0  0  0  0
  188.5690  172.9220  136.8410 N   0  0  0  0  0  2  0  0  0  0  0  0
  187.5850  177.5360  142.4310 C   0  0  0  0  0  0  0  0  0  0  0  0
  188.5140  174.3270  136.8270 N   0  0  0  0  0  0  0  0  0  0  0  0
  192.4260  176.4230  138.8790 O   0  0  0  0  0  0  0  0  0  0  0  0
  192.3490  177.8700  140.6560 O   0  0  0  0  0  1  0  0  0  0  0  0
  191.7230  177.2000  139.7910 C   0  0  0  0  0  0  0  0  0  0  0  0
  181.5060  180.8700  138.7200 C   0  0  0  0  0  2  0  0  0  0  0  0
  180.5440  181.0780  137.5550 C   0  0  2  0  0  3  0  0  0  0  0  0
  181.1580  180.7480  136.3590 F   0  0  0  0  0  0  0  0  0  0  0  0
  180.5100  183.3740  136.3800 C   0  0  0  0  0  1  0  0  0  0  0  0
  180.0860  182.5000  137.5080 C   0  0  0  0  0  0  0  0  0  0  0  0
  179.3770  182.9540  138.3940 O   0  0  0  0  0  0  0  0  0  0  0  0
  2 39  1  1  0  0  0
  2 14  1  0  0  0  0
  3  9  1  0  0  0  0
  5 32  1  0  0  0  0
  6 17  1  0  0  0  0
  6 31  1  0  0  0  0
  7 35  1  0  0  0  0
  8 30  2  0  0  0  0
 10 16  1  6  0  0  0
 10 20  1  0  0  0  0
 11 36  1  0  0  0  0
 11 30  1  0  0  0  0
 12 13  1  0  0  0  0
 13  4  2  0  0  0  0
 13 17  1  0  0  0  0
 14  7  1  0  0  0  0
 15 20  1  0  0  0  0
 16 25  1  0  0  0  0
 18 11  2  0  0  0  0
 19 15  1  0  0  0  0
 19 34  1  0  0  0  0
 21  9  1  0  0  0  0
 22 28  1  0  0  0  0
 23  4  1  0  0  0  0
 24 21  1  0  0  0  0
 24 22  1  0  0  0  0
 25  3  1  0  0  0  0
 26 21  2  0  0  0  0
 27  6  2  0  0  0  0
 28 40  1  6  0  0  0
 28 29  1  0  0  0  0
 29 12  1  0  0  0  0
 29 23  2  0  0  0  0
 30 33  1  0  0  0  0
 31 32  2  0  0  0  0
 32  1  1  0  0  0  0
 33  2  1  0  0  0  0
 35 27  1  0  0  0  0
 35  5  2  0  0  0  0
 36 34  1  0  0  0  0
 36 10  1  0  0  0  0
 37 39  2  0  0  0  0
 39 38  1  0  0  0  0
 41 42  1  6  0  0  0
 41 40  1  0  0  0  0
 43 44  1  0  0  0  0
 44 41  1  0  0  0  0
 44 45  2  0  0  0  0
M  END
>  <MODEL>
2

>  <REMARK>
 VINA RESULT:      -9.1      0.933      1.058
  Name = 
  4 active torsions:
  status: ('A' for Active; 'I' for Inactive)
    1  A    between atoms: C_2  and  C_26
    2  A    between atoms: C_2  and  C_35
    3  A    between atoms: CA_3  and  C_22
    4  A    between atoms: C_25  and  C_26
                            x       y       z     vdW  Elec       q    Type
                         _______ _______ _______ _____ _____    ______ ____

>  <TORSDO>
F 4

$$$$
=
 OpenBabel10222416463D

 45 48  0  0  1  0  0  0  0  0999 V2000
  184.2570  178.2490  146.0410 F   0  0  0  0  0  0  0  0  0  0  0  0
  188.0200  178.2070  140.5720 C   0  0  2  0  0  3  0  0  0  0  0  0
  183.9590  178.1600  136.8450 C   0  0  0  0  0  2  0  0  0  0  0  0
  179.2100  179.8810  141.0280 C   0  0  0  0  0  3  0  0  0  0  0  0
  184.9920  178.3080  143.7760 C   0  0  0  0  0  3  0  0  0  0  0  0
  182.4040  179.0440  142.9850 C   0  0  0  0  0  0  0  0  0  0  0  0
  185.7340  178.3940  141.4220 N   0  0  0  0  0  2  0  0  0  0  0  0
  189.3710  177.9900  138.0490 O   0  0  0  0  0  0  0  0  0  0  0  0
  182.8980  177.4470  137.6750 C   0  0  0  0  0  2  0  0  0  0  0  0
  185.9170  175.7720  137.3180 C   0  0  1  0  0  3  0  0  0  0  0  0
  188.4400  175.8930  137.4980 C   0  0  0  0  0  0  0  0  0  0  0  0
  181.4230  179.6820  139.8640 S   0  0  0  0  0  0  0  0  0  0  0  0
  180.5510  179.6530  141.3040 C   0  0  0  0  0  0  0  0  0  0  0  0
  187.0930  177.9960  141.7560 C   0  0  0  0  0  2  0  0  0  0  0  0
  185.2080  173.8950  136.1930 C   0  0  0  0  0  2  0  0  0  0  0  0
  185.8980  176.7260  136.1100 C   0  0  0  0  0  2  0  0  0  0  0  0
  181.0640  179.4050  142.6200 N   0  0  0  0  0  2  0  0  0  0  0  0
  189.4290  175.5310  136.8060 O   0  0  0  0  0  0  0  0  0  0  0  0
  186.5190  173.1360  136.4460 C   0  0  0  0  0  2  0  0  0  0  0  0
  184.8990  174.7910  137.2410 O   0  0  0  0  0  0  0  0  0  0  0  0
  181.6580  177.1730  136.8710 C   0  0  0  0  0  0  0  0  0  0  0  0
  181.1580  179.5180  136.8650 O   0  0  0  0  0  0  0  0  0  0  0  0
  178.9380  180.0550  139.7060 N   0  0  0  0  0  0  0  0  0  0  0  0
  180.7350  178.2640  136.4080 C   0  0  0  0  0  2  0  0  0  0  0  0
  184.5060  177.2390  135.7650 C   0  0  0  0  0  2  0  0  0  0  0  0
  181.3730  175.9160  136.5440 C   0  0  0  0  0  2  0  0  0  0  0  0
  183.4220  178.8890  142.0310 C   0  0  0  0  0  3  0  0  0  0  0  0
  180.0250  180.1010  137.4440 C   0  0  1  0  0  3  0  0  0  0  0  0
  180.0470  179.9640  138.9370 C   0  0  0  0  0  0  0  0  0  0  0  0
  188.5560  177.0780  138.3560 C   0  0  0  0  0  0  0  0  0  0  0  0
  182.6950  178.8260  144.3350 C   0  0  0  0  0  3  0  0  0  0  0  0
  183.9840  178.4590  144.7310 C   0  0  0  0  0  0  0  0  0  0  0  0
  187.8060  177.1590  139.5750 N   0  0  0  0  0  2  0  0  0  0  0  0
  187.2980  173.7260  137.5370 N   0  0  0  0  0  2  0  0  0  0  0  0
  184.7150  178.5240  142.4170 C   0  0  0  0  0  0  0  0  0  0  0  0
  187.2290  175.1280  137.4460 N   0  0  0  0  0  0  0  0  0  0  0  0
  189.7690  178.9130  142.2040 O   0  0  0  0  0  1  0  0  0  0  0  0
  190.3140  177.5150  140.4700 O   0  0  0  0  0  0  0  0  0  0  0  0
  189.4330  178.1930  141.0640 C   0  0  0  0  0  0  0  0  0  0  0  0
  179.8830  181.5580  137.0040 C   0  0  0  0  0  2  0  0  0  0  0  0
  180.6550  182.5220  137.8990 C   0  0  2  0  0  3  0  0  0  0  0  0
  179.8120  183.0760  138.8470 F   0  0  0  0  0  0  0  0  0  0  0  0
  180.7850  183.8530  135.6940 C   0  0  0  0  0  1  0  0  0  0  0  0
  181.2720  183.6090  137.0790 C   0  0  0  0  0  0  0  0  0  0  0  0
  182.1800  184.2890  137.5320 O   0  0  0  0  0  0  0  0  0  0  0  0
  2 39  1  1  0  0  0
  2 14  1  0  0  0  0
  3  9  1  0  0  0  0
  4 13  2  0  0  0  0
  5 32  1  0  0  0  0
  6 31  1  0  0  0  0
  7 14  1  0  0  0  0
  7 35  1  0  0  0  0
  8 30  2  0  0  0  0
 10 16  1  6  0  0  0
 10 36  1  0  0  0  0
 11 30  1  0  0  0  0
 12 13  1  0  0  0  0
 13 17  1  0  0  0  0
 15 19  1  0  0  0  0
 15 20  1  0  0  0  0
 17  6  1  0  0  0  0
 18 11  2  0  0  0  0
 19 34  1  0  0  0  0
 20 10  1  0  0  0  0
 21  9  1  0  0  0  0
 22 28  1  0  0  0  0
 23  4  1  0  0  0  0
 24 22  1  0  0  0  0
 24 21  1  0  0  0  0
 25 16  1  0  0  0  0
 25  3  1  0  0  0  0
 26 21  2  0  0  0  0
 27 35  1  0  0  0  0
 27  6  2  0  0  0  0
 28 40  1  1  0  0  0
 28 29  1  0  0  0  0
 29 23  2  0  0  0  0
 29 12  1  0  0  0  0
 30 33  1  0  0  0  0
 31 32  2  0  0  0  0
 32  1  1  0  0  0  0
 33  2  1  0  0  0  0
 35  5  2  0  0  0  0
 36 11  1  0  0  0  0
 36 34  1  0  0  0  0
 38 39  2  0  0  0  0
 39 37  1  0  0  0  0
 40 41  1  0  0  0  0
 41 42  1  1  0  0  0
 43 44  1  0  0  0  0
 44 45  2  0  0  0  0
 44 41  1  0  0  0  0
M  END
>  <MODEL>
3

>  <REMARK>
 VINA RESULT:      -7.3      1.701      2.288
  Name = 
  4 active torsions:
  status: ('A' for Active; 'I' for Inactive)
    1  A    between atoms: C_2  and  C_26
    2  A    between atoms: C_2  and  C_35
    3  A    between atoms: CA_3  and  C_22
    4  A    between atoms: C_25  and  C_26
                            x       y       z     vdW  Elec       q    Type
                         _______ _______ _______ _____ _____    ______ ____

>  <TORSDO>
F 4

$$$$
