=
 OpenBabel10222421193D

 45 49  0  0  1  0  0  0  0  0999 V2000
  191.5350  177.3250  140.4650 C   0  0  0  0  0  0  0  0  0  0  0  0
  190.9270  177.1010  139.1760 N   0  0  0  0  0  0  0  0  0  0  0  0
  192.7620  177.6180  140.5200 O   0  0  0  0  0  0  0  0  0  0  0  0
  190.7740  177.2200  141.7300 C   0  0  0  0  0  0  0  0  0  0  0  0
  190.1540  176.0130  142.0780 C   0  0  0  0  0  3  0  0  0  0  0  0
  189.4390  175.9110  143.2300 N   0  0  0  0  0  0  0  0  0  0  0  0
  188.5340  176.7940  145.2790 N   0  0  0  0  0  2  0  0  0  0  0  0
  189.8760  178.1940  143.7620 C   0  0  0  0  0  3  0  0  0  0  0  0
  189.2870  176.9640  144.0770 C   0  0  0  0  0  0  0  0  0  0  0  0
  190.6150  178.3180  142.5850 C   0  0  0  0  0  3  0  0  0  0  0  0
  188.3190  177.8660  146.2390 C   0  0  0  0  0  2  0  0  0  0  0  0
  186.1380  178.3110  145.1030 N   0  0  0  0  0  0  0  0  0  0  0  0
  186.1430  178.6210  147.3210 C   0  0  0  0  0  3  0  0  0  0  0  0
  186.8900  178.2800  146.2160 C   0  0  0  0  0  0  0  0  0  0  0  0
  184.8920  178.8880  146.8990 N   0  0  0  0  0  2  0  0  0  0  0  0
  183.7480  178.8740  144.6850 C   0  0  0  0  0  1  0  0  0  0  0  0
  184.9320  178.6930  145.5650 C   0  0  0  0  0  0  0  0  0  0  0  0
  189.4890  177.2060  138.9540 C   0  0  0  0  0  2  0  0  0  0  0  0
  189.1030  178.6460  138.6580 C   0  0  0  0  0  2  0  0  0  0  0  0
  188.4810  178.7440  137.2790 C   0  0  0  0  0  2  0  0  0  0  0  0
  186.4750  177.2110  137.2620 C   0  0  0  0  0  3  0  0  0  0  0  0
  185.7570  178.0750  137.9090 N   0  0  0  0  0  0  0  0  0  0  0  0
  187.8380  177.4860  136.9340 N   0  0  0  0  0  2  0  0  0  0  0  0
  184.3880  177.8290  138.2540 C   0  0  0  0  0  0  0  0  0  0  0  0
  183.6860  177.0590  137.5400 O   0  0  0  0  0  0  0  0  0  0  0  0
  183.8140  178.4560  139.4160 N   0  0  0  0  0  0  0  0  0  0  0  0
  181.8740  179.2690  140.5140 O   0  0  0  0  0  0  0  0  0  0  0  0
  181.4870  179.2210  139.1660 C   0  0  0  0  0  0  0  0  0  0  0  0
  182.0040  180.4420  138.4200 C   0  0  0  0  0  1  0  0  0  0  0  0
  180.0250  178.8530  139.0370 C   0  0  0  0  0  1  0  0  0  0  0  0
  182.4050  178.2020  139.7520 C   0  0  1  0  0  3  0  0  0  0  0  0
  184.6910  179.1590  140.3150 C   0  0  0  0  0  3  0  0  0  0  0  0
  185.2110  178.5990  141.4010 C   0  0  0  0  0  2  0  0  0  0  0  0
  191.7620  176.7560  138.0340 C   0  0  0  0  0  2  0  0  0  0  0  0
  194.6530  171.6360  136.5840 C   0  0  0  0  0  2  0  0  0  0  0  0
  193.6820  174.2420  136.3260 C   0  0  0  0  0  0  0  0  0  0  0  0
  193.8700  171.9260  135.3070 C   0  0  2  0  0  3  0  0  0  0  0  0
  192.8070  174.7640  137.1430 C   0  0  0  0  0  0  0  0  0  0  0  0
  195.9570  172.1520  136.4940 O   0  0  0  0  0  0  0  0  0  0  0  0
  195.5930  173.2360  138.7070 C   0  0  0  0  0  1  0  0  0  0  0  0
  196.0430  173.3450  137.2490 C   0  0  2  0  0  3  0  0  0  0  0  0
  195.3800  174.8120  136.3780 S   0  0  0  0  0  0  0  0  0  0  0  0
  193.2530  173.3310  135.2100 C   0  0  1  0  0  3  0  0  0  0  0  0
  191.9360  175.2790  137.9630 C   0  0  0  0  0  3  0  0  0  0  0  0
  192.4260  172.1500  135.6950 C   0  0  0  0  0  2  0  0  0  0  0  0
  1  3  2  0  0  0  0
  1  4  1  0  0  0  0
  2  1  1  0  0  0  0
  4  5  2  0  0  0  0
  4 10  1  0  0  0  0
  5  6  1  0  0  0  0
  6  9  2  0  0  0  0
  7 11  1  0  0  0  0
  8  9  1  0  0  0  0
  9  7  1  0  0  0  0
 10  8  2  0  0  0  0
 12 17  2  0  0  0  0
 12 14  1  0  0  0  0
 14 11  1  0  0  0  0
 14 13  2  0  0  0  0
 15 13  1  0  0  0  0
 16 17  1  0  0  0  0
 17 15  1  0  0  0  0
 18  2  1  0  0  0  0
 19 18  1  0  0  0  0
 20 19  1  0  0  0  0
 21 22  2  0  0  0  0
 22 24  1  0  0  0  0
 23 21  1  0  0  0  0
 23 20  1  0  0  0  0
 24 26  1  0  0  0  0
 25 24  2  0  0  0  0
 26 32  1  0  0  0  0
 28 31  1  0  0  0  0
 28 27  1  0  0  0  0
 29 28  1  0  0  0  0
 30 28  1  0  0  0  0
 31 26  1  6  0  0  0
 31 27  1  0  0  0  0
 32 33  2  0  0  0  0
 34  2  1  0  0  0  0
 36 42  1  0  0  0  0
 36 38  2  0  0  0  0
 37 45  1  1  0  0  0
 37 35  1  0  0  0  0
 38 44  2  0  0  0  0
 39 35  1  0  0  0  0
 39 41  1  0  0  0  0
 41 40  1  1  0  0  0
 42 41  1  0  0  0  0
 43 37  1  0  0  0  0
 43 45  1  1  0  0  0
 43 36  1  0  0  0  0
 44 34  1  0  0  0  0
M  END
>  <MODEL>
1

>  <REMARK>
 VINA RESULT:      -7.8      0.000      0.000
  Name = 
  12 active torsions:
  status: ('A' for Active; 'I' for Inactive)
    1  A    between atoms: C_3  and  C_20
    2  A    between atoms: C_5  and  C_7
    3  A    between atoms: C_7  and  N_32
    4  A    between atoms: C_9  and  N_45
    5  A    between atoms: N_11  and  C_38
    6  A    between atoms: C_15  and  C_26
    7  A    between atoms: C_15  and  C_29
    8  A    between atoms: N_17  and  C_29
    9  A    between atoms: C_26  and  N_34
   10  A    between atoms: C_27  and  N_34
   11  A    between atoms: C_27  and  C_41
   12  A    between atoms: C_36  and  N_45
                            x       y       z     vdW  Elec       q    Type
                         _______ _______ _______ _____ _____    ______ ____

>  <TORSDO>
F 12

$$$$
=
 OpenBabel10222421193D

 45 49  0  0  1  0  0  0  0  0999 V2000
  190.5570  176.6470  139.8660 C   0  0  0  0  0  0  0  0  0  0  0  0
  189.5610  177.3230  139.0710 N   0  0  0  0  0  0  0  0  0  0  0  0
  191.3630  175.8590  139.2960 O   0  0  0  0  0  0  0  0  0  0  0  0
  190.6680  176.8390  141.3300 C   0  0  0  0  0  0  0  0  0  0  0  0
  191.4930  177.8470  141.8440 C   0  0  0  0  0  3  0  0  0  0  0  0
  191.6150  178.0210  143.1870 N   0  0  0  0  0  0  0  0  0  0  0  0
  191.1160  177.4660  145.4770 N   0  0  0  0  0  2  0  0  0  0  0  0
  190.1350  176.1980  143.6070 C   0  0  0  0  0  3  0  0  0  0  0  0
  190.9590  177.2290  144.0760 C   0  0  0  0  0  0  0  0  0  0  0  0
  189.9970  176.0050  142.2320 C   0  0  0  0  0  3  0  0  0  0  0  0
  190.4540  176.6660  146.4960 C   0  0  0  0  0  2  0  0  0  0  0  0
  188.0850  177.4230  146.2500 N   0  0  0  0  0  0  0  0  0  0  0  0
  189.0720  177.9790  148.1810 C   0  0  0  0  0  3  0  0  0  0  0  0
  189.2240  177.3640  146.9590 C   0  0  0  0  0  0  0  0  0  0  0  0
  187.8120  178.4520  148.2430 N   0  0  0  0  0  2  0  0  0  0  0  0
  185.8500  178.4220  146.7070 C   0  0  0  0  0  1  0  0  0  0  0  0
  187.2560  178.1000  147.0670 C   0  0  0  0  0  0  0  0  0  0  0  0
  188.9020  178.5480  139.5090 C   0  0  0  0  0  2  0  0  0  0  0  0
  187.6660  178.2190  140.3310 C   0  0  0  0  0  2  0  0  0  0  0  0
  187.7540  178.8850  141.6900 C   0  0  0  0  0  2  0  0  0  0  0  0
  185.5590  178.0990  142.6580 C   0  0  0  0  0  3  0  0  0  0  0  0
  184.8830  178.7780  141.7860 N   0  0  0  0  0  0  0  0  0  0  0  0
  186.9870  178.1250  142.6650 N   0  0  0  0  0  2  0  0  0  0  0  0
  183.4500  178.7740  141.7530 C   0  0  0  0  0  0  0  0  0  0  0  0
  182.7950  178.6030  142.8190 O   0  0  0  0  0  0  0  0  0  0  0  0
  182.7570  178.9680  140.5060 N   0  0  0  0  0  0  0  0  0  0  0  0
  180.8090  178.6210  139.1960 O   0  0  0  0  0  0  0  0  0  0  0  0
  180.7370  177.6030  140.1600 C   0  0  0  0  0  0  0  0  0  0  0  0
  181.6320  176.4370  139.7710 C   0  0  0  0  0  1  0  0  0  0  0  0
  179.3000  177.3240  140.5430 C   0  0  0  0  0  1  0  0  0  0  0  0
  181.2860  178.9520  140.4860 C   0  0  1  0  0  3  0  0  0  0  0  0
  183.5250  179.3610  139.3530 C   0  0  0  0  0  3  0  0  0  0  0  0
  184.2790  178.5110  138.6640 C   0  0  0  0  0  2  0  0  0  0  0  0
  189.1810  176.7790  137.7740 C   0  0  0  0  0  2  0  0  0  0  0  0
  183.9710  174.3850  135.8230 C   0  0  0  0  0  2  0  0  0  0  0  0
  186.6000  175.3270  135.7370 C   0  0  0  0  0  0  0  0  0  0  0  0
  184.2700  175.4150  134.7370 C   0  0  2  0  0  3  0  0  0  0  0  0
  187.1530  175.9960  136.7130 C   0  0  0  0  0  0  0  0  0  0  0  0
  184.4510  173.1190  135.4510 O   0  0  0  0  0  0  0  0  0  0  0  0
  185.5660  172.9780  137.6740 C   0  0  0  0  0  1  0  0  0  0  0  0
  185.6490  172.8460  136.1520 C   0  0  2  0  0  3  0  0  0  0  0  0
  187.1250  173.6420  135.4190 S   0  0  0  0  0  0  0  0  0  0  0  0
  185.6900  176.0040  134.7510 C   0  0  1  0  0  3  0  0  0  0  0  0
  187.6990  176.6600  137.6900 C   0  0  0  0  0  3  0  0  0  0  0  0
  184.5370  176.7380  135.4180 C   0  0  0  0  0  2  0  0  0  0  0  0
  1  4  1  0  0  0  0
  2 18  1  0  0  0  0
  2  1  1  0  0  0  0
  3  1  2  0  0  0  0
  4  5  2  0  0  0  0
  4 10  1  0  0  0  0
  5  6  1  0  0  0  0
  6  9  2  0  0  0  0
  7 11  1  0  0  0  0
  8  9  1  0  0  0  0
  9  7  1  0  0  0  0
 10  8  2  0  0  0  0
 11 14  1  0  0  0  0
 12 14  1  0  0  0  0
 12 17  2  0  0  0  0
 13 15  1  0  0  0  0
 14 13  2  0  0  0  0
 16 17  1  0  0  0  0
 17 15  1  0  0  0  0
 18 19  1  0  0  0  0
 19 20  1  0  0  0  0
 20 23  1  0  0  0  0
 21 23  1  0  0  0  0
 22 21  2  0  0  0  0
 24 22  1  0  0  0  0
 24 25  2  0  0  0  0
 26 24  1  0  0  0  0
 27 28  1  0  0  0  0
 27 31  1  0  0  0  0
 28 31  1  0  0  0  0
 28 30  1  0  0  0  0
 29 28  1  0  0  0  0
 31 26  1  6  0  0  0
 32 26  1  0  0  0  0
 33 32  2  0  0  0  0
 34  2  1  0  0  0  0
 36 38  2  0  0  0  0
 37 43  1  0  0  0  0
 37 45  1  1  0  0  0
 37 35  1  0  0  0  0
 38 44  2  0  0  0  0
 39 35  1  0  0  0  0
 39 41  1  0  0  0  0
 41 40  1  1  0  0  0
 42 36  1  0  0  0  0
 42 41  1  0  0  0  0
 43 45  1  1  0  0  0
 43 36  1  0  0  0  0
 44 34  1  0  0  0  0
M  END
>  <MODEL>
2

>  <REMARK>
 VINA RESULT:      -7.7      3.516      5.171
  Name = 
  12 active torsions:
  status: ('A' for Active; 'I' for Inactive)
    1  A    between atoms: C_3  and  C_20
    2  A    between atoms: C_5  and  C_7
    3  A    between atoms: C_7  and  N_32
    4  A    between atoms: C_9  and  N_45
    5  A    between atoms: N_11  and  C_38
    6  A    between atoms: C_15  and  C_26
    7  A    between atoms: C_15  and  C_29
    8  A    between atoms: N_17  and  C_29
    9  A    between atoms: C_26  and  N_34
   10  A    between atoms: C_27  and  N_34
   11  A    between atoms: C_27  and  C_41
   12  A    between atoms: C_36  and  N_45
                            x       y       z     vdW  Elec       q    Type
                         _______ _______ _______ _____ _____    ______ ____

>  <TORSDO>
F 12

$$$$
=
 OpenBabel10222421193D

 45 49  0  0  1  0  0  0  0  0999 V2000
  188.7110  178.5340  137.6960 C   0  0  0  0  0  0  0  0  0  0  0  0
  188.1460  177.5940  136.7580 N   0  0  0  0  0  0  0  0  0  0  0  0
  189.0720  179.6700  137.2810 O   0  0  0  0  0  0  0  0  0  0  0  0
  188.8890  178.2130  139.1300 C   0  0  0  0  0  0  0  0  0  0  0  0
  187.8230  178.3810  140.0240 C   0  0  0  0  0  3  0  0  0  0  0  0
  187.9820  178.1050  141.3460 N   0  0  0  0  0  0  0  0  0  0  0  0
  189.2700  177.3850  143.2490 N   0  0  0  0  0  2  0  0  0  0  0  0
  190.2630  177.5030  140.9980 C   0  0  0  0  0  3  0  0  0  0  0  0
  189.1660  177.6700  141.8520 C   0  0  0  0  0  0  0  0  0  0  0  0
  190.1200  177.7800  139.6380 C   0  0  0  0  0  3  0  0  0  0  0  0
  190.4980  176.9190  143.8740 C   0  0  0  0  0  2  0  0  0  0  0  0
  189.3130  177.5570  145.9810 N   0  0  0  0  0  0  0  0  0  0  0  0
  191.3320  176.6310  146.2610 C   0  0  0  0  0  3  0  0  0  0  0  0
  190.3890  177.0530  145.3520 C   0  0  0  0  0  0  0  0  0  0  0  0
  190.8520  176.8850  147.4940 N   0  0  0  0  0  2  0  0  0  0  0  0
  188.7470  177.8770  148.3850 C   0  0  0  0  0  1  0  0  0  0  0  0
  189.6420  177.4400  147.2810 C   0  0  0  0  0  0  0  0  0  0  0  0
  187.3070  176.4760  137.1720 C   0  0  0  0  0  2  0  0  0  0  0  0
  186.1340  176.3130  136.2190 C   0  0  0  0  0  2  0  0  0  0  0  0
  184.9370  177.0910  136.7290 C   0  0  0  0  0  2  0  0  0  0  0  0
  183.4510  176.5820  138.7060 C   0  0  0  0  0  3  0  0  0  0  0  0
  183.7050  177.7330  139.2460 N   0  0  0  0  0  0  0  0  0  0  0  0
  184.0460  176.2060  137.4630 N   0  0  0  0  0  2  0  0  0  0  0  0
  183.1250  178.1390  140.4920 C   0  0  0  0  0  0  0  0  0  0  0  0
  183.6920  177.8380  141.5800 O   0  0  0  0  0  0  0  0  0  0  0  0
  181.8990  178.8940  140.5050 N   0  0  0  0  0  0  0  0  0  0  0  0
  179.9440  179.6260  141.6330 O   0  0  0  0  0  0  0  0  0  0  0  0
  180.2150  178.3820  142.2260 C   0  0  0  0  0  0  0  0  0  0  0  0
  179.7070  177.2510  141.3450 C   0  0  0  0  0  1  0  0  0  0  0  0
  179.8390  178.3900  143.6910 C   0  0  0  0  0  1  0  0  0  0  0  0
  181.3110  179.2960  141.7910 C   0  0  1  0  0  3  0  0  0  0  0  0
  181.3930  179.3930  139.2530 C   0  0  0  0  0  3  0  0  0  0  0  0
  181.7350  180.5770  138.7560 C   0  0  0  0  0  2  0  0  0  0  0  0
  188.4110  177.7470  135.3340 C   0  0  0  0  0  2  0  0  0  0  0  0
  193.1190  173.9780  135.8890 C   0  0  0  0  0  2  0  0  0  0  0  0
  190.9700  175.5920  136.6500 C   0  0  0  0  0  0  0  0  0  0  0  0
  193.4210  175.0180  136.9640 C   0  0  2  0  0  3  0  0  0  0  0  0
  190.3670  176.4140  135.8330 C   0  0  0  0  0  0  0  0  0  0  0  0
  192.4410  172.8790  136.4390 O   0  0  0  0  0  0  0  0  0  0  0  0
  190.7570  173.1100  134.6190 C   0  0  0  0  0  1  0  0  0  0  0  0
  191.0670  172.9600  136.1090 C   0  0  2  0  0  3  0  0  0  0  0  0
  190.1230  174.1040  137.1810 S   0  0  0  0  0  0  0  0  0  0  0  0
  192.2650  175.9690  137.3130 C   0  0  1  0  0  3  0  0  0  0  0  0
  189.7690  177.2300  135.0130 C   0  0  0  0  0  3  0  0  0  0  0  0
  193.3390  176.3830  136.3200 C   0  0  0  0  0  2  0  0  0  0  0  0
  1  4  1  0  0  0  0
  2 18  1  0  0  0  0
  2  1  1  0  0  0  0
  3  1  2  0  0  0  0
  4 10  1  0  0  0  0
  4  5  2  0  0  0  0
  5  6  1  0  0  0  0
  6  9  2  0  0  0  0
  7 11  1  0  0  0  0
  8  9  1  0  0  0  0
  9  7  1  0  0  0  0
 10  8  2  0  0  0  0
 11 14  1  0  0  0  0
 12 17  2  0  0  0  0
 13 15  1  0  0  0  0
 14 12  1  0  0  0  0
 14 13  2  0  0  0  0
 17 15  1  0  0  0  0
 17 16  1  0  0  0  0
 19 20  1  0  0  0  0
 19 18  1  0  0  0  0
 20 23  1  0  0  0  0
 21 22  2  0  0  0  0
 22 24  1  0  0  0  0
 23 21  1  0  0  0  0
 24 26  1  0  0  0  0
 24 25  2  0  0  0  0
 27 31  1  0  0  0  0
 27 28  1  0  0  0  0
 28 30  1  0  0  0  0
 29 28  1  0  0  0  0
 31 26  1  6  0  0  0
 31 28  1  0  0  0  0
 32 26  1  0  0  0  0
 33 32  2  0  0  0  0
 34  2  1  0  0  0  0
 35 39  1  0  0  0  0
 36 42  1  0  0  0  0
 36 43  1  0  0  0  0
 37 35  1  6  0  0  0
 37 43  1  0  0  0  0
 38 36  2  0  0  0  0
 41 40  1  6  0  0  0
 41 39  1  0  0  0  0
 41 42  1  0  0  0  0
 43 45  1  6  0  0  0
 44 34  1  0  0  0  0
 44 38  2  0  0  0  0
 45 37  1  0  0  0  0
M  END
>  <MODEL>
3

>  <REMARK>
 VINA RESULT:      -7.5      2.493      4.021
  Name = 
  12 active torsions:
  status: ('A' for Active; 'I' for Inactive)
    1  A    between atoms: C_3  and  C_20
    2  A    between atoms: C_5  and  C_7
    3  A    between atoms: C_7  and  N_32
    4  A    between atoms: C_9  and  N_45
    5  A    between atoms: N_11  and  C_38
    6  A    between atoms: C_15  and  C_26
    7  A    between atoms: C_15  and  C_29
    8  A    between atoms: N_17  and  C_29
    9  A    between atoms: C_26  and  N_34
   10  A    between atoms: C_27  and  N_34
   11  A    between atoms: C_27  and  C_41
   12  A    between atoms: C_36  and  N_45
                            x       y       z     vdW  Elec       q    Type
                         _______ _______ _______ _____ _____    ______ ____

>  <TORSDO>
F 12

$$$$
=
 OpenBabel10222421193D

 45 49  0  0  1  0  0  0  0  0999 V2000
  191.4570  177.2330  140.5780 C   0  0  0  0  0  0  0  0  0  0  0  0
  190.6880  176.9560  139.3890 N   0  0  0  0  0  0  0  0  0  0  0  0
  192.7150  177.3100  140.4880 O   0  0  0  0  0  0  0  0  0  0  0  0
  190.8280  177.4280  141.9030 C   0  0  0  0  0  0  0  0  0  0  0  0
  191.2560  178.4680  142.7380 C   0  0  0  0  0  3  0  0  0  0  0  0
  190.6950  178.6450  143.9640 N   0  0  0  0  0  0  0  0  0  0  0  0
  189.1550  178.0670  145.7230 N   0  0  0  0  0  2  0  0  0  0  0  0
  189.2670  176.7630  143.6360 C   0  0  0  0  0  3  0  0  0  0  0  0
  189.7150  177.8250  144.4300 C   0  0  0  0  0  0  0  0  0  0  0  0
  189.8300  176.5660  142.3750 C   0  0  0  0  0  3  0  0  0  0  0  0
  188.1070  177.2400  146.3000 C   0  0  0  0  0  2  0  0  0  0  0  0
  186.0850  177.9460  145.0120 N   0  0  0  0  0  0  0  0  0  0  0  0
  186.1100  178.5580  147.1650 C   0  0  0  0  0  3  0  0  0  0  0  0
  186.7930  177.9230  146.1530 C   0  0  0  0  0  0  0  0  0  0  0  0
  184.9490  179.0080  146.6520 N   0  0  0  0  0  2  0  0  0  0  0  0
  183.8690  178.9100  144.4070 C   0  0  0  0  0  1  0  0  0  0  0  0
  184.9740  178.6220  145.3600 C   0  0  0  0  0  0  0  0  0  0  0  0
  189.2710  177.2830  139.2740 C   0  0  0  0  0  2  0  0  0  0  0  0
  189.0950  178.7450  138.9000 C   0  0  0  0  0  2  0  0  0  0  0  0
  188.9690  178.8850  137.3950 C   0  0  0  0  0  2  0  0  0  0  0  0
  186.9200  177.7510  136.4520 C   0  0  0  0  0  3  0  0  0  0  0  0
  187.5750  176.6530  136.2390 N   0  0  0  0  0  0  0  0  0  0  0  0
  187.5660  178.8960  137.0130 N   0  0  0  0  0  2  0  0  0  0  0  0
  186.9560  175.4890  135.6770 C   0  0  0  0  0  0  0  0  0  0  0  0
  185.9760  175.6120  134.8900 O   0  0  0  0  0  0  0  0  0  0  0  0
  187.4540  174.1790  136.0070 N   0  0  0  0  0  0  0  0  0  0  0  0
  187.0210  171.8580  136.2470 O   0  0  0  0  0  0  0  0  0  0  0  0
  185.7440  172.4350  136.3200 C   0  0  0  0  0  0  0  0  0  0  0  0
  185.4870  172.9850  137.7150 C   0  0  0  0  0  1  0  0  0  0  0  0
  184.7060  171.5320  135.6900 C   0  0  0  0  0  1  0  0  0  0  0  0
  186.8040  172.9920  135.4300 C   0  0  1  0  0  3  0  0  0  0  0  0
  188.6900  174.0830  136.7380 C   0  0  0  0  0  3  0  0  0  0  0  0
  189.8100  173.6080  136.2040 C   0  0  0  0  0  2  0  0  0  0  0  0
  191.3290  176.3250  138.2440 C   0  0  0  0  0  2  0  0  0  0  0  0
  197.0220  174.6300  137.0590 C   0  0  0  0  0  2  0  0  0  0  0  0
  194.2720  174.4000  137.4950 C   0  0  0  0  0  0  0  0  0  0  0  0
  196.6020  173.6060  138.1100 C   0  0  2  0  0  3  0  0  0  0  0  0
  193.5370  175.3760  137.9560 C   0  0  0  0  0  0  0  0  0  0  0  0
  196.8220  174.1230  135.7650 O   0  0  0  0  0  0  0  0  0  0  0  0
  195.6110  176.2280  135.2140 C   0  0  0  0  0  1  0  0  0  0  0  0
  195.6560  174.7000  135.2080 C   0  0  2  0  0  3  0  0  0  0  0  0
  194.1060  173.9110  135.7780 S   0  0  0  0  0  0  0  0  0  0  0  0
  195.0970  173.5490  138.4190 C   0  0  1  0  0  3  0  0  0  0  0  0
  192.8080  176.3540  138.4130 C   0  0  0  0  0  3  0  0  0  0  0  0
  196.0390  174.3640  139.2910 C   0  0  0  0  0  2  0  0  0  0  0  0
  1  4  1  0  0  0  0
  2  1  1  0  0  0  0
  3  1  2  0  0  0  0
  4 10  1  0  0  0  0
  4  5  2  0  0  0  0
  5  6  1  0  0  0  0
  6  9  2  0  0  0  0
  7 11  1  0  0  0  0
  8  9  1  0  0  0  0
  9  7  1  0  0  0  0
 10  8  2  0  0  0  0
 12 17  2  0  0  0  0
 12 14  1  0  0  0  0
 14 11  1  0  0  0  0
 14 13  2  0  0  0  0
 15 13  1  0  0  0  0
 16 17  1  0  0  0  0
 17 15  1  0  0  0  0
 18  2  1  0  0  0  0
 19 18  1  0  0  0  0
 20 19  1  0  0  0  0
 21 23  1  0  0  0  0
 22 21  2  0  0  0  0
 23 20  1  0  0  0  0
 24 26  1  0  0  0  0
 24 22  1  0  0  0  0
 25 24  2  0  0  0  0
 26 32  1  0  0  0  0
 27 28  1  0  0  0  0
 28 29  1  0  0  0  0
 30 28  1  0  0  0  0
 31 26  1  1  0  0  0
 31 27  1  0  0  0  0
 31 28  1  0  0  0  0
 33 32  2  0  0  0  0
 34 44  1  0  0  0  0
 34  2  1  0  0  0  0
 36 38  2  0  0  0  0
 36 43  1  0  0  0  0
 37 35  1  6  0  0  0
 37 43  1  0  0  0  0
 37 45  1  0  0  0  0
 38 44  2  0  0  0  0
 39 35  1  0  0  0  0
 41 40  1  1  0  0  0
 41 39  1  0  0  0  0
 41 42  1  0  0  0  0
 42 36  1  0  0  0  0
 43 45  1  1  0  0  0
M  END
>  <MODEL>
4

>  <REMARK>
 VINA RESULT:      -7.4      2.760      4.094
  Name = 
  12 active torsions:
  status: ('A' for Active; 'I' for Inactive)
    1  A    between atoms: C_3  and  C_20
    2  A    between atoms: C_5  and  C_7
    3  A    between atoms: C_7  and  N_32
    4  A    between atoms: C_9  and  N_45
    5  A    between atoms: N_11  and  C_38
    6  A    between atoms: C_15  and  C_26
    7  A    between atoms: C_15  and  C_29
    8  A    between atoms: N_17  and  C_29
    9  A    between atoms: C_26  and  N_34
   10  A    between atoms: C_27  and  N_34
   11  A    between atoms: C_27  and  C_41
   12  A    between atoms: C_36  and  N_45
                            x       y       z     vdW  Elec       q    Type
                         _______ _______ _______ _____ _____    ______ ____

>  <TORSDO>
F 12

$$$$
=
 OpenBabel10222421193D

 45 49  0  0  1  0  0  0  0  0999 V2000
  188.5260  175.9730  135.8810 C   0  0  0  0  0  0  0  0  0  0  0  0
  188.1440  177.3270  136.2010 N   0  0  0  0  0  0  0  0  0  0  0  0
  187.7130  175.2410  135.2510 O   0  0  0  0  0  0  0  0  0  0  0  0
  189.8380  175.4060  136.2680 C   0  0  0  0  0  0  0  0  0  0  0  0
  190.0830  175.0520  137.6020 C   0  0  0  0  0  3  0  0  0  0  0  0
  191.2900  174.5460  137.9700 N   0  0  0  0  0  0  0  0  0  0  0  0
  193.5430  173.8270  137.5200 N   0  0  0  0  0  2  0  0  0  0  0  0
  192.1040  174.7290  135.7360 C   0  0  0  0  0  3  0  0  0  0  0  0
  192.3000  174.3740  137.0760 C   0  0  0  0  0  0  0  0  0  0  0  0
  190.8730  175.2490  135.3380 C   0  0  0  0  0  3  0  0  0  0  0  0
  194.6770  173.6110  136.6330 C   0  0  0  0  0  2  0  0  0  0  0  0
  196.1760  174.2780  138.5180 N   0  0  0  0  0  0  0  0  0  0  0  0
  196.8930  174.8510  136.4760 C   0  0  0  0  0  3  0  0  0  0  0  0
  195.8900  174.2560  137.2060 C   0  0  0  0  0  0  0  0  0  0  0  0
  197.8320  175.2740  137.3450 N   0  0  0  0  0  2  0  0  0  0  0  0
  198.0960  175.1830  139.8210 C   0  0  0  0  0  1  0  0  0  0  0  0
  197.3640  174.9120  138.5560 C   0  0  0  0  0  0  0  0  0  0  0  0
  189.1180  178.3700  136.5030 C   0  0  0  0  0  2  0  0  0  0  0  0
  188.6710  179.1780  137.7100 C   0  0  0  0  0  2  0  0  0  0  0  0
  188.9680  178.4160  138.9860 C   0  0  0  0  0  2  0  0  0  0  0  0
  187.9470  178.0850  141.2720 C   0  0  0  0  0  3  0  0  0  0  0  0
  188.9480  177.3580  141.6600 N   0  0  0  0  0  0  0  0  0  0  0  0
  187.8990  178.6260  139.9500 N   0  0  0  0  0  2  0  0  0  0  0  0
  189.0250  176.8010  142.9770 C   0  0  0  0  0  0  0  0  0  0  0  0
  188.4780  175.6910  143.2260 O   0  0  0  0  0  0  0  0  0  0  0  0
  189.7300  177.5050  144.0170 N   0  0  0  0  0  0  0  0  0  0  0  0
  189.8360  177.9460  146.3460 O   0  0  0  0  0  0  0  0  0  0  0  0
  188.6070  177.2850  146.1970 C   0  0  0  0  0  0  0  0  0  0  0  0
  187.5400  178.2520  145.7070 C   0  0  0  0  0  1  0  0  0  0  0  0
  188.3100  176.4210  147.4020 C   0  0  0  0  0  1  0  0  0  0  0  0
  189.7940  176.9250  145.3670 C   0  0  1  0  0  3  0  0  0  0  0  0
  190.5110  178.6580  143.6520 C   0  0  0  0  0  3  0  0  0  0  0  0
  191.8180  178.6030  143.4230 C   0  0  0  0  0  2  0  0  0  0  0  0
  186.7350  177.6920  136.2300 C   0  0  0  0  0  2  0  0  0  0  0  0
  182.2090  176.9640  140.1890 C   0  0  0  0  0  2  0  0  0  0  0  0
  183.8430  178.2170  138.3000 C   0  0  0  0  0  0  0  0  0  0  0  0
  182.7650  178.3260  140.5950 C   0  0  2  0  0  3  0  0  0  0  0  0
  184.9820  177.7200  137.8980 C   0  0  0  0  0  0  0  0  0  0  0  0
  181.1310  177.1130  139.3020 O   0  0  0  0  0  0  0  0  0  0  0  0
  182.2480  175.4710  137.7980 C   0  0  0  0  0  1  0  0  0  0  0  0
  181.5630  176.8250  137.9850 C   0  0  2  0  0  3  0  0  0  0  0  0
  182.4410  178.2160  137.1830 S   0  0  0  0  0  0  0  0  0  0  0  0
  183.7410  178.9700  139.5970 C   0  0  1  0  0  3  0  0  0  0  0  0
  186.1150  177.2190  137.4990 C   0  0  0  0  0  3  0  0  0  0  0  0
  184.2570  178.1760  140.7860 C   0  0  0  0  0  2  0  0  0  0  0  0
  1  2  1  0  0  0  0
  1  4  1  0  0  0  0
  2 34  1  0  0  0  0
  2 18  1  0  0  0  0
  3  1  2  0  0  0  0
  4  5  2  0  0  0  0
  5  6  1  0  0  0  0
  8  9  1  0  0  0  0
  9  7  1  0  0  0  0
  9  6  2  0  0  0  0
 10  8  2  0  0  0  0
 10  4  1  0  0  0  0
 11 14  1  0  0  0  0
 11  7  1  0  0  0  0
 12 17  2  0  0  0  0
 13 14  2  0  0  0  0
 13 15  1  0  0  0  0
 14 12  1  0  0  0  0
 15 17  1  0  0  0  0
 17 16  1  0  0  0  0
 18 19  1  0  0  0  0
 19 20  1  0  0  0  0
 20 23  1  0  0  0  0
 21 22  2  0  0  0  0
 22 24  1  0  0  0  0
 23 21  1  0  0  0  0
 24 25  2  0  0  0  0
 24 26  1  0  0  0  0
 28 27  1  0  0  0  0
 28 30  1  0  0  0  0
 29 28  1  0  0  0  0
 31 26  1  6  0  0  0
 31 28  1  0  0  0  0
 31 27  1  0  0  0  0
 32 26  1  0  0  0  0
 33 32  2  0  0  0  0
 34 44  1  0  0  0  0
 36 43  1  0  0  0  0
 37 35  1  6  0  0  0
 37 45  1  0  0  0  0
 38 36  2  0  0  0  0
 39 35  1  0  0  0  0
 41 40  1  1  0  0  0
 41 39  1  0  0  0  0
 42 41  1  0  0  0  0
 42 36  1  0  0  0  0
 43 37  1  0  0  0  0
 43 45  1  1  0  0  0
 44 38  2  0  0  0  0
M  END
>  <MODEL>
5

>  <REMARK>
 VINA RESULT:      -7.0      3.385     10.068
  Name = 
  12 active torsions:
  status: ('A' for Active; 'I' for Inactive)
    1  A    between atoms: C_3  and  C_20
    2  A    between atoms: C_5  and  C_7
    3  A    between atoms: C_7  and  N_32
    4  A    between atoms: C_9  and  N_45
    5  A    between atoms: N_11  and  C_38
    6  A    between atoms: C_15  and  C_26
    7  A    between atoms: C_15  and  C_29
    8  A    between atoms: N_17  and  C_29
    9  A    between atoms: C_26  and  N_34
   10  A    between atoms: C_27  and  N_34
   11  A    between atoms: C_27  and  C_41
   12  A    between atoms: C_36  and  N_45
                            x       y       z     vdW  Elec       q    Type
                         _______ _______ _______ _____ _____    ______ ____

>  <TORSDO>
F 12

$$$$
=
 OpenBabel10222421193D

 45 49  0  0  1  0  0  0  0  0999 V2000
  191.6780  176.8470  138.7510 C   0  0  0  0  0  0  0  0  0  0  0  0
  190.9670  176.4980  137.5440 N   0  0  0  0  0  0  0  0  0  0  0  0
  192.9380  176.9190  138.7190 O   0  0  0  0  0  0  0  0  0  0  0  0
  190.9840  177.1200  140.0290 C   0  0  0  0  0  0  0  0  0  0  0  0
  191.7190  177.5030  141.1580 C   0  0  0  0  0  3  0  0  0  0  0  0
  191.0920  177.7410  142.3420 N   0  0  0  0  0  0  0  0  0  0  0  0
  189.1420  177.8820  143.7470 N   0  0  0  0  0  2  0  0  0  0  0  0
  188.9740  177.2110  141.3820 C   0  0  0  0  0  3  0  0  0  0  0  0
  189.7460  177.6080  142.4810 C   0  0  0  0  0  0  0  0  0  0  0  0
  189.5990  176.9640  140.1600 C   0  0  0  0  0  3  0  0  0  0  0  0
  187.7110  177.7630  143.9850 C   0  0  0  0  0  2  0  0  0  0  0  0
  188.3690  177.7110  146.3960 N   0  0  0  0  0  0  0  0  0  0  0  0
  186.2250  178.2210  145.9990 C   0  0  0  0  0  3  0  0  0  0  0  0
  187.4360  177.8770  145.4430 C   0  0  0  0  0  0  0  0  0  0  0  0
  186.3880  178.2610  147.3360 N   0  0  0  0  0  2  0  0  0  0  0  0
  188.3060  177.8800  148.8800 C   0  0  0  0  0  1  0  0  0  0  0  0
  187.6840  177.9490  147.5310 C   0  0  0  0  0  0  0  0  0  0  0  0
  189.5590  176.8160  137.3400 C   0  0  0  0  0  2  0  0  0  0  0  0
  189.4150  178.1590  136.6440 C   0  0  0  0  0  2  0  0  0  0  0  0
  187.9740  178.6250  136.7060 C   0  0  0  0  0  2  0  0  0  0  0  0
  185.8390  177.2770  136.7160 C   0  0  0  0  0  3  0  0  0  0  0  0
  185.4310  177.8530  137.8030 N   0  0  0  0  0  0  0  0  0  0  0  0
  187.1000  177.6130  136.1340 N   0  0  0  0  0  2  0  0  0  0  0  0
  184.1720  177.5380  138.4120 C   0  0  0  0  0  0  0  0  0  0  0  0
  183.4100  176.6840  137.8790 O   0  0  0  0  0  0  0  0  0  0  0  0
  183.7790  178.1920  139.6320 N   0  0  0  0  0  0  0  0  0  0  0  0
  181.9890  178.9630  140.9870 O   0  0  0  0  0  0  0  0  0  0  0  0
  181.3810  178.7410  139.7410 C   0  0  0  0  0  0  0  0  0  0  0  0
  181.6420  179.9120  138.8060 C   0  0  0  0  0  1  0  0  0  0  0  0
  179.9610  178.2480  139.9140 C   0  0  0  0  0  1  0  0  0  0  0  0
  182.4800  177.8650  140.2410 C   0  0  1  0  0  3  0  0  0  0  0  0
  184.7520  179.0010  140.3170 C   0  0  0  0  0  3  0  0  0  0  0  0
  185.2280  178.6970  141.5190 C   0  0  0  0  0  2  0  0  0  0  0  0
  191.6630  175.8000  136.4720 C   0  0  0  0  0  2  0  0  0  0  0  0
  196.0420  171.7620  137.5690 C   0  0  0  0  0  2  0  0  0  0  0  0
  194.5650  173.6950  136.1960 C   0  0  0  0  0  0  0  0  0  0  0  0
  195.6170  171.3870  136.1520 C   0  0  2  0  0  3  0  0  0  0  0  0
  193.3880  174.1060  136.5860 C   0  0  0  0  0  0  0  0  0  0  0  0
  197.1420  172.6350  137.5420 O   0  0  0  0  0  0  0  0  0  0  0  0
  195.8900  174.1290  139.0930 C   0  0  0  0  0  1  0  0  0  0  0  0
  196.7010  173.9530  137.8090 C   0  0  2  0  0  3  0  0  0  0  0  0
  195.9740  174.7920  136.3530 S   0  0  0  0  0  0  0  0  0  0  0  0
  194.7230  172.4100  135.4330 C   0  0  1  0  0  3  0  0  0  0  0  0
  192.2160  174.5140  136.9810 C   0  0  0  0  0  3  0  0  0  0  0  0
  194.1150  171.2160  136.1530 C   0  0  0  0  0  2  0  0  0  0  0  0
  1  4  1  0  0  0  0
  2  1  1  0  0  0  0
  3  1  2  0  0  0  0
  4 10  1  0  0  0  0
  4  5  2  0  0  0  0
  5  6  1  0  0  0  0
  6  9  2  0  0  0  0
  7 11  1  0  0  0  0
  8  9  1  0  0  0  0
  9  7  1  0  0  0  0
 10  8  2  0  0  0  0
 11 14  1  0  0  0  0
 12 17  2  0  0  0  0
 13 15  1  0  0  0  0
 14 13  2  0  0  0  0
 14 12  1  0  0  0  0
 15 17  1  0  0  0  0
 17 16  1  0  0  0  0
 18  2  1  0  0  0  0
 19 20  1  0  0  0  0
 19 18  1  0  0  0  0
 21 22  2  0  0  0  0
 22 24  1  0  0  0  0
 23 20  1  0  0  0  0
 23 21  1  0  0  0  0
 24 26  1  0  0  0  0
 25 24  2  0  0  0  0
 26 32  1  0  0  0  0
 28 30  1  0  0  0  0
 28 31  1  0  0  0  0
 28 27  1  0  0  0  0
 29 28  1  0  0  0  0
 31 26  1  6  0  0  0
 31 27  1  0  0  0  0
 32 33  2  0  0  0  0
 34 44  1  0  0  0  0
 34  2  1  0  0  0  0
 36 42  1  0  0  0  0
 36 38  2  0  0  0  0
 37 45  1  1  0  0  0
 37 35  1  0  0  0  0
 38 44  2  0  0  0  0
 39 35  1  0  0  0  0
 39 41  1  0  0  0  0
 41 40  1  1  0  0  0
 42 41  1  0  0  0  0
 43 37  1  0  0  0  0
 43 45  1  1  0  0  0
 43 36  1  0  0  0  0
M  END
>  <MODEL>
6

>  <REMARK>
 VINA RESULT:      -7.0      1.288      1.874
  Name = 
  12 active torsions:
  status: ('A' for Active; 'I' for Inactive)
    1  A    between atoms: C_3  and  C_20
    2  A    between atoms: C_5  and  C_7
    3  A    between atoms: C_7  and  N_32
    4  A    between atoms: C_9  and  N_45
    5  A    between atoms: N_11  and  C_38
    6  A    between atoms: C_15  and  C_26
    7  A    between atoms: C_15  and  C_29
    8  A    between atoms: N_17  and  C_29
    9  A    between atoms: C_26  and  N_34
   10  A    between atoms: C_27  and  N_34
   11  A    between atoms: C_27  and  C_41
   12  A    between atoms: C_36  and  N_45
                            x       y       z     vdW  Elec       q    Type
                         _______ _______ _______ _____ _____    ______ ____

>  <TORSDO>
F 12

$$$$
=
 OpenBabel10222421193D

 45 49  0  0  1  0  0  0  0  0999 V2000
  185.5610  177.1800  136.4500 C   0  0  0  0  0  0  0  0  0  0  0  0
  184.7710  177.5840  137.5880 N   0  0  0  0  0  0  0  0  0  0  0  0
  185.0040  177.0890  135.3210 O   0  0  0  0  0  0  0  0  0  0  0  0
  187.0030  176.8640  136.5570 C   0  0  0  0  0  0  0  0  0  0  0  0
  187.9600  177.8080  136.1640 C   0  0  0  0  0  3  0  0  0  0  0  0
  189.2870  177.5200  136.2430 N   0  0  0  0  0  0  0  0  0  0  0  0
  191.1420  176.0760  136.7630 N   0  0  0  0  0  2  0  0  0  0  0  0
  188.8130  175.3380  137.0810 C   0  0  0  0  0  3  0  0  0  0  0  0
  189.7350  176.3170  136.6910 C   0  0  0  0  0  0  0  0  0  0  0  0
  187.4480  175.6150  137.0070 C   0  0  0  0  0  3  0  0  0  0  0  0
  191.7080  174.8190  137.2280 C   0  0  0  0  0  2  0  0  0  0  0  0
  193.9820  174.0870  137.9640 N   0  0  0  0  0  0  0  0  0  0  0  0
  193.9450  175.8430  136.5750 C   0  0  0  0  0  3  0  0  0  0  0  0
  193.1920  174.9250  137.2730 C   0  0  0  0  0  0  0  0  0  0  0  0
  195.2410  175.5910  136.8400 N   0  0  0  0  0  2  0  0  0  0  0  0
  196.4530  173.9110  138.2250 C   0  0  0  0  0  1  0  0  0  0  0  0
  195.2200  174.5330  137.6760 C   0  0  0  0  0  0  0  0  0  0  0  0
  185.3620  178.1470  138.7970 C   0  0  0  0  0  2  0  0  0  0  0  0
  184.2900  178.7960  139.6570 C   0  0  0  0  0  2  0  0  0  0  0  0
  184.9130  179.3810  140.9100 C   0  0  0  0  0  2  0  0  0  0  0  0
  185.5370  177.8790  142.8410 C   0  0  0  0  0  3  0  0  0  0  0  0
  186.7930  177.9280  142.5270 N   0  0  0  0  0  0  0  0  0  0  0  0
  184.5570  178.5720  142.0650 N   0  0  0  0  0  2  0  0  0  0  0  0
  187.8000  177.2440  143.2840 C   0  0  0  0  0  0  0  0  0  0  0  0
  187.5140  176.7480  144.4100 O   0  0  0  0  0  0  0  0  0  0  0  0
  189.1350  177.1180  142.7590 N   0  0  0  0  0  0  0  0  0  0  0  0
  191.4530  176.8770  143.2040 O   0  0  0  0  0  0  0  0  0  0  0  0
  190.9370  177.3510  144.4200 C   0  0  0  0  0  0  0  0  0  0  0  0
  190.7470  178.8600  144.3650 C   0  0  0  0  0  1  0  0  0  0  0  0
  191.6830  176.7530  145.5930 C   0  0  0  0  0  1  0  0  0  0  0  0
  190.1600  176.4210  143.5510 C   0  0  1  0  0  3  0  0  0  0  0  0
  189.3710  177.5120  141.3950 C   0  0  0  0  0  3  0  0  0  0  0  0
  190.0230  176.7470  140.5260 C   0  0  0  0  0  2  0  0  0  0  0  0
  183.3230  177.4340  137.5530 C   0  0  0  0  0  2  0  0  0  0  0  0
  182.5130  171.4520  137.0630 C   0  0  0  0  0  2  0  0  0  0  0  0
  182.4960  174.1510  136.3430 C   0  0  0  0  0  0  0  0  0  0  0  0
  181.1800  171.9920  136.5530 C   0  0  2  0  0  3  0  0  0  0  0  0
  182.7180  175.1190  137.1920 C   0  0  0  0  0  0  0  0  0  0  0  0
  183.3920  171.2100  135.9950 O   0  0  0  0  0  0  0  0  0  0  0  0
  185.1190  172.5150  137.2270 C   0  0  0  0  0  1  0  0  0  0  0  0
  184.3510  172.2480  135.9310 C   0  0  2  0  0  3  0  0  0  0  0  0
  183.7370  173.7630  135.1090 S   0  0  0  0  0  0  0  0  0  0  0  0
  181.1450  173.4990  136.2490 C   0  0  1  0  0  3  0  0  0  0  0  0
  182.9430  176.0800  138.0410 C   0  0  0  0  0  3  0  0  0  0  0  0
  180.6520  172.9630  137.5840 C   0  0  0  0  0  2  0  0  0  0  0  0
  1  4  1  0  0  0  0
  1  2  1  0  0  0  0
  2 18  1  0  0  0  0
  3  1  2  0  0  0  0
  4 10  1  0  0  0  0
  5  6  1  0  0  0  0
  5  4  2  0  0  0  0
  6  9  2  0  0  0  0
  7 11  1  0  0  0  0
  9  7  1  0  0  0  0
  9  8  1  0  0  0  0
 10  8  2  0  0  0  0
 11 14  1  0  0  0  0
 13 15  1  0  0  0  0
 13 14  2  0  0  0  0
 14 12  1  0  0  0  0
 15 17  1  0  0  0  0
 17 12  2  0  0  0  0
 17 16  1  0  0  0  0
 18 19  1  0  0  0  0
 19 20  1  0  0  0  0
 20 23  1  0  0  0  0
 22 21  2  0  0  0  0
 22 24  1  0  0  0  0
 23 21  1  0  0  0  0
 24 25  2  0  0  0  0
 26 24  1  0  0  0  0
 27 31  1  0  0  0  0
 27 28  1  0  0  0  0
 28 30  1  0  0  0  0
 29 28  1  0  0  0  0
 31 26  1  6  0  0  0
 31 28  1  0  0  0  0
 32 26  1  0  0  0  0
 33 32  2  0  0  0  0
 34  2  1  0  0  0  0
 34 44  1  0  0  0  0
 36 38  2  0  0  0  0
 37 35  1  1  0  0  0
 37 45  1  0  0  0  0
 38 44  2  0  0  0  0
 39 35  1  0  0  0  0
 41 39  1  0  0  0  0
 41 40  1  1  0  0  0
 42 41  1  0  0  0  0
 42 36  1  0  0  0  0
 43 36  1  0  0  0  0
 43 37  1  0  0  0  0
 43 45  1  1  0  0  0
M  END
>  <MODEL>
7

>  <REMARK>
 VINA RESULT:      -7.0      3.707      9.682
  Name = 
  12 active torsions:
  status: ('A' for Active; 'I' for Inactive)
    1  A    between atoms: C_3  and  C_20
    2  A    between atoms: C_5  and  C_7
    3  A    between atoms: C_7  and  N_32
    4  A    between atoms: C_9  and  N_45
    5  A    between atoms: N_11  and  C_38
    6  A    between atoms: C_15  and  C_26
    7  A    between atoms: C_15  and  C_29
    8  A    between atoms: N_17  and  C_29
    9  A    between atoms: C_26  and  N_34
   10  A    between atoms: C_27  and  N_34
   11  A    between atoms: C_27  and  C_41
   12  A    between atoms: C_36  and  N_45
                            x       y       z     vdW  Elec       q    Type
                         _______ _______ _______ _____ _____    ______ ____

>  <TORSDO>
F 12

$$$$
=
 OpenBabel10222421193D

 45 49  0  0  1  0  0  0  0  0999 V2000
  189.3710  176.0480  136.1610 C   0  0  0  0  0  0  0  0  0  0  0  0
  190.7110  176.3990  136.5620 N   0  0  0  0  0  0  0  0  0  0  0  0
  189.2070  175.1190  135.3220 O   0  0  0  0  0  0  0  0  0  0  0  0
  188.1760  176.7410  136.6940 C   0  0  0  0  0  0  0  0  0  0  0  0
  188.1290  178.1410  136.7150 C   0  0  0  0  0  3  0  0  0  0  0  0
  187.0430  178.7870  137.2180 N   0  0  0  0  0  0  0  0  0  0  0  0
  184.8580  178.8460  138.2280 N   0  0  0  0  0  2  0  0  0  0  0  0
  185.9870  176.7130  137.7380 C   0  0  0  0  0  3  0  0  0  0  0  0
  185.9760  178.1130  137.7240 C   0  0  0  0  0  0  0  0  0  0  0  0
  187.0920  176.0320  137.2260 C   0  0  0  0  0  3  0  0  0  0  0  0
  183.6770  178.2060  138.7890 C   0  0  0  0  0  2  0  0  0  0  0  0
  182.4240  178.5780  140.9200 N   0  0  0  0  0  0  0  0  0  0  0  0
  184.6530  178.7230  141.0820 C   0  0  0  0  0  3  0  0  0  0  0  0
  183.5820  178.5180  140.2410 C   0  0  0  0  0  0  0  0  0  0  0  0
  184.1630  178.9320  142.3200 N   0  0  0  0  0  2  0  0  0  0  0  0
  181.8780  178.9990  143.3130 C   0  0  0  0  0  1  0  0  0  0  0  0
  182.8260  178.8380  142.1790 C   0  0  0  0  0  0  0  0  0  0  0  0
  191.0030  177.1040  137.8050 C   0  0  0  0  0  2  0  0  0  0  0  0
  191.1000  176.1210  138.9610 C   0  0  0  0  0  2  0  0  0  0  0  0
  190.5200  176.7380  140.2180 C   0  0  0  0  0  2  0  0  0  0  0  0
  191.3570  177.7790  142.3610 C   0  0  0  0  0  3  0  0  0  0  0  0
  190.1670  177.7790  142.8750 N   0  0  0  0  0  0  0  0  0  0  0  0
  191.5880  177.2850  141.0410 N   0  0  0  0  0  2  0  0  0  0  0  0
  189.9020  178.2680  144.1960 C   0  0  0  0  0  0  0  0  0  0  0  0
  190.6050  179.2000  144.6760 O   0  0  0  0  0  0  0  0  0  0  0  0
  188.8320  177.6990  144.9730 N   0  0  0  0  0  0  0  0  0  0  0  0
  188.0780  177.1730  147.1610 O   0  0  0  0  0  0  0  0  0  0  0  0
  189.4220  177.5270  147.3580 C   0  0  0  0  0  0  0  0  0  0  0  0
  190.3350  176.3600  147.0130 C   0  0  0  0  0  1  0  0  0  0  0  0
  189.6060  178.2300  148.6850 C   0  0  0  0  0  1  0  0  0  0  0  0
  188.5770  178.2040  146.3310 C   0  0  1  0  0  3  0  0  0  0  0  0
  187.9270  176.7870  144.3240 C   0  0  0  0  0  3  0  0  0  0  0  0
  186.6910  177.1230  143.9730 C   0  0  0  0  0  2  0  0  0  0  0  0
  191.8370  176.0460  135.7080 C   0  0  0  0  0  2  0  0  0  0  0  0
  197.4820  174.4850  137.2490 C   0  0  0  0  0  2  0  0  0  0  0  0
  194.8000  174.1830  136.5280 C   0  0  0  0  0  0  0  0  0  0  0  0
  196.6490  173.5890  138.1610 C   0  0  2  0  0  3  0  0  0  0  0  0
  193.9510  175.1750  136.5000 C   0  0  0  0  0  0  0  0  0  0  0  0
  197.8360  173.8020  136.0740 O   0  0  0  0  0  0  0  0  0  0  0  0
  196.9920  175.7560  134.7810 C   0  0  0  0  0  1  0  0  0  0  0  0
  197.0170  174.2440  135.0080 C   0  0  2  0  0  3  0  0  0  0  0  0
  195.3620  173.4640  134.9850 S   0  0  0  0  0  0  0  0  0  0  0  0
  195.1520  173.5010  137.8210 C   0  0  1  0  0  3  0  0  0  0  0  0
  193.1090  176.1680  136.4710 C   0  0  0  0  0  3  0  0  0  0  0  0
  195.6520  174.4680  138.8820 C   0  0  0  0  0  2  0  0  0  0  0  0
  1  2  1  0  0  0  0
  1  4  1  0  0  0  0
  2 18  1  0  0  0  0
  3  1  2  0  0  0  0
  4  5  2  0  0  0  0
  4 10  1  0  0  0  0
  5  6  1  0  0  0  0
  6  9  2  0  0  0  0
  7 11  1  0  0  0  0
  9  8  1  0  0  0  0
  9  7  1  0  0  0  0
 10  8  2  0  0  0  0
 11 14  1  0  0  0  0
 12 17  2  0  0  0  0
 13 15  1  0  0  0  0
 14 12  1  0  0  0  0
 14 13  2  0  0  0  0
 17 15  1  0  0  0  0
 17 16  1  0  0  0  0
 18 19  1  0  0  0  0
 19 20  1  0  0  0  0
 20 23  1  0  0  0  0
 21 22  2  0  0  0  0
 22 24  1  0  0  0  0
 23 21  1  0  0  0  0
 24 25  2  0  0  0  0
 24 26  1  0  0  0  0
 27 28  1  0  0  0  0
 28 30  1  0  0  0  0
 29 28  1  0  0  0  0
 31 26  1  6  0  0  0
 31 27  1  0  0  0  0
 31 28  1  0  0  0  0
 32 26  1  0  0  0  0
 33 32  2  0  0  0  0
 34 44  1  0  0  0  0
 34  2  1  0  0  0  0
 36 43  1  0  0  0  0
 37 35  1  6  0  0  0
 37 45  1  0  0  0  0
 38 36  2  0  0  0  0
 39 35  1  0  0  0  0
 41 40  1  1  0  0  0
 41 39  1  0  0  0  0
 42 41  1  0  0  0  0
 42 36  1  0  0  0  0
 43 37  1  0  0  0  0
 43 45  1  1  0  0  0
 44 38  2  0  0  0  0
M  END
>  <MODEL>
8

>  <REMARK>
 VINA RESULT:      -6.9      2.647      6.420
  Name = 
  12 active torsions:
  status: ('A' for Active; 'I' for Inactive)
    1  A    between atoms: C_3  and  C_20
    2  A    between atoms: C_5  and  C_7
    3  A    between atoms: C_7  and  N_32
    4  A    between atoms: C_9  and  N_45
    5  A    between atoms: N_11  and  C_38
    6  A    between atoms: C_15  and  C_26
    7  A    between atoms: C_15  and  C_29
    8  A    between atoms: N_17  and  C_29
    9  A    between atoms: C_26  and  N_34
   10  A    between atoms: C_27  and  N_34
   11  A    between atoms: C_27  and  C_41
   12  A    between atoms: C_36  and  N_45
                            x       y       z     vdW  Elec       q    Type
                         _______ _______ _______ _____ _____    ______ ____

>  <TORSDO>
F 12

$$$$
=
 OpenBabel10222421193D

 45 49  0  0  1  0  0  0  0  0999 V2000
  191.4600  177.2310  140.6050 C   0  0  0  0  0  0  0  0  0  0  0  0
  190.6980  176.9680  139.4080 N   0  0  0  0  0  0  0  0  0  0  0  0
  192.7170  177.3220  140.5220 O   0  0  0  0  0  0  0  0  0  0  0  0
  190.8230  177.3940  141.9310 C   0  0  0  0  0  0  0  0  0  0  0  0
  191.2870  178.3750  142.8160 C   0  0  0  0  0  3  0  0  0  0  0  0
  190.7190  178.5220  144.0430 N   0  0  0  0  0  0  0  0  0  0  0  0
  189.1330  177.9360  145.7580 N   0  0  0  0  0  2  0  0  0  0  0  0
  189.2130  176.7230  143.6150 C   0  0  0  0  0  3  0  0  0  0  0  0
  189.6980  177.7270  144.4620 C   0  0  0  0  0  0  0  0  0  0  0  0
  189.7820  176.5580  142.3520 C   0  0  0  0  0  3  0  0  0  0  0  0
  188.0420  177.1310  146.2860 C   0  0  0  0  0  2  0  0  0  0  0  0
  186.0740  177.9220  144.9630 N   0  0  0  0  0  0  0  0  0  0  0  0
  186.0740  178.5100  147.1240 C   0  0  0  0  0  3  0  0  0  0  0  0
  186.7560  177.8620  146.1190 C   0  0  0  0  0  0  0  0  0  0  0  0
  184.9400  179.0060  146.5910 N   0  0  0  0  0  2  0  0  0  0  0  0
  183.9070  178.9700  144.3230 C   0  0  0  0  0  1  0  0  0  0  0  0
  184.9800  178.6330  145.2960 C   0  0  0  0  0  0  0  0  0  0  0  0
  189.2790  177.2830  139.2930 C   0  0  0  0  0  2  0  0  0  0  0  0
  189.0560  178.3400  138.2230 C   0  0  0  0  0  2  0  0  0  0  0  0
  187.6500  178.2290  137.6670 C   0  0  0  0  0  2  0  0  0  0  0  0
  185.2870  178.2700  138.5560 C   0  0  0  0  0  3  0  0  0  0  0  0
  184.8260  177.7280  137.4730 N   0  0  0  0  0  0  0  0  0  0  0  0
  186.6800  178.5520  138.7020 N   0  0  0  0  0  2  0  0  0  0  0  0
  183.4350  177.4330  137.2960 C   0  0  0  0  0  0  0  0  0  0  0  0
  182.5770  178.3550  137.3890 O   0  0  0  0  0  0  0  0  0  0  0  0
  183.0150  176.0860  137.0080 N   0  0  0  0  0  0  0  0  0  0  0  0
  181.2670  174.5190  137.3590 O   0  0  0  0  0  0  0  0  0  0  0  0
  180.8800  175.6180  138.1410 C   0  0  0  0  0  0  0  0  0  0  0  0
  181.6230  175.6150  139.4680 C   0  0  0  0  0  1  0  0  0  0  0  0
  179.3740  175.7710  138.1500 C   0  0  0  0  0  1  0  0  0  0  0  0
  181.5830  175.7970  136.8380 C   0  0  1  0  0  3  0  0  0  0  0  0
  184.0250  175.1060  136.7080 C   0  0  0  0  0  3  0  0  0  0  0  0
  184.4460  174.2090  137.5940 C   0  0  0  0  0  2  0  0  0  0  0  0
  191.3510  176.3650  138.2540 C   0  0  0  0  0  2  0  0  0  0  0  0
  197.0730  174.7650  137.0790 C   0  0  0  0  0  2  0  0  0  0  0  0
  194.3280  174.4880  137.5210 C   0  0  0  0  0  0  0  0  0  0  0  0
  196.6730  173.7440  138.1410 C   0  0  2  0  0  3  0  0  0  0  0  0
  193.5750  175.4550  137.9720 C   0  0  0  0  0  0  0  0  0  0  0  0
  196.8810  174.2400  135.7910 O   0  0  0  0  0  0  0  0  0  0  0  0
  195.6310  176.3170  135.2200 C   0  0  0  0  0  1  0  0  0  0  0  0
  195.7040  174.7900  135.2300 C   0  0  2  0  0  3  0  0  0  0  0  0
  194.1690  173.9780  135.8090 S   0  0  0  0  0  0  0  0  0  0  0  0
  195.1690  173.6620  138.4520 C   0  0  1  0  0  3  0  0  0  0  0  0
  192.8290  176.4240  138.4210 C   0  0  0  0  0  3  0  0  0  0  0  0
  196.0970  174.5030  139.3150 C   0  0  0  0  0  2  0  0  0  0  0  0
  1  4  1  0  0  0  0
  2  1  1  0  0  0  0
  3  1  2  0  0  0  0
  4 10  1  0  0  0  0
  4  5  2  0  0  0  0
  5  6  1  0  0  0  0
  6  9  2  0  0  0  0
  7 11  1  0  0  0  0
  8  9  1  0  0  0  0
  9  7  1  0  0  0  0
 10  8  2  0  0  0  0
 12 17  2  0  0  0  0
 12 14  1  0  0  0  0
 14 11  1  0  0  0  0
 14 13  2  0  0  0  0
 15 13  1  0  0  0  0
 16 17  1  0  0  0  0
 17 15  1  0  0  0  0
 18  2  1  0  0  0  0
 19 18  1  0  0  0  0
 20 19  1  0  0  0  0
 20 23  1  0  0  0  0
 21 23  1  0  0  0  0
 22 21  2  0  0  0  0
 24 25  2  0  0  0  0
 24 22  1  0  0  0  0
 26 24  1  0  0  0  0
 27 28  1  0  0  0  0
 28 30  1  0  0  0  0
 28 29  1  0  0  0  0
 31 26  1  1  0  0  0
 31 27  1  0  0  0  0
 31 28  1  0  0  0  0
 32 26  1  0  0  0  0
 32 33  2  0  0  0  0
 34 44  1  0  0  0  0
 34  2  1  0  0  0  0
 36 38  2  0  0  0  0
 36 43  1  0  0  0  0
 37 35  1  6  0  0  0
 37 43  1  0  0  0  0
 37 45  1  0  0  0  0
 38 44  2  0  0  0  0
 39 35  1  0  0  0  0
 41 40  1  1  0  0  0
 41 39  1  0  0  0  0
 41 42  1  0  0  0  0
 42 36  1  0  0  0  0
 43 45  1  1  0  0  0
M  END
>  <MODEL>
9

>  <REMARK>
 VINA RESULT:      -6.8      1.855      2.760
  Name = 
  12 active torsions:
  status: ('A' for Active; 'I' for Inactive)
    1  A    between atoms: C_3  and  C_20
    2  A    between atoms: C_5  and  C_7
    3  A    between atoms: C_7  and  N_32
    4  A    between atoms: C_9  and  N_45
    5  A    between atoms: N_11  and  C_38
    6  A    between atoms: C_15  and  C_26
    7  A    between atoms: C_15  and  C_29
    8  A    between atoms: N_17  and  C_29
    9  A    between atoms: C_26  and  N_34
   10  A    between atoms: C_27  and  N_34
   11  A    between atoms: C_27  and  C_41
   12  A    between atoms: C_36  and  N_45
                            x       y       z     vdW  Elec       q    Type
                         _______ _______ _______ _____ _____    ______ ____

>  <TORSDO>
F 12

$$$$
