=
 OpenBabel10222419183D

 35 39  0  0  1  0  0  0  0  0999 V2000
  186.4080  177.9050  142.0760 S   0  0  0  0  0  0  0  0  0  0  0  0
  191.2560  177.0530  148.0700 O   0  0  0  0  0  0  0  0  0  0  0  0
  187.5280  177.5120  144.5280 N   0  0  0  0  0  0  0  0  0  0  0  0
  190.6840  176.5500  142.3670 C   0  0  0  0  0  3  0  0  0  0  0  0
  189.6830  177.3700  141.6460 C   0  0  0  0  0  0  0  0  0  0  0  0
  189.0380  178.4650  142.3100 N   0  0  0  0  0  2  0  0  0  0  0  0
  186.6320  178.2250  146.6060 C   0  0  0  0  0  2  0  0  0  0  0  0
  190.0850  177.0190  146.0110 C   0  0  0  0  0  0  0  0  0  0  0  0
  185.4430  178.6540  144.5950 C   0  0  0  0  0  0  0  0  0  0  0  0
  191.2050  176.6330  146.8840 C   0  0  0  0  0  0  0  0  0  0  0  0
  190.3880  177.5410  144.6310 C   0  0  0  0  0  2  0  0  0  0  0  0
  185.5500  178.7250  145.9510 N   0  0  0  0  0  0  0  0  0  0  0  0
  188.8690  177.1530  146.5640 C   0  0  0  0  0  3  0  0  0  0  0  0
  192.0530  174.9380  145.2390 C   0  0  0  0  0  2  0  0  0  0  0  0
  187.7920  179.0760  141.8530 C   0  0  0  0  0  2  0  0  0  0  0  0
  191.0130  176.5630  143.6650 C   0  0  0  0  0  0  0  0  0  0  0  0
  192.2420  175.7840  146.4040 N   0  0  0  0  0  2  0  0  0  0  0  0
  187.6570  177.6220  145.8740 C   0  0  0  0  0  0  0  0  0  0  0  0
  186.4590  178.0210  143.8650 C   0  0  1  0  0  3  0  0  0  0  0  0
  189.3730  177.1220  140.3600 C   0  0  0  0  0  3  0  0  0  0  0  0
  192.0510  175.7060  144.0450 O   0  0  0  0  0  0  0  0  0  0  0  0
  189.8790  176.1070  139.5320 O   0  0  0  0  0  0  0  0  0  0  0  0
  190.9720  176.2410  138.6360 C   0  0  0  0  0  1  0  0  0  0  0  0
  184.3050  179.2070  143.9260 N   0  0  0  0  0  2  0  0  0  0  0  0
  182.9360  178.9110  144.3210 C   0  0  0  0  0  2  0  0  0  0  0  0
  182.0370  178.8820  143.1000 C   0  0  0  0  0  2  0  0  0  0  0  0
  182.8510  178.9360  141.8990 N   0  0  0  0  0  2  0  0  0  0  0  0
  181.2150  178.9550  138.5190 C   0  0  0  0  0  2  0  0  0  0  0  0
  182.0860  178.2970  140.8410 C   0  0  1  0  0  3  0  0  0  0  0  0
  184.0110  177.2680  137.7970 C   0  0  0  0  0  1  0  0  0  0  0  0
  182.2500  180.0030  138.9010 C   0  0  1  0  0  3  0  0  0  0  0  0
  183.9620  178.0060  139.1190 C   0  0  2  0  0  3  0  0  0  0  0  0
  181.3750  179.3630  139.9810 C   0  0  1  0  0  3  0  0  0  0  0  0
  182.9690  177.3200  140.0590 C   0  0  0  0  0  2  0  0  0  0  0  0
  183.7120  179.5040  138.8870 C   0  0  0  0  0  2  0  0  0  0  0  0
  3 18  2  0  0  0  0
  4 16  2  0  0  0  0
  5  6  1  0  0  0  0
  5  4  1  0  0  0  0
  8 13  2  0  0  0  0
  8 10  1  0  0  0  0
  9 12  2  0  0  0  0
 10  2  2  0  0  0  0
 11  8  1  0  0  0  0
 12  7  1  0  0  0  0
 14 17  1  0  0  0  0
 15  1  1  0  0  0  0
 15  6  1  0  0  0  0
 16 21  1  0  0  0  0
 16 11  1  0  0  0  0
 17 10  1  0  0  0  0
 18 13  1  0  0  0  0
 18  7  1  0  0  0  0
 19  1  1  6  0  0  0
 19  3  1  0  0  0  0
 19  9  1  0  0  0  0
 20  5  2  0  0  0  0
 21 14  1  0  0  0  0
 22 20  1  0  0  0  0
 23 22  1  0  0  0  0
 24 25  1  0  0  0  0
 24  9  1  0  0  0  0
 26 25  1  0  0  0  0
 27 26  1  0  0  0  0
 29 27  1  1  0  0  0
 31 28  1  6  0  0  0
 31 33  1  0  0  0  0
 32 30  1  6  0  0  0
 32 34  1  0  0  0  0
 33 28  1  6  0  0  0
 33 29  1  0  0  0  0
 34 29  1  0  0  0  0
 35 31  1  0  0  0  0
 35 32  1  0  0  0  0
M  END
>  <MODEL>
1

>  <REMARK>
 VINA RESULT:      -8.4      0.000      0.000
  Name = 
  6 active torsions:
  status: ('A' for Active; 'I' for Inactive)
    1  A    between atoms: O_1  and  C_33
    2  A    between atoms: C_8  and  N_27
    3  A    between atoms: C_13  and  C_16
    4  A    between atoms: C_13  and  N_31
    5  A    between atoms: C_15  and  N_31
    6  A    between atoms: C_16  and  N_27
                            x       y       z     vdW  Elec       q    Type
                         _______ _______ _______ _____ _____    ______ ____

>  <TORSDO>
F 6

$$$$
=
 OpenBabel10222419183D

 35 39  0  0  1  0  0  0  0  0999 V2000
  186.4150  177.8880  141.9970 S   0  0  0  0  0  0  0  0  0  0  0  0
  191.1360  177.1600  148.1080 O   0  0  0  0  0  0  0  0  0  0  0  0
  187.4840  177.5370  144.4790 N   0  0  0  0  0  0  0  0  0  0  0  0
  190.6970  176.5810  142.4000 C   0  0  0  0  0  3  0  0  0  0  0  0
  189.7040  177.3810  141.6460 C   0  0  0  0  0  0  0  0  0  0  0  0
  189.0340  178.4780  142.2820 N   0  0  0  0  0  2  0  0  0  0  0  0
  186.5350  178.2660  146.5260 C   0  0  0  0  0  2  0  0  0  0  0  0
  190.0120  177.0890  146.0240 C   0  0  0  0  0  0  0  0  0  0  0  0
  185.3870  178.6580  144.4850 C   0  0  0  0  0  0  0  0  0  0  0  0
  191.1170  176.7250  146.9260 C   0  0  0  0  0  0  0  0  0  0  0  0
  190.3410  177.5960  144.6440 C   0  0  0  0  0  2  0  0  0  0  0  0
  185.4630  178.7470  145.8420 N   0  0  0  0  0  0  0  0  0  0  0  0
  188.7830  177.2170  146.5480 C   0  0  0  0  0  3  0  0  0  0  0  0
  192.0170  175.0190  145.3220 C   0  0  0  0  0  2  0  0  0  0  0  0
  187.7920  179.0700  141.7900 C   0  0  0  0  0  2  0  0  0  0  0  0
  190.9970  176.6130  143.7050 C   0  0  0  0  0  0  0  0  0  0  0  0
  192.1730  175.8810  146.4800 N   0  0  0  0  0  2  0  0  0  0  0  0
  187.5820  177.6650  145.8260 C   0  0  0  0  0  0  0  0  0  0  0  0
  186.4250  178.0270  143.7860 C   0  0  1  0  0  3  0  0  0  0  0  0
  189.4250  177.1140  140.3580 C   0  0  0  0  0  3  0  0  0  0  0  0
  192.0340  175.7720  144.1180 O   0  0  0  0  0  0  0  0  0  0  0  0
  189.9600  176.0940  139.5530 O   0  0  0  0  0  0  0  0  0  0  0  0
  191.0120  176.2500  138.6130 C   0  0  0  0  0  1  0  0  0  0  0  0
  184.2580  179.1900  143.7830 N   0  0  0  0  0  2  0  0  0  0  0  0
  182.8840  178.8870  144.1530 C   0  0  0  0  0  2  0  0  0  0  0  0
  181.9830  178.9930  142.9380 C   0  0  0  0  0  2  0  0  0  0  0  0
  182.7400  178.6600  141.7450 N   0  0  0  0  0  2  0  0  0  0  0  0
  182.0980  178.9140  138.0530 C   0  0  0  0  0  2  0  0  0  0  0  0
  181.8660  178.9010  140.6090 C   0  0  1  0  0  3  0  0  0  0  0  0
  180.8200  175.8820  138.6530 C   0  0  0  0  0  1  0  0  0  0  0  0
  183.3380  178.2170  138.5930 C   0  0  1  0  0  3  0  0  0  0  0  0
  181.6880  176.5000  139.7300 C   0  0  2  0  0  3  0  0  0  0  0  0
  182.6930  179.3550  139.3880 C   0  0  1  0  0  3  0  0  0  0  0  0
  180.9620  177.6890  140.3630 C   0  0  0  0  0  2  0  0  0  0  0  0
  183.0880  176.8100  139.1770 C   0  0  0  0  0  2  0  0  0  0  0  0
  3 18  2  0  0  0  0
  4 16  2  0  0  0  0
  5  6  1  0  0  0  0
  5  4  1  0  0  0  0
  8 13  2  0  0  0  0
  8 10  1  0  0  0  0
  9 12  2  0  0  0  0
 10  2  2  0  0  0  0
 11  8  1  0  0  0  0
 12  7  1  0  0  0  0
 14 17  1  0  0  0  0
 15  1  1  0  0  0  0
 15  6  1  0  0  0  0
 16 21  1  0  0  0  0
 16 11  1  0  0  0  0
 17 10  1  0  0  0  0
 18  7  1  0  0  0  0
 18 13  1  0  0  0  0
 19  1  1  6  0  0  0
 19  3  1  0  0  0  0
 19  9  1  0  0  0  0
 20  5  2  0  0  0  0
 21 14  1  0  0  0  0
 22 20  1  0  0  0  0
 23 22  1  0  0  0  0
 24 25  1  0  0  0  0
 24  9  1  0  0  0  0
 26 25  1  0  0  0  0
 27 26  1  0  0  0  0
 29 27  1  1  0  0  0
 31 28  1  6  0  0  0
 31 35  1  0  0  0  0
 31 33  1  0  0  0  0
 32 30  1  6  0  0  0
 32 34  1  0  0  0  0
 33 28  1  6  0  0  0
 33 29  1  0  0  0  0
 34 29  1  0  0  0  0
 35 32  1  0  0  0  0
M  END
>  <MODEL>
2

>  <REMARK>
 VINA RESULT:      -8.3      0.706      1.083
  Name = 
  6 active torsions:
  status: ('A' for Active; 'I' for Inactive)
    1  A    between atoms: O_1  and  C_33
    2  A    between atoms: C_8  and  N_27
    3  A    between atoms: C_13  and  C_16
    4  A    between atoms: C_13  and  N_31
    5  A    between atoms: C_15  and  N_31
    6  A    between atoms: C_16  and  N_27
                            x       y       z     vdW  Elec       q    Type
                         _______ _______ _______ _____ _____    ______ ____

>  <TORSDO>
F 6

$$$$
=
 OpenBabel10222419183D

 35 39  0  0  1  0  0  0  0  0999 V2000
  185.0840  178.2070  141.7690 S   0  0  0  0  0  0  0  0  0  0  0  0
  190.7400  177.4250  147.0170 O   0  0  0  0  0  0  0  0  0  0  0  0
  186.5490  177.7680  144.0240 N   0  0  0  0  0  0  0  0  0  0  0  0
  189.4520  177.2140  141.4130 C   0  0  0  0  0  3  0  0  0  0  0  0
  188.3030  177.9850  140.8860 C   0  0  0  0  0  0  0  0  0  0  0  0
  187.6690  178.9790  141.7020 N   0  0  0  0  0  2  0  0  0  0  0  0
  185.8850  178.2750  146.2440 C   0  0  0  0  0  2  0  0  0  0  0  0
  189.3110  177.4120  145.1280 C   0  0  0  0  0  0  0  0  0  0  0  0
  184.4080  178.7180  144.4370 C   0  0  0  0  0  0  0  0  0  0  0  0
  190.5650  177.0730  145.8210 C   0  0  0  0  0  0  0  0  0  0  0  0
  189.3860  178.0390  143.7610 C   0  0  0  0  0  2  0  0  0  0  0  0
  184.6890  178.7170  145.7710 N   0  0  0  0  0  0  0  0  0  0  0  0
  188.1730  177.4060  145.8410 C   0  0  0  0  0  3  0  0  0  0  0  0
  191.3150  175.5590  143.9660 C   0  0  0  0  0  2  0  0  0  0  0  0
  186.3290  179.5050  141.4530 C   0  0  0  0  0  2  0  0  0  0  0  0
  189.9500  177.1790  142.6560 C   0  0  0  0  0  0  0  0  0  0  0  0
  191.5920  176.3480  145.1530 N   0  0  0  0  0  2  0  0  0  0  0  0
  186.8470  177.8090  145.3470 C   0  0  0  0  0  0  0  0  0  0  0  0
  185.3630  178.2210  143.5410 C   0  0  1  0  0  3  0  0  0  0  0  0
  187.8440  177.7880  139.6370 C   0  0  0  0  0  3  0  0  0  0  0  0
  191.0930  176.3940  142.8390 O   0  0  0  0  0  0  0  0  0  0  0  0
  188.3140  176.8710  138.6810 O   0  0  0  0  0  0  0  0  0  0  0  0
  188.1730  177.0010  137.2740 C   0  0  0  0  0  1  0  0  0  0  0  0
  183.1500  179.2080  143.9600 N   0  0  0  0  0  2  0  0  0  0  0  0
  181.8850  178.5500  144.2490 C   0  0  0  0  0  2  0  0  0  0  0  0
  180.7830  179.1450  143.3940 C   0  0  0  0  0  2  0  0  0  0  0  0
  180.0640  178.0780  142.7200 N   0  0  0  0  0  2  0  0  0  0  0  0
  180.6330  179.4900  139.2870 C   0  0  0  0  0  2  0  0  0  0  0  0
  179.5830  178.6230  141.4620 C   0  0  1  0  0  3  0  0  0  0  0  0
  179.7900  176.3530  138.4880 C   0  0  0  0  0  1  0  0  0  0  0  0
  181.7310  178.7370  140.0220 C   0  0  1  0  0  3  0  0  0  0  0  0
  180.1330  176.6380  139.9370 C   0  0  2  0  0  3  0  0  0  0  0  0
  180.6700  179.5050  140.8120 C   0  0  1  0  0  3  0  0  0  0  0  0
  179.0410  177.5030  140.5670 C   0  0  0  0  0  2  0  0  0  0  0  0
  181.5580  177.2020  140.0480 C   0  0  0  0  0  2  0  0  0  0  0  0
  3 18  2  0  0  0  0
  4 16  2  0  0  0  0
  5  4  1  0  0  0  0
  5  6  1  0  0  0  0
  8 10  1  0  0  0  0
  8 13  2  0  0  0  0
  9 12  2  0  0  0  0
 10  2  2  0  0  0  0
 11  8  1  0  0  0  0
 12  7  1  0  0  0  0
 14 17  1  0  0  0  0
 15  6  1  0  0  0  0
 15  1  1  0  0  0  0
 16 21  1  0  0  0  0
 16 11  1  0  0  0  0
 17 10  1  0  0  0  0
 18 13  1  0  0  0  0
 18  7  1  0  0  0  0
 19  1  1  6  0  0  0
 19  3  1  0  0  0  0
 19  9  1  0  0  0  0
 20  5  2  0  0  0  0
 21 14  1  0  0  0  0
 22 20  1  0  0  0  0
 23 22  1  0  0  0  0
 24 25  1  0  0  0  0
 24  9  1  0  0  0  0
 26 25  1  0  0  0  0
 27 26  1  0  0  0  0
 29 27  1  1  0  0  0
 31 28  1  6  0  0  0
 31 35  1  0  0  0  0
 31 33  1  0  0  0  0
 32 30  1  6  0  0  0
 32 35  1  0  0  0  0
 32 34  1  0  0  0  0
 33 28  1  6  0  0  0
 33 29  1  0  0  0  0
 34 29  1  0  0  0  0
M  END
>  <MODEL>
3

>  <REMARK>
 VINA RESULT:      -7.9      1.649      2.024
  Name = 
  6 active torsions:
  status: ('A' for Active; 'I' for Inactive)
    1  A    between atoms: O_1  and  C_33
    2  A    between atoms: C_8  and  N_27
    3  A    between atoms: C_13  and  C_16
    4  A    between atoms: C_13  and  N_31
    5  A    between atoms: C_15  and  N_31
    6  A    between atoms: C_16  and  N_27
                            x       y       z     vdW  Elec       q    Type
                         _______ _______ _______ _____ _____    ______ ____

>  <TORSDO>
F 6

$$$$
=
 OpenBabel10222419183D

 35 39  0  0  1  0  0  0  0  0999 V2000
  190.4820  176.9490  142.4300 S   0  0  0  0  0  0  0  0  0  0  0  0
  183.5280  179.7880  144.3620 O   0  0  0  0  0  0  0  0  0  0  0  0
  187.8670  177.7120  142.4890 N   0  0  0  0  0  0  0  0  0  0  0  0
  188.4610  177.6270  146.3870 C   0  0  0  0  0  3  0  0  0  0  0  0
  189.7030  177.7360  145.5870 C   0  0  0  0  0  0  0  0  0  0  0  0
  189.7460  178.5940  144.4390 N   0  0  0  0  0  2  0  0  0  0  0  0
  186.5980  178.5000  140.6460 C   0  0  0  0  0  2  0  0  0  0  0  0
  185.6440  178.7350  144.2190 C   0  0  0  0  0  0  0  0  0  0  0  0
  188.8630  177.8550  140.3340 C   0  0  0  0  0  0  0  0  0  0  0  0
  184.4090  179.0920  144.9330 C   0  0  0  0  0  0  0  0  0  0  0  0
  186.9670  178.9560  144.9040 C   0  0  0  0  0  2  0  0  0  0  0  0
  187.6780  178.3140  139.8410 N   0  0  0  0  0  0  0  0  0  0  0  0
  185.5660  178.4880  142.9010 C   0  0  0  0  0  3  0  0  0  0  0  0
  184.9230  177.5420  146.8370 C   0  0  0  0  0  2  0  0  0  0  0  0
  190.7450  178.4870  143.3790 C   0  0  0  0  0  2  0  0  0  0  0  0
  187.2410  178.1140  146.1270 C   0  0  0  0  0  0  0  0  0  0  0  0
  184.1910  178.6610  146.2720 N   0  0  0  0  0  2  0  0  0  0  0  0
  186.7010  178.2120  142.0080 C   0  0  0  0  0  0  0  0  0  0  0  0
  188.9550  177.5370  141.6960 C   0  0  1  0  0  3  0  0  0  0  0  0
  190.8140  177.0570  145.9260 C   0  0  0  0  0  3  0  0  0  0  0  0
  186.2700  177.8990  147.1110 O   0  0  0  0  0  0  0  0  0  0  0  0
  190.9860  176.1680  147.0010 O   0  0  0  0  0  0  0  0  0  0  0  0
  192.2260  175.6350  147.4400 C   0  0  0  0  0  1  0  0  0  0  0  0
  189.9930  177.6870  139.4710 N   0  0  0  0  0  2  0  0  0  0  0  0
  189.8740  177.2370  138.0920 C   0  0  0  0  0  2  0  0  0  0  0  0
  189.8140  175.7230  138.0440 C   0  0  0  0  0  2  0  0  0  0  0  0
  191.1560  175.1810  138.1510 N   0  0  0  0  0  2  0  0  0  0  0  0
  194.3200  175.8660  136.2460 C   0  0  0  0  0  2  0  0  0  0  0  0
  191.8680  175.5750  136.9460 C   0  0  1  0  0  3  0  0  0  0  0  0
  193.5810  172.8270  135.0630 C   0  0  0  0  0  1  0  0  0  0  0  0
  194.3370  175.0760  137.5460 C   0  0  1  0  0  3  0  0  0  0  0  0
  192.8410  173.2940  136.3000 C   0  0  2  0  0  3  0  0  0  0  0  0
  193.2590  176.1370  137.3100 C   0  0  1  0  0  3  0  0  0  0  0  0
  191.8810  174.4260  135.9330 C   0  0  0  0  0  2  0  0  0  0  0  0
  193.8360  173.6210  137.4260 C   0  0  0  0  0  2  0  0  0  0  0  0
  1 15  1  0  0  0  0
  2 10  2  0  0  0  0
  5 20  2  0  0  0  0
  5  4  1  0  0  0  0
  6  5  1  0  0  0  0
  7 18  1  0  0  0  0
  8 11  1  0  0  0  0
  8 10  1  0  0  0  0
 10 17  1  0  0  0  0
 11 16  1  0  0  0  0
 12  9  2  0  0  0  0
 12  7  1  0  0  0  0
 13  8  2  0  0  0  0
 14 21  1  0  0  0  0
 15  6  1  0  0  0  0
 16  4  2  0  0  0  0
 16 21  1  0  0  0  0
 17 14  1  0  0  0  0
 18  3  2  0  0  0  0
 18 13  1  0  0  0  0
 19  9  1  1  0  0  0
 19  1  1  0  0  0  0
 19  3  1  0  0  0  0
 20 22  1  0  0  0  0
 22 23  1  0  0  0  0
 24  9  1  0  0  0  0
 25 24  1  0  0  0  0
 26 25  1  0  0  0  0
 26 27  1  0  0  0  0
 29 33  1  0  0  0  0
 29 27  1  1  0  0  0
 31 28  1  6  0  0  0
 32 30  1  6  0  0  0
 32 35  1  0  0  0  0
 33 28  1  6  0  0  0
 33 31  1  0  0  0  0
 34 32  1  0  0  0  0
 34 29  1  0  0  0  0
 35 31  1  0  0  0  0
M  END
>  <MODEL>
4

>  <REMARK>
 VINA RESULT:      -7.8      3.075      7.987
  Name = 
  6 active torsions:
  status: ('A' for Active; 'I' for Inactive)
    1  A    between atoms: O_1  and  C_33
    2  A    between atoms: C_8  and  N_27
    3  A    between atoms: C_13  and  C_16
    4  A    between atoms: C_13  and  N_31
    5  A    between atoms: C_15  and  N_31
    6  A    between atoms: C_16  and  N_27
                            x       y       z     vdW  Elec       q    Type
                         _______ _______ _______ _____ _____    ______ ____

>  <TORSDO>
F 6

$$$$
=
 OpenBabel10222419183D

 35 39  0  0  1  0  0  0  0  0999 V2000
  187.0720  177.8000  142.3030 S   0  0  0  0  0  0  0  0  0  0  0  0
  188.6370  177.3990  134.7180 O   0  0  0  0  0  0  0  0  0  0  0  0
  188.1690  177.3120  139.8580 N   0  0  0  0  0  0  0  0  0  0  0  0
  184.4610  177.8870  138.6460 C   0  0  0  0  0  3  0  0  0  0  0  0
  184.7580  178.4610  139.9790 C   0  0  0  0  0  0  0  0  0  0  0  0
  186.0050  179.1300  140.2110 N   0  0  0  0  0  2  0  0  0  0  0  0
  190.4860  177.2630  139.3500 C   0  0  0  0  0  2  0  0  0  0  0  0
  187.7110  177.3960  136.8980 C   0  0  0  0  0  0  0  0  0  0  0  0
  189.7720  177.6740  141.5780 C   0  0  0  0  0  0  0  0  0  0  0  0
  187.6180  177.2310  135.4390 C   0  0  0  0  0  0  0  0  0  0  0  0
  186.6880  178.2530  137.5970 C   0  0  0  0  0  2  0  0  0  0  0  0
  190.7640  177.5030  140.6590 N   0  0  0  0  0  0  0  0  0  0  0  0
  188.8440  177.0120  137.5080 C   0  0  0  0  0  3  0  0  0  0  0  0
  185.3040  176.2700  135.5800 C   0  0  0  0  0  2  0  0  0  0  0  0
  186.5620  179.3780  141.5390 C   0  0  0  0  0  2  0  0  0  0  0  0
  185.2660  177.7470  137.5850 C   0  0  0  0  0  0  0  0  0  0  0  0
  186.3830  176.8810  134.8230 N   0  0  0  0  0  2  0  0  0  0  0  0
  189.1560  177.1880  138.9350 C   0  0  0  0  0  0  0  0  0  0  0  0
  188.4370  177.5660  141.1650 C   0  0  1  0  0  3  0  0  0  0  0  0
  183.8680  178.3870  140.9850 C   0  0  0  0  0  3  0  0  0  0  0  0
  184.6770  177.2180  136.4320 O   0  0  0  0  0  0  0  0  0  0  0  0
  182.6010  177.7800  140.9730 O   0  0  0  0  0  0  0  0  0  0  0  0
  181.3590  178.4640  140.8990 C   0  0  0  0  0  1  0  0  0  0  0  0
  190.0890  177.9450  142.9470 N   0  0  0  0  0  2  0  0  0  0  0  0
  190.9500  177.0850  143.7450 C   0  0  0  0  0  2  0  0  0  0  0  0
  190.9040  177.5100  145.2000 C   0  0  0  0  0  2  0  0  0  0  0  0
  189.6320  178.1530  145.4760 N   0  0  0  0  0  2  0  0  0  0  0  0
  187.8800  176.7530  148.4880 C   0  0  0  0  0  2  0  0  0  0  0  0
  188.7890  177.1630  146.1230 C   0  0  1  0  0  3  0  0  0  0  0  0
  185.3050  178.2530  146.9690 C   0  0  0  0  0  1  0  0  0  0  0  0
  188.3950  178.1840  148.4690 C   0  0  1  0  0  3  0  0  0  0  0  0
  186.7000  178.6020  146.4890 C   0  0  2  0  0  3  0  0  0  0  0  0
  189.0950  177.1090  147.6350 C   0  0  1  0  0  3  0  0  0  0  0  0
  187.3170  177.4020  145.7700 C   0  0  0  0  0  2  0  0  0  0  0  0
  187.5370  179.1710  147.6460 C   0  0  0  0  0  2  0  0  0  0  0  0
  2 10  2  0  0  0  0
  4  5  1  0  0  0  0
  5  6  1  0  0  0  0
  5 20  2  0  0  0  0
  6 15  1  0  0  0  0
  7 12  1  0  0  0  0
  8 13  2  0  0  0  0
  8 11  1  0  0  0  0
  9 24  1  0  0  0  0
 10  8  1  0  0  0  0
 12  9  2  0  0  0  0
 13 18  1  0  0  0  0
 14 21  1  0  0  0  0
 15  1  1  0  0  0  0
 16 11  1  0  0  0  0
 16  4  2  0  0  0  0
 17 10  1  0  0  0  0
 17 14  1  0  0  0  0
 18  7  1  0  0  0  0
 18  3  2  0  0  0  0
 19  3  1  6  0  0  0
 19  9  1  0  0  0  0
 19  1  1  0  0  0  0
 21 16  1  0  0  0  0
 22 20  1  0  0  0  0
 23 22  1  0  0  0  0
 24 25  1  0  0  0  0
 25 26  1  0  0  0  0
 26 27  1  0  0  0  0
 29 27  1  1  0  0  0
 29 33  1  0  0  0  0
 31 35  1  6  0  0  0
 31 28  1  0  0  0  0
 32 30  1  1  0  0  0
 32 35  1  0  0  0  0
 33 31  1  0  0  0  0
 33 28  1  1  0  0  0
 34 29  1  0  0  0  0
 34 32  1  0  0  0  0
M  END
>  <MODEL>
5

>  <REMARK>
 VINA RESULT:      -7.7      3.358      8.633
  Name = 
  6 active torsions:
  status: ('A' for Active; 'I' for Inactive)
    1  A    between atoms: O_1  and  C_33
    2  A    between atoms: C_8  and  N_27
    3  A    between atoms: C_13  and  C_16
    4  A    between atoms: C_13  and  N_31
    5  A    between atoms: C_15  and  N_31
    6  A    between atoms: C_16  and  N_27
                            x       y       z     vdW  Elec       q    Type
                         _______ _______ _______ _____ _____    ______ ____

>  <TORSDO>
F 6

$$$$
=
 OpenBabel10222419183D

 35 39  0  0  1  0  0  0  0  0999 V2000
  190.5870  176.9720  142.6000 S   0  0  0  0  0  0  0  0  0  0  0  0
  183.5610  179.7550  144.3430 O   0  0  0  0  0  0  0  0  0  0  0  0
  187.9660  177.7150  142.5880 N   0  0  0  0  0  0  0  0  0  0  0  0
  188.4520  177.6260  146.5000 C   0  0  0  0  0  3  0  0  0  0  0  0
  189.7150  177.7460  145.7360 C   0  0  0  0  0  0  0  0  0  0  0  0
  189.7830  178.6070  144.5910 N   0  0  0  0  0  2  0  0  0  0  0  0
  186.7430  178.4970  140.7120 C   0  0  0  0  0  2  0  0  0  0  0  0
  185.6890  178.7170  144.2570 C   0  0  0  0  0  0  0  0  0  0  0  0
  189.0200  177.8700  140.4610 C   0  0  0  0  0  0  0  0  0  0  0  0
  184.4310  179.0640  144.9370 C   0  0  0  0  0  0  0  0  0  0  0  0
  186.9900  178.9470  144.9790 C   0  0  0  0  0  2  0  0  0  0  0  0
  187.8460  178.3210  139.9370 N   0  0  0  0  0  0  0  0  0  0  0  0
  185.6480  178.4730  142.9370 C   0  0  0  0  0  3  0  0  0  0  0  0
  184.9040  177.5130  146.8520 C   0  0  0  0  0  2  0  0  0  0  0  0
  190.8120  178.5090  143.5590 C   0  0  0  0  0  2  0  0  0  0  0  0
  187.2360  178.1040  146.2070 C   0  0  0  0  0  0  0  0  0  0  0  0
  184.1790  178.6280  146.2690 N   0  0  0  0  0  2  0  0  0  0  0  0
  186.8100  178.2070  142.0750 C   0  0  0  0  0  0  0  0  0  0  0  0
  189.0770  177.5500  141.8240 C   0  0  1  0  0  3  0  0  0  0  0  0
  190.8210  177.0740  146.1040 C   0  0  0  0  0  3  0  0  0  0  0  0
  186.2400  177.8800  147.1640 O   0  0  0  0  0  0  0  0  0  0  0  0
  190.9700  176.1840  147.1810 O   0  0  0  0  0  0  0  0  0  0  0  0
  192.1970  175.6280  147.6290 C   0  0  0  0  0  1  0  0  0  0  0  0
  190.1750  177.7120  139.6300 N   0  0  0  0  0  2  0  0  0  0  0  0
  190.4770  176.4760  138.9230 C   0  0  0  0  0  2  0  0  0  0  0  0
  190.5640  176.7390  137.4320 C   0  0  0  0  0  2  0  0  0  0  0  0
  189.5370  177.6910  137.0480 N   0  0  0  0  0  2  0  0  0  0  0  0
  187.7720  175.0720  135.0160 C   0  0  0  0  0  2  0  0  0  0  0  0
  188.9550  177.2070  135.8070 C   0  0  1  0  0  3  0  0  0  0  0  0
  185.2130  177.1280  135.6540 C   0  0  0  0  0  1  0  0  0  0  0  0
  187.7770  175.0200  136.5360 C   0  0  1  0  0  3  0  0  0  0  0  0
  186.4800  177.3170  136.4630 C   0  0  2  0  0  3  0  0  0  0  0  0
  188.9470  175.6640  135.7890 C   0  0  1  0  0  3  0  0  0  0  0  0
  187.5920  177.8620  135.5650 C   0  0  0  0  0  2  0  0  0  0  0  0
  186.8280  176.0270  137.2220 C   0  0  0  0  0  2  0  0  0  0  0  0
  1 15  1  0  0  0  0
  2 10  2  0  0  0  0
  5 20  2  0  0  0  0
  5  4  1  0  0  0  0
  6  5  1  0  0  0  0
  7 18  1  0  0  0  0
  8 10  1  0  0  0  0
  8 11  1  0  0  0  0
 10 17  1  0  0  0  0
 11 16  1  0  0  0  0
 12  9  2  0  0  0  0
 12  7  1  0  0  0  0
 13  8  2  0  0  0  0
 14 21  1  0  0  0  0
 15  6  1  0  0  0  0
 16  4  2  0  0  0  0
 16 21  1  0  0  0  0
 17 14  1  0  0  0  0
 18  3  2  0  0  0  0
 18 13  1  0  0  0  0
 19  9  1  1  0  0  0
 19  3  1  0  0  0  0
 19  1  1  0  0  0  0
 20 22  1  0  0  0  0
 22 23  1  0  0  0  0
 24  9  1  0  0  0  0
 25 24  1  0  0  0  0
 26 25  1  0  0  0  0
 27 26  1  0  0  0  0
 29 27  1  1  0  0  0
 31 28  1  6  0  0  0
 31 35  1  0  0  0  0
 32 30  1  6  0  0  0
 32 35  1  0  0  0  0
 33 28  1  6  0  0  0
 33 29  1  0  0  0  0
 33 31  1  0  0  0  0
 34 29  1  0  0  0  0
 34 32  1  0  0  0  0
M  END
>  <MODEL>
6

>  <REMARK>
 VINA RESULT:      -7.7      3.035      6.554
  Name = 
  6 active torsions:
  status: ('A' for Active; 'I' for Inactive)
    1  A    between atoms: O_1  and  C_33
    2  A    between atoms: C_8  and  N_27
    3  A    between atoms: C_13  and  C_16
    4  A    between atoms: C_13  and  N_31
    5  A    between atoms: C_15  and  N_31
    6  A    between atoms: C_16  and  N_27
                            x       y       z     vdW  Elec       q    Type
                         _______ _______ _______ _____ _____    ______ ____

>  <TORSDO>
F 6

$$$$
=
 OpenBabel10222419183D

 35 39  0  0  1  0  0  0  0  0999 V2000
  186.2590  179.1660  141.7290 S   0  0  0  0  0  0  0  0  0  0  0  0
  192.4230  175.0270  143.9680 O   0  0  0  0  0  0  0  0  0  0  0  0
  188.6970  177.9700  141.9430 N   0  0  0  0  0  0  0  0  0  0  0  0
  187.7090  177.8000  145.7570 C   0  0  0  0  0  3  0  0  0  0  0  0
  186.5590  177.9760  144.8410 C   0  0  0  0  0  0  0  0  0  0  0  0
  186.5030  177.2450  143.6090 N   0  0  0  0  0  2  0  0  0  0  0  0
  190.0140  177.1480  140.1490 C   0  0  0  0  0  2  0  0  0  0  0  0
  190.5290  176.4330  143.7480 C   0  0  0  0  0  0  0  0  0  0  0  0
  187.9280  178.1930  139.7030 C   0  0  0  0  0  0  0  0  0  0  0  0
  191.6080  175.8080  144.5290 C   0  0  0  0  0  0  0  0  0  0  0  0
  189.1220  176.3770  144.2830 C   0  0  0  0  0  2  0  0  0  0  0  0
  189.0700  177.5870  139.2740 N   0  0  0  0  0  0  0  0  0  0  0  0
  190.7870  176.7810  142.4770 C   0  0  0  0  0  3  0  0  0  0  0  0
  191.1460  177.2440  146.5330 C   0  0  0  0  0  2  0  0  0  0  0  0
  185.6530  177.6160  142.4800 C   0  0  0  0  0  2  0  0  0  0  0  0
  188.8570  177.1400  145.5580 C   0  0  0  0  0  0  0  0  0  0  0  0
  191.7480  176.0730  145.9210 N   0  0  0  0  0  2  0  0  0  0  0  0
  189.8130  177.3250  141.5190 C   0  0  0  0  0  0  0  0  0  0  0  0
  187.7420  178.3970  141.0770 C   0  0  1  0  0  3  0  0  0  0  0  0
  185.5410  178.8000  145.1490 C   0  0  0  0  0  3  0  0  0  0  0  0
  189.7380  177.0970  146.6440 O   0  0  0  0  0  0  0  0  0  0  0  0
  185.3990  179.6050  146.2920 O   0  0  0  0  0  0  0  0  0  0  0  0
  185.9960  179.3560  147.5560 C   0  0  0  0  0  1  0  0  0  0  0  0
  186.9380  178.6280  138.7640 N   0  0  0  0  0  2  0  0  0  0  0  0
  186.7450  177.9930  137.4690 C   0  0  0  0  0  2  0  0  0  0  0  0
  185.3470  177.4150  137.3770 C   0  0  0  0  0  2  0  0  0  0  0  0
  184.5970  177.7720  138.5680 N   0  0  0  0  0  2  0  0  0  0  0  0
  181.1710  176.9720  139.8820 C   0  0  0  0  0  2  0  0  0  0  0  0
  183.2810  177.1690  138.4360 C   0  0  1  0  0  3  0  0  0  0  0  0
  180.4290  179.5280  137.8570 C   0  0  0  0  0  1  0  0  0  0  0  0
  182.0270  178.0570  140.5180 C   0  0  1  0  0  3  0  0  0  0  0  0
  181.8890  179.3080  138.1980 C   0  0  2  0  0  3  0  0  0  0  0  0
  182.6920  176.8640  139.8290 C   0  0  1  0  0  3  0  0  0  0  0  0
  182.3890  178.0250  137.5310 C   0  0  0  0  0  2  0  0  0  0  0  0
  182.0990  179.3760  139.7200 C   0  0  0  0  0  2  0  0  0  0  0  0
  1 15  1  0  0  0  0
  2 10  2  0  0  0  0
  5 20  2  0  0  0  0
  5  4  1  0  0  0  0
  6  5  1  0  0  0  0
  7 18  1  0  0  0  0
  8 11  1  0  0  0  0
  8 10  1  0  0  0  0
 10 17  1  0  0  0  0
 11 16  1  0  0  0  0
 12  9  2  0  0  0  0
 12  7  1  0  0  0  0
 13  8  2  0  0  0  0
 14 21  1  0  0  0  0
 15  6  1  0  0  0  0
 16  4  2  0  0  0  0
 16 21  1  0  0  0  0
 17 14  1  0  0  0  0
 18  3  2  0  0  0  0
 18 13  1  0  0  0  0
 19  9  1  1  0  0  0
 19  1  1  0  0  0  0
 19  3  1  0  0  0  0
 20 22  1  0  0  0  0
 22 23  1  0  0  0  0
 24  9  1  0  0  0  0
 25 24  1  0  0  0  0
 26 25  1  0  0  0  0
 26 27  1  0  0  0  0
 28 31  1  0  0  0  0
 29 27  1  1  0  0  0
 29 33  1  0  0  0  0
 31 35  1  6  0  0  0
 32 30  1  1  0  0  0
 32 35  1  0  0  0  0
 33 28  1  6  0  0  0
 33 31  1  0  0  0  0
 34 32  1  0  0  0  0
 34 29  1  0  0  0  0
M  END
>  <MODEL>
7

>  <REMARK>
 VINA RESULT:      -7.5      1.966      4.745
  Name = 
  6 active torsions:
  status: ('A' for Active; 'I' for Inactive)
    1  A    between atoms: O_1  and  C_33
    2  A    between atoms: C_8  and  N_27
    3  A    between atoms: C_13  and  C_16
    4  A    between atoms: C_13  and  N_31
    5  A    between atoms: C_15  and  N_31
    6  A    between atoms: C_16  and  N_27
                            x       y       z     vdW  Elec       q    Type
                         _______ _______ _______ _____ _____    ______ ____

>  <TORSDO>
F 6

$$$$
=
 OpenBabel10222419183D

 35 39  0  0  1  0  0  0  0  0999 V2000
  192.3430  177.1050  139.4070 S   0  0  0  0  0  0  0  0  0  0  0  0
  184.8720  177.4070  137.3470 O   0  0  0  0  0  0  0  0  0  0  0  0
  189.6820  177.6540  139.2040 N   0  0  0  0  0  0  0  0  0  0  0  0
  190.2310  176.4150  135.5000 C   0  0  0  0  0  3  0  0  0  0  0  0
  191.2720  175.9610  136.4510 C   0  0  0  0  0  0  0  0  0  0  0  0
  190.9020  175.5200  137.7640 N   0  0  0  0  0  2  0  0  0  0  0  0
  188.1980  178.0640  141.0080 C   0  0  0  0  0  2  0  0  0  0  0  0
  187.2350  177.3570  137.5000 C   0  0  0  0  0  0  0  0  0  0  0  0
  190.4950  177.6450  141.4390 C   0  0  0  0  0  0  0  0  0  0  0  0
  185.9770  177.4360  136.7420 C   0  0  0  0  0  0  0  0  0  0  0  0
  188.2880  176.3760  137.0560 C   0  0  0  0  0  2  0  0  0  0  0  0
  189.2370  177.9360  141.8740 N   0  0  0  0  0  0  0  0  0  0  0  0
  187.2890  177.9530  138.7030 C   0  0  0  0  0  3  0  0  0  0  0  0
  187.1640  178.0040  134.6060 C   0  0  0  0  0  2  0  0  0  0  0  0
  191.8340  175.4310  138.8860 C   0  0  0  0  0  2  0  0  0  0  0  0
  188.9270  176.6370  135.7130 C   0  0  0  0  0  0  0  0  0  0  0  0
  185.9870  177.5460  135.3230 N   0  0  0  0  0  2  0  0  0  0  0  0
  188.4210  177.8980  139.6400 C   0  0  0  0  0  0  0  0  0  0  0  0
  190.7240  177.5100  140.0630 C   0  0  1  0  0  3  0  0  0  0  0  0
  192.5700  175.9320  136.1030 C   0  0  0  0  0  3  0  0  0  0  0  0
  188.1750  177.0060  134.5940 O   0  0  0  0  0  0  0  0  0  0  0  0
  193.1440  176.3180  134.8790 O   0  0  0  0  0  0  0  0  0  0  0  0
  194.5330  176.4720  134.6310 C   0  0  0  0  0  1  0  0  0  0  0  0
  191.5710  177.4940  142.3720 N   0  0  0  0  0  2  0  0  0  0  0  0
  191.4080  176.8560  143.6690 C   0  0  0  0  0  2  0  0  0  0  0  0
  191.5110  177.8910  144.7730 C   0  0  0  0  0  2  0  0  0  0  0  0
  190.1800  178.3480  145.1320 N   0  0  0  0  0  2  0  0  0  0  0  0
  188.4340  176.4730  147.8780 C   0  0  0  0  0  2  0  0  0  0  0  0
  189.4580  177.1930  145.6380 C   0  0  1  0  0  3  0  0  0  0  0  0
  185.7860  177.6600  146.2160 C   0  0  0  0  0  1  0  0  0  0  0  0
  188.7100  177.9650  147.9920 C   0  0  1  0  0  3  0  0  0  0  0  0
  187.1400  178.2570  145.8910 C   0  0  2  0  0  3  0  0  0  0  0  0
  189.6420  177.0760  147.1650 C   0  0  1  0  0  3  0  0  0  0  0  0
  188.0010  177.2240  145.1630 C   0  0  0  0  0  2  0  0  0  0  0  0
  187.7740  178.8620  147.1540 C   0  0  0  0  0  2  0  0  0  0  0  0
  1 19  1  0  0  0  0
  3 18  2  0  0  0  0
  4 16  2  0  0  0  0
  4  5  1  0  0  0  0
  5  6  1  0  0  0  0
  6 15  1  0  0  0  0
  7 12  1  0  0  0  0
  8 13  2  0  0  0  0
  9 12  2  0  0  0  0
  9 24  1  0  0  0  0
 10  2  2  0  0  0  0
 10  8  1  0  0  0  0
 11  8  1  0  0  0  0
 13 18  1  0  0  0  0
 14 17  1  0  0  0  0
 15  1  1  0  0  0  0
 16 11  1  0  0  0  0
 17 10  1  0  0  0  0
 18  7  1  0  0  0  0
 19  3  1  1  0  0  0
 19  9  1  0  0  0  0
 20  5  2  0  0  0  0
 21 14  1  0  0  0  0
 21 16  1  0  0  0  0
 22 20  1  0  0  0  0
 23 22  1  0  0  0  0
 24 25  1  0  0  0  0
 25 26  1  0  0  0  0
 26 27  1  0  0  0  0
 28 31  1  0  0  0  0
 29 27  1  1  0  0  0
 29 33  1  0  0  0  0
 31 35  1  6  0  0  0
 32 30  1  1  0  0  0
 32 35  1  0  0  0  0
 33 28  1  1  0  0  0
 33 31  1  0  0  0  0
 34 29  1  0  0  0  0
 34 32  1  0  0  0  0
M  END
>  <MODEL>
8

>  <REMARK>
 VINA RESULT:      -7.2      4.363      8.466
  Name = 
  6 active torsions:
  status: ('A' for Active; 'I' for Inactive)
    1  A    between atoms: O_1  and  C_33
    2  A    between atoms: C_8  and  N_27
    3  A    between atoms: C_13  and  C_16
    4  A    between atoms: C_13  and  N_31
    5  A    between atoms: C_15  and  N_31
    6  A    between atoms: C_16  and  N_27
                            x       y       z     vdW  Elec       q    Type
                         _______ _______ _______ _____ _____    ______ ____

>  <TORSDO>
F 6

$$$$
=
 OpenBabel10222419183D

 35 39  0  0  1  0  0  0  0  0999 V2000
  188.0130  178.6260  141.1870 S   0  0  0  0  0  0  0  0  0  0  0  0
  191.5850  176.4040  147.7030 O   0  0  0  0  0  0  0  0  0  0  0  0
  189.8240  178.0700  143.1450 N   0  0  0  0  0  0  0  0  0  0  0  0
  186.6240  178.2490  145.4440 C   0  0  0  0  0  3  0  0  0  0  0  0
  186.3290  178.0160  144.0120 C   0  0  0  0  0  0  0  0  0  0  0  0
  187.1420  177.1160  143.2480 N   0  0  0  0  0  2  0  0  0  0  0  0
  192.0490  177.3160  142.8200 C   0  0  0  0  0  2  0  0  0  0  0  0
  190.1750  177.2850  146.0150 C   0  0  0  0  0  0  0  0  0  0  0  0
  190.6680  177.7730  140.9420 C   0  0  0  0  0  0  0  0  0  0  0  0
  190.5410  177.0500  147.4210 C   0  0  0  0  0  0  0  0  0  0  0  0
  188.7660  176.9870  145.5740 C   0  0  0  0  0  2  0  0  0  0  0  0
  191.8620  177.3890  141.4750 N   0  0  0  0  0  0  0  0  0  0  0  0
  191.1630  177.4890  145.1300 C   0  0  0  0  0  3  0  0  0  0  0  0
  188.7780  178.6240  148.2640 C   0  0  0  0  0  2  0  0  0  0  0  0
  187.1960  177.1080  141.7870 C   0  0  0  0  0  2  0  0  0  0  0  0
  187.6790  177.8500  146.1680 C   0  0  0  0  0  0  0  0  0  0  0  0
  189.7260  177.5450  148.4780 N   0  0  0  0  0  2  0  0  0  0  0  0
  190.9970  177.6440  143.6760 C   0  0  0  0  0  0  0  0  0  0  0  0
  189.6230  178.1320  141.8040 C   0  0  1  0  0  3  0  0  0  0  0  0
  185.2900  178.6200  143.4060 C   0  0  0  0  0  3  0  0  0  0  0  0
  187.6500  178.1740  147.5280 O   0  0  0  0  0  0  0  0  0  0  0  0
  184.3780  179.5310  143.9650 O   0  0  0  0  0  0  0  0  0  0  0  0
  183.2190  179.1880  144.7090 C   0  0  0  0  0  1  0  0  0  0  0  0
  190.4880  177.8220  139.5220 N   0  0  0  0  0  2  0  0  0  0  0  0
  190.3050  176.6300  138.7070 C   0  0  0  0  0  2  0  0  0  0  0  0
  190.4740  176.9740  137.2400 C   0  0  0  0  0  2  0  0  0  0  0  0
  189.3540  176.4390  136.4860 N   0  0  0  0  0  2  0  0  0  0  0  0
  185.9530  177.8810  137.1640 C   0  0  0  0  0  2  0  0  0  0  0  0
  188.1710  176.6000  137.3150 C   0  0  1  0  0  3  0  0  0  0  0  0
  185.0880  174.8080  136.1670 C   0  0  0  0  0  1  0  0  0  0  0  0
  186.5500  177.8900  135.7640 C   0  0  1  0  0  3  0  0  0  0  0  0
  186.5110  175.2540  135.9000 C   0  0  2  0  0  3  0  0  0  0  0  0
  187.4680  177.9340  136.9870 C   0  0  1  0  0  3  0  0  0  0  0  0
  187.2780  175.3580  137.2190 C   0  0  0  0  0  2  0  0  0  0  0  0
  186.5200  176.5270  135.0380 C   0  0  0  0  0  2  0  0  0  0  0  0
  1 15  1  0  0  0  0
  1 19  1  0  0  0  0
  3 18  2  0  0  0  0
  4 16  2  0  0  0  0
  5  4  1  0  0  0  0
  6  5  1  0  0  0  0
  7 18  1  0  0  0  0
  8 10  1  0  0  0  0
  9 12  2  0  0  0  0
 10  2  2  0  0  0  0
 10 17  1  0  0  0  0
 11  8  1  0  0  0  0
 11 16  1  0  0  0  0
 12  7  1  0  0  0  0
 13  8  2  0  0  0  0
 14 17  1  0  0  0  0
 15  6  1  0  0  0  0
 16 21  1  0  0  0  0
 18 13  1  0  0  0  0
 19  9  1  6  0  0  0
 19  3  1  0  0  0  0
 20 22  1  0  0  0  0
 20  5  2  0  0  0  0
 21 14  1  0  0  0  0
 22 23  1  0  0  0  0
 24  9  1  0  0  0  0
 25 24  1  0  0  0  0
 26 25  1  0  0  0  0
 27 26  1  0  0  0  0
 29 27  1  6  0  0  0
 31 35  1  1  0  0  0
 31 33  1  0  0  0  0
 31 28  1  0  0  0  0
 32 30  1  1  0  0  0
 32 34  1  0  0  0  0
 33 28  1  1  0  0  0
 33 29  1  0  0  0  0
 34 29  1  0  0  0  0
 35 32  1  0  0  0  0
M  END
>  <MODEL>
9

>  <REMARK>
 VINA RESULT:      -7.2      2.954      5.734
  Name = 
  6 active torsions:
  status: ('A' for Active; 'I' for Inactive)
    1  A    between atoms: O_1  and  C_33
    2  A    between atoms: C_8  and  N_27
    3  A    between atoms: C_13  and  C_16
    4  A    between atoms: C_13  and  N_31
    5  A    between atoms: C_15  and  N_31
    6  A    between atoms: C_16  and  N_27
                            x       y       z     vdW  Elec       q    Type
                         _______ _______ _______ _____ _____    ______ ____

>  <TORSDO>
F 6

$$$$
