=
 OpenBabel10222418463D

 61 65  0  0  1  0  0  0  0  0999 V2000
  191.0230  176.6520  139.6340 N   0  0  0  0  0  0  0  0  0  0  0  0
  190.3420  176.2650  138.6000 C   0  0  0  0  0  0  0  0  0  0  0  0
  188.9140  178.2310  137.4260 C   0  0  2  0  0  3  0  0  0  0  0  0
  186.7940  176.6390  137.5320 C   0  0  2  0  0  3  0  0  0  0  0  0
  187.2220  178.3170  136.8540 S   0  0  0  0  0  0  0  0  0  0  0  0
  187.9420  176.0100  138.0640 O   0  0  0  0  0  0  0  0  0  0  0  0
  188.9980  176.9700  138.2670 C   0  0  1  0  0  3  0  0  0  0  0  0
  189.1000  179.2440  138.3010 O   0  0  0  0  0  1  0  0  0  0  0  0
  185.8740  175.7950  136.6240 C   0  0  0  0  0  2  0  0  0  0  0  0
  185.6140  174.4330  137.2900 C   0  0  2  0  0  3  0  0  0  0  0  0
  183.9670  172.8620  136.5080 N   0  0  0  0  0  0  0  0  0  0  0  0
  186.1970  173.3390  136.4010 C   0  0  0  0  0  2  0  0  0  0  0  0
  185.2280  172.6070  135.8650 C   0  0  0  0  0  2  0  0  0  0  0  0
  184.1350  174.0530  137.3360 C   0  0  0  0  0  2  0  0  0  0  0  0
  183.0210  171.7520  136.6210 C   0  0  0  0  0  0  0  0  0  0  0  0
  183.4890  170.6050  136.5960 O   0  0  0  0  0  0  0  0  0  0  0  0
  181.0480  170.7410  135.7310 O   0  0  0  0  0  1  0  0  0  0  0  0
  181.6330  171.9430  136.1370 C   0  0  1  0  0  3  0  0  0  0  0  0
  180.8850  172.5250  137.3100 C   0  0  0  0  0  2  0  0  0  0  0  0
  179.7010  173.5130  137.1210 C   0  0  2  0  0  3  0  0  0  0  0  0
  180.0470  174.3700  135.9800 N   0  0  0  0  0  1  0  0  0  0  0  0
  179.2950  174.4050  138.3650 C   0  0  0  0  0  2  0  0  0  0  0  0
  179.3450  173.6520  139.5740 O   0  0  0  0  0  1  0  0  0  0  0  0
  191.0160  175.7480  135.8080 S   0  0  0  0  0  0  0  0  0  0  0  0
  193.3870  176.0250  136.3480 C   0  0  0  0  0  0  0  0  0  0  0  0
  192.7130  176.1290  137.5860 C   0  0  0  0  0  3  0  0  0  0  0  0
  192.5750  175.7930  135.2930 C   0  0  0  0  0  3  0  0  0  0  0  0
  191.3120  176.0310  137.5010 C   0  0  0  0  0  0  0  0  0  0  0  0
  194.8250  176.0590  136.1620 C   0  0  0  0  0  2  0  0  0  0  0  0
  195.5610  175.4640  137.2090 O   0  0  0  0  0  0  0  0  0  0  0  0
  195.7950  174.1400  136.8160 C   0  0  0  0  0  2  0  0  0  0  0  0
  197.0300  172.4870  135.6490 O   0  0  0  0  0  0  0  0  0  0  0  0
  196.6090  173.7940  135.6520 C   0  0  2  0  0  3  0  0  0  0  0  0
  198.0000  173.4310  136.1110 C   0  0  0  0  0  2  0  0  0  0  0  0
  190.7070  177.4530  140.6830 O   0  0  0  0  0  0  0  0  0  0  0  0
  190.0700  176.7340  141.7590 C   0  0  0  0  0  2  0  0  0  0  0  0
  190.2620  178.6790  142.9200 O   0  0  0  0  0  1  0  0  0  0  0  0
  190.2470  177.3090  143.1500 C   0  0  1  0  0  3  0  0  0  0  0  0
  189.1980  176.8750  144.1050 C   0  0  0  0  0  0  0  0  0  0  0  0
  189.4130  176.9580  145.5180 C   0  0  0  0  0  3  0  0  0  0  0  0
  190.8090  177.3120  146.3630 C   0  0  1  0  0  3  0  0  0  0  0  0
  190.6860  177.3440  147.7860 O   0  0  0  0  0  1  0  0  0  0  0  0
  191.9830  176.4300  146.0460 N   0  0  0  0  0  1  0  0  0  0  0  0
  187.9180  176.3920  143.3310 C   0  0  0  0  0  2  0  0  0  0  0  0
  184.6590  178.9580  143.6700 C   0  0  0  0  0  0  0  0  0  0  0  0
  186.2750  177.5190  144.7800 C   0  0  0  0  0  3  0  0  0  0  0  0
  185.3750  178.9310  142.4750 C   0  0  0  0  0  3  0  0  0  0  0  0
  185.1080  178.3260  144.8040 C   0  0  0  0  0  3  0  0  0  0  0  0
  186.8630  177.4080  143.5350 C   0  0  0  0  0  0  0  0  0  0  0  0
  186.5130  178.1260  142.5100 N   0  0  0  0  0  0  0  0  0  0  0  0
  182.2290  179.3890  143.1460 C   0  0  0  0  0  0  0  0  0  0  0  0
  183.4670  179.8240  143.7380 N   0  0  0  0  0  2  0  0  0  0  0  0
  181.1210  179.9930  143.4310 O   0  0  0  0  0  0  0  0  0  0  0  0
  182.1400  178.4070  142.1390 O   0  0  0  0  0  0  0  0  0  0  0  0
  182.8050  179.1440  140.0670 O   0  0  0  0  0  1  0  0  0  0  0  0
  181.7140  178.6910  140.8240 C   0  0  1  0  0  3  0  0  0  0  0  0
  181.1430  177.4590  140.2270 C   0  0  0  0  0  0  0  0  0  0  0  0
  179.9920  177.1140  140.5840 O   0  0  0  0  0  0  0  0  0  0  0  0
  181.9450  176.6210  139.2190 C   0  0  0  0  0  3  0  0  0  0  0  0
  182.9700  175.7970  139.7890 F   0  0  0  0  0  0  0  0  0  0  0  0
  181.8910  176.9770  137.8360 F   0  0  0  0  0  0  0  0  0  0  0  0
  1 35  1  0  0  0  0
  2  1  2  0  0  0  0
  3  7  1  0  0  0  0
  3  8  1  1  0  0  0
  4  9  1  6  0  0  0
  4  6  1  0  0  0  0
  5  3  1  0  0  0  0
  5  4  1  0  0  0  0
  6  7  1  0  0  0  0
  7  2  1  6  0  0  0
 10  9  1  6  0  0  0
 10 14  1  0  0  0  0
 11 15  1  0  0  0  0
 11 14  1  0  0  0  0
 12 10  1  0  0  0  0
 13 12  1  0  0  0  0
 13 11  1  0  0  0  0
 16 15  2  0  0  0  0
 18 17  1  1  0  0  0
 18 15  1  0  0  0  0
 18 19  1  0  0  0  0
 20 21  1  6  0  0  0
 20 19  1  0  0  0  0
 20 22  1  0  0  0  0
 22 23  1  0  0  0  0
 24 28  1  0  0  0  0
 25 26  1  0  0  0  0
 27 24  1  0  0  0  0
 27 25  2  0  0  0  0
 28 26  2  0  0  0  0
 28  2  1  0  0  0  0
 29 25  1  0  0  0  0
 29 30  1  0  0  0  0
 31 30  1  0  0  0  0
 32 33  1  0  0  0  0
 32 34  1  0  0  0  0
 33 34  1  0  0  0  0
 33 31  1  1  0  0  0
 35 36  1  0  0  0  0
 36 38  1  0  0  0  0
 38 37  1  6  0  0  0
 38 39  1  0  0  0  0
 39 40  2  0  0  0  0
 40 41  1  0  0  0  0
 41 43  1  1  0  0  0
 41 42  1  0  0  0  0
 44 49  1  0  0  0  0
 44 39  1  0  0  0  0
 45 52  1  0  0  0  0
 45 48  1  0  0  0  0
 46 48  2  0  0  0  0
 47 50  1  0  0  0  0
 47 45  2  0  0  0  0
 49 46  1  0  0  0  0
 50 49  2  0  0  0  0
 51 53  2  0  0  0  0
 51 52  1  0  0  0  0
 54 51  1  0  0  0  0
 56 55  1  6  0  0  0
 56 54  1  0  0  0  0
 57 58  2  0  0  0  0
 57 56  1  0  0  0  0
 59 60  1  0  0  0  0
 59 57  1  0  0  0  0
 61 59  1  0  0  0  0
M  END
>  <MODEL>
1

>  <REMARK>
 VINA RESULT:      -6.8      0.000      0.000
  Name = 
  24 active torsions:
  status: ('A' for Active; 'I' for Inactive)
    1  A    between atoms: C_2  and  O_55
    2  A    between atoms: C_3  and  C_47
    3  A    between atoms: CA_4  and  C_11
    4  A    between atoms: CA_4  and  C_25
    5  A    between atoms: C_7  and  C_9
    6  A    between atoms: C_7  and  C_24
    7  A    between atoms: C_8  and  C_47
    8  A    between atoms: C_10  and  C_30
    9  A    between atoms: C_10  and  C_50
   10  A    between atoms: C_14  and  N_37
   11  A    between atoms: C_15  and  C_16
   12  A    between atoms: N_22  and  O_60
   13  A    between atoms: C_24  and  O_55
   14  A    between atoms: C_25  and  C_56
   15  A    between atoms: C_30  and  C_58
   16  A    between atoms: C_32  and  O_38
   17  A    between atoms: C_32  and  C_44
   18  A    between atoms: C_33  and  C_34
   19  A    between atoms: C_33  and  O_38
   20  A    between atoms: C_42  and  C_45
   21  A    between atoms: C_45  and  C_61
   22  A    between atoms: C_50  and  C_53
   23  A    between atoms: C_51  and  C_56
   24  A    between atoms: C_58  and  O_60
                            x       y       z     vdW  Elec       q    Type
                         _______ _______ _______ _____ _____    ______ ____

>  <TORSDO>
F 24

$$$$
=
 OpenBabel10222418463D

 61 65  0  0  1  0  0  0  0  0999 V2000
  187.2020  178.5240  137.3820 N   0  0  0  0  0  0  0  0  0  0  0  0
  185.9420  178.2370  137.2600 C   0  0  0  0  0  0  0  0  0  0  0  0
  185.4060  176.8670  134.9980 C   0  0  2  0  0  3  0  0  0  0  0  0
  185.8820  174.6290  136.3410 C   0  0  2  0  0  3  0  0  0  0  0  0
  185.4830  175.1270  134.5950 S   0  0  0  0  0  0  0  0  0  0  0  0
  186.0620  175.7710  137.1550 O   0  0  0  0  0  0  0  0  0  0  0  0
  185.5260  176.9430  136.5100 C   0  0  1  0  0  3  0  0  0  0  0  0
  184.1530  177.2940  134.7270 O   0  0  0  0  0  1  0  0  0  0  0  0
  186.9230  173.4950  136.4640 C   0  0  0  0  0  2  0  0  0  0  0  0
  186.2000  172.1770  136.7910 C   0  0  2  0  0  3  0  0  0  0  0  0
  183.9460  171.6890  136.1020 N   0  0  0  0  0  0  0  0  0  0  0  0
  186.1250  171.3360  135.5200 C   0  0  0  0  0  2  0  0  0  0  0  0
  184.8710  171.2420  135.0950 C   0  0  0  0  0  2  0  0  0  0  0  0
  184.7240  172.3640  137.1370 C   0  0  0  0  0  2  0  0  0  0  0  0
  182.6420  171.0310  136.1710 C   0  0  0  0  0  0  0  0  0  0  0  0
  182.5640  169.8810  135.7170 O   0  0  0  0  0  0  0  0  0  0  0  0
  180.3150  171.1940  136.6900 O   0  0  0  0  0  1  0  0  0  0  0  0
  181.4170  171.8650  136.1540 C   0  0  1  0  0  3  0  0  0  0  0  0
  181.7550  173.0760  136.9880 C   0  0  0  0  0  2  0  0  0  0  0  0
  181.7850  174.5070  136.3840 C   0  0  2  0  0  3  0  0  0  0  0  0
  182.0930  175.4230  137.4880 N   0  0  0  0  0  1  0  0  0  0  0  0
  180.4890  174.9980  135.6180 C   0  0  0  0  0  2  0  0  0  0  0  0
  179.3250  174.8350  136.4240 O   0  0  0  0  0  1  0  0  0  0  0  0
  183.6050  178.6870  138.9490 S   0  0  0  0  0  0  0  0  0  0  0  0
  185.0630  178.7710  140.9130 C   0  0  0  0  0  0  0  0  0  0  0  0
  185.9380  178.6440  139.8100 C   0  0  0  0  0  3  0  0  0  0  0  0
  183.7550  178.8290  140.5780 C   0  0  0  0  0  3  0  0  0  0  0  0
  185.2970  178.5420  138.5610 C   0  0  0  0  0  0  0  0  0  0  0  0
  185.4650  178.9260  142.2980 C   0  0  0  0  0  2  0  0  0  0  0  0
  184.8080  179.9710  142.9810 O   0  0  0  0  0  0  0  0  0  0  0  0
  184.6840  179.5500  144.3100 C   0  0  0  0  0  2  0  0  0  0  0  0
  182.7490  178.2310  143.9390 O   0  0  0  0  0  0  0  0  0  0  0  0
  183.4460  178.9870  144.8480 C   0  0  2  0  0  3  0  0  0  0  0  0
  182.2720  179.5690  144.1020 C   0  0  0  0  0  2  0  0  0  0  0  0
  188.3110  178.0190  136.7850 O   0  0  0  0  0  0  0  0  0  0  0  0
  189.4830  178.1130  137.6200 C   0  0  0  0  0  2  0  0  0  0  0  0
  189.1250  175.8940  137.9580 O   0  0  0  0  0  1  0  0  0  0  0  0
  189.7030  176.9800  138.6030 C   0  0  1  0  0  3  0  0  0  0  0  0
  191.1290  176.7760  138.9570 C   0  0  0  0  0  0  0  0  0  0  0  0
  192.0100  176.0760  138.0720 C   0  0  0  0  0  3  0  0  0  0  0  0
  191.6620  175.2170  136.6830 C   0  0  1  0  0  3  0  0  0  0  0  0
  192.5980  175.3560  135.6120 O   0  0  0  0  0  1  0  0  0  0  0  0
  191.4450  173.7450  136.8850 N   0  0  0  0  0  1  0  0  0  0  0  0
  191.4540  177.4490  140.3400 C   0  0  0  0  0  2  0  0  0  0  0  0
  188.5220  176.8070  143.2210 C   0  0  0  0  0  0  0  0  0  0  0  0
  189.4120  178.2390  141.4680 C   0  0  0  0  0  3  0  0  0  0  0  0
  189.3430  175.7460  142.8470 C   0  0  0  0  0  3  0  0  0  0  0  0
  188.5060  177.9960  142.5330 C   0  0  0  0  0  3  0  0  0  0  0  0
  190.3030  177.2090  141.2350 C   0  0  0  0  0  0  0  0  0  0  0  0
  190.2090  176.0390  141.7940 N   0  0  0  0  0  0  0  0  0  0  0  0
  187.5450  177.4020  145.4700 C   0  0  0  0  0  0  0  0  0  0  0  0
  187.5380  176.5710  144.2950 N   0  0  0  0  0  2  0  0  0  0  0  0
  186.5370  177.3960  146.2810 O   0  0  0  0  0  0  0  0  0  0  0  0
  188.6590  178.1520  145.8980 O   0  0  0  0  0  0  0  0  0  0  0  0
  188.7790  176.8950  147.8170 O   0  0  0  0  0  1  0  0  0  0  0  0
  189.4930  177.7470  146.9620 C   0  0  1  0  0  3  0  0  0  0  0  0
  190.6790  177.0500  146.4050 C   0  0  0  0  0  0  0  0  0  0  0  0
  191.1180  176.0530  147.0270 O   0  0  0  0  0  0  0  0  0  0  0  0
  191.3600  177.5470  145.1210 C   0  0  0  0  0  3  0  0  0  0  0  0
  190.9080  178.8190  144.6430 F   0  0  0  0  0  0  0  0  0  0  0  0
  192.0750  176.6050  144.3170 F   0  0  0  0  0  0  0  0  0  0  0  0
  2  1  2  0  0  0  0
  2 28  1  0  0  0  0
  3  8  1  1  0  0  0
  3  7  1  0  0  0  0
  4  9  1  6  0  0  0
  4  6  1  0  0  0  0
  5  3  1  0  0  0  0
  5  4  1  0  0  0  0
  7  6  1  0  0  0  0
  7  2  1  6  0  0  0
 10  9  1  6  0  0  0
 10 14  1  0  0  0  0
 11 15  1  0  0  0  0
 11 14  1  0  0  0  0
 12 10  1  0  0  0  0
 13 12  1  0  0  0  0
 13 11  1  0  0  0  0
 16 15  2  0  0  0  0
 18 15  1  0  0  0  0
 18 17  1  1  0  0  0
 18 19  1  0  0  0  0
 20 19  1  0  0  0  0
 20 21  1  1  0  0  0
 22 20  1  0  0  0  0
 22 23  1  0  0  0  0
 24 27  1  0  0  0  0
 25 29  1  0  0  0  0
 26 25  1  0  0  0  0
 27 25  2  0  0  0  0
 28 24  1  0  0  0  0
 28 26  2  0  0  0  0
 29 30  1  0  0  0  0
 30 31  1  0  0  0  0
 32 34  1  0  0  0  0
 32 33  1  0  0  0  0
 33 31  1  6  0  0  0
 34 33  1  0  0  0  0
 35  1  1  0  0  0  0
 35 36  1  0  0  0  0
 36 38  1  0  0  0  0
 38 37  1  6  0  0  0
 38 39  1  0  0  0  0
 39 44  1  0  0  0  0
 40 39  2  0  0  0  0
 41 42  1  6  0  0  0
 41 43  1  0  0  0  0
 41 40  1  0  0  0  0
 44 49  1  0  0  0  0
 45 52  1  0  0  0  0
 46 48  1  0  0  0  0
 47 45  1  0  0  0  0
 48 45  2  0  0  0  0
 49 46  2  0  0  0  0
 49 50  1  0  0  0  0
 50 47  2  0  0  0  0
 51 54  1  0  0  0  0
 51 53  2  0  0  0  0
 52 51  1  0  0  0  0
 54 56  1  0  0  0  0
 56 55  1  1  0  0  0
 57 56  1  0  0  0  0
 57 58  2  0  0  0  0
 59 57  1  0  0  0  0
 60 59  1  0  0  0  0
 61 59  1  0  0  0  0
M  END
>  <MODEL>
2

>  <REMARK>
 VINA RESULT:      -6.2      3.275      7.851
  Name = 
  24 active torsions:
  status: ('A' for Active; 'I' for Inactive)
    1  A    between atoms: C_2  and  O_55
    2  A    between atoms: C_3  and  C_47
    3  A    between atoms: CA_4  and  C_11
    4  A    between atoms: CA_4  and  C_25
    5  A    between atoms: C_7  and  C_9
    6  A    between atoms: C_7  and  C_24
    7  A    between atoms: C_8  and  C_47
    8  A    between atoms: C_10  and  C_30
    9  A    between atoms: C_10  and  C_50
   10  A    between atoms: C_14  and  N_37
   11  A    between atoms: C_15  and  C_16
   12  A    between atoms: N_22  and  O_60
   13  A    between atoms: C_24  and  O_55
   14  A    between atoms: C_25  and  C_56
   15  A    between atoms: C_30  and  C_58
   16  A    between atoms: C_32  and  O_38
   17  A    between atoms: C_32  and  C_44
   18  A    between atoms: C_33  and  C_34
   19  A    between atoms: C_33  and  O_38
   20  A    between atoms: C_42  and  C_45
   21  A    between atoms: C_45  and  C_61
   22  A    between atoms: C_50  and  C_53
   23  A    between atoms: C_51  and  C_56
   24  A    between atoms: C_58  and  O_60
                            x       y       z     vdW  Elec       q    Type
                         _______ _______ _______ _____ _____    ______ ____

>  <TORSDO>
F 24

$$$$
=
 OpenBabel10222418463D

 61 65  0  0  1  0  0  0  0  0999 V2000
  190.1430  176.5550  139.3760 N   0  0  0  0  0  0  0  0  0  0  0  0
  189.7250  176.0230  138.2690 C   0  0  0  0  0  0  0  0  0  0  0  0
  189.0310  177.5620  136.1640 C   0  0  2  0  0  3  0  0  0  0  0  0
  186.5620  176.6190  136.3950 C   0  0  2  0  0  3  0  0  0  0  0  0
  187.5060  177.7380  135.2480 S   0  0  0  0  0  0  0  0  0  0  0  0
  187.4260  176.0540  137.3600 O   0  0  0  0  0  0  0  0  0  0  0  0
  188.6710  176.7780  137.4130 C   0  0  1  0  0  3  0  0  0  0  0  0
  189.3810  178.7880  136.6130 O   0  0  0  0  0  1  0  0  0  0  0  0
  185.5610  175.6760  135.6930 C   0  0  0  0  0  2  0  0  0  0  0  0
  185.1560  174.5540  136.6640 C   0  0  2  0  0  3  0  0  0  0  0  0
  183.0420  173.4070  136.5630 N   0  0  0  0  0  0  0  0  0  0  0  0
  185.2260  173.2220  135.9230 C   0  0  0  0  0  2  0  0  0  0  0  0
  184.0090  172.7190  135.7510 C   0  0  0  0  0  2  0  0  0  0  0  0
  183.6860  174.6120  137.0780 C   0  0  0  0  0  2  0  0  0  0  0  0
  181.9160  172.6340  137.0860 C   0  0  0  0  0  0  0  0  0  0  0  0
  182.0770  171.4110  137.2070 O   0  0  0  0  0  0  0  0  0  0  0  0
  179.8130  172.2950  136.0020 O   0  0  0  0  0  1  0  0  0  0  0  0
  180.5390  173.1310  136.8560 C   0  0  1  0  0  3  0  0  0  0  0  0
  179.9020  173.1700  138.2230 C   0  0  0  0  0  2  0  0  0  0  0  0
  179.1360  174.4200  138.7370 C   0  0  2  0  0  3  0  0  0  0  0  0
  178.9390  175.2990  137.5770 N   0  0  0  0  0  1  0  0  0  0  0  0
  179.7900  175.2330  139.9280 C   0  0  0  0  0  2  0  0  0  0  0  0
  178.9500  175.2220  141.0790 O   0  0  0  0  0  1  0  0  0  0  0  0
  191.0620  173.9390  136.7250 S   0  0  0  0  0  0  0  0  0  0  0  0
  193.0450  175.3640  136.5540 C   0  0  0  0  0  0  0  0  0  0  0  0
  192.1490  176.0780  137.3820 C   0  0  0  0  0  3  0  0  0  0  0  0
  192.5810  174.1640  136.1420 C   0  0  0  0  0  3  0  0  0  0  0  0
  190.9100  175.4440  137.5880 C   0  0  0  0  0  0  0  0  0  0  0  0
  194.3920  175.7770  136.2110 C   0  0  0  0  0  2  0  0  0  0  0  0
  195.3390  175.5850  137.2400 O   0  0  0  0  0  0  0  0  0  0  0  0
  195.8860  174.3140  137.0320 C   0  0  0  0  0  2  0  0  0  0  0  0
  197.8580  174.2030  138.3440 O   0  0  0  0  0  0  0  0  0  0  0  0
  196.6550  173.6080  138.0560 C   0  0  2  0  0  3  0  0  0  0  0  0
  197.9350  173.0920  137.4470 C   0  0  0  0  0  2  0  0  0  0  0  0
  189.6870  177.6000  140.1110 O   0  0  0  0  0  0  0  0  0  0  0  0
  188.5550  177.2500  140.9340 C   0  0  0  0  0  2  0  0  0  0  0  0
  188.5940  179.5020  141.2450 O   0  0  0  0  0  1  0  0  0  0  0  0
  187.8320  178.3980  141.6090 C   0  0  1  0  0  3  0  0  0  0  0  0
  186.4040  178.5040  141.2220 C   0  0  0  0  0  0  0  0  0  0  0  0
  185.3870  178.6840  142.2130 C   0  0  0  0  0  3  0  0  0  0  0  0
  185.4980  178.6090  143.8770 C   0  0  1  0  0  3  0  0  0  0  0  0
  184.2790  178.3420  144.5730 O   0  0  0  0  0  1  0  0  0  0  0  0
  186.5200  177.6410  144.4010 N   0  0  0  0  0  1  0  0  0  0  0  0
  186.2520  178.4280  139.6590 C   0  0  0  0  0  2  0  0  0  0  0  0
  182.4140  179.3320  138.3290 C   0  0  0  0  0  0  0  0  0  0  0  0
  184.0250  177.6280  138.9750 C   0  0  0  0  0  3  0  0  0  0  0  0
  183.2080  180.3550  138.8430 C   0  0  0  0  0  3  0  0  0  0  0  0
  182.7700  178.0090  138.4320 C   0  0  0  0  0  3  0  0  0  0  0  0
  184.8330  178.6890  139.3340 C   0  0  0  0  0  0  0  0  0  0  0  0
  184.4260  179.9230  139.3670 N   0  0  0  0  0  0  0  0  0  0  0  0
  180.2080  180.5300  138.5750 C   0  0  0  0  0  0  0  0  0  0  0  0
  181.0850  179.6920  137.7990 N   0  0  0  0  0  2  0  0  0  0  0  0
  179.1730  181.0780  138.0240 O   0  0  0  0  0  0  0  0  0  0  0  0
  180.3110  180.7010  139.9690 O   0  0  0  0  0  0  0  0  0  0  0  0
  179.1670  178.7590  140.4130 O   0  0  0  0  0  1  0  0  0  0  0  0
  179.4650  180.0440  140.8890 C   0  0  1  0  0  3  0  0  0  0  0  0
  180.1510  179.9650  142.2020 C   0  0  0  0  0  0  0  0  0  0  0  0
  179.9120  180.8650  143.0420 O   0  0  0  0  0  0  0  0  0  0  0  0
  181.1400  178.8310  142.5130 C   0  0  0  0  0  3  0  0  0  0  0  0
  181.1150  178.3520  143.8630 F   0  0  0  0  0  0  0  0  0  0  0  0
  182.2240  178.6010  141.6090 F   0  0  0  0  0  0  0  0  0  0  0  0
  1 35  1  0  0  0  0
  2  1  2  0  0  0  0
  3  8  1  1  0  0  0
  3  7  1  0  0  0  0
  4  9  1  6  0  0  0
  4  6  1  0  0  0  0
  5  3  1  0  0  0  0
  5  4  1  0  0  0  0
  6  7  1  0  0  0  0
  7  2  1  6  0  0  0
 10  9  1  6  0  0  0
 10 14  1  0  0  0  0
 11 14  1  0  0  0  0
 11 15  1  0  0  0  0
 12 10  1  0  0  0  0
 13 12  1  0  0  0  0
 13 11  1  0  0  0  0
 15 16  2  0  0  0  0
 18 17  1  6  0  0  0
 18 15  1  0  0  0  0
 18 19  1  0  0  0  0
 19 20  1  0  0  0  0
 20 21  1  6  0  0  0
 20 22  1  0  0  0  0
 22 23  1  0  0  0  0
 24 28  1  0  0  0  0
 25 26  1  0  0  0  0
 26 28  2  0  0  0  0
 27 25  2  0  0  0  0
 27 24  1  0  0  0  0
 28  2  1  0  0  0  0
 29 25  1  0  0  0  0
 29 30  1  0  0  0  0
 31 30  1  0  0  0  0
 33 31  1  6  0  0  0
 33 32  1  0  0  0  0
 34 33  1  0  0  0  0
 34 32  1  0  0  0  0
 35 36  1  0  0  0  0
 36 38  1  0  0  0  0
 38 37  1  6  0  0  0
 39 38  1  0  0  0  0
 39 40  2  0  0  0  0
 40 41  1  0  0  0  0
 41 43  1  6  0  0  0
 41 42  1  0  0  0  0
 44 39  1  0  0  0  0
 45 48  2  0  0  0  0
 45 47  1  0  0  0  0
 46 49  2  0  0  0  0
 47 50  2  0  0  0  0
 48 46  1  0  0  0  0
 49 50  1  0  0  0  0
 49 44  1  0  0  0  0
 51 54  1  0  0  0  0
 52 45  1  0  0  0  0
 52 51  1  0  0  0  0
 53 51  2  0  0  0  0
 54 56  1  0  0  0  0
 56 55  1  6  0  0  0
 56 57  1  0  0  0  0
 57 59  1  0  0  0  0
 57 58  2  0  0  0  0
 59 60  1  0  0  0  0
 61 59  1  0  0  0  0
M  END
>  <MODEL>
3

>  <REMARK>
 VINA RESULT:      -6.0      2.331      3.377
  Name = 
  24 active torsions:
  status: ('A' for Active; 'I' for Inactive)
    1  A    between atoms: C_2  and  O_55
    2  A    between atoms: C_3  and  C_47
    3  A    between atoms: CA_4  and  C_11
    4  A    between atoms: CA_4  and  C_25
    5  A    between atoms: C_7  and  C_9
    6  A    between atoms: C_7  and  C_24
    7  A    between atoms: C_8  and  C_47
    8  A    between atoms: C_10  and  C_30
    9  A    between atoms: C_10  and  C_50
   10  A    between atoms: C_14  and  N_37
   11  A    between atoms: C_15  and  C_16
   12  A    between atoms: N_22  and  O_60
   13  A    between atoms: C_24  and  O_55
   14  A    between atoms: C_25  and  C_56
   15  A    between atoms: C_30  and  C_58
   16  A    between atoms: C_32  and  O_38
   17  A    between atoms: C_32  and  C_44
   18  A    between atoms: C_33  and  C_34
   19  A    between atoms: C_33  and  O_38
   20  A    between atoms: C_42  and  C_45
   21  A    between atoms: C_45  and  C_61
   22  A    between atoms: C_50  and  C_53
   23  A    between atoms: C_51  and  C_56
   24  A    between atoms: C_58  and  O_60
                            x       y       z     vdW  Elec       q    Type
                         _______ _______ _______ _____ _____    ______ ____

>  <TORSDO>
F 24

$$$$
=
 OpenBabel10222418463D

 61 65  0  0  1  0  0  0  0  0999 V2000
  183.0530  177.2440  139.2650 N   0  0  0  0  0  0  0  0  0  0  0  0
  181.9780  176.9880  139.9460 C   0  0  0  0  0  0  0  0  0  0  0  0
  180.3670  177.7070  141.9880 C   0  0  2  0  0  3  0  0  0  0  0  0
  182.2050  179.4830  142.7010 C   0  0  2  0  0  3  0  0  0  0  0  0
  180.5730  178.8590  143.3400 S   0  0  0  0  0  0  0  0  0  0  0  0
  182.6100  178.7440  141.5670 O   0  0  0  0  0  0  0  0  0  0  0  0
  181.5010  178.0010  141.0220 C   0  0  1  0  0  3  0  0  0  0  0  0
  179.2450  178.0570  141.3210 O   0  0  0  0  0  1  0  0  0  0  0  0
  183.2620  179.7510  143.7930 C   0  0  0  0  0  2  0  0  0  0  0  0
  183.9430  178.4260  144.1770 C   0  0  2  0  0  3  0  0  0  0  0  0
  186.3230  178.0760  144.0840 N   0  0  0  0  0  0  0  0  0  0  0  0
  184.6330  178.6060  145.5250 C   0  0  0  0  0  2  0  0  0  0  0  0
  185.9520  178.5700  145.3830 C   0  0  0  0  0  2  0  0  0  0  0  0
  185.1140  178.0590  143.2650 C   0  0  0  0  0  2  0  0  0  0  0  0
  187.5540  177.2950  143.9750 C   0  0  0  0  0  0  0  0  0  0  0  0
  187.9510  176.7200  144.9990 O   0  0  0  0  0  0  0  0  0  0  0  0
  188.0100  178.4420  141.9290 O   0  0  0  0  0  1  0  0  0  0  0  0
  188.5670  177.6910  142.9680 C   0  0  1  0  0  3  0  0  0  0  0  0
  189.5780  178.5120  143.7290 C   0  0  0  0  0  2  0  0  0  0  0  0
  190.9920  177.9650  144.0680 C   0  0  2  0  0  3  0  0  0  0  0  0
  191.8590  179.1330  144.2620 N   0  0  0  0  0  1  0  0  0  0  0  0
  191.6520  176.9670  143.0300 C   0  0  0  0  0  2  0  0  0  0  0  0
  191.3130  175.6160  143.3310 O   0  0  0  0  0  1  0  0  0  0  0  0
  179.7110  177.2630  138.1290 S   0  0  0  0  0  0  0  0  0  0  0  0
  179.9850  174.9240  137.4630 C   0  0  0  0  0  0  0  0  0  0  0  0
  180.9400  175.1300  138.4830 C   0  0  0  0  0  3  0  0  0  0  0  0
  179.2280  176.0080  137.1860 C   0  0  0  0  0  3  0  0  0  0  0  0
  180.9790  176.4400  138.9950 C   0  0  0  0  0  0  0  0  0  0  0  0
  179.7200  173.6650  136.7940 C   0  0  0  0  0  2  0  0  0  0  0  0
  179.6910  172.5450  137.6520 O   0  0  0  0  0  0  0  0  0  0  0  0
  179.3580  171.4480  136.8480 C   0  0  0  0  0  2  0  0  0  0  0  0
  180.0150  169.9360  135.1440 O   0  0  0  0  0  0  0  0  0  0  0  0
  179.9060  171.2560  135.5070 C   0  0  2  0  0  3  0  0  0  0  0  0
  181.2280  170.5350  135.6100 C   0  0  0  0  0  2  0  0  0  0  0  0
  184.0380  178.1610  139.4320 O   0  0  0  0  0  0  0  0  0  0  0  0
  184.8470  178.3300  138.2500 C   0  0  0  0  0  2  0  0  0  0  0  0
  184.7350  177.3150  136.2180 O   0  0  0  0  0  1  0  0  0  0  0  0
  185.2150  177.0650  137.4990 C   0  0  1  0  0  3  0  0  0  0  0  0
  186.6650  176.7540  137.5430 C   0  0  0  0  0  0  0  0  0  0  0  0
  187.1480  175.4590  137.1720 C   0  0  0  0  0  3  0  0  0  0  0  0
  186.2970  174.0600  136.8440 C   0  0  1  0  0  3  0  0  0  0  0  0
  186.9850  172.8350  137.1090 O   0  0  0  0  0  1  0  0  0  0  0  0
  184.9570  173.9610  137.5140 N   0  0  0  0  0  1  0  0  0  0  0  0
  187.4840  178.0170  137.9950 C   0  0  0  0  0  2  0  0  0  0  0  0
  191.3670  176.5250  138.0630 C   0  0  0  0  0  0  0  0  0  0  0  0
  189.5850  177.5790  136.7870 C   0  0  0  0  0  3  0  0  0  0  0  0
  190.7110  176.7520  139.2710 C   0  0  0  0  0  3  0  0  0  0  0  0
  190.8620  176.9650  136.8630 C   0  0  0  0  0  3  0  0  0  0  0  0
  188.9150  177.6460  137.9930 C   0  0  0  0  0  0  0  0  0  0  0  0
  189.4640  177.3610  139.1360 N   0  0  0  0  0  0  0  0  0  0  0  0
  193.4370  175.6820  136.8920 C   0  0  0  0  0  0  0  0  0  0  0  0
  192.7160  175.9300  138.1130 N   0  0  0  0  0  2  0  0  0  0  0  0
  194.7050  175.4270  136.9220 O   0  0  0  0  0  0  0  0  0  0  0  0
  192.8260  175.5570  135.6280 O   0  0  0  0  0  0  0  0  0  0  0  0
  194.0280  173.8920  134.5970 O   0  0  0  0  0  1  0  0  0  0  0  0
  192.7390  174.3300  134.9360 C   0  0  1  0  0  3  0  0  0  0  0  0
  192.0640  173.3340  135.8050 C   0  0  0  0  0  0  0  0  0  0  0  0
  192.7560  172.3950  136.2660 O   0  0  0  0  0  0  0  0  0  0  0  0
  190.5620  173.4380  136.1130 C   0  0  0  0  0  3  0  0  0  0  0  0
  189.7340  173.7920  134.9990 F   0  0  0  0  0  0  0  0  0  0  0  0
  190.1500  173.5510  137.4770 F   0  0  0  0  0  0  0  0  0  0  0  0
  1 35  1  0  0  0  0
  1  2  2  0  0  0  0
  3  8  1  6  0  0  0
  3  5  1  0  0  0  0
  4  5  1  0  0  0  0
  4  9  1  1  0  0  0
  6  4  1  0  0  0  0
  7  2  1  1  0  0  0
  7  6  1  0  0  0  0
  7  3  1  0  0  0  0
 10  9  1  6  0  0  0
 10 12  1  0  0  0  0
 11 13  1  0  0  0  0
 13 12  1  0  0  0  0
 14 11  1  0  0  0  0
 14 10  1  0  0  0  0
 15 11  1  0  0  0  0
 15 16  2  0  0  0  0
 18 17  1  6  0  0  0
 18 19  1  0  0  0  0
 18 15  1  0  0  0  0
 19 20  1  0  0  0  0
 20 21  1  6  0  0  0
 22 23  1  0  0  0  0
 22 20  1  0  0  0  0
 24 28  1  0  0  0  0
 25 26  1  0  0  0  0
 26 28  2  0  0  0  0
 27 25  2  0  0  0  0
 27 24  1  0  0  0  0
 28  2  1  0  0  0  0
 29 25  1  0  0  0  0
 29 30  1  0  0  0  0
 31 30  1  0  0  0  0
 32 33  1  0  0  0  0
 32 34  1  0  0  0  0
 33 34  1  0  0  0  0
 33 31  1  1  0  0  0
 36 35  1  0  0  0  0
 38 37  1  6  0  0  0
 38 39  1  0  0  0  0
 38 36  1  0  0  0  0
 39 44  1  0  0  0  0
 40 39  2  0  0  0  0
 41 42  1  1  0  0  0
 41 40  1  0  0  0  0
 41 43  1  0  0  0  0
 45 52  1  0  0  0  0
 45 47  1  0  0  0  0
 46 48  1  0  0  0  0
 46 49  2  0  0  0  0
 48 45  2  0  0  0  0
 49 44  1  0  0  0  0
 49 50  1  0  0  0  0
 50 47  2  0  0  0  0
 51 53  2  0  0  0  0
 51 52  1  0  0  0  0
 54 51  1  0  0  0  0
 56 55  1  1  0  0  0
 56 54  1  0  0  0  0
 56 57  1  0  0  0  0
 57 59  1  0  0  0  0
 57 58  2  0  0  0  0
 59 61  1  0  0  0  0
 60 59  1  0  0  0  0
M  END
>  <MODEL>
4

>  <REMARK>
 VINA RESULT:      -5.4      3.168     11.278
  Name = 
  24 active torsions:
  status: ('A' for Active; 'I' for Inactive)
    1  A    between atoms: C_2  and  O_55
    2  A    between atoms: C_3  and  C_47
    3  A    between atoms: CA_4  and  C_11
    4  A    between atoms: CA_4  and  C_25
    5  A    between atoms: C_7  and  C_9
    6  A    between atoms: C_7  and  C_24
    7  A    between atoms: C_8  and  C_47
    8  A    between atoms: C_10  and  C_30
    9  A    between atoms: C_10  and  C_50
   10  A    between atoms: C_14  and  N_37
   11  A    between atoms: C_15  and  C_16
   12  A    between atoms: N_22  and  O_60
   13  A    between atoms: C_24  and  O_55
   14  A    between atoms: C_25  and  C_56
   15  A    between atoms: C_30  and  C_58
   16  A    between atoms: C_32  and  O_38
   17  A    between atoms: C_32  and  C_44
   18  A    between atoms: C_33  and  C_34
   19  A    between atoms: C_33  and  O_38
   20  A    between atoms: C_42  and  C_45
   21  A    between atoms: C_45  and  C_61
   22  A    between atoms: C_50  and  C_53
   23  A    between atoms: C_51  and  C_56
   24  A    between atoms: C_58  and  O_60
                            x       y       z     vdW  Elec       q    Type
                         _______ _______ _______ _____ _____    ______ ____

>  <TORSDO>
F 24

$$$$
=
 OpenBabel10222418463D

 61 65  0  0  1  0  0  0  0  0999 V2000
  184.6100  176.1840  137.8440 N   0  0  0  0  0  0  0  0  0  0  0  0
  185.0090  175.3190  136.9640 C   0  0  0  0  0  0  0  0  0  0  0  0
  183.5170  173.4890  135.6570 C   0  0  2  0  0  3  0  0  0  0  0  0
  182.1050  175.4920  134.6390 C   0  0  2  0  0  3  0  0  0  0  0  0
  182.0690  173.6330  134.6180 S   0  0  0  0  0  0  0  0  0  0  0  0
  183.1190  175.9600  135.5060 O   0  0  0  0  0  0  0  0  0  0  0  0
  184.0480  174.9030  135.8170 C   0  0  1  0  0  3  0  0  0  0  0  0
  184.4660  172.8400  134.9470 O   0  0  0  0  0  1  0  0  0  0  0  0
  180.7170  176.1610  134.7370 C   0  0  0  0  0  2  0  0  0  0  0  0
  180.6240  176.9440  136.0580 C   0  0  2  0  0  3  0  0  0  0  0  0
  180.1630  179.3040  136.1760 N   0  0  0  0  0  0  0  0  0  0  0  0
  179.1570  177.2600  136.3320 C   0  0  0  0  0  2  0  0  0  0  0  0
  178.9310  178.5630  136.2180 C   0  0  0  0  0  2  0  0  0  0  0  0
  181.2420  178.3390  135.9810 C   0  0  0  0  0  2  0  0  0  0  0  0
  180.1790  180.6390  136.7730 C   0  0  0  0  0  0  0  0  0  0  0  0
  179.3380  180.8760  137.6510 O   0  0  0  0  0  0  0  0  0  0  0  0
  180.5040  181.5640  134.5940 O   0  0  0  0  0  1  0  0  0  0  0  0
  180.6740  181.7780  135.9650 C   0  0  1  0  0  3  0  0  0  0  0  0
  179.8620  182.9650  136.4190 C   0  0  0  0  0  2  0  0  0  0  0  0
  180.2620  183.8060  137.6620 C   0  0  2  0  0  3  0  0  0  0  0  0
  179.8180  185.1810  137.4000 N   0  0  0  0  0  1  0  0  0  0  0  0
  181.7890  183.8010  138.0810 C   0  0  0  0  0  2  0  0  0  0  0  0
  182.4720  184.9320  137.5460 O   0  0  0  0  0  1  0  0  0  0  0  0
  187.4930  174.8890  135.4940 S   0  0  0  0  0  0  0  0  0  0  0  0
  188.3950  176.9540  136.4500 C   0  0  0  0  0  0  0  0  0  0  0  0
  187.1320  176.7860  137.0620 C   0  0  0  0  0  3  0  0  0  0  0  0
  188.7260  175.9710  135.5850 C   0  0  0  0  0  3  0  0  0  0  0  0
  186.4140  175.6580  136.6240 C   0  0  0  0  0  0  0  0  0  0  0  0
  189.3440  178.0100  136.7450 C   0  0  0  0  0  2  0  0  0  0  0  0
  188.8420  179.0260  137.5860 O   0  0  0  0  0  0  0  0  0  0  0  0
  189.4240  178.8150  138.8410 C   0  0  0  0  0  2  0  0  0  0  0  0
  189.1750  176.6570  139.7930 O   0  0  0  0  0  0  0  0  0  0  0  0
  190.0480  177.5480  139.2190 C   0  0  2  0  0  3  0  0  0  0  0  0
  189.9820  177.3910  140.7180 C   0  0  0  0  0  2  0  0  0  0  0  0
  183.3850  176.6920  138.1300 O   0  0  0  0  0  0  0  0  0  0  0  0
  183.2670  177.1250  139.5010 C   0  0  0  0  0  2  0  0  0  0  0  0
  182.8090  179.3200  139.1260 O   0  0  0  0  0  1  0  0  0  0  0  0
  183.7330  178.5350  139.8050 C   0  0  1  0  0  3  0  0  0  0  0  0
  183.8150  178.8280  141.2570 C   0  0  0  0  0  0  0  0  0  0  0  0
  182.6430  178.7940  142.0780 C   0  0  0  0  0  3  0  0  0  0  0  0
  181.0390  178.6510  141.6370 C   0  0  1  0  0  3  0  0  0  0  0  0
  180.5120  179.7170  140.8450 O   0  0  0  0  0  1  0  0  0  0  0  0
  180.6860  177.3710  140.9360 N   0  0  0  0  0  1  0  0  0  0  0  0
  185.3020  179.1150  141.6760 C   0  0  0  0  0  2  0  0  0  0  0  0
  186.1880  178.0830  145.6090 C   0  0  0  0  0  0  0  0  0  0  0  0
  185.0760  179.6110  144.0780 C   0  0  0  0  0  3  0  0  0  0  0  0
  186.4100  177.1480  144.6000 C   0  0  0  0  0  3  0  0  0  0  0  0
  185.4990  179.2500  145.3840 C   0  0  0  0  0  3  0  0  0  0  0  0
  185.4510  178.7190  143.0930 C   0  0  0  0  0  0  0  0  0  0  0  0
  185.9710  177.5540  143.3400 N   0  0  0  0  0  0  0  0  0  0  0  0
  187.9510  177.4150  147.2850 C   0  0  0  0  0  0  0  0  0  0  0  0
  186.5760  177.7170  146.9840 N   0  0  0  0  0  2  0  0  0  0  0  0
  188.3550  177.3660  148.5130 O   0  0  0  0  0  0  0  0  0  0  0  0
  188.9000  177.0220  146.3210 O   0  0  0  0  0  0  0  0  0  0  0  0
  190.9400  176.4930  147.2350 O   0  0  0  0  0  1  0  0  0  0  0  0
  190.2620  177.3850  146.3910 C   0  0  1  0  0  3  0  0  0  0  0  0
  190.8410  177.3490  145.0250 C   0  0  0  0  0  0  0  0  0  0  0  0
  191.4990  176.3350  144.6950 O   0  0  0  0  0  0  0  0  0  0  0  0
  190.6580  178.5270  144.0560 C   0  0  0  0  0  3  0  0  0  0  0  0
  191.7040  179.5050  144.0780 F   0  0  0  0  0  0  0  0  0  0  0  0
  189.3590  178.7670  143.5070 F   0  0  0  0  0  0  0  0  0  0  0  0
  1 35  1  0  0  0  0
  2  1  2  0  0  0  0
  3  8  1  6  0  0  0
  3  7  1  0  0  0  0
  4  9  1  1  0  0  0
  4  6  1  0  0  0  0
  5  4  1  0  0  0  0
  5  3  1  0  0  0  0
  6  7  1  0  0  0  0
  7  2  1  1  0  0  0
 10  9  1  6  0  0  0
 10 12  1  0  0  0  0
 11 13  1  0  0  0  0
 11 15  1  0  0  0  0
 13 12  1  0  0  0  0
 14 10  1  0  0  0  0
 14 11  1  0  0  0  0
 15 16  2  0  0  0  0
 18 17  1  6  0  0  0
 18 19  1  0  0  0  0
 18 15  1  0  0  0  0
 19 20  1  0  0  0  0
 20 21  1  6  0  0  0
 20 22  1  0  0  0  0
 23 22  1  0  0  0  0
 24 27  1  0  0  0  0
 24 28  1  0  0  0  0
 25 29  1  0  0  0  0
 25 26  1  0  0  0  0
 27 25  2  0  0  0  0
 28  2  1  0  0  0  0
 28 26  2  0  0  0  0
 29 30  1  0  0  0  0
 30 31  1  0  0  0  0
 32 34  1  0  0  0  0
 33 31  1  1  0  0  0
 33 32  1  0  0  0  0
 33 34  1  0  0  0  0
 35 36  1  0  0  0  0
 36 38  1  0  0  0  0
 38 37  1  6  0  0  0
 38 39  1  0  0  0  0
 39 44  1  0  0  0  0
 39 40  2  0  0  0  0
 41 42  1  6  0  0  0
 41 40  1  0  0  0  0
 43 41  1  0  0  0  0
 44 49  1  0  0  0  0
 45 52  1  0  0  0  0
 46 48  2  0  0  0  0
 47 45  2  0  0  0  0
 48 45  1  0  0  0  0
 49 50  2  0  0  0  0
 49 46  1  0  0  0  0
 50 47  1  0  0  0  0
 51 53  2  0  0  0  0
 52 51  1  0  0  0  0
 54 56  1  0  0  0  0
 54 51  1  0  0  0  0
 56 55  1  1  0  0  0
 57 56  1  0  0  0  0
 58 57  2  0  0  0  0
 59 60  1  0  0  0  0
 59 57  1  0  0  0  0
 61 59  1  0  0  0  0
M  END
>  <MODEL>
5

>  <REMARK>
 VINA RESULT:      -5.4      3.908      8.122
  Name = 
  24 active torsions:
  status: ('A' for Active; 'I' for Inactive)
    1  A    between atoms: C_2  and  O_55
    2  A    between atoms: C_3  and  C_47
    3  A    between atoms: CA_4  and  C_11
    4  A    between atoms: CA_4  and  C_25
    5  A    between atoms: C_7  and  C_9
    6  A    between atoms: C_7  and  C_24
    7  A    between atoms: C_8  and  C_47
    8  A    between atoms: C_10  and  C_30
    9  A    between atoms: C_10  and  C_50
   10  A    between atoms: C_14  and  N_37
   11  A    between atoms: C_15  and  C_16
   12  A    between atoms: N_22  and  O_60
   13  A    between atoms: C_24  and  O_55
   14  A    between atoms: C_25  and  C_56
   15  A    between atoms: C_30  and  C_58
   16  A    between atoms: C_32  and  O_38
   17  A    between atoms: C_32  and  C_44
   18  A    between atoms: C_33  and  C_34
   19  A    between atoms: C_33  and  O_38
   20  A    between atoms: C_42  and  C_45
   21  A    between atoms: C_45  and  C_61
   22  A    between atoms: C_50  and  C_53
   23  A    between atoms: C_51  and  C_56
   24  A    between atoms: C_58  and  O_60
                            x       y       z     vdW  Elec       q    Type
                         _______ _______ _______ _____ _____    ______ ____

>  <TORSDO>
F 24

$$$$
=
 OpenBabel10222418463D

 61 65  0  0  1  0  0  0  0  0999 V2000
  185.7620  178.6160  138.4680 N   0  0  0  0  0  0  0  0  0  0  0  0
  184.7830  178.1470  137.7580 C   0  0  0  0  0  0  0  0  0  0  0  0
  185.2050  177.2640  135.2430 C   0  0  2  0  0  3  0  0  0  0  0  0
  186.3760  175.1220  136.2820 C   0  0  2  0  0  3  0  0  0  0  0  0
  186.0620  175.8350  134.5940 S   0  0  0  0  0  0  0  0  0  0  0  0
  185.9400  176.0140  137.2880 O   0  0  0  0  0  0  0  0  0  0  0  0
  185.0610  177.0130  136.7330 C   0  0  1  0  0  3  0  0  0  0  0  0
  183.9420  177.2350  134.7630 O   0  0  0  0  0  1  0  0  0  0  0  0
  187.7670  174.4740  136.4570 C   0  0  0  0  0  2  0  0  0  0  0  0
  188.8310  175.5790  136.5700 C   0  0  2  0  0  3  0  0  0  0  0  0
  191.1980  175.1680  136.4140 N   0  0  0  0  0  0  0  0  0  0  0  0
  189.4010  175.8490  135.1810 C   0  0  0  0  0  2  0  0  0  0  0  0
  190.6630  175.4470  135.1080 C   0  0  0  0  0  2  0  0  0  0  0  0
  190.0740  175.1460  137.3470 C   0  0  0  0  0  2  0  0  0  0  0  0
  192.6170  175.4350  136.6430 C   0  0  0  0  0  0  0  0  0  0  0  0
  193.1590  176.2770  135.9130 O   0  0  0  0  0  0  0  0  0  0  0  0
  193.7520  173.3680  136.2620 O   0  0  0  0  0  1  0  0  0  0  0  0
  193.4660  174.3590  137.2050 C   0  0  1  0  0  3  0  0  0  0  0  0
  194.7330  175.0480  137.6470 C   0  0  0  0  0  2  0  0  0  0  0  0
  195.7870  174.3360  138.5390 C   0  0  2  0  0  3  0  0  0  0  0  0
  195.9150  175.1390  139.7620 N   0  0  0  0  0  1  0  0  0  0  0  0
  197.2170  174.0800  137.9080 C   0  0  0  0  0  2  0  0  0  0  0  0
  198.2470  174.2800  138.8730 O   0  0  0  0  0  1  0  0  0  0  0  0
  182.2430  176.9450  138.5460 S   0  0  0  0  0  0  0  0  0  0  0  0
  182.3090  178.2200  140.6340 C   0  0  0  0  0  0  0  0  0  0  0  0
  183.4360  178.6560  139.9010 C   0  0  0  0  0  3  0  0  0  0  0  0
  181.5550  177.2980  139.9950 C   0  0  0  0  0  3  0  0  0  0  0  0
  183.6120  178.0160  138.6610 C   0  0  0  0  0  0  0  0  0  0  0  0
  181.8840  178.7380  141.9200 C   0  0  0  0  0  2  0  0  0  0  0  0
  181.1290  179.9280  141.8470 O   0  0  0  0  0  0  0  0  0  0  0  0
  180.1570  179.8340  142.8510 C   0  0  0  0  0  2  0  0  0  0  0  0
  178.9710  178.4690  144.3850 O   0  0  0  0  0  0  0  0  0  0  0  0
  179.3740  178.6210  143.0800 C   0  0  2  0  0  3  0  0  0  0  0  0
  180.1300  177.7130  144.0190 C   0  0  0  0  0  2  0  0  0  0  0  0
  187.1070  178.4730  138.3690 O   0  0  0  0  0  0  0  0  0  0  0  0
  187.6860  177.8350  139.5260 C   0  0  0  0  0  2  0  0  0  0  0  0
  186.5800  179.5180  140.5820 O   0  0  0  0  0  1  0  0  0  0  0  0
  187.5890  178.5960  140.8330 C   0  0  1  0  0  3  0  0  0  0  0  0
  187.3240  177.7250  142.0040 C   0  0  0  0  0  0  0  0  0  0  0  0
  188.3320  176.8360  142.4990 C   0  0  0  0  0  3  0  0  0  0  0  0
  189.8110  176.4310  141.8390 C   0  0  1  0  0  3  0  0  0  0  0  0
  190.5970  177.5210  141.3540 O   0  0  0  0  0  1  0  0  0  0  0  0
  190.7010  175.6140  142.7300 N   0  0  0  0  0  1  0  0  0  0  0  0
  185.8760  177.9780  142.5600 C   0  0  0  0  0  2  0  0  0  0  0  0
  186.5820  178.0630  146.6600 C   0  0  0  0  0  0  0  0  0  0  0  0
  185.5840  179.1310  144.7170 C   0  0  0  0  0  3  0  0  0  0  0  0
  186.8040  176.8780  145.9620 C   0  0  0  0  0  3  0  0  0  0  0  0
  185.9470  179.1390  146.0890 C   0  0  0  0  0  3  0  0  0  0  0  0
  185.9600  177.9890  144.0360 C   0  0  0  0  0  0  0  0  0  0  0  0
  186.4260  176.9260  144.6210 N   0  0  0  0  0  0  0  0  0  0  0  0
  188.2510  178.3750  148.5260 C   0  0  0  0  0  0  0  0  0  0  0  0
  186.9070  178.0860  148.0990 N   0  0  0  0  0  2  0  0  0  0  0  0
  188.4940  178.6710  149.7620 O   0  0  0  0  0  0  0  0  0  0  0  0
  189.3870  178.2260  147.7060 O   0  0  0  0  0  0  0  0  0  0  0  0
  189.3700  175.9290  147.7450 O   0  0  0  0  0  1  0  0  0  0  0  0
  190.1910  177.0650  147.7110 C   0  0  1  0  0  3  0  0  0  0  0  0
  191.0350  177.0600  146.4910 C   0  0  0  0  0  0  0  0  0  0  0  0
  192.0490  176.3220  146.4830 O   0  0  0  0  0  0  0  0  0  0  0  0
  190.6900  177.9470  145.2840 C   0  0  0  0  0  3  0  0  0  0  0  0
  189.2910  178.0960  145.0150 F   0  0  0  0  0  0  0  0  0  0  0  0
  191.7170  178.2370  144.3320 F   0  0  0  0  0  0  0  0  0  0  0  0
  2  1  2  0  0  0  0
  2 28  1  0  0  0  0
  3  8  1  6  0  0  0
  3  7  1  0  0  0  0
  4  9  1  1  0  0  0
  4  6  1  0  0  0  0
  5  3  1  0  0  0  0
  5  4  1  0  0  0  0
  7  6  1  0  0  0  0
  7  2  1  1  0  0  0
 10  9  1  6  0  0  0
 10 14  1  0  0  0  0
 11 15  1  0  0  0  0
 11 14  1  0  0  0  0
 12 10  1  0  0  0  0
 13 12  1  0  0  0  0
 13 11  1  0  0  0  0
 15 18  1  0  0  0  0
 16 15  2  0  0  0  0
 18 17  1  6  0  0  0
 18 19  1  0  0  0  0
 19 20  1  0  0  0  0
 20 21  1  1  0  0  0
 22 20  1  0  0  0  0
 22 23  1  0  0  0  0
 24 28  1  0  0  0  0
 24 27  1  0  0  0  0
 25 29  1  0  0  0  0
 26 25  1  0  0  0  0
 27 25  2  0  0  0  0
 28 26  2  0  0  0  0
 30 29  1  0  0  0  0
 30 31  1  0  0  0  0
 33 31  1  1  0  0  0
 33 34  1  0  0  0  0
 33 32  1  0  0  0  0
 34 32  1  0  0  0  0
 35  1  1  0  0  0  0
 35 36  1  0  0  0  0
 36 38  1  0  0  0  0
 38 37  1  6  0  0  0
 38 39  1  0  0  0  0
 39 40  2  0  0  0  0
 39 44  1  0  0  0  0
 41 42  1  1  0  0  0
 41 40  1  0  0  0  0
 41 43  1  0  0  0  0
 44 49  1  0  0  0  0
 45 52  1  0  0  0  0
 46 48  2  0  0  0  0
 47 45  2  0  0  0  0
 48 45  1  0  0  0  0
 49 50  2  0  0  0  0
 49 46  1  0  0  0  0
 50 47  1  0  0  0  0
 51 53  2  0  0  0  0
 52 51  1  0  0  0  0
 54 56  1  0  0  0  0
 54 51  1  0  0  0  0
 56 55  1  6  0  0  0
 57 56  1  0  0  0  0
 58 57  2  0  0  0  0
 59 57  1  0  0  0  0
 60 59  1  0  0  0  0
 61 59  1  0  0  0  0
M  END
>  <MODEL>
6

>  <REMARK>
 VINA RESULT:      -5.2      3.543     10.073
  Name = 
  24 active torsions:
  status: ('A' for Active; 'I' for Inactive)
    1  A    between atoms: C_2  and  O_55
    2  A    between atoms: C_3  and  C_47
    3  A    between atoms: CA_4  and  C_11
    4  A    between atoms: CA_4  and  C_25
    5  A    between atoms: C_7  and  C_9
    6  A    between atoms: C_7  and  C_24
    7  A    between atoms: C_8  and  C_47
    8  A    between atoms: C_10  and  C_30
    9  A    between atoms: C_10  and  C_50
   10  A    between atoms: C_14  and  N_37
   11  A    between atoms: C_15  and  C_16
   12  A    between atoms: N_22  and  O_60
   13  A    between atoms: C_24  and  O_55
   14  A    between atoms: C_25  and  C_56
   15  A    between atoms: C_30  and  C_58
   16  A    between atoms: C_32  and  O_38
   17  A    between atoms: C_32  and  C_44
   18  A    between atoms: C_33  and  C_34
   19  A    between atoms: C_33  and  O_38
   20  A    between atoms: C_42  and  C_45
   21  A    between atoms: C_45  and  C_61
   22  A    between atoms: C_50  and  C_53
   23  A    between atoms: C_51  and  C_56
   24  A    between atoms: C_58  and  O_60
                            x       y       z     vdW  Elec       q    Type
                         _______ _______ _______ _____ _____    ______ ____

>  <TORSDO>
F 24

$$$$
=
 OpenBabel10222418463D

 61 65  0  0  1  0  0  0  0  0999 V2000
  187.7130  178.5230  138.8480 N   0  0  0  0  0  0  0  0  0  0  0  0
  186.7120  178.3270  138.0450 C   0  0  0  0  0  0  0  0  0  0  0  0
  187.2950  177.5100  135.5400 C   0  0  2  0  0  3  0  0  0  0  0  0
  187.5640  175.0500  136.4960 C   0  0  2  0  0  3  0  0  0  0  0  0
  187.7860  175.9260  134.8710 S   0  0  0  0  0  0  0  0  0  0  0  0
  187.2420  175.9710  137.5180 O   0  0  0  0  0  0  0  0  0  0  0  0
  186.8180  177.2270  136.9530 C   0  0  1  0  0  3  0  0  0  0  0  0
  186.1890  177.9090  134.8740 O   0  0  0  0  0  1  0  0  0  0  0  0
  188.6410  173.9880  136.8060 C   0  0  0  0  0  2  0  0  0  0  0  0
  187.9870  172.5960  136.8360 C   0  0  2  0  0  3  0  0  0  0  0  0
  185.7820  172.1420  135.9830 N   0  0  0  0  0  0  0  0  0  0  0  0
  187.9920  172.0260  135.4210 C   0  0  0  0  0  2  0  0  0  0  0  0
  186.7560  171.9550  134.9420 C   0  0  0  0  0  2  0  0  0  0  0  0
  186.4940  172.6340  137.1600 C   0  0  0  0  0  2  0  0  0  0  0  0
  184.5160  171.4180  135.8730 C   0  0  0  0  0  0  0  0  0  0  0  0
  184.5150  170.3810  135.1950 O   0  0  0  0  0  0  0  0  0  0  0  0
  182.7170  172.1360  137.2720 O   0  0  0  0  0  1  0  0  0  0  0  0
  183.2470  172.1750  135.9790 C   0  0  1  0  0  3  0  0  0  0  0  0
  183.6010  173.5910  135.5970 C   0  0  0  0  0  2  0  0  0  0  0  0
  182.6060  174.7670  135.7910 C   0  0  2  0  0  3  0  0  0  0  0  0
  183.2470  175.9590  135.2220 N   0  0  0  0  0  1  0  0  0  0  0  0
  182.1190  175.0690  137.2680 C   0  0  0  0  0  2  0  0  0  0  0  0
  180.7000  175.1910  137.3250 O   0  0  0  0  0  1  0  0  0  0  0  0
  185.2720  178.9160  140.5140 S   0  0  0  0  0  0  0  0  0  0  0  0
  183.1560  178.4840  139.3610 C   0  0  0  0  0  0  0  0  0  0  0  0
  184.1600  178.1840  138.4130 C   0  0  0  0  0  3  0  0  0  0  0  0
  183.6300  178.8770  140.5640 C   0  0  0  0  0  3  0  0  0  0  0  0
  185.4760  178.3990  138.8630 C   0  0  0  0  0  0  0  0  0  0  0  0
  181.7290  178.3200  139.1630 C   0  0  0  0  0  2  0  0  0  0  0  0
  181.2790  178.6560  137.8680 O   0  0  0  0  0  0  0  0  0  0  0  0
  180.6990  179.9260  137.9750 C   0  0  0  0  0  2  0  0  0  0  0  0
  180.9180  180.9220  135.8340 O   0  0  0  0  0  0  0  0  0  0  0  0
  180.0510  180.5950  136.8480 C   0  0  2  0  0  3  0  0  0  0  0  0
  180.5980  181.9960  136.7230 C   0  0  0  0  0  2  0  0  0  0  0  0
  188.9990  178.0950  138.8180 O   0  0  0  0  0  0  0  0  0  0  0  0
  189.5920  178.0240  140.1310 C   0  0  0  0  0  2  0  0  0  0  0  0
  190.2050  175.9490  139.4310 O   0  0  0  0  0  1  0  0  0  0  0  0
  189.9920  176.6440  140.6160 C   0  0  1  0  0  3  0  0  0  0  0  0
  191.1670  176.6550  141.5210 C   0  0  0  0  0  0  0  0  0  0  0  0
  192.4360  177.1390  141.0690 C   0  0  0  0  0  3  0  0  0  0  0  0
  192.9270  177.5600  139.5300 C   0  0  1  0  0  3  0  0  0  0  0  0
  193.8790  178.6230  139.4470 O   0  0  0  0  0  1  0  0  0  0  0  0
  193.4650  176.4280  138.7040 N   0  0  0  0  0  1  0  0  0  0  0  0
  190.7680  176.1200  142.9450 C   0  0  0  0  0  2  0  0  0  0  0  0
  187.2120  177.6960  144.4200 C   0  0  0  0  0  0  0  0  0  0  0  0
  189.5340  178.0710  143.8030 C   0  0  0  0  0  3  0  0  0  0  0  0
  187.1890  176.4510  143.7940 C   0  0  0  0  0  3  0  0  0  0  0  0
  188.3170  178.5100  144.3870 C   0  0  0  0  0  3  0  0  0  0  0  0
  189.4990  176.7740  143.3280 C   0  0  0  0  0  0  0  0  0  0  0  0
  188.4090  176.0720  143.2350 N   0  0  0  0  0  0  0  0  0  0  0  0
  185.8220  178.3480  146.4230 C   0  0  0  0  0  0  0  0  0  0  0  0
  185.9500  178.1990  144.9960 N   0  0  0  0  0  2  0  0  0  0  0  0
  184.8480  179.0370  146.9230 O   0  0  0  0  0  0  0  0  0  0  0  0
  186.6240  177.6680  147.3610 O   0  0  0  0  0  0  0  0  0  0  0  0
  187.3200  178.0520  149.5160 O   0  0  0  0  0  1  0  0  0  0  0  0
  187.5840  178.3190  148.1650 C   0  0  1  0  0  3  0  0  0  0  0  0
  188.9350  177.8290  147.7930 C   0  0  0  0  0  0  0  0  0  0  0  0
  189.8520  178.6750  147.6750 O   0  0  0  0  0  0  0  0  0  0  0  0
  189.1940  176.3360  147.5400 C   0  0  0  0  0  3  0  0  0  0  0  0
  188.2920  175.4380  148.1970 F   0  0  0  0  0  0  0  0  0  0  0  0
  190.4660  175.9410  147.0180 F   0  0  0  0  0  0  0  0  0  0  0  0
  2  1  2  0  0  0  0
  2 28  1  0  0  0  0
  3  8  1  6  0  0  0
  3  7  1  0  0  0  0
  4  9  1  1  0  0  0
  4  6  1  0  0  0  0
  5  3  1  0  0  0  0
  5  4  1  0  0  0  0
  7  6  1  0  0  0  0
  7  2  1  1  0  0  0
 10  9  1  6  0  0  0
 10 14  1  0  0  0  0
 11 14  1  0  0  0  0
 12 10  1  0  0  0  0
 13 12  1  0  0  0  0
 13 11  1  0  0  0  0
 15 18  1  0  0  0  0
 15 11  1  0  0  0  0
 16 15  2  0  0  0  0
 18 17  1  1  0  0  0
 19 20  1  0  0  0  0
 19 18  1  0  0  0  0
 20 21  1  1  0  0  0
 20 22  1  0  0  0  0
 22 23  1  0  0  0  0
 24 27  1  0  0  0  0
 25 27  2  0  0  0  0
 26 28  2  0  0  0  0
 26 25  1  0  0  0  0
 28 24  1  0  0  0  0
 29 25  1  0  0  0  0
 30 31  1  0  0  0  0
 30 29  1  0  0  0  0
 32 34  1  0  0  0  0
 32 33  1  0  0  0  0
 33 31  1  1  0  0  0
 34 33  1  0  0  0  0
 35  1  1  0  0  0  0
 35 36  1  0  0  0  0
 36 38  1  0  0  0  0
 38 37  1  6  0  0  0
 38 39  1  0  0  0  0
 39 44  1  0  0  0  0
 40 39  2  0  0  0  0
 41 43  1  1  0  0  0
 41 40  1  0  0  0  0
 42 41  1  0  0  0  0
 44 49  1  0  0  0  0
 45 52  1  0  0  0  0
 46 48  2  0  0  0  0
 47 45  2  0  0  0  0
 48 45  1  0  0  0  0
 49 46  1  0  0  0  0
 50 49  2  0  0  0  0
 50 47  1  0  0  0  0
 51 53  2  0  0  0  0
 51 54  1  0  0  0  0
 52 51  1  0  0  0  0
 54 56  1  0  0  0  0
 56 55  1  1  0  0  0
 57 56  1  0  0  0  0
 58 57  2  0  0  0  0
 59 57  1  0  0  0  0
 59 60  1  0  0  0  0
 61 59  1  0  0  0  0
M  END
>  <MODEL>
7

>  <REMARK>
 VINA RESULT:      -4.9      3.674      7.682
  Name = 
  24 active torsions:
  status: ('A' for Active; 'I' for Inactive)
    1  A    between atoms: C_2  and  O_55
    2  A    between atoms: C_3  and  C_47
    3  A    between atoms: CA_4  and  C_11
    4  A    between atoms: CA_4  and  C_25
    5  A    between atoms: C_7  and  C_9
    6  A    between atoms: C_7  and  C_24
    7  A    between atoms: C_8  and  C_47
    8  A    between atoms: C_10  and  C_30
    9  A    between atoms: C_10  and  C_50
   10  A    between atoms: C_14  and  N_37
   11  A    between atoms: C_15  and  C_16
   12  A    between atoms: N_22  and  O_60
   13  A    between atoms: C_24  and  O_55
   14  A    between atoms: C_25  and  C_56
   15  A    between atoms: C_30  and  C_58
   16  A    between atoms: C_32  and  O_38
   17  A    between atoms: C_32  and  C_44
   18  A    between atoms: C_33  and  C_34
   19  A    between atoms: C_33  and  O_38
   20  A    between atoms: C_42  and  C_45
   21  A    between atoms: C_45  and  C_61
   22  A    between atoms: C_50  and  C_53
   23  A    between atoms: C_51  and  C_56
   24  A    between atoms: C_58  and  O_60
                            x       y       z     vdW  Elec       q    Type
                         _______ _______ _______ _____ _____    ______ ____

>  <TORSDO>
F 24

$$$$
=
 OpenBabel10222418463D

 61 65  0  0  1  0  0  0  0  0999 V2000
  189.6660  174.7860  135.6470 N   0  0  0  0  0  0  0  0  0  0  0  0
  190.3700  175.8730  135.7320 C   0  0  0  0  0  0  0  0  0  0  0  0
  188.2060  177.4800  135.8520 C   0  0  2  0  0  3  0  0  0  0  0  0
  189.3780  178.7680  137.8530 C   0  0  2  0  0  3  0  0  0  0  0  0
  187.7470  178.8060  136.9600 S   0  0  0  0  0  0  0  0  0  0  0  0
  190.1770  177.7010  137.3850 O   0  0  0  0  0  0  0  0  0  0  0  0
  189.6720  177.2020  136.1300 C   0  0  1  0  0  3  0  0  0  0  0  0
  188.1790  177.9720  134.5940 O   0  0  0  0  0  1  0  0  0  0  0  0
  189.2780  178.9680  139.3810 C   0  0  0  0  0  2  0  0  0  0  0  0
  188.7500  177.6770  140.0280 C   0  0  2  0  0  3  0  0  0  0  0  0
  189.0250  177.1480  142.3610 N   0  0  0  0  0  0  0  0  0  0  0  0
  187.5280  178.0220  140.8750 C   0  0  0  0  0  2  0  0  0  0  0  0
  187.7960  177.8690  142.1660 C   0  0  0  0  0  2  0  0  0  0  0  0
  189.7010  177.0860  141.0680 C   0  0  0  0  0  2  0  0  0  0  0  0
  189.1260  176.2730  143.5280 C   0  0  0  0  0  0  0  0  0  0  0  0
  188.0660  175.8440  144.0070 O   0  0  0  0  0  0  0  0  0  0  0  0
  191.5020  176.3790  143.7580 O   0  0  0  0  0  1  0  0  0  0  0  0
  190.2830  176.4280  144.4410 C   0  0  1  0  0  3  0  0  0  0  0  0
  190.0950  177.7770  145.0890 C   0  0  0  0  0  2  0  0  0  0  0  0
  189.6120  177.9220  146.5580 C   0  0  2  0  0  3  0  0  0  0  0  0
  190.4460  177.0240  147.3660 N   0  0  0  0  0  1  0  0  0  0  0  0
  188.0800  177.6450  146.8490 C   0  0  0  0  0  2  0  0  0  0  0  0
  187.7790  177.8240  148.2300 O   0  0  0  0  0  1  0  0  0  0  0  0
  192.4220  176.2550  137.7720 S   0  0  0  0  0  0  0  0  0  0  0  0
  193.5170  174.1960  137.0290 C   0  0  0  0  0  0  0  0  0  0  0  0
  192.4440  174.3860  136.1300 C   0  0  0  0  0  3  0  0  0  0  0  0
  193.6330  175.1620  137.9670 C   0  0  0  0  0  3  0  0  0  0  0  0
  191.6470  175.5150  136.3990 C   0  0  0  0  0  0  0  0  0  0  0  0
  194.5030  173.1340  136.9570 C   0  0  0  0  0  2  0  0  0  0  0  0
  195.6330  173.3340  137.7770 O   0  0  0  0  0  0  0  0  0  0  0  0
  196.6710  173.7220  136.9210 C   0  0  0  0  0  2  0  0  0  0  0  0
  198.8390  174.6140  136.5650 O   0  0  0  0  0  0  0  0  0  0  0  0
  197.6860  174.7020  137.3050 C   0  0  2  0  0  3  0  0  0  0  0  0
  198.8950  173.9780  137.8450 C   0  0  0  0  0  2  0  0  0  0  0  0
  188.3270  174.5700  135.6260 O   0  0  0  0  0  0  0  0  0  0  0  0
  187.8260  174.0640  136.8810 C   0  0  0  0  0  2  0  0  0  0  0  0
  186.3400  172.8970  138.1460 O   0  0  0  0  0  1  0  0  0  0  0  0
  186.5790  173.2060  136.8110 C   0  0  1  0  0  3  0  0  0  0  0  0
  185.4380  173.8770  136.1400 C   0  0  0  0  0  0  0  0  0  0  0  0
  184.3930  173.1110  135.5320 C   0  0  0  0  0  3  0  0  0  0  0  0
  184.3010  171.4670  135.2550 C   0  0  1  0  0  3  0  0  0  0  0  0
  185.5340  170.8170  134.9420 O   0  0  0  0  0  1  0  0  0  0  0  0
  183.6570  170.6740  136.3550 N   0  0  0  0  0  1  0  0  0  0  0  0
  185.5750  175.4380  136.2550 C   0  0  0  0  0  2  0  0  0  0  0  0
  181.7890  176.7320  137.4000 C   0  0  0  0  0  0  0  0  0  0  0  0
  183.6850  175.2680  137.8250 C   0  0  0  0  0  3  0  0  0  0  0  0
  182.5110  177.4890  136.4810 C   0  0  0  0  0  3  0  0  0  0  0  0
  182.3570  175.6910  138.0950 C   0  0  0  0  0  3  0  0  0  0  0  0
  184.3040  175.9590  136.8020 C   0  0  0  0  0  0  0  0  0  0  0  0
  183.8090  177.0310  136.2570 N   0  0  0  0  0  0  0  0  0  0  0  0
  180.2050  178.5030  138.2460 C   0  0  0  0  0  0  0  0  0  0  0  0
  180.4230  177.1750  137.7350 N   0  0  0  0  0  2  0  0  0  0  0  0
  179.0110  179.0010  138.2820 O   0  0  0  0  0  0  0  0  0  0  0  0
  181.2040  179.2850  138.8580 O   0  0  0  0  0  0  0  0  0  0  0  0
  180.6670  178.2640  140.8450 O   0  0  0  0  0  1  0  0  0  0  0  0
  181.5360  179.1740  140.2260 C   0  0  1  0  0  3  0  0  0  0  0  0
  182.9420  178.7120  140.3420 C   0  0  0  0  0  0  0  0  0  0  0  0
  183.2550  178.0410  141.3540 O   0  0  0  0  0  0  0  0  0  0  0  0
  183.9840  179.0640  139.2700 C   0  0  0  0  0  3  0  0  0  0  0  0
  185.1020  178.1720  139.1880 F   0  0  0  0  0  0  0  0  0  0  0  0
  183.9780  180.3830  138.7170 F   0  0  0  0  0  0  0  0  0  0  0  0
  1  2  2  0  0  0  0
  2 28  1  0  0  0  0
  3  8  1  6  0  0  0
  3  7  1  0  0  0  0
  3  5  1  0  0  0  0
  4  9  1  1  0  0  0
  5  4  1  0  0  0  0
  6  4  1  0  0  0  0
  7  2  1  1  0  0  0
  7  6  1  0  0  0  0
 10  9  1  1  0  0  0
 10 12  1  0  0  0  0
 10 14  1  0  0  0  0
 11 15  1  0  0  0  0
 12 13  1  0  0  0  0
 13 11  1  0  0  0  0
 14 11  1  0  0  0  0
 15 16  2  0  0  0  0
 15 18  1  0  0  0  0
 18 17  1  6  0  0  0
 18 19  1  0  0  0  0
 19 20  1  0  0  0  0
 20 22  1  0  0  0  0
 20 21  1  1  0  0  0
 22 23  1  0  0  0  0
 24 27  1  0  0  0  0
 25 27  2  0  0  0  0
 26 28  2  0  0  0  0
 26 25  1  0  0  0  0
 28 24  1  0  0  0  0
 29 25  1  0  0  0  0
 29 30  1  0  0  0  0
 31 30  1  0  0  0  0
 32 33  1  0  0  0  0
 32 34  1  0  0  0  0
 33 31  1  6  0  0  0
 33 34  1  0  0  0  0
 35  1  1  0  0  0  0
 35 36  1  0  0  0  0
 38 36  1  0  0  0  0
 38 37  1  1  0  0  0
 39 44  1  0  0  0  0
 39 38  1  0  0  0  0
 40 39  2  0  0  0  0
 41 42  1  1  0  0  0
 41 40  1  0  0  0  0
 41 43  1  0  0  0  0
 44 49  1  0  0  0  0
 45 52  1  0  0  0  0
 45 48  1  0  0  0  0
 46 48  2  0  0  0  0
 47 45  2  0  0  0  0
 49 46  1  0  0  0  0
 50 47  1  0  0  0  0
 50 49  2  0  0  0  0
 51 53  2  0  0  0  0
 51 54  1  0  0  0  0
 52 51  1  0  0  0  0
 54 56  1  0  0  0  0
 56 57  1  0  0  0  0
 56 55  1  6  0  0  0
 57 58  2  0  0  0  0
 59 57  1  0  0  0  0
 60 59  1  0  0  0  0
 61 59  1  0  0  0  0
M  END
>  <MODEL>
8

>  <REMARK>
 VINA RESULT:      -4.9      2.521      7.685
  Name = 
  24 active torsions:
  status: ('A' for Active; 'I' for Inactive)
    1  A    between atoms: C_2  and  O_55
    2  A    between atoms: C_3  and  C_47
    3  A    between atoms: CA_4  and  C_11
    4  A    between atoms: CA_4  and  C_25
    5  A    between atoms: C_7  and  C_9
    6  A    between atoms: C_7  and  C_24
    7  A    between atoms: C_8  and  C_47
    8  A    between atoms: C_10  and  C_30
    9  A    between atoms: C_10  and  C_50
   10  A    between atoms: C_14  and  N_37
   11  A    between atoms: C_15  and  C_16
   12  A    between atoms: N_22  and  O_60
   13  A    between atoms: C_24  and  O_55
   14  A    between atoms: C_25  and  C_56
   15  A    between atoms: C_30  and  C_58
   16  A    between atoms: C_32  and  O_38
   17  A    between atoms: C_32  and  C_44
   18  A    between atoms: C_33  and  C_34
   19  A    between atoms: C_33  and  O_38
   20  A    between atoms: C_42  and  C_45
   21  A    between atoms: C_45  and  C_61
   22  A    between atoms: C_50  and  C_53
   23  A    between atoms: C_51  and  C_56
   24  A    between atoms: C_58  and  O_60
                            x       y       z     vdW  Elec       q    Type
                         _______ _______ _______ _____ _____    ______ ____

>  <TORSDO>
F 24

$$$$
=
 OpenBabel10222418463D

 61 65  0  0  1  0  0  0  0  0999 V2000
  187.4200  178.5090  138.7860 N   0  0  0  0  0  0  0  0  0  0  0  0
  186.5970  178.2680  137.8130 C   0  0  0  0  0  0  0  0  0  0  0  0
  187.8650  177.7350  135.4910 C   0  0  2  0  0  3  0  0  0  0  0  0
  187.9200  175.1800  136.2060 C   0  0  2  0  0  3  0  0  0  0  0  0
  188.5590  176.2330  134.8130 S   0  0  0  0  0  0  0  0  0  0  0  0
  187.3080  175.9830  137.1950 O   0  0  0  0  0  0  0  0  0  0  0  0
  187.0250  177.2980  136.6780 C   0  0  1  0  0  3  0  0  0  0  0  0
  186.9750  178.2140  134.5940 O   0  0  0  0  0  1  0  0  0  0  0  0
  188.8960  174.0820  136.6820 C   0  0  0  0  0  2  0  0  0  0  0  0
  188.2420  172.7040  136.4910 C   0  0  2  0  0  3  0  0  0  0  0  0
  185.9150  172.3980  135.9520 N   0  0  0  0  0  0  0  0  0  0  0  0
  187.9900  172.4870  135.0020 C   0  0  0  0  0  2  0  0  0  0  0  0
  186.6880  172.4950  134.7430 C   0  0  0  0  0  2  0  0  0  0  0  0
  186.8300  172.6170  137.0690 C   0  0  0  0  0  2  0  0  0  0  0  0
  184.6410  171.6830  135.8940 C   0  0  0  0  0  0  0  0  0  0  0  0
  184.5080  170.8370  134.9980 O   0  0  0  0  0  0  0  0  0  0  0  0
  183.7190  173.4160  137.2540 O   0  0  0  0  0  1  0  0  0  0  0  0
  183.4200  172.3540  136.3970 C   0  0  1  0  0  3  0  0  0  0  0  0
  182.7090  172.8530  135.1650 C   0  0  0  0  0  2  0  0  0  0  0  0
  181.3130  172.3160  134.7470 C   0  0  2  0  0  3  0  0  0  0  0  0
  180.4380  173.4860  134.6010 N   0  0  0  0  0  1  0  0  0  0  0  0
  180.6330  171.2470  135.6970 C   0  0  0  0  0  2  0  0  0  0  0  0
  179.3950  170.7930  135.1550 O   0  0  0  0  0  1  0  0  0  0  0  0
  184.2350  179.2990  139.1820 S   0  0  0  0  0  0  0  0  0  0  0  0
  183.1270  177.1400  138.8560 C   0  0  0  0  0  0  0  0  0  0  0  0
  184.4350  176.9620  138.3520 C   0  0  0  0  0  3  0  0  0  0  0  0
  182.8910  178.3710  139.3620 C   0  0  0  0  0  3  0  0  0  0  0  0
  185.2480  178.1100  138.4100 C   0  0  0  0  0  0  0  0  0  0  0  0
  182.1070  176.1130  138.9420 C   0  0  0  0  0  2  0  0  0  0  0  0
  181.0460  176.2690  138.0240 O   0  0  0  0  0  0  0  0  0  0  0  0
  181.4970  177.1780  137.0590 C   0  0  0  0  0  2  0  0  0  0  0  0
  182.4690  177.0930  134.8980 O   0  0  0  0  0  0  0  0  0  0  0  0
  181.3110  176.9640  135.6250 C   0  0  2  0  0  3  0  0  0  0  0  0
  181.6200  178.2440  134.8890 C   0  0  0  0  0  2  0  0  0  0  0  0
  188.7410  178.2460  138.9460 O   0  0  0  0  0  0  0  0  0  0  0  0
  189.0810  177.9110  140.3070 C   0  0  0  0  0  2  0  0  0  0  0  0
  189.8970  176.0480  139.2900 O   0  0  0  0  0  1  0  0  0  0  0  0
  189.5280  176.4840  140.5580 C   0  0  1  0  0  3  0  0  0  0  0  0
  190.6110  176.3740  141.5660 C   0  0  0  0  0  0  0  0  0  0  0  0
  191.8850  176.9880  141.3430 C   0  0  0  0  0  3  0  0  0  0  0  0
  192.4910  177.7110  139.9650 C   0  0  1  0  0  3  0  0  0  0  0  0
  193.6570  178.5170  140.1450 O   0  0  0  0  0  1  0  0  0  0  0  0
  192.7810  176.7710  138.8310 N   0  0  0  0  0  1  0  0  0  0  0  0
  190.1140  175.5660  142.8190 C   0  0  0  0  0  2  0  0  0  0  0  0
  187.9210  177.8650  145.5050 C   0  0  0  0  0  0  0  0  0  0  0  0
  190.0780  176.9490  144.8560 C   0  0  0  0  0  3  0  0  0  0  0  0
  187.3510  177.5350  144.2770 C   0  0  0  0  0  3  0  0  0  0  0  0
  189.2480  177.6370  145.7790 C   0  0  0  0  0  3  0  0  0  0  0  0
  189.4260  176.5150  143.7190 C   0  0  0  0  0  0  0  0  0  0  0  0
  188.2120  176.8640  143.4100 N   0  0  0  0  0  0  0  0  0  0  0  0
  185.6660  178.6680  146.3020 C   0  0  0  0  0  0  0  0  0  0  0  0
  187.0960  178.6210  146.4660 N   0  0  0  0  0  2  0  0  0  0  0  0
  184.9110  179.0810  147.2690 O   0  0  0  0  0  0  0  0  0  0  0  0
  185.0050  178.4190  145.0830 O   0  0  0  0  0  0  0  0  0  0  0  0
  184.4460  180.5110  144.3140 O   0  0  0  0  0  1  0  0  0  0  0  0
  183.9540  179.2290  144.6010 C   0  0  1  0  0  3  0  0  0  0  0  0
  183.3880  178.6040  143.3790 C   0  0  0  0  0  0  0  0  0  0  0  0
  184.1720  177.9830  142.6230 O   0  0  0  0  0  0  0  0  0  0  0  0
  181.8950  178.7350  143.0400 C   0  0  0  0  0  3  0  0  0  0  0  0
  181.5900  179.6260  141.9600 F   0  0  0  0  0  0  0  0  0  0  0  0
  180.9340  178.2950  144.0030 F   0  0  0  0  0  0  0  0  0  0  0  0
  1 35  1  0  0  0  0
  2 28  1  0  0  0  0
  2  1  2  0  0  0  0
  3  8  1  6  0  0  0
  3  7  1  0  0  0  0
  4  9  1  1  0  0  0
  4  6  1  0  0  0  0
  5  3  1  0  0  0  0
  5  4  1  0  0  0  0
  7  6  1  0  0  0  0
  7  2  1  1  0  0  0
 10  9  1  6  0  0  0
 10 14  1  0  0  0  0
 11 14  1  0  0  0  0
 12 10  1  0  0  0  0
 13 12  1  0  0  0  0
 13 11  1  0  0  0  0
 15 11  1  0  0  0  0
 15 18  1  0  0  0  0
 16 15  2  0  0  0  0
 18 17  1  1  0  0  0
 19 18  1  0  0  0  0
 20 21  1  1  0  0  0
 20 19  1  0  0  0  0
 20 22  1  0  0  0  0
 23 22  1  0  0  0  0
 24 27  1  0  0  0  0
 25 29  1  0  0  0  0
 25 27  2  0  0  0  0
 26 28  2  0  0  0  0
 26 25  1  0  0  0  0
 28 24  1  0  0  0  0
 30 29  1  0  0  0  0
 31 30  1  0  0  0  0
 32 33  1  0  0  0  0
 33 31  1  1  0  0  0
 34 32  1  0  0  0  0
 34 33  1  0  0  0  0
 35 36  1  0  0  0  0
 36 38  1  0  0  0  0
 38 37  1  6  0  0  0
 38 39  1  0  0  0  0
 39 44  1  0  0  0  0
 40 39  2  0  0  0  0
 41 43  1  6  0  0  0
 41 42  1  0  0  0  0
 41 40  1  0  0  0  0
 44 49  1  0  0  0  0
 45 48  1  0  0  0  0
 45 52  1  0  0  0  0
 46 48  2  0  0  0  0
 47 45  2  0  0  0  0
 49 46  1  0  0  0  0
 50 49  2  0  0  0  0
 50 47  1  0  0  0  0
 51 52  1  0  0  0  0
 51 53  2  0  0  0  0
 54 51  1  0  0  0  0
 56 55  1  6  0  0  0
 56 54  1  0  0  0  0
 57 56  1  0  0  0  0
 58 57  2  0  0  0  0
 59 57  1  0  0  0  0
 59 61  1  0  0  0  0
 60 59  1  0  0  0  0
M  END
>  <MODEL>
9

>  <REMARK>
 VINA RESULT:      -4.8      3.231      6.487
  Name = 
  24 active torsions:
  status: ('A' for Active; 'I' for Inactive)
    1  A    between atoms: C_2  and  O_55
    2  A    between atoms: C_3  and  C_47
    3  A    between atoms: CA_4  and  C_11
    4  A    between atoms: CA_4  and  C_25
    5  A    between atoms: C_7  and  C_9
    6  A    between atoms: C_7  and  C_24
    7  A    between atoms: C_8  and  C_47
    8  A    between atoms: C_10  and  C_30
    9  A    between atoms: C_10  and  C_50
   10  A    between atoms: C_14  and  N_37
   11  A    between atoms: C_15  and  C_16
   12  A    between atoms: N_22  and  O_60
   13  A    between atoms: C_24  and  O_55
   14  A    between atoms: C_25  and  C_56
   15  A    between atoms: C_30  and  C_58
   16  A    between atoms: C_32  and  O_38
   17  A    between atoms: C_32  and  C_44
   18  A    between atoms: C_33  and  C_34
   19  A    between atoms: C_33  and  O_38
   20  A    between atoms: C_42  and  C_45
   21  A    between atoms: C_45  and  C_61
   22  A    between atoms: C_50  and  C_53
   23  A    between atoms: C_51  and  C_56
   24  A    between atoms: C_58  and  O_60
                            x       y       z     vdW  Elec       q    Type
                         _______ _______ _______ _____ _____    ______ ____

>  <TORSDO>
F 24

$$$$
