=
 OpenBabel10222416433D

 45 50  0  0  1  0  0  0  0  0999 V2000
  188.4210  177.7650  141.4440 C   0  0  2  0  0  3  0  0  0  0  0  0
  186.1310  177.6660  142.4870 C   0  0  2  0  0  3  0  0  0  0  0  0
  188.0130  177.2820  144.0430 C   0  0  1  0  0  3  0  0  0  0  0  0
  187.0720  178.3520  143.4630 C   0  0  1  0  0  3  0  0  0  0  0  0
  189.4180  177.3720  143.5710 N   0  0  0  0  0  0  0  0  0  0  0  0
  187.2310  178.5600  141.9560 C   0  0  1  0  0  3  0  0  0  0  0  0
  189.5550  178.0440  142.3240 N   0  0  0  0  0  2  0  0  0  0  0  0
  187.9170  177.2400  145.5680 C   0  0  0  0  0  3  0  0  0  0  0  0
  186.7710  178.3580  147.5530 C   0  0  0  0  0  2  0  0  0  0  0  0
  187.7600  177.5390  148.2360 N   0  0  0  0  0  2  0  0  0  0  0  0
  189.1940  177.7820  146.2070 C   0  0  0  0  0  2  0  0  0  0  0  0
  186.6470  177.9330  146.0920 C   0  0  0  0  0  2  0  0  0  0  0  0
  189.0780  177.9240  147.7340 C   0  0  0  0  0  2  0  0  0  0  0  0
  189.8800  176.1080  143.3930 O   0  0  0  0  0  0  0  0  0  0  0  0
  191.2670  176.2390  143.2860 C   0  0  0  0  0  2  0  0  0  0  0  0
  191.8630  176.0070  144.5240 O   0  0  0  0  0  0  0  0  0  0  0  0
  192.1340  174.6350  144.5560 C   0  0  0  0  0  1  0  0  0  0  0  0
  188.7460  178.1990  140.0290 C   0  0  0  0  0  2  0  0  0  0  0  0
  187.5700  177.9280  139.1040 C   0  0  0  0  0  2  0  0  0  0  0  0
  188.8450  177.2310  137.0430 C   0  0  0  0  0  2  0  0  0  0  0  0
  188.4830  177.3060  135.5770 C   0  0  0  0  0  2  0  0  0  0  0  0
  187.3040  178.1730  135.4460 N   0  0  2  0  0  0  0  0  0  0  0  0
  186.7950  178.4190  136.7490 N   0  0  1  0  0  0  0  0  0  0  0  0
  186.2930  177.4220  134.7050 C   0  0  0  0  0  2  0  0  0  0  0  0
  185.7500  177.4200  136.9980 C   0  0  0  0  0  2  0  0  0  0  0  0
  185.1770  177.0770  135.6590 C   0  0  0  0  0  2  0  0  0  0  0  0
  187.9410  178.2620  137.6540 C   0  0  1  0  0  3  0  0  0  0  0  0
  184.8170  178.4240  142.4120 C   0  0  0  0  0  2  0  0  0  0  0  0
  184.4000  178.6780  140.9960 C   0  0  0  0  0  0  0  0  0  0  0  0
  183.6050  177.8210  140.4150 C   0  0  0  0  0  0  0  0  0  0  0  0
  182.8230  176.9550  139.8430 C   0  0  0  0  0  3  0  0  0  0  0  0
  184.3940  180.0830  139.0760 O   0  0  0  0  0  1  0  0  0  0  0  0
  184.9150  179.7530  140.2620 O   0  0  0  0  0  0  0  0  0  0  0  0
  182.2970  177.2020  138.4760 C   0  0  0  0  0  2  0  0  0  0  0  0
  180.8520  176.9970  138.4810 N   0  0  0  0  0  2  0  0  0  0  0  0
  180.3210  177.6730  137.2960 C   0  0  2  0  0  3  0  0  0  0  0  0
  180.0920  176.6740  136.2000 C   0  0  0  0  0  3  0  0  0  0  0  0
  180.5480  176.8700  135.0840 O   0  0  0  0  0  0  0  0  0  0  0  0
  181.2280  178.8290  136.8350 C   0  0  0  0  0  2  0  0  0  0  0  0
  180.1550  182.3510  135.7460 C   0  0  0  0  0  2  0  0  0  0  0  0
  180.6770  182.4970  137.9290 C   0  0  0  0  0  2  0  0  0  0  0  0
  180.9710  183.0300  136.6620 O   0  0  0  0  0  0  0  0  0  0  0  0
  181.2260  181.0730  138.0250 C   0  0  0  0  0  2  0  0  0  0  0  0
  180.5820  180.2110  136.9370 C   0  0  0  0  0  3  0  0  0  0  0  0
  180.6450  180.9130  135.5780 C   0  0  0  0  0  2  0  0  0  0  0  0
  1 18  1  6  0  0  0
  1  6  1  0  0  0  0
  1  7  1  0  0  0  0
  2 28  1  1  0  0  0
  2  4  1  0  0  0  0
  3  8  1  1  0  0  0
  4  3  1  0  0  0  0
  5  3  1  0  0  0  0
  6  2  1  0  0  0  0
  6  4  1  0  0  0  0
  7  5  1  0  0  0  0
  8 12  1  0  0  0  0
  8 11  1  0  0  0  0
  9 10  1  0  0  0  0
 11 13  1  0  0  0  0
 12  9  1  0  0  0  0
 13 10  1  0  0  0  0
 14  5  1  0  0  0  0
 15 14  1  0  0  0  0
 15 16  1  0  0  0  0
 16 17  1  0  0  0  0
 19 18  1  0  0  0  0
 20 27  1  0  0  0  0
 21 20  1  0  0  0  0
 22 21  1  0  0  0  0
 22 23  1  0  0  0  0
 23 25  1  0  0  0  0
 23 27  1  0  0  0  0
 24 22  1  0  0  0  0
 24 26  1  0  0  0  0
 26 25  1  0  0  0  0
 27 19  1  0  0  0  0
 29 28  1  0  0  0  0
 30 29  2  0  0  0  0
 31 30  2  0  0  0  0
 32 33  1  0  0  0  0
 33 29  1  0  0  0  0
 34 35  1  0  0  0  0
 34 31  1  0  0  0  0
 36 35  1  0  0  0  0
 37 36  1  0  0  0  0
 38 37  2  0  0  0  0
 39 44  1  0  0  0  0
 39 36  1  0  0  0  0
 40 42  1  0  0  0  0
 41 43  1  0  0  0  0
 42 41  1  0  0  0  0
 44 43  1  0  0  0  0
 45 40  1  0  0  0  0
 45 44  1  0  0  0  0
M  END
>  <MODEL>
1

>  <REMARK>
 VINA RESULT:      -7.4      0.000      0.000
  Name = 
  16 active torsions:
  status: ('A' for Active; 'I' for Inactive)
    1  A    between atoms: C_1  and  O_23
    2  A    between atoms: C_1  and  C_28
    3  A    between atoms: C_4  and  CA_5
    4  A    between atoms: CA_5  and  C_21
    5  A    between atoms: CA_5  and  N_45
    6  A    between atoms: C_6  and  C_25
    7  A    between atoms: O_7  and  C_10
    8  A    between atoms: O_7  and  N_34
    9  A    between atoms: C_10  and  O_14
   10  A    between atoms: C_12  and  C_22
   11  A    between atoms: C_17  and  C_28
   12  A    between atoms: C_18  and  C_22
   13  A    between atoms: C_18  and  C_41
   14  A    between atoms: C_21  and  C_29
   15  A    between atoms: C_35  and  C_37
   16  A    between atoms: C_37  and  N_45
                            x       y       z     vdW  Elec       q    Type
                         _______ _______ _______ _____ _____    ______ ____

>  <TORSDO>
F 16

$$$$
=
 OpenBabel10222416433D

 45 50  0  0  1  0  0  0  0  0999 V2000
  186.2260  178.1670  141.9730 C   0  0  2  0  0  3  0  0  0  0  0  0
  184.4860  178.2410  143.7930 C   0  0  2  0  0  3  0  0  0  0  0  0
  186.7440  177.5510  144.5240 C   0  0  1  0  0  3  0  0  0  0  0  0
  185.7980  178.7530  144.3640 C   0  0  1  0  0  3  0  0  0  0  0  0
  187.8780  177.5230  143.5640 N   0  0  0  0  0  0  0  0  0  0  0  0
  185.4170  179.0470  142.9110 C   0  0  1  0  0  3  0  0  0  0  0  0
  187.6300  178.2610  142.3740 N   0  0  0  0  0  2  0  0  0  0  0  0
  187.2110  177.4140  145.9730 C   0  0  0  0  0  3  0  0  0  0  0  0
  187.2270  178.6290  148.2150 C   0  0  0  0  0  2  0  0  0  0  0  0
  188.1380  177.5290  148.4960 N   0  0  0  0  0  2  0  0  0  0  0  0
  188.7290  177.5530  146.0700 C   0  0  0  0  0  2  0  0  0  0  0  0
  186.4620  178.3680  146.9200 C   0  0  0  0  0  2  0  0  0  0  0  0
  189.2270  177.5990  147.5240 C   0  0  0  0  0  2  0  0  0  0  0  0
  188.0800  176.2320  143.1960 O   0  0  0  0  0  0  0  0  0  0  0  0
  189.2350  176.2540  142.4100 C   0  0  0  0  0  2  0  0  0  0  0  0
  190.1370  175.2930  142.8640 O   0  0  0  0  0  0  0  0  0  0  0  0
  191.1340  176.0070  143.5360 C   0  0  0  0  0  1  0  0  0  0  0  0
  186.0600  178.6610  140.5500 C   0  0  0  0  0  2  0  0  0  0  0  0
  187.3780  178.5720  139.7970 C   0  0  0  0  0  2  0  0  0  0  0  0
  187.0740  178.4900  137.2950 C   0  0  0  0  0  2  0  0  0  0  0  0
  187.6730  177.5760  136.2500 C   0  0  0  0  0  2  0  0  0  0  0  0
  188.3020  176.4450  136.9450 N   0  0  2  0  0  0  0  0  0  0  0  0
  188.3320  176.7460  138.3320 N   0  0  1  0  0  0  0  0  0  0  0  0
  189.6820  176.3590  136.4750 C   0  0  0  0  0  2  0  0  0  0  0  0
  189.6380  177.3500  138.6130 C   0  0  0  0  0  2  0  0  0  0  0  0
  190.5860  176.7700  137.6100 C   0  0  0  0  0  2  0  0  0  0  0  0
  187.2250  177.6870  138.5540 C   0  0  1  0  0  3  0  0  0  0  0  0
  183.3430  179.1400  144.2320 C   0  0  0  0  0  2  0  0  0  0  0  0
  182.0650  178.8010  143.5260 C   0  0  0  0  0  0  0  0  0  0  0  0
  182.0810  178.6880  142.2260 C   0  0  0  0  0  0  0  0  0  0  0  0
  182.1050  178.5880  140.9300 C   0  0  0  0  0  3  0  0  0  0  0  0
  179.9180  177.8250  143.8290 O   0  0  0  0  0  1  0  0  0  0  0  0
  180.8530  178.6980  144.2160 O   0  0  0  0  0  0  0  0  0  0  0  0
  180.8950  178.1590  140.1840 C   0  0  0  0  0  2  0  0  0  0  0  0
  181.3060  177.5880  138.9060 N   0  0  0  0  0  2  0  0  0  0  0  0
  182.1930  178.5640  138.2670 C   0  0  2  0  0  3  0  0  0  0  0  0
  181.4150  179.4010  137.2970 C   0  0  0  0  0  3  0  0  0  0  0  0
  180.3660  178.9850  136.8290 O   0  0  0  0  0  0  0  0  0  0  0  0
  183.4060  177.8900  137.5980 C   0  0  0  0  0  2  0  0  0  0  0  0
  184.2120  174.2500  136.6820 C   0  0  0  0  0  2  0  0  0  0  0  0
  182.5950  174.9150  135.2660 C   0  0  0  0  0  2  0  0  0  0  0  0
  183.8940  174.3800  135.3220 O   0  0  0  0  0  0  0  0  0  0  0  0
  182.6240  176.3760  135.7150 C   0  0  0  0  0  2  0  0  0  0  0  0
  183.1540  176.4510  137.1490 C   0  0  0  0  0  3  0  0  0  0  0  0
  184.4380  175.6310  137.2980 C   0  0  0  0  0  2  0  0  0  0  0  0
  1 18  1  6  0  0  0
  1  7  1  0  0  0  0
  1  6  1  0  0  0  0
  2 28  1  1  0  0  0
  2  4  1  0  0  0  0
  3  8  1  1  0  0  0
  4  3  1  0  0  0  0
  5  3  1  0  0  0  0
  6  2  1  0  0  0  0
  6  4  1  0  0  0  0
  7  5  1  0  0  0  0
  8 11  1  0  0  0  0
  8 12  1  0  0  0  0
  9 10  1  0  0  0  0
 11 13  1  0  0  0  0
 12  9  1  0  0  0  0
 13 10  1  0  0  0  0
 14  5  1  0  0  0  0
 15 16  1  0  0  0  0
 15 14  1  0  0  0  0
 16 17  1  0  0  0  0
 19 18  1  0  0  0  0
 20 27  1  0  0  0  0
 21 22  1  0  0  0  0
 21 20  1  0  0  0  0
 22 23  1  0  0  0  0
 23 27  1  0  0  0  0
 23 25  1  0  0  0  0
 24 22  1  0  0  0  0
 24 26  1  0  0  0  0
 26 25  1  0  0  0  0
 27 19  1  0  0  0  0
 29 33  1  0  0  0  0
 29 28  1  0  0  0  0
 30 29  2  0  0  0  0
 31 30  2  0  0  0  0
 32 33  1  0  0  0  0
 34 31  1  0  0  0  0
 35 34  1  0  0  0  0
 36 35  1  0  0  0  0
 37 36  1  0  0  0  0
 38 37  2  0  0  0  0
 39 36  1  0  0  0  0
 40 45  1  0  0  0  0
 41 42  1  0  0  0  0
 41 43  1  0  0  0  0
 42 40  1  0  0  0  0
 43 44  1  0  0  0  0
 44 45  1  0  0  0  0
 44 39  1  0  0  0  0
M  END
>  <MODEL>
2

>  <REMARK>
 VINA RESULT:      -7.3      2.230      3.713
  Name = 
  16 active torsions:
  status: ('A' for Active; 'I' for Inactive)
    1  A    between atoms: C_1  and  O_23
    2  A    between atoms: C_1  and  C_28
    3  A    between atoms: C_4  and  CA_5
    4  A    between atoms: CA_5  and  C_21
    5  A    between atoms: CA_5  and  N_45
    6  A    between atoms: C_6  and  C_25
    7  A    between atoms: O_7  and  C_10
    8  A    between atoms: O_7  and  N_34
    9  A    between atoms: C_10  and  O_14
   10  A    between atoms: C_12  and  C_22
   11  A    between atoms: C_17  and  C_28
   12  A    between atoms: C_18  and  C_22
   13  A    between atoms: C_18  and  C_41
   14  A    between atoms: C_21  and  C_29
   15  A    between atoms: C_35  and  C_37
   16  A    between atoms: C_37  and  N_45
                            x       y       z     vdW  Elec       q    Type
                         _______ _______ _______ _____ _____    ______ ____

>  <TORSDO>
F 16

$$$$
=
 OpenBabel10222416433D

 45 50  0  0  1  0  0  0  0  0999 V2000
  185.0780  178.5960  144.6250 C   0  0  2  0  0  3  0  0  0  0  0  0
  186.4170  178.7860  142.5000 C   0  0  2  0  0  3  0  0  0  0  0  0
  187.6250  177.8030  144.4200 C   0  0  1  0  0  3  0  0  0  0  0  0
  186.7790  177.4750  143.1770 C   0  0  1  0  0  3  0  0  0  0  0  0
  186.9350  177.5780  145.7160 N   0  0  0  0  0  0  0  0  0  0  0  0
  185.3490  178.0160  143.2470 C   0  0  1  0  0  3  0  0  0  0  0  0
  185.5170  177.6140  145.6160 N   0  0  0  0  0  2  0  0  0  0  0  0
  188.9800  177.1010  144.3570 C   0  0  0  0  0  3  0  0  0  0  0  0
  191.4280  177.4790  143.7470 C   0  0  0  0  0  2  0  0  0  0  0  0
  191.4110  176.0340  143.9180 N   0  0  0  0  0  2  0  0  0  0  0  0
  189.0180  176.0950  143.2070 C   0  0  0  0  0  2  0  0  0  0  0  0
  190.1530  178.0960  144.3170 C   0  0  0  0  0  2  0  0  0  0  0  0
  190.4160  175.4920  142.9940 C   0  0  0  0  0  2  0  0  0  0  0  0
  187.2980  178.5770  146.5600 O   0  0  0  0  0  0  0  0  0  0  0  0
  187.1580  178.0400  147.8420 C   0  0  0  0  0  2  0  0  0  0  0  0
  188.2530  177.2300  148.1400 O   0  0  0  0  0  0  0  0  0  0  0  0
  189.3450  178.0990  148.2320 C   0  0  0  0  0  1  0  0  0  0  0  0
  183.5940  178.8590  144.7780 C   0  0  0  0  0  2  0  0  0  0  0  0
  183.0310  179.4930  143.5160 C   0  0  0  0  0  2  0  0  0  0  0  0
  180.5630  179.7540  143.0680 C   0  0  0  0  0  2  0  0  0  0  0  0
  179.6750  179.1420  142.0080 C   0  0  0  0  0  2  0  0  0  0  0  0
  180.4190  178.0480  141.3710 N   0  0  2  0  0  0  0  0  0  0  0  0
  181.7680  178.1250  141.8050 N   0  0  1  0  0  0  0  0  0  0  0  0
  180.3970  178.2900  139.9310 C   0  0  0  0  0  2  0  0  0  0  0  0
  182.4990  178.9040  140.8000 C   0  0  0  0  0  2  0  0  0  0  0  0
  181.7920  178.6730  139.5020 C   0  0  0  0  0  2  0  0  0  0  0  0
  181.7240  178.8030  143.1080 C   0  0  1  0  0  3  0  0  0  0  0  0
  186.2180  178.5640  141.0100 C   0  0  0  0  0  2  0  0  0  0  0  0
  187.5230  178.4310  140.2870 C   0  0  0  0  0  0  0  0  0  0  0  0
  187.5080  178.0820  139.0300 C   0  0  0  0  0  0  0  0  0  0  0  0
  187.4820  177.7230  137.7810 C   0  0  0  0  0  3  0  0  0  0  0  0
  189.8500  177.9830  140.4920 O   0  0  0  0  0  1  0  0  0  0  0  0
  188.7460  178.5810  140.9500 O   0  0  0  0  0  0  0  0  0  0  0  0
  188.7350  177.6700  136.9850 C   0  0  0  0  0  2  0  0  0  0  0  0
  188.5390  176.7650  135.8570 N   0  0  0  0  0  2  0  0  0  0  0  0
  188.4340  175.4120  136.4080 C   0  0  2  0  0  3  0  0  0  0  0  0
  189.7910  174.9220  136.8180 C   0  0  0  0  0  3  0  0  0  0  0  0
  190.1150  174.9210  137.9950 O   0  0  0  0  0  0  0  0  0  0  0  0
  187.7470  174.4420  135.4290 C   0  0  0  0  0  2  0  0  0  0  0  0
  184.1130  174.6530  136.6500 C   0  0  0  0  0  2  0  0  0  0  0  0
  185.0360  172.9000  137.7140 C   0  0  0  0  0  2  0  0  0  0  0  0
  184.3670  174.1180  137.9220 O   0  0  0  0  0  0  0  0  0  0  0  0
  186.4520  173.1730  137.2080 C   0  0  0  0  0  2  0  0  0  0  0  0
  186.3750  173.9520  135.8930 C   0  0  0  0  0  3  0  0  0  0  0  0
  185.4180  175.1410  136.0210 C   0  0  0  0  0  2  0  0  0  0  0  0
  1 18  1  6  0  0  0
  1  7  1  0  0  0  0
  2 28  1  6  0  0  0
  2  4  1  0  0  0  0
  2  6  1  0  0  0  0
  3  8  1  1  0  0  0
  3  5  1  0  0  0  0
  4  6  1  0  0  0  0
  4  3  1  0  0  0  0
  5 14  1  0  0  0  0
  6  1  1  0  0  0  0
  7  5  1  0  0  0  0
  9 10  1  0  0  0  0
  9 12  1  0  0  0  0
 11  8  1  0  0  0  0
 12  8  1  0  0  0  0
 13 11  1  0  0  0  0
 13 10  1  0  0  0  0
 14 15  1  0  0  0  0
 15 16  1  0  0  0  0
 16 17  1  0  0  0  0
 19 18  1  0  0  0  0
 20 27  1  0  0  0  0
 21 20  1  0  0  0  0
 22 23  1  0  0  0  0
 22 21  1  0  0  0  0
 23 27  1  0  0  0  0
 24 22  1  0  0  0  0
 25 23  1  0  0  0  0
 26 24  1  0  0  0  0
 26 25  1  0  0  0  0
 27 19  1  0  0  0  0
 29 33  1  0  0  0  0
 29 28  1  0  0  0  0
 30 29  2  0  0  0  0
 31 30  2  0  0  0  0
 32 33  1  0  0  0  0
 34 31  1  0  0  0  0
 35 36  1  0  0  0  0
 35 34  1  0  0  0  0
 36 37  1  0  0  0  0
 37 38  2  0  0  0  0
 39 44  1  0  0  0  0
 39 36  1  0  0  0  0
 40 42  1  0  0  0  0
 41 42  1  0  0  0  0
 43 41  1  0  0  0  0
 44 45  1  0  0  0  0
 44 43  1  0  0  0  0
 45 40  1  0  0  0  0
M  END
>  <MODEL>
3

>  <REMARK>
 VINA RESULT:      -7.3      3.059      6.714
  Name = 
  16 active torsions:
  status: ('A' for Active; 'I' for Inactive)
    1  A    between atoms: C_1  and  O_23
    2  A    between atoms: C_1  and  C_28
    3  A    between atoms: C_4  and  CA_5
    4  A    between atoms: CA_5  and  C_21
    5  A    between atoms: CA_5  and  N_45
    6  A    between atoms: C_6  and  C_25
    7  A    between atoms: O_7  and  C_10
    8  A    between atoms: O_7  and  N_34
    9  A    between atoms: C_10  and  O_14
   10  A    between atoms: C_12  and  C_22
   11  A    between atoms: C_17  and  C_28
   12  A    between atoms: C_18  and  C_22
   13  A    between atoms: C_18  and  C_41
   14  A    between atoms: C_21  and  C_29
   15  A    between atoms: C_35  and  C_37
   16  A    between atoms: C_37  and  N_45
                            x       y       z     vdW  Elec       q    Type
                         _______ _______ _______ _____ _____    ______ ____

>  <TORSDO>
F 16

$$$$
=
 OpenBabel10222416433D

 45 50  0  0  1  0  0  0  0  0999 V2000
  187.4230  178.0520  142.4800 C   0  0  2  0  0  3  0  0  0  0  0  0
  189.9380  178.0070  142.3430 C   0  0  2  0  0  3  0  0  0  0  0  0
  188.9930  177.3790  144.5390 C   0  0  1  0  0  3  0  0  0  0  0  0
  189.4840  176.8290  143.1890 C   0  0  1  0  0  3  0  0  0  0  0  0
  187.5230  177.3060  144.7400 N   0  0  0  0  0  0  0  0  0  0  0  0
  188.6480  177.2950  141.9950 C   0  0  1  0  0  3  0  0  0  0  0  0
  186.7880  177.2490  143.5240 N   0  0  0  0  0  2  0  0  0  0  0  0
  189.7670  176.7510  145.6970 C   0  0  0  0  0  3  0  0  0  0  0  0
  190.8820  177.3080  147.9220 C   0  0  0  0  0  2  0  0  0  0  0  0
  191.3490  175.9440  147.7180 N   0  0  0  0  0  2  0  0  0  0  0  0
  191.1840  176.3780  145.2650 C   0  0  0  0  0  2  0  0  0  0  0  0
  189.7390  177.6270  146.9610 C   0  0  0  0  0  2  0  0  0  0  0  0
  192.0560  175.9050  146.4400 C   0  0  0  0  0  2  0  0  0  0  0  0
  187.1340  178.4350  145.3860 O   0  0  0  0  0  0  0  0  0  0  0  0
  186.2390  178.0030  146.3680 C   0  0  0  0  0  2  0  0  0  0  0  0
  185.3060  179.0040  146.6340 O   0  0  0  0  0  0  0  0  0  0  0  0
  184.2950  178.8340  145.6830 C   0  0  0  0  0  1  0  0  0  0  0  0
  186.4640  178.2530  141.3240 C   0  0  0  0  0  2  0  0  0  0  0  0
  185.2940  179.1260  141.7480 C   0  0  0  0  0  2  0  0  0  0  0  0
  182.8650  178.9570  142.4020 C   0  0  0  0  0  2  0  0  0  0  0  0
  181.6350  178.6260  141.5860 C   0  0  0  0  0  2  0  0  0  0  0  0
  182.0820  178.0830  140.2960 N   0  0  2  0  0  0  0  0  0  0  0  0
  183.4820  178.2960  140.1920 N   0  0  1  0  0  0  0  0  0  0  0  0
  181.4310  178.8650  139.2470 C   0  0  0  0  0  2  0  0  0  0  0  0
  183.6720  179.5570  139.4690 C   0  0  0  0  0  2  0  0  0  0  0  0
  182.4860  179.7020  138.5680 C   0  0  0  0  0  2  0  0  0  0  0  0
  183.9710  178.3690  141.5760 C   0  0  1  0  0  3  0  0  0  0  0  0
  191.0120  177.5610  141.3660 C   0  0  0  0  0  2  0  0  0  0  0  0
  190.4290  177.1290  140.0550 C   0  0  0  0  0  0  0  0  0  0  0  0
  189.7450  177.9950  139.3600 C   0  0  0  0  0  0  0  0  0  0  0  0
  189.0560  178.8630  138.6810 C   0  0  0  0  0  3  0  0  0  0  0  0
  190.6560  175.5260  138.3130 O   0  0  0  0  0  1  0  0  0  0  0  0
  190.5240  175.8050  139.6130 O   0  0  0  0  0  0  0  0  0  0  0  0
  188.5370  178.5240  137.3310 C   0  0  0  0  0  2  0  0  0  0  0  0
  187.0810  178.6140  137.3480 N   0  0  0  0  0  2  0  0  0  0  0  0
  186.5660  177.2710  137.0740 C   0  0  2  0  0  3  0  0  0  0  0  0
  187.6670  176.4030  136.5420 C   0  0  0  0  0  3  0  0  0  0  0  0
  187.4040  175.3490  135.9830 O   0  0  0  0  0  0  0  0  0  0  0  0
  185.3520  177.3000  136.1260 C   0  0  0  0  0  2  0  0  0  0  0  0
  182.7970  175.2400  138.1180 C   0  0  0  0  0  2  0  0  0  0  0  0
  181.6380  176.2960  136.5050 C   0  0  0  0  0  2  0  0  0  0  0  0
  181.9250  175.0280  137.0400 O   0  0  0  0  0  0  0  0  0  0  0  0
  182.8760  176.8450  135.7950 C   0  0  0  0  0  2  0  0  0  0  0  0
  184.0250  176.9550  136.8000 C   0  0  0  0  0  3  0  0  0  0  0  0
  184.1730  175.6570  137.6000 C   0  0  0  0  0  2  0  0  0  0  0  0
  1 18  1  6  0  0  0
  1  7  1  0  0  0  0
  2 28  1  6  0  0  0
  2  4  1  0  0  0  0
  3  5  1  0  0  0  0
  3  8  1  1  0  0  0
  4  3  1  0  0  0  0
  5 14  1  0  0  0  0
  6  2  1  0  0  0  0
  6  1  1  0  0  0  0
  6  4  1  0  0  0  0
  7  5  1  0  0  0  0
  8 12  1  0  0  0  0
 10  9  1  0  0  0  0
 11  8  1  0  0  0  0
 11 13  1  0  0  0  0
 12  9  1  0  0  0  0
 13 10  1  0  0  0  0
 14 15  1  0  0  0  0
 15 16  1  0  0  0  0
 17 16  1  0  0  0  0
 18 19  1  0  0  0  0
 21 20  1  0  0  0  0
 22 21  1  0  0  0  0
 23 22  1  0  0  0  0
 23 27  1  0  0  0  0
 24 22  1  0  0  0  0
 25 23  1  0  0  0  0
 26 24  1  0  0  0  0
 26 25  1  0  0  0  0
 27 19  1  0  0  0  0
 27 20  1  0  0  0  0
 29 28  1  0  0  0  0
 30 29  2  0  0  0  0
 31 30  2  0  0  0  0
 32 33  1  0  0  0  0
 33 29  1  0  0  0  0
 34 35  1  0  0  0  0
 34 31  1  0  0  0  0
 36 35  1  0  0  0  0
 37 36  1  0  0  0  0
 38 37  2  0  0  0  0
 39 44  1  0  0  0  0
 39 36  1  0  0  0  0
 41 42  1  0  0  0  0
 42 40  1  0  0  0  0
 43 41  1  0  0  0  0
 43 44  1  0  0  0  0
 44 45  1  0  0  0  0
 45 40  1  0  0  0  0
M  END
>  <MODEL>
4

>  <REMARK>
 VINA RESULT:      -7.3      2.732      5.678
  Name = 
  16 active torsions:
  status: ('A' for Active; 'I' for Inactive)
    1  A    between atoms: C_1  and  O_23
    2  A    between atoms: C_1  and  C_28
    3  A    between atoms: C_4  and  CA_5
    4  A    between atoms: CA_5  and  C_21
    5  A    between atoms: CA_5  and  N_45
    6  A    between atoms: C_6  and  C_25
    7  A    between atoms: O_7  and  C_10
    8  A    between atoms: O_7  and  N_34
    9  A    between atoms: C_10  and  O_14
   10  A    between atoms: C_12  and  C_22
   11  A    between atoms: C_17  and  C_28
   12  A    between atoms: C_18  and  C_22
   13  A    between atoms: C_18  and  C_41
   14  A    between atoms: C_21  and  C_29
   15  A    between atoms: C_35  and  C_37
   16  A    between atoms: C_37  and  N_45
                            x       y       z     vdW  Elec       q    Type
                         _______ _______ _______ _____ _____    ______ ____

>  <TORSDO>
F 16

$$$$
=
 OpenBabel10222416433D

 45 50  0  0  1  0  0  0  0  0999 V2000
  188.0680  177.8150  141.2100 C   0  0  2  0  0  3  0  0  0  0  0  0
  185.8160  177.8650  142.3380 C   0  0  2  0  0  3  0  0  0  0  0  0
  187.7210  177.3230  143.8170 C   0  0  1  0  0  3  0  0  0  0  0  0
  186.8390  178.4670  143.2860 C   0  0  1  0  0  3  0  0  0  0  0  0
  189.1110  177.3200  143.2930 N   0  0  0  0  0  0  0  0  0  0  0  0
  186.9580  178.6850  141.7770 C   0  0  1  0  0  3  0  0  0  0  0  0
  189.2500  177.9980  142.0510 N   0  0  0  0  0  2  0  0  0  0  0  0
  187.6780  177.2650  145.3440 C   0  0  0  0  0  3  0  0  0  0  0  0
  186.6550  178.4060  147.3820 C   0  0  0  0  0  2  0  0  0  0  0  0
  187.6310  177.5350  148.0200 N   0  0  0  0  0  2  0  0  0  0  0  0
  189.0010  177.7420  145.9420 C   0  0  0  0  0  2  0  0  0  0  0  0
  186.4600  178.0060  145.9220 C   0  0  0  0  0  2  0  0  0  0  0  0
  188.9460  177.8690  147.4730 C   0  0  0  0  0  2  0  0  0  0  0  0
  189.4740  176.0280  143.0830 O   0  0  0  0  0  0  0  0  0  0  0  0
  190.8250  176.0810  142.7330 C   0  0  0  0  0  2  0  0  0  0  0  0
  191.6040  176.2730  143.8730 O   0  0  0  0  0  0  0  0  0  0  0  0
  191.9660  174.9910  144.2960 C   0  0  0  0  0  1  0  0  0  0  0  0
  188.3710  178.2460  139.7900 C   0  0  0  0  0  2  0  0  0  0  0  0
  189.6840  177.6430  139.3180 C   0  0  0  0  0  2  0  0  0  0  0  0
  189.4180  177.2100  136.8480 C   0  0  0  0  0  2  0  0  0  0  0  0
  189.9020  176.0700  135.9800 C   0  0  0  0  0  2  0  0  0  0  0  0
  190.3510  174.9870  136.8660 N   0  0  2  0  0  0  0  0  0  0  0  0
  190.3980  175.4960  138.1900 N   0  0  1  0  0  0  0  0  0  0  0  0
  191.7150  174.6410  136.4710 C   0  0  0  0  0  2  0  0  0  0  0  0
  191.7710  175.9520  138.4280 C   0  0  0  0  0  2  0  0  0  0  0  0
  192.6460  175.0980  137.5660 C   0  0  0  0  0  2  0  0  0  0  0  0
  189.4310  176.6020  138.2210 C   0  0  1  0  0  3  0  0  0  0  0  0
  184.5580  178.7170  142.3220 C   0  0  0  0  0  2  0  0  0  0  0  0
  184.0800  178.9780  140.9270 C   0  0  0  0  0  0  0  0  0  0  0  0
  182.9710  178.4150  140.5310 C   0  0  0  0  0  0  0  0  0  0  0  0
  181.8720  177.8410  140.1430 C   0  0  0  0  0  3  0  0  0  0  0  0
  184.9320  179.3610  138.7390 O   0  0  0  0  0  1  0  0  0  0  0  0
  184.8380  179.7280  140.0210 O   0  0  0  0  0  0  0  0  0  0  0  0
  181.2960  178.1380  138.8070 C   0  0  0  0  0  2  0  0  0  0  0  0
  180.1130  178.9750  138.9780 N   0  0  0  0  0  2  0  0  0  0  0  0
  179.8750  179.6460  137.6980 C   0  0  2  0  0  3  0  0  0  0  0  0
  179.6110  178.6270  136.6300 C   0  0  0  0  0  3  0  0  0  0  0  0
  180.1220  178.7460  135.5270 O   0  0  0  0  0  0  0  0  0  0  0  0
  181.0320  180.5880  137.3170 C   0  0  0  0  0  2  0  0  0  0  0  0
  180.4040  183.7220  135.1890 C   0  0  0  0  0  2  0  0  0  0  0  0
  181.0700  184.4530  137.2100 C   0  0  0  0  0  2  0  0  0  0  0  0
  181.3610  184.5180  135.8360 O   0  0  0  0  0  0  0  0  0  0  0  0
  181.4170  183.0620  137.7420 C   0  0  0  0  0  2  0  0  0  0  0  0
  180.5940  182.0150  136.9880 C   0  0  0  0  0  3  0  0  0  0  0  0
  180.6760  182.2450  135.4760 C   0  0  0  0  0  2  0  0  0  0  0  0
  1 18  1  6  0  0  0
  1  6  1  0  0  0  0
  1  7  1  0  0  0  0
  2 28  1  1  0  0  0
  2  4  1  0  0  0  0
  3  8  1  1  0  0  0
  4  3  1  0  0  0  0
  5  3  1  0  0  0  0
  6  2  1  0  0  0  0
  6  4  1  0  0  0  0
  7  5  1  0  0  0  0
  8 12  1  0  0  0  0
  8 11  1  0  0  0  0
  9 10  1  0  0  0  0
 11 13  1  0  0  0  0
 12  9  1  0  0  0  0
 13 10  1  0  0  0  0
 14  5  1  0  0  0  0
 15 14  1  0  0  0  0
 15 16  1  0  0  0  0
 16 17  1  0  0  0  0
 19 18  1  0  0  0  0
 20 27  1  0  0  0  0
 21 20  1  0  0  0  0
 21 22  1  0  0  0  0
 22 23  1  0  0  0  0
 23 27  1  0  0  0  0
 23 25  1  0  0  0  0
 24 22  1  0  0  0  0
 24 26  1  0  0  0  0
 26 25  1  0  0  0  0
 27 19  1  0  0  0  0
 29 28  1  0  0  0  0
 30 29  2  0  0  0  0
 31 30  2  0  0  0  0
 32 33  1  0  0  0  0
 33 29  1  0  0  0  0
 34 35  1  0  0  0  0
 34 31  1  0  0  0  0
 36 35  1  0  0  0  0
 37 36  1  0  0  0  0
 38 37  2  0  0  0  0
 39 36  1  0  0  0  0
 40 45  1  0  0  0  0
 40 42  1  0  0  0  0
 41 43  1  0  0  0  0
 42 41  1  0  0  0  0
 44 39  1  0  0  0  0
 44 43  1  0  0  0  0
 45 44  1  0  0  0  0
M  END
>  <MODEL>
5

>  <REMARK>
 VINA RESULT:      -7.3      1.728      2.365
  Name = 
  16 active torsions:
  status: ('A' for Active; 'I' for Inactive)
    1  A    between atoms: C_1  and  O_23
    2  A    between atoms: C_1  and  C_28
    3  A    between atoms: C_4  and  CA_5
    4  A    between atoms: CA_5  and  C_21
    5  A    between atoms: CA_5  and  N_45
    6  A    between atoms: C_6  and  C_25
    7  A    between atoms: O_7  and  C_10
    8  A    between atoms: O_7  and  N_34
    9  A    between atoms: C_10  and  O_14
   10  A    between atoms: C_12  and  C_22
   11  A    between atoms: C_17  and  C_28
   12  A    between atoms: C_18  and  C_22
   13  A    between atoms: C_18  and  C_41
   14  A    between atoms: C_21  and  C_29
   15  A    between atoms: C_35  and  C_37
   16  A    between atoms: C_37  and  N_45
                            x       y       z     vdW  Elec       q    Type
                         _______ _______ _______ _____ _____    ______ ____

>  <TORSDO>
F 16

$$$$
=
 OpenBabel10222416433D

 45 50  0  0  1  0  0  0  0  0999 V2000
  188.3960  177.7120  141.5670 C   0  0  2  0  0  3  0  0  0  0  0  0
  186.0770  177.6560  142.5480 C   0  0  2  0  0  3  0  0  0  0  0  0
  187.9110  177.2910  144.1640 C   0  0  1  0  0  3  0  0  0  0  0  0
  186.9970  178.3560  143.5340 C   0  0  1  0  0  3  0  0  0  0  0  0
  189.3300  177.3580  143.7300 N   0  0  0  0  0  0  0  0  0  0  0  0
  187.2000  178.5280  142.0270 C   0  0  1  0  0  3  0  0  0  0  0  0
  189.5080  178.0000  142.4730 N   0  0  0  0  0  2  0  0  0  0  0  0
  187.7720  177.2850  145.6860 C   0  0  0  0  0  3  0  0  0  0  0  0
  186.7250  178.5660  147.6260 C   0  0  0  0  0  2  0  0  0  0  0  0
  187.5870  177.6410  148.3460 N   0  0  0  0  0  2  0  0  0  0  0  0
  189.0910  177.6730  146.3530 C   0  0  0  0  0  2  0  0  0  0  0  0
  186.5850  178.1370  146.1670 C   0  0  0  0  0  2  0  0  0  0  0  0
  188.9540  177.8520  147.8740 C   0  0  0  0  0  2  0  0  0  0  0  0
  189.7850  176.0860  143.5930 O   0  0  0  0  0  0  0  0  0  0  0  0
  191.1150  176.2160  143.1880 C   0  0  0  0  0  2  0  0  0  0  0  0
  191.9480  175.5180  144.0600 O   0  0  0  0  0  0  0  0  0  0  0  0
  191.6950  176.0550  145.3260 C   0  0  0  0  0  1  0  0  0  0  0  0
  188.7640  178.1100  140.1520 C   0  0  0  0  0  2  0  0  0  0  0  0
  187.5360  178.0960  139.2570 C   0  0  0  0  0  2  0  0  0  0  0  0
  189.1130  177.7390  137.3220 C   0  0  0  0  0  2  0  0  0  0  0  0
  188.8610  177.6780  135.8320 C   0  0  0  0  0  2  0  0  0  0  0  0
  187.5030  178.1780  135.5820 N   0  0  2  0  0  0  0  0  0  0  0  0
  186.8440  178.3000  136.8340 N   0  0  1  0  0  0  0  0  0  0  0  0
  186.8010  177.1590  134.8050 C   0  0  0  0  0  2  0  0  0  0  0  0
  186.1000  177.0550  137.0520 C   0  0  0  0  0  2  0  0  0  0  0  0
  185.7520  176.5370  135.6920 C   0  0  0  0  0  2  0  0  0  0  0  0
  187.9140  178.4890  137.8240 C   0  0  1  0  0  3  0  0  0  0  0  0
  184.7730  178.4250  142.4190 C   0  0  0  0  0  2  0  0  0  0  0  0
  184.3720  178.6070  140.9870 C   0  0  0  0  0  0  0  0  0  0  0  0
  183.6980  177.6560  140.4000 C   0  0  0  0  0  0  0  0  0  0  0  0
  183.0370  176.6980  139.8230 C   0  0  0  0  0  3  0  0  0  0  0  0
  184.4090  179.8730  138.9740 O   0  0  0  0  0  1  0  0  0  0  0  0
  184.7840  179.7220  140.2480 O   0  0  0  0  0  0  0  0  0  0  0  0
  182.5280  176.8610  138.4370 C   0  0  0  0  0  2  0  0  0  0  0  0
  181.7780  175.6650  138.0660 N   0  0  0  0  0  2  0  0  0  0  0  0
  182.4710  175.0660  136.9230 C   0  0  2  0  0  3  0  0  0  0  0  0
  181.9560  175.6610  135.6460 C   0  0  0  0  0  3  0  0  0  0  0  0
  180.7580  175.8370  135.4890 O   0  0  0  0  0  0  0  0  0  0  0  0
  182.3610  173.5290  136.9220 C   0  0  0  0  0  2  0  0  0  0  0  0
  186.1230  172.9400  137.4110 C   0  0  0  0  0  2  0  0  0  0  0  0
  185.6020  172.0620  135.4070 C   0  0  0  0  0  2  0  0  0  0  0  0
  186.4450  172.9870  136.0470 O   0  0  0  0  0  0  0  0  0  0  0  0
  184.1690  172.5950  135.4020 C   0  0  0  0  0  2  0  0  0  0  0  0
  183.7060  172.8060  136.8460 C   0  0  0  0  0  3  0  0  0  0  0  0
  184.7560  173.5820  137.6460 C   0  0  0  0  0  2  0  0  0  0  0  0
  1 18  1  6  0  0  0
  1  6  1  0  0  0  0
  1  7  1  0  0  0  0
  2 28  1  1  0  0  0
  2  4  1  0  0  0  0
  3  8  1  1  0  0  0
  4  3  1  0  0  0  0
  5  3  1  0  0  0  0
  6  2  1  0  0  0  0
  6  4  1  0  0  0  0
  7  5  1  0  0  0  0
  8 12  1  0  0  0  0
  8 11  1  0  0  0  0
  9 10  1  0  0  0  0
 11 13  1  0  0  0  0
 12  9  1  0  0  0  0
 13 10  1  0  0  0  0
 14  5  1  0  0  0  0
 15 14  1  0  0  0  0
 15 16  1  0  0  0  0
 16 17  1  0  0  0  0
 19 18  1  0  0  0  0
 20 27  1  0  0  0  0
 21 20  1  0  0  0  0
 22 21  1  0  0  0  0
 22 23  1  0  0  0  0
 23 25  1  0  0  0  0
 23 27  1  0  0  0  0
 24 22  1  0  0  0  0
 24 26  1  0  0  0  0
 26 25  1  0  0  0  0
 27 19  1  0  0  0  0
 29 28  1  0  0  0  0
 30 29  2  0  0  0  0
 31 30  2  0  0  0  0
 32 33  1  0  0  0  0
 33 29  1  0  0  0  0
 34 31  1  0  0  0  0
 35 34  1  0  0  0  0
 36 35  1  0  0  0  0
 37 36  1  0  0  0  0
 38 37  2  0  0  0  0
 39 36  1  0  0  0  0
 40 45  1  0  0  0  0
 41 42  1  0  0  0  0
 42 40  1  0  0  0  0
 43 41  1  0  0  0  0
 43 44  1  0  0  0  0
 44 39  1  0  0  0  0
 44 45  1  0  0  0  0
M  END
>  <MODEL>
6

>  <REMARK>
 VINA RESULT:      -7.2      2.112      3.890
  Name = 
  16 active torsions:
  status: ('A' for Active; 'I' for Inactive)
    1  A    between atoms: C_1  and  O_23
    2  A    between atoms: C_1  and  C_28
    3  A    between atoms: C_4  and  CA_5
    4  A    between atoms: CA_5  and  C_21
    5  A    between atoms: CA_5  and  N_45
    6  A    between atoms: C_6  and  C_25
    7  A    between atoms: O_7  and  C_10
    8  A    between atoms: O_7  and  N_34
    9  A    between atoms: C_10  and  O_14
   10  A    between atoms: C_12  and  C_22
   11  A    between atoms: C_17  and  C_28
   12  A    between atoms: C_18  and  C_22
   13  A    between atoms: C_18  and  C_41
   14  A    between atoms: C_21  and  C_29
   15  A    between atoms: C_35  and  C_37
   16  A    between atoms: C_37  and  N_45
                            x       y       z     vdW  Elec       q    Type
                         _______ _______ _______ _____ _____    ______ ____

>  <TORSDO>
F 16

$$$$
=
 OpenBabel10222416433D

 45 50  0  0  1  0  0  0  0  0999 V2000
  184.6390  178.7860  138.7310 C   0  0  2  0  0  3  0  0  0  0  0  0
  184.9370  179.0030  141.2230 C   0  0  2  0  0  3  0  0  0  0  0  0
  182.5960  179.0810  140.4330 C   0  0  1  0  0  3  0  0  0  0  0  0
  183.7050  178.1540  140.9600 C   0  0  1  0  0  3  0  0  0  0  0  0
  182.2750  178.9040  138.9930 N   0  0  0  0  0  0  0  0  0  0  0  0
  184.9210  178.0620  140.0370 C   0  0  1  0  0  3  0  0  0  0  0  0
  183.3380  178.3320  138.2420 N   0  0  0  0  0  2  0  0  0  0  0  0
  181.3530  179.0010  141.3170 C   0  0  0  0  0  3  0  0  0  0  0  0
  180.5840  178.4190  143.6780 C   0  0  0  0  0  2  0  0  0  0  0  0
  179.3040  178.5390  142.9970 N   0  0  0  0  0  2  0  0  0  0  0  0
  180.4740  177.8180  140.9130 C   0  0  0  0  0  2  0  0  0  0  0  0
  181.7010  179.0030  142.8160 C   0  0  0  0  0  2  0  0  0  0  0  0
  179.3040  177.5920  141.8840 C   0  0  0  0  0  2  0  0  0  0  0  0
  182.0330  180.1320  138.4670 O   0  0  0  0  0  0  0  0  0  0  0  0
  180.9150  179.9630  137.6460 C   0  0  0  0  0  2  0  0  0  0  0  0
  181.1040  180.6370  136.4410 O   0  0  0  0  0  0  0  0  0  0  0  0
  179.8870  181.2700  136.1740 C   0  0  0  0  0  1  0  0  0  0  0  0
  185.7190  178.4460  137.7230 C   0  0  0  0  0  2  0  0  0  0  0  0
  185.6390  176.9800  137.3290 C   0  0  0  0  0  2  0  0  0  0  0  0
  187.0510  177.9730  135.4910 C   0  0  0  0  0  2  0  0  0  0  0  0
  188.3440  177.5010  134.8650 C   0  0  0  0  0  2  0  0  0  0  0  0
  188.5710  176.1130  135.2890 N   0  0  2  0  0  0  0  0  0  0  0  0
  187.6380  175.8110  136.3150 N   0  0  1  0  0  0  0  0  0  0  0  0
  189.9110  176.0510  135.8690 C   0  0  0  0  0  2  0  0  0  0  0  0
  188.3060  176.0710  137.5940 C   0  0  0  0  0  2  0  0  0  0  0  0
  189.7650  175.8380  137.3550 C   0  0  0  0  0  2  0  0  0  0  0  0
  186.4990  176.7120  136.0890 C   0  0  1  0  0  3  0  0  0  0  0  0
  185.7760  178.3760  142.3230 C   0  0  0  0  0  2  0  0  0  0  0  0
  187.2050  178.2040  141.9060 C   0  0  0  0  0  0  0  0  0  0  0  0
  187.9220  177.2870  142.4940 C   0  0  0  0  0  0  0  0  0  0  0  0
  188.6300  176.3780  143.0950 C   0  0  0  0  0  3  0  0  0  0  0  0
  188.7830  178.6260  140.1760 O   0  0  0  0  0  1  0  0  0  0  0  0
  187.8030  179.0610  140.9760 O   0  0  0  0  0  0  0  0  0  0  0  0
  190.0210  176.0950  142.6580 C   0  0  0  0  0  2  0  0  0  0  0  0
  190.8960  176.1140  143.8260 N   0  0  0  0  0  2  0  0  0  0  0  0
  190.5890  177.3380  144.5700 C   0  0  2  0  0  3  0  0  0  0  0  0
  191.4670  178.4570  144.0960 C   0  0  0  0  0  3  0  0  0  0  0  0
  191.0140  179.5830  143.9680 O   0  0  0  0  0  0  0  0  0  0  0  0
  190.6980  177.1310  146.0920 C   0  0  0  0  0  2  0  0  0  0  0  0
  186.9820  177.8660  146.7200 C   0  0  0  0  0  2  0  0  0  0  0  0
  188.0010  178.0100  148.7200 C   0  0  0  0  0  2  0  0  0  0  0  0
  187.1970  178.7200  147.8130 O   0  0  0  0  0  0  0  0  0  0  0  0
  189.4150  177.8750  148.1540 C   0  0  0  0  0  2  0  0  0  0  0  0
  189.3540  177.1260  146.8210 C   0  0  0  0  0  3  0  0  0  0  0  0
  188.2720  177.7190  145.9130 C   0  0  0  0  0  2  0  0  0  0  0  0
  1 18  1  6  0  0  0
  1  6  1  0  0  0  0
  2 28  1  1  0  0  0
  3  4  1  0  0  0  0
  3  8  1  1  0  0  0
  4  2  1  0  0  0  0
  5  3  1  0  0  0  0
  6  4  1  0  0  0  0
  6  2  1  0  0  0  0
  7  1  1  0  0  0  0
  7  5  1  0  0  0  0
  8 12  1  0  0  0  0
 10  9  1  0  0  0  0
 11  8  1  0  0  0  0
 11 13  1  0  0  0  0
 12  9  1  0  0  0  0
 13 10  1  0  0  0  0
 14  5  1  0  0  0  0
 15 14  1  0  0  0  0
 16 15  1  0  0  0  0
 17 16  1  0  0  0  0
 19 18  1  0  0  0  0
 20 27  1  0  0  0  0
 21 22  1  0  0  0  0
 21 20  1  0  0  0  0
 22 24  1  0  0  0  0
 22 23  1  0  0  0  0
 23 25  1  0  0  0  0
 24 26  1  0  0  0  0
 26 25  1  0  0  0  0
 27 23  1  0  0  0  0
 27 19  1  0  0  0  0
 29 28  1  0  0  0  0
 29 30  2  0  0  0  0
 30 31  2  0  0  0  0
 32 33  1  0  0  0  0
 33 29  1  0  0  0  0
 34 31  1  0  0  0  0
 34 35  1  0  0  0  0
 35 36  1  0  0  0  0
 36 39  1  0  0  0  0
 37 36  1  0  0  0  0
 38 37  2  0  0  0  0
 39 44  1  0  0  0  0
 40 42  1  0  0  0  0
 42 41  1  0  0  0  0
 43 41  1  0  0  0  0
 44 43  1  0  0  0  0
 45 40  1  0  0  0  0
 45 44  1  0  0  0  0
M  END
>  <MODEL>
7

>  <REMARK>
 VINA RESULT:      -7.2      2.355      9.047
  Name = 
  16 active torsions:
  status: ('A' for Active; 'I' for Inactive)
    1  A    between atoms: C_1  and  O_23
    2  A    between atoms: C_1  and  C_28
    3  A    between atoms: C_4  and  CA_5
    4  A    between atoms: CA_5  and  C_21
    5  A    between atoms: CA_5  and  N_45
    6  A    between atoms: C_6  and  C_25
    7  A    between atoms: O_7  and  C_10
    8  A    between atoms: O_7  and  N_34
    9  A    between atoms: C_10  and  O_14
   10  A    between atoms: C_12  and  C_22
   11  A    between atoms: C_17  and  C_28
   12  A    between atoms: C_18  and  C_22
   13  A    between atoms: C_18  and  C_41
   14  A    between atoms: C_21  and  C_29
   15  A    between atoms: C_35  and  C_37
   16  A    between atoms: C_37  and  N_45
                            x       y       z     vdW  Elec       q    Type
                         _______ _______ _______ _____ _____    ______ ____

>  <TORSDO>
F 16

$$$$
=
 OpenBabel10222416433D

 45 50  0  0  1  0  0  0  0  0999 V2000
  184.9670  178.6000  144.5580 C   0  0  2  0  0  3  0  0  0  0  0  0
  186.3420  178.8620  142.4630 C   0  0  2  0  0  3  0  0  0  0  0  0
  187.5400  177.8850  144.3920 C   0  0  1  0  0  3  0  0  0  0  0  0
  186.7280  177.5510  143.1290 C   0  0  1  0  0  3  0  0  0  0  0  0
  186.8310  177.6210  145.6710 N   0  0  0  0  0  0  0  0  0  0  0  0
  185.2820  178.0490  143.1770 C   0  0  1  0  0  3  0  0  0  0  0  0
  185.4150  177.6170  145.5430 N   0  0  0  0  0  2  0  0  0  0  0  0
  188.9160  177.2230  144.3460 C   0  0  0  0  0  3  0  0  0  0  0  0
  191.3500  177.6600  143.7200 C   0  0  0  0  0  2  0  0  0  0  0  0
  191.3780  176.2200  143.9330 N   0  0  0  0  0  2  0  0  0  0  0  0
  188.9830  176.1860  143.2270 C   0  0  0  0  0  2  0  0  0  0  0  0
  190.0570  178.2530  144.2750 C   0  0  0  0  0  2  0  0  0  0  0  0
  190.3990  175.6210  143.0270 C   0  0  0  0  0  2  0  0  0  0  0  0
  187.1490  178.6170  146.5370 O   0  0  0  0  0  0  0  0  0  0  0  0
  187.2430  177.9980  147.7860 C   0  0  0  0  0  2  0  0  0  0  0  0
  188.3150  177.1080  147.7940 O   0  0  0  0  0  0  0  0  0  0  0  0
  189.4350  177.8770  148.1270 C   0  0  0  0  0  1  0  0  0  0  0  0
  183.4730  178.8180  144.6850 C   0  0  0  0  0  2  0  0  0  0  0  0
  182.9090  179.4090  143.4030 C   0  0  0  0  0  2  0  0  0  0  0  0
  180.4450  179.9070  143.2020 C   0  0  0  0  0  2  0  0  0  0  0  0
  179.4020  179.3920  142.2360 C   0  0  0  0  0  2  0  0  0  0  0  0
  179.9720  178.2380  141.5280 N   0  0  2  0  0  0  0  0  0  0  0  0
  181.3590  178.1840  141.8260 N   0  0  1  0  0  0  0  0  0  0  0  0
  179.8310  178.4950  140.0970 C   0  0  0  0  0  2  0  0  0  0  0  0
  182.0580  178.8990  140.7530 C   0  0  0  0  0  2  0  0  0  0  0  0
  181.2070  178.7480  139.5320 C   0  0  0  0  0  2  0  0  0  0  0  0
  181.5080  178.8500  143.1270 C   0  0  1  0  0  3  0  0  0  0  0  0
  186.1780  178.6560  140.9670 C   0  0  0  0  0  2  0  0  0  0  0  0
  187.4960  178.4410  140.2860 C   0  0  0  0  0  0  0  0  0  0  0  0
  187.5000  177.9980  139.0590 C   0  0  0  0  0  0  0  0  0  0  0  0
  187.4930  177.5460  137.8410 C   0  0  0  0  0  3  0  0  0  0  0  0
  189.8140  177.9840  140.5610 O   0  0  0  0  0  1  0  0  0  0  0  0
  188.7070  178.6160  140.9650 O   0  0  0  0  0  0  0  0  0  0  0  0
  188.7620  177.4060  137.0810 C   0  0  0  0  0  2  0  0  0  0  0  0
  189.5980  176.4060  137.7370 N   0  0  0  0  0  2  0  0  0  0  0  0
  190.7330  176.1490  136.8480 C   0  0  2  0  0  3  0  0  0  0  0  0
  190.6100  174.7810  136.2470 C   0  0  0  0  0  3  0  0  0  0  0  0
  190.3040  173.8270  136.9460 O   0  0  0  0  0  0  0  0  0  0  0  0
  192.0830  176.3390  137.5670 C   0  0  0  0  0  2  0  0  0  0  0  0
  195.3330  174.3010  137.4180 C   0  0  0  0  0  2  0  0  0  0  0  0
  195.3400  175.6340  135.6060 C   0  0  0  0  0  2  0  0  0  0  0  0
  196.0780  175.2840  136.7500 O   0  0  0  0  0  0  0  0  0  0  0  0
  194.0960  176.4200  136.0210 C   0  0  0  0  0  2  0  0  0  0  0  0
  193.2380  175.5540  136.9450 C   0  0  0  0  0  3  0  0  0  0  0  0
  194.0920  174.9290  138.0520 C   0  0  0  0  0  2  0  0  0  0  0  0
  1 18  1  6  0  0  0
  1  7  1  0  0  0  0
  2 28  1  6  0  0  0
  2  4  1  0  0  0  0
  2  6  1  0  0  0  0
  3  8  1  1  0  0  0
  3  5  1  0  0  0  0
  4  6  1  0  0  0  0
  4  3  1  0  0  0  0
  5 14  1  0  0  0  0
  6  1  1  0  0  0  0
  7  5  1  0  0  0  0
  9 10  1  0  0  0  0
  9 12  1  0  0  0  0
 11  8  1  0  0  0  0
 12  8  1  0  0  0  0
 13 11  1  0  0  0  0
 13 10  1  0  0  0  0
 14 15  1  0  0  0  0
 15 16  1  0  0  0  0
 16 17  1  0  0  0  0
 19 18  1  0  0  0  0
 21 20  1  0  0  0  0
 22 23  1  0  0  0  0
 22 21  1  0  0  0  0
 23 27  1  0  0  0  0
 24 22  1  0  0  0  0
 25 23  1  0  0  0  0
 26 24  1  0  0  0  0
 26 25  1  0  0  0  0
 27 20  1  0  0  0  0
 27 19  1  0  0  0  0
 29 33  1  0  0  0  0
 29 28  1  0  0  0  0
 30 29  2  0  0  0  0
 31 30  2  0  0  0  0
 32 33  1  0  0  0  0
 34 35  1  0  0  0  0
 34 31  1  0  0  0  0
 36 39  1  0  0  0  0
 36 35  1  0  0  0  0
 37 36  1  0  0  0  0
 37 38  2  0  0  0  0
 40 45  1  0  0  0  0
 41 43  1  0  0  0  0
 41 42  1  0  0  0  0
 42 40  1  0  0  0  0
 43 44  1  0  0  0  0
 44 39  1  0  0  0  0
 44 45  1  0  0  0  0
M  END
>  <MODEL>
8

>  <REMARK>
 VINA RESULT:      -7.2      3.594      8.361
  Name = 
  16 active torsions:
  status: ('A' for Active; 'I' for Inactive)
    1  A    between atoms: C_1  and  O_23
    2  A    between atoms: C_1  and  C_28
    3  A    between atoms: C_4  and  CA_5
    4  A    between atoms: CA_5  and  C_21
    5  A    between atoms: CA_5  and  N_45
    6  A    between atoms: C_6  and  C_25
    7  A    between atoms: O_7  and  C_10
    8  A    between atoms: O_7  and  N_34
    9  A    between atoms: C_10  and  O_14
   10  A    between atoms: C_12  and  C_22
   11  A    between atoms: C_17  and  C_28
   12  A    between atoms: C_18  and  C_22
   13  A    between atoms: C_18  and  C_41
   14  A    between atoms: C_21  and  C_29
   15  A    between atoms: C_35  and  C_37
   16  A    between atoms: C_37  and  N_45
                            x       y       z     vdW  Elec       q    Type
                         _______ _______ _______ _____ _____    ______ ____

>  <TORSDO>
F 16

$$$$
=
 OpenBabel10222416433D

 45 50  0  0  1  0  0  0  0  0999 V2000
  186.8060  178.2980  142.2970 C   0  0  2  0  0  3  0  0  0  0  0  0
  189.3090  178.2320  142.0230 C   0  0  2  0  0  3  0  0  0  0  0  0
  188.4780  177.5710  144.2550 C   0  0  1  0  0  3  0  0  0  0  0  0
  188.8890  177.0420  142.8700 C   0  0  1  0  0  3  0  0  0  0  0  0
  187.0200  177.5080  144.5340 N   0  0  0  0  0  0  0  0  0  0  0  0
  187.9950  177.5380  141.7320 C   0  0  1  0  0  3  0  0  0  0  0  0
  186.2200  177.4810  143.3590 N   0  0  0  0  0  2  0  0  0  0  0  0
  189.3070  176.9140  145.3580 C   0  0  0  0  0  3  0  0  0  0  0  0
  190.1950  177.2920  147.7180 C   0  0  0  0  0  2  0  0  0  0  0  0
  190.9240  176.0900  147.3440 N   0  0  0  0  0  2  0  0  0  0  0  0
  190.7870  176.8830  144.9800 C   0  0  0  0  0  2  0  0  0  0  0  0
  189.0550  177.5500  146.7360 C   0  0  0  0  0  2  0  0  0  0  0  0
  191.6810  176.3920  146.1300 C   0  0  0  0  0  2  0  0  0  0  0  0
  186.6790  178.6280  145.2210 O   0  0  0  0  0  0  0  0  0  0  0  0
  185.6520  178.2290  146.0810 C   0  0  0  0  0  2  0  0  0  0  0  0
  184.7220  179.2580  146.2200 O   0  0  0  0  0  0  0  0  0  0  0  0
  183.7400  179.0050  145.2570 C   0  0  0  0  0  1  0  0  0  0  0  0
  185.7870  178.5290  141.1990 C   0  0  0  0  0  2  0  0  0  0  0  0
  184.3790  178.2960  141.7210 C   0  0  0  0  0  2  0  0  0  0  0  0
  183.0440  176.9770  140.0370 C   0  0  0  0  0  2  0  0  0  0  0  0
  181.6260  177.1470  139.5370 C   0  0  0  0  0  2  0  0  0  0  0  0
  181.1500  178.4660  139.9730 N   0  0  2  0  0  0  0  0  0  0  0  0
  182.0900  178.9870  140.9010 N   0  0  1  0  0  0  0  0  0  0  0  0
  179.8890  178.2590  140.6820 C   0  0  0  0  0  2  0  0  0  0  0  0
  181.6170  178.6260  142.2410 C   0  0  0  0  0  2  0  0  0  0  0  0
  180.1260  178.5380  142.1450 C   0  0  0  0  0  2  0  0  0  0  0  0
  183.3680  178.3420  140.5690 C   0  0  1  0  0  3  0  0  0  0  0  0
  190.3240  177.7940  140.9810 C   0  0  0  0  0  2  0  0  0  0  0  0
  189.7620  177.8570  139.5940 C   0  0  0  0  0  0  0  0  0  0  0  0
  190.0190  176.8790  138.7700 C   0  0  0  0  0  0  0  0  0  0  0  0
  190.2920  175.9040  137.9540 C   0  0  0  0  0  3  0  0  0  0  0  0
  188.0350  178.8390  138.2850 O   0  0  0  0  0  1  0  0  0  0  0  0
  189.0520  178.9750  139.1420 O   0  0  0  0  0  0  0  0  0  0  0  0
  189.6830  175.8620  136.6000 C   0  0  0  0  0  2  0  0  0  0  0  0
  188.7590  174.7340  136.5340 N   0  0  0  0  0  2  0  0  0  0  0  0
  187.4980  175.2470  135.9920 C   0  0  2  0  0  3  0  0  0  0  0  0
  187.6980  176.6380  135.4680 C   0  0  0  0  0  3  0  0  0  0  0  0
  186.7520  177.4070  135.3900 O   0  0  0  0  0  0  0  0  0  0  0  0
  186.3580  175.1830  137.0250 C   0  0  0  0  0  2  0  0  0  0  0  0
  182.7150  174.3250  136.1670 C   0  0  0  0  0  2  0  0  0  0  0  0
  183.5710  172.5070  137.1790 C   0  0  0  0  0  2  0  0  0  0  0  0
  182.5270  173.4460  137.2430 O   0  0  0  0  0  0  0  0  0  0  0  0
  184.8900  173.1810  137.5600 C   0  0  0  0  0  2  0  0  0  0  0  0
  185.1660  174.3310  136.5890 C   0  0  0  0  0  3  0  0  0  0  0  0
  183.9270  175.2180  136.4300 C   0  0  0  0  0  2  0  0  0  0  0  0
  1 18  1  6  0  0  0
  1  7  1  0  0  0  0
  2 28  1  6  0  0  0
  2  4  1  0  0  0  0
  3  5  1  0  0  0  0
  3  8  1  1  0  0  0
  4  3  1  0  0  0  0
  5 14  1  0  0  0  0
  6  2  1  0  0  0  0
  6  1  1  0  0  0  0
  6  4  1  0  0  0  0
  7  5  1  0  0  0  0
  8 12  1  0  0  0  0
 10  9  1  0  0  0  0
 11  8  1  0  0  0  0
 11 13  1  0  0  0  0
 12  9  1  0  0  0  0
 13 10  1  0  0  0  0
 14 15  1  0  0  0  0
 15 16  1  0  0  0  0
 17 16  1  0  0  0  0
 18 19  1  0  0  0  0
 20 27  1  0  0  0  0
 21 22  1  0  0  0  0
 21 20  1  0  0  0  0
 22 24  1  0  0  0  0
 22 23  1  0  0  0  0
 23 25  1  0  0  0  0
 24 26  1  0  0  0  0
 26 25  1  0  0  0  0
 27 23  1  0  0  0  0
 27 19  1  0  0  0  0
 29 28  1  0  0  0  0
 30 29  2  0  0  0  0
 31 30  2  0  0  0  0
 32 33  1  0  0  0  0
 33 29  1  0  0  0  0
 34 31  1  0  0  0  0
 35 34  1  0  0  0  0
 36 35  1  0  0  0  0
 36 39  1  0  0  0  0
 37 36  1  0  0  0  0
 38 37  2  0  0  0  0
 40 45  1  0  0  0  0
 40 42  1  0  0  0  0
 41 42  1  0  0  0  0
 41 43  1  0  0  0  0
 44 39  1  0  0  0  0
 44 43  1  0  0  0  0
 45 44  1  0  0  0  0
M  END
>  <MODEL>
9

>  <REMARK>
 VINA RESULT:      -7.1      3.186      6.225
  Name = 
  16 active torsions:
  status: ('A' for Active; 'I' for Inactive)
    1  A    between atoms: C_1  and  O_23
    2  A    between atoms: C_1  and  C_28
    3  A    between atoms: C_4  and  CA_5
    4  A    between atoms: CA_5  and  C_21
    5  A    between atoms: CA_5  and  N_45
    6  A    between atoms: C_6  and  C_25
    7  A    between atoms: O_7  and  C_10
    8  A    between atoms: O_7  and  N_34
    9  A    between atoms: C_10  and  O_14
   10  A    between atoms: C_12  and  C_22
   11  A    between atoms: C_17  and  C_28
   12  A    between atoms: C_18  and  C_22
   13  A    between atoms: C_18  and  C_41
   14  A    between atoms: C_21  and  C_29
   15  A    between atoms: C_35  and  C_37
   16  A    between atoms: C_37  and  N_45
                            x       y       z     vdW  Elec       q    Type
                         _______ _______ _______ _____ _____    ______ ____

>  <TORSDO>
F 16

$$$$
