=
 OpenBabel10222416313D

 32 37  0  0  1  0  0  0  0  0999 V2000
  188.3230  177.9820  140.6050 C   0  0  0  0  0  0  0  0  0  0  0  0
  189.5520  177.6540  140.9020 N   0  0  0  0  0  0  0  0  0  0  0  0
  183.1190  179.6240  144.2400 N   0  0  0  0  0  1  0  0  0  0  0  0
  186.4950  178.0450  143.9160 C   0  0  0  0  0  0  0  0  0  0  0  0
  186.6890  177.6260  145.2320 C   0  0  0  0  0  3  0  0  0  0  0  0
  185.6990  177.8790  146.1820 C   0  0  0  0  0  3  0  0  0  0  0  0
  186.1020  178.8900  141.2780 C   0  0  0  0  0  3  0  0  0  0  0  0
  187.4730  177.8010  142.9520 C   0  0  0  0  0  3  0  0  0  0  0  0
  187.2750  178.2050  141.6230 C   0  0  0  0  0  0  0  0  0  0  0  0
  185.1180  179.1400  142.2390 C   0  0  0  0  0  3  0  0  0  0  0  0
  184.3350  178.9500  144.5510 C   0  0  0  0  0  0  0  0  0  0  0  0
  185.3040  178.7180  143.5620 C   0  0  0  0  0  0  0  0  0  0  0  0
  184.5570  178.5270  145.8260 N   0  0  0  0  0  0  0  0  0  0  0  0
  188.8900  178.9530  136.9650 N   0  0  0  0  0  2  0  0  0  0  0  0
  188.5990  177.5920  136.5380 C   0  0  2  0  0  3  0  0  0  0  0  0
  189.1370  178.8870  138.4130 C   0  0  0  0  0  2  0  0  0  0  0  0
  187.0470  176.0000  136.3100 C   0  0  0  0  0  2  0  0  0  0  0  0
  187.9660  178.2180  139.1700 C   0  0  1  0  0  3  0  0  0  0  0  0
  188.5290  177.4460  135.0970 N   0  0  0  0  0  0  0  0  0  0  0  0
  187.6560  176.2840  134.9410 C   0  0  0  0  0  2  0  0  0  0  0  0
  189.8490  177.0440  134.6440 C   0  0  0  0  0  1  0  0  0  0  0  0
  187.5380  176.9100  138.4830 C   0  0  0  0  0  2  0  0  0  0  0  0
  187.3170  177.1940  137.0750 N   0  0  1  0  0  0  0  0  0  0  0  0
  190.0770  177.2840  142.1860 C   0  0  0  0  0  0  0  0  0  0  0  0
  191.6760  175.1490  144.4850 C   0  0  0  0  0  3  0  0  0  0  0  0
  192.0770  175.4400  145.8000 C   0  0  0  0  0  3  0  0  0  0  0  0
  190.2080  178.2780  143.3160 C   0  0  0  0  0  2  0  0  0  0  0  0
  190.5860  176.1110  142.4330 N   0  0  0  0  0  0  0  0  0  0  0  0
  191.8540  176.7280  146.3300 C   0  0  0  0  0  3  0  0  0  0  0  0
  191.2510  177.6950  145.5760 N   0  0  0  0  0  0  0  0  0  0  0  0
  191.0660  176.1670  143.7610 C   0  0  0  0  0  0  0  0  0  0  0  0
  190.8670  177.4000  144.3080 C   0  0  0  0  0  0  0  0  0  0  0  0
  1  2  2  0  0  0  0
  1  9  1  0  0  0  0
  2 24  1  0  0  0  0
  3 11  1  0  0  0  0
  4  5  2  0  0  0  0
  5  6  1  0  0  0  0
  7  9  1  0  0  0  0
  7 10  2  0  0  0  0
  8  4  1  0  0  0  0
  9  8  2  0  0  0  0
 10 12  1  0  0  0  0
 11 13  1  0  0  0  0
 12  4  1  0  0  0  0
 12 11  2  0  0  0  0
 13  6  2  0  0  0  0
 14 16  1  0  0  0  0
 15 14  1  6  0  0  0
 15 23  1  0  0  0  0
 16 18  1  0  0  0  0
 18  1  1  1  0  0  0
 19 15  1  0  0  0  0
 20 19  1  0  0  0  0
 20 17  1  0  0  0  0
 21 19  1  0  0  0  0
 22 18  1  0  0  0  0
 23 17  1  6  0  0  0
 23 22  1  0  0  0  0
 24 28  2  0  0  0  0
 24 27  1  0  0  0  0
 25 26  1  0  0  0  0
 26 29  2  0  0  0  0
 27 32  1  0  0  0  0
 28 31  1  0  0  0  0
 30 29  1  0  0  0  0
 31 32  1  0  0  0  0
 31 25  2  0  0  0  0
 32 30  2  0  0  0  0
M  END
>  <MODEL>
1

>  <REMARK>
 VINA RESULT:      -9.3      0.000      0.000
  Name = 
  3 active torsions:
  status: ('A' for Active; 'I' for Inactive)
    1  A    between atoms: C_5  and  N_32
    2  A    between atoms: C_12  and  C_16
    3  A    between atoms: C_16  and  C_17
                            x       y       z     vdW  Elec       q    Type
                         _______ _______ _______ _____ _____    ______ ____

>  <TORSDO>
F 3

$$$$
=
 OpenBabel10222416313D

 32 37  0  0  1  0  0  0  0  0999 V2000
  189.5210  177.5930  141.2440 C   0  0  0  0  0  0  0  0  0  0  0  0
  190.6710  177.2940  141.7840 N   0  0  0  0  0  0  0  0  0  0  0  0
  183.7360  179.3970  143.7520 N   0  0  0  0  0  1  0  0  0  0  0  0
  187.0890  177.7830  144.1360 C   0  0  0  0  0  0  0  0  0  0  0  0
  187.0210  177.4080  145.4780 C   0  0  0  0  0  3  0  0  0  0  0  0
  185.8700  177.7000  146.2100 C   0  0  0  0  0  3  0  0  0  0  0  0
  187.2240  178.5390  141.4460 C   0  0  0  0  0  3  0  0  0  0  0  0
  188.2320  177.4990  143.3870 C   0  0  0  0  0  3  0  0  0  0  0  0
  188.2990  177.8580  142.0320 C   0  0  0  0  0  0  0  0  0  0  0  0
  186.0770  178.8300  142.1910 C   0  0  0  0  0  3  0  0  0  0  0  0
  184.8610  178.7240  144.3130 C   0  0  0  0  0  0  0  0  0  0  0  0
  185.9990  178.4520  143.5370 C   0  0  0  0  0  0  0  0  0  0  0  0
  184.8270  178.3440  145.6200 N   0  0  0  0  0  0  0  0  0  0  0  0
  190.5920  177.1740  137.6120 N   0  0  0  0  0  2  0  0  0  0  0  0
  189.3940  176.3960  137.3300 C   0  0  2  0  0  3  0  0  0  0  0  0
  190.7220  177.2140  139.0760 C   0  0  0  0  0  2  0  0  0  0  0  0
  187.1700  176.4080  137.1110 C   0  0  0  0  0  2  0  0  0  0  0  0
  189.4400  177.7480  139.7560 C   0  0  1  0  0  3  0  0  0  0  0  0
  189.2300  176.0870  135.9230 N   0  0  0  0  0  0  0  0  0  0  0  0
  187.7840  175.9110  135.8060 C   0  0  0  0  0  2  0  0  0  0  0  0
  189.8320  174.7840  135.6980 C   0  0  0  0  0  1  0  0  0  0  0  0
  188.1860  177.0570  139.1940 C   0  0  0  0  0  2  0  0  0  0  0  0
  188.2340  177.1520  137.7440 N   0  0  1  0  0  0  0  0  0  0  0  0
  190.9460  176.9990  143.1620 C   0  0  0  0  0  0  0  0  0  0  0  0
  192.0480  174.9920  145.8370 C   0  0  0  0  0  3  0  0  0  0  0  0
  192.2100  175.3600  147.1840 C   0  0  0  0  0  3  0  0  0  0  0  0
  190.8930  178.0600  144.2360 C   0  0  0  0  0  2  0  0  0  0  0  0
  191.3720  175.8370  143.5670 N   0  0  0  0  0  0  0  0  0  0  0  0
  191.9260  176.6810  147.5870 C   0  0  0  0  0  3  0  0  0  0  0  0
  191.4930  177.6060  146.6790 N   0  0  0  0  0  0  0  0  0  0  0  0
  191.6040  175.9710  144.9550 C   0  0  0  0  0  0  0  0  0  0  0  0
  191.3390  177.2370  145.3820 C   0  0  0  0  0  0  0  0  0  0  0  0
  1  2  2  0  0  0  0
  1  9  1  0  0  0  0
  2 24  1  0  0  0  0
  3 11  1  0  0  0  0
  4  5  2  0  0  0  0
  5  6  1  0  0  0  0
  7  9  1  0  0  0  0
  7 10  2  0  0  0  0
  8  4  1  0  0  0  0
  9  8  2  0  0  0  0
 10 12  1  0  0  0  0
 11 13  1  0  0  0  0
 12  4  1  0  0  0  0
 12 11  2  0  0  0  0
 13  6  2  0  0  0  0
 14 16  1  0  0  0  0
 15 14  1  6  0  0  0
 15 23  1  0  0  0  0
 16 18  1  0  0  0  0
 18  1  1  1  0  0  0
 19 15  1  0  0  0  0
 20 19  1  0  0  0  0
 20 17  1  0  0  0  0
 21 19  1  0  0  0  0
 22 18  1  0  0  0  0
 23 17  1  6  0  0  0
 23 22  1  0  0  0  0
 24 28  2  0  0  0  0
 24 27  1  0  0  0  0
 25 26  1  0  0  0  0
 26 29  2  0  0  0  0
 27 32  1  0  0  0  0
 28 31  1  0  0  0  0
 30 29  1  0  0  0  0
 31 32  1  0  0  0  0
 31 25  2  0  0  0  0
 32 30  2  0  0  0  0
M  END
>  <MODEL>
2

>  <REMARK>
 VINA RESULT:      -8.7      1.246      1.337
  Name = 
  3 active torsions:
  status: ('A' for Active; 'I' for Inactive)
    1  A    between atoms: C_5  and  N_32
    2  A    between atoms: C_12  and  C_16
    3  A    between atoms: C_16  and  C_17
                            x       y       z     vdW  Elec       q    Type
                         _______ _______ _______ _____ _____    ______ ____

>  <TORSDO>
F 3

$$$$
=
 OpenBabel10222416313D

 32 37  0  0  1  0  0  0  0  0999 V2000
  189.2780  177.8450  141.3490 C   0  0  0  0  0  0  0  0  0  0  0  0
  188.0000  178.0530  141.1790 N   0  0  0  0  0  0  0  0  0  0  0  0
  191.6340  177.4800  147.4580 N   0  0  0  0  0  1  0  0  0  0  0  0
  191.1680  175.9960  144.0560 C   0  0  0  0  0  0  0  0  0  0  0  0
  191.8440  174.7890  144.2270 C   0  0  0  0  0  3  0  0  0  0  0  0
  192.4310  174.5050  145.4610 C   0  0  0  0  0  3  0  0  0  0  0  0
  189.8140  178.4210  143.7140 C   0  0  0  0  0  3  0  0  0  0  0  0
  190.5730  176.2980  142.8290 C   0  0  0  0  0  3  0  0  0  0  0  0
  189.8770  177.5030  142.6570 C   0  0  0  0  0  0  0  0  0  0  0  0
  190.4080  178.1270  144.9450 C   0  0  0  0  0  3  0  0  0  0  0  0
  191.6900  176.5850  146.3500 C   0  0  0  0  0  0  0  0  0  0  0  0
  191.0850  176.9140  145.1260 C   0  0  0  0  0  0  0  0  0  0  0  0
  192.3420  175.3970  146.4840 N   0  0  0  0  0  0  0  0  0  0  0  0
  192.4390  177.1970  139.3240 N   0  0  0  0  0  2  0  0  0  0  0  0
  191.6970  176.3440  138.4060 C   0  0  2  0  0  3  0  0  0  0  0  0
  191.5920  177.3560  140.5150 C   0  0  0  0  0  2  0  0  0  0  0  0
  190.1440  176.2340  136.8030 C   0  0  0  0  0  2  0  0  0  0  0  0
  190.1810  177.8800  140.1550 C   0  0  1  0  0  3  0  0  0  0  0  0
  192.4790  175.9200  137.2610 N   0  0  0  0  0  0  0  0  0  0  0  0
  191.4490  175.6670  136.2540 C   0  0  0  0  0  2  0  0  0  0  0  0
  193.0640  174.6330  137.5950 C   0  0  0  0  0  1  0  0  0  0  0  0
  189.5790  177.0890  138.9810 C   0  0  0  0  0  2  0  0  0  0  0  0
  190.5550  177.0740  137.9040 N   0  0  1  0  0  0  0  0  0  0  0  0
  186.9850  178.1660  142.1880 C   0  0  0  0  0  0  0  0  0  0  0  0
  185.6940  177.9320  145.4560 C   0  0  0  0  0  3  0  0  0  0  0  0
  184.4450  178.3720  145.9250 C   0  0  0  0  0  3  0  0  0  0  0  0
  185.6670  178.8560  141.9260 C   0  0  0  0  0  2  0  0  0  0  0  0
  187.1690  177.7960  143.4230 N   0  0  0  0  0  0  0  0  0  0  0  0
  183.5470  179.0030  145.0380 C   0  0  0  0  0  3  0  0  0  0  0  0
  183.8830  179.1900  143.7260 N   0  0  0  0  0  0  0  0  0  0  0  0
  185.9860  178.1460  144.1130 C   0  0  0  0  0  0  0  0  0  0  0  0
  185.0930  178.7580  143.2860 C   0  0  0  0  0  0  0  0  0  0  0  0
  1  9  1  0  0  0  0
  2  1  2  0  0  0  0
  2 24  1  0  0  0  0
  4  5  2  0  0  0  0
  4 12  1  0  0  0  0
  5  6  1  0  0  0  0
  6 13  2  0  0  0  0
  7 10  2  0  0  0  0
  8  4  1  0  0  0  0
  9  8  2  0  0  0  0
  9  7  1  0  0  0  0
 10 12  1  0  0  0  0
 11 13  1  0  0  0  0
 11  3  1  0  0  0  0
 12 11  2  0  0  0  0
 14 16  1  0  0  0  0
 15 14  1  1  0  0  0
 18 16  1  0  0  0  0
 18  1  1  1  0  0  0
 19 21  1  0  0  0  0
 19 15  1  0  0  0  0
 20 17  1  0  0  0  0
 20 19  1  0  0  0  0
 22 18  1  0  0  0  0
 23 17  1  6  0  0  0
 23 15  1  0  0  0  0
 23 22  1  0  0  0  0
 24 28  2  0  0  0  0
 25 26  1  0  0  0  0
 27 24  1  0  0  0  0
 27 32  1  0  0  0  0
 28 31  1  0  0  0  0
 29 26  2  0  0  0  0
 30 29  1  0  0  0  0
 31 25  2  0  0  0  0
 32 30  2  0  0  0  0
 32 31  1  0  0  0  0
M  END
>  <MODEL>
3

>  <REMARK>
 VINA RESULT:      -8.7      2.094      5.494
  Name = 
  3 active torsions:
  status: ('A' for Active; 'I' for Inactive)
    1  A    between atoms: C_5  and  N_32
    2  A    between atoms: C_12  and  C_16
    3  A    between atoms: C_16  and  C_17
                            x       y       z     vdW  Elec       q    Type
                         _______ _______ _______ _____ _____    ______ ____

>  <TORSDO>
F 3

$$$$
=
 OpenBabel10222416313D

 32 37  0  0  1  0  0  0  0  0999 V2000
  188.3910  177.9300  141.1890 C   0  0  0  0  0  0  0  0  0  0  0  0
  189.6220  177.5300  141.3600 N   0  0  0  0  0  0  0  0  0  0  0  0
  185.0230  178.2250  146.8080 N   0  0  0  0  0  1  0  0  0  0  0  0
  185.2250  178.7160  143.1050 C   0  0  0  0  0  0  0  0  0  0  0  0
  183.9340  179.1840  142.8550 C   0  0  0  0  0  3  0  0  0  0  0  0
  183.0420  179.3220  143.9190 C   0  0  0  0  0  3  0  0  0  0  0  0
  187.8110  177.7760  143.6080 C   0  0  0  0  0  3  0  0  0  0  0  0
  186.1320  178.5730  142.0550 C   0  0  0  0  0  3  0  0  0  0  0  0
  187.4370  178.1200  142.3020 C   0  0  0  0  0  0  0  0  0  0  0  0
  186.9070  177.9150  144.6650 C   0  0  0  0  0  3  0  0  0  0  0  0
  184.6790  178.5430  145.4620 C   0  0  0  0  0  0  0  0  0  0  0  0
  185.6110  178.3880  144.4230 C   0  0  0  0  0  0  0  0  0  0  0  0
  183.4270  179.0030  145.1840 N   0  0  0  0  0  0  0  0  0  0  0  0
  188.7040  179.1900  137.6070 N   0  0  0  0  0  2  0  0  0  0  0  0
  188.3590  177.8710  137.0950 C   0  0  2  0  0  3  0  0  0  0  0  0
  189.0570  179.0020  139.0220 C   0  0  0  0  0  2  0  0  0  0  0  0
  186.7670  176.3210  136.8550 C   0  0  0  0  0  2  0  0  0  0  0  0
  187.9330  178.2870  139.8080 C   0  0  1  0  0  3  0  0  0  0  0  0
  188.1810  177.8440  135.6560 N   0  0  0  0  0  0  0  0  0  0  0  0
  187.2780  176.7090  135.4720 C   0  0  0  0  0  2  0  0  0  0  0  0
  189.4570  177.4650  135.0740 C   0  0  0  0  0  1  0  0  0  0  0  0
  187.4320  177.0440  139.0510 C   0  0  0  0  0  2  0  0  0  0  0  0
  187.1130  177.4460  137.6910 N   0  0  1  0  0  0  0  0  0  0  0  0
  190.2290  177.0440  142.5670 C   0  0  0  0  0  0  0  0  0  0  0  0
  191.9040  174.6800  144.5690 C   0  0  0  0  0  3  0  0  0  0  0  0
  192.4190  174.8550  145.8640 C   0  0  0  0  0  3  0  0  0  0  0  0
  190.4920  177.9430  143.7510 C   0  0  0  0  0  2  0  0  0  0  0  0
  190.7010  175.8360  142.6860 N   0  0  0  0  0  0  0  0  0  0  0  0
  192.2970  176.1080  146.5020 C   0  0  0  0  0  3  0  0  0  0  0  0
  191.6810  177.1510  145.8710 N   0  0  0  0  0  0  0  0  0  0  0  0
  191.2860  175.7740  143.9720 C   0  0  0  0  0  0  0  0  0  0  0  0
  191.1860  176.9680  144.6200 C   0  0  0  0  0  0  0  0  0  0  0  0
  1  2  2  0  0  0  0
  1  9  1  0  0  0  0
  2 24  1  0  0  0  0
  4 12  1  0  0  0  0
  5  4  2  0  0  0  0
  5  6  1  0  0  0  0
  6 13  2  0  0  0  0
  7 10  2  0  0  0  0
  8  9  2  0  0  0  0
  8  4  1  0  0  0  0
  9  7  1  0  0  0  0
 11  3  1  0  0  0  0
 12 10  1  0  0  0  0
 12 11  2  0  0  0  0
 13 11  1  0  0  0  0
 14 16  1  0  0  0  0
 15 14  1  1  0  0  0
 15 23  1  0  0  0  0
 16 18  1  0  0  0  0
 18  1  1  1  0  0  0
 19 15  1  0  0  0  0
 20 19  1  0  0  0  0
 20 17  1  0  0  0  0
 21 19  1  0  0  0  0
 22 18  1  0  0  0  0
 23 17  1  6  0  0  0
 23 22  1  0  0  0  0
 24 28  2  0  0  0  0
 24 27  1  0  0  0  0
 25 26  1  0  0  0  0
 26 29  2  0  0  0  0
 27 32  1  0  0  0  0
 28 31  1  0  0  0  0
 30 29  1  0  0  0  0
 31 25  2  0  0  0  0
 31 32  1  0  0  0  0
 32 30  2  0  0  0  0
M  END
>  <MODEL>
4

>  <REMARK>
 VINA RESULT:      -8.6      0.786      1.594
  Name = 
  3 active torsions:
  status: ('A' for Active; 'I' for Inactive)
    1  A    between atoms: C_5  and  N_32
    2  A    between atoms: C_12  and  C_16
    3  A    between atoms: C_16  and  C_17
                            x       y       z     vdW  Elec       q    Type
                         _______ _______ _______ _____ _____    ______ ____

>  <TORSDO>
F 3

$$$$
=
 OpenBabel10222416313D

 32 37  0  0  1  0  0  0  0  0999 V2000
  184.7350  178.5880  143.1720 C   0  0  0  0  0  0  0  0  0  0  0  0
  184.5430  178.4880  144.4600 N   0  0  0  0  0  0  0  0  0  0  0  0
  190.0420  178.0420  139.3590 N   0  0  0  0  0  1  0  0  0  0  0  0
  188.1600  177.1450  142.4660 C   0  0  0  0  0  0  0  0  0  0  0  0
  189.0720  176.2680  143.0520 C   0  0  0  0  0  3  0  0  0  0  0  0
  190.2780  176.0040  142.4030 C   0  0  0  0  0  3  0  0  0  0  0  0
  186.3310  178.9020  141.2840 C   0  0  0  0  0  3  0  0  0  0  0  0
  186.9490  177.4230  143.1000 C   0  0  0  0  0  3  0  0  0  0  0  0
  186.0350  178.3180  142.5230 C   0  0  0  0  0  0  0  0  0  0  0  0
  187.5410  178.6270  140.6410 C   0  0  0  0  0  3  0  0  0  0  0  0
  189.6910  177.4550  140.6100 C   0  0  0  0  0  0  0  0  0  0  0  0
  188.4650  177.7510  141.2270 C   0  0  0  0  0  0  0  0  0  0  0  0
  190.5590  176.5950  141.2100 N   0  0  0  0  0  0  0  0  0  0  0  0
  182.1700  178.0650  140.4030 N   0  0  0  0  0  2  0  0  0  0  0  0
  181.0910  178.0600  141.3800 C   0  0  2  0  0  3  0  0  0  0  0  0
  183.4150  177.8740  141.1630 C   0  0  0  0  0  2  0  0  0  0  0  0
  179.8910  179.2500  142.8420 C   0  0  0  0  0  2  0  0  0  0  0  0
  183.5700  178.9210  142.2920 C   0  0  1  0  0  3  0  0  0  0  0  0
  179.7730  178.0340  140.7770 N   0  0  0  0  0  0  0  0  0  0  0  0
  178.9420  178.6500  141.8100 C   0  0  0  0  0  2  0  0  0  0  0  0
  179.3690  176.6420  140.6880 C   0  0  0  0  0  1  0  0  0  0  0  0
  182.2740  179.0480  143.1110 C   0  0  0  0  0  2  0  0  0  0  0  0
  181.1750  179.2590  142.1820 N   0  0  1  0  0  0  0  0  0  0  0  0
  185.5290  178.2840  145.4830 C   0  0  0  0  0  0  0  0  0  0  0  0
  188.3450  176.7520  146.9410 C   0  0  0  0  0  3  0  0  0  0  0  0
  189.0220  177.1280  148.1130 C   0  0  0  0  0  3  0  0  0  0  0  0
  185.6880  179.2350  146.6450 C   0  0  0  0  0  2  0  0  0  0  0  0
  186.4280  177.3440  145.4240 N   0  0  0  0  0  0  0  0  0  0  0  0
  188.5860  178.2530  148.8440 C   0  0  0  0  0  3  0  0  0  0  0  0
  187.5080  178.9800  148.4220 N   0  0  0  0  0  0  0  0  0  0  0  0
  187.2540  177.5250  146.5560 C   0  0  0  0  0  0  0  0  0  0  0  0
  186.8610  178.6050  147.2890 C   0  0  0  0  0  0  0  0  0  0  0  0
  1  2  2  0  0  0  0
  2 24  1  0  0  0  0
  3 11  1  0  0  0  0
  4  5  1  0  0  0  0
  4  8  1  0  0  0  0
  6  5  2  0  0  0  0
  7  9  1  0  0  0  0
  9  8  2  0  0  0  0
  9  1  1  0  0  0  0
 10 12  1  0  0  0  0
 10  7  2  0  0  0  0
 11 13  2  0  0  0  0
 11 12  1  0  0  0  0
 12  4  2  0  0  0  0
 13  6  1  0  0  0  0
 14 16  1  0  0  0  0
 15 14  1  6  0  0  0
 15 23  1  0  0  0  0
 16 18  1  0  0  0  0
 18 22  1  0  0  0  0
 18  1  1  1  0  0  0
 19 15  1  0  0  0  0
 19 20  1  0  0  0  0
 20 17  1  0  0  0  0
 21 19  1  0  0  0  0
 23 17  1  1  0  0  0
 23 22  1  0  0  0  0
 24 27  1  0  0  0  0
 25 26  1  0  0  0  0
 26 29  2  0  0  0  0
 27 32  1  0  0  0  0
 28 24  2  0  0  0  0
 28 31  1  0  0  0  0
 30 29  1  0  0  0  0
 31 25  2  0  0  0  0
 31 32  1  0  0  0  0
 32 30  2  0  0  0  0
M  END
>  <MODEL>
5

>  <REMARK>
 VINA RESULT:      -8.6      2.882      6.538
  Name = 
  3 active torsions:
  status: ('A' for Active; 'I' for Inactive)
    1  A    between atoms: C_5  and  N_32
    2  A    between atoms: C_12  and  C_16
    3  A    between atoms: C_16  and  C_17
                            x       y       z     vdW  Elec       q    Type
                         _______ _______ _______ _____ _____    ______ ____

>  <TORSDO>
F 3

$$$$
=
 OpenBabel10222416313D

 32 37  0  0  1  0  0  0  0  0999 V2000
  187.0560  178.4140  140.8730 C   0  0  0  0  0  0  0  0  0  0  0  0
  187.4270  178.1860  139.6420 N   0  0  0  0  0  0  0  0  0  0  0  0
  189.7020  176.3570  146.5090 N   0  0  0  0  0  1  0  0  0  0  0  0
  189.9440  178.2840  143.3120 C   0  0  0  0  0  0  0  0  0  0  0  0
  191.2390  178.7890  143.4360 C   0  0  0  0  0  3  0  0  0  0  0  0
  191.9880  178.4750  144.5700 C   0  0  0  0  0  3  0  0  0  0  0  0
  187.3470  177.2730  143.0690 C   0  0  0  0  0  3  0  0  0  0  0  0
  189.1800  178.5860  142.1850 C   0  0  0  0  0  3  0  0  0  0  0  0
  187.8840  178.0670  142.0470 C   0  0  0  0  0  0  0  0  0  0  0  0
  188.1060  176.9680  144.2030 C   0  0  0  0  0  3  0  0  0  0  0  0
  190.1990  177.1770  145.4550 C   0  0  0  0  0  0  0  0  0  0  0  0
  189.4090  177.4660  144.3320 C   0  0  0  0  0  0  0  0  0  0  0  0
  191.4600  177.6850  145.5440 N   0  0  0  0  0  0  0  0  0  0  0  0
  183.4690  179.5020  140.1870 N   0  0  0  0  0  2  0  0  0  0  0  0
  183.0140  178.8180  141.3890 C   0  0  2  0  0  3  0  0  0  0  0  0
  184.8140  178.9810  139.9020 C   0  0  0  0  0  2  0  0  0  0  0  0
  183.0160  178.7700  143.6240 C   0  0  0  0  0  2  0  0  0  0  0  0
  185.7610  179.1270  141.1170 C   0  0  1  0  0  3  0  0  0  0  0  0
  181.6180  179.0670  141.6960 N   0  0  0  0  0  0  0  0  0  0  0  0
  181.5720  178.8570  143.1420 C   0  0  0  0  0  2  0  0  0  0  0  0
  180.8490  177.9940  141.0900 C   0  0  0  0  0  1  0  0  0  0  0  0
  185.0870  178.6270  142.4060 C   0  0  0  0  0  2  0  0  0  0  0  0
  183.7920  179.2780  142.5170 N   0  0  1  0  0  0  0  0  0  0  0  0
  188.5640  177.4350  139.1910 C   0  0  0  0  0  0  0  0  0  0  0  0
  190.1900  174.8530  137.4330 C   0  0  0  0  0  3  0  0  0  0  0  0
  191.5710  174.6710  137.2460 C   0  0  0  0  0  3  0  0  0  0  0  0
  189.9790  177.9220  139.3950 C   0  0  0  0  0  2  0  0  0  0  0  0
  188.4600  176.3520  138.4760 N   0  0  0  0  0  0  0  0  0  0  0  0
  192.4790  175.6030  137.7920 C   0  0  0  0  0  3  0  0  0  0  0  0
  192.0270  176.6800  138.5010 N   0  0  0  0  0  0  0  0  0  0  0  0
  189.7830  175.9640  138.1630 C   0  0  0  0  0  0  0  0  0  0  0  0
  190.6910  176.8420  138.6760 C   0  0  0  0  0  0  0  0  0  0  0  0
  1  9  1  0  0  0  0
  2  1  2  0  0  0  0
  4  5  2  0  0  0  0
  4 12  1  0  0  0  0
  5  6  1  0  0  0  0
  6 13  2  0  0  0  0
  7 10  2  0  0  0  0
  8  4  1  0  0  0  0
  9  8  2  0  0  0  0
  9  7  1  0  0  0  0
 10 12  1  0  0  0  0
 11 13  1  0  0  0  0
 11  3  1  0  0  0  0
 12 11  2  0  0  0  0
 15 14  1  6  0  0  0
 15 19  1  0  0  0  0
 15 23  1  0  0  0  0
 16 14  1  0  0  0  0
 16 18  1  0  0  0  0
 18  1  1  6  0  0  0
 18 22  1  0  0  0  0
 19 20  1  0  0  0  0
 20 17  1  0  0  0  0
 21 19  1  0  0  0  0
 23 22  1  6  0  0  0
 23 17  1  0  0  0  0
 24 27  1  0  0  0  0
 24  2  1  0  0  0  0
 25 31  1  0  0  0  0
 26 25  2  0  0  0  0
 26 29  1  0  0  0  0
 28 24  2  0  0  0  0
 29 30  2  0  0  0  0
 30 32  1  0  0  0  0
 31 28  1  0  0  0  0
 31 32  2  0  0  0  0
 32 27  1  0  0  0  0
M  END
>  <MODEL>
6

>  <REMARK>
 VINA RESULT:      -8.4      2.343      6.251
  Name = 
  3 active torsions:
  status: ('A' for Active; 'I' for Inactive)
    1  A    between atoms: C_5  and  N_32
    2  A    between atoms: C_12  and  C_16
    3  A    between atoms: C_16  and  C_17
                            x       y       z     vdW  Elec       q    Type
                         _______ _______ _______ _____ _____    ______ ____

>  <TORSDO>
F 3

$$$$
=
 OpenBabel10222416313D

 32 37  0  0  1  0  0  0  0  0999 V2000
  189.8840  177.4940  141.6400 C   0  0  0  0  0  0  0  0  0  0  0  0
  190.2320  177.2260  140.4110 N   0  0  0  0  0  0  0  0  0  0  0  0
  183.5980  179.2350  142.3160 N   0  0  0  0  0  1  0  0  0  0  0  0
  186.7720  177.8780  143.7570 C   0  0  0  0  0  0  0  0  0  0  0  0
  186.3620  177.6590  145.0720 C   0  0  0  0  0  3  0  0  0  0  0  0
  185.0520  177.9660  145.4390 C   0  0  0  0  0  3  0  0  0  0  0  0
  187.5910  178.3200  141.1190 C   0  0  0  0  0  3  0  0  0  0  0  0
  188.0790  177.5760  143.3710 C   0  0  0  0  0  3  0  0  0  0  0  0
  188.4910  177.7770  142.0450 C   0  0  0  0  0  0  0  0  0  0  0  0
  186.2810  178.6280  141.4980 C   0  0  0  0  0  3  0  0  0  0  0  0
  184.5520  178.7000  143.2300 C   0  0  0  0  0  0  0  0  0  0  0  0
  185.8610  178.4060  142.8160 C   0  0  0  0  0  0  0  0  0  0  0  0
  184.1850  178.4740  144.5210 N   0  0  0  0  0  0  0  0  0  0  0  0
  191.5310  178.3380  144.9710 N   0  0  0  0  0  2  0  0  0  0  0  0
  191.3930  176.9560  145.4090 C   0  0  2  0  0  3  0  0  0  0  0  0
  190.6380  178.4940  143.8130 C   0  0  0  0  0  2  0  0  0  0  0  0
  192.0550  174.8380  145.1390 C   0  0  0  0  0  2  0  0  0  0  0  0
  190.9270  177.4440  142.7140 C   0  0  1  0  0  3  0  0  0  0  0  0
  192.0560  176.6860  146.6700 N   0  0  0  0  0  0  0  0  0  0  0  0
  192.3310  175.2530  146.5810 C   0  0  0  0  0  2  0  0  0  0  0  0
  191.0660  176.8590  147.7180 C   0  0  0  0  0  1  0  0  0  0  0  0
  191.0390  176.0320  143.3130 C   0  0  0  0  0  2  0  0  0  0  0  0
  191.9840  176.0860  144.4170 N   0  0  1  0  0  0  0  0  0  0  0  0
  189.4240  177.3190  139.2280 C   0  0  0  0  0  0  0  0  0  0  0  0
  187.1760  176.1180  136.7970 C   0  0  0  0  0  3  0  0  0  0  0  0
  186.5550  176.8390  135.7640 C   0  0  0  0  0  3  0  0  0  0  0  0
  189.1790  178.6320  138.5240 C   0  0  0  0  0  2  0  0  0  0  0  0
  188.7530  176.3110  138.7480 N   0  0  0  0  0  0  0  0  0  0  0  0
  186.8060  178.2210  135.6260 C   0  0  0  0  0  3  0  0  0  0  0  0
  187.6480  178.8630  136.4890 N   0  0  0  0  0  0  0  0  0  0  0  0
  188.0250  176.8190  137.6470 C   0  0  0  0  0  0  0  0  0  0  0  0
  188.2440  178.1540  137.4820 C   0  0  0  0  0  0  0  0  0  0  0  0
  1  9  1  0  0  0  0
  2  1  2  0  0  0  0
  3 11  1  0  0  0  0
  4  5  2  0  0  0  0
  5  6  1  0  0  0  0
  7 10  2  0  0  0  0
  7  9  1  0  0  0  0
  8  4  1  0  0  0  0
  9  8  2  0  0  0  0
 10 12  1  0  0  0  0
 11 13  1  0  0  0  0
 12 11  2  0  0  0  0
 12  4  1  0  0  0  0
 13  6  2  0  0  0  0
 15 14  1  6  0  0  0
 15 19  1  0  0  0  0
 16 14  1  0  0  0  0
 17 20  1  0  0  0  0
 18  1  1  6  0  0  0
 18 22  1  0  0  0  0
 18 16  1  0  0  0  0
 19 21  1  0  0  0  0
 20 19  1  0  0  0  0
 23 22  1  6  0  0  0
 23 17  1  0  0  0  0
 23 15  1  0  0  0  0
 24  2  1  0  0  0  0
 25 31  1  0  0  0  0
 26 25  2  0  0  0  0
 27 24  1  0  0  0  0
 28 24  2  0  0  0  0
 29 26  1  0  0  0  0
 29 30  2  0  0  0  0
 30 32  1  0  0  0  0
 31 28  1  0  0  0  0
 32 31  2  0  0  0  0
 32 27  1  0  0  0  0
M  END
>  <MODEL>
7

>  <REMARK>
 VINA RESULT:      -8.4      1.276      6.922
  Name = 
  3 active torsions:
  status: ('A' for Active; 'I' for Inactive)
    1  A    between atoms: C_5  and  N_32
    2  A    between atoms: C_12  and  C_16
    3  A    between atoms: C_16  and  C_17
                            x       y       z     vdW  Elec       q    Type
                         _______ _______ _______ _____ _____    ______ ____

>  <TORSDO>
F 3

$$$$
=
 OpenBabel10222416313D

 32 37  0  0  1  0  0  0  0  0999 V2000
  186.9420  178.4740  140.1770 C   0  0  0  0  0  0  0  0  0  0  0  0
  186.0630  178.6190  139.2220 N   0  0  0  0  0  0  0  0  0  0  0  0
  184.4000  179.0030  146.1990 N   0  0  0  0  0  1  0  0  0  0  0  0
  187.1350  177.8770  143.9080 C   0  0  0  0  0  0  0  0  0  0  0  0
  188.0050  177.3080  144.8370 C   0  0  0  0  0  3  0  0  0  0  0  0
  187.6590  177.3140  146.1890 C   0  0  0  0  0  3  0  0  0  0  0  0
  185.3880  179.0220  142.0470 C   0  0  0  0  0  3  0  0  0  0  0  0
  187.4630  177.8800  142.5520 C   0  0  0  0  0  3  0  0  0  0  0  0
  186.5830  178.4350  141.6100 C   0  0  0  0  0  0  0  0  0  0  0  0
  185.0530  179.0260  143.4040 C   0  0  0  0  0  3  0  0  0  0  0  0
  185.6140  178.4350  145.7130 C   0  0  0  0  0  0  0  0  0  0  0  0
  185.9200  178.4520  144.3430 C   0  0  0  0  0  0  0  0  0  0  0  0
  186.4850  177.8700  146.5940 N   0  0  0  0  0  0  0  0  0  0  0  0
  190.3100  176.6960  140.0750 N   0  0  0  0  0  2  0  0  0  0  0  0
  190.1920  176.5180  138.6340 C   0  0  2  0  0  3  0  0  0  0  0  0
  188.9650  177.0420  140.5580 C   0  0  0  0  0  2  0  0  0  0  0  0
  190.1780  177.5030  136.6280 C   0  0  0  0  0  2  0  0  0  0  0  0
  188.3790  178.2640  139.8110 C   0  0  1  0  0  3  0  0  0  0  0  0
  191.3890  175.9730  138.0250 N   0  0  0  0  0  0  0  0  0  0  0  0
  191.2940  176.4640  136.6510 C   0  0  0  0  0  2  0  0  0  0  0  0
  191.2220  174.5320  137.9680 C   0  0  0  0  0  1  0  0  0  0  0  0
  188.5480  178.1140  138.2890 C   0  0  0  0  0  2  0  0  0  0  0  0
  189.9420  177.8030  138.0210 N   0  0  1  0  0  0  0  0  0  0  0  0
  184.6690  178.9330  139.3500 C   0  0  0  0  0  0  0  0  0  0  0  0
  181.8250  180.9940  139.0940 C   0  0  0  0  0  3  0  0  0  0  0  0
  180.4810  180.6420  139.3020 C   0  0  0  0  0  3  0  0  0  0  0  0
  183.6350  177.8790  139.6700 C   0  0  0  0  0  2  0  0  0  0  0  0
  184.1800  180.1110  139.0870 N   0  0  0  0  0  0  0  0  0  0  0  0
  180.1510  179.3150  139.6490 C   0  0  0  0  0  3  0  0  0  0  0  0
  181.1290  178.3700  139.7860 N   0  0  0  0  0  0  0  0  0  0  0  0
  182.7800  179.9950  139.2460 C   0  0  0  0  0  0  0  0  0  0  0  0
  182.4230  178.7240  139.5830 C   0  0  0  0  0  0  0  0  0  0  0  0
  1  9  1  0  0  0  0
  2 24  1  0  0  0  0
  2  1  2  0  0  0  0
  4 12  1  0  0  0  0
  4  5  2  0  0  0  0
  5  6  1  0  0  0  0
  6 13  2  0  0  0  0
  7 10  2  0  0  0  0
  8  4  1  0  0  0  0
  9  7  1  0  0  0  0
  9  8  2  0  0  0  0
 10 12  1  0  0  0  0
 11  3  1  0  0  0  0
 11 13  1  0  0  0  0
 12 11  2  0  0  0  0
 14 16  1  0  0  0  0
 15 14  1  1  0  0  0
 17 20  1  0  0  0  0
 18  1  1  6  0  0  0
 18 16  1  0  0  0  0
 19 15  1  0  0  0  0
 20 19  1  0  0  0  0
 21 19  1  0  0  0  0
 22 18  1  0  0  0  0
 23 17  1  6  0  0  0
 23 22  1  0  0  0  0
 23 15  1  0  0  0  0
 24 27  1  0  0  0  0
 25 31  2  0  0  0  0
 25 26  1  0  0  0  0
 26 29  2  0  0  0  0
 28 31  1  0  0  0  0
 28 24  2  0  0  0  0
 29 30  1  0  0  0  0
 31 32  1  0  0  0  0
 32 27  1  0  0  0  0
 32 30  2  0  0  0  0
M  END
>  <MODEL>
8

>  <REMARK>
 VINA RESULT:      -8.4      2.850      6.140
  Name = 
  3 active torsions:
  status: ('A' for Active; 'I' for Inactive)
    1  A    between atoms: C_5  and  N_32
    2  A    between atoms: C_12  and  C_16
    3  A    between atoms: C_16  and  C_17
                            x       y       z     vdW  Elec       q    Type
                         _______ _______ _______ _____ _____    ______ ____

>  <TORSDO>
F 3

$$$$
=
 OpenBabel10222416313D

 32 37  0  0  1  0  0  0  0  0999 V2000
  185.6140  178.6640  140.5160 C   0  0  0  0  0  0  0  0  0  0  0  0
  186.3280  178.5310  139.4310 N   0  0  0  0  0  0  0  0  0  0  0  0
  188.8600  176.9230  145.9420 N   0  0  0  0  0  1  0  0  0  0  0  0
  185.8820  178.4650  144.2850 C   0  0  0  0  0  0  0  0  0  0  0  0
  185.1370  178.8160  145.4110 C   0  0  0  0  0  3  0  0  0  0  0  0
  185.6440  178.5320  146.6790 C   0  0  0  0  0  3  0  0  0  0  0  0
  187.3760  177.7580  142.0280 C   0  0  0  0  0  3  0  0  0  0  0  0
  185.3920  178.7420  143.0080 C   0  0  0  0  0  3  0  0  0  0  0  0
  186.1450  178.4070  141.8720 C   0  0  0  0  0  0  0  0  0  0  0  0
  187.8730  177.4750  143.3040 C   0  0  0  0  0  3  0  0  0  0  0  0
  187.6030  177.5630  145.7360 C   0  0  0  0  0  0  0  0  0  0  0  0
  187.1330  177.8290  144.4400 C   0  0  0  0  0  0  0  0  0  0  0  0
  186.8510  177.9190  146.8140 N   0  0  0  0  0  0  0  0  0  0  0  0
  182.5720  180.2050  138.8170 N   0  0  0  0  0  2  0  0  0  0  0  0
  181.8300  178.9630  138.9820 C   0  0  2  0  0  3  0  0  0  0  0  0
  183.9870  179.8710  139.0390 C   0  0  0  0  0  2  0  0  0  0  0  0
  180.8430  177.5550  140.4090 C   0  0  0  0  0  2  0  0  0  0  0  0
  184.2090  179.1700  140.4000 C   0  0  1  0  0  3  0  0  0  0  0  0
  180.4360  179.0740  138.5970 N   0  0  0  0  0  0  0  0  0  0  0  0
  179.8050  178.0250  139.3960 C   0  0  0  0  0  2  0  0  0  0  0  0
  180.3420  178.6580  137.2080 C   0  0  0  0  0  1  0  0  0  0  0  0
  183.1920  178.0360  140.6120 C   0  0  0  0  0  2  0  0  0  0  0  0
  181.8630  178.5760  140.3740 N   0  0  1  0  0  0  0  0  0  0  0  0
  187.6430  177.9700  139.3060 C   0  0  0  0  0  0  0  0  0  0  0  0
  190.0560  175.7460  138.0280 C   0  0  0  0  0  3  0  0  0  0  0  0
  191.4450  175.7640  138.2380 C   0  0  0  0  0  3  0  0  0  0  0  0
  188.8580  178.6290  139.9150 C   0  0  0  0  0  2  0  0  0  0  0  0
  187.9030  176.9300  138.5670 N   0  0  0  0  0  0  0  0  0  0  0  0
  192.0180  176.7740  139.0400 C   0  0  0  0  0  3  0  0  0  0  0  0
  191.2330  177.7330  139.6140 N   0  0  0  0  0  0  0  0  0  0  0  0
  189.3030  176.7440  138.6360 C   0  0  0  0  0  0  0  0  0  0  0  0
  189.8920  177.7030  139.4050 C   0  0  0  0  0  0  0  0  0  0  0  0
  1  9  1  0  0  0  0
  2  1  2  0  0  0  0
  4 12  1  0  0  0  0
  4  5  2  0  0  0  0
  5  6  1  0  0  0  0
  6 13  2  0  0  0  0
  7 10  2  0  0  0  0
  8  4  1  0  0  0  0
  9  7  1  0  0  0  0
  9  8  2  0  0  0  0
 10 12  1  0  0  0  0
 11  3  1  0  0  0  0
 11 13  1  0  0  0  0
 12 11  2  0  0  0  0
 14 16  1  0  0  0  0
 15 14  1  1  0  0  0
 15 23  1  0  0  0  0
 16 18  1  0  0  0  0
 18  1  1  6  0  0  0
 18 22  1  0  0  0  0
 19 15  1  0  0  0  0
 19 20  1  0  0  0  0
 20 17  1  0  0  0  0
 21 19  1  0  0  0  0
 23 17  1  6  0  0  0
 23 22  1  0  0  0  0
 24  2  1  0  0  0  0
 24 27  1  0  0  0  0
 25 26  2  0  0  0  0
 25 31  1  0  0  0  0
 26 29  1  0  0  0  0
 28 31  1  0  0  0  0
 28 24  2  0  0  0  0
 29 30  2  0  0  0  0
 31 32  2  0  0  0  0
 32 30  1  0  0  0  0
 32 27  1  0  0  0  0
M  END
>  <MODEL>
9

>  <REMARK>
 VINA RESULT:      -8.3      3.158      5.437
  Name = 
  3 active torsions:
  status: ('A' for Active; 'I' for Inactive)
    1  A    between atoms: C_5  and  N_32
    2  A    between atoms: C_12  and  C_16
    3  A    between atoms: C_16  and  C_17
                            x       y       z     vdW  Elec       q    Type
                         _______ _______ _______ _____ _____    ______ ____

>  <TORSDO>
F 3

$$$$
