=
 OpenBabel10222418033D

 35 39  0  0  1  0  0  0  0  0999 V2000
  186.6670  178.3400  144.6950 C   0  0  0  0  0  0  0  0  0  0  0  0
  186.8650  178.1700  143.3970 C   0  0  0  0  0  0  0  0  0  0  0  0
  181.9910  178.5430  142.5820 C   0  0  0  0  0  0  0  0  0  0  0  0
  188.8180  177.8130  144.5390 C   0  0  1  0  0  3  0  0  0  0  0  0
  186.1280  179.7650  141.8220 O   0  0  0  0  0  1  0  0  0  0  0  0
  188.3080  177.9200  143.1380 C   0  0  1  0  0  3  0  0  0  0  0  0
  185.8310  178.5120  142.3590 C   0  0  2  0  0  3  0  0  0  0  0  0
  184.1980  178.6800  144.3100 C   0  0  0  0  0  0  0  0  0  0  0  0
  190.4470  176.2110  143.9660 C   0  0  0  0  0  0  0  0  0  0  0  0
  191.6310  175.4730  144.2450 N   0  0  0  0  0  1  0  0  0  0  0  0
  187.8840  178.0570  145.4490 C   0  0  0  0  0  2  0  0  0  0  0  0
  185.1940  178.8660  146.4740 O   0  0  0  0  0  0  0  0  0  0  0  0
  182.8990  178.7890  144.8100 C   0  0  0  0  0  3  0  0  0  0  0  0
  183.2920  178.4310  142.0470 C   0  0  0  0  0  0  0  0  0  0  0  0
  189.6400  175.8750  142.7630 C   0  0  0  0  0  3  0  0  0  0  0  0
  190.0190  177.0940  144.8240 N   0  0  0  0  0  0  0  0  0  0  0  0
  184.4120  178.5200  142.9160 C   0  0  0  0  0  0  0  0  0  0  0  0
  185.3470  178.6580  145.2400 C   0  0  0  0  0  0  0  0  0  0  0  0
  181.8070  178.7310  143.9520 C   0  0  0  0  0  3  0  0  0  0  0  0
  188.5980  176.6390  142.4020 C   0  0  0  0  0  3  0  0  0  0  0  0
  180.7780  178.5000  141.7090 C   0  0  0  0  0  2  0  0  0  0  0  0
  179.6590  177.9420  142.4470 N   0  0  0  0  0  1  0  0  0  0  0  0
  183.0830  179.3760  139.8560 O   0  0  0  0  0  1  0  0  0  0  0  0
  183.4480  178.2260  140.5620 C   0  0  2  0  0  3  0  0  0  0  0  0
  182.9320  176.3960  138.8940 C   0  0  0  0  0  0  0  0  0  0  0  0
  182.6630  177.0850  140.1150 N   0  0  0  0  0  2  0  0  0  0  0  0
  183.8930  176.7500  138.1580 O   0  0  0  0  0  0  0  0  0  0  0  0
  180.7840  175.2200  139.3400 C   0  0  0  0  0  2  0  0  0  0  0  0
  179.7210  174.2750  138.7600 C   0  0  0  0  0  2  0  0  0  0  0  0
  181.7530  175.2980  136.9930 C   0  0  0  0  0  2  0  0  0  0  0  0
  180.2750  173.4260  137.7050 N   0  0  0  0  0  0  0  0  0  0  0  0
  180.6610  174.2950  136.5890 C   0  0  0  0  0  2  0  0  0  0  0  0
  182.0580  175.2550  138.4940 C   0  0  0  0  0  3  0  0  0  0  0  0
  179.2650  172.6410  137.2590 O   0  0  0  0  0  0  0  0  0  0  0  0
  179.8710  171.4210  136.9470 C   0  0  0  0  0  1  0  0  0  0  0  0
  1 18  1  0  0  0  0
  1 11  1  0  0  0  0
  2  1  2  0  0  0  0
  3 19  1  0  0  0  0
  4 16  1  0  0  0  0
  4 11  1  1  0  0  0
  6 20  1  6  0  0  0
  6  2  1  0  0  0  0
  6  4  1  0  0  0  0
  7  5  1  1  0  0  0
  7 17  1  0  0  0  0
  7  2  1  0  0  0  0
  8 13  1  0  0  0  0
  8 18  1  0  0  0  0
  9 10  1  0  0  0  0
  9 16  2  0  0  0  0
 14  3  2  0  0  0  0
 14 17  1  0  0  0  0
 15  9  1  0  0  0  0
 17  8  2  0  0  0  0
 18 12  2  0  0  0  0
 19 13  2  0  0  0  0
 20 15  2  0  0  0  0
 21 22  1  0  0  0  0
 21  3  1  0  0  0  0
 24 23  1  6  0  0  0
 24 14  1  0  0  0  0
 25 26  1  0  0  0  0
 26 24  1  0  0  0  0
 27 25  2  0  0  0  0
 29 28  1  0  0  0  0
 30 33  1  0  0  0  0
 31 29  1  0  0  0  0
 32 30  1  0  0  0  0
 32 31  1  0  0  0  0
 33 25  1  0  0  0  0
 33 28  1  0  0  0  0
 34 31  1  0  0  0  0
 35 34  1  0  0  0  0
M  END
>  <MODEL>
1

>  <REMARK>
 VINA RESULT:      -9.0      0.000      0.000
  Name = 
  5 active torsions:
  status: ('A' for Active; 'I' for Inactive)
    1  A    between atoms: C_2  and  C_27
    2  A    between atoms: C_4  and  C_5
    3  A    between atoms: C_10  and  N_11
    4  A    between atoms: C_10  and  C_26
    5  A    between atoms: O_16  and  N_24
                            x       y       z     vdW  Elec       q    Type
                         _______ _______ _______ _____ _____    ______ ____

>  <TORSDO>
F 5

$$$$
=
 OpenBabel10222418033D

 35 39  0  0  1  0  0  0  0  0999 V2000
  182.6820  178.3370  141.2490 C   0  0  0  0  0  0  0  0  0  0  0  0
  183.9490  178.7130  141.1570 C   0  0  0  0  0  0  0  0  0  0  0  0
  184.1800  176.8970  136.5530 C   0  0  0  0  0  0  0  0  0  0  0  0
  183.1970  179.0100  143.3000 C   0  0  1  0  0  3  0  0  0  0  0  0
  184.6810  180.1530  139.4380 O   0  0  0  0  0  1  0  0  0  0  0  0
  184.3930  179.2980  142.4510 C   0  0  1  0  0  3  0  0  0  0  0  0
  184.6790  178.8190  139.8460 C   0  0  2  0  0  3  0  0  0  0  0  0
  182.7130  177.5300  138.8600 C   0  0  0  0  0  0  0  0  0  0  0  0
  184.4900  178.6900  145.2440 C   0  0  0  0  0  0  0  0  0  0  0  0
  184.6220  178.5810  146.6560 N   0  0  0  0  0  1  0  0  0  0  0  0
  182.2000  178.4600  142.6200 C   0  0  0  0  0  2  0  0  0  0  0  0
  180.7400  177.4720  140.2060 O   0  0  0  0  0  0  0  0  0  0  0  0
  182.1160  176.8240  137.8130 C   0  0  0  0  0  3  0  0  0  0  0  0
  184.8080  177.6130  137.5930 C   0  0  0  0  0  0  0  0  0  0  0  0
  185.6630  178.4110  144.3740 C   0  0  0  0  0  3  0  0  0  0  0  0
  183.3180  178.9220  144.7220 N   0  0  0  0  0  0  0  0  0  0  0  0
  184.0630  177.9540  138.7540 C   0  0  0  0  0  0  0  0  0  0  0  0
  181.9600  177.7750  140.1080 C   0  0  0  0  0  0  0  0  0  0  0  0
  182.8410  176.5190  136.6660 C   0  0  0  0  0  3  0  0  0  0  0  0
  185.6040  178.6380  143.0530 C   0  0  0  0  0  3  0  0  0  0  0  0
  184.9030  176.5500  135.2910 C   0  0  0  0  0  2  0  0  0  0  0  0
  184.6630  175.1590  134.9510 N   0  0  0  0  0  1  0  0  0  0  0  0
  186.7600  177.5550  136.2060 O   0  0  0  0  0  1  0  0  0  0  0  0
  186.2560  178.0010  137.4310 C   0  0  2  0  0  3  0  0  0  0  0  0
  188.2740  178.0870  138.9530 C   0  0  0  0  0  0  0  0  0  0  0  0
  187.0550  177.4780  138.5300 N   0  0  0  0  0  2  0  0  0  0  0  0
  188.6970  179.1330  138.3880 O   0  0  0  0  0  0  0  0  0  0  0  0
  190.5530  177.5340  139.7900 C   0  0  0  0  0  2  0  0  0  0  0  0
  191.3920  177.2070  141.0330 C   0  0  0  0  0  2  0  0  0  0  0  0
  188.6830  178.1070  141.4110 C   0  0  0  0  0  2  0  0  0  0  0  0
  190.5700  176.6420  142.1040 N   0  0  0  0  0  0  0  0  0  0  0  0
  189.6310  177.6780  142.5410 C   0  0  0  0  0  2  0  0  0  0  0  0
  189.0490  177.4680  140.0680 C   0  0  0  0  0  3  0  0  0  0  0  0
  191.3980  176.3970  143.1480 O   0  0  0  0  0  0  0  0  0  0  0  0
  191.6530  177.6530  143.7050 C   0  0  0  0  0  1  0  0  0  0  0  0
  1 11  1  0  0  0  0
  2  1  2  0  0  0  0
  2  6  1  0  0  0  0
  3 19  2  0  0  0  0
  3 14  1  0  0  0  0
  4 11  1  6  0  0  0
  4 16  1  0  0  0  0
  6 20  1  1  0  0  0
  6  4  1  0  0  0  0
  7  5  1  6  0  0  0
  7  2  1  0  0  0  0
  8 18  1  0  0  0  0
  9 10  1  0  0  0  0
 13  8  2  0  0  0  0
 14 17  2  0  0  0  0
 15  9  1  0  0  0  0
 16  9  2  0  0  0  0
 17  8  1  0  0  0  0
 17  7  1  0  0  0  0
 18 12  2  0  0  0  0
 18  1  1  0  0  0  0
 19 13  1  0  0  0  0
 20 15  2  0  0  0  0
 21  3  1  0  0  0  0
 22 21  1  0  0  0  0
 24 23  1  6  0  0  0
 24 14  1  0  0  0  0
 24 26  1  0  0  0  0
 25 33  1  0  0  0  0
 26 25  1  0  0  0  0
 27 25  2  0  0  0  0
 28 33  1  0  0  0  0
 28 29  1  0  0  0  0
 29 31  1  0  0  0  0
 30 32  1  0  0  0  0
 31 32  1  0  0  0  0
 31 34  1  0  0  0  0
 33 30  1  0  0  0  0
 34 35  1  0  0  0  0
M  END
>  <MODEL>
2

>  <REMARK>
 VINA RESULT:      -8.6      2.988      7.597
  Name = 
  5 active torsions:
  status: ('A' for Active; 'I' for Inactive)
    1  A    between atoms: C_2  and  C_27
    2  A    between atoms: C_4  and  C_5
    3  A    between atoms: C_10  and  N_11
    4  A    between atoms: C_10  and  C_26
    5  A    between atoms: O_16  and  N_24
                            x       y       z     vdW  Elec       q    Type
                         _______ _______ _______ _____ _____    ______ ____

>  <TORSDO>
F 5

$$$$
=
 OpenBabel10222418033D

 35 39  0  0  1  0  0  0  0  0999 V2000
  189.5830  177.0090  141.0660 C   0  0  0  0  0  0  0  0  0  0  0  0
  188.6840  177.7310  140.4150 C   0  0  0  0  0  0  0  0  0  0  0  0
  185.8970  177.9910  144.5040 C   0  0  0  0  0  0  0  0  0  0  0  0
  190.2650  176.9480  138.9540 C   0  0  1  0  0  3  0  0  0  0  0  0
  188.0390  179.8690  141.1770 O   0  0  0  0  0  1  0  0  0  0  0  0
  189.0870  177.8680  138.9890 C   0  0  1  0  0  3  0  0  0  0  0  0
  187.6220  178.5390  141.1110 C   0  0  2  0  0  3  0  0  0  0  0  0
  188.2690  177.2380  143.2060 C   0  0  0  0  0  0  0  0  0  0  0  0
  189.8430  176.2770  136.7360 C   0  0  0  0  0  0  0  0  0  0  0  0
  190.2430  175.6700  135.5130 N   0  0  0  0  0  1  0  0  0  0  0  0
  190.5660  176.4490  140.1450 C   0  0  0  0  0  2  0  0  0  0  0  0
  190.3720  176.1090  143.1090 O   0  0  0  0  0  0  0  0  0  0  0  0
  188.0340  176.8560  144.5280 C   0  0  0  0  0  3  0  0  0  0  0  0
  186.1080  178.3920  143.1680 C   0  0  0  0  0  0  0  0  0  0  0  0
  188.4290  176.7000  136.9150 C   0  0  0  0  0  3  0  0  0  0  0  0
  190.6870  176.3530  137.7260 N   0  0  0  0  0  0  0  0  0  0  0  0
  187.3160  178.0310  142.5140 C   0  0  0  0  0  0  0  0  0  0  0  0
  189.4760  176.7560  142.5030 C   0  0  0  0  0  0  0  0  0  0  0  0
  186.8630  177.2380  145.1740 C   0  0  0  0  0  3  0  0  0  0  0  0
  188.0550  177.3950  138.0000 C   0  0  0  0  0  3  0  0  0  0  0  0
  184.6640  178.3800  145.2540 C   0  0  0  0  0  2  0  0  0  0  0  0
  185.0160  178.7890  146.6030 N   0  0  0  0  0  1  0  0  0  0  0  0
  184.1490  179.7490  143.4080 O   0  0  0  0  0  1  0  0  0  0  0  0
  185.0390  179.2030  142.4800 C   0  0  2  0  0  3  0  0  0  0  0  0
  184.1540  178.7910  140.1470 C   0  0  0  0  0  0  0  0  0  0  0  0
  184.3240  178.3910  141.5060 N   0  0  0  0  0  2  0  0  0  0  0  0
  184.6470  179.8750  139.7320 O   0  0  0  0  0  0  0  0  0  0  0  0
  184.2370  177.4850  138.0290 C   0  0  0  0  0  2  0  0  0  0  0  0
  183.5990  176.3400  137.2300 C   0  0  0  0  0  2  0  0  0  0  0  0
  182.7890  176.7130  139.9680 C   0  0  0  0  0  2  0  0  0  0  0  0
  182.2060  176.1200  137.6230 N   0  0  0  0  0  0  0  0  0  0  0  0
  182.2020  175.6610  139.0150 C   0  0  0  0  0  2  0  0  0  0  0  0
  183.3790  177.9140  139.2220 C   0  0  0  0  0  3  0  0  0  0  0  0
  181.7410  175.0950  136.8700 O   0  0  0  0  0  0  0  0  0  0  0  0
  182.6680  174.0650  137.0560 C   0  0  0  0  0  1  0  0  0  0  0  0
  1 18  1  0  0  0  0
  2  1  2  0  0  0  0
  2  7  1  0  0  0  0
  3 19  1  0  0  0  0
  3 21  1  0  0  0  0
  4  6  1  0  0  0  0
  4 11  1  1  0  0  0
  6 20  1  6  0  0  0
  6  2  1  0  0  0  0
  7  5  1  1  0  0  0
  7 17  1  0  0  0  0
  8 13  1  0  0  0  0
  9 15  1  0  0  0  0
  9 16  2  0  0  0  0
 10  9  1  0  0  0  0
 11  1  1  0  0  0  0
 13 19  2  0  0  0  0
 14  3  2  0  0  0  0
 15 20  2  0  0  0  0
 16  4  1  0  0  0  0
 17 14  1  0  0  0  0
 17  8  2  0  0  0  0
 18 12  2  0  0  0  0
 18  8  1  0  0  0  0
 21 22  1  0  0  0  0
 24 14  1  0  0  0  0
 24 23  1  1  0  0  0
 25 26  1  0  0  0  0
 26 24  1  0  0  0  0
 27 25  2  0  0  0  0
 28 33  1  0  0  0  0
 29 31  1  0  0  0  0
 29 28  1  0  0  0  0
 31 32  1  0  0  0  0
 32 30  1  0  0  0  0
 33 30  1  0  0  0  0
 33 25  1  0  0  0  0
 34 35  1  0  0  0  0
 34 31  1  0  0  0  0
M  END
>  <MODEL>
3

>  <REMARK>
 VINA RESULT:      -8.5      3.285      4.772
  Name = 
  5 active torsions:
  status: ('A' for Active; 'I' for Inactive)
    1  A    between atoms: C_2  and  C_27
    2  A    between atoms: C_4  and  C_5
    3  A    between atoms: C_10  and  N_11
    4  A    between atoms: C_10  and  C_26
    5  A    between atoms: O_16  and  N_24
                            x       y       z     vdW  Elec       q    Type
                         _______ _______ _______ _____ _____    ______ ____

>  <TORSDO>
F 5

$$$$
=
 OpenBabel10222418033D

 35 39  0  0  1  0  0  0  0  0999 V2000
  185.5600  178.6270  140.0330 C   0  0  0  0  0  0  0  0  0  0  0  0
  186.6570  178.4900  140.7620 C   0  0  0  0  0  0  0  0  0  0  0  0
  188.9160  176.2210  136.9800 C   0  0  0  0  0  0  0  0  0  0  0  0
  184.9460  179.2820  142.0630 C   0  0  1  0  0  3  0  0  0  0  0  0
  188.7300  179.3520  140.0370 O   0  0  0  0  0  1  0  0  0  0  0  0
  186.4130  179.0060  142.1360 C   0  0  1  0  0  3  0  0  0  0  0  0
  188.0010  178.1690  140.1680 C   0  0  2  0  0  3  0  0  0  0  0  0
  186.7170  177.6090  138.0370 C   0  0  0  0  0  0  0  0  0  0  0  0
  184.5930  178.7190  144.3230 C   0  0  0  0  0  0  0  0  0  0  0  0
  183.8040  178.7260  145.5070 N   0  0  0  0  0  1  0  0  0  0  0  0
  184.4400  179.0720  140.8550 C   0  0  0  0  0  2  0  0  0  0  0  0
  184.4810  178.4410  137.9330 O   0  0  0  0  0  0  0  0  0  0  0  0
  186.6610  177.0650  136.7520 C   0  0  0  0  0  3  0  0  0  0  0  0
  189.0040  176.7610  138.2810 C   0  0  0  0  0  0  0  0  0  0  0  0
  185.8510  177.9270  144.2850 C   0  0  0  0  0  3  0  0  0  0  0  0
  184.1510  179.3130  143.2500 N   0  0  0  0  0  0  0  0  0  0  0  0
  187.9000  177.4820  138.8120 C   0  0  0  0  0  0  0  0  0  0  0  0
  185.5220  178.2530  138.6190 C   0  0  0  0  0  0  0  0  0  0  0  0
  187.7540  176.3860  136.2260 C   0  0  0  0  0  3  0  0  0  0  0  0
  186.6810  178.0120  143.2340 C   0  0  0  0  0  3  0  0  0  0  0  0
  190.0630  175.4920  136.3560 C   0  0  0  0  0  2  0  0  0  0  0  0
  190.4800  176.1750  135.1440 N   0  0  0  0  0  1  0  0  0  0  0  0
  190.9300  175.3900  138.6630 O   0  0  0  0  0  1  0  0  0  0  0  0
  190.2760  176.5590  139.0630 C   0  0  2  0  0  3  0  0  0  0  0  0
  190.9280  177.0050  141.4660 C   0  0  0  0  0  0  0  0  0  0  0  0
  190.0020  176.5240  140.4920 N   0  0  0  0  0  2  0  0  0  0  0  0
  192.0290  177.5070  141.1090 O   0  0  0  0  0  0  0  0  0  0  0  0
  191.6810  176.1710  143.6870 C   0  0  0  0  0  2  0  0  0  0  0  0
  191.5260  176.3220  145.2070 C   0  0  0  0  0  2  0  0  0  0  0  0
  190.2810  178.2840  143.5050 C   0  0  0  0  0  2  0  0  0  0  0  0
  190.2220  176.8850  145.5620 N   0  0  0  0  0  0  0  0  0  0  0  0
  190.1680  178.2520  145.0370 C   0  0  0  0  0  2  0  0  0  0  0  0
  190.5810  176.9030  142.9130 C   0  0  0  0  0  3  0  0  0  0  0  0
  190.1890  176.9830  146.9130 O   0  0  0  0  0  0  0  0  0  0  0  0
  191.4500  176.5490  147.3340 C   0  0  0  0  0  1  0  0  0  0  0  0
  1  2  2  0  0  0  0
  1 11  1  0  0  0  0
  2  6  1  0  0  0  0
  3 14  1  0  0  0  0
  4 11  1  6  0  0  0
  4  6  1  0  0  0  0
  4 16  1  0  0  0  0
  6 20  1  1  0  0  0
  7  5  1  6  0  0  0
  7  2  1  0  0  0  0
  8 18  1  0  0  0  0
  8 17  1  0  0  0  0
  9 10  1  0  0  0  0
 12 18  2  0  0  0  0
 13  8  2  0  0  0  0
 14 17  2  0  0  0  0
 14 24  1  0  0  0  0
 15  9  1  0  0  0  0
 16  9  2  0  0  0  0
 17  7  1  0  0  0  0
 18  1  1  0  0  0  0
 19 13  1  0  0  0  0
 19  3  2  0  0  0  0
 20 15  2  0  0  0  0
 21  3  1  0  0  0  0
 22 21  1  0  0  0  0
 24 23  1  6  0  0  0
 24 26  1  0  0  0  0
 25 33  1  0  0  0  0
 26 25  1  0  0  0  0
 27 25  2  0  0  0  0
 28 29  1  0  0  0  0
 29 31  1  0  0  0  0
 30 32  1  0  0  0  0
 31 34  1  0  0  0  0
 32 31  1  0  0  0  0
 33 30  1  0  0  0  0
 33 28  1  0  0  0  0
 34 35  1  0  0  0  0
M  END
>  <MODEL>
4

>  <REMARK>
 VINA RESULT:      -8.5      3.991      8.990
  Name = 
  5 active torsions:
  status: ('A' for Active; 'I' for Inactive)
    1  A    between atoms: C_2  and  C_27
    2  A    between atoms: C_4  and  C_5
    3  A    between atoms: C_10  and  N_11
    4  A    between atoms: C_10  and  C_26
    5  A    between atoms: O_16  and  N_24
                            x       y       z     vdW  Elec       q    Type
                         _______ _______ _______ _____ _____    ______ ____

>  <TORSDO>
F 5

$$$$
=
 OpenBabel10222418033D

 35 39  0  0  1  0  0  0  0  0999 V2000
  186.5490  178.3460  144.6520 C   0  0  0  0  0  0  0  0  0  0  0  0
  186.7350  178.2160  143.3480 C   0  0  0  0  0  0  0  0  0  0  0  0
  181.8450  178.5050  142.5980 C   0  0  0  0  0  0  0  0  0  0  0  0
  188.7080  177.8700  144.4580 C   0  0  1  0  0  3  0  0  0  0  0  0
  185.9450  179.8380  141.8270 O   0  0  0  0  0  1  0  0  0  0  0  0
  188.1800  178.0040  143.0660 C   0  0  1  0  0  3  0  0  0  0  0  0
  185.6810  178.5640  142.3320 C   0  0  2  0  0  3  0  0  0  0  0  0
  184.0690  178.6420  144.3050 C   0  0  0  0  0  0  0  0  0  0  0  0
  190.3650  176.3200  143.8210 C   0  0  0  0  0  0  0  0  0  0  0  0
  191.5680  175.6010  144.0660 N   0  0  0  0  0  1  0  0  0  0  0  0
  187.7800  178.0690  145.3840 C   0  0  0  0  0  2  0  0  0  0  0  0
  185.0860  178.7900  146.4610 O   0  0  0  0  0  0  0  0  0  0  0  0
  182.7740  178.7100  144.8230 C   0  0  0  0  0  3  0  0  0  0  0  0
  183.1420  178.4360  142.0470 C   0  0  0  0  0  0  0  0  0  0  0  0
  189.5510  176.0000  142.6190 C   0  0  0  0  0  3  0  0  0  0  0  0
  189.9280  177.1690  144.7090 N   0  0  0  0  0  0  0  0  0  0  0  0
  184.2700  178.5260  142.9050 C   0  0  0  0  0  0  0  0  0  0  0  0
  185.2290  178.6190  145.2200 C   0  0  0  0  0  0  0  0  0  0  0  0
  181.6730  178.6520  143.9750 C   0  0  0  0  0  3  0  0  0  0  0  0
  188.4890  176.7510  142.2910 C   0  0  0  0  0  3  0  0  0  0  0  0
  180.6230  178.4600  141.7380 C   0  0  0  0  0  2  0  0  0  0  0  0
  179.5400  177.8100  142.4540 N   0  0  0  0  0  1  0  0  0  0  0  0
  184.6050  177.9790  140.2060 O   0  0  0  0  0  1  0  0  0  0  0  0
  183.2840  178.2760  140.5540 C   0  0  2  0  0  3  0  0  0  0  0  0
  181.9410  179.4300  138.7490 C   0  0  0  0  0  0  0  0  0  0  0  0
  182.8330  179.4740  139.8620 N   0  0  0  0  0  2  0  0  0  0  0  0
  181.4890  178.3280  138.3340 O   0  0  0  0  0  0  0  0  0  0  0  0
  181.0380  180.4390  136.6590 C   0  0  0  0  0  2  0  0  0  0  0  0
  180.3350  181.6610  136.0530 C   0  0  0  0  0  2  0  0  0  0  0  0
  180.5400  181.4840  138.9200 C   0  0  0  0  0  2  0  0  0  0  0  0
  180.5670  182.8660  136.8510 N   0  0  0  0  0  0  0  0  0  0  0  0
  179.9290  182.6680  138.1550 C   0  0  0  0  0  2  0  0  0  0  0  0
  181.5530  180.7040  138.0760 C   0  0  0  0  0  3  0  0  0  0  0  0
  179.9060  183.8770  136.2400 O   0  0  0  0  0  0  0  0  0  0  0  0
  180.9040  184.7750  135.8520 C   0  0  0  0  0  1  0  0  0  0  0  0
  1 18  1  0  0  0  0
  1 11  1  0  0  0  0
  2  1  2  0  0  0  0
  3 19  1  0  0  0  0
  4 16  1  0  0  0  0
  4 11  1  1  0  0  0
  6 20  1  6  0  0  0
  6  2  1  0  0  0  0
  6  4  1  0  0  0  0
  7  5  1  1  0  0  0
  7 17  1  0  0  0  0
  7  2  1  0  0  0  0
  8 13  1  0  0  0  0
  8 18  1  0  0  0  0
  9 10  1  0  0  0  0
  9 16  2  0  0  0  0
 14  3  2  0  0  0  0
 14 17  1  0  0  0  0
 15  9  1  0  0  0  0
 17  8  2  0  0  0  0
 18 12  2  0  0  0  0
 19 13  2  0  0  0  0
 20 15  2  0  0  0  0
 21 22  1  0  0  0  0
 21  3  1  0  0  0  0
 24 23  1  1  0  0  0
 24 14  1  0  0  0  0
 25 26  1  0  0  0  0
 26 24  1  0  0  0  0
 27 25  2  0  0  0  0
 28 33  1  0  0  0  0
 29 28  1  0  0  0  0
 29 31  1  0  0  0  0
 31 32  1  0  0  0  0
 32 30  1  0  0  0  0
 33 25  1  0  0  0  0
 33 30  1  0  0  0  0
 34 31  1  0  0  0  0
 35 34  1  0  0  0  0
M  END
>  <MODEL>
5

>  <REMARK>
 VINA RESULT:      -8.4      3.011      4.378
  Name = 
  5 active torsions:
  status: ('A' for Active; 'I' for Inactive)
    1  A    between atoms: C_2  and  C_27
    2  A    between atoms: C_4  and  C_5
    3  A    between atoms: C_10  and  N_11
    4  A    between atoms: C_10  and  C_26
    5  A    between atoms: O_16  and  N_24
                            x       y       z     vdW  Elec       q    Type
                         _______ _______ _______ _____ _____    ______ ____

>  <TORSDO>
F 5

$$$$
=
 OpenBabel10222418033D

 35 39  0  0  1  0  0  0  0  0999 V2000
  184.9600  178.2400  144.3250 C   0  0  0  0  0  0  0  0  0  0  0  0
  185.8440  177.8750  143.4080 C   0  0  0  0  0  0  0  0  0  0  0  0
  189.4230  177.8510  146.8340 C   0  0  0  0  0  0  0  0  0  0  0  0
  183.8460  178.3860  142.4110 C   0  0  1  0  0  3  0  0  0  0  0  0
  187.1250  175.9090  143.6520 O   0  0  0  0  0  1  0  0  0  0  0  0
  185.1880  177.8200  142.0740 C   0  0  1  0  0  3  0  0  0  0  0  0
  187.1900  177.2990  143.7520 C   0  0  2  0  0  3  0  0  0  0  0  0
  186.7190  178.1010  146.1260 C   0  0  0  0  0  0  0  0  0  0  0  0
  183.6100  179.4240  140.3090 C   0  0  0  0  0  0  0  0  0  0  0  0
  182.8240  180.0530  139.3030 N   0  0  0  0  0  1  0  0  0  0  0  0
  183.6980  178.6300  143.7060 C   0  0  0  0  0  2  0  0  0  0  0  0
  184.4380  178.6280  146.6020 O   0  0  0  0  0  0  0  0  0  0  0  0
  187.1360  178.3590  147.4340 C   0  0  0  0  0  3  0  0  0  0  0  0
  189.0320  177.5820  145.5060 C   0  0  0  0  0  0  0  0  0  0  0  0
  185.0890  179.3760  140.1600 C   0  0  0  0  0  3  0  0  0  0  0  0
  183.0410  178.9980  141.4010 N   0  0  0  0  0  0  0  0  0  0  0  0
  187.6610  177.6870  145.1480 C   0  0  0  0  0  0  0  0  0  0  0  0
  185.3100  178.3270  145.7430 C   0  0  0  0  0  0  0  0  0  0  0  0
  188.4740  178.2250  147.7860 C   0  0  0  0  0  3  0  0  0  0  0  0
  185.8410  178.6740  141.0210 C   0  0  0  0  0  3  0  0  0  0  0  0
  190.8450  177.7130  147.2760 C   0  0  0  0  0  2  0  0  0  0  0  0
  191.1040  176.3440  147.6840 N   0  0  0  0  0  1  0  0  0  0  0  0
  191.2600  177.9230  144.6950 O   0  0  0  0  0  1  0  0  0  0  0  0
  190.0890  177.1830  144.5080 C   0  0  2  0  0  3  0  0  0  0  0  0
  190.0700  176.5450  142.0600 C   0  0  0  0  0  0  0  0  0  0  0  0
  189.5990  177.3420  143.1470 N   0  0  0  0  0  2  0  0  0  0  0  0
  190.9300  175.6430  142.2540 O   0  0  0  0  0  0  0  0  0  0  0  0
  189.0980  178.2540  140.5320 C   0  0  0  0  0  2  0  0  0  0  0  0
  188.8490  178.6350  139.0660 C   0  0  0  0  0  2  0  0  0  0  0  0
  190.5550  176.3820  139.6220 C   0  0  0  0  0  2  0  0  0  0  0  0
  188.8160  177.4550  138.2010 N   0  0  0  0  0  0  0  0  0  0  0  0
  190.1520  176.8530  138.2160 C   0  0  0  0  0  2  0  0  0  0  0  0
  189.5380  176.7960  140.6890 C   0  0  0  0  0  3  0  0  0  0  0  0
  188.5990  177.8960  136.9390 O   0  0  0  0  0  0  0  0  0  0  0  0
  187.4150  178.6340  137.0170 C   0  0  0  0  0  1  0  0  0  0  0  0
  1 18  1  0  0  0  0
  2  7  1  0  0  0  0
  2  1  2  0  0  0  0
  3 21  1  0  0  0  0
  3 19  1  0  0  0  0
  4 11  1  1  0  0  0
  6 20  1  6  0  0  0
  6  4  1  0  0  0  0
  6  2  1  0  0  0  0
  7  5  1  1  0  0  0
  7 17  1  0  0  0  0
  8 13  1  0  0  0  0
  9 16  2  0  0  0  0
 10  9  1  0  0  0  0
 11  1  1  0  0  0  0
 13 19  2  0  0  0  0
 14  3  2  0  0  0  0
 15  9  1  0  0  0  0
 15 20  2  0  0  0  0
 16  4  1  0  0  0  0
 17 14  1  0  0  0  0
 17  8  2  0  0  0  0
 18  8  1  0  0  0  0
 18 12  2  0  0  0  0
 21 22  1  0  0  0  0
 24 23  1  6  0  0  0
 24 14  1  0  0  0  0
 25 27  2  0  0  0  0
 25 26  1  0  0  0  0
 26 24  1  0  0  0  0
 28 33  1  0  0  0  0
 29 28  1  0  0  0  0
 30 33  1  0  0  0  0
 31 32  1  0  0  0  0
 31 29  1  0  0  0  0
 32 30  1  0  0  0  0
 33 25  1  0  0  0  0
 34 35  1  0  0  0  0
 34 31  1  0  0  0  0
M  END
>  <MODEL>
6

>  <REMARK>
 VINA RESULT:      -8.2      4.112      7.575
  Name = 
  5 active torsions:
  status: ('A' for Active; 'I' for Inactive)
    1  A    between atoms: C_2  and  C_27
    2  A    between atoms: C_4  and  C_5
    3  A    between atoms: C_10  and  N_11
    4  A    between atoms: C_10  and  C_26
    5  A    between atoms: O_16  and  N_24
                            x       y       z     vdW  Elec       q    Type
                         _______ _______ _______ _____ _____    ______ ____

>  <TORSDO>
F 5

$$$$
=
 OpenBabel10222418033D

 35 39  0  0  1  0  0  0  0  0999 V2000
  186.6730  178.2350  144.7570 C   0  0  0  0  0  0  0  0  0  0  0  0
  186.8970  178.2250  143.4520 C   0  0  0  0  0  0  0  0  0  0  0  0
  182.0360  178.6430  142.5890 C   0  0  0  0  0  0  0  0  0  0  0  0
  188.8320  177.7520  144.5830 C   0  0  1  0  0  3  0  0  0  0  0  0
  186.1700  179.9910  142.0680 O   0  0  0  0  0  1  0  0  0  0  0  0
  188.3480  178.0220  143.1940 C   0  0  1  0  0  3  0  0  0  0  0  0
  185.8790  178.6790  142.4430 C   0  0  2  0  0  3  0  0  0  0  0  0
  184.2080  178.5930  144.3660 C   0  0  0  0  0  0  0  0  0  0  0  0
  190.4920  176.2480  143.8530 C   0  0  0  0  0  0  0  0  0  0  0  0
  191.6810  175.4950  144.0650 N   0  0  0  0  0  1  0  0  0  0  0  0
  187.8790  177.8750  145.4960 C   0  0  0  0  0  2  0  0  0  0  0  0
  185.1600  178.5260  146.5560 O   0  0  0  0  0  0  0  0  0  0  0  0
  182.8980  178.6280  144.8500 C   0  0  0  0  0  3  0  0  0  0  0  0
  183.3480  178.6100  142.0720 C   0  0  0  0  0  0  0  0  0  0  0  0
  189.7130  176.0520  142.6020 C   0  0  0  0  0  3  0  0  0  0  0  0
  190.0370  177.0160  144.8030 N   0  0  0  0  0  0  0  0  0  0  0  0
  184.4500  178.6050  142.9680 C   0  0  0  0  0  0  0  0  0  0  0  0
  185.3390  178.4700  145.3090 C   0  0  0  0  0  0  0  0  0  0  0  0
  181.8230  178.6630  143.9690 C   0  0  0  0  0  3  0  0  0  0  0  0
  188.6680  176.8430  142.3150 C   0  0  0  0  0  3  0  0  0  0  0  0
  180.8400  178.6940  141.6930 C   0  0  0  0  0  2  0  0  0  0  0  0
  179.7010  178.0820  142.3550 N   0  0  0  0  0  1  0  0  0  0  0  0
  182.5190  177.8540  139.9560 O   0  0  0  0  0  1  0  0  0  0  0  0
  183.5340  178.5880  140.5760 C   0  0  2  0  0  3  0  0  0  0  0  0
  185.5710  178.4780  139.0810 C   0  0  0  0  0  0  0  0  0  0  0  0
  184.8390  178.0470  140.2280 N   0  0  0  0  0  2  0  0  0  0  0  0
  185.1070  179.3780  138.3280 O   0  0  0  0  0  0  0  0  0  0  0  0
  187.0860  177.6940  137.2680 C   0  0  0  0  0  2  0  0  0  0  0  0
  188.5370  177.3540  136.8990 C   0  0  0  0  0  2  0  0  0  0  0  0
  188.0330  178.6280  139.4320 C   0  0  0  0  0  2  0  0  0  0  0  0
  189.3190  176.9830  138.0790 N   0  0  0  0  0  0  0  0  0  0  0  0
  189.4130  178.1640  138.9420 C   0  0  0  0  0  2  0  0  0  0  0  0
  186.8880  177.8480  138.7780 C   0  0  0  0  0  3  0  0  0  0  0  0
  190.5750  176.7100  137.6500 O   0  0  0  0  0  0  0  0  0  0  0  0
  191.3060  176.4630  138.8150 C   0  0  0  0  0  1  0  0  0  0  0  0
  1 18  1  0  0  0  0
  1 11  1  0  0  0  0
  2  1  2  0  0  0  0
  3 19  1  0  0  0  0
  4 16  1  0  0  0  0
  4 11  1  1  0  0  0
  6 20  1  6  0  0  0
  6  2  1  0  0  0  0
  6  4  1  0  0  0  0
  7  5  1  1  0  0  0
  7 17  1  0  0  0  0
  7  2  1  0  0  0  0
  8 13  1  0  0  0  0
  8 18  1  0  0  0  0
  9 10  1  0  0  0  0
  9 16  2  0  0  0  0
 14  3  2  0  0  0  0
 14 17  1  0  0  0  0
 15  9  1  0  0  0  0
 17  8  2  0  0  0  0
 18 12  2  0  0  0  0
 19 13  2  0  0  0  0
 20 15  2  0  0  0  0
 21 22  1  0  0  0  0
 21  3  1  0  0  0  0
 24 23  1  6  0  0  0
 24 14  1  0  0  0  0
 25 26  1  0  0  0  0
 26 24  1  0  0  0  0
 27 25  2  0  0  0  0
 28 33  1  0  0  0  0
 29 28  1  0  0  0  0
 29 31  1  0  0  0  0
 31 32  1  0  0  0  0
 32 30  1  0  0  0  0
 33 25  1  0  0  0  0
 33 30  1  0  0  0  0
 34 31  1  0  0  0  0
 34 35  1  0  0  0  0
M  END
>  <MODEL>
7

>  <REMARK>
 VINA RESULT:      -8.2      3.036      4.636
  Name = 
  5 active torsions:
  status: ('A' for Active; 'I' for Inactive)
    1  A    between atoms: C_2  and  C_27
    2  A    between atoms: C_4  and  C_5
    3  A    between atoms: C_10  and  N_11
    4  A    between atoms: C_10  and  C_26
    5  A    between atoms: O_16  and  N_24
                            x       y       z     vdW  Elec       q    Type
                         _______ _______ _______ _____ _____    ______ ____

>  <TORSDO>
F 5

$$$$
=
 OpenBabel10222418033D

 35 39  0  0  1  0  0  0  0  0999 V2000
  188.2880  173.3660  136.0090 C   0  0  0  0  0  0  0  0  0  0  0  0
  187.5010  174.2270  136.6350 C   0  0  0  0  0  0  0  0  0  0  0  0
  191.4560  176.3690  138.7130 C   0  0  0  0  0  0  0  0  0  0  0  0
  186.2380  172.6160  135.6080 C   0  0  1  0  0  3  0  0  0  0  0  0
  187.7660  176.5560  136.3610 O   0  0  0  0  0  1  0  0  0  0  0  0
  186.0770  173.9030  136.3510 C   0  0  1  0  0  3  0  0  0  0  0  0
  188.0080  175.5050  137.2470 C   0  0  2  0  0  3  0  0  0  0  0  0
  190.3360  174.5150  136.9290 C   0  0  0  0  0  0  0  0  0  0  0  0
  184.2350  171.7180  136.4620 C   0  0  0  0  0  0  0  0  0  0  0  0
  183.1770  170.7670  136.4370 N   0  0  0  0  0  1  0  0  0  0  0  0
  187.5080  172.2950  135.3990 C   0  0  0  0  0  2  0  0  0  0  0  0
  190.4740  172.6710  135.4160 O   0  0  0  0  0  0  0  0  0  0  0  0
  191.7130  174.5330  137.1590 C   0  0  0  0  0  3  0  0  0  0  0  0
  190.0620  176.3760  138.4990 C   0  0  0  0  0  0  0  0  0  0  0  0
  184.3300  172.6780  137.5940 C   0  0  0  0  0  3  0  0  0  0  0  0
  185.1720  171.6660  135.5580 N   0  0  0  0  0  0  0  0  0  0  0  0
  189.4930  175.4530  137.5820 C   0  0  0  0  0  0  0  0  0  0  0  0
  189.7470  173.4730  136.0620 C   0  0  0  0  0  0  0  0  0  0  0  0
  192.2690  175.4590  138.0350 C   0  0  0  0  0  3  0  0  0  0  0  0
  185.2330  173.6710  137.5750 C   0  0  0  0  0  3  0  0  0  0  0  0
  192.1130  177.3480  139.6340 C   0  0  0  0  0  2  0  0  0  0  0  0
  193.5550  177.1830  139.5810 N   0  0  0  0  0  1  0  0  0  0  0  0
  189.3680  178.6580  138.7180 O   0  0  0  0  0  1  0  0  0  0  0  0
  189.2200  177.3750  139.2520 C   0  0  2  0  0  3  0  0  0  0  0  0
  188.6880  177.8940  141.6690 C   0  0  0  0  0  0  0  0  0  0  0  0
  189.5590  177.3710  140.6670 N   0  0  0  0  0  2  0  0  0  0  0  0
  187.5620  178.3680  141.3540 O   0  0  0  0  0  0  0  0  0  0  0  0
  187.9770  177.4650  144.0160 C   0  0  0  0  0  2  0  0  0  0  0  0
  188.4570  177.1280  145.4350 C   0  0  0  0  0  2  0  0  0  0  0  0
  190.3630  176.9940  143.2800 C   0  0  0  0  0  2  0  0  0  0  0  0
  189.8420  177.5490  145.6490 N   0  0  0  0  0  0  0  0  0  0  0  0
  190.6930  176.7530  144.7610 C   0  0  0  0  0  2  0  0  0  0  0  0
  189.1270  177.8800  143.0950 C   0  0  0  0  0  3  0  0  0  0  0  0
  190.1670  177.2040  146.9180 O   0  0  0  0  0  0  0  0  0  0  0  0
  189.0760  177.6100  147.6910 C   0  0  0  0  0  1  0  0  0  0  0  0
  1 18  1  0  0  0  0
  1  2  2  0  0  0  0
  2  7  1  0  0  0  0
  3 21  1  0  0  0  0
  4 11  1  1  0  0  0
  4  6  1  0  0  0  0
  6  2  1  0  0  0  0
  6 20  1  1  0  0  0
  7  5  1  6  0  0  0
  7 17  1  0  0  0  0
  8 13  2  0  0  0  0
  8 17  1  0  0  0  0
  9 15  1  0  0  0  0
 10  9  1  0  0  0  0
 11  1  1  0  0  0  0
 12 18  2  0  0  0  0
 13 19  1  0  0  0  0
 14  3  1  0  0  0  0
 14 24  1  0  0  0  0
 16  4  1  0  0  0  0
 16  9  2  0  0  0  0
 17 14  2  0  0  0  0
 18  8  1  0  0  0  0
 19  3  2  0  0  0  0
 20 15  2  0  0  0  0
 22 21  1  0  0  0  0
 24 23  1  6  0  0  0
 24 26  1  0  0  0  0
 25 33  1  0  0  0  0
 26 25  1  0  0  0  0
 27 25  2  0  0  0  0
 28 29  1  0  0  0  0
 29 31  1  0  0  0  0
 30 32  1  0  0  0  0
 31 34  1  0  0  0  0
 32 31  1  0  0  0  0
 33 30  1  0  0  0  0
 33 28  1  0  0  0  0
 34 35  1  0  0  0  0
M  END
>  <MODEL>
8

>  <REMARK>
 VINA RESULT:      -8.0      4.614     10.422
  Name = 
  5 active torsions:
  status: ('A' for Active; 'I' for Inactive)
    1  A    between atoms: C_2  and  C_27
    2  A    between atoms: C_4  and  C_5
    3  A    between atoms: C_10  and  N_11
    4  A    between atoms: C_10  and  C_26
    5  A    between atoms: O_16  and  N_24
                            x       y       z     vdW  Elec       q    Type
                         _______ _______ _______ _____ _____    ______ ____

>  <TORSDO>
F 5

$$$$
=
 OpenBabel10222418033D

 35 39  0  0  1  0  0  0  0  0999 V2000
  183.4410  178.9240  143.5660 C   0  0  0  0  0  0  0  0  0  0  0  0
  184.5090  178.6390  142.8380 C   0  0  0  0  0  0  0  0  0  0  0  0
  181.6090  177.5330  138.9750 C   0  0  0  0  0  0  0  0  0  0  0  0
  185.1200  178.9960  145.0160 C   0  0  1  0  0  3  0  0  0  0  0  0
  184.9290  179.7370  140.7920 O   0  0  0  0  0  1  0  0  0  0  0  0
  185.7340  178.7650  143.6730 C   0  0  1  0  0  3  0  0  0  0  0  0
  184.4740  178.5360  141.3370 C   0  0  2  0  0  3  0  0  0  0  0  0
  181.9360  178.5110  141.5850 C   0  0  0  0  0  0  0  0  0  0  0  0
  186.8370  177.8450  146.1460 C   0  0  0  0  0  0  0  0  0  0  0  0
  187.5520  177.5100  147.3290 N   0  0  0  0  0  1  0  0  0  0  0  0
  183.7980  179.0950  144.9700 C   0  0  0  0  0  2  0  0  0  0  0  0
  181.1000  179.2600  143.6940 O   0  0  0  0  0  0  0  0  0  0  0  0
  180.6590  178.3240  141.0540 C   0  0  0  0  0  3  0  0  0  0  0  0
  182.9130  177.7130  139.4840 C   0  0  0  0  0  0  0  0  0  0  0  0
  187.1480  177.1370  144.8760 C   0  0  0  0  0  3  0  0  0  0  0  0
  185.8410  178.6840  146.2090 N   0  0  0  0  0  0  0  0  0  0  0  0
  183.0830  178.2280  140.7970 C   0  0  0  0  0  0  0  0  0  0  0  0
  182.0950  178.9350  142.9920 C   0  0  0  0  0  0  0  0  0  0  0  0
  180.4980  177.8490  139.7570 C   0  0  0  0  0  3  0  0  0  0  0  0
  186.5880  177.5270  143.7200 C   0  0  0  0  0  3  0  0  0  0  0  0
  181.3720  177.0370  137.5840 C   0  0  0  0  0  2  0  0  0  0  0  0
  180.4360  175.9270  137.6100 N   0  0  0  0  0  1  0  0  0  0  0  0
  184.3570  178.3800  137.6940 O   0  0  0  0  0  1  0  0  0  0  0  0
  184.0860  177.3580  138.6080 C   0  0  2  0  0  3  0  0  0  0  0  0
  184.8760  175.4030  137.2110 C   0  0  0  0  0  0  0  0  0  0  0  0
  183.8480  176.1030  137.9110 N   0  0  0  0  0  2  0  0  0  0  0  0
  186.0550  175.8500  137.1910 O   0  0  0  0  0  0  0  0  0  0  0  0
  184.5590  172.9460  137.4550 C   0  0  0  0  0  2  0  0  0  0  0  0
  183.9140  171.6930  136.8460 C   0  0  0  0  0  2  0  0  0  0  0  0
  183.2000  174.2640  135.7610 C   0  0  0  0  0  2  0  0  0  0  0  0
  183.6870  171.8490  135.4080 N   0  0  0  0  0  0  0  0  0  0  0  0
  182.6970  172.9140  135.2250 C   0  0  0  0  0  2  0  0  0  0  0  0
  184.5380  174.1380  136.4950 C   0  0  0  0  0  3  0  0  0  0  0  0
  183.1140  170.7020  134.9720 O   0  0  0  0  0  0  0  0  0  0  0  0
  183.4310  169.7510  135.9470 C   0  0  0  0  0  1  0  0  0  0  0  0
  1 11  1  0  0  0  0
  2  1  2  0  0  0  0
  2  6  1  0  0  0  0
  3 14  2  0  0  0  0
  3 19  1  0  0  0  0
  4 11  1  6  0  0  0
  4 16  1  0  0  0  0
  6 20  1  1  0  0  0
  6  4  1  0  0  0  0
  7  5  1  6  0  0  0
  7  2  1  0  0  0  0
  8 18  1  0  0  0  0
  9 16  2  0  0  0  0
  9 10  1  0  0  0  0
 13  8  1  0  0  0  0
 14 17  1  0  0  0  0
 15  9  1  0  0  0  0
 17  7  1  0  0  0  0
 17  8  2  0  0  0  0
 18  1  1  0  0  0  0
 18 12  2  0  0  0  0
 19 13  2  0  0  0  0
 20 15  2  0  0  0  0
 21 22  1  0  0  0  0
 21  3  1  0  0  0  0
 24 23  1  6  0  0  0
 24 14  1  0  0  0  0
 25 26  1  0  0  0  0
 26 24  1  0  0  0  0
 27 25  2  0  0  0  0
 29 28  1  0  0  0  0
 30 33  1  0  0  0  0
 31 29  1  0  0  0  0
 32 31  1  0  0  0  0
 32 30  1  0  0  0  0
 33 25  1  0  0  0  0
 33 28  1  0  0  0  0
 34 31  1  0  0  0  0
 34 35  1  0  0  0  0
M  END
>  <MODEL>
9

>  <REMARK>
 VINA RESULT:      -7.9      2.622      3.748
  Name = 
  5 active torsions:
  status: ('A' for Active; 'I' for Inactive)
    1  A    between atoms: C_2  and  C_27
    2  A    between atoms: C_4  and  C_5
    3  A    between atoms: C_10  and  N_11
    4  A    between atoms: C_10  and  C_26
    5  A    between atoms: O_16  and  N_24
                            x       y       z     vdW  Elec       q    Type
                         _______ _______ _______ _____ _____    ______ ____

>  <TORSDO>
F 5

$$$$
