=
 OpenBabel10222418243D

 58 61  0  0  1  0  0  0  0  0999 V2000
  179.5870  178.7830  141.5790 C   0  0  0  0  0  3  0  0  0  0  0  0
  180.2160  179.1180  142.6970 C   0  0  0  0  0  2  0  0  0  0  0  0
  181.6730  179.1560  142.9590 C   0  0  0  0  0  3  0  0  0  0  0  0
  181.6060  177.9460  140.0530 C   0  0  0  0  0  0  0  0  0  0  0  0
  180.2070  178.4650  140.2180 C   0  0  0  0  0  3  0  0  0  0  0  0
  182.6400  178.1630  140.8610 C   0  0  0  0  0  3  0  0  0  0  0  0
  182.7330  178.7230  142.2460 C   0  0  0  0  0  0  0  0  0  0  0  0
  184.2010  178.6720  142.8050 C   0  0  0  0  0  2  0  0  0  0  0  0
  184.4500  178.2510  144.2760 C   0  0  2  0  0  3  0  0  0  0  0  0
  183.4150  178.9570  145.1700 C   0  0  0  0  0  1  0  0  0  0  0  0
  185.9130  178.5730  144.6760 C   0  0  0  0  0  2  0  0  0  0  0  0
  186.6110  177.3870  145.2000 N   0  0  0  0  0  0  0  0  0  0  0  0
  188.5190  177.7320  148.1530 C   0  0  1  0  0  3  0  0  0  0  0  0
  185.5390  179.2710  147.3660 O   0  0  0  0  0  0  0  0  0  0  0  0
  187.7700  178.9540  147.9330 N   0  0  0  0  0  2  0  0  0  0  0  0
  186.5740  178.5660  147.2800 C   0  0  0  0  0  0  0  0  0  0  0  0
  186.6510  177.2190  146.6440 C   0  0  2  0  0  3  0  0  0  0  0  0
  188.0380  176.7350  147.1060 C   0  0  0  0  0  2  0  0  0  0  0  0
  190.0060  178.0150  148.1100 C   0  0  0  0  0  2  0  0  0  0  0  0
  190.8170  177.3500  147.0110 N   0  0  0  0  0  2  0  0  0  0  0  0
  191.5570  176.1050  146.9240 C   0  0  0  0  0  0  0  0  0  0  0  0
  192.1210  175.6070  145.6340 N   0  0  0  0  0  1  0  0  0  0  0  0
  191.8020  175.4180  147.9000 O   0  0  0  0  0  0  0  0  0  0  0  0
  187.9640  177.3010  144.6360 C   0  0  0  0  0  2  0  0  0  0  0  0
  188.2780  176.2710  143.5670 C   0  0  0  0  0  2  0  0  0  0  0  0
  189.7300  176.5840  143.1330 C   0  0  0  0  0  2  0  0  0  0  0  0
  190.0700  177.6270  142.0350 C   0  0  2  0  0  0  0  0  0  0  0  0
  188.8250  178.1360  141.3400 C   0  0  0  0  0  1  0  0  0  0  0  0
  190.9040  176.9630  140.9490 C   0  0  0  0  0  2  0  0  0  0  0  0
  190.0860  176.8370  139.7630 N   0  0  0  0  0  1  0  0  0  0  0  0
  191.2760  178.5280  144.1010 O   0  0  0  0  0  1  0  0  0  0  0  0
  190.7520  178.7950  142.8120 C   0  0  0  0  0  2  0  0  0  0  0  0
  181.9680  177.0810  138.8560 C   0  0  0  0  0  2  0  0  0  0  0  0
  181.1810  175.2190  137.3670 C   0  0  0  0  0  0  0  0  0  0  0  0
  181.2280  175.7630  138.5970 C   0  0  0  0  0  3  0  0  0  0  0  0
  181.7170  175.9510  136.2050 C   0  0  0  0  0  1  0  0  0  0  0  0
  180.4950  173.9500  137.0050 C   0  0  0  0  0  3  0  0  0  0  0  0
  181.0460  172.8260  136.5340 C   0  0  0  0  0  0  0  0  0  0  0  0
  180.0190  171.6810  136.4510 C   0  0  0  0  0  1  0  0  0  0  0  0
  183.4580  171.6460  135.5610 C   0  0  1  0  0  3  0  0  0  0  0  0
  182.3990  171.1010  136.3540 O   0  0  0  0  0  0  0  0  0  0  0  0
  182.4930  172.4470  136.4250 C   0  0  2  0  0  3  0  0  0  0  0  0
  184.6720  171.7470  136.3440 N   0  0  0  0  0  2  0  0  0  0  0  0
  186.7040  170.9310  135.2820 C   0  0  0  0  0  1  0  0  0  0  0  0
  185.8540  172.1250  135.6150 C   0  0  2  0  0  3  0  0  0  0  0  0
  187.2760  174.2670  135.8530 N   0  0  0  0  0  2  0  0  0  0  0  0
  186.7440  173.0030  136.3850 C   0  0  0  0  0  0  0  0  0  0  0  0
  187.0130  172.7250  137.6130 O   0  0  0  0  0  0  0  0  0  0  0  0
  188.1320  175.1460  136.6240 C   0  0  1  0  0  3  0  0  0  0  0  0
  186.1930  176.3640  137.6600 O   0  0  0  0  0  1  0  0  0  0  0  0
  186.7170  178.9590  137.0980 N   0  0  0  0  0  1  0  0  0  0  0  0
  188.2100  177.7260  135.6960 S   0  0  0  0  0  0  0  0  0  0  0  0
  187.4640  176.5650  137.0330 C   0  0  2  0  0  0  0  0  0  0  0  0
  187.7880  177.9980  137.3430 C   0  0  2  0  0  3  0  0  0  0  0  0
  189.3890  174.6850  137.0090 O   0  0  0  0  0  0  0  0  0  0  0  0
  190.5840  175.2180  135.8260 S   0  0  0  0  0  0  0  0  0  0  0  0
  191.5780  173.6180  137.4110 N   0  0  0  0  0  1  0  0  0  0  0  0
  191.8540  174.9930  136.9770 C   0  0  0  0  0  2  0  0  0  0  0  0
  1  2  1  0  0  0  0
  2  3  1  0  0  0  0
  4  5  1  0  0  0  0
  4  6  2  0  0  0  0
  5  1  2  0  0  0  0
  6  7  1  0  0  0  0
  7  8  1  0  0  0  0
  7  3  2  0  0  0  0
  8  9  1  0  0  0  0
  9 11  1  0  0  0  0
  9 10  1  1  0  0  0
 11 12  1  0  0  0  0
 13 19  1  6  0  0  0
 15 13  1  0  0  0  0
 16 14  2  0  0  0  0
 16 15  1  0  0  0  0
 17 12  1  6  0  0  0
 17 18  1  0  0  0  0
 17 16  1  0  0  0  0
 18 13  1  0  0  0  0
 20 19  1  0  0  0  0
 21 20  1  0  0  0  0
 21 23  2  0  0  0  0
 22 21  1  0  0  0  0
 24 12  1  0  0  0  0
 25 24  1  0  0  0  0
 26 25  1  0  0  0  0
 27 28  1  6  0  0  0
 27 32  1  0  0  0  0
 27 26  1  0  0  0  0
 29 27  1  0  0  0  0
 30 29  1  0  0  0  0
 32 31  1  0  0  0  0
 33  4  1  0  0  0  0
 34 35  2  0  0  0  0
 35 33  1  0  0  0  0
 36 34  1  0  0  0  0
 37 34  1  0  0  0  0
 38 37  2  0  0  0  0
 39 38  1  0  0  0  0
 40 43  1  1  0  0  0
 40 41  1  0  0  0  0
 40 42  1  0  0  0  0
 41 42  1  0  0  0  0
 42 38  1  6  0  0  0
 45 44  1  1  0  0  0
 45 43  1  0  0  0  0
 45 47  1  0  0  0  0
 46 47  1  0  0  0  0
 47 48  2  0  0  0  0
 49 46  1  1  0  0  0
 49 55  1  0  0  0  0
 49 53  1  0  0  0  0
 52 53  1  0  0  0  0
 52 54  1  0  0  0  0
 53 54  1  0  0  0  0
 53 50  1  6  0  0  0
 54 51  1  6  0  0  0
 56 58  1  0  0  0  0
 56 55  1  0  0  0  0
 58 57  1  0  0  0  0
M  END
>  <MODEL>
1

>  <REMARK>
 VINA RESULT:      -6.1      0.000      0.000
  Name = 
  25 active torsions:
  status: ('A' for Active; 'I' for Inactive)
    1  A    between atoms: C_2  and  C_30
    2  A    between atoms: C_5  and  C_16
    3  A    between atoms: C_7  and  N_17
    4  A    between atoms: C_7  and  C_57
    5  A    between atoms: C_8  and  C_13
    6  A    between atoms: C_8  and  C_35
    7  A    between atoms: C_9  and  C_21
    8  A    between atoms: C_9  and  C_49
    9  A    between atoms: C_10  and  C_14
   10  A    between atoms: C_11  and  N_34
   11  A    between atoms: C_14  and  C_32
   12  A    between atoms: C_14  and  C_39
   13  A    between atoms: N_17  and  C_21
   14  A    between atoms: N_17  and  C_50
   15  A    between atoms: C_19  and  N_34
   16  A    between atoms: C_19  and  C_38
   17  A    between atoms: C_23  and  N_24
   18  A    between atoms: C_23  and  C_36
   19  A    between atoms: C_23  and  O_43
   20  A    between atoms: N_25  and  C_30
   21  A    between atoms: C_27  and  C_40
   22  A    between atoms: C_32  and  C_57
   23  A    between atoms: O_43  and  S_53
   24  A    between atoms: C_46  and  S_53
   25  A    between atoms: C_49  and  C_56
                            x       y       z     vdW  Elec       q    Type
                         _______ _______ _______ _____ _____    ______ ____

>  <TORSDO>
F 25

$$$$
=
 OpenBabel10222418243D

 58 61  0  0  1  0  0  0  0  0999 V2000
  185.4630  179.1760  141.9580 C   0  0  0  0  0  3  0  0  0  0  0  0
  184.6870  178.8770  140.9260 C   0  0  0  0  0  3  0  0  0  0  0  0
  183.2150  178.7240  140.8930 C   0  0  0  0  0  3  0  0  0  0  0  0
  183.7170  179.1520  143.9720 C   0  0  0  0  0  0  0  0  0  0  0  0
  185.0280  179.5680  143.3710 C   0  0  0  0  0  2  0  0  0  0  0  0
  182.5850  178.8930  143.3220 C   0  0  0  0  0  3  0  0  0  0  0  0
  182.2880  178.6720  141.8710 C   0  0  0  0  0  0  0  0  0  0  0  0
  180.7820  178.2920  141.6310 C   0  0  0  0  0  2  0  0  0  0  0  0
  180.3880  177.4680  140.3770 C   0  0  2  0  0  3  0  0  0  0  0  0
  179.6100  176.2210  140.8350 C   0  0  0  0  0  1  0  0  0  0  0  0
  181.6570  177.1210  139.5560 C   0  0  0  0  0  2  0  0  0  0  0  0
  181.4130  177.2160  138.1070 N   0  0  0  0  0  0  0  0  0  0  0  0
  180.3480  180.4950  137.3380 C   0  0  1  0  0  3  0  0  0  0  0  0
  180.4550  177.7580  135.2480 O   0  0  0  0  0  0  0  0  0  0  0  0
  180.8530  179.8700  136.1310 N   0  0  0  0  0  2  0  0  0  0  0  0
  180.5770  178.4870  136.2620 C   0  0  0  0  0  0  0  0  0  0  0  0
  180.3150  178.0620  137.6680 C   0  0  2  0  0  3  0  0  0  0  0  0
  180.3260  179.4110  138.4090 C   0  0  0  0  0  2  0  0  0  0  0  0
  181.1860  181.7060  137.6900 C   0  0  0  0  0  3  0  0  0  0  0  0
  180.7010  183.0610  137.2070 N   0  0  0  0  0  0  0  0  0  0  0  0
  181.3290  184.3620  137.0740 C   0  0  0  0  0  0  0  0  0  0  0  0
  180.6540  185.5020  136.3850 N   0  0  0  0  0  1  0  0  0  0  0  0
  182.4200  184.6160  137.5540 O   0  0  0  0  0  0  0  0  0  0  0  0
  181.2910  175.8740  137.5220 C   0  0  0  0  0  2  0  0  0  0  0  0
  182.2830  174.7880  137.8990 C   0  0  0  0  0  2  0  0  0  0  0  0
  182.6860  174.1390  136.5530 C   0  0  0  0  0  2  0  0  0  0  0  0
  183.7270  172.9910  136.4530 C   0  0  2  0  0  0  0  0  0  0  0  0
  184.7100  173.0260  137.6040 C   0  0  0  0  0  1  0  0  0  0  0  0
  184.5610  173.1760  135.1940 C   0  0  0  0  0  2  0  0  0  0  0  0
  184.7910  174.5910  135.0080 N   0  0  0  0  0  1  0  0  0  0  0  0
  183.5490  170.4490  136.6460 O   0  0  0  0  0  1  0  0  0  0  0  0
  182.8730  171.6880  136.5320 C   0  0  0  0  0  2  0  0  0  0  0  0
  183.5770  178.9990  145.4780 C   0  0  0  0  0  2  0  0  0  0  0  0
  185.7150  178.1320  146.4680 C   0  0  0  0  0  0  0  0  0  0  0  0
  184.8040  179.1190  146.3890 C   0  0  0  0  0  3  0  0  0  0  0  0
  185.4830  176.8450  145.7880 C   0  0  0  0  0  1  0  0  0  0  0  0
  186.9380  178.1450  147.3160 C   0  0  0  0  0  3  0  0  0  0  0  0
  188.2000  177.9220  146.9370 C   0  0  0  0  0  0  0  0  0  0  0  0
  189.1950  178.2000  148.0790 C   0  0  0  0  0  1  0  0  0  0  0  0
  189.4030  176.7840  144.6090 C   0  0  1  0  0  3  0  0  0  0  0  0
  189.9810  177.2560  145.8290 O   0  0  0  0  0  0  0  0  0  0  0  0
  188.7730  177.7970  145.5560 C   0  0  2  0  0  3  0  0  0  0  0  0
  189.7830  177.6420  143.5060 N   0  0  0  0  0  2  0  0  0  0  0  0
  191.9130  178.4000  142.6050 C   0  0  0  0  0  1  0  0  0  0  0  0
  190.9650  177.2470  142.7870 C   0  0  2  0  0  3  0  0  0  0  0  0
  189.9000  177.5860  140.4600 N   0  0  0  0  0  0  0  0  0  0  0  0
  190.6780  176.7910  141.4210 C   0  0  0  0  0  0  0  0  0  0  0  0
  191.1960  175.6930  140.9910 O   0  0  0  0  0  0  0  0  0  0  0  0
  189.6410  177.1480  139.1030 C   0  0  0  0  0  0  0  0  0  0  0  0
  189.1720  179.5470  138.5180 O   0  0  0  0  0  1  0  0  0  0  0  0
  187.0460  179.3760  136.8520 N   0  0  0  0  0  1  0  0  0  0  0  0
  187.1980  177.2120  137.8570 S   0  0  0  0  0  0  0  0  0  0  0  0
  188.8120  178.2000  138.1910 C   0  0  2  0  0  0  0  0  0  0  0  0
  188.0720  178.3390  136.8910 C   0  0  2  0  0  3  0  0  0  0  0  0
  190.1780  175.9340  138.6790 O   0  0  0  0  0  0  0  0  0  0  0  0
  191.0780  176.1960  137.1840 S   0  0  0  0  0  0  0  0  0  0  0  0
  193.4030  176.7370  137.7870 N   0  0  0  0  0  1  0  0  0  0  0  0
  192.5150  175.5750  137.9170 C   0  0  0  0  0  2  0  0  0  0  0  0
  1  5  1  0  0  0  0
  2  1  2  0  0  0  0
  3  2  1  0  0  0  0
  3  7  2  0  0  0  0
  4 33  1  0  0  0  0
  5  4  1  0  0  0  0
  6  4  2  0  0  0  0
  7  6  1  0  0  0  0
  8  7  1  0  0  0  0
  9 10  1  1  0  0  0
  9  8  1  0  0  0  0
 11  9  1  0  0  0  0
 12 11  1  0  0  0  0
 13 19  1  1  0  0  0
 13 18  1  0  0  0  0
 14 16  2  0  0  0  0
 15 16  1  0  0  0  0
 15 13  1  0  0  0  0
 16 17  1  0  0  0  0
 17 12  1  1  0  0  0
 17 18  1  0  0  0  0
 20 19  2  0  0  0  0
 21 20  1  0  0  0  0
 21 23  2  0  0  0  0
 22 21  1  0  0  0  0
 24 25  1  0  0  0  0
 24 12  1  0  0  0  0
 26 25  1  0  0  0  0
 27 32  1  0  0  0  0
 27 26  1  0  0  0  0
 27 28  1  1  0  0  0
 29 27  1  0  0  0  0
 30 29  1  0  0  0  0
 32 31  1  0  0  0  0
 33 35  1  0  0  0  0
 34 37  1  0  0  0  0
 35 34  2  0  0  0  0
 36 34  1  0  0  0  0
 38 37  2  0  0  0  0
 38 39  1  0  0  0  0
 40 43  1  6  0  0  0
 40 42  1  0  0  0  0
 40 41  1  0  0  0  0
 42 41  1  0  0  0  0
 42 38  1  1  0  0  0
 45 44  1  6  0  0  0
 45 43  1  0  0  0  0
 46 47  1  0  0  0  0
 47 45  1  0  0  0  0
 48 47  2  0  0  0  0
 49 46  2  0  0  0  0
 52 53  1  0  0  0  0
 53 50  1  1  0  0  0
 53 49  1  0  0  0  0
 54 51  1  1  0  0  0
 54 52  1  0  0  0  0
 54 53  1  0  0  0  0
 55 49  1  0  0  0  0
 56 58  1  0  0  0  0
 56 55  1  0  0  0  0
 57 58  1  0  0  0  0
M  END
>  <MODEL>
2

>  <REMARK>
 VINA RESULT:      -5.9      3.148      9.737
  Name = 
  25 active torsions:
  status: ('A' for Active; 'I' for Inactive)
    1  A    between atoms: C_2  and  C_30
    2  A    between atoms: C_5  and  C_16
    3  A    between atoms: C_7  and  N_17
    4  A    between atoms: C_7  and  C_57
    5  A    between atoms: C_8  and  C_13
    6  A    between atoms: C_8  and  C_35
    7  A    between atoms: C_9  and  C_21
    8  A    between atoms: C_9  and  C_49
    9  A    between atoms: C_10  and  C_14
   10  A    between atoms: C_11  and  N_34
   11  A    between atoms: C_14  and  C_32
   12  A    between atoms: C_14  and  C_39
   13  A    between atoms: N_17  and  C_21
   14  A    between atoms: N_17  and  C_50
   15  A    between atoms: C_19  and  N_34
   16  A    between atoms: C_19  and  C_38
   17  A    between atoms: C_23  and  N_24
   18  A    between atoms: C_23  and  C_36
   19  A    between atoms: C_23  and  O_43
   20  A    between atoms: N_25  and  C_30
   21  A    between atoms: C_27  and  C_40
   22  A    between atoms: C_32  and  C_57
   23  A    between atoms: O_43  and  S_53
   24  A    between atoms: C_46  and  S_53
   25  A    between atoms: C_49  and  C_56
                            x       y       z     vdW  Elec       q    Type
                         _______ _______ _______ _____ _____    ______ ____

>  <TORSDO>
F 25

$$$$
=
 OpenBabel10222418243D

 58 61  0  0  1  0  0  0  0  0999 V2000
  191.3030  177.5900  142.6980 C   0  0  0  0  0  3  0  0  0  0  0  0
  190.1870  178.0650  143.2350 C   0  0  0  0  0  2  0  0  0  0  0  0
  188.8410  178.1630  142.6260 C   0  0  0  0  0  3  0  0  0  0  0  0
  190.5420  177.1300  140.1860 C   0  0  0  0  0  0  0  0  0  0  0  0
  191.4680  176.8990  141.3450 C   0  0  0  0  0  3  0  0  0  0  0  0
  189.2580  177.4720  140.2440 C   0  0  0  0  0  3  0  0  0  0  0  0
  188.4020  177.9760  141.3640 C   0  0  0  0  0  0  0  0  0  0  0  0
  186.9510  178.3380  140.8800 C   0  0  0  0  0  2  0  0  0  0  0  0
  185.7710  178.2900  141.8850 C   0  0  2  0  0  3  0  0  0  0  0  0
  184.4830  177.9570  141.1130 C   0  0  0  0  0  1  0  0  0  0  0  0
  185.6830  179.6330  142.6560 C   0  0  0  0  0  2  0  0  0  0  0  0
  185.1160  179.4530  144.0040 N   0  0  0  0  0  0  0  0  0  0  0  0
  187.2180  177.5140  146.0780 C   0  0  1  0  0  3  0  0  0  0  0  0
  183.9500  178.4420  146.6500 O   0  0  0  0  0  0  0  0  0  0  0  0
  186.2470  178.2030  146.9060 N   0  0  0  0  0  2  0  0  0  0  0  0
  185.0790  178.3300  146.1140 C   0  0  0  0  0  0  0  0  0  0  0  0
  185.3290  178.1700  144.6530 C   0  0  2  0  0  3  0  0  0  0  0  0
  186.8180  177.7790  144.6320 C   0  0  0  0  0  2  0  0  0  0  0  0
  188.6190  177.9640  146.4320 C   0  0  0  0  0  2  0  0  0  0  0  0
  189.5680  176.9270  147.0060 N   0  0  0  0  0  2  0  0  0  0  0  0
  190.9960  176.7010  146.8930 C   0  0  0  0  0  0  0  0  0  0  0  0
  191.7090  175.6900  147.7290 N   0  0  0  0  0  1  0  0  0  0  0  0
  191.6900  177.2860  146.0790 O   0  0  0  0  0  0  0  0  0  0  0  0
  183.6880  179.7980  144.0050 C   0  0  0  0  0  2  0  0  0  0  0  0
  182.6500  178.7380  143.6850 C   0  0  0  0  0  2  0  0  0  0  0  0
  181.3750  179.5350  143.3180 C   0  0  0  0  0  2  0  0  0  0  0  0
  180.1400  178.8770  142.6450 C   0  0  2  0  0  0  0  0  0  0  0  0
  180.5340  177.6960  141.7830 C   0  0  0  0  0  1  0  0  0  0  0  0
  179.4890  179.8760  141.7000 C   0  0  0  0  0  2  0  0  0  0  0  0
  179.6330  181.1970  142.2700 N   0  0  0  0  0  1  0  0  0  0  0  0
  179.7600  177.3270  144.6420 O   0  0  0  0  0  1  0  0  0  0  0  0
  179.2660  178.3860  143.8400 C   0  0  0  0  0  2  0  0  0  0  0  0
  191.0410  176.9630  138.7600 C   0  0  0  0  0  2  0  0  0  0  0  0
  190.2650  175.5770  136.8150 C   0  0  0  0  0  0  0  0  0  0  0  0
  190.8570  175.6310  138.0220 C   0  0  0  0  0  3  0  0  0  0  0  0
  189.6460  176.7810  136.2320 C   0  0  0  0  0  1  0  0  0  0  0  0
  190.0380  174.3440  136.0140 C   0  0  0  0  0  3  0  0  0  0  0  0
  188.8780  173.8800  135.5360 C   0  0  0  0  0  0  0  0  0  0  0  0
  189.0900  172.6680  134.6090 C   0  0  0  0  0  1  0  0  0  0  0  0
  186.4600  175.1390  136.3870 C   0  0  1  0  0  3  0  0  0  0  0  0
  186.8320  173.7590  136.3350 O   0  0  0  0  0  0  0  0  0  0  0  0
  187.5340  174.5430  135.4860 C   0  0  2  0  0  3  0  0  0  0  0  0
  185.4180  175.4170  135.4210 N   0  0  0  0  0  2  0  0  0  0  0  0
  185.1520  177.3650  136.8560 C   0  0  0  0  0  1  0  0  0  0  0  0
  184.7130  176.6580  135.6040 C   0  0  2  0  0  3  0  0  0  0  0  0
  182.6820  175.7780  136.9320 N   0  0  0  0  0  2  0  0  0  0  0  0
  183.2670  176.4740  135.7770 C   0  0  0  0  0  0  0  0  0  0  0  0
  182.4480  177.0170  134.9430 O   0  0  0  0  0  0  0  0  0  0  0  0
  181.2530  175.6210  137.1150 C   0  0  1  0  0  3  0  0  0  0  0  0
  180.6250  173.7580  135.5490 O   0  0  0  0  0  1  0  0  0  0  0  0
  179.4780  171.9320  137.1840 N   0  0  0  0  0  1  0  0  0  0  0  0
  179.6020  173.9240  138.5000 S   0  0  0  0  0  0  0  0  0  0  0  0
  180.7020  174.1080  136.9350 C   0  0  2  0  0  0  0  0  0  0  0  0
  180.5690  172.7880  137.6390 C   0  0  2  0  0  3  0  0  0  0  0  0
  180.5030  176.7310  137.5010 O   0  0  0  0  0  0  0  0  0  0  0  0
  181.5440  177.8460  138.3880 S   0  0  0  0  0  0  0  0  0  0  0  0
  179.2460  178.4320  137.7270 N   0  0  0  0  0  1  0  0  0  0  0  0
  180.4880  179.1620  138.0120 C   0  0  0  0  0  2  0  0  0  0  0  0
  1  2  1  0  0  0  0
  3  2  1  0  0  0  0
  4  6  2  0  0  0  0
  4  5  1  0  0  0  0
  5  1  2  0  0  0  0
  6  7  1  0  0  0  0
  7  3  2  0  0  0  0
  8  7  1  0  0  0  0
  8  9  1  0  0  0  0
  9 10  1  6  0  0  0
  9 11  1  0  0  0  0
 11 12  1  0  0  0  0
 12 24  1  0  0  0  0
 13 19  1  6  0  0  0
 13 15  1  0  0  0  0
 16 14  2  0  0  0  0
 16 15  1  0  0  0  0
 17 12  1  6  0  0  0
 17 16  1  0  0  0  0
 18 17  1  0  0  0  0
 18 13  1  0  0  0  0
 19 20  1  0  0  0  0
 21 20  1  0  0  0  0
 21 22  1  0  0  0  0
 23 21  2  0  0  0  0
 25 24  1  0  0  0  0
 26 25  1  0  0  0  0
 27 28  1  6  0  0  0
 27 26  1  0  0  0  0
 27 32  1  0  0  0  0
 29 30  1  0  0  0  0
 29 27  1  0  0  0  0
 32 31  1  0  0  0  0
 33  4  1  0  0  0  0
 34 35  2  0  0  0  0
 35 33  1  0  0  0  0
 36 34  1  0  0  0  0
 37 34  1  0  0  0  0
 38 37  2  0  0  0  0
 39 38  1  0  0  0  0
 40 43  1  6  0  0  0
 41 40  1  0  0  0  0
 42 38  1  1  0  0  0
 42 41  1  0  0  0  0
 42 40  1  0  0  0  0
 43 45  1  0  0  0  0
 45 47  1  0  0  0  0
 45 44  1  1  0  0  0
 47 46  1  0  0  0  0
 48 47  2  0  0  0  0
 49 46  1  1  0  0  0
 49 55  1  0  0  0  0
 53 50  1  6  0  0  0
 53 49  1  0  0  0  0
 53 54  1  0  0  0  0
 53 52  1  0  0  0  0
 54 51  1  6  0  0  0
 54 52  1  0  0  0  0
 55 56  1  0  0  0  0
 57 58  1  0  0  0  0
 58 56  1  0  0  0  0
M  END
>  <MODEL>
3

>  <REMARK>
 VINA RESULT:      -5.8      3.140      7.519
  Name = 
  25 active torsions:
  status: ('A' for Active; 'I' for Inactive)
    1  A    between atoms: C_2  and  C_30
    2  A    between atoms: C_5  and  C_16
    3  A    between atoms: C_7  and  N_17
    4  A    between atoms: C_7  and  C_57
    5  A    between atoms: C_8  and  C_13
    6  A    between atoms: C_8  and  C_35
    7  A    between atoms: C_9  and  C_21
    8  A    between atoms: C_9  and  C_49
    9  A    between atoms: C_10  and  C_14
   10  A    between atoms: C_11  and  N_34
   11  A    between atoms: C_14  and  C_32
   12  A    between atoms: C_14  and  C_39
   13  A    between atoms: N_17  and  C_21
   14  A    between atoms: N_17  and  C_50
   15  A    between atoms: C_19  and  N_34
   16  A    between atoms: C_19  and  C_38
   17  A    between atoms: C_23  and  N_24
   18  A    between atoms: C_23  and  C_36
   19  A    between atoms: C_23  and  O_43
   20  A    between atoms: N_25  and  C_30
   21  A    between atoms: C_27  and  C_40
   22  A    between atoms: C_32  and  C_57
   23  A    between atoms: O_43  and  S_53
   24  A    between atoms: C_46  and  S_53
   25  A    between atoms: C_49  and  C_56
                            x       y       z     vdW  Elec       q    Type
                         _______ _______ _______ _____ _____    ______ ____

>  <TORSDO>
F 25

$$$$
=
 OpenBabel10222418243D

 58 61  0  0  1  0  0  0  0  0999 V2000
  185.6990  179.2290  141.3050 C   0  0  0  0  0  3  0  0  0  0  0  0
  184.6990  179.0000  140.4660 C   0  0  0  0  0  3  0  0  0  0  0  0
  183.2650  178.8030  140.7740 C   0  0  0  0  0  3  0  0  0  0  0  0
  184.4940  178.9660  143.6680 C   0  0  0  0  0  0  0  0  0  0  0  0
  185.6160  179.4770  142.8120 C   0  0  0  0  0  2  0  0  0  0  0  0
  183.2410  178.7310  143.2880 C   0  0  0  0  0  3  0  0  0  0  0  0
  182.6030  178.6330  141.9370 C   0  0  0  0  0  0  0  0  0  0  0  0
  181.0870  178.2280  142.0310 C   0  0  0  0  0  2  0  0  0  0  0  0
  180.3400  177.7500  140.7590 C   0  0  2  0  0  3  0  0  0  0  0  0
  179.3990  176.5960  141.1480 C   0  0  0  0  0  1  0  0  0  0  0  0
  181.3640  177.3510  139.6650 C   0  0  0  0  0  2  0  0  0  0  0  0
  180.9780  177.8660  138.3410 N   0  0  0  0  0  0  0  0  0  0  0  0
  180.3820  181.3260  137.9450 C   0  0  1  0  0  3  0  0  0  0  0  0
  179.2210  178.7390  135.9880 O   0  0  0  0  0  0  0  0  0  0  0  0
  180.3070  180.6850  136.6470 N   0  0  0  0  0  2  0  0  0  0  0  0
  179.8260  179.3740  136.8860 C   0  0  0  0  0  0  0  0  0  0  0  0
  179.9860  178.9280  138.3000 C   0  0  2  0  0  3  0  0  0  0  0  0
  180.5170  180.2080  138.9720 C   0  0  0  0  0  2  0  0  0  0  0  0
  181.5110  182.3340  137.9660 C   0  0  0  0  0  2  0  0  0  0  0  0
  181.2030  183.7450  137.4990 N   0  0  0  0  0  2  0  0  0  0  0  0
  180.0250  184.5900  137.5660 C   0  0  0  0  0  0  0  0  0  0  0  0
  180.0600  186.0320  137.1800 N   0  0  0  0  0  1  0  0  0  0  0  0
  178.9310  184.1650  137.8940 O   0  0  0  0  0  0  0  0  0  0  0  0
  180.5800  176.7590  137.4600 C   0  0  0  0  0  2  0  0  0  0  0  0
  180.9080  175.3280  137.8440 C   0  0  0  0  0  2  0  0  0  0  0  0
  182.1790  174.9840  137.0300 C   0  0  0  0  0  2  0  0  0  0  0  0
  182.2630  173.7530  136.0880 C   0  0  2  0  0  0  0  0  0  0  0  0
  182.1740  174.1550  134.6310 C   0  0  0  0  0  1  0  0  0  0  0  0
  181.0660  172.8450  136.3360 C   0  0  0  0  0  2  0  0  0  0  0  0
  181.4200  171.9050  137.3760 N   0  0  0  0  0  1  0  0  0  0  0  0
  184.6310  173.9480  137.0300 O   0  0  0  0  0  1  0  0  0  0  0  0
  183.6670  173.1390  136.3790 C   0  0  0  0  0  2  0  0  0  0  0  0
  184.7250  178.6730  145.1420 C   0  0  0  0  0  2  0  0  0  0  0  0
  187.0010  177.6190  145.2790 C   0  0  0  0  0  0  0  0  0  0  0  0
  186.1500  178.5730  145.7010 C   0  0  0  0  0  3  0  0  0  0  0  0
  186.5390  176.5540  144.3710 C   0  0  0  0  0  1  0  0  0  0  0  0
  188.3990  177.4330  145.7520 C   0  0  0  0  0  3  0  0  0  0  0  0
  189.4840  177.1680  145.0170 C   0  0  0  0  0  0  0  0  0  0  0  0
  190.7700  177.2220  145.8630 C   0  0  0  0  0  1  0  0  0  0  0  0
  189.4960  176.2950  142.2970 C   0  0  1  0  0  3  0  0  0  0  0  0
  190.4440  176.0990  143.3510 O   0  0  0  0  0  0  0  0  0  0  0  0
  189.6520  177.1800  143.5270 C   0  0  2  0  0  3  0  0  0  0  0  0
  190.0520  177.1520  141.2720 N   0  0  0  0  0  2  0  0  0  0  0  0
  192.3900  177.5800  140.7460 C   0  0  0  0  0  1  0  0  0  0  0  0
  191.2200  176.6460  140.6010 C   0  0  2  0  0  3  0  0  0  0  0  0
  189.8240  175.9410  138.5470 N   0  0  0  0  0  2  0  0  0  0  0  0
  191.0350  176.5160  139.1500 C   0  0  0  0  0  0  0  0  0  0  0  0
  191.9160  177.0030  138.3470 O   0  0  0  0  0  0  0  0  0  0  0  0
  189.6310  175.8380  137.1150 C   0  0  1  0  0  3  0  0  0  0  0  0
  191.3640  174.7520  135.6520 O   0  0  0  0  0  1  0  0  0  0  0  0
  190.4390  172.2250  135.3640 N   0  0  0  0  0  1  0  0  0  0  0  0
  188.5940  173.4410  136.2760 S   0  0  0  0  0  0  0  0  0  0  0  0
  190.2030  174.4770  136.4440 C   0  0  2  0  0  0  0  0  0  0  0  0
  190.2240  172.9830  136.5930 C   0  0  2  0  0  3  0  0  0  0  0  0
  188.9200  176.8420  136.4630 O   0  0  0  0  0  0  0  0  0  0  0  0
  187.3060  176.9520  137.1680 S   0  0  0  0  0  0  0  0  0  0  0  0
  188.1550  179.0540  138.1300 N   0  0  0  0  0  1  0  0  0  0  0  0
  187.3200  178.6710  136.9830 C   0  0  0  0  0  2  0  0  0  0  0  0
  1  5  1  0  0  0  0
  2  3  1  0  0  0  0
  2  1  2  0  0  0  0
  3  7  2  0  0  0  0
  4 33  1  0  0  0  0
  5  4  1  0  0  0  0
  6  4  2  0  0  0  0
  7  8  1  0  0  0  0
  7  6  1  0  0  0  0
  9 10  1  1  0  0  0
  9  8  1  0  0  0  0
 11  9  1  0  0  0  0
 12 11  1  0  0  0  0
 13 19  1  6  0  0  0
 13 18  1  0  0  0  0
 14 16  2  0  0  0  0
 15 16  1  0  0  0  0
 15 13  1  0  0  0  0
 16 17  1  0  0  0  0
 17 12  1  6  0  0  0
 17 18  1  0  0  0  0
 20 21  1  0  0  0  0
 20 19  1  0  0  0  0
 21 23  2  0  0  0  0
 22 21  1  0  0  0  0
 24 25  1  0  0  0  0
 24 12  1  0  0  0  0
 26 25  1  0  0  0  0
 27 28  1  6  0  0  0
 27 29  1  0  0  0  0
 27 32  1  0  0  0  0
 27 26  1  0  0  0  0
 29 30  1  0  0  0  0
 32 31  1  0  0  0  0
 33 35  1  0  0  0  0
 34 35  2  0  0  0  0
 34 37  1  0  0  0  0
 36 34  1  0  0  0  0
 38 37  2  0  0  0  0
 38 39  1  0  0  0  0
 40 43  1  6  0  0  0
 40 41  1  0  0  0  0
 40 42  1  0  0  0  0
 41 42  1  0  0  0  0
 42 38  1  1  0  0  0
 45 44  1  6  0  0  0
 45 43  1  0  0  0  0
 46 47  1  0  0  0  0
 47 45  1  0  0  0  0
 48 47  2  0  0  0  0
 49 55  1  1  0  0  0
 49 46  1  0  0  0  0
 52 53  1  0  0  0  0
 52 54  1  0  0  0  0
 53 50  1  6  0  0  0
 53 54  1  0  0  0  0
 53 49  1  0  0  0  0
 54 51  1  6  0  0  0
 55 56  1  0  0  0  0
 58 56  1  0  0  0  0
 58 57  1  0  0  0  0
M  END
>  <MODEL>
4

>  <REMARK>
 VINA RESULT:      -5.6      3.344      9.744
  Name = 
  25 active torsions:
  status: ('A' for Active; 'I' for Inactive)
    1  A    between atoms: C_2  and  C_30
    2  A    between atoms: C_5  and  C_16
    3  A    between atoms: C_7  and  N_17
    4  A    between atoms: C_7  and  C_57
    5  A    between atoms: C_8  and  C_13
    6  A    between atoms: C_8  and  C_35
    7  A    between atoms: C_9  and  C_21
    8  A    between atoms: C_9  and  C_49
    9  A    between atoms: C_10  and  C_14
   10  A    between atoms: C_11  and  N_34
   11  A    between atoms: C_14  and  C_32
   12  A    between atoms: C_14  and  C_39
   13  A    between atoms: N_17  and  C_21
   14  A    between atoms: N_17  and  C_50
   15  A    between atoms: C_19  and  N_34
   16  A    between atoms: C_19  and  C_38
   17  A    between atoms: C_23  and  N_24
   18  A    between atoms: C_23  and  C_36
   19  A    between atoms: C_23  and  O_43
   20  A    between atoms: N_25  and  C_30
   21  A    between atoms: C_27  and  C_40
   22  A    between atoms: C_32  and  C_57
   23  A    between atoms: O_43  and  S_53
   24  A    between atoms: C_46  and  S_53
   25  A    between atoms: C_49  and  C_56
                            x       y       z     vdW  Elec       q    Type
                         _______ _______ _______ _____ _____    ______ ____

>  <TORSDO>
F 25

$$$$
=
 OpenBabel10222418243D

 58 61  0  0  1  0  0  0  0  0999 V2000
  179.1320  178.9470  141.9870 C   0  0  0  0  0  3  0  0  0  0  0  0
  179.9120  179.1510  143.0390 C   0  0  0  0  0  2  0  0  0  0  0  0
  181.3890  179.0870  143.1170 C   0  0  0  0  0  3  0  0  0  0  0  0
  180.8920  178.1370  140.1570 C   0  0  0  0  0  0  0  0  0  0  0  0
  179.5610  178.7150  140.5380 C   0  0  0  0  0  3  0  0  0  0  0  0
  182.0290  178.2270  140.8420 C   0  0  0  0  0  3  0  0  0  0  0  0
  182.3250  178.6600  142.2450 C   0  0  0  0  0  0  0  0  0  0  0  0
  183.8430  178.4820  142.6080 C   0  0  0  0  0  2  0  0  0  0  0  0
  184.2630  178.2970  144.0890 C   0  0  2  0  0  3  0  0  0  0  0  0
  183.2730  179.0670  144.9790 C   0  0  0  0  0  1  0  0  0  0  0  0
  185.7320  178.7570  144.2810 C   0  0  0  0  0  2  0  0  0  0  0  0
  186.5380  177.7380  144.9750 N   0  0  0  0  0  0  0  0  0  0  0  0
  188.0060  177.5000  148.1800 C   0  0  1  0  0  3  0  0  0  0  0  0
  185.7600  179.8550  147.0490 O   0  0  0  0  0  0  0  0  0  0  0  0
  187.6900  178.8890  147.9100 N   0  0  0  0  0  2  0  0  0  0  0  0
  186.5420  178.8750  147.0790 C   0  0  0  0  0  0  0  0  0  0  0  0
  186.3140  177.5660  146.4010 C   0  0  2  0  0  3  0  0  0  0  0  0
  187.4120  176.6910  147.0330 C   0  0  0  0  0  2  0  0  0  0  0  0
  189.4990  177.3280  148.3590 C   0  0  0  0  0  2  0  0  0  0  0  0
  190.2610  176.6080  147.2600 N   0  0  0  0  0  2  0  0  0  0  0  0
  191.1470  177.0480  146.1990 C   0  0  0  0  0  0  0  0  0  0  0  0
  191.9170  176.0850  145.3580 N   0  0  0  0  0  1  0  0  0  0  0  0
  191.2800  178.2230  145.9010 O   0  0  0  0  0  0  0  0  0  0  0  0
  187.9660  177.9460  144.7020 C   0  0  0  0  0  2  0  0  0  0  0  0
  188.7080  177.0020  143.7740 C   0  0  0  0  0  2  0  0  0  0  0  0
  189.4760  177.9290  142.8020 C   0  0  0  0  0  2  0  0  0  0  0  0
  190.1790  177.4020  141.5210 C   0  0  2  0  0  0  0  0  0  0  0  0
  190.0710  175.8970  141.4010 C   0  0  0  0  0  1  0  0  0  0  0  0
  191.6690  177.7010  141.6060 C   0  0  0  0  0  2  0  0  0  0  0  0
  192.2060  177.7070  140.2630 N   0  0  0  0  0  1  0  0  0  0  0  0
  188.0160  178.3140  140.5100 O   0  0  0  0  0  1  0  0  0  0  0  0
  189.4040  178.0800  140.3500 C   0  0  0  0  0  2  0  0  0  0  0  0
  181.0500  177.3600  138.8600 C   0  0  0  0  0  2  0  0  0  0  0  0
  180.5140  175.2690  137.5780 C   0  0  0  0  0  0  0  0  0  0  0  0
  180.5760  175.9050  138.7620 C   0  0  0  0  0  3  0  0  0  0  0  0
  180.7650  176.0000  136.3220 C   0  0  0  0  0  1  0  0  0  0  0  0
  180.0710  173.8640  137.3690 C   0  0  0  0  0  3  0  0  0  0  0  0
  180.7950  172.8360  136.9120 C   0  0  0  0  0  0  0  0  0  0  0  0
  180.0200  171.5090  137.0090 C   0  0  0  0  0  1  0  0  0  0  0  0
  183.2940  172.1400  135.7160 C   0  0  1  0  0  3  0  0  0  0  0  0
  182.4320  171.4030  136.5880 O   0  0  0  0  0  0  0  0  0  0  0  0
  182.2720  172.7430  136.6720 C   0  0  2  0  0  3  0  0  0  0  0  0
  184.5300  172.4740  136.3920 N   0  0  0  0  0  2  0  0  0  0  0  0
  186.5790  171.3780  135.6690 C   0  0  0  0  0  1  0  0  0  0  0  0
  185.6910  172.5860  135.5500 C   0  0  2  0  0  3  0  0  0  0  0  0
  187.6890  174.1540  135.0880 N   0  0  0  0  0  2  0  0  0  0  0  0
  186.5570  173.7140  135.9160 C   0  0  0  0  0  0  0  0  0  0  0  0
  186.2780  174.4230  136.9540 O   0  0  0  0  0  0  0  0  0  0  0  0
  188.5260  175.2840  135.4360 C   0  0  1  0  0  3  0  0  0  0  0  0
  189.1670  175.5310  137.8540 O   0  0  0  0  0  1  0  0  0  0  0  0
  191.7260  174.6530  137.9110 N   0  0  0  0  0  1  0  0  0  0  0  0
  191.2440  174.9520  135.5880 S   0  0  0  0  0  0  0  0  0  0  0  0
  189.6130  174.9960  136.6030 C   0  0  2  0  0  0  0  0  0  0  0  0
  190.7440  174.0880  136.9920 C   0  0  2  0  0  3  0  0  0  0  0  0
  188.3910  176.4640  134.7080 O   0  0  0  0  0  0  0  0  0  0  0  0
  188.5680  177.8370  135.8020 S   0  0  0  0  0  0  0  0  0  0  0  0
  186.8070  178.6080  137.3400 N   0  0  0  0  0  1  0  0  0  0  0  0
  186.8610  177.8670  136.0730 C   0  0  0  0  0  2  0  0  0  0  0  0
  1  2  1  0  0  0  0
  2  3  1  0  0  0  0
  4  5  1  0  0  0  0
  4  6  2  0  0  0  0
  5  1  2  0  0  0  0
  6  7  1  0  0  0  0
  7  8  1  0  0  0  0
  7  3  2  0  0  0  0
  8  9  1  0  0  0  0
  9 11  1  0  0  0  0
  9 10  1  1  0  0  0
 11 12  1  0  0  0  0
 13 19  1  6  0  0  0
 14 16  2  0  0  0  0
 15 13  1  0  0  0  0
 16 15  1  0  0  0  0
 17 12  1  6  0  0  0
 17 18  1  0  0  0  0
 17 16  1  0  0  0  0
 18 13  1  0  0  0  0
 20 19  1  0  0  0  0
 21 20  1  0  0  0  0
 22 21  1  0  0  0  0
 23 21  2  0  0  0  0
 24 12  1  0  0  0  0
 25 24  1  0  0  0  0
 26 25  1  0  0  0  0
 27 28  1  6  0  0  0
 27 29  1  0  0  0  0
 27 26  1  0  0  0  0
 30 29  1  0  0  0  0
 32 31  1  0  0  0  0
 32 27  1  0  0  0  0
 33  4  1  0  0  0  0
 34 35  2  0  0  0  0
 35 33  1  0  0  0  0
 36 34  1  0  0  0  0
 37 34  1  0  0  0  0
 38 39  1  0  0  0  0
 38 37  2  0  0  0  0
 40 43  1  1  0  0  0
 40 41  1  0  0  0  0
 40 42  1  0  0  0  0
 41 42  1  0  0  0  0
 42 38  1  6  0  0  0
 45 44  1  1  0  0  0
 45 47  1  0  0  0  0
 45 43  1  0  0  0  0
 46 49  1  0  0  0  0
 46 47  1  0  0  0  0
 47 48  2  0  0  0  0
 49 55  1  6  0  0  0
 49 53  1  0  0  0  0
 52 53  1  0  0  0  0
 52 54  1  0  0  0  0
 53 54  1  0  0  0  0
 53 50  1  1  0  0  0
 54 51  1  1  0  0  0
 55 56  1  0  0  0  0
 56 58  1  0  0  0  0
 58 57  1  0  0  0  0
M  END
>  <MODEL>
5

>  <REMARK>
 VINA RESULT:      -5.5      1.117      2.222
  Name = 
  25 active torsions:
  status: ('A' for Active; 'I' for Inactive)
    1  A    between atoms: C_2  and  C_30
    2  A    between atoms: C_5  and  C_16
    3  A    between atoms: C_7  and  N_17
    4  A    between atoms: C_7  and  C_57
    5  A    between atoms: C_8  and  C_13
    6  A    between atoms: C_8  and  C_35
    7  A    between atoms: C_9  and  C_21
    8  A    between atoms: C_9  and  C_49
    9  A    between atoms: C_10  and  C_14
   10  A    between atoms: C_11  and  N_34
   11  A    between atoms: C_14  and  C_32
   12  A    between atoms: C_14  and  C_39
   13  A    between atoms: N_17  and  C_21
   14  A    between atoms: N_17  and  C_50
   15  A    between atoms: C_19  and  N_34
   16  A    between atoms: C_19  and  C_38
   17  A    between atoms: C_23  and  N_24
   18  A    between atoms: C_23  and  C_36
   19  A    between atoms: C_23  and  O_43
   20  A    between atoms: N_25  and  C_30
   21  A    between atoms: C_27  and  C_40
   22  A    between atoms: C_32  and  C_57
   23  A    between atoms: O_43  and  S_53
   24  A    between atoms: C_46  and  S_53
   25  A    between atoms: C_49  and  C_56
                            x       y       z     vdW  Elec       q    Type
                         _______ _______ _______ _____ _____    ______ ____

>  <TORSDO>
F 25

$$$$
=
 OpenBabel10222418243D

 58 61  0  0  1  0  0  0  0  0999 V2000
  189.0490  176.9580  144.0750 C   0  0  0  0  0  3  0  0  0  0  0  0
  188.0700  177.6780  144.6070 C   0  0  0  0  0  2  0  0  0  0  0  0
  186.9300  178.3290  143.9240 C   0  0  0  0  0  3  0  0  0  0  0  0
  188.5670  177.2340  141.4680 C   0  0  0  0  0  0  0  0  0  0  0  0
  189.1900  176.5030  142.6220 C   0  0  0  0  0  3  0  0  0  0  0  0
  187.4610  177.9720  141.4920 C   0  0  0  0  0  3  0  0  0  0  0  0
  186.6480  178.5280  142.6200 C   0  0  0  0  0  0  0  0  0  0  0  0
  185.4730  179.4360  142.1070 C   0  0  0  0  0  2  0  0  0  0  0  0
  184.0300  178.8700  142.0560 C   0  0  2  0  0  3  0  0  0  0  0  0
  183.7220  178.1910  143.4020 C   0  0  0  0  0  1  0  0  0  0  0  0
  183.8840  177.9080  140.8480 C   0  0  0  0  0  2  0  0  0  0  0  0
  182.5760  178.0540  140.1880 N   0  0  0  0  0  0  0  0  0  0  0  0
  179.8320  180.1060  139.3270 C   0  0  1  0  0  3  0  0  0  0  0  0
  180.2750  178.2570  142.2000 O   0  0  0  0  0  0  0  0  0  0  0  0
  179.3720  179.0540  140.2130 N   0  0  0  0  0  2  0  0  0  0  0  0
  180.4640  178.7550  141.0650 C   0  0  0  0  0  0  0  0  0  0  0  0
  181.7780  179.2200  140.5340 C   0  0  2  0  0  3  0  0  0  0  0  0
  181.3510  179.9910  139.2720 C   0  0  0  0  0  2  0  0  0  0  0  0
  179.1470  179.9940  137.9820 C   0  0  0  0  0  2  0  0  0  0  0  0
  179.8290  180.6400  136.7890 N   0  0  0  0  0  2  0  0  0  0  0  0
  179.8090  181.9750  136.2230 C   0  0  0  0  0  0  0  0  0  0  0  0
  180.7380  182.3870  135.1290 N   0  0  0  0  0  1  0  0  0  0  0  0
  179.0060  182.8230  136.5720 O   0  0  0  0  0  0  0  0  0  0  0  0
  181.7850  176.8260  140.3490 C   0  0  0  0  0  2  0  0  0  0  0  0
  181.6980  175.8240  139.2130 C   0  0  0  0  0  2  0  0  0  0  0  0
  181.9640  176.6550  137.9340 C   0  0  0  0  0  2  0  0  0  0  0  0
  183.0100  176.2370  136.8650 C   0  0  2  0  0  0  0  0  0  0  0  0
  184.3940  176.0930  137.4630 C   0  0  0  0  0  1  0  0  0  0  0  0
  183.1270  177.3360  135.8190 C   0  0  0  0  0  2  0  0  0  0  0  0
  181.8550  178.0190  135.7360 N   0  0  0  0  0  1  0  0  0  0  0  0
  183.4760  173.8650  136.0350 O   0  0  0  0  0  1  0  0  0  0  0  0
  182.5100  174.8500  136.3570 C   0  0  0  0  0  2  0  0  0  0  0  0
  189.1960  177.1640  140.0860 C   0  0  0  0  0  2  0  0  0  0  0  0
  188.3450  178.2110  137.9680 C   0  0  0  0  0  0  0  0  0  0  0  0
  188.3170  177.1780  138.8300 C   0  0  0  0  0  3  0  0  0  0  0  0
  189.1170  179.4270  138.2840 C   0  0  0  0  0  1  0  0  0  0  0  0
  187.5380  178.3260  136.7240 C   0  0  0  0  0  3  0  0  0  0  0  0
  187.6880  177.6440  135.5830 C   0  0  0  0  0  0  0  0  0  0  0  0
  186.5420  177.9300  134.5950 C   0  0  0  0  0  1  0  0  0  0  0  0
  189.8040  175.7360  135.7810 C   0  0  1  0  0  3  0  0  0  0  0  0
  189.7680  177.0410  135.1960 O   0  0  0  0  0  0  0  0  0  0  0  0
  188.5540  176.4550  135.2920 C   0  0  2  0  0  3  0  0  0  0  0  0
  189.9580  174.7270  134.7530 N   0  0  0  0  0  2  0  0  0  0  0  0
  190.1330  172.9140  136.3670 C   0  0  0  0  0  1  0  0  0  0  0  0
  190.7040  173.5580  135.1350 C   0  0  2  0  0  3  0  0  0  0  0  0
  192.6590  173.5790  136.8210 N   0  0  0  0  0  2  0  0  0  0  0  0
  192.0960  173.8600  135.4930 C   0  0  0  0  0  0  0  0  0  0  0  0
  192.9060  174.3040  134.5950 O   0  0  0  0  0  0  0  0  0  0  0  0
  194.0400  173.8520  137.1650 C   0  0  1  0  0  3  0  0  0  0  0  0
  195.6680  172.7780  138.7510 O   0  0  0  0  0  1  0  0  0  0  0  0
  196.3370  170.4780  137.4920 N   0  0  0  0  0  1  0  0  0  0  0  0
  195.2320  171.7800  135.8190 S   0  0  0  0  0  0  0  0  0  0  0  0
  194.9180  172.5460  137.5540 C   0  0  2  0  0  0  0  0  0  0  0  0
  195.0040  171.0580  137.3670 C   0  0  2  0  0  3  0  0  0  0  0  0
  194.5090  175.1590  137.0570 O   0  0  0  0  0  0  0  0  0  0  0  0
  196.1960  175.1220  136.5380 S   0  0  0  0  0  0  0  0  0  0  0  0
  196.8020  177.2180  135.3980 N   0  0  0  0  0  1  0  0  0  0  0  0
  195.8250  176.1400  135.1920 C   0  0  0  0  0  2  0  0  0  0  0  0
  1  2  1  0  0  0  0
  3  2  1  0  0  0  0
  4  6  2  0  0  0  0
  4  5  1  0  0  0  0
  5  1  2  0  0  0  0
  6  7  1  0  0  0  0
  7  3  2  0  0  0  0
  8  7  1  0  0  0  0
  9  8  1  0  0  0  0
  9 10  1  1  0  0  0
 11  9  1  0  0  0  0
 12 24  1  0  0  0  0
 12 11  1  0  0  0  0
 13 19  1  6  0  0  0
 13 15  1  0  0  0  0
 15 16  1  0  0  0  0
 16 14  2  0  0  0  0
 17 12  1  6  0  0  0
 17 16  1  0  0  0  0
 18 13  1  0  0  0  0
 18 17  1  0  0  0  0
 20 19  1  0  0  0  0
 21 23  2  0  0  0  0
 21 20  1  0  0  0  0
 22 21  1  0  0  0  0
 25 24  1  0  0  0  0
 26 25  1  0  0  0  0
 27 28  1  1  0  0  0
 27 26  1  0  0  0  0
 29 27  1  0  0  0  0
 30 29  1  0  0  0  0
 31 32  1  0  0  0  0
 32 27  1  0  0  0  0
 33  4  1  0  0  0  0
 34 36  1  0  0  0  0
 34 35  2  0  0  0  0
 35 33  1  0  0  0  0
 37 34  1  0  0  0  0
 38 37  2  0  0  0  0
 39 38  1  0  0  0  0
 40 43  1  6  0  0  0
 41 42  1  0  0  0  0
 41 40  1  0  0  0  0
 42 38  1  1  0  0  0
 42 40  1  0  0  0  0
 43 45  1  0  0  0  0
 45 47  1  0  0  0  0
 45 44  1  1  0  0  0
 47 46  1  0  0  0  0
 48 47  2  0  0  0  0
 49 46  1  6  0  0  0
 49 53  1  0  0  0  0
 52 54  1  0  0  0  0
 52 53  1  0  0  0  0
 53 50  1  1  0  0  0
 54 51  1  1  0  0  0
 54 53  1  0  0  0  0
 55 49  1  0  0  0  0
 56 55  1  0  0  0  0
 58 57  1  0  0  0  0
 58 56  1  0  0  0  0
M  END
>  <MODEL>
6

>  <REMARK>
 VINA RESULT:      -5.4      4.217      9.037
  Name = 
  25 active torsions:
  status: ('A' for Active; 'I' for Inactive)
    1  A    between atoms: C_2  and  C_30
    2  A    between atoms: C_5  and  C_16
    3  A    between atoms: C_7  and  N_17
    4  A    between atoms: C_7  and  C_57
    5  A    between atoms: C_8  and  C_13
    6  A    between atoms: C_8  and  C_35
    7  A    between atoms: C_9  and  C_21
    8  A    between atoms: C_9  and  C_49
    9  A    between atoms: C_10  and  C_14
   10  A    between atoms: C_11  and  N_34
   11  A    between atoms: C_14  and  C_32
   12  A    between atoms: C_14  and  C_39
   13  A    between atoms: N_17  and  C_21
   14  A    between atoms: N_17  and  C_50
   15  A    between atoms: C_19  and  N_34
   16  A    between atoms: C_19  and  C_38
   17  A    between atoms: C_23  and  N_24
   18  A    between atoms: C_23  and  C_36
   19  A    between atoms: C_23  and  O_43
   20  A    between atoms: N_25  and  C_30
   21  A    between atoms: C_27  and  C_40
   22  A    between atoms: C_32  and  C_57
   23  A    between atoms: O_43  and  S_53
   24  A    between atoms: C_46  and  S_53
   25  A    between atoms: C_49  and  C_56
                            x       y       z     vdW  Elec       q    Type
                         _______ _______ _______ _____ _____    ______ ____

>  <TORSDO>
F 25

$$$$
=
 OpenBabel10222418243D

 58 61  0  0  1  0  0  0  0  0999 V2000
  191.8290  178.0620  142.9870 C   0  0  0  0  0  3  0  0  0  0  0  0
  192.4050  178.0080  141.7940 C   0  0  0  0  0  3  0  0  0  0  0  0
  191.8260  177.5490  140.5110 C   0  0  0  0  0  3  0  0  0  0  0  0
  189.4860  176.8850  142.5100 C   0  0  0  0  0  0  0  0  0  0  0  0
  190.3660  177.7820  143.3310 C   0  0  0  0  0  2  0  0  0  0  0  0
  189.5850  176.6410  141.2060 C   0  0  0  0  0  3  0  0  0  0  0  0
  190.6690  176.9230  140.2120 C   0  0  0  0  0  0  0  0  0  0  0  0
  190.3350  176.3320  138.7950 C   0  0  0  0  0  2  0  0  0  0  0  0
  191.4830  175.8200  137.8850 C   0  0  2  0  0  3  0  0  0  0  0  0
  192.7840  176.5350  138.2890 C   0  0  0  0  0  1  0  0  0  0  0  0
  191.1110  176.0380  136.3950 C   0  0  0  0  0  2  0  0  0  0  0  0
  191.0840  174.7690  135.6480 N   0  0  0  0  0  0  0  0  0  0  0  0
  187.7260  173.7130  135.9480 C   0  0  1  0  0  3  0  0  0  0  0  0
  188.9080  176.6540  134.5990 O   0  0  0  0  0  0  0  0  0  0  0  0
  187.7660  175.1620  135.9650 N   0  0  0  0  0  2  0  0  0  0  0  0
  188.8710  175.5330  135.1600 C   0  0  0  0  0  0  0  0  0  0  0  0
  189.8530  174.4300  134.9520 C   0  0  2  0  0  3  0  0  0  0  0  0
  189.1420  173.2450  135.6320 C   0  0  0  0  0  2  0  0  0  0  0  0
  187.1710  173.1890  137.2550 C   0  0  0  0  0  2  0  0  0  0  0  0
  185.6640  173.2110  137.4400 N   0  0  0  0  0  2  0  0  0  0  0  0
  184.6750  174.2700  137.4930 C   0  0  0  0  0  0  0  0  0  0  0  0
  183.2090  173.9870  137.5020 N   0  0  0  0  0  1  0  0  0  0  0  0
  184.9790  175.4470  137.5800 O   0  0  0  0  0  0  0  0  0  0  0  0
  191.5070  173.6600  136.5120 C   0  0  0  0  0  2  0  0  0  0  0  0
  192.6200  172.7300  136.0650 C   0  0  0  0  0  2  0  0  0  0  0  0
  193.8340  173.6590  135.8230 C   0  0  0  0  0  2  0  0  0  0  0  0
  195.1730  173.5070  136.5950 C   0  0  2  0  0  0  0  0  0  0  0  0
  194.9590  173.5220  138.0940 C   0  0  0  0  0  1  0  0  0  0  0  0
  196.0650  174.7040  136.2960 C   0  0  0  0  0  2  0  0  0  0  0  0
  195.2180  175.8510  136.0590 N   0  0  0  0  0  1  0  0  0  0  0  0
  196.6930  171.4870  136.9680 O   0  0  0  0  0  1  0  0  0  0  0  0
  195.7160  172.1130  136.1550 C   0  0  0  0  0  2  0  0  0  0  0  0
  188.3250  176.1470  143.1570 C   0  0  0  0  0  2  0  0  0  0  0  0
  187.8330  177.1940  145.3860 C   0  0  0  0  0  0  0  0  0  0  0  0
  187.4060  176.8640  144.1530 C   0  0  0  0  0  3  0  0  0  0  0  0
  189.1540  176.7450  145.8630 C   0  0  0  0  0  1  0  0  0  0  0  0
  187.0290  177.8890  146.4270 C   0  0  0  0  0  3  0  0  0  0  0  0
  185.9050  178.5930  146.2590 C   0  0  0  0  0  0  0  0  0  0  0  0
  185.2860  179.0040  147.6080 C   0  0  0  0  0  1  0  0  0  0  0  0
  184.9620  179.4130  143.6900 C   0  0  1  0  0  3  0  0  0  0  0  0
  184.9100  180.0660  144.9620 O   0  0  0  0  0  0  0  0  0  0  0  0
  185.0330  178.7220  145.0460 C   0  0  2  0  0  3  0  0  0  0  0  0
  183.6320  179.0360  143.2610 N   0  0  0  0  0  2  0  0  0  0  0  0
  184.4800  179.1580  140.9830 C   0  0  0  0  0  1  0  0  0  0  0  0
  183.5380  178.4780  141.9380 C   0  0  2  0  0  3  0  0  0  0  0  0
  181.9780  178.5880  139.8850 N   0  0  0  0  0  2  0  0  0  0  0  0
  182.2120  178.6590  141.3340 C   0  0  0  0  0  0  0  0  0  0  0  0
  181.1780  178.7950  142.0900 O   0  0  0  0  0  0  0  0  0  0  0  0
  180.6640  178.7390  139.2920 C   0  0  1  0  0  3  0  0  0  0  0  0
  179.5640  176.6360  140.1200 O   0  0  0  0  0  1  0  0  0  0  0  0
  179.1820  175.2010  137.8580 N   0  0  0  0  0  1  0  0  0  0  0  0
  180.6900  176.9420  137.2190 S   0  0  0  0  0  0  0  0  0  0  0  0
  179.9140  177.3480  138.9290 C   0  0  2  0  0  0  0  0  0  0  0  0
  179.1160  176.6590  137.8590 C   0  0  2  0  0  3  0  0  0  0  0  0
  180.1330  180.0200  139.1610 O   0  0  0  0  0  0  0  0  0  0  0  0
  181.2290  180.9980  138.1830 S   0  0  0  0  0  0  0  0  0  0  0  0
  180.1520  182.7810  136.8720 N   0  0  0  0  0  1  0  0  0  0  0  0
  180.1440  182.3400  138.2720 C   0  0  0  0  0  2  0  0  0  0  0  0
  1  5  1  0  0  0  0
  2  1  2  0  0  0  0
  3  2  1  0  0  0  0
  4 33  1  0  0  0  0
  4  5  1  0  0  0  0
  6  4  2  0  0  0  0
  7  3  2  0  0  0  0
  7  6  1  0  0  0  0
  8  7  1  0  0  0  0
  9 10  1  1  0  0  0
  9  8  1  0  0  0  0
 11  9  1  0  0  0  0
 12 11  1  0  0  0  0
 12 24  1  0  0  0  0
 13 15  1  0  0  0  0
 13 19  1  1  0  0  0
 14 16  2  0  0  0  0
 16 15  1  0  0  0  0
 17 16  1  0  0  0  0
 17 18  1  0  0  0  0
 17 12  1  1  0  0  0
 18 13  1  0  0  0  0
 19 20  1  0  0  0  0
 20 21  1  0  0  0  0
 21 22  1  0  0  0  0
 21 23  2  0  0  0  0
 25 24  1  0  0  0  0
 26 25  1  0  0  0  0
 26 27  1  0  0  0  0
 27 28  1  1  0  0  0
 29 27  1  0  0  0  0
 30 29  1  0  0  0  0
 32 27  1  0  0  0  0
 32 31  1  0  0  0  0
 33 35  1  0  0  0  0
 34 36  1  0  0  0  0
 34 37  1  0  0  0  0
 35 34  2  0  0  0  0
 38 37  2  0  0  0  0
 38 39  1  0  0  0  0
 40 43  1  1  0  0  0
 40 41  1  0  0  0  0
 40 42  1  0  0  0  0
 41 42  1  0  0  0  0
 42 38  1  6  0  0  0
 45 44  1  6  0  0  0
 45 43  1  0  0  0  0
 46 47  1  0  0  0  0
 47 45  1  0  0  0  0
 47 48  2  0  0  0  0
 49 55  1  1  0  0  0
 49 46  1  0  0  0  0
 52 54  1  0  0  0  0
 52 53  1  0  0  0  0
 53 49  1  0  0  0  0
 53 50  1  1  0  0  0
 54 51  1  1  0  0  0
 54 53  1  0  0  0  0
 56 58  1  0  0  0  0
 56 55  1  0  0  0  0
 57 58  1  0  0  0  0
M  END
>  <MODEL>
7

>  <REMARK>
 VINA RESULT:      -5.3      3.712     10.620
  Name = 
  25 active torsions:
  status: ('A' for Active; 'I' for Inactive)
    1  A    between atoms: C_2  and  C_30
    2  A    between atoms: C_5  and  C_16
    3  A    between atoms: C_7  and  N_17
    4  A    between atoms: C_7  and  C_57
    5  A    between atoms: C_8  and  C_13
    6  A    between atoms: C_8  and  C_35
    7  A    between atoms: C_9  and  C_21
    8  A    between atoms: C_9  and  C_49
    9  A    between atoms: C_10  and  C_14
   10  A    between atoms: C_11  and  N_34
   11  A    between atoms: C_14  and  C_32
   12  A    between atoms: C_14  and  C_39
   13  A    between atoms: N_17  and  C_21
   14  A    between atoms: N_17  and  C_50
   15  A    between atoms: C_19  and  N_34
   16  A    between atoms: C_19  and  C_38
   17  A    between atoms: C_23  and  N_24
   18  A    between atoms: C_23  and  C_36
   19  A    between atoms: C_23  and  O_43
   20  A    between atoms: N_25  and  C_30
   21  A    between atoms: C_27  and  C_40
   22  A    between atoms: C_32  and  C_57
   23  A    between atoms: O_43  and  S_53
   24  A    between atoms: C_46  and  S_53
   25  A    between atoms: C_49  and  C_56
                            x       y       z     vdW  Elec       q    Type
                         _______ _______ _______ _____ _____    ______ ____

>  <TORSDO>
F 25

$$$$
=
 OpenBabel10222418243D

 58 61  0  0  1  0  0  0  0  0999 V2000
  185.6090  179.2050  141.4400 C   0  0  0  0  0  3  0  0  0  0  0  0
  184.5750  178.9970  140.6380 C   0  0  0  0  0  3  0  0  0  0  0  0
  183.1490  178.8270  140.9990 C   0  0  0  0  0  3  0  0  0  0  0  0
  184.4870  178.9600  143.8450 C   0  0  0  0  0  0  0  0  0  0  0  0
  185.5870  179.4510  142.9490 C   0  0  0  0  0  2  0  0  0  0  0  0
  183.2170  178.7500  143.5120 C   0  0  0  0  0  3  0  0  0  0  0  0
  182.5280  178.6660  142.1850 C   0  0  0  0  0  0  0  0  0  0  0  0
  181.0090  178.2900  142.3340 C   0  0  0  0  0  2  0  0  0  0  0  0
  180.2150  177.7950  141.0970 C   0  0  2  0  0  3  0  0  0  0  0  0
  179.2160  176.7180  141.5550 C   0  0  0  0  0  1  0  0  0  0  0  0
  181.1980  177.2860  140.0110 C   0  0  0  0  0  2  0  0  0  0  0  0
  180.7260  177.6070  138.6530 N   0  0  0  0  0  0  0  0  0  0  0  0
  180.2530  181.0210  137.8790 C   0  0  1  0  0  3  0  0  0  0  0  0
  178.9330  178.2800  136.2620 O   0  0  0  0  0  0  0  0  0  0  0  0
  180.1140  180.2410  136.6650 N   0  0  0  0  0  2  0  0  0  0  0  0
  179.5890  178.9870  137.0650 C   0  0  0  0  0  0  0  0  0  0  0  0
  179.7750  178.6980  138.5160 C   0  0  2  0  0  3  0  0  0  0  0  0
  180.3760  180.0220  139.0230 C   0  0  0  0  0  2  0  0  0  0  0  0
  181.4210  181.9770  137.7550 C   0  0  0  0  0  2  0  0  0  0  0  0
  181.1070  183.4560  137.6130 N   0  0  0  0  0  2  0  0  0  0  0  0
  180.8210  184.3160  136.4810 C   0  0  0  0  0  0  0  0  0  0  0  0
  180.3600  185.7260  136.6530 N   0  0  0  0  0  1  0  0  0  0  0  0
  180.9840  183.9580  135.3280 O   0  0  0  0  0  0  0  0  0  0  0  0
  180.2170  176.3980  137.9920 C   0  0  0  0  0  2  0  0  0  0  0  0
  180.4500  175.0340  138.6170 C   0  0  0  0  0  2  0  0  0  0  0  0
  181.3760  174.2980  137.6190 C   0  0  0  0  0  2  0  0  0  0  0  0
  180.8340  173.5290  136.3830 C   0  0  2  0  0  0  0  0  0  0  0  0
  179.4000  173.9040  136.0750 C   0  0  0  0  0  1  0  0  0  0  0  0
  180.8130  172.0380  136.6870 C   0  0  0  0  0  2  0  0  0  0  0  0
  179.4330  171.6120  136.7670 N   0  0  0  0  0  1  0  0  0  0  0  0
  183.1190  174.2550  135.4970 O   0  0  0  0  0  1  0  0  0  0  0  0
  181.7580  173.9820  135.2110 C   0  0  0  0  0  2  0  0  0  0  0  0
  184.7670  178.6590  145.3090 C   0  0  0  0  0  2  0  0  0  0  0  0
  187.0940  177.7180  145.3610 C   0  0  0  0  0  0  0  0  0  0  0  0
  186.2070  178.6130  145.8320 C   0  0  0  0  0  3  0  0  0  0  0  0
  186.6640  176.6600  144.4300 C   0  0  0  0  0  1  0  0  0  0  0  0
  188.5110  177.5880  145.7960 C   0  0  0  0  0  3  0  0  0  0  0  0
  189.5700  177.2510  145.0510 C   0  0  0  0  0  0  0  0  0  0  0  0
  190.8860  177.3990  145.8360 C   0  0  0  0  0  1  0  0  0  0  0  0
  189.9080  176.0670  142.4740 C   0  0  1  0  0  3  0  0  0  0  0  0
  190.8670  176.4700  143.4550 O   0  0  0  0  0  0  0  0  0  0  0  0
  189.6800  177.1080  143.5620 C   0  0  2  0  0  3  0  0  0  0  0  0
  189.9990  176.9130  141.3020 N   0  0  0  0  0  2  0  0  0  0  0  0
  192.0300  177.6240  140.1650 C   0  0  0  0  0  1  0  0  0  0  0  0
  191.0020  176.5410  140.3410 C   0  0  2  0  0  3  0  0  0  0  0  0
  189.6930  175.1370  138.6150 N   0  0  0  0  0  2  0  0  0  0  0  0
  190.4550  176.3350  138.9940 C   0  0  0  0  0  0  0  0  0  0  0  0
  190.5520  177.2710  138.1140 O   0  0  0  0  0  0  0  0  0  0  0  0
  189.1290  174.9470  137.2930 C   0  0  1  0  0  3  0  0  0  0  0  0
  188.1930  177.2800  137.2550 O   0  0  0  0  0  1  0  0  0  0  0  0
  185.5990  176.8970  136.5880 N   0  0  0  0  0  1  0  0  0  0  0  0
  186.3990  174.7200  137.1650 S   0  0  0  0  0  0  0  0  0  0  0  0
  187.8830  175.9190  136.9360 C   0  0  2  0  0  0  0  0  0  0  0  0
  186.6560  176.0300  136.0760 C   0  0  2  0  0  3  0  0  0  0  0  0
  189.7360  174.0350  136.4330 O   0  0  0  0  0  0  0  0  0  0  0  0
  190.4560  174.9110  135.0810 S   0  0  0  0  0  0  0  0  0  0  0  0
  192.0520  173.2840  136.0110 N   0  0  0  0  0  1  0  0  0  0  0  0
  192.0280  174.7330  135.7770 C   0  0  0  0  0  2  0  0  0  0  0  0
  1  5  1  0  0  0  0
  2  3  1  0  0  0  0
  2  1  2  0  0  0  0
  3  7  2  0  0  0  0
  4 33  1  0  0  0  0
  5  4  1  0  0  0  0
  6  4  2  0  0  0  0
  7  8  1  0  0  0  0
  7  6  1  0  0  0  0
  9 10  1  1  0  0  0
  9  8  1  0  0  0  0
 11  9  1  0  0  0  0
 12 11  1  0  0  0  0
 13 19  1  6  0  0  0
 13 18  1  0  0  0  0
 14 16  2  0  0  0  0
 15 16  1  0  0  0  0
 15 13  1  0  0  0  0
 16 17  1  0  0  0  0
 17 12  1  6  0  0  0
 17 18  1  0  0  0  0
 20 19  1  0  0  0  0
 21 22  1  0  0  0  0
 21 20  1  0  0  0  0
 23 21  2  0  0  0  0
 24 25  1  0  0  0  0
 24 12  1  0  0  0  0
 26 25  1  0  0  0  0
 27 28  1  6  0  0  0
 27 29  1  0  0  0  0
 27 26  1  0  0  0  0
 29 30  1  0  0  0  0
 32 31  1  0  0  0  0
 32 27  1  0  0  0  0
 33 35  1  0  0  0  0
 34 37  1  0  0  0  0
 34 35  2  0  0  0  0
 36 34  1  0  0  0  0
 38 37  2  0  0  0  0
 38 39  1  0  0  0  0
 40 43  1  6  0  0  0
 40 41  1  0  0  0  0
 40 42  1  0  0  0  0
 41 42  1  0  0  0  0
 42 38  1  1  0  0  0
 45 44  1  6  0  0  0
 45 43  1  0  0  0  0
 46 47  1  0  0  0  0
 47 45  1  0  0  0  0
 48 47  2  0  0  0  0
 49 55  1  6  0  0  0
 49 46  1  0  0  0  0
 53 52  1  0  0  0  0
 53 50  1  1  0  0  0
 53 49  1  0  0  0  0
 54 51  1  1  0  0  0
 54 53  1  0  0  0  0
 54 52  1  0  0  0  0
 56 58  1  0  0  0  0
 56 55  1  0  0  0  0
 58 57  1  0  0  0  0
M  END
>  <MODEL>
8

>  <REMARK>
 VINA RESULT:      -5.0      3.270      9.716
  Name = 
  25 active torsions:
  status: ('A' for Active; 'I' for Inactive)
    1  A    between atoms: C_2  and  C_30
    2  A    between atoms: C_5  and  C_16
    3  A    between atoms: C_7  and  N_17
    4  A    between atoms: C_7  and  C_57
    5  A    between atoms: C_8  and  C_13
    6  A    between atoms: C_8  and  C_35
    7  A    between atoms: C_9  and  C_21
    8  A    between atoms: C_9  and  C_49
    9  A    between atoms: C_10  and  C_14
   10  A    between atoms: C_11  and  N_34
   11  A    between atoms: C_14  and  C_32
   12  A    between atoms: C_14  and  C_39
   13  A    between atoms: N_17  and  C_21
   14  A    between atoms: N_17  and  C_50
   15  A    between atoms: C_19  and  N_34
   16  A    between atoms: C_19  and  C_38
   17  A    between atoms: C_23  and  N_24
   18  A    between atoms: C_23  and  C_36
   19  A    between atoms: C_23  and  O_43
   20  A    between atoms: N_25  and  C_30
   21  A    between atoms: C_27  and  C_40
   22  A    between atoms: C_32  and  C_57
   23  A    between atoms: O_43  and  S_53
   24  A    between atoms: C_46  and  S_53
   25  A    between atoms: C_49  and  C_56
                            x       y       z     vdW  Elec       q    Type
                         _______ _______ _______ _____ _____    ______ ____

>  <TORSDO>
F 25

$$$$
=
 OpenBabel10222418243D

 58 61  0  0  1  0  0  0  0  0999 V2000
  182.6300  178.9710  144.7090 C   0  0  0  0  0  3  0  0  0  0  0  0
  183.8020  178.7460  145.2870 C   0  0  0  0  0  2  0  0  0  0  0  0
  185.1250  178.5650  144.6480 C   0  0  0  0  0  3  0  0  0  0  0  0
  183.2470  178.7370  142.1270 C   0  0  0  0  0  0  0  0  0  0  0  0
  182.3540  179.2300  143.2280 C   0  0  0  0  0  3  0  0  0  0  0  0
  184.5560  178.5120  142.1990 C   0  0  0  0  0  3  0  0  0  0  0  0
  185.4950  178.4100  143.3610 C   0  0  0  0  0  0  0  0  0  0  0  0
  186.9500  178.0210  142.9090 C   0  0  0  0  0  2  0  0  0  0  0  0
  187.5350  176.6410  143.3070 C   0  0  2  0  0  3  0  0  0  0  0  0
  187.8130  176.6450  144.8210 C   0  0  0  0  0  1  0  0  0  0  0  0
  188.8000  176.3420  142.4620 C   0  0  0  0  0  2  0  0  0  0  0  0
  189.8420  177.3650  142.6570 N   0  0  0  0  0  0  0  0  0  0  0  0
  191.0720  177.3050  139.3450 C   0  0  1  0  0  3  0  0  0  0  0  0
  188.0610  178.5490  140.4640 O   0  0  0  0  0  0  0  0  0  0  0  0
  189.6230  177.2750  139.3090 N   0  0  0  0  0  2  0  0  0  0  0  0
  189.1880  178.0000  140.4460 C   0  0  0  0  0  0  0  0  0  0  0  0
  190.2370  178.1460  141.4960 C   0  0  2  0  0  3  0  0  0  0  0  0
  191.4630  177.5250  140.8020 C   0  0  0  0  0  2  0  0  0  0  0  0
  191.6370  176.0430  138.7300 C   0  0  0  0  0  2  0  0  0  0  0  0
  192.1620  176.1270  137.3080 N   0  0  0  0  0  2  0  0  0  0  0  0
  193.3690  175.6590  136.6540 C   0  0  0  0  0  0  0  0  0  0  0  0
  193.5450  175.7230  135.1730 N   0  0  0  0  0  1  0  0  0  0  0  0
  194.3270  175.2320  137.2750 O   0  0  0  0  0  0  0  0  0  0  0  0
  191.0220  176.7730  143.3020 C   0  0  0  0  0  2  0  0  0  0  0  0
  190.8670  175.9760  144.5840 C   0  0  0  0  0  2  0  0  0  0  0  0
  190.7990  177.0420  145.7040 C   0  0  0  0  0  2  0  0  0  0  0  0
  190.9090  176.6830  147.2110 C   0  0  2  0  0  0  0  0  0  0  0  0
  191.9020  177.5740  147.9280 C   0  0  0  0  0  1  0  0  0  0  0  0
  191.4490  175.2680  147.3530 C   0  0  0  0  0  2  0  0  0  0  0  0
  192.6050  175.3100  148.2220 N   0  0  0  0  0  1  0  0  0  0  0  0
  189.0180  178.2720  147.8670 O   0  0  0  0  0  1  0  0  0  0  0  0
  189.4760  176.9350  147.7720 C   0  0  0  0  0  2  0  0  0  0  0  0
  182.6780  178.4530  140.7460 C   0  0  0  0  0  2  0  0  0  0  0  0
  181.5680  176.3570  139.9190 C   0  0  0  0  0  0  0  0  0  0  0  0
  181.4680  177.5250  140.5800 C   0  0  0  0  0  3  0  0  0  0  0  0
  182.8120  176.0040  139.2120 C   0  0  0  0  0  1  0  0  0  0  0  0
  180.4630  175.3860  139.7010 C   0  0  0  0  0  3  0  0  0  0  0  0
  179.9390  174.9900  138.5360 C   0  0  0  0  0  0  0  0  0  0  0  0
  178.9300  173.8410  138.7280 C   0  0  0  0  0  1  0  0  0  0  0  0
  179.9180  175.4890  135.7240 C   0  0  1  0  0  3  0  0  0  0  0  0
  179.7590  174.2750  136.4630 O   0  0  0  0  0  0  0  0  0  0  0  0
  180.4230  175.2390  137.1390 C   0  0  2  0  0  3  0  0  0  0  0  0
  181.1620  175.4690  134.9830 N   0  0  0  0  0  2  0  0  0  0  0  0
  182.2010  177.6530  134.7110 C   0  0  0  0  0  1  0  0  0  0  0  0
  182.1890  176.3530  135.4660 C   0  0  2  0  0  3  0  0  0  0  0  0
  184.7350  176.4200  135.8890 N   0  0  0  0  0  2  0  0  0  0  0  0
  183.5420  175.8120  135.2820 C   0  0  0  0  0  0  0  0  0  0  0  0
  183.7080  174.7060  134.6440 O   0  0  0  0  0  0  0  0  0  0  0  0
  186.0660  175.8690  135.7290 C   0  0  1  0  0  3  0  0  0  0  0  0
  185.2080  174.1470  137.3460 O   0  0  0  0  0  1  0  0  0  0  0  0
  187.3750  172.5930  137.8080 N   0  0  0  0  0  1  0  0  0  0  0  0
  188.2480  174.5360  136.7230 S   0  0  0  0  0  0  0  0  0  0  0  0
  186.3360  174.4880  136.5340 C   0  0  2  0  0  0  0  0  0  0  0  0
  187.1500  173.2260  136.5120 C   0  0  2  0  0  3  0  0  0  0  0  0
  186.9520  176.5030  134.8610 O   0  0  0  0  0  0  0  0  0  0  0  0
  186.8580  178.2470  135.1180 S   0  0  0  0  0  0  0  0  0  0  0  0
  188.0490  179.2380  137.0310 N   0  0  0  0  0  1  0  0  0  0  0  0
  188.3330  178.2130  136.0190 C   0  0  0  0  0  2  0  0  0  0  0  0
  1  2  1  0  0  0  0
  3  2  1  0  0  0  0
  4  6  2  0  0  0  0
  4  5  1  0  0  0  0
  5  1  2  0  0  0  0
  6  7  1  0  0  0  0
  7  3  2  0  0  0  0
  8  9  1  0  0  0  0
  8  7  1  0  0  0  0
  9 10  1  1  0  0  0
 11 12  1  0  0  0  0
 11  9  1  0  0  0  0
 12 24  1  0  0  0  0
 13 19  1  1  0  0  0
 13 18  1  0  0  0  0
 15 13  1  0  0  0  0
 15 16  1  0  0  0  0
 16 14  2  0  0  0  0
 16 17  1  0  0  0  0
 17 12  1  1  0  0  0
 18 17  1  0  0  0  0
 20 19  1  0  0  0  0
 21 23  2  0  0  0  0
 21 20  1  0  0  0  0
 22 21  1  0  0  0  0
 24 25  1  0  0  0  0
 25 26  1  0  0  0  0
 26 27  1  0  0  0  0
 27 29  1  0  0  0  0
 27 32  1  0  0  0  0
 27 28  1  1  0  0  0
 29 30  1  0  0  0  0
 32 31  1  0  0  0  0
 33  4  1  0  0  0  0
 34 35  2  0  0  0  0
 35 33  1  0  0  0  0
 36 34  1  0  0  0  0
 37 34  1  0  0  0  0
 38 39  1  0  0  0  0
 38 37  2  0  0  0  0
 40 43  1  6  0  0  0
 40 41  1  0  0  0  0
 40 42  1  0  0  0  0
 41 42  1  0  0  0  0
 42 38  1  1  0  0  0
 43 45  1  0  0  0  0
 45 44  1  6  0  0  0
 47 45  1  0  0  0  0
 47 46  1  0  0  0  0
 48 47  2  0  0  0  0
 49 55  1  6  0  0  0
 49 46  1  0  0  0  0
 49 53  1  0  0  0  0
 53 52  1  0  0  0  0
 53 50  1  1  0  0  0
 54 53  1  0  0  0  0
 54 52  1  0  0  0  0
 54 51  1  1  0  0  0
 55 56  1  0  0  0  0
 56 58  1  0  0  0  0
 58 57  1  0  0  0  0
M  END
>  <MODEL>
9

>  <REMARK>
 VINA RESULT:      -4.9      2.335      5.645
  Name = 
  25 active torsions:
  status: ('A' for Active; 'I' for Inactive)
    1  A    between atoms: C_2  and  C_30
    2  A    between atoms: C_5  and  C_16
    3  A    between atoms: C_7  and  N_17
    4  A    between atoms: C_7  and  C_57
    5  A    between atoms: C_8  and  C_13
    6  A    between atoms: C_8  and  C_35
    7  A    between atoms: C_9  and  C_21
    8  A    between atoms: C_9  and  C_49
    9  A    between atoms: C_10  and  C_14
   10  A    between atoms: C_11  and  N_34
   11  A    between atoms: C_14  and  C_32
   12  A    between atoms: C_14  and  C_39
   13  A    between atoms: N_17  and  C_21
   14  A    between atoms: N_17  and  C_50
   15  A    between atoms: C_19  and  N_34
   16  A    between atoms: C_19  and  C_38
   17  A    between atoms: C_23  and  N_24
   18  A    between atoms: C_23  and  C_36
   19  A    between atoms: C_23  and  O_43
   20  A    between atoms: N_25  and  C_30
   21  A    between atoms: C_27  and  C_40
   22  A    between atoms: C_32  and  C_57
   23  A    between atoms: O_43  and  S_53
   24  A    between atoms: C_46  and  S_53
   25  A    between atoms: C_49  and  C_56
                            x       y       z     vdW  Elec       q    Type
                         _______ _______ _______ _____ _____    ______ ____

>  <TORSDO>
F 25

$$$$
