=
 OpenBabel10222419473D

 33 38  0  0  1  0  0  0  0  0999 V2000
  189.0740  177.4750  143.5510 N   0  0  0  0  0  0  0  0  0  0  0  0
  191.3750  176.4240  146.1460 N   0  0  0  0  0  0  0  0  0  0  0  0
  186.5000  178.6290  141.4110 O   0  0  0  0  0  0  0  0  0  0  0  0
  190.7370  176.5460  140.3720 C   0  0  0  0  0  3  0  0  0  0  0  0
  187.8120  178.3090  141.6850 C   0  0  2  0  0  3  0  0  0  0  0  0
  186.7430  178.3850  143.7440 C   0  0  0  0  0  2  0  0  0  0  0  0
  188.6700  177.7540  140.8140 C   0  0  0  0  0  0  0  0  0  0  0  0
  188.1260  178.5000  143.1180 C   0  0  1  0  0  3  0  0  0  0  0  0
  189.5630  177.3090  144.8720 C   0  0  0  0  0  0  0  0  0  0  0  0
  190.7640  176.6300  144.9500 C   0  0  0  0  0  0  0  0  0  0  0  0
  189.2890  177.1790  138.5420 C   0  0  0  0  0  3  0  0  0  0  0  0
  190.4830  176.5900  138.9910 C   0  0  0  0  0  0  0  0  0  0  0  0
  189.8410  177.1050  141.2920 C   0  0  0  0  0  0  0  0  0  0  0  0
  188.9930  178.0480  148.4620 N   0  0  0  0  0  1  0  0  0  0  0  0
  191.4460  176.1170  143.3740 S   0  0  0  0  0  0  0  0  0  0  0  0
  190.8040  176.8780  147.2980 C   0  0  0  0  0  3  0  0  0  0  0  0
  188.3880  177.7510  139.4440 C   0  0  0  0  0  3  0  0  0  0  0  0
  190.0320  176.9550  142.6200 C   0  0  2  0  0  3  0  0  0  0  0  0
  188.9540  177.7980  146.0290 C   0  0  0  0  0  3  0  0  0  0  0  0
  185.7830  178.8250  142.6240 C   0  0  2  0  0  3  0  0  0  0  0  0
  189.5830  177.5720  147.2590 C   0  0  0  0  0  0  0  0  0  0  0  0
  191.4130  176.0070  138.0550 N   0  0  0  0  0  0  0  0  0  0  0  0
  193.2810  175.4370  135.7440 C   0  0  0  0  0  2  0  0  0  0  0  0
  190.7660  175.1240  135.8360 C   0  0  0  0  0  2  0  0  0  0  0  0
  193.5890  176.3000  136.9300 C   0  0  0  0  0  3  0  0  0  0  0  0
  191.9370  175.8220  135.1390 C   0  0  0  0  0  2  0  0  0  0  0  0
  192.7460  176.5470  137.9430 C   0  0  0  0  0  3  0  0  0  0  0  0
  191.0270  174.8070  137.3090 C   0  0  0  0  0  2  0  0  0  0  0  0
  184.5380  177.9580  142.6460 C   0  0  0  0  0  2  0  0  0  0  0  0
  183.2960  178.8300  142.6660 C   0  0  0  0  0  2  0  0  0  0  0  0
  181.4650  178.6240  144.1730 O   0  0  0  0  0  0  0  0  0  0  0  0
  183.5150  179.0830  145.1650 N   0  0  0  0  0  1  0  0  0  0  0  0
  182.6980  178.8260  144.0280 C   0  0  0  0  0  0  0  0  0  0  0  0
  1  9  1  0  0  0  0
  2 16  1  0  0  0  0
  3  5  1  0  0  0  0
  3 20  1  0  0  0  0
  4 13  1  0  0  0  0
  5  7  1  1  0  0  0
  5  8  1  0  0  0  0
  7 13  2  0  0  0  0
  8  1  1  0  0  0  0
  8  6  1  1  0  0  0
  9 10  1  0  0  0  0
  9 19  2  0  0  0  0
 10  2  2  0  0  0  0
 11 12  1  0  0  0  0
 11 17  2  0  0  0  0
 12  4  2  0  0  0  0
 15 10  1  0  0  0  0
 17  7  1  0  0  0  0
 18 13  1  6  0  0  0
 18 15  1  0  0  0  0
 18  1  1  0  0  0  0
 19 21  1  0  0  0  0
 20 29  1  6  0  0  0
 20  6  1  0  0  0  0
 21 16  2  0  0  0  0
 21 14  1  0  0  0  0
 22 12  1  0  0  0  0
 23 25  1  0  0  0  0
 24 28  1  0  0  0  0
 25 27  2  0  0  0  0
 26 23  1  0  0  0  0
 26 24  1  0  0  0  0
 27 22  1  0  0  0  0
 28 22  1  0  0  0  0
 29 30  1  0  0  0  0
 30 33  1  0  0  0  0
 33 31  2  0  0  0  0
 33 32  1  0  0  0  0
M  END
>  <MODEL>
1

>  <REMARK>
 VINA RESULT:      -9.1      0.000      0.000
  Name = 
  4 active torsions:
  status: ('A' for Active; 'I' for Inactive)
    1  A    between atoms: N_6  and  C_18
    2  A    between atoms: C_11  and  C_21
    3  A    between atoms: C_11  and  C_31
    4  A    between atoms: C_21  and  C_25
                            x       y       z     vdW  Elec       q    Type
                         _______ _______ _______ _____ _____    ______ ____

>  <TORSDO>
F 4

$$$$
=
 OpenBabel10222419473D

 33 38  0  0  1  0  0  0  0  0999 V2000
  186.7350  178.1130  144.0590 N   0  0  0  0  0  0  0  0  0  0  0  0
  189.6000  176.7470  145.8080 N   0  0  0  0  0  0  0  0  0  0  0  0
  183.7120  179.4840  142.8280 O   0  0  0  0  0  0  0  0  0  0  0  0
  187.6050  177.8610  140.4660 C   0  0  0  0  0  3  0  0  0  0  0  0
  185.0550  179.1940  142.7250 C   0  0  2  0  0  3  0  0  0  0  0  0
  184.5060  178.8420  144.9530 C   0  0  0  0  0  2  0  0  0  0  0  0
  185.6880  178.8530  141.5910 C   0  0  0  0  0  0  0  0  0  0  0  0
  185.6990  179.1440  144.0570 C   0  0  1  0  0  3  0  0  0  0  0  0
  187.5270  177.7420  145.1770 C   0  0  0  0  0  0  0  0  0  0  0  0
  188.7200  177.1280  144.8460 C   0  0  0  0  0  0  0  0  0  0  0  0
  185.7560  178.7280  139.1720 C   0  0  0  0  0  3  0  0  0  0  0  0
  187.0300  178.1360  139.2140 C   0  0  0  0  0  0  0  0  0  0  0  0
  186.9470  178.1960  141.6560 C   0  0  0  0  0  0  0  0  0  0  0  0
  187.8190  177.7960  148.8740 N   0  0  0  0  0  1  0  0  0  0  0  0
  189.0130  176.9430  143.0870 S   0  0  0  0  0  0  0  0  0  0  0  0
  189.3150  176.9550  147.1250 C   0  0  0  0  0  3  0  0  0  0  0  0
  185.0890  179.0780  140.3480 C   0  0  0  0  0  3  0  0  0  0  0  0
  187.4500  177.8220  142.8510 C   0  0  2  0  0  3  0  0  0  0  0  0
  187.2050  177.9810  146.5130 C   0  0  0  0  0  3  0  0  0  0  0  0
  183.3020  179.4200  144.1880 C   0  0  2  0  0  3  0  0  0  0  0  0
  188.1120  177.5750  147.5000 C   0  0  0  0  0  0  0  0  0  0  0  0
  187.7170  177.7820  137.9960 N   0  0  0  0  0  0  0  0  0  0  0  0
  189.1790  176.3670  135.7570 C   0  0  0  0  0  2  0  0  0  0  0  0
  190.1600  177.4210  137.8440 C   0  0  0  0  0  2  0  0  0  0  0  0
  187.7120  176.2700  136.0480 C   0  0  0  0  0  3  0  0  0  0  0  0
  189.9900  176.1390  137.0260 C   0  0  0  0  0  2  0  0  0  0  0  0
  187.0810  176.8990  137.0490 C   0  0  0  0  0  3  0  0  0  0  0  0
  189.0040  178.4100  137.6870 C   0  0  0  0  0  2  0  0  0  0  0  0
  182.1090  178.4950  144.3360 C   0  0  0  0  0  2  0  0  0  0  0  0
  181.2800  178.5050  143.0640 C   0  0  0  0  0  2  0  0  0  0  0  0
  179.0300  178.6790  143.8220 O   0  0  0  0  0  0  0  0  0  0  0  0
  179.9080  180.6120  142.8780 N   0  0  0  0  0  1  0  0  0  0  0  0
  180.0150  179.2540  143.2910 C   0  0  0  0  0  0  0  0  0  0  0  0
  1  9  1  0  0  0  0
  2 16  1  0  0  0  0
  3 20  1  0  0  0  0
  4 13  1  0  0  0  0
  5  7  1  1  0  0  0
  5  3  1  0  0  0  0
  5  8  1  0  0  0  0
  7 13  2  0  0  0  0
  8  1  1  0  0  0  0
  8  6  1  1  0  0  0
  9 19  2  0  0  0  0
 10  9  1  0  0  0  0
 10  2  2  0  0  0  0
 11 12  1  0  0  0  0
 11 17  2  0  0  0  0
 12  4  2  0  0  0  0
 15 10  1  0  0  0  0
 16 21  2  0  0  0  0
 17  7  1  0  0  0  0
 18 13  1  6  0  0  0
 18 15  1  0  0  0  0
 18  1  1  0  0  0  0
 19 21  1  0  0  0  0
 20 29  1  6  0  0  0
 20  6  1  0  0  0  0
 21 14  1  0  0  0  0
 22 12  1  0  0  0  0
 23 25  1  0  0  0  0
 23 26  1  0  0  0  0
 25 27  2  0  0  0  0
 26 24  1  0  0  0  0
 27 22  1  0  0  0  0
 28 24  1  0  0  0  0
 28 22  1  0  0  0  0
 30 33  1  0  0  0  0
 30 29  1  0  0  0  0
 32 33  1  0  0  0  0
 33 31  2  0  0  0  0
M  END
>  <MODEL>
2

>  <REMARK>
 VINA RESULT:      -8.8      2.174      3.233
  Name = 
  4 active torsions:
  status: ('A' for Active; 'I' for Inactive)
    1  A    between atoms: N_6  and  C_18
    2  A    between atoms: C_11  and  C_21
    3  A    between atoms: C_11  and  C_31
    4  A    between atoms: C_21  and  C_25
                            x       y       z     vdW  Elec       q    Type
                         _______ _______ _______ _____ _____    ______ ____

>  <TORSDO>
F 4

$$$$
=
 OpenBabel10222419473D

 33 38  0  0  1  0  0  0  0  0999 V2000
  189.0450  177.5680  143.0650 N   0  0  0  0  0  0  0  0  0  0  0  0
  191.3730  176.4890  145.6240 N   0  0  0  0  0  0  0  0  0  0  0  0
  186.4350  178.7100  140.9630 O   0  0  0  0  0  0  0  0  0  0  0  0
  190.7810  176.9040  139.8590 C   0  0  0  0  0  3  0  0  0  0  0  0
  187.7590  178.4420  141.2330 C   0  0  2  0  0  3  0  0  0  0  0  0
  186.6690  178.3490  143.2810 C   0  0  0  0  0  2  0  0  0  0  0  0
  188.6520  177.9800  140.3430 C   0  0  0  0  0  0  0  0  0  0  0  0
  188.0500  178.5670  142.6790 C   0  0  1  0  0  3  0  0  0  0  0  0
  189.5310  177.3530  144.3810 C   0  0  0  0  0  0  0  0  0  0  0  0
  190.7640  176.7310  144.4340 C   0  0  0  0  0  0  0  0  0  0  0  0
  189.3200  177.5660  138.0510 C   0  0  0  0  0  3  0  0  0  0  0  0
  190.5380  177.0120  138.4800 C   0  0  0  0  0  0  0  0  0  0  0  0
  189.8510  177.3650  140.7980 C   0  0  0  0  0  0  0  0  0  0  0  0
  188.8920  177.8600  147.9990 N   0  0  0  0  0  1  0  0  0  0  0  0
  191.4840  176.3420  142.8400 S   0  0  0  0  0  0  0  0  0  0  0  0
  190.7700  176.8490  146.7930 C   0  0  0  0  0  3  0  0  0  0  0  0
  188.3830  178.0400  138.9720 C   0  0  0  0  0  3  0  0  0  0  0  0
  190.0360  177.1500  142.1180 C   0  0  2  0  0  3  0  0  0  0  0  0
  188.8870  177.7440  145.5550 C   0  0  0  0  0  3  0  0  0  0  0  0
  185.6990  178.8030  142.1760 C   0  0  2  0  0  3  0  0  0  0  0  0
  189.5160  177.4810  146.7780 C   0  0  0  0  0  0  0  0  0  0  0  0
  191.5040  176.5300  137.5230 N   0  0  0  0  0  0  0  0  0  0  0  0
  193.1860  174.8690  135.6340 C   0  0  0  0  0  2  0  0  0  0  0  0
  193.5010  175.2000  138.1290 C   0  0  0  0  0  2  0  0  0  0  0  0
  191.7960  175.3640  135.3690 C   0  0  0  0  0  3  0  0  0  0  0  0
  193.2600  174.1950  136.9980 C   0  0  0  0  0  2  0  0  0  0  0  0
  191.0630  176.0940  136.2210 C   0  0  0  0  0  3  0  0  0  0  0  0
  192.9320  176.5910  137.8480 C   0  0  0  0  0  2  0  0  0  0  0  0
  184.4990  177.8750  142.1350 C   0  0  0  0  0  2  0  0  0  0  0  0
  183.2470  178.6560  141.7800 C   0  0  0  0  0  2  0  0  0  0  0  0
  181.2850  179.3750  142.9200 O   0  0  0  0  0  0  0  0  0  0  0  0
  183.0520  178.7460  144.2920 N   0  0  0  0  0  1  0  0  0  0  0  0
  182.4610  178.9380  143.0110 C   0  0  0  0  0  0  0  0  0  0  0  0
  1  9  1  0  0  0  0
  2 16  1  0  0  0  0
  3  5  1  0  0  0  0
  3 20  1  0  0  0  0
  4 13  1  0  0  0  0
  5  7  1  1  0  0  0
  5  8  1  0  0  0  0
  7 13  2  0  0  0  0
  8  1  1  0  0  0  0
  8  6  1  1  0  0  0
  9 10  1  0  0  0  0
  9 19  2  0  0  0  0
 10  2  2  0  0  0  0
 11 12  1  0  0  0  0
 11 17  2  0  0  0  0
 12  4  2  0  0  0  0
 15 10  1  0  0  0  0
 17  7  1  0  0  0  0
 18 13  1  6  0  0  0
 18 15  1  0  0  0  0
 18  1  1  0  0  0  0
 19 21  1  0  0  0  0
 20 29  1  6  0  0  0
 20  6  1  0  0  0  0
 21 16  2  0  0  0  0
 21 14  1  0  0  0  0
 22 28  1  0  0  0  0
 22 12  1  0  0  0  0
 23 26  1  0  0  0  0
 25 23  1  0  0  0  0
 25 27  2  0  0  0  0
 26 24  1  0  0  0  0
 27 22  1  0  0  0  0
 28 24  1  0  0  0  0
 30 29  1  0  0  0  0
 30 33  1  0  0  0  0
 31 33  2  0  0  0  0
 33 32  1  0  0  0  0
M  END
>  <MODEL>
3

>  <REMARK>
 VINA RESULT:      -8.8      0.758      1.260
  Name = 
  4 active torsions:
  status: ('A' for Active; 'I' for Inactive)
    1  A    between atoms: N_6  and  C_18
    2  A    between atoms: C_11  and  C_21
    3  A    between atoms: C_11  and  C_31
    4  A    between atoms: C_21  and  C_25
                            x       y       z     vdW  Elec       q    Type
                         _______ _______ _______ _____ _____    ______ ____

>  <TORSDO>
F 4

$$$$
=
 OpenBabel10222419473D

 33 38  0  0  1  0  0  0  0  0999 V2000
  188.0590  177.7100  142.7840 N   0  0  0  0  0  0  0  0  0  0  0  0
  190.3340  176.6640  145.4040 N   0  0  0  0  0  0  0  0  0  0  0  0
  185.4900  178.8180  140.6140 O   0  0  0  0  0  0  0  0  0  0  0  0
  189.8800  177.0520  139.6240 C   0  0  0  0  0  3  0  0  0  0  0  0
  186.8100  178.5640  140.9180 C   0  0  2  0  0  3  0  0  0  0  0  0
  185.6710  178.4670  142.9380 C   0  0  0  0  0  2  0  0  0  0  0  0
  187.7290  178.1080  140.0510 C   0  0  0  0  0  0  0  0  0  0  0  0
  187.0640  178.6980  142.3700 C   0  0  1  0  0  3  0  0  0  0  0  0
  188.5140  177.5040  144.1120 C   0  0  0  0  0  0  0  0  0  0  0  0
  189.7510  176.8950  144.1980 C   0  0  0  0  0  0  0  0  0  0  0  0
  188.4570  177.6930  137.7780 C   0  0  0  0  0  3  0  0  0  0  0  0
  189.6700  177.1530  138.2390 C   0  0  0  0  0  0  0  0  0  0  0  0
  188.9220  177.5070  140.5380 C   0  0  0  0  0  0  0  0  0  0  0  0
  187.7810  178.0170  147.7120 N   0  0  0  0  0  1  0  0  0  0  0  0
  190.5150  176.5080  142.6230 S   0  0  0  0  0  0  0  0  0  0  0  0
  189.6990  177.0210  146.5560 C   0  0  0  0  0  3  0  0  0  0  0  0
  187.4930  178.1610  138.6740 C   0  0  0  0  0  3  0  0  0  0  0  0
  189.0770  177.2980  141.8630 C   0  0  2  0  0  3  0  0  0  0  0  0
  187.8380  177.8930  145.2690 C   0  0  0  0  0  3  0  0  0  0  0  0
  184.7230  178.9070  141.8080 C   0  0  2  0  0  3  0  0  0  0  0  0
  188.4390  177.6410  146.5080 C   0  0  0  0  0  0  0  0  0  0  0  0
  190.6640  176.6780  137.3080 N   0  0  0  0  0  0  0  0  0  0  0  0
  192.2880  175.0990  135.3030 C   0  0  0  0  0  2  0  0  0  0  0  0
  192.3060  174.9020  137.8310 C   0  0  0  0  0  2  0  0  0  0  0  0
  191.0510  175.8900  135.0030 C   0  0  0  0  0  3  0  0  0  0  0  0
  192.0600  174.1860  136.5000 C   0  0  0  0  0  2  0  0  0  0  0  0
  190.3400  176.5790  135.9060 C   0  0  0  0  0  3  0  0  0  0  0  0
  192.0230  176.4040  137.7830 C   0  0  0  0  0  2  0  0  0  0  0  0
  183.5340  177.9670  141.7410 C   0  0  0  0  0  2  0  0  0  0  0  0
  182.2550  178.7580  141.5380 C   0  0  0  0  0  2  0  0  0  0  0  0
  182.1470  178.6400  143.9130 O   0  0  0  0  0  0  0  0  0  0  0  0
  180.5800  180.0380  142.9200 N   0  0  0  0  0  1  0  0  0  0  0  0
  181.6800  179.1380  142.8560 C   0  0  0  0  0  0  0  0  0  0  0  0
  1  9  1  0  0  0  0
  2 16  1  0  0  0  0
  3  5  1  0  0  0  0
  3 20  1  0  0  0  0
  4 13  1  0  0  0  0
  5  7  1  1  0  0  0
  5  8  1  0  0  0  0
  7 13  2  0  0  0  0
  8  1  1  0  0  0  0
  8  6  1  1  0  0  0
  9 10  1  0  0  0  0
  9 19  2  0  0  0  0
 10  2  2  0  0  0  0
 11 12  1  0  0  0  0
 11 17  2  0  0  0  0
 12  4  2  0  0  0  0
 15 10  1  0  0  0  0
 17  7  1  0  0  0  0
 18 13  1  6  0  0  0
 18 15  1  0  0  0  0
 18  1  1  0  0  0  0
 19 21  1  0  0  0  0
 20 29  1  6  0  0  0
 20  6  1  0  0  0  0
 21 16  2  0  0  0  0
 21 14  1  0  0  0  0
 22 28  1  0  0  0  0
 22 12  1  0  0  0  0
 23 26  1  0  0  0  0
 25 23  1  0  0  0  0
 25 27  2  0  0  0  0
 26 24  1  0  0  0  0
 27 22  1  0  0  0  0
 28 24  1  0  0  0  0
 30 29  1  0  0  0  0
 30 33  1  0  0  0  0
 33 32  1  0  0  0  0
 33 31  2  0  0  0  0
M  END
>  <MODEL>
4

>  <REMARK>
 VINA RESULT:      -8.8      1.314      1.698
  Name = 
  4 active torsions:
  status: ('A' for Active; 'I' for Inactive)
    1  A    between atoms: N_6  and  C_18
    2  A    between atoms: C_11  and  C_21
    3  A    between atoms: C_11  and  C_31
    4  A    between atoms: C_21  and  C_25
                            x       y       z     vdW  Elec       q    Type
                         _______ _______ _______ _____ _____    ______ ____

>  <TORSDO>
F 4

$$$$
=
 OpenBabel10222419473D

 33 38  0  0  1  0  0  0  0  0999 V2000
  187.1860  177.8940  142.6430 N   0  0  0  0  0  0  0  0  0  0  0  0
  188.4480  177.0530  145.9340 N   0  0  0  0  0  0  0  0  0  0  0  0
  185.5100  178.8600  139.6770 O   0  0  0  0  0  0  0  0  0  0  0  0
  189.8480  176.8180  140.3000 C   0  0  0  0  0  3  0  0  0  0  0  0
  186.6470  178.5870  140.4070 C   0  0  2  0  0  3  0  0  0  0  0  0
  184.9310  178.7610  141.9610 C   0  0  0  0  0  2  0  0  0  0  0  0
  187.7540  178.0020  139.9230 C   0  0  0  0  0  0  0  0  0  0  0  0
  186.4450  178.8700  141.8450 C   0  0  1  0  0  3  0  0  0  0  0  0
  187.1880  177.8180  144.0600 C   0  0  0  0  0  0  0  0  0  0  0  0
  188.2890  177.1730  144.5900 C   0  0  0  0  0  0  0  0  0  0  0  0
  189.1220  177.3080  138.0460 C   0  0  0  0  0  3  0  0  0  0  0  0
  190.0870  176.7740  138.9170 C   0  0  0  0  0  0  0  0  0  0  0  0
  188.6880  177.4100  140.8160 C   0  0  0  0  0  0  0  0  0  0  0  0
  185.4100  178.7550  147.1770 N   0  0  0  0  0  1  0  0  0  0  0  0
  189.4740  176.5830  143.3820 S   0  0  0  0  0  0  0  0  0  0  0  0
  187.5130  177.5600  146.7870 C   0  0  0  0  0  3  0  0  0  0  0  0
  187.9640  177.9110  138.5430 C   0  0  0  0  0  3  0  0  0  0  0  0
  188.4070  177.3430  142.1350 C   0  0  2  0  0  3  0  0  0  0  0  0
  186.2150  178.3600  144.9010 C   0  0  0  0  0  3  0  0  0  0  0  0
  184.4180  179.1110  140.5530 C   0  0  2  0  0  3  0  0  0  0  0  0
  186.3810  178.2220  146.2850 C   0  0  0  0  0  0  0  0  0  0  0  0
  191.2850  176.1580  138.3980 N   0  0  0  0  0  0  0  0  0  0  0  0
  193.8450  175.5020  136.9250 C   0  0  0  0  0  2  0  0  0  0  0  0
  191.4580  175.1650  136.1380 C   0  0  0  0  0  2  0  0  0  0  0  0
  193.7190  176.4240  138.1010 C   0  0  0  0  0  3  0  0  0  0  0  0
  192.8040  175.8440  135.8670 C   0  0  0  0  0  2  0  0  0  0  0  0
  192.5740  176.7080  138.7380 C   0  0  0  0  0  3  0  0  0  0  0  0
  191.1800  174.9200  137.6220 C   0  0  0  0  0  2  0  0  0  0  0  0
  183.2430  178.2180  140.1990 C   0  0  0  0  0  2  0  0  0  0  0  0
  183.2630  177.8950  138.7160 C   0  0  0  0  0  2  0  0  0  0  0  0
  184.0460  175.8710  137.7380 O   0  0  0  0  0  0  0  0  0  0  0  0
  182.2490  175.6360  139.1910 N   0  0  0  0  0  1  0  0  0  0  0  0
  183.2290  176.4210  138.5200 C   0  0  0  0  0  0  0  0  0  0  0  0
  1  9  1  0  0  0  0
  2 16  1  0  0  0  0
  3 20  1  0  0  0  0
  4 13  1  0  0  0  0
  5  3  1  1  0  0  0
  5  8  1  0  0  0  0
  7  5  1  0  0  0  0
  7 13  2  0  0  0  0
  8  6  1  1  0  0  0
  8  1  1  0  0  0  0
  9 10  1  0  0  0  0
  9 19  2  0  0  0  0
 10  2  2  0  0  0  0
 11 17  2  0  0  0  0
 11 12  1  0  0  0  0
 12  4  2  0  0  0  0
 15 10  1  0  0  0  0
 17  7  1  0  0  0  0
 18 13  1  6  0  0  0
 18  1  1  0  0  0  0
 18 15  1  0  0  0  0
 19 21  1  0  0  0  0
 20 29  1  6  0  0  0
 20  6  1  0  0  0  0
 21 16  2  0  0  0  0
 21 14  1  0  0  0  0
 22 27  1  0  0  0  0
 22 12  1  0  0  0  0
 23 25  1  0  0  0  0
 24 28  1  0  0  0  0
 25 27  2  0  0  0  0
 26 24  1  0  0  0  0
 26 23  1  0  0  0  0
 28 22  1  0  0  0  0
 30 29  1  0  0  0  0
 31 33  2  0  0  0  0
 33 30  1  0  0  0  0
 33 32  1  0  0  0  0
M  END
>  <MODEL>
5

>  <REMARK>
 VINA RESULT:      -8.7      2.333      2.927
  Name = 
  4 active torsions:
  status: ('A' for Active; 'I' for Inactive)
    1  A    between atoms: N_6  and  C_18
    2  A    between atoms: C_11  and  C_21
    3  A    between atoms: C_11  and  C_31
    4  A    between atoms: C_21  and  C_25
                            x       y       z     vdW  Elec       q    Type
                         _______ _______ _______ _____ _____    ______ ____

>  <TORSDO>
F 4

$$$$
=
 OpenBabel10222419473D

 33 38  0  0  1  0  0  0  0  0999 V2000
  184.6270  178.5110  141.5120 N   0  0  0  0  0  0  0  0  0  0  0  0
  181.9680  178.7990  143.9580 N   0  0  0  0  0  0  0  0  0  0  0  0
  186.8410  178.2510  138.7620 O   0  0  0  0  0  0  0  0  0  0  0  0
  187.7110  178.0350  143.5120 C   0  0  0  0  0  3  0  0  0  0  0  0
  186.5540  178.5400  140.0780 C   0  0  2  0  0  3  0  0  0  0  0  0
  184.4990  178.3780  139.0090 C   0  0  0  0  0  2  0  0  0  0  0  0
  187.3720  178.3060  141.1160 C   0  0  0  0  0  0  0  0  0  0  0  0
  185.1550  178.9940  140.2370 C   0  0  1  0  0  3  0  0  0  0  0  0
  183.3030  178.7050  141.9840 C   0  0  0  0  0  0  0  0  0  0  0  0
  183.1710  178.6030  143.3560 C   0  0  0  0  0  0  0  0  0  0  0  0
  189.5770  177.8080  141.9910 C   0  0  0  0  0  3  0  0  0  0  0  0
  189.0840  177.8230  143.3070 C   0  0  0  0  0  0  0  0  0  0  0  0
  186.8440  178.2610  142.4360 C   0  0  0  0  0  0  0  0  0  0  0  0
  179.8070  179.5110  141.0440 N   0  0  0  0  0  1  0  0  0  0  0  0
  184.6920  178.2590  144.2390 S   0  0  0  0  0  0  0  0  0  0  0  0
  180.8640  179.0910  143.2140 C   0  0  0  0  0  3  0  0  0  0  0  0
  188.7290  178.0420  140.9060 C   0  0  0  0  0  3  0  0  0  0  0  0
  185.5110  178.3450  142.6290 C   0  0  2  0  0  3  0  0  0  0  0  0
  182.1980  179.0130  141.1900 C   0  0  0  0  0  3  0  0  0  0  0  0
  185.6460  178.2560  137.9900 C   0  0  2  0  0  3  0  0  0  0  0  0
  180.9600  179.2010  141.8170 C   0  0  0  0  0  0  0  0  0  0  0  0
  189.9660  177.5870  144.4250 N   0  0  0  0  0  0  0  0  0  0  0  0
  191.4610  176.4390  146.7910 C   0  0  0  0  0  2  0  0  0  0  0  0
  189.2500  177.6810  146.7910 C   0  0  0  0  0  2  0  0  0  0  0  0
  191.6800  176.0760  145.3530 C   0  0  0  0  0  3  0  0  0  0  0  0
  189.9780  176.3790  147.1360 C   0  0  0  0  0  2  0  0  0  0  0  0
  191.0030  176.5910  144.3170 C   0  0  0  0  0  3  0  0  0  0  0  0
  189.8650  178.4370  145.6130 C   0  0  0  0  0  2  0  0  0  0  0  0
  185.5110  176.9550  137.2200 C   0  0  0  0  0  2  0  0  0  0  0  0
  186.8190  176.6220  136.5250 C   0  0  0  0  0  2  0  0  0  0  0  0
  188.5620  175.1570  137.2180 O   0  0  0  0  0  0  0  0  0  0  0  0
  186.4330  174.2280  137.2120 N   0  0  0  0  0  1  0  0  0  0  0  0
  187.3310  175.3130  137.0120 C   0  0  0  0  0  0  0  0  0  0  0  0
  1  9  1  0  0  0  0
  1 18  1  0  0  0  0
  5  3  1  1  0  0  0
  5  8  1  0  0  0  0
  5  7  1  0  0  0  0
  7 13  1  0  0  0  0
  8  6  1  6  0  0  0
  8  1  1  0  0  0  0
  9 10  2  0  0  0  0
 10  2  1  0  0  0  0
 10 15  1  0  0  0  0
 11 12  2  0  0  0  0
 12  4  1  0  0  0  0
 12 22  1  0  0  0  0
 13  4  2  0  0  0  0
 14 21  1  0  0  0  0
 16  2  2  0  0  0  0
 17  7  2  0  0  0  0
 17 11  1  0  0  0  0
 18 13  1  6  0  0  0
 18 15  1  0  0  0  0
 19 21  2  0  0  0  0
 19  9  1  0  0  0  0
 20 29  1  1  0  0  0
 20  3  1  0  0  0  0
 20  6  1  0  0  0  0
 21 16  1  0  0  0  0
 22 28  1  0  0  0  0
 23 26  1  0  0  0  0
 24 26  1  0  0  0  0
 25 23  1  0  0  0  0
 27 22  1  0  0  0  0
 27 25  2  0  0  0  0
 28 24  1  0  0  0  0
 30 33  1  0  0  0  0
 30 29  1  0  0  0  0
 33 32  1  0  0  0  0
 33 31  2  0  0  0  0
M  END
>  <MODEL>
6

>  <REMARK>
 VINA RESULT:      -8.6      3.330      7.639
  Name = 
  4 active torsions:
  status: ('A' for Active; 'I' for Inactive)
    1  A    between atoms: N_6  and  C_18
    2  A    between atoms: C_11  and  C_21
    3  A    between atoms: C_11  and  C_31
    4  A    between atoms: C_21  and  C_25
                            x       y       z     vdW  Elec       q    Type
                         _______ _______ _______ _____ _____    ______ ____

>  <TORSDO>
F 4

$$$$
=
 OpenBabel10222419473D

 33 38  0  0  1  0  0  0  0  0999 V2000
  183.5420  178.8410  141.2280 N   0  0  0  0  0  0  0  0  0  0  0  0
  180.1990  179.2760  142.5580 N   0  0  0  0  0  0  0  0  0  0  0  0
  186.5800  178.4520  139.4540 O   0  0  0  0  0  0  0  0  0  0  0  0
  185.6740  178.2280  144.1970 C   0  0  0  0  0  3  0  0  0  0  0  0
  185.8540  178.7640  140.5820 C   0  0  2  0  0  3  0  0  0  0  0  0
  184.3160  178.6950  138.8450 C   0  0  0  0  0  2  0  0  0  0  0  0
  186.2320  178.4980  141.8420 C   0  0  0  0  0  0  0  0  0  0  0  0
  184.5150  179.2880  140.2330 C   0  0  1  0  0  3  0  0  0  0  0  0
  182.1480  179.1030  141.1950 C   0  0  0  0  0  0  0  0  0  0  0  0
  181.5260  179.0170  142.4260 C   0  0  0  0  0  0  0  0  0  0  0  0
  187.9480  177.8990  143.4450 C   0  0  0  0  0  3  0  0  0  0  0  0
  187.0170  177.9470  144.4970 C   0  0  0  0  0  0  0  0  0  0  0  0
  185.2640  178.4890  142.8840 C   0  0  0  0  0  0  0  0  0  0  0  0
  179.2660  180.0730  139.0700 N   0  0  0  0  0  1  0  0  0  0  0  0
  182.6100  178.6060  143.7930 S   0  0  0  0  0  0  0  0  0  0  0  0
  179.4510  179.6170  141.4700 C   0  0  0  0  0  3  0  0  0  0  0  0
  187.5600  178.1660  142.1310 C   0  0  0  0  0  3  0  0  0  0  0  0
  183.9560  178.6390  142.5860 C   0  0  2  0  0  3  0  0  0  0  0  0
  181.4180  179.4590  140.0600 C   0  0  0  0  0  3  0  0  0  0  0  0
  185.7450  178.5100  138.3040 C   0  0  2  0  0  3  0  0  0  0  0  0
  180.0480  179.7120  140.2030 C   0  0  0  0  0  0  0  0  0  0  0  0
  187.4260  177.6770  145.8540 N   0  0  0  0  0  0  0  0  0  0  0  0
  188.4410  177.8360  148.6990 C   0  0  0  0  0  2  0  0  0  0  0  0
  189.7860  177.5000  146.5760 C   0  0  0  0  0  2  0  0  0  0  0  0
  187.1010  178.3040  148.2170 C   0  0  0  0  0  3  0  0  0  0  0  0
  189.5480  178.3800  147.8060 C   0  0  0  0  0  2  0  0  0  0  0  0
  186.6700  178.2310  146.9500 C   0  0  0  0  0  3  0  0  0  0  0  0
  188.5370  176.7550  146.1010 C   0  0  0  0  0  2  0  0  0  0  0  0
  185.8320  177.2120  137.5240 C   0  0  0  0  0  2  0  0  0  0  0  0
  187.2820  176.7850  137.3820 C   0  0  0  0  0  2  0  0  0  0  0  0
  187.6860  177.5970  135.1810 O   0  0  0  0  0  0  0  0  0  0  0  0
  188.9870  178.5640  136.8460 N   0  0  0  0  0  1  0  0  0  0  0  0
  187.9740  177.6660  136.4030 C   0  0  0  0  0  0  0  0  0  0  0  0
  1 18  1  0  0  0  0
  4 12  1  0  0  0  0
  5  3  1  6  0  0  0
  5  7  1  0  0  0  0
  7 17  2  0  0  0  0
  7 13  1  0  0  0  0
  8  6  1  6  0  0  0
  8  5  1  0  0  0  0
  8  1  1  0  0  0  0
  9  1  1  0  0  0  0
  9 10  2  0  0  0  0
 10  2  1  0  0  0  0
 10 15  1  0  0  0  0
 11 12  2  0  0  0  0
 12 22  1  0  0  0  0
 13  4  2  0  0  0  0
 14 21  1  0  0  0  0
 16  2  2  0  0  0  0
 17 11  1  0  0  0  0
 18 13  1  6  0  0  0
 18 15  1  0  0  0  0
 19 21  2  0  0  0  0
 19  9  1  0  0  0  0
 20 29  1  1  0  0  0
 20  6  1  0  0  0  0
 20  3  1  0  0  0  0
 21 16  1  0  0  0  0
 22 28  1  0  0  0  0
 22 27  1  0  0  0  0
 24 26  1  0  0  0  0
 25 23  1  0  0  0  0
 26 23  1  0  0  0  0
 27 25  2  0  0  0  0
 28 24  1  0  0  0  0
 30 29  1  0  0  0  0
 31 33  2  0  0  0  0
 33 32  1  0  0  0  0
 33 30  1  0  0  0  0
M  END
>  <MODEL>
7

>  <REMARK>
 VINA RESULT:      -8.6      3.577      8.955
  Name = 
  4 active torsions:
  status: ('A' for Active; 'I' for Inactive)
    1  A    between atoms: N_6  and  C_18
    2  A    between atoms: C_11  and  C_21
    3  A    between atoms: C_11  and  C_31
    4  A    between atoms: C_21  and  C_25
                            x       y       z     vdW  Elec       q    Type
                         _______ _______ _______ _____ _____    ______ ____

>  <TORSDO>
F 4

$$$$
=
 OpenBabel10222419473D

 33 38  0  0  1  0  0  0  0  0999 V2000
  187.4500  177.7560  143.2120 N   0  0  0  0  0  0  0  0  0  0  0  0
  184.1790  179.2980  142.9800 N   0  0  0  0  0  0  0  0  0  0  0  0
  190.5750  176.2710  143.9630 O   0  0  0  0  0  0  0  0  0  0  0  0
  188.6680  177.5770  139.7170 C   0  0  0  0  0  3  0  0  0  0  0  0
  189.5180  176.5360  143.1200 C   0  0  2  0  0  3  0  0  0  0  0  0
  188.8000  177.1520  145.2400 C   0  0  0  0  0  2  0  0  0  0  0  0
  189.6160  176.7380  141.7960 C   0  0  0  0  0  0  0  0  0  0  0  0
  188.2630  176.7390  143.8780 C   0  0  1  0  0  3  0  0  0  0  0  0
  186.2040  178.2500  143.6780 C   0  0  0  0  0  0  0  0  0  0  0  0
  185.4150  178.8120  142.6920 C   0  0  0  0  0  0  0  0  0  0  0  0
  190.8690  176.5760  139.7280 C   0  0  0  0  0  3  0  0  0  0  0  0
  189.8100  177.1600  139.0130 C   0  0  0  0  0  0  0  0  0  0  0  0
  188.5610  177.3890  141.1000 C   0  0  0  0  0  0  0  0  0  0  0  0
  183.9650  178.6300  146.6100 N   0  0  0  0  0  1  0  0  0  0  0  0
  186.1260  178.7870  141.0480 S   0  0  0  0  0  0  0  0  0  0  0  0
  183.6970  179.2480  144.2540 C   0  0  0  0  0  3  0  0  0  0  0  0
  190.7760  176.3720  141.1070 C   0  0  0  0  0  3  0  0  0  0  0  0
  187.5160  177.8980  141.7880 C   0  0  2  0  0  3  0  0  0  0  0  0
  185.7420  178.1720  144.9920 C   0  0  0  0  0  3  0  0  0  0  0  0
  190.1910  176.4970  145.3130 C   0  0  2  0  0  3  0  0  0  0  0  0
  184.4720  178.6860  145.2820 C   0  0  0  0  0  0  0  0  0  0  0  0
  189.9080  177.3630  137.5880 N   0  0  0  0  0  0  0  0  0  0  0  0
  189.4750  177.4100  134.5940 C   0  0  0  0  0  2  0  0  0  0  0  0
  190.5820  175.6020  135.9860 C   0  0  0  0  0  2  0  0  0  0  0  0
  188.7620  178.2640  135.5980 C   0  0  0  0  0  3  0  0  0  0  0  0
  189.4450  175.9480  135.0210 C   0  0  0  0  0  2  0  0  0  0  0  0
  188.9620  178.2250  136.9230 C   0  0  0  0  0  3  0  0  0  0  0  0
  191.0330  176.7780  136.8530 C   0  0  0  0  0  2  0  0  0  0  0  0
  191.1680  177.4410  145.9870 C   0  0  0  0  0  2  0  0  0  0  0  0
  191.2720  177.1160  147.4670 C   0  0  0  0  0  2  0  0  0  0  0  0
  192.5440  175.1970  146.8630 O   0  0  0  0  0  0  0  0  0  0  0  0
  193.1650  176.2070  148.8610 N   0  0  0  0  0  1  0  0  0  0  0  0
  192.3580  176.1250  147.6910 C   0  0  0  0  0  0  0  0  0  0  0  0
  1  9  1  0  0  0  0
  1  8  1  0  0  0  0
  2 16  1  0  0  0  0
  3 20  1  0  0  0  0
  4 13  1  0  0  0  0
  5  7  1  1  0  0  0
  5  8  1  0  0  0  0
  5  3  1  0  0  0  0
  6 20  1  0  0  0  0
  8  6  1  1  0  0  0
  9 19  2  0  0  0  0
 10  2  2  0  0  0  0
 10  9  1  0  0  0  0
 11 17  2  0  0  0  0
 12  4  2  0  0  0  0
 12 11  1  0  0  0  0
 13 18  1  0  0  0  0
 13  7  2  0  0  0  0
 15 10  1  0  0  0  0
 16 21  2  0  0  0  0
 17  7  1  0  0  0  0
 18 15  1  1  0  0  0
 18  1  1  0  0  0  0
 19 21  1  0  0  0  0
 20 29  1  6  0  0  0
 21 14  1  0  0  0  0
 22 12  1  0  0  0  0
 23 26  1  0  0  0  0
 23 25  1  0  0  0  0
 24 28  1  0  0  0  0
 25 27  2  0  0  0  0
 26 24  1  0  0  0  0
 27 22  1  0  0  0  0
 28 22  1  0  0  0  0
 29 30  1  0  0  0  0
 30 33  1  0  0  0  0
 31 33  2  0  0  0  0
 33 32  1  0  0  0  0
M  END
>  <MODEL>
8

>  <REMARK>
 VINA RESULT:      -8.4      2.701      5.546
  Name = 
  4 active torsions:
  status: ('A' for Active; 'I' for Inactive)
    1  A    between atoms: N_6  and  C_18
    2  A    between atoms: C_11  and  C_21
    3  A    between atoms: C_11  and  C_31
    4  A    between atoms: C_21  and  C_25
                            x       y       z     vdW  Elec       q    Type
                         _______ _______ _______ _____ _____    ______ ____

>  <TORSDO>
F 4

$$$$
=
 OpenBabel10222419473D

 33 38  0  0  1  0  0  0  0  0999 V2000
  189.6130  177.2840  139.4830 N   0  0  0  0  0  0  0  0  0  0  0  0
  190.5480  176.2410  136.1400 N   0  0  0  0  0  0  0  0  0  0  0  0
  189.1850  178.1490  142.8890 O   0  0  0  0  0  0  0  0  0  0  0  0
  186.0460  178.2530  139.2140 C   0  0  0  0  0  3  0  0  0  0  0  0
  188.8600  178.2400  141.5530 C   0  0  2  0  0  3  0  0  0  0  0  0
  190.9160  177.1640  141.6250 C   0  0  0  0  0  2  0  0  0  0  0  0
  187.6160  178.3910  141.0700 C   0  0  0  0  0  0  0  0  0  0  0  0
  190.0370  177.9860  140.6930 C   0  0  1  0  0  3  0  0  0  0  0  0
  190.4730  176.8270  138.4510 C   0  0  0  0  0  0  0  0  0  0  0  0
  189.8470  176.6430  137.2330 C   0  0  0  0  0  0  0  0  0  0  0  0
  185.2830  178.9580  141.3970 C   0  0  0  0  0  3  0  0  0  0  0  0
  185.0080  178.7110  140.0410 C   0  0  0  0  0  0  0  0  0  0  0  0
  187.3430  178.0740  139.7110 C   0  0  0  0  0  0  0  0  0  0  0  0
  193.9560  175.9320  137.5420 N   0  0  0  0  0  1  0  0  0  0  0  0
  188.0970  177.0270  137.2160 S   0  0  0  0  0  0  0  0  0  0  0  0
  191.8880  176.0020  136.2300 C   0  0  0  0  0  3  0  0  0  0  0  0
  186.5720  178.7940  141.9080 C   0  0  0  0  0  3  0  0  0  0  0  0
  188.3070  177.5220  138.9430 C   0  0  2  0  0  3  0  0  0  0  0  0
  191.8450  176.6020  138.5790 C   0  0  0  0  0  3  0  0  0  0  0  0
  190.4950  177.6150  143.0360 C   0  0  2  0  0  3  0  0  0  0  0  0
  192.5580  176.1770  137.4520 C   0  0  0  0  0  0  0  0  0  0  0  0
  183.6750  178.8870  139.5170 N   0  0  0  0  0  0  0  0  0  0  0  0
  180.8300  179.7560  138.9670 C   0  0  0  0  0  2  0  0  0  0  0  0
  181.6380  177.9870  140.5940 C   0  0  0  0  0  2  0  0  0  0  0  0
  182.0670  180.5250  138.6140 C   0  0  0  0  0  3  0  0  0  0  0  0
  180.8790  179.3050  140.4220 C   0  0  0  0  0  2  0  0  0  0  0  0
  183.3210  180.1280  138.8720 C   0  0  0  0  0  3  0  0  0  0  0  0
  182.7330  177.7650  139.5510 C   0  0  0  0  0  2  0  0  0  0  0  0
  190.4740  176.4190  143.9700 C   0  0  0  0  0  2  0  0  0  0  0  0
  191.6780  176.4590  144.8940 C   0  0  0  0  0  2  0  0  0  0  0  0
  192.0560  176.6630  147.2360 O   0  0  0  0  0  0  0  0  0  0  0  0
  189.8840  177.1090  146.5420 N   0  0  0  0  0  1  0  0  0  0  0  0
  191.2380  176.7540  146.2840 C   0  0  0  0  0  0  0  0  0  0  0  0
  1  8  1  0  0  0  0
  2 16  2  0  0  0  0
  2 10  1  0  0  0  0
  3 20  1  0  0  0  0
  4 13  2  0  0  0  0
  4 12  1  0  0  0  0
  5  7  1  6  0  0  0
  5  3  1  0  0  0  0
  6 20  1  0  0  0  0
  7 17  2  0  0  0  0
  8  5  1  0  0  0  0
  8  6  1  1  0  0  0
  9 19  1  0  0  0  0
  9  1  1  0  0  0  0
 10  9  2  0  0  0  0
 11 17  1  0  0  0  0
 12 11  2  0  0  0  0
 13  7  1  0  0  0  0
 15 10  1  0  0  0  0
 16 21  1  0  0  0  0
 18 15  1  1  0  0  0
 18  1  1  0  0  0  0
 18 13  1  0  0  0  0
 20 29  1  1  0  0  0
 21 14  1  0  0  0  0
 21 19  2  0  0  0  0
 22 28  1  0  0  0  0
 22 12  1  0  0  0  0
 23 26  1  0  0  0  0
 25 27  2  0  0  0  0
 25 23  1  0  0  0  0
 26 24  1  0  0  0  0
 27 22  1  0  0  0  0
 28 24  1  0  0  0  0
 29 30  1  0  0  0  0
 30 33  1  0  0  0  0
 33 32  1  0  0  0  0
 33 31  2  0  0  0  0
M  END
>  <MODEL>
9

>  <REMARK>
 VINA RESULT:      -8.3      3.012      8.080
  Name = 
  4 active torsions:
  status: ('A' for Active; 'I' for Inactive)
    1  A    between atoms: N_6  and  C_18
    2  A    between atoms: C_11  and  C_21
    3  A    between atoms: C_11  and  C_31
    4  A    between atoms: C_21  and  C_25
                            x       y       z     vdW  Elec       q    Type
                         _______ _______ _______ _____ _____    ______ ____

>  <TORSDO>
F 4

$$$$
