=
 OpenBabel10222419083D

 50 54  0  0  1  0  0  0  0  0999 V2000
  189.0210  177.3300  140.0530 C   0  0  2  0  0  3  0  0  0  0  0  0
  190.7810  175.9450  137.6510 C   0  0  1  0  0  3  0  0  0  0  0  0
  190.0350  176.6590  142.6920 C   0  0  1  0  0  3  0  0  0  0  0  0
  191.3360  176.4930  140.7120 C   0  0  0  0  0  2  0  0  0  0  0  0
  185.8260  174.2640  135.9190 N   0  0  0  0  0  1  0  0  0  0  0  0
  189.3090  174.9160  135.1940 C   0  0  0  0  0  0  0  0  0  0  0  0
  187.6870  178.5990  138.4830 O   0  0  0  0  0  0  0  0  0  0  0  0
  188.1160  177.4690  138.8530 C   0  0  0  0  0  0  0  0  0  0  0  0
  190.2130  176.3830  144.1690 C   0  0  0  0  0  1  0  0  0  0  0  0
  187.8110  179.3810  141.1650 C   0  0  0  0  0  1  0  0  0  0  0  0
  188.6360  178.1440  141.2800 C   0  0  0  0  0  0  0  0  0  0  0  0
  187.8420  176.2490  138.0670 C   0  0  0  0  0  3  0  0  0  0  0  0
  189.1060  177.8170  142.4940 C   0  0  0  0  0  3  0  0  0  0  0  0
  187.1380  174.7800  136.2850 C   0  0  1  0  0  3  0  0  0  0  0  0
  190.5370  177.4160  139.7810 C   0  0  1  0  0  3  0  0  0  0  0  0
  191.2530  176.0060  136.1990 C   0  0  2  0  0  3  0  0  0  0  0  0
  191.4180  174.9080  138.3420 O   0  0  0  0  0  1  0  0  0  0  0  0
  191.3300  176.9780  142.0890 N   0  0  0  0  0  2  0  0  0  0  0  0
  188.0050  174.8730  135.0660 C   0  0  0  0  0  3  0  0  0  0  0  0
  187.0520  176.1130  136.9990 C   0  0  0  0  0  0  0  0  0  0  0  0
  190.6100  174.9610  135.3380 C   0  0  0  0  0  3  0  0  0  0  0  0
  191.0160  177.3010  138.3250 C   0  0  0  0  0  2  0  0  0  0  0  0
  185.0780  177.5510  136.9590 C   0  0  0  0  0  0  0  0  0  0  0  0
  186.2590  177.2490  136.4890 C   0  0  0  0  0  3  0  0  0  0  0  0
  181.4550  178.3850  138.8970 C   0  0  1  0  0  3  0  0  0  0  0  0
  183.9250  178.6990  138.7130 C   0  0  0  0  0  3  0  0  0  0  0  0
  183.9330  177.8790  137.4940 C   0  0  0  0  0  0  0  0  0  0  0  0
  181.5430  177.4640  137.6870 C   0  0  0  0  0  3  0  0  0  0  0  0
  182.7860  178.9430  139.3660 C   0  0  0  0  0  3  0  0  0  0  0  0
  182.6890  177.2360  137.0370 C   0  0  0  0  0  3  0  0  0  0  0  0
  180.7760  181.8770  137.1940 O   0  0  0  0  0  0  0  0  0  0  0  0
  181.5540  181.6400  138.3360 C   0  0  0  0  0  2  0  0  0  0  0  0
  179.9670  179.5900  137.1740 C   0  0  0  0  0  2  0  0  0  0  0  0
  180.8060  180.6710  136.4690 C   0  0  0  0  0  2  0  0  0  0  0  0
  180.7400  180.7980  139.3180 C   0  0  0  0  0  2  0  0  0  0  0  0
  180.3820  179.4560  138.6570 C   0  0  0  0  0  3  0  0  0  0  0  0
  192.7100  176.0030  136.0980 N   0  0  0  0  0  2  0  0  0  0  0  0
  192.9650  174.1920  134.6420 O   0  0  0  0  0  0  0  0  0  0  0  0
  193.5090  175.0210  135.4190 C   0  0  0  0  0  0  0  0  0  0  0  0
  195.5570  173.8450  136.0200 C   0  0  0  0  0  3  0  0  0  0  0  0
  195.7960  176.1730  135.3200 C   0  0  0  0  0  0  0  0  0  0  0  0
  194.9680  175.0370  135.5780 C   0  0  0  0  0  0  0  0  0  0  0  0
  197.7410  174.8720  136.0090 C   0  0  0  0  0  3  0  0  0  0  0  0
  197.1730  176.0640  135.5490 C   0  0  0  0  0  3  0  0  0  0  0  0
  196.9340  173.7550  136.2370 C   0  0  0  0  0  0  0  0  0  0  0  0
  196.5200  171.7230  137.5960 C   0  0  0  0  0  1  0  0  0  0  0  0
  197.5130  172.4620  136.7200 C   0  0  2  0  0  3  0  0  0  0  0  0
  198.6910  172.6950  137.4310 O   0  0  0  0  0  1  0  0  0  0  0  0
  195.3510  177.4160  134.8320 O   0  0  0  0  0  0  0  0  0  0  0  0
  196.0920  178.6280  134.8180 C   0  0  0  0  0  1  0  0  0  0  0  0
  1  8  1  6  0  0  0
  1 11  1  0  0  0  0
  2 22  1  0  0  0  0
  2 17  1  1  0  0  0
  3  9  1  1  0  0  0
  4 18  1  0  0  0  0
  6 21  2  0  0  0  0
  7  8  2  0  0  0  0
 10 11  1  0  0  0  0
 11 13  2  0  0  0  0
 12  8  1  0  0  0  0
 13  3  1  0  0  0  0
 14  5  1  6  0  0  0
 14 20  1  0  0  0  0
 15 22  1  6  0  0  0
 15  1  1  0  0  0  0
 15  4  1  0  0  0  0
 16 37  1  1  0  0  0
 16  2  1  0  0  0  0
 18  3  1  0  0  0  0
 19  6  2  0  0  0  0
 19 14  1  0  0  0  0
 20 12  2  0  0  0  0
 21 16  1  0  0  0  0
 23 27  2  0  0  0  0
 24 23  2  0  0  0  0
 24 20  1  0  0  0  0
 25 36  1  6  0  0  0
 25 29  1  0  0  0  0
 26 29  2  0  0  0  0
 27 26  1  0  0  0  0
 28 25  1  0  0  0  0
 30 27  1  0  0  0  0
 30 28  2  0  0  0  0
 31 32  1  0  0  0  0
 32 35  1  0  0  0  0
 33 36  1  0  0  0  0
 34 33  1  0  0  0  0
 34 31  1  0  0  0  0
 36 35  1  0  0  0  0
 38 39  2  0  0  0  0
 39 42  1  0  0  0  0
 39 37  1  0  0  0  0
 40 45  1  0  0  0  0
 41 44  2  0  0  0  0
 41 42  1  0  0  0  0
 42 40  2  0  0  0  0
 43 45  2  0  0  0  0
 44 43  1  0  0  0  0
 45 47  1  0  0  0  0
 47 48  1  0  0  0  0
 47 46  1  1  0  0  0
 49 41  1  0  0  0  0
 50 49  1  0  0  0  0
M  END
>  <MODEL>
1

>  <REMARK>
 VINA RESULT:      -7.5      0.000      0.000
  Name = 
  6 active torsions:
  status: ('A' for Active; 'I' for Inactive)
    1  A    between atoms: C_5  and  C_46
    2  A    between atoms: C_10  and  C_45
    3  A    between atoms: O_12  and  C_27
    4  A    between atoms: N_13  and  C_33
    5  A    between atoms: C_28  and  C_44
    6  A    between atoms: C_36  and  C_43
                            x       y       z     vdW  Elec       q    Type
                         _______ _______ _______ _____ _____    ______ ____

>  <TORSDO>
F 6

$$$$
=
 OpenBabel10222419083D

 50 54  0  0  1  0  0  0  0  0999 V2000
  187.0100  175.2160  136.6010 C   0  0  2  0  0  3  0  0  0  0  0  0
  185.2300  177.2900  138.4220 C   0  0  1  0  0  3  0  0  0  0  0  0
  185.5310  172.8150  135.9000 C   0  0  1  0  0  3  0  0  0  0  0  0
  184.4890  174.8420  136.5690 C   0  0  0  0  0  2  0  0  0  0  0  0
  189.6550  177.1330  141.7020 N   0  0  0  0  0  1  0  0  0  0  0  0
  186.6280  178.8120  140.6560 C   0  0  0  0  0  0  0  0  0  0  0  0
  188.8350  176.7910  136.4070 O   0  0  0  0  0  0  0  0  0  0  0  0
  188.0560  176.1470  137.1640 C   0  0  0  0  0  0  0  0  0  0  0  0
  185.1020  171.4190  135.5050 C   0  0  0  0  0  1  0  0  0  0  0  0
  188.6180  174.6730  134.5950 C   0  0  0  0  0  1  0  0  0  0  0  0
  187.4620  174.3110  135.4640 C   0  0  0  0  0  0  0  0  0  0  0  0
  188.0570  176.3580  138.6270 C   0  0  0  0  0  3  0  0  0  0  0  0
  186.7730  173.2010  135.1570 C   0  0  0  0  0  3  0  0  0  0  0  0
  188.5150  177.2840  140.8080 C   0  0  1  0  0  3  0  0  0  0  0  0
  185.6290  175.8360  136.3030 C   0  0  1  0  0  3  0  0  0  0  0  0
  184.9760  178.7340  138.8540 C   0  0  2  0  0  3  0  0  0  0  0  0
  184.2400  176.4360  138.9200 O   0  0  0  0  0  1  0  0  0  0  0  0
  184.4680  173.7690  135.5790 N   0  0  0  0  0  2  0  0  0  0  0  0
  187.8680  178.6170  141.0320 C   0  0  0  0  0  3  0  0  0  0  0  0
  188.8970  177.0970  139.3540 C   0  0  0  0  0  0  0  0  0  0  0  0
  185.3880  178.9920  140.2720 C   0  0  0  0  0  3  0  0  0  0  0  0
  185.3180  177.2210  136.8930 C   0  0  0  0  0  2  0  0  0  0  0  0
  191.1130  177.1560  138.3290 C   0  0  0  0  0  0  0  0  0  0  0  0
  190.0420  177.7890  138.7280 C   0  0  0  0  0  3  0  0  0  0  0  0
  194.2610  174.7690  136.9250 C   0  0  1  0  0  3  0  0  0  0  0  0
  192.0600  175.8820  136.5390 C   0  0  0  0  0  3  0  0  0  0  0  0
  192.1430  176.4960  137.8710 C   0  0  0  0  0  0  0  0  0  0  0  0
  194.2410  175.3540  138.3310 C   0  0  0  0  0  3  0  0  0  0  0  0
  193.0350  175.0880  136.0900 C   0  0  0  0  0  3  0  0  0  0  0  0
  193.2640  176.1550  138.7640 C   0  0  0  0  0  3  0  0  0  0  0  0
  197.4970  173.2130  135.2940 O   0  0  0  0  0  0  0  0  0  0  0  0
  197.1720  173.2300  136.6570 C   0  0  0  0  0  2  0  0  0  0  0  0
  195.6450  174.6830  134.7540 C   0  0  0  0  0  2  0  0  0  0  0  0
  196.2640  173.2800  134.6190 C   0  0  0  0  0  2  0  0  0  0  0  0
  196.8060  174.6590  137.0570 C   0  0  0  0  0  2  0  0  0  0  0  0
  195.5880  175.1160  136.2370 C   0  0  0  0  0  3  0  0  0  0  0  0
  183.6060  179.1530  138.5790 N   0  0  0  0  0  2  0  0  0  0  0  0
  183.8850  181.4630  138.8030 O   0  0  0  0  0  0  0  0  0  0  0  0
  183.0930  180.4920  138.6840 C   0  0  0  0  0  0  0  0  0  0  0  0
  181.2580  181.8980  137.9140 C   0  0  0  0  0  3  0  0  0  0  0  0
  180.6470  179.8520  139.1000 C   0  0  0  0  0  0  0  0  0  0  0  0
  181.6480  180.7260  138.5750 C   0  0  0  0  0  0  0  0  0  0  0  0
  178.9310  181.3970  138.3140 C   0  0  0  0  0  3  0  0  0  0  0  0
  179.3010  180.2150  138.9600 C   0  0  0  0  0  3  0  0  0  0  0  0
  179.9090  182.2400  137.7800 C   0  0  0  0  0  0  0  0  0  0  0  0
  180.2010  183.5700  135.7090 C   0  0  0  0  0  1  0  0  0  0  0  0
  179.5440  183.5080  137.0750 C   0  0  2  0  0  3  0  0  0  0  0  0
  179.9260  184.6120  137.8360 O   0  0  0  0  0  1  0  0  0  0  0  0
  180.8890  178.6250  139.7450 O   0  0  0  0  0  0  0  0  0  0  0  0
  181.2800  178.4500  141.1000 C   0  0  0  0  0  1  0  0  0  0  0  0
  1 11  1  6  0  0  0
  1  8  1  0  0  0  0
  2 16  1  0  0  0  0
  2 17  1  6  0  0  0
  3  9  1  6  0  0  0
  6 19  2  0  0  0  0
  7  8  2  0  0  0  0
  8 12  1  0  0  0  0
 10 11  1  0  0  0  0
 12 20  2  0  0  0  0
 13 11  2  0  0  0  0
 13  3  1  0  0  0  0
 14 19  1  0  0  0  0
 14  5  1  1  0  0  0
 15  4  1  1  0  0  0
 15  1  1  0  0  0  0
 15 22  1  0  0  0  0
 16 37  1  1  0  0  0
 16 21  1  0  0  0  0
 18  3  1  0  0  0  0
 18  4  1  0  0  0  0
 20 14  1  0  0  0  0
 21  6  2  0  0  0  0
 22  2  1  0  0  0  0
 23 24  2  0  0  0  0
 24 20  1  0  0  0  0
 25 36  1  6  0  0  0
 25 28  1  0  0  0  0
 26 27  1  0  0  0  0
 27 23  2  0  0  0  0
 27 30  1  0  0  0  0
 28 30  2  0  0  0  0
 29 26  2  0  0  0  0
 29 25  1  0  0  0  0
 31 32  1  0  0  0  0
 32 35  1  0  0  0  0
 33 36  1  0  0  0  0
 34 33  1  0  0  0  0
 34 31  1  0  0  0  0
 36 35  1  0  0  0  0
 37 39  1  0  0  0  0
 39 38  2  0  0  0  0
 40 42  1  0  0  0  0
 41 49  1  0  0  0  0
 42 39  1  0  0  0  0
 42 41  2  0  0  0  0
 43 44  2  0  0  0  0
 44 41  1  0  0  0  0
 45 40  2  0  0  0  0
 45 43  1  0  0  0  0
 47 46  1  6  0  0  0
 47 45  1  0  0  0  0
 47 48  1  0  0  0  0
 49 50  1  0  0  0  0
M  END
>  <MODEL>
2

>  <REMARK>
 VINA RESULT:      -6.3      2.198     12.487
  Name = 
  6 active torsions:
  status: ('A' for Active; 'I' for Inactive)
    1  A    between atoms: C_5  and  C_46
    2  A    between atoms: C_10  and  C_45
    3  A    between atoms: O_12  and  C_27
    4  A    between atoms: N_13  and  C_33
    5  A    between atoms: C_28  and  C_44
    6  A    between atoms: C_36  and  C_43
                            x       y       z     vdW  Elec       q    Type
                         _______ _______ _______ _____ _____    ______ ____

>  <TORSDO>
F 6

$$$$
=
 OpenBabel10222419083D

 50 54  0  0  1  0  0  0  0  0999 V2000
  184.9990  177.6780  139.0520 C   0  0  2  0  0  3  0  0  0  0  0  0
  185.1230  178.7010  142.1710 C   0  0  1  0  0  3  0  0  0  0  0  0
  187.1130  178.8340  137.4270 C   0  0  1  0  0  3  0  0  0  0  0  0
  187.2070  178.7110  139.7970 C   0  0  0  0  0  2  0  0  0  0  0  0
  179.8070  179.8530  141.2880 N   0  0  0  0  0  1  0  0  0  0  0  0
  182.4990  179.2300  143.6200 C   0  0  0  0  0  0  0  0  0  0  0  0
  183.2260  176.1040  139.5310 O   0  0  0  0  0  0  0  0  0  0  0  0
  183.6380  177.2970  139.5820 C   0  0  0  0  0  0  0  0  0  0  0  0
  187.9740  179.3670  136.3040 C   0  0  0  0  0  1  0  0  0  0  0  0
  184.7790  175.8010  137.2260 C   0  0  0  0  0  1  0  0  0  0  0  0
  185.3890  177.0720  137.7110 C   0  0  0  0  0  0  0  0  0  0  0  0
  182.8570  178.3520  140.2610 C   0  0  0  0  0  3  0  0  0  0  0  0
  186.3620  177.6220  136.9690 C   0  0  0  0  0  3  0  0  0  0  0  0
  181.1760  179.4620  141.5920 C   0  0  1  0  0  3  0  0  0  0  0  0
  186.1690  177.6090  140.0550 C   0  0  1  0  0  3  0  0  0  0  0  0
  184.8030  178.4100  143.6360 C   0  0  2  0  0  3  0  0  0  0  0  0
  185.8880  179.8670  142.0460 O   0  0  0  0  0  1  0  0  0  0  0  0
  187.9560  178.4700  138.5670 N   0  0  0  0  0  2  0  0  0  0  0  0
  181.3150  179.1970  143.0600 C   0  0  0  0  0  3  0  0  0  0  0  0
  181.6280  178.2700  140.7740 C   0  0  0  0  0  0  0  0  0  0  0  0
  183.6900  179.2640  144.1650 C   0  0  0  0  0  3  0  0  0  0  0  0
  185.8310  177.4920  141.5500 C   0  0  0  0  0  2  0  0  0  0  0  0
  180.6610  176.4140  139.5140 C   0  0  0  0  0  0  0  0  0  0  0  0
  180.8330  177.0310  140.6520 C   0  0  0  0  0  3  0  0  0  0  0  0
  180.5560  174.5620  135.7530 C   0  0  1  0  0  3  0  0  0  0  0  0
  181.6450  174.8640  137.9790 C   0  0  0  0  0  3  0  0  0  0  0  0
  180.5630  175.7730  138.3800 C   0  0  0  0  0  0  0  0  0  0  0  0
  179.5180  175.5880  136.1900 C   0  0  0  0  0  3  0  0  0  0  0  0
  181.6490  174.2950  136.7710 C   0  0  0  0  0  3  0  0  0  0  0  0
  179.5200  176.1420  137.4060 C   0  0  0  0  0  3  0  0  0  0  0  0
  180.3210  170.6550  136.2340 O   0  0  0  0  0  0  0  0  0  0  0  0
  181.3870  171.3650  135.6650 C   0  0  0  0  0  2  0  0  0  0  0  0
  178.9310  172.6420  136.3040 C   0  0  0  0  0  2  0  0  0  0  0  0
  179.6900  171.5660  137.1010 C   0  0  0  0  0  2  0  0  0  0  0  0
  180.8330  172.3060  134.5950 C   0  0  0  0  0  2  0  0  0  0  0  0
  179.8530  173.2940  135.2490 C   0  0  0  0  0  3  0  0  0  0  0  0
  185.9970  178.4560  144.4750 N   0  0  0  0  0  2  0  0  0  0  0  0
  186.8380  176.3220  144.0200 O   0  0  0  0  0  0  0  0  0  0  0  0
  186.8990  177.3640  144.7230 C   0  0  0  0  0  0  0  0  0  0  0  0
  189.2430  177.1690  145.3620 C   0  0  0  0  0  3  0  0  0  0  0  0
  187.6980  177.9380  147.0890 C   0  0  0  0  0  0  0  0  0  0  0  0
  187.9390  177.5020  145.7510 C   0  0  0  0  0  0  0  0  0  0  0  0
  190.0680  177.6340  147.5810 C   0  0  0  0  0  3  0  0  0  0  0  0
  188.7770  177.9890  147.9820 C   0  0  0  0  0  3  0  0  0  0  0  0
  190.3070  177.2310  146.2650 C   0  0  0  0  0  0  0  0  0  0  0  0
  191.6070  175.9270  144.6050 C   0  0  0  0  0  1  0  0  0  0  0  0
  191.6800  176.8540  145.8030 C   0  0  2  0  0  3  0  0  0  0  0  0
  192.3860  176.2400  146.8370 O   0  0  0  0  0  1  0  0  0  0  0  0
  186.4540  178.3460  147.6060 O   0  0  0  0  0  0  0  0  0  0  0  0
  185.9760  179.6820  147.6910 C   0  0  0  0  0  1  0  0  0  0  0  0
  1 11  1  6  0  0  0
  1  8  1  0  0  0  0
  1 15  1  0  0  0  0
  2 17  1  1  0  0  0
  2 16  1  0  0  0  0
  3  9  1  6  0  0  0
  3 18  1  0  0  0  0
  6 21  2  0  0  0  0
  7  8  2  0  0  0  0
  8 12  1  0  0  0  0
 10 11  1  0  0  0  0
 12 20  2  0  0  0  0
 13  3  1  0  0  0  0
 13 11  2  0  0  0  0
 14  5  1  1  0  0  0
 14 19  1  0  0  0  0
 15  4  1  1  0  0  0
 15 22  1  0  0  0  0
 16 21  1  0  0  0  0
 16 37  1  1  0  0  0
 18  4  1  0  0  0  0
 19  6  2  0  0  0  0
 20 14  1  0  0  0  0
 22  2  1  0  0  0  0
 23 24  2  0  0  0  0
 24 20  1  0  0  0  0
 25 36  1  1  0  0  0
 25 28  1  0  0  0  0
 25 29  1  0  0  0  0
 26 27  1  0  0  0  0
 27 23  2  0  0  0  0
 28 30  2  0  0  0  0
 29 26  2  0  0  0  0
 30 27  1  0  0  0  0
 31 34  1  0  0  0  0
 32 31  1  0  0  0  0
 33 34  1  0  0  0  0
 35 36  1  0  0  0  0
 35 32  1  0  0  0  0
 36 33  1  0  0  0  0
 37 39  1  0  0  0  0
 38 39  2  0  0  0  0
 39 42  1  0  0  0  0
 40 42  2  0  0  0  0
 40 45  1  0  0  0  0
 41 49  1  0  0  0  0
 41 44  2  0  0  0  0
 42 41  1  0  0  0  0
 43 44  1  0  0  0  0
 45 43  2  0  0  0  0
 47 46  1  6  0  0  0
 47 45  1  0  0  0  0
 47 48  1  0  0  0  0
 49 50  1  0  0  0  0
M  END
>  <MODEL>
3

>  <REMARK>
 VINA RESULT:      -5.1      5.939      9.332
  Name = 
  6 active torsions:
  status: ('A' for Active; 'I' for Inactive)
    1  A    between atoms: C_5  and  C_46
    2  A    between atoms: C_10  and  C_45
    3  A    between atoms: O_12  and  C_27
    4  A    between atoms: N_13  and  C_33
    5  A    between atoms: C_28  and  C_44
    6  A    between atoms: C_36  and  C_43
                            x       y       z     vdW  Elec       q    Type
                         _______ _______ _______ _____ _____    ______ ____

>  <TORSDO>
F 6

$$$$
=
 OpenBabel10222419083D

 50 54  0  0  1  0  0  0  0  0999 V2000
  189.3530  177.3370  140.2300 C   0  0  2  0  0  3  0  0  0  0  0  0
  191.1150  175.6660  138.0190 C   0  0  1  0  0  3  0  0  0  0  0  0
  190.1460  176.7300  142.9590 C   0  0  1  0  0  3  0  0  0  0  0  0
  191.5390  176.3360  141.0770 C   0  0  0  0  0  2  0  0  0  0  0  0
  186.1370  174.3360  136.0660 N   0  0  0  0  0  1  0  0  0  0  0  0
  189.7010  174.6340  135.5300 C   0  0  0  0  0  0  0  0  0  0  0  0
  188.2360  178.6270  138.5160 O   0  0  0  0  0  0  0  0  0  0  0  0
  188.5360  177.4870  138.9700 C   0  0  0  0  0  0  0  0  0  0  0  0
  190.2100  176.5240  144.4560 C   0  0  0  0  0  1  0  0  0  0  0  0
  188.2740  179.5470  141.1570 C   0  0  0  0  0  1  0  0  0  0  0  0
  188.9740  178.2510  141.3870 C   0  0  0  0  0  0  0  0  0  0  0  0
  188.1970  176.2530  138.2320 C   0  0  0  0  0  3  0  0  0  0  0  0
  189.3400  177.9530  142.6430 C   0  0  0  0  0  3  0  0  0  0  0  0
  187.4670  174.7540  136.4870 C   0  0  1  0  0  3  0  0  0  0  0  0
  190.8840  177.2730  140.0510 C   0  0  1  0  0  3  0  0  0  0  0  0
  191.6750  175.6030  136.5990 C   0  0  2  0  0  3  0  0  0  0  0  0
  191.6130  174.6180  138.8020 O   0  0  0  0  0  1  0  0  0  0  0  0
  191.4970  176.8980  142.4230 N   0  0  0  0  0  2  0  0  0  0  0  0
  188.4090  174.6990  135.3220 C   0  0  0  0  0  3  0  0  0  0  0  0
  187.4630  176.1270  137.1250 C   0  0  0  0  0  0  0  0  0  0  0  0
  190.9900  174.5720  135.7540 C   0  0  0  0  0  3  0  0  0  0  0  0
  191.4340  177.0320  138.6360 C   0  0  0  0  0  2  0  0  0  0  0  0
  185.5550  177.5980  136.7210 C   0  0  0  0  0  0  0  0  0  0  0  0
  186.8090  177.2980  136.5070 C   0  0  0  0  0  3  0  0  0  0  0  0
  181.6000  178.4060  137.8540 C   0  0  1  0  0  3  0  0  0  0  0  0
  184.0520  178.6860  138.2320 C   0  0  0  0  0  3  0  0  0  0  0  0
  184.3220  177.9220  137.0070 C   0  0  0  0  0  0  0  0  0  0  0  0
  181.9460  177.5380  136.6510 C   0  0  0  0  0  3  0  0  0  0  0  0
  182.7990  178.9200  138.6290 C   0  0  0  0  0  3  0  0  0  0  0  0
  183.2050  177.3210  136.2580 C   0  0  0  0  0  3  0  0  0  0  0  0
  179.1120  181.1370  139.2350 O   0  0  0  0  0  0  0  0  0  0  0  0
  178.9320  179.7470  139.2690 C   0  0  0  0  0  2  0  0  0  0  0  0
  181.0750  180.9270  137.8250 C   0  0  0  0  0  2  0  0  0  0  0  0
  180.5050  181.3280  139.1980 C   0  0  0  0  0  2  0  0  0  0  0  0
  179.1710  179.1870  137.8670 C   0  0  0  0  0  2  0  0  0  0  0  0
  180.6130  179.5040  137.4360 C   0  0  0  0  0  3  0  0  0  0  0  0
  193.1290  175.4650  136.5910 N   0  0  0  0  0  2  0  0  0  0  0  0
  193.2690  173.1310  136.6190 O   0  0  0  0  0  0  0  0  0  0  0  0
  193.8630  174.2360  136.7220 C   0  0  0  0  0  0  0  0  0  0  0  0
  195.7810  174.8770  138.0820 C   0  0  0  0  0  3  0  0  0  0  0  0
  196.2640  173.7600  135.9650 C   0  0  0  0  0  0  0  0  0  0  0  0
  195.3190  174.2770  136.9030 C   0  0  0  0  0  0  0  0  0  0  0  0
  198.0720  174.5170  137.4160 C   0  0  0  0  0  3  0  0  0  0  0  0
  197.6300  173.8990  136.2440 C   0  0  0  0  0  3  0  0  0  0  0  0
  197.1480  175.0000  138.3450 C   0  0  0  0  0  0  0  0  0  0  0  0
  198.8520  175.0050  140.1460 C   0  0  0  0  0  1  0  0  0  0  0  0
  197.5900  175.6580  139.6140 C   0  0  2  0  0  3  0  0  0  0  0  0
  196.5800  175.5890  140.5730 O   0  0  0  0  0  1  0  0  0  0  0  0
  195.9460  173.0960  134.7650 O   0  0  0  0  0  0  0  0  0  0  0  0
  195.8020  171.6930  134.5940 C   0  0  0  0  0  1  0  0  0  0  0  0
  1  8  1  6  0  0  0
  1 11  1  0  0  0  0
  2 22  1  0  0  0  0
  2 17  1  1  0  0  0
  3  9  1  1  0  0  0
  4 18  1  0  0  0  0
  6 21  2  0  0  0  0
  7  8  2  0  0  0  0
 10 11  1  0  0  0  0
 11 13  2  0  0  0  0
 12  8  1  0  0  0  0
 13  3  1  0  0  0  0
 14  5  1  6  0  0  0
 14 20  1  0  0  0  0
 15 22  1  6  0  0  0
 15  1  1  0  0  0  0
 15  4  1  0  0  0  0
 16 37  1  1  0  0  0
 16  2  1  0  0  0  0
 18  3  1  0  0  0  0
 19  6  2  0  0  0  0
 19 14  1  0  0  0  0
 20 12  2  0  0  0  0
 21 16  1  0  0  0  0
 23 27  2  0  0  0  0
 24 23  2  0  0  0  0
 24 20  1  0  0  0  0
 25 36  1  6  0  0  0
 25 29  1  0  0  0  0
 26 29  2  0  0  0  0
 27 26  1  0  0  0  0
 28 25  1  0  0  0  0
 30 28  2  0  0  0  0
 30 27  1  0  0  0  0
 31 32  1  0  0  0  0
 33 34  1  0  0  0  0
 34 31  1  0  0  0  0
 35 32  1  0  0  0  0
 36 33  1  0  0  0  0
 36 35  1  0  0  0  0
 37 39  1  0  0  0  0
 38 39  2  0  0  0  0
 39 42  1  0  0  0  0
 40 45  1  0  0  0  0
 41 44  2  0  0  0  0
 41 42  1  0  0  0  0
 42 40  2  0  0  0  0
 43 45  2  0  0  0  0
 44 43  1  0  0  0  0
 45 47  1  0  0  0  0
 47 46  1  1  0  0  0
 47 48  1  0  0  0  0
 49 41  1  0  0  0  0
 50 49  1  0  0  0  0
M  END
>  <MODEL>
4

>  <REMARK>
 VINA RESULT:      -4.9      1.535      2.081
  Name = 
  6 active torsions:
  status: ('A' for Active; 'I' for Inactive)
    1  A    between atoms: C_5  and  C_46
    2  A    between atoms: C_10  and  C_45
    3  A    between atoms: O_12  and  C_27
    4  A    between atoms: N_13  and  C_33
    5  A    between atoms: C_28  and  C_44
    6  A    between atoms: C_36  and  C_43
                            x       y       z     vdW  Elec       q    Type
                         _______ _______ _______ _____ _____    ______ ____

>  <TORSDO>
F 6

$$$$
