=
 OpenBabel10222415443D

 44 47  0  0  1  0  0  0  0  0999 V2000
  182.6570  178.9340  142.8910 O   0  0  0  0  0  0  0  0  0  0  0  0
  181.5130  177.1110  138.9830 C   0  0  1  0  0  3  0  0  0  0  0  0
  179.9490  178.0580  142.0300 C   0  0  0  0  0  0  0  0  0  0  0  0
  183.0250  175.4030  138.2730 C   0  0  1  0  0  3  0  0  0  0  0  0
  181.1330  178.3810  141.1960 C   0  0  0  0  0  0  0  0  0  0  0  0
  179.0750  177.3660  141.3550 N   0  0  0  0  0  0  0  0  0  0  0  0
  179.5960  177.2340  140.0360 C   0  0  2  0  0  3  0  0  0  0  0  0
  182.9790  176.8090  138.9260 C   0  0  0  0  0  2  0  0  0  0  0  0
  181.1390  173.9130  137.8050 O   0  0  0  0  0  0  0  0  0  0  0  0
  180.7520  176.1050  138.5660 N   0  0  0  0  0  0  0  0  0  0  0  0
  181.5770  175.0430  138.1490 C   0  0  0  0  0  0  0  0  0  0  0  0
  179.5990  176.0770  139.2680 C   0  0  0  0  0  2  0  0  0  0  0  0
  182.3320  178.6930  141.5760 N   0  0  0  0  0  0  0  0  0  0  0  0
  180.7980  177.8620  139.8870 C   0  0  2  0  0  3  0  0  0  0  0  0
  179.4000  179.6480  143.7090 O   0  0  0  0  0  0  0  0  0  0  0  0
  179.7340  177.5070  144.4300 O   0  0  0  0  0  1  0  0  0  0  0  0
  179.6970  178.4590  143.4220 C   0  0  0  0  0  0  0  0  0  0  0  0
  183.6060  175.4970  136.9940 O   0  0  0  0  0  0  0  0  0  0  0  0
  184.5640  173.6680  137.9640 O   0  0  0  0  0  1  0  0  0  0  0  0
  184.4510  173.7600  135.7090 O   0  0  0  0  0  1  0  0  0  0  0  0
  184.6290  174.5270  136.8670 C   0  0  0  0  0  0  0  0  0  0  0  0
  185.6910  176.9270  136.2780 C   0  0  0  0  0  1  0  0  0  0  0  0
  186.2940  175.2980  136.8270 S   0  0  0  0  0  0  0  0  0  0  0  0
  183.9800  179.2940  143.2480 C   0  0  1  0  0  3  0  0  0  0  0  0
  184.7410  178.3540  145.4350 C   0  0  0  0  0  1  0  0  0  0  0  0
  184.0390  179.5130  144.7520 C   0  0  0  0  0  2  0  0  0  0  0  0
  184.9360  178.1830  142.8360 C   0  0  0  0  0  2  0  0  0  0  0  0
  186.1140  178.7590  142.0750 C   0  0  0  0  0  2  0  0  0  0  0  0
  185.7680  178.8580  140.6030 C   0  0  0  0  0  2  0  0  0  0  0  0
  186.9230  178.4780  139.8100 N   0  0  0  0  0  2  0  0  0  0  0  0
  188.0770  178.5280  140.6930 C   0  0  0  0  0  2  0  0  0  0  0  0
  189.0470  177.4180  140.3360 C   0  0  0  0  0  2  0  0  0  0  0  0
  190.2360  177.4510  141.2810 C   0  0  0  0  0  2  0  0  0  0  0  0
  188.8660  176.3540  143.0620 C   0  0  0  0  0  2  0  0  0  0  0  0
  189.6610  177.7410  145.8740 C   0  0  1  0  0  3  0  0  0  0  0  0
  190.7850  177.0760  145.0560 C   0  0  0  0  0  2  0  0  0  0  0  0
  191.4450  179.0290  143.7240 N   0  0  0  0  0  1  0  0  0  0  0  0
  190.9910  177.6520  143.6460 C   0  0  2  0  0  3  0  0  0  0  0  0
  187.9880  176.5670  144.3070 C   0  0  0  0  0  2  0  0  0  0  0  0
  189.7650  177.5520  142.7220 C   0  0  1  0  0  3  0  0  0  0  0  0
  188.3270  177.8280  145.1110 C   0  0  0  0  0  2  0  0  0  0  0  0
  190.6390  176.3840  147.4230 O   0  0  0  0  0  1  0  0  0  0  0  0
  189.4820  177.0360  147.1480 N   0  0  0  0  0  0  0  0  0  0  0  0
  189.3360  177.9720  148.1210 O   0  0  0  0  0  1  0  0  0  0  0  0
  1 24  1  0  0  0  0
  2  8  1  1  0  0  0
  2 14  1  0  0  0  0
  3 17  1  0  0  0  0
  4 18  1  6  0  0  0
  4  8  1  0  0  0  0
  5 13  2  0  0  0  0
  5  3  1  0  0  0  0
  6  3  2  0  0  0  0
  7 12  1  1  0  0  0
  7  6  1  0  0  0  0
  9 11  2  0  0  0  0
 10  2  1  0  0  0  0
 10 12  1  0  0  0  0
 11  4  1  0  0  0  0
 11 10  1  0  0  0  0
 13  1  1  0  0  0  0
 14  7  1  0  0  0  0
 14  5  1  1  0  0  0
 17 15  2  0  0  0  0
 17 16  1  0  0  0  0
 20 21  1  0  0  0  0
 21 18  1  0  0  0  0
 21 19  1  0  0  0  0
 22 23  1  0  0  0  0
 23 21  1  0  0  0  0
 24 27  1  1  0  0  0
 24 26  1  0  0  0  0
 26 25  1  0  0  0  0
 28 27  1  0  0  0  0
 29 28  1  0  0  0  0
 30 29  1  0  0  0  0
 30 31  1  0  0  0  0
 32 31  1  0  0  0  0
 32 33  1  0  0  0  0
 34 39  1  0  0  0  0
 35 43  1  1  0  0  0
 36 35  1  0  0  0  0
 38 37  1  1  0  0  0
 38 36  1  0  0  0  0
 39 41  1  0  0  0  0
 40 33  1  6  0  0  0
 40 34  1  0  0  0  0
 40 38  1  0  0  0  0
 41 35  1  0  0  0  0
 43 42  1  0  0  0  0
 43 44  1  0  0  0  0
M  END
>  <MODEL>
1

>  <REMARK>
 VINA RESULT:      -7.7      0.000      0.000
  Name = 
  16 active torsions:
  status: ('A' for Active; 'I' for Inactive)
    1  A    between atoms: O_1  and  C_10
    2  A    between atoms: O_1  and  C_33
    3  A    between atoms: O_3  and  C_12
    4  A    between atoms: O_3  and  N_42
    5  A    between atoms: C_5  and  C_17
    6  A    between atoms: C_5  and  C_41
    7  A    between atoms: C_6  and  N_14
    8  A    between atoms: C_6  and  C_25
    9  A    between atoms: C_8  and  C_12
   10  A    between atoms: C_8  and  C_25
   11  A    between atoms: CA_9  and  C_38
   12  A    between atoms: C_12  and  C_26
   13  A    between atoms: N_14  and  C_37
   14  A    between atoms: C_15  and  N_39
   15  A    between atoms: C_17  and  C_37
   16  A    between atoms: S_28  and  C_33
                            x       y       z     vdW  Elec       q    Type
                         _______ _______ _______ _____ _____    ______ ____

>  <TORSDO>
F 16

$$$$
=
 OpenBabel10222415443D

 44 47  0  0  1  0  0  0  0  0999 V2000
  184.7270  178.4310  144.0640 O   0  0  0  0  0  0  0  0  0  0  0  0
  188.7660  176.5530  143.8140 C   0  0  1  0  0  3  0  0  0  0  0  0
  186.7330  178.1660  146.2420 C   0  0  0  0  0  0  0  0  0  0  0  0
  189.9800  177.2090  141.8640 C   0  0  1  0  0  3  0  0  0  0  0  0
  186.6240  177.3970  144.9780 C   0  0  0  0  0  0  0  0  0  0  0  0
  187.9200  178.0410  146.7650 N   0  0  0  0  0  0  0  0  0  0  0  0
  188.6440  177.1540  145.9180 C   0  0  2  0  0  3  0  0  0  0  0  0
  188.5660  176.7980  142.3510 C   0  0  0  0  0  2  0  0  0  0  0  0
  191.9490  177.6920  143.2390 O   0  0  0  0  0  0  0  0  0  0  0  0
  189.9950  176.8350  144.2320 N   0  0  0  0  0  0  0  0  0  0  0  0
  190.7720  177.2540  143.1340 C   0  0  0  0  0  0  0  0  0  0  0  0
  189.9570  177.3140  145.4940 C   0  0  0  0  0  2  0  0  0  0  0  0
  185.7920  177.5620  143.9970 N   0  0  0  0  0  0  0  0  0  0  0  0
  187.8950  176.7130  144.8670 C   0  0  2  0  0  3  0  0  0  0  0  0
  184.5150  178.5000  147.0270 O   0  0  0  0  0  0  0  0  0  0  0  0
  185.9930  180.1880  147.4570 O   0  0  0  0  0  1  0  0  0  0  0  0
  185.6830  178.9520  146.9070 C   0  0  0  0  0  0  0  0  0  0  0  0
  190.4950  176.2110  141.0150 O   0  0  0  0  0  0  0  0  0  0  0  0
  192.0460  177.4120  139.8500 O   0  0  0  0  0  1  0  0  0  0  0  0
  190.9070  175.7830  138.7720 O   0  0  0  0  0  1  0  0  0  0  0  0
  190.8070  176.7760  139.7550 C   0  0  0  0  0  0  0  0  0  0  0  0
  188.5430  176.8190  138.3040 C   0  0  0  0  0  1  0  0  0  0  0  0
  189.5550  178.0120  139.2370 S   0  0  0  0  0  0  0  0  0  0  0  0
  184.3410  179.1800  142.9250 C   0  0  1  0  0  3  0  0  0  0  0  0
  184.6440  178.9890  140.4510 C   0  0  0  0  0  1  0  0  0  0  0  0
  185.3310  178.9110  141.8020 C   0  0  0  0  0  2  0  0  0  0  0  0
  182.9360  178.7710  142.5020 C   0  0  0  0  0  2  0  0  0  0  0  0
  181.9740  178.9190  143.6650 C   0  0  0  0  0  2  0  0  0  0  0  0
  180.5570  179.0300  143.1410 C   0  0  0  0  0  2  0  0  0  0  0  0
  180.2130  180.4300  142.9700 N   0  0  0  0  0  2  0  0  0  0  0  0
  179.3500  180.5160  141.8040 C   0  0  0  0  0  2  0  0  0  0  0  0
  180.1750  180.3730  140.5400 C   0  0  0  0  0  2  0  0  0  0  0  0
  179.5790  179.2910  139.6560 C   0  0  0  0  0  2  0  0  0  0  0  0
  180.0210  176.8310  139.7310 C   0  0  0  0  0  2  0  0  0  0  0  0
  182.6840  176.2810  137.9800 C   0  0  1  0  0  3  0  0  0  0  0  0
  181.4930  176.9680  137.2830 C   0  0  0  0  0  2  0  0  0  0  0  0
  182.1020  179.2950  137.7710 N   0  0  0  0  0  1  0  0  0  0  0  0
  181.0530  178.3000  137.9110 C   0  0  2  0  0  3  0  0  0  0  0  0
  181.0800  175.7310  139.9180 C   0  0  0  0  0  2  0  0  0  0  0  0
  180.6060  178.2060  139.3790 C   0  0  1  0  0  3  0  0  0  0  0  0
  182.4970  176.1420  139.5010 C   0  0  0  0  0  2  0  0  0  0  0  0
  183.3310  175.1840  136.0890 O   0  0  0  0  0  1  0  0  0  0  0  0
  182.9360  174.9710  137.3680 N   0  0  0  0  0  0  0  0  0  0  0  0
  184.0000  174.4180  138.0040 O   0  0  0  0  0  1  0  0  0  0  0  0
  2  8  1  6  0  0  0
  2 10  1  0  0  0  0
  2 14  1  0  0  0  0
  3  6  2  0  0  0  0
  3 17  1  0  0  0  0
  4 18  1  6  0  0  0
  4  8  1  0  0  0  0
  4 11  1  0  0  0  0
  5  3  1  0  0  0  0
  7 12  1  6  0  0  0
  7  6  1  0  0  0  0
 10 12  1  0  0  0  0
 11  9  2  0  0  0  0
 11 10  1  0  0  0  0
 13  1  1  0  0  0  0
 13  5  2  0  0  0  0
 14  5  1  6  0  0  0
 14  7  1  0  0  0  0
 17 15  2  0  0  0  0
 17 16  1  0  0  0  0
 20 21  1  0  0  0  0
 21 19  1  0  0  0  0
 21 18  1  0  0  0  0
 22 23  1  0  0  0  0
 23 21  1  0  0  0  0
 24 26  1  6  0  0  0
 24  1  1  0  0  0  0
 25 26  1  0  0  0  0
 27 24  1  0  0  0  0
 27 28  1  0  0  0  0
 29 28  1  0  0  0  0
 30 29  1  0  0  0  0
 31 30  1  0  0  0  0
 32 31  1  0  0  0  0
 33 32  1  0  0  0  0
 34 39  1  0  0  0  0
 35 43  1  6  0  0  0
 35 41  1  0  0  0  0
 36 38  1  0  0  0  0
 36 35  1  0  0  0  0
 38 37  1  1  0  0  0
 38 40  1  0  0  0  0
 40 33  1  6  0  0  0
 40 34  1  0  0  0  0
 41 39  1  0  0  0  0
 42 43  1  0  0  0  0
 43 44  1  0  0  0  0
M  END
>  <MODEL>
2

>  <REMARK>
 VINA RESULT:      -7.5      2.840      8.698
  Name = 
  16 active torsions:
  status: ('A' for Active; 'I' for Inactive)
    1  A    between atoms: O_1  and  C_10
    2  A    between atoms: O_1  and  C_33
    3  A    between atoms: O_3  and  C_12
    4  A    between atoms: O_3  and  N_42
    5  A    between atoms: C_5  and  C_17
    6  A    between atoms: C_5  and  C_41
    7  A    between atoms: C_6  and  N_14
    8  A    between atoms: C_6  and  C_25
    9  A    between atoms: C_8  and  C_12
   10  A    between atoms: C_8  and  C_25
   11  A    between atoms: CA_9  and  C_38
   12  A    between atoms: C_12  and  C_26
   13  A    between atoms: N_14  and  C_37
   14  A    between atoms: C_15  and  N_39
   15  A    between atoms: C_17  and  C_37
   16  A    between atoms: S_28  and  C_33
                            x       y       z     vdW  Elec       q    Type
                         _______ _______ _______ _____ _____    ______ ____

>  <TORSDO>
F 16

$$$$
=
 OpenBabel10222415443D

 44 47  0  0  1  0  0  0  0  0999 V2000
  182.8430  178.8770  142.8240 O   0  0  0  0  0  0  0  0  0  0  0  0
  181.6520  177.0570  138.9290 C   0  0  1  0  0  3  0  0  0  0  0  0
  180.1090  178.0920  141.9580 C   0  0  0  0  0  0  0  0  0  0  0  0
  183.1040  175.2870  138.2450 C   0  0  1  0  0  3  0  0  0  0  0  0
  181.3080  178.3630  141.1270 C   0  0  0  0  0  0  0  0  0  0  0  0
  179.2140  177.4260  141.2860 N   0  0  0  0  0  0  0  0  0  0  0  0
  179.7350  177.2610  139.9700 C   0  0  2  0  0  3  0  0  0  0  0  0
  183.1060  176.7010  138.8830 C   0  0  0  0  0  2  0  0  0  0  0  0
  181.1660  173.8620  137.7820 O   0  0  0  0  0  0  0  0  0  0  0  0
  180.8570  176.0750  138.5190 N   0  0  0  0  0  0  0  0  0  0  0  0
  181.6440  174.9790  138.1160 C   0  0  0  0  0  0  0  0  0  0  0  0
  179.6990  176.0970  139.2150 C   0  0  0  0  0  2  0  0  0  0  0  0
  182.5160  178.6350  141.5100 N   0  0  0  0  0  0  0  0  0  0  0  0
  180.9600  177.8430  139.8210 C   0  0  2  0  0  3  0  0  0  0  0  0
  179.7750  177.6740  144.2730 O   0  0  0  0  0  1  0  0  0  0  0  0
  179.7830  179.8700  143.6450 O   0  0  0  0  0  0  0  0  0  0  0  0
  179.8650  178.5180  143.3440 C   0  0  0  0  0  0  0  0  0  0  0  0
  183.6930  175.3460  136.9680 O   0  0  0  0  0  0  0  0  0  0  0  0
  185.9620  175.2960  137.2080 O   0  0  0  0  0  1  0  0  0  0  0  0
  184.7600  173.5180  137.9200 O   0  0  0  0  0  1  0  0  0  0  0  0
  184.8390  174.5140  136.9370 C   0  0  0  0  0  0  0  0  0  0  0  0
  183.5180  172.7560  135.3870 C   0  0  0  0  0  1  0  0  0  0  0  0
  185.0590  173.7230  135.2960 S   0  0  0  0  0  0  0  0  0  0  0  0
  184.1020  178.4760  143.3350 C   0  0  1  0  0  3  0  0  0  0  0  0
  186.0150  178.6430  141.7350 C   0  0  0  0  0  1  0  0  0  0  0  0
  185.1770  179.3850  142.7600 C   0  0  0  0  0  2  0  0  0  0  0  0
  184.0840  178.5700  144.8560 C   0  0  0  0  0  2  0  0  0  0  0  0
  185.4370  179.0210  145.3690 C   0  0  0  0  0  2  0  0  0  0  0  0
  185.5430  178.7220  146.8510 C   0  0  0  0  0  2  0  0  0  0  0  0
  186.8450  179.1460  147.3360 N   0  0  0  0  0  2  0  0  0  0  0  0
  187.3600  178.0670  148.1630 C   0  0  0  0  0  2  0  0  0  0  0  0
  188.2510  177.1630  147.3340 C   0  0  0  0  0  2  0  0  0  0  0  0
  189.2030  178.0040  146.4990 C   0  0  0  0  0  2  0  0  0  0  0  0
  188.0090  177.0460  144.5220 C   0  0  0  0  0  2  0  0  0  0  0  0
  190.1390  176.9050  142.0920 C   0  0  1  0  0  3  0  0  0  0  0  0
  189.8700  178.2800  142.7350 C   0  0  0  0  0  2  0  0  0  0  0  0
  191.6050  178.1940  144.4710 N   0  0  0  0  0  1  0  0  0  0  0  0
  190.1810  178.3660  144.2380 C   0  0  2  0  0  3  0  0  0  0  0  0
  188.0710  176.0400  143.3600 C   0  0  0  0  0  2  0  0  0  0  0  0
  189.3810  177.3930  145.1200 C   0  0  1  0  0  3  0  0  0  0  0  0
  189.4890  175.7400  142.8600 C   0  0  0  0  0  2  0  0  0  0  0  0
  189.7380  178.1930  140.2540 O   0  0  0  0  0  1  0  0  0  0  0  0
  189.6980  176.9110  140.6930 N   0  0  0  0  0  0  0  0  0  0  0  0
  190.6240  176.2350  139.9660 O   0  0  0  0  0  1  0  0  0  0  0  0
  1 24  1  0  0  0  0
  2  8  1  1  0  0  0
  2 14  1  0  0  0  0
  3 17  1  0  0  0  0
  4 18  1  6  0  0  0
  4  8  1  0  0  0  0
  5 13  2  0  0  0  0
  5  3  1  0  0  0  0
  6  3  2  0  0  0  0
  7 12  1  1  0  0  0
  7  6  1  0  0  0  0
  9 11  2  0  0  0  0
 10  2  1  0  0  0  0
 10 12  1  0  0  0  0
 11  4  1  0  0  0  0
 11 10  1  0  0  0  0
 13  1  1  0  0  0  0
 14  7  1  0  0  0  0
 14  5  1  1  0  0  0
 17 16  2  0  0  0  0
 17 15  1  0  0  0  0
 21 18  1  0  0  0  0
 21 19  1  0  0  0  0
 21 20  1  0  0  0  0
 23 22  1  0  0  0  0
 23 21  1  0  0  0  0
 24 26  1  6  0  0  0
 24 27  1  0  0  0  0
 25 26  1  0  0  0  0
 27 28  1  0  0  0  0
 28 29  1  0  0  0  0
 29 30  1  0  0  0  0
 30 31  1  0  0  0  0
 32 31  1  0  0  0  0
 33 32  1  0  0  0  0
 34 40  1  0  0  0  0
 35 43  1  6  0  0  0
 35 36  1  0  0  0  0
 35 41  1  0  0  0  0
 36 38  1  0  0  0  0
 38 37  1  6  0  0  0
 38 40  1  0  0  0  0
 39 34  1  0  0  0  0
 40 33  1  1  0  0  0
 41 39  1  0  0  0  0
 42 43  1  0  0  0  0
 44 43  1  0  0  0  0
M  END
>  <MODEL>
3

>  <REMARK>
 VINA RESULT:      -7.5      2.038      3.485
  Name = 
  16 active torsions:
  status: ('A' for Active; 'I' for Inactive)
    1  A    between atoms: O_1  and  C_10
    2  A    between atoms: O_1  and  C_33
    3  A    between atoms: O_3  and  C_12
    4  A    between atoms: O_3  and  N_42
    5  A    between atoms: C_5  and  C_17
    6  A    between atoms: C_5  and  C_41
    7  A    between atoms: C_6  and  N_14
    8  A    between atoms: C_6  and  C_25
    9  A    between atoms: C_8  and  C_12
   10  A    between atoms: C_8  and  C_25
   11  A    between atoms: CA_9  and  C_38
   12  A    between atoms: C_12  and  C_26
   13  A    between atoms: N_14  and  C_37
   14  A    between atoms: C_15  and  N_39
   15  A    between atoms: C_17  and  C_37
   16  A    between atoms: S_28  and  C_33
                            x       y       z     vdW  Elec       q    Type
                         _______ _______ _______ _____ _____    ______ ____

>  <TORSDO>
F 16

$$$$
=
 OpenBabel10222415443D

 44 47  0  0  1  0  0  0  0  0999 V2000
  181.2670  177.7590  140.2560 O   0  0  0  0  0  0  0  0  0  0  0  0
  184.2300  177.0740  136.9920 C   0  0  1  0  0  3  0  0  0  0  0  0
  181.2420  175.5930  138.2200 C   0  0  0  0  0  0  0  0  0  0  0  0
  186.4930  177.2690  137.7310 C   0  0  1  0  0  3  0  0  0  0  0  0
  181.9490  176.8960  138.1840 C   0  0  0  0  0  0  0  0  0  0  0  0
  181.7470  174.7620  137.3530 N   0  0  0  0  0  0  0  0  0  0  0  0
  182.7720  175.4710  136.6630 C   0  0  2  0  0  3  0  0  0  0  0  0
  185.0930  177.9210  137.8750 C   0  0  0  0  0  2  0  0  0  0  0  0
  187.0480  175.1560  136.6260 O   0  0  0  0  0  0  0  0  0  0  0  0
  184.8730  176.0370  136.4660 N   0  0  0  0  0  0  0  0  0  0  0  0
  186.2190  176.0700  136.8770 C   0  0  0  0  0  0  0  0  0  0  0  0
  184.0330  174.9850  136.3460 C   0  0  0  0  0  2  0  0  0  0  0  0
  182.0160  177.8080  139.1040 N   0  0  0  0  0  0  0  0  0  0  0  0
  182.8950  176.7580  137.0970 C   0  0  2  0  0  3  0  0  0  0  0  0
  178.9320  175.6150  138.7770 O   0  0  0  0  0  0  0  0  0  0  0  0
  180.2780  174.3750  140.1430 O   0  0  0  0  0  1  0  0  0  0  0  0
  180.0920  175.2190  139.0580 C   0  0  0  0  0  0  0  0  0  0  0  0
  187.3560  178.1510  137.0540 O   0  0  0  0  0  0  0  0  0  0  0  0
  188.9900  179.6780  137.5060 O   0  0  0  0  0  1  0  0  0  0  0  0
  188.1170  178.4900  139.2190 O   0  0  0  0  0  1  0  0  0  0  0  0
  188.4810  178.4310  137.8680 C   0  0  0  0  0  0  0  0  0  0  0  0
  189.7280  177.1880  135.8340 C   0  0  0  0  0  1  0  0  0  0  0  0
  189.8010  177.1760  137.6540 S   0  0  0  0  0  0  0  0  0  0  0  0
  181.0730  178.9260  141.0360 C   0  0  1  0  0  3  0  0  0  0  0  0
  179.5420  180.8900  141.2530 C   0  0  0  0  0  1  0  0  0  0  0  0
  180.1080  179.8480  140.3060 C   0  0  0  0  0  2  0  0  0  0  0  0
  180.5090  178.5390  142.3970 C   0  0  0  0  0  2  0  0  0  0  0  0
  181.3780  179.1010  143.5040 C   0  0  0  0  0  2  0  0  0  0  0  0
  182.8370  178.9920  143.1100 C   0  0  0  0  0  2  0  0  0  0  0  0
  183.6480  179.7420  144.0530 N   0  0  0  0  0  2  0  0  0  0  0  0
  183.8270  178.8970  145.2230 C   0  0  0  0  0  2  0  0  0  0  0  0
  185.2130  179.1030  145.8000 C   0  0  0  0  0  2  0  0  0  0  0  0
  185.9380  177.7700  145.8850 C   0  0  0  0  0  2  0  0  0  0  0  0
  188.3910  177.2880  145.9370 C   0  0  0  0  0  2  0  0  0  0  0  0
  189.4500  177.3720  142.8820 C   0  0  1  0  0  3  0  0  0  0  0  0
  188.3230  176.3790  143.2270 C   0  0  0  0  0  2  0  0  0  0  0  0
  186.4130  177.8530  142.7730 N   0  0  0  0  0  1  0  0  0  0  0  0
  187.0400  177.0180  143.7830 C   0  0  2  0  0  3  0  0  0  0  0  0
  189.7810  177.6920  145.4160 C   0  0  0  0  0  2  0  0  0  0  0  0
  187.2280  177.8160  145.0840 C   0  0  1  0  0  3  0  0  0  0  0  0
  189.7690  178.3460  144.0300 C   0  0  0  0  0  2  0  0  0  0  0  0
  190.4460  175.3270  142.7300 O   0  0  0  0  0  1  0  0  0  0  0  0
  190.6550  176.6420  142.4740 N   0  0  0  0  0  0  0  0  0  0  0  0
  190.7660  176.7500  141.1260 O   0  0  0  0  0  1  0  0  0  0  0  0
  1 24  1  0  0  0  0
  2 14  1  0  0  0  0
  2  8  1  1  0  0  0
  3 17  1  0  0  0  0
  4 18  1  6  0  0  0
  4  8  1  0  0  0  0
  5  3  1  0  0  0  0
  5 13  2  0  0  0  0
  6  3  2  0  0  0  0
  7 12  1  1  0  0  0
  7 14  1  0  0  0  0
  7  6  1  0  0  0  0
  9 11  2  0  0  0  0
 10 11  1  0  0  0  0
 10  2  1  0  0  0  0
 11  4  1  0  0  0  0
 12 10  1  0  0  0  0
 13  1  1  0  0  0  0
 14  5  1  1  0  0  0
 15 17  2  0  0  0  0
 17 16  1  0  0  0  0
 18 21  1  0  0  0  0
 19 21  1  0  0  0  0
 21 20  1  0  0  0  0
 22 23  1  0  0  0  0
 23 21  1  0  0  0  0
 24 26  1  6  0  0  0
 24 27  1  0  0  0  0
 26 25  1  0  0  0  0
 27 28  1  0  0  0  0
 29 28  1  0  0  0  0
 29 30  1  0  0  0  0
 30 31  1  0  0  0  0
 31 32  1  0  0  0  0
 32 33  1  0  0  0  0
 35 43  1  1  0  0  0
 35 36  1  0  0  0  0
 35 41  1  0  0  0  0
 36 38  1  0  0  0  0
 38 37  1  6  0  0  0
 38 40  1  0  0  0  0
 39 34  1  0  0  0  0
 40 33  1  1  0  0  0
 40 34  1  0  0  0  0
 41 39  1  0  0  0  0
 43 42  1  0  0  0  0
 44 43  1  0  0  0  0
M  END
>  <MODEL>
4

>  <REMARK>
 VINA RESULT:      -7.2      2.802      4.914
  Name = 
  16 active torsions:
  status: ('A' for Active; 'I' for Inactive)
    1  A    between atoms: O_1  and  C_10
    2  A    between atoms: O_1  and  C_33
    3  A    between atoms: O_3  and  C_12
    4  A    between atoms: O_3  and  N_42
    5  A    between atoms: C_5  and  C_17
    6  A    between atoms: C_5  and  C_41
    7  A    between atoms: C_6  and  N_14
    8  A    between atoms: C_6  and  C_25
    9  A    between atoms: C_8  and  C_12
   10  A    between atoms: C_8  and  C_25
   11  A    between atoms: CA_9  and  C_38
   12  A    between atoms: C_12  and  C_26
   13  A    between atoms: N_14  and  C_37
   14  A    between atoms: C_15  and  N_39
   15  A    between atoms: C_17  and  C_37
   16  A    between atoms: S_28  and  C_33
                            x       y       z     vdW  Elec       q    Type
                         _______ _______ _______ _____ _____    ______ ____

>  <TORSDO>
F 16

$$$$
=
 OpenBabel10222415443D

 44 47  0  0  1  0  0  0  0  0999 V2000
  186.6780  178.0120  145.0730 O   0  0  0  0  0  0  0  0  0  0  0  0
  189.6290  176.4570  142.1100 C   0  0  1  0  0  3  0  0  0  0  0  0
  189.4310  177.0280  145.6120 C   0  0  0  0  0  0  0  0  0  0  0  0
  189.7750  177.8060  140.1440 C   0  0  1  0  0  3  0  0  0  0  0  0
  188.5620  176.7670  144.4380 C   0  0  0  0  0  0  0  0  0  0  0  0
  190.6760  176.7530  145.3440 N   0  0  0  0  0  0  0  0  0  0  0  0
  190.7010  176.2520  144.0100 C   0  0  2  0  0  3  0  0  0  0  0  0
  188.7580  177.2110  141.1530 C   0  0  0  0  0  2  0  0  0  0  0  0
  192.2180  177.8090  140.3140 O   0  0  0  0  0  0  0  0  0  0  0  0
  190.9270  176.6000  141.8660 N   0  0  0  0  0  0  0  0  0  0  0  0
  191.0970  177.4080  140.7250 C   0  0  0  0  0  0  0  0  0  0  0  0
  191.6200  176.5890  143.0250 C   0  0  0  0  0  2  0  0  0  0  0  0
  187.3910  177.2550  144.1720 N   0  0  0  0  0  0  0  0  0  0  0  0
  189.4570  176.2020  143.4510 C   0  0  2  0  0  3  0  0  0  0  0  0
  189.3390  178.6380  147.3570 O   0  0  0  0  0  0  0  0  0  0  0  0
  188.2290  176.6790  147.7440 O   0  0  0  0  0  1  0  0  0  0  0  0
  189.0210  177.4930  146.9460 C   0  0  0  0  0  0  0  0  0  0  0  0
  189.6030  177.1970  138.8870 O   0  0  0  0  0  0  0  0  0  0  0  0
  189.0680  179.3860  138.5260 O   0  0  0  0  0  1  0  0  0  0  0  0
  189.5330  178.0790  136.7410 O   0  0  0  0  0  1  0  0  0  0  0  0
  188.9440  178.0950  138.0120 C   0  0  0  0  0  0  0  0  0  0  0  0
  187.0940  178.0180  136.0610 C   0  0  0  0  0  1  0  0  0  0  0  0
  187.1600  177.6990  137.8530 S   0  0  0  0  0  0  0  0  0  0  0  0
  185.2700  178.1290  144.9550 C   0  0  1  0  0  3  0  0  0  0  0  0
  185.8010  179.1760  147.1620 C   0  0  0  0  0  1  0  0  0  0  0  0
  184.7050  178.5980  146.2870 C   0  0  0  0  0  2  0  0  0  0  0  0
  184.9360  179.1290  143.8560 C   0  0  0  0  0  2  0  0  0  0  0  0
  183.8060  178.6020  142.9930 C   0  0  0  0  0  2  0  0  0  0  0  0
  182.5260  179.3440  143.3240 C   0  0  0  0  0  2  0  0  0  0  0  0
  181.6190  178.4510  144.0220 N   0  0  0  0  0  2  0  0  0  0  0  0
  180.2690  178.8810  143.6960 C   0  0  0  0  0  2  0  0  0  0  0  0
  180.2770  179.6670  142.4000 C   0  0  0  0  0  2  0  0  0  0  0  0
  179.4340  178.9510  141.3580 C   0  0  0  0  0  2  0  0  0  0  0  0
  181.3090  179.7000  139.8830 C   0  0  0  0  0  2  0  0  0  0  0  0
  182.2340  177.1420  138.1330 C   0  0  1  0  0  3  0  0  0  0  0  0
  182.2810  177.0190  139.6690 C   0  0  0  0  0  2  0  0  0  0  0  0
  180.0080  176.1600  140.0170 N   0  0  0  0  0  1  0  0  0  0  0  0
  180.9320  177.2200  140.3790 C   0  0  2  0  0  3  0  0  0  0  0  0
  181.9030  179.6740  138.4640 C   0  0  0  0  0  2  0  0  0  0  0  0
  180.2790  178.5920  140.1470 C   0  0  1  0  0  3  0  0  0  0  0  0
  181.5390  178.4270  137.6500 C   0  0  0  0  0  2  0  0  0  0  0  0
  184.0170  175.7730  137.7530 O   0  0  0  0  0  1  0  0  0  0  0  0
  183.5890  177.0480  137.5800 N   0  0  0  0  0  0  0  0  0  0  0  0
  183.5010  177.2370  136.2390 O   0  0  0  0  0  1  0  0  0  0  0  0
  2  8  1  1  0  0  0
  2 14  1  0  0  0  0
  3 17  1  0  0  0  0
  4 18  1  6  0  0  0
  4 11  1  0  0  0  0
  4  8  1  0  0  0  0
  5  3  1  0  0  0  0
  6  3  2  0  0  0  0
  7 12  1  6  0  0  0
  7  6  1  0  0  0  0
  9 11  2  0  0  0  0
 10  2  1  0  0  0  0
 10 12  1  0  0  0  0
 11 10  1  0  0  0  0
 13  5  2  0  0  0  0
 13  1  1  0  0  0  0
 14  7  1  0  0  0  0
 14  5  1  1  0  0  0
 17 15  2  0  0  0  0
 17 16  1  0  0  0  0
 20 21  1  0  0  0  0
 21 19  1  0  0  0  0
 21 18  1  0  0  0  0
 22 23  1  0  0  0  0
 23 21  1  0  0  0  0
 24 27  1  6  0  0  0
 24  1  1  0  0  0  0
 24 26  1  0  0  0  0
 26 25  1  0  0  0  0
 28 29  1  0  0  0  0
 28 27  1  0  0  0  0
 29 30  1  0  0  0  0
 31 30  1  0  0  0  0
 32 31  1  0  0  0  0
 33 32  1  0  0  0  0
 34 40  1  0  0  0  0
 35 43  1  1  0  0  0
 35 36  1  0  0  0  0
 36 38  1  0  0  0  0
 38 37  1  6  0  0  0
 39 34  1  0  0  0  0
 40 38  1  0  0  0  0
 40 33  1  1  0  0  0
 41 35  1  0  0  0  0
 41 39  1  0  0  0  0
 43 42  1  0  0  0  0
 44 43  1  0  0  0  0
M  END
>  <MODEL>
5

>  <REMARK>
 VINA RESULT:      -7.1      2.674      8.821
  Name = 
  16 active torsions:
  status: ('A' for Active; 'I' for Inactive)
    1  A    between atoms: O_1  and  C_10
    2  A    between atoms: O_1  and  C_33
    3  A    between atoms: O_3  and  C_12
    4  A    between atoms: O_3  and  N_42
    5  A    between atoms: C_5  and  C_17
    6  A    between atoms: C_5  and  C_41
    7  A    between atoms: C_6  and  N_14
    8  A    between atoms: C_6  and  C_25
    9  A    between atoms: C_8  and  C_12
   10  A    between atoms: C_8  and  C_25
   11  A    between atoms: CA_9  and  C_38
   12  A    between atoms: C_12  and  C_26
   13  A    between atoms: N_14  and  C_37
   14  A    between atoms: C_15  and  N_39
   15  A    between atoms: C_17  and  C_37
   16  A    between atoms: S_28  and  C_33
                            x       y       z     vdW  Elec       q    Type
                         _______ _______ _______ _____ _____    ______ ____

>  <TORSDO>
F 16

$$$$
=
 OpenBabel10222415443D

 44 47  0  0  1  0  0  0  0  0999 V2000
  185.2460  179.4550  140.3070 O   0  0  0  0  0  0  0  0  0  0  0  0
  186.6080  176.8450  136.9550 C   0  0  1  0  0  3  0  0  0  0  0  0
  183.5680  177.7150  138.5770 C   0  0  0  0  0  0  0  0  0  0  0  0
  188.5540  175.5710  137.4980 C   0  0  1  0  0  3  0  0  0  0  0  0
  184.9290  178.2480  138.3220 C   0  0  0  0  0  0  0  0  0  0  0  0
  183.3030  176.7100  137.7910 N   0  0  0  0  0  0  0  0  0  0  0  0
  184.4370  176.5510  136.9430 C   0  0  2  0  0  3  0  0  0  0  0  0
  187.9250  176.9800  137.6550 C   0  0  0  0  0  2  0  0  0  0  0  0
  187.4790  173.5440  136.6400 O   0  0  0  0  0  0  0  0  0  0  0  0
  186.3640  175.6130  136.5240 N   0  0  0  0  0  0  0  0  0  0  0  0
  187.4660  174.7890  136.8290 C   0  0  0  0  0  0  0  0  0  0  0  0
  185.0420  175.3480  136.6020 C   0  0  0  0  0  2  0  0  0  0  0  0
  185.6870  178.9470  139.1070 N   0  0  0  0  0  0  0  0  0  0  0  0
  185.4080  177.4740  137.1970 C   0  0  2  0  0  3  0  0  0  0  0  0
  182.0340  177.4470  140.3720 O   0  0  0  0  0  1  0  0  0  0  0  0
  182.2620  179.5700  139.5600 O   0  0  0  0  0  0  0  0  0  0  0  0
  182.5740  178.2180  139.5370 C   0  0  0  0  0  0  0  0  0  0  0  0
  189.6760  175.6480  136.6510 O   0  0  0  0  0  0  0  0  0  0  0  0
  190.7110  175.4480  138.6750 O   0  0  0  0  0  1  0  0  0  0  0  0
  190.8610  173.7330  137.2100 O   0  0  0  0  0  1  0  0  0  0  0  0
  190.8110  175.1290  137.3200 C   0  0  0  0  0  0  0  0  0  0  0  0
  192.5120  174.6540  135.2920 C   0  0  0  0  0  1  0  0  0  0  0  0
  192.3690  175.8410  136.6660 S   0  0  0  0  0  0  0  0  0  0  0  0
  185.8140  179.0080  141.5270 C   0  0  1  0  0  3  0  0  0  0  0  0
  184.1270  179.2950  143.3490 C   0  0  0  0  0  1  0  0  0  0  0  0
  184.7320  178.3260  142.3500 C   0  0  0  0  0  2  0  0  0  0  0  0
  186.9470  178.0340  141.2300 C   0  0  0  0  0  2  0  0  0  0  0  0
  188.2830  178.7470  141.2990 C   0  0  0  0  0  2  0  0  0  0  0  0
  189.3790  177.8190  140.8150 C   0  0  0  0  0  2  0  0  0  0  0  0
  190.5400  177.9540  141.6770 N   0  0  0  0  0  2  0  0  0  0  0  0
  190.9940  176.6090  141.9900 C   0  0  0  0  0  2  0  0  0  0  0  0
  190.1680  176.0370  143.1250 C   0  0  0  0  0  2  0  0  0  0  0  0
  190.6280  176.6310  144.4460 C   0  0  0  0  0  2  0  0  0  0  0  0
  189.8100  177.9520  146.4050 C   0  0  0  0  0  2  0  0  0  0  0  0
  186.5860  177.6930  146.4580 C   0  0  1  0  0  3  0  0  0  0  0  0
  187.2420  178.2670  145.1860 C   0  0  0  0  0  2  0  0  0  0  0  0
  187.5510  176.1550  143.9740 N   0  0  0  0  0  1  0  0  0  0  0  0
  188.2380  177.3270  144.4880 C   0  0  2  0  0  3  0  0  0  0  0  0
  188.8670  177.9800  147.6200 C   0  0  0  0  0  2  0  0  0  0  0  0
  189.4370  176.9000  145.3500 C   0  0  1  0  0  3  0  0  0  0  0  0
  187.6060  177.1220  147.4590 C   0  0  0  0  0  2  0  0  0  0  0  0
  185.6880  179.7790  146.2590 O   0  0  0  0  0  1  0  0  0  0  0  0
  185.7510  178.7150  147.0980 N   0  0  0  0  0  0  0  0  0  0  0  0
  184.4880  178.2240  147.1800 O   0  0  0  0  0  1  0  0  0  0  0  0
  1 24  1  0  0  0  0
  2 14  1  0  0  0  0
  2  8  1  1  0  0  0
  3 17  1  0  0  0  0
  4 18  1  6  0  0  0
  4  8  1  0  0  0  0
  5  3  1  0  0  0  0
  5 13  2  0  0  0  0
  6  3  2  0  0  0  0
  7 12  1  1  0  0  0
  7 14  1  0  0  0  0
  7  6  1  0  0  0  0
  9 11  2  0  0  0  0
 10 12  1  0  0  0  0
 10 11  1  0  0  0  0
 10  2  1  0  0  0  0
 11  4  1  0  0  0  0
 13  1  1  0  0  0  0
 14  5  1  1  0  0  0
 17 16  2  0  0  0  0
 17 15  1  0  0  0  0
 18 21  1  0  0  0  0
 20 21  1  0  0  0  0
 21 19  1  0  0  0  0
 22 23  1  0  0  0  0
 23 21  1  0  0  0  0
 24 27  1  6  0  0  0
 24 26  1  0  0  0  0
 26 25  1  0  0  0  0
 27 28  1  0  0  0  0
 29 28  1  0  0  0  0
 29 30  1  0  0  0  0
 30 31  1  0  0  0  0
 31 32  1  0  0  0  0
 32 33  1  0  0  0  0
 34 39  1  0  0  0  0
 35 43  1  1  0  0  0
 35 41  1  0  0  0  0
 36 35  1  0  0  0  0
 38 37  1  1  0  0  0
 38 36  1  0  0  0  0
 38 40  1  0  0  0  0
 40 33  1  6  0  0  0
 40 34  1  0  0  0  0
 41 39  1  0  0  0  0
 42 43  1  0  0  0  0
 43 44  1  0  0  0  0
M  END
>  <MODEL>
6

>  <REMARK>
 VINA RESULT:      -7.0      3.143      4.807
  Name = 
  16 active torsions:
  status: ('A' for Active; 'I' for Inactive)
    1  A    between atoms: O_1  and  C_10
    2  A    between atoms: O_1  and  C_33
    3  A    between atoms: O_3  and  C_12
    4  A    between atoms: O_3  and  N_42
    5  A    between atoms: C_5  and  C_17
    6  A    between atoms: C_5  and  C_41
    7  A    between atoms: C_6  and  N_14
    8  A    between atoms: C_6  and  C_25
    9  A    between atoms: C_8  and  C_12
   10  A    between atoms: C_8  and  C_25
   11  A    between atoms: CA_9  and  C_38
   12  A    between atoms: C_12  and  C_26
   13  A    between atoms: N_14  and  C_37
   14  A    between atoms: C_15  and  N_39
   15  A    between atoms: C_17  and  C_37
   16  A    between atoms: S_28  and  C_33
                            x       y       z     vdW  Elec       q    Type
                         _______ _______ _______ _____ _____    ______ ____

>  <TORSDO>
F 16

$$$$
=
 OpenBabel10222415443D

 44 47  0  0  1  0  0  0  0  0999 V2000
  186.7010  177.9060  144.9560 O   0  0  0  0  0  0  0  0  0  0  0  0
  189.7310  176.4440  142.0260 C   0  0  1  0  0  3  0  0  0  0  0  0
  189.4970  177.0650  145.5170 C   0  0  0  0  0  0  0  0  0  0  0  0
  189.8170  177.7640  140.0370 C   0  0  1  0  0  3  0  0  0  0  0  0
  188.6450  176.7420  144.3470 C   0  0  0  0  0  0  0  0  0  0  0  0
  190.7540  176.8450  145.2550 N   0  0  0  0  0  0  0  0  0  0  0  0
  190.8060  176.3230  143.9310 C   0  0  2  0  0  3  0  0  0  0  0  0
  188.8270  177.1380  141.0540 C   0  0  0  0  0  2  0  0  0  0  0  0
  192.2570  177.8870  140.2110 O   0  0  0  0  0  0  0  0  0  0  0  0
  191.0210  176.6450  141.7810 N   0  0  0  0  0  0  0  0  0  0  0  0
  191.1540  177.4400  140.6260 C   0  0  0  0  0  0  0  0  0  0  0  0
  191.7110  176.6870  142.9420 C   0  0  0  0  0  2  0  0  0  0  0  0
  187.4520  177.1680  144.0700 N   0  0  0  0  0  0  0  0  0  0  0  0
  189.5680  176.2040  143.3710 C   0  0  2  0  0  3  0  0  0  0  0  0
  189.4020  178.6640  147.2720 O   0  0  0  0  0  0  0  0  0  0  0  0
  188.2220  176.7380  147.6100 O   0  0  0  0  0  1  0  0  0  0  0  0
  189.0620  177.5320  146.8420 C   0  0  0  0  0  0  0  0  0  0  0  0
  189.6770  177.1260  138.7900 O   0  0  0  0  0  0  0  0  0  0  0  0
  189.0610  179.2810  138.3640 O   0  0  0  0  0  1  0  0  0  0  0  0
  189.5060  177.9190  136.6160 O   0  0  0  0  0  1  0  0  0  0  0  0
  188.9600  177.9670  137.9050 C   0  0  0  0  0  0  0  0  0  0  0  0
  187.4920  175.8180  137.2300 C   0  0  0  0  0  1  0  0  0  0  0  0
  187.1850  177.5120  137.8240 S   0  0  0  0  0  0  0  0  0  0  0  0
  185.3570  178.2370  144.6550 C   0  0  1  0  0  3  0  0  0  0  0  0
  184.9610  178.2550  147.1220 C   0  0  0  0  0  1  0  0  0  0  0  0
  184.7690  179.0140  145.8230 C   0  0  0  0  0  2  0  0  0  0  0  0
  185.3150  179.0760  143.3840 C   0  0  0  0  0  2  0  0  0  0  0  0
  184.0260  178.8210  142.6280 C   0  0  0  0  0  2  0  0  0  0  0  0
  184.3450  178.2990  141.2420 C   0  0  0  0  0  2  0  0  0  0  0  0
  184.9100  179.3710  140.4420 N   0  0  0  0  0  2  0  0  0  0  0  0
  184.1330  179.4370  139.2140 C   0  0  0  0  0  2  0  0  0  0  0  0
  183.1200  178.3100  139.1850 C   0  0  0  0  0  2  0  0  0  0  0  0
  182.4140  178.2870  137.8390 C   0  0  0  0  0  2  0  0  0  0  0  0
  183.8770  177.0870  136.2040 C   0  0  0  0  0  2  0  0  0  0  0  0
  183.2580  173.9260  136.5020 C   0  0  1  0  0  3  0  0  0  0  0  0
  183.7330  174.6890  137.7550 C   0  0  0  0  0  2  0  0  0  0  0  0
  181.5300  175.3630  138.6050 N   0  0  0  0  0  1  0  0  0  0  0  0
  182.8310  175.8570  138.1860 C   0  0  2  0  0  3  0  0  0  0  0  0
  183.9540  175.9900  135.1280 C   0  0  0  0  0  2  0  0  0  0  0  0
  182.6610  176.9640  137.1330 C   0  0  1  0  0  3  0  0  0  0  0  0
  182.9440  174.8520  135.3140 C   0  0  0  0  0  2  0  0  0  0  0  0
  184.5420  172.1880  137.2280 O   0  0  0  0  0  1  0  0  0  0  0  0
  184.2520  172.9170  136.1220 N   0  0  0  0  0  0  0  0  0  0  0  0
  183.6590  172.0610  135.2520 O   0  0  0  0  0  1  0  0  0  0  0  0
  2  8  1  1  0  0  0
  2 14  1  0  0  0  0
  3 17  1  0  0  0  0
  4 18  1  6  0  0  0
  4 11  1  0  0  0  0
  4  8  1  0  0  0  0
  5  3  1  0  0  0  0
  6  3  2  0  0  0  0
  7 12  1  6  0  0  0
  7  6  1  0  0  0  0
  9 11  2  0  0  0  0
 10  2  1  0  0  0  0
 10 12  1  0  0  0  0
 11 10  1  0  0  0  0
 13  5  2  0  0  0  0
 13  1  1  0  0  0  0
 14  7  1  0  0  0  0
 14  5  1  1  0  0  0
 17 15  2  0  0  0  0
 17 16  1  0  0  0  0
 20 21  1  0  0  0  0
 21 19  1  0  0  0  0
 21 18  1  0  0  0  0
 22 23  1  0  0  0  0
 23 21  1  0  0  0  0
 24 27  1  6  0  0  0
 24  1  1  0  0  0  0
 24 26  1  0  0  0  0
 26 25  1  0  0  0  0
 28 27  1  0  0  0  0
 29 28  1  0  0  0  0
 30 29  1  0  0  0  0
 31 30  1  0  0  0  0
 32 31  1  0  0  0  0
 33 32  1  0  0  0  0
 34 40  1  0  0  0  0
 35 43  1  6  0  0  0
 35 36  1  0  0  0  0
 36 38  1  0  0  0  0
 38 37  1  6  0  0  0
 39 41  1  0  0  0  0
 39 34  1  0  0  0  0
 40 33  1  1  0  0  0
 40 38  1  0  0  0  0
 41 35  1  0  0  0  0
 43 42  1  0  0  0  0
 44 43  1  0  0  0  0
M  END
>  <MODEL>
7

>  <REMARK>
 VINA RESULT:      -6.9      2.796      8.764
  Name = 
  16 active torsions:
  status: ('A' for Active; 'I' for Inactive)
    1  A    between atoms: O_1  and  C_10
    2  A    between atoms: O_1  and  C_33
    3  A    between atoms: O_3  and  C_12
    4  A    between atoms: O_3  and  N_42
    5  A    between atoms: C_5  and  C_17
    6  A    between atoms: C_5  and  C_41
    7  A    between atoms: C_6  and  N_14
    8  A    between atoms: C_6  and  C_25
    9  A    between atoms: C_8  and  C_12
   10  A    between atoms: C_8  and  C_25
   11  A    between atoms: CA_9  and  C_38
   12  A    between atoms: C_12  and  C_26
   13  A    between atoms: N_14  and  C_37
   14  A    between atoms: C_15  and  N_39
   15  A    between atoms: C_17  and  C_37
   16  A    between atoms: S_28  and  C_33
                            x       y       z     vdW  Elec       q    Type
                         _______ _______ _______ _____ _____    ______ ____

>  <TORSDO>
F 16

$$$$
=
 OpenBabel10222415443D

 44 47  0  0  1  0  0  0  0  0999 V2000
  184.8040  178.8250  144.0520 O   0  0  0  0  0  0  0  0  0  0  0  0
  188.7000  176.6850  143.6760 C   0  0  1  0  0  3  0  0  0  0  0  0
  186.7520  178.2280  146.2170 C   0  0  0  0  0  0  0  0  0  0  0  0
  189.9880  177.4160  141.8010 C   0  0  1  0  0  3  0  0  0  0  0  0
  186.6070  177.5810  144.8900 C   0  0  0  0  0  0  0  0  0  0  0  0
  187.9190  177.9720  146.7380 N   0  0  0  0  0  0  0  0  0  0  0  0
  188.5900  177.1100  145.8230 C   0  0  2  0  0  3  0  0  0  0  0  0
  188.5400  177.0690  142.2380 C   0  0  0  0  0  2  0  0  0  0  0  0
  191.9650  177.6330  143.2300 O   0  0  0  0  0  0  0  0  0  0  0  0
  189.9400  176.8400  144.1280 N   0  0  0  0  0  0  0  0  0  0  0  0
  190.7620  177.2930  143.0770 C   0  0  0  0  0  0  0  0  0  0  0  0
  189.9170  177.2100  145.4260 C   0  0  0  0  0  2  0  0  0  0  0  0
  185.8040  177.8900  143.9200 N   0  0  0  0  0  0  0  0  0  0  0  0
  187.8270  176.8180  144.7310 C   0  0  2  0  0  3  0  0  0  0  0  0
  186.0620  180.1260  147.4680 O   0  0  0  0  0  1  0  0  0  0  0  0
  184.4340  178.5970  146.9930 O   0  0  0  0  0  0  0  0  0  0  0  0
  185.7520  179.0290  146.9380 C   0  0  0  0  0  0  0  0  0  0  0  0
  190.4420  176.4590  140.8740 O   0  0  0  0  0  0  0  0  0  0  0  0
  190.0500  178.2530  139.5180 O   0  0  0  0  0  1  0  0  0  0  0  0
  192.1740  177.5110  139.7430 O   0  0  0  0  0  1  0  0  0  0  0  0
  190.8330  177.1090  139.6780 C   0  0  0  0  0  0  0  0  0  0  0  0
  189.5910  177.2410  137.2960 C   0  0  0  0  0  1  0  0  0  0  0  0
  190.5990  176.0310  138.2120 S   0  0  0  0  0  0  0  0  0  0  0  0
  183.8460  179.0010  143.0230 C   0  0  1  0  0  3  0  0  0  0  0  0
  184.7820  179.0060  140.7050 C   0  0  0  0  0  1  0  0  0  0  0  0
  184.2440  178.1430  141.8310 C   0  0  0  0  0  2  0  0  0  0  0  0
  182.4710  178.5910  143.5350 C   0  0  0  0  0  2  0  0  0  0  0  0
  181.3920  179.4090  142.8540 C   0  0  0  0  0  2  0  0  0  0  0  0
  180.7400  178.5830  141.7640 C   0  0  0  0  0  2  0  0  0  0  0  0
  180.8690  179.2740  140.4930 N   0  0  0  0  0  2  0  0  0  0  0  0
  180.9400  178.2530  139.4610 C   0  0  0  0  0  2  0  0  0  0  0  0
  182.0780  178.5620  138.5080 C   0  0  0  0  0  2  0  0  0  0  0  0
  181.7650  177.9960  137.1330 C   0  0  0  0  0  2  0  0  0  0  0  0
  184.0450  177.0950  137.6240 C   0  0  0  0  0  2  0  0  0  0  0  0
  184.2770  174.2220  136.1560 C   0  0  1  0  0  3  0  0  0  0  0  0
  183.1390  174.4190  137.1780 C   0  0  0  0  0  2  0  0  0  0  0  0
  181.4240  175.2490  135.6310 N   0  0  0  0  0  1  0  0  0  0  0  0
  182.1580  175.5540  136.8470 C   0  0  2  0  0  3  0  0  0  0  0  0
  185.2970  176.4120  137.0470 C   0  0  0  0  0  2  0  0  0  0  0  0
  182.7950  176.9500  136.7430 C   0  0  1  0  0  3  0  0  0  0  0  0
  185.0260  175.5250  135.8260 C   0  0  0  0  0  2  0  0  0  0  0  0
  185.0080  173.0450  137.9670 O   0  0  0  0  0  1  0  0  0  0  0  0
  185.2090  173.1960  136.6350 N   0  0  0  0  0  0  0  0  0  0  0  0
  184.8540  172.0170  136.0640 O   0  0  0  0  0  1  0  0  0  0  0  0
  2  8  1  6  0  0  0
  2 10  1  0  0  0  0
  2 14  1  0  0  0  0
  3  6  2  0  0  0  0
  3 17  1  0  0  0  0
  4 18  1  6  0  0  0
  4  8  1  0  0  0  0
  4 11  1  0  0  0  0
  5  3  1  0  0  0  0
  7 12  1  6  0  0  0
  7  6  1  0  0  0  0
 10 12  1  0  0  0  0
 11  9  2  0  0  0  0
 11 10  1  0  0  0  0
 13  1  1  0  0  0  0
 13  5  2  0  0  0  0
 14  5  1  6  0  0  0
 14  7  1  0  0  0  0
 17 16  2  0  0  0  0
 17 15  1  0  0  0  0
 19 21  1  0  0  0  0
 21 20  1  0  0  0  0
 21 18  1  0  0  0  0
 22 23  1  0  0  0  0
 23 21  1  0  0  0  0
 24 26  1  6  0  0  0
 24 27  1  0  0  0  0
 24  1  1  0  0  0  0
 25 26  1  0  0  0  0
 28 27  1  0  0  0  0
 29 28  1  0  0  0  0
 30 29  1  0  0  0  0
 31 30  1  0  0  0  0
 32 31  1  0  0  0  0
 33 32  1  0  0  0  0
 35 43  1  1  0  0  0
 35 36  1  0  0  0  0
 38 37  1  6  0  0  0
 38 36  1  0  0  0  0
 39 34  1  0  0  0  0
 40 38  1  0  0  0  0
 40 33  1  1  0  0  0
 40 34  1  0  0  0  0
 41 35  1  0  0  0  0
 41 39  1  0  0  0  0
 43 42  1  0  0  0  0
 44 43  1  0  0  0  0
M  END
>  <MODEL>
8

>  <REMARK>
 VINA RESULT:      -6.9      2.948      8.597
  Name = 
  16 active torsions:
  status: ('A' for Active; 'I' for Inactive)
    1  A    between atoms: O_1  and  C_10
    2  A    between atoms: O_1  and  C_33
    3  A    between atoms: O_3  and  C_12
    4  A    between atoms: O_3  and  N_42
    5  A    between atoms: C_5  and  C_17
    6  A    between atoms: C_5  and  C_41
    7  A    between atoms: C_6  and  N_14
    8  A    between atoms: C_6  and  C_25
    9  A    between atoms: C_8  and  C_12
   10  A    between atoms: C_8  and  C_25
   11  A    between atoms: CA_9  and  C_38
   12  A    between atoms: C_12  and  C_26
   13  A    between atoms: N_14  and  C_37
   14  A    between atoms: C_15  and  N_39
   15  A    between atoms: C_17  and  C_37
   16  A    between atoms: S_28  and  C_33
                            x       y       z     vdW  Elec       q    Type
                         _______ _______ _______ _____ _____    ______ ____

>  <TORSDO>
F 16

$$$$
=
 OpenBabel10222415443D

 44 47  0  0  1  0  0  0  0  0999 V2000
  184.9270  178.8290  144.2950 O   0  0  0  0  0  0  0  0  0  0  0  0
  188.6610  176.6710  143.1540 C   0  0  1  0  0  3  0  0  0  0  0  0
  187.1330  177.9660  146.0900 C   0  0  0  0  0  0  0  0  0  0  0  0
  189.7020  177.5760  141.2040 C   0  0  1  0  0  3  0  0  0  0  0  0
  186.7860  177.4690  144.7360 C   0  0  0  0  0  0  0  0  0  0  0  0
  188.3510  177.6340  146.4120 N   0  0  0  0  0  0  0  0  0  0  0  0
  188.8610  176.8640  145.3280 C   0  0  2  0  0  3  0  0  0  0  0  0
  188.3170  177.2110  141.8000 C   0  0  0  0  0  2  0  0  0  0  0  0
  191.8630  177.6010  142.3560 O   0  0  0  0  0  0  0  0  0  0  0  0
  189.9550  176.7530  143.4410 N   0  0  0  0  0  0  0  0  0  0  0  0
  190.6390  177.3020  142.3390 C   0  0  0  0  0  0  0  0  0  0  0  0
  190.1230  176.9810  144.7610 C   0  0  0  0  0  2  0  0  0  0  0  0
  185.8680  177.8960  143.9260 N   0  0  0  0  0  0  0  0  0  0  0  0
  187.9460  176.7050  144.3290 C   0  0  2  0  0  3  0  0  0  0  0  0
  186.6740  179.7490  147.5920 O   0  0  0  0  0  1  0  0  0  0  0  0
  184.9690  178.2690  147.2460 O   0  0  0  0  0  0  0  0  0  0  0  0
  186.2690  178.7020  147.0240 C   0  0  0  0  0  0  0  0  0  0  0  0
  189.9920  176.7170  140.1270 O   0  0  0  0  0  0  0  0  0  0  0  0
  189.4340  178.7200  139.1850 O   0  0  0  0  0  1  0  0  0  0  0  0
  190.8530  177.3590  138.0700 O   0  0  0  0  0  1  0  0  0  0  0  0
  189.7290  177.3850  138.9060 C   0  0  0  0  0  0  0  0  0  0  0  0
  187.2020  178.0690  138.2900 C   0  0  0  0  0  1  0  0  0  0  0  0
  188.3040  176.6440  138.0200 S   0  0  0  0  0  0  0  0  0  0  0  0
  183.8640  179.1600  143.4180 C   0  0  1  0  0  3  0  0  0  0  0  0
  184.2710  178.9970  140.9570 C   0  0  0  0  0  1  0  0  0  0  0  0
  183.9120  178.2290  142.2160 C   0  0  0  0  0  2  0  0  0  0  0  0
  182.5370  179.0100  144.1510 C   0  0  0  0  0  2  0  0  0  0  0  0
  181.3850  179.0600  143.1680 C   0  0  0  0  0  2  0  0  0  0  0  0
  180.1290  178.5290  143.8300 C   0  0  0  0  0  2  0  0  0  0  0  0
  179.2950  177.8820  142.8330 N   0  0  0  0  0  2  0  0  0  0  0  0
  179.8960  178.1550  141.5370 C   0  0  0  0  0  2  0  0  0  0  0  0
  179.7920  176.9290  140.6520 C   0  0  0  0  0  2  0  0  0  0  0  0
  179.8410  177.3430  139.1910 C   0  0  0  0  0  2  0  0  0  0  0  0
  181.5100  175.6250  138.4740 C   0  0  0  0  0  2  0  0  0  0  0  0
  183.8000  177.1590  136.7810 C   0  0  1  0  0  3  0  0  0  0  0  0
  182.3430  177.2700  136.2890 C   0  0  0  0  0  2  0  0  0  0  0  0
  181.7050  179.2780  137.5480 N   0  0  0  0  0  1  0  0  0  0  0  0
  181.3620  177.8890  137.2960 C   0  0  2  0  0  3  0  0  0  0  0  0
  183.0020  175.2740  138.3440 C   0  0  0  0  0  2  0  0  0  0  0  0
  181.2350  177.1280  138.6260 C   0  0  1  0  0  3  0  0  0  0  0  0
  183.9220  176.4860  138.1600 C   0  0  0  0  0  2  0  0  0  0  0  0
  183.8050  176.1270  134.7480 O   0  0  0  0  0  1  0  0  0  0  0  0
  184.6140  176.4510  135.7870 N   0  0  0  0  0  0  0  0  0  0  0  0
  185.5230  177.3320  135.2960 O   0  0  0  0  0  1  0  0  0  0  0  0
  2  8  1  6  0  0  0
  2 10  1  0  0  0  0
  2 14  1  0  0  0  0
  3  6  2  0  0  0  0
  3 17  1  0  0  0  0
  4 18  1  6  0  0  0
  4  8  1  0  0  0  0
  4 11  1  0  0  0  0
  5  3  1  0  0  0  0
  7 12  1  6  0  0  0
  7  6  1  0  0  0  0
 10 12  1  0  0  0  0
 11  9  2  0  0  0  0
 11 10  1  0  0  0  0
 13  1  1  0  0  0  0
 13  5  2  0  0  0  0
 14  5  1  6  0  0  0
 14  7  1  0  0  0  0
 17 16  2  0  0  0  0
 17 15  1  0  0  0  0
 20 21  1  0  0  0  0
 21 19  1  0  0  0  0
 21 18  1  0  0  0  0
 23 22  1  0  0  0  0
 23 21  1  0  0  0  0
 24 26  1  6  0  0  0
 24 27  1  0  0  0  0
 24  1  1  0  0  0  0
 25 26  1  0  0  0  0
 28 29  1  0  0  0  0
 28 27  1  0  0  0  0
 30 29  1  0  0  0  0
 31 30  1  0  0  0  0
 32 31  1  0  0  0  0
 33 32  1  0  0  0  0
 34 40  1  0  0  0  0
 35 43  1  6  0  0  0
 35 41  1  0  0  0  0
 36 35  1  0  0  0  0
 36 38  1  0  0  0  0
 38 37  1  1  0  0  0
 38 40  1  0  0  0  0
 39 34  1  0  0  0  0
 40 33  1  6  0  0  0
 41 39  1  0  0  0  0
 42 43  1  0  0  0  0
 44 43  1  0  0  0  0
M  END
>  <MODEL>
9

>  <REMARK>
 VINA RESULT:      -6.8      2.837      8.643
  Name = 
  16 active torsions:
  status: ('A' for Active; 'I' for Inactive)
    1  A    between atoms: O_1  and  C_10
    2  A    between atoms: O_1  and  C_33
    3  A    between atoms: O_3  and  C_12
    4  A    between atoms: O_3  and  N_42
    5  A    between atoms: C_5  and  C_17
    6  A    between atoms: C_5  and  C_41
    7  A    between atoms: C_6  and  N_14
    8  A    between atoms: C_6  and  C_25
    9  A    between atoms: C_8  and  C_12
   10  A    between atoms: C_8  and  C_25
   11  A    between atoms: CA_9  and  C_38
   12  A    between atoms: C_12  and  C_26
   13  A    between atoms: N_14  and  C_37
   14  A    between atoms: C_15  and  N_39
   15  A    between atoms: C_17  and  C_37
   16  A    between atoms: S_28  and  C_33
                            x       y       z     vdW  Elec       q    Type
                         _______ _______ _______ _____ _____    ______ ____

>  <TORSDO>
F 16

$$$$
