=
 OpenBabel10222417563D

 33 35  0  0  0  0  0  0  0  0999 V2000
  184.0100  178.9400  140.4930 C   0  0  0  0  0  3  0  0  0  0  0  0
  186.3880  178.5360  140.2300 C   0  0  0  0  0  0  0  0  0  0  0  0
  183.7930  178.6130  139.1490 C   0  0  0  0  0  0  0  0  0  0  0  0
  184.8830  178.2360  138.3540 C   0  0  0  0  0  3  0  0  0  0  0  0
  185.2980  178.9120  141.0390 C   0  0  0  0  0  0  0  0  0  0  0  0
  186.1720  178.2040  138.8890 C   0  0  0  0  0  3  0  0  0  0  0  0
  182.7980  175.6850  138.8960 N   0  0  0  0  0  2  0  0  0  0  0  0
  181.4440  177.6290  139.0200 N   0  0  0  0  0  2  0  0  0  0  0  0
  181.7130  176.2520  139.3130 C   0  0  0  0  0  0  0  0  0  0  0  0
  182.4170  178.5980  138.6070 C   0  0  0  0  0  0  0  0  0  0  0  0
  182.0650  179.4970  137.7980 O   0  0  0  0  0  0  0  0  0  0  0  0
  179.6700  176.3430  140.6740 C   0  0  0  0  0  1  0  0  0  0  0  0
  180.6760  175.4350  139.9970 C   0  0  0  0  0  2  0  0  0  0  0  0
  185.4640  179.2170  142.4960 C   0  0  0  0  0  2  0  0  0  0  0  0
  185.4090  177.9470  143.3400 C   0  0  0  0  0  2  0  0  0  0  0  0
  186.4550  178.3120  146.8340 C   0  0  0  0  0  0  0  0  0  0  0  0
  183.3820  179.1460  145.3730 N   0  0  0  0  0  1  0  0  0  0  0  0
  187.3790  178.1270  147.8610 C   0  0  0  0  0  3  0  0  0  0  0  0
  188.6280  177.5720  147.5260 C   0  0  0  0  0  2  0  0  0  0  0  0
  187.9720  177.4090  145.1750 C   0  0  0  0  0  3  0  0  0  0  0  0
  184.7090  178.7510  145.6990 C   0  0  0  0  0  0  0  0  0  0  0  0
  185.2050  178.7990  146.9590 N   0  0  0  0  0  0  0  0  0  0  0  0
  188.9220  177.2160  146.1920 C   0  0  0  0  0  3  0  0  0  0  0  0
  185.6290  178.2470  144.7890 C   0  0  0  0  0  0  0  0  0  0  0  0
  186.7470  177.9660  145.5380 C   0  0  0  0  0  0  0  0  0  0  0  0
  187.7820  178.4980  140.7660 C   0  0  0  0  0  2  0  0  0  0  0  0
  188.7780  178.4540  139.6240 C   0  0  0  0  0  2  0  0  0  0  0  0
  189.7230  177.2830  139.8230 C   0  0  0  0  0  2  0  0  0  0  0  0
  191.0100  177.1210  141.8040 C   0  0  0  0  0  3  0  0  0  0  0  0
  189.8710  176.9930  141.2250 N   0  0  0  0  0  0  0  0  0  0  0  0
  191.1570  176.8230  143.2580 C   0  0  0  0  0  2  0  0  0  0  0  0
  191.8200  177.9860  143.9700 C   0  0  0  0  0  2  0  0  0  0  0  0
  190.9520  179.2190  143.8370 C   0  0  0  0  0  1  0  0  0  0  0  0
  1  5  1  0  0  0  0
  2 26  1  0  0  0  0
  2  5  2  0  0  0  0
  3  1  2  0  0  0  0
  4  6  2  0  0  0  0
  4  3  1  0  0  0  0
  5 14  1  0  0  0  0
  6  2  1  0  0  0  0
  7  9  2  0  0  0  0
  8  9  1  0  0  0  0
  9 13  1  0  0  0  0
 10  8  1  0  0  0  0
 10  3  1  0  0  0  0
 11 10  2  0  0  0  0
 13 12  1  0  0  0  0
 14 15  1  0  0  0  0
 15 24  1  0  0  0  0
 16 22  1  0  0  0  0
 16 18  2  0  0  0  0
 17 21  1  0  0  0  0
 19 18  1  0  0  0  0
 20 25  1  0  0  0  0
 20 23  2  0  0  0  0
 21 22  2  0  0  0  0
 23 19  1  0  0  0  0
 24 25  2  0  0  0  0
 24 21  1  0  0  0  0
 25 16  1  0  0  0  0
 27 28  1  0  0  0  0
 27 26  1  0  0  0  0
 28 30  1  0  0  0  0
 29 31  1  0  0  0  0
 30 29  2  0  0  0  0
 31 32  1  0  0  0  0
 33 32  1  0  0  0  0
M  END
>  <MODEL>
1

>  <REMARK>
 VINA RESULT:      -8.5      0.000      0.000
  Name = 
  11 active torsions:
  status: ('A' for Active; 'I' for Inactive)
    1  A    between atoms: C_1  and  C_10
    2  A    between atoms: C_1  and  N_26
    3  A    between atoms: C_6  and  C_8
    4  A    between atoms: C_7  and  C_15
    5  A    between atoms: C_7  and  C_25
    6  A    between atoms: C_8  and  C_10
    7  A    between atoms: C_11  and  C_19
    8  A    between atoms: C_12  and  C_16
    9  A    between atoms: C_15  and  C_32
   10  A    between atoms: C_17  and  C_29
   11  A    between atoms: C_21  and  C_29
                            x       y       z     vdW  Elec       q    Type
                         _______ _______ _______ _____ _____    ______ ____

>  <TORSDO>
F 11

$$$$
=
 OpenBabel10222417563D

 33 35  0  0  0  0  0  0  0  0999 V2000
  188.0070  177.9980  140.6230 C   0  0  0  0  0  3  0  0  0  0  0  0
  189.6330  176.6420  141.8090 C   0  0  0  0  0  0  0  0  0  0  0  0
  188.8640  178.0830  139.5190 C   0  0  0  0  0  0  0  0  0  0  0  0
  190.1040  177.4320  139.5660 C   0  0  0  0  0  3  0  0  0  0  0  0
  188.3820  177.2900  141.7700 C   0  0  0  0  0  0  0  0  0  0  0  0
  190.4880  176.7220  140.7050 C   0  0  0  0  0  3  0  0  0  0  0  0
  187.4750  176.0870  137.5920 N   0  0  0  0  0  2  0  0  0  0  0  0
  187.2170  178.4450  137.6060 N   0  0  0  0  0  2  0  0  0  0  0  0
  186.7090  177.1160  137.4340 C   0  0  0  0  0  0  0  0  0  0  0  0
  188.4250  178.7920  138.2980 C   0  0  0  0  0  0  0  0  0  0  0  0
  189.1000  179.7690  137.8780 O   0  0  0  0  0  0  0  0  0  0  0  0
  184.3450  177.6060  137.8910 C   0  0  0  0  0  1  0  0  0  0  0  0
  185.3160  176.9230  136.9490 C   0  0  0  0  0  2  0  0  0  0  0  0
  187.4030  177.1840  142.8990 C   0  0  0  0  0  2  0  0  0  0  0  0
  187.0660  178.5570  143.4730 C   0  0  0  0  0  2  0  0  0  0  0  0
  183.4450  178.8060  143.9860 C   0  0  0  0  0  0  0  0  0  0  0  0
  186.0070  178.9370  146.3730 N   0  0  0  0  0  1  0  0  0  0  0  0
  182.1420  178.8760  143.4980 C   0  0  0  0  0  3  0  0  0  0  0  0
  181.9540  178.7440  142.1100 C   0  0  0  0  0  3  0  0  0  0  0  0
  184.3620  178.4850  141.7670 C   0  0  0  0  0  3  0  0  0  0  0  0
  185.1770  178.8230  145.2230 C   0  0  0  0  0  0  0  0  0  0  0  0
  183.8280  178.9370  145.2720 N   0  0  0  0  0  2  0  0  0  0  0  0
  183.0570  178.5510  141.2510 C   0  0  0  0  0  3  0  0  0  0  0  0
  185.6430  178.6190  143.9310 C   0  0  0  0  0  0  0  0  0  0  0  0
  184.5150  178.6150  143.1470 C   0  0  0  0  0  0  0  0  0  0  0  0
  190.0810  175.8800  143.0140 C   0  0  0  0  0  2  0  0  0  0  0  0
  191.3860  176.4490  143.5340 C   0  0  0  0  0  2  0  0  0  0  0  0
  191.1240  177.7890  144.1980 C   0  0  0  0  0  2  0  0  0  0  0  0
  190.4560  176.9640  146.3140 C   0  0  0  0  0  3  0  0  0  0  0  0
  190.1660  177.6400  145.2620 N   0  0  0  0  0  0  0  0  0  0  0  0
  189.4610  176.8150  147.4160 C   0  0  0  0  0  2  0  0  0  0  0  0
  189.2930  178.1290  148.1550 C   0  0  0  0  0  2  0  0  0  0  0  0
  188.0580  178.0620  149.0270 C   0  0  0  0  0  1  0  0  0  0  0  0
  1  5  1  0  0  0  0
  2 26  1  0  0  0  0
  3  4  1  0  0  0  0
  3  1  2  0  0  0  0
  4  6  2  0  0  0  0
  5  2  2  0  0  0  0
  5 14  1  0  0  0  0
  6  2  1  0  0  0  0
  8 10  1  0  0  0  0
  9  7  2  0  0  0  0
  9  8  1  0  0  0  0
 10  3  1  0  0  0  0
 11 10  2  0  0  0  0
 13  9  1  0  0  0  0
 13 12  1  0  0  0  0
 14 15  1  0  0  0  0
 15 24  1  0  0  0  0
 16 22  1  0  0  0  0
 18 16  1  0  0  0  0
 19 18  2  0  0  0  0
 20 25  1  0  0  0  0
 21 22  1  0  0  0  0
 21 17  1  0  0  0  0
 23 20  2  0  0  0  0
 23 19  1  0  0  0  0
 24 21  2  0  0  0  0
 25 24  1  0  0  0  0
 25 16  2  0  0  0  0
 26 27  1  0  0  0  0
 27 28  1  0  0  0  0
 28 30  1  0  0  0  0
 29 31  1  0  0  0  0
 30 29  2  0  0  0  0
 31 32  1  0  0  0  0
 32 33  1  0  0  0  0
M  END
>  <MODEL>
2

>  <REMARK>
 VINA RESULT:      -8.4      2.546      4.955
  Name = 
  11 active torsions:
  status: ('A' for Active; 'I' for Inactive)
    1  A    between atoms: C_1  and  C_10
    2  A    between atoms: C_1  and  N_26
    3  A    between atoms: C_6  and  C_8
    4  A    between atoms: C_7  and  C_15
    5  A    between atoms: C_7  and  C_25
    6  A    between atoms: C_8  and  C_10
    7  A    between atoms: C_11  and  C_19
    8  A    between atoms: C_12  and  C_16
    9  A    between atoms: C_15  and  C_32
   10  A    between atoms: C_17  and  C_29
   11  A    between atoms: C_21  and  C_29
                            x       y       z     vdW  Elec       q    Type
                         _______ _______ _______ _____ _____    ______ ____

>  <TORSDO>
F 11

$$$$
=
 OpenBabel10222417563D

 33 35  0  0  0  0  0  0  0  0999 V2000
  188.0270  178.0310  140.4380 C   0  0  0  0  0  3  0  0  0  0  0  0
  189.7270  176.7610  141.6160 C   0  0  0  0  0  0  0  0  0  0  0  0
  188.8920  178.2060  139.3520 C   0  0  0  0  0  0  0  0  0  0  0  0
  190.1740  177.6430  139.4030 C   0  0  0  0  0  3  0  0  0  0  0  0
  188.4340  177.3190  141.5730 C   0  0  0  0  0  0  0  0  0  0  0  0
  190.5900  176.9310  140.5290 C   0  0  0  0  0  3  0  0  0  0  0  0
  187.4660  176.2080  137.4540 N   0  0  0  0  0  2  0  0  0  0  0  0
  187.2000  178.5650  137.4790 N   0  0  0  0  0  2  0  0  0  0  0  0
  186.6920  177.2360  137.3160 C   0  0  0  0  0  0  0  0  0  0  0  0
  188.4220  178.9150  138.1430 C   0  0  0  0  0  0  0  0  0  0  0  0
  189.0830  179.8950  137.7090 O   0  0  0  0  0  0  0  0  0  0  0  0
  184.3610  177.9300  137.6640 C   0  0  0  0  0  1  0  0  0  0  0  0
  185.2890  177.0390  136.8640 C   0  0  0  0  0  2  0  0  0  0  0  0
  187.4480  177.1140  142.6820 C   0  0  0  0  0  2  0  0  0  0  0  0
  186.2950  178.1080  142.5920 C   0  0  0  0  0  2  0  0  0  0  0  0
  185.5230  178.6590  146.1330 C   0  0  0  0  0  0  0  0  0  0  0  0
  183.4410  179.0890  143.3480 N   0  0  0  0  0  1  0  0  0  0  0  0
  185.8660  178.6060  147.4830 C   0  0  0  0  0  3  0  0  0  0  0  0
  187.1730  178.2010  147.8120 C   0  0  0  0  0  2  0  0  0  0  0  0
  187.7250  177.9180  145.4460 C   0  0  0  0  0  3  0  0  0  0  0  0
  184.4880  178.8640  144.2850 C   0  0  0  0  0  0  0  0  0  0  0  0
  184.3220  178.9930  145.6230 N   0  0  0  0  0  0  0  0  0  0  0  0
  188.0950  177.8590  146.8000 C   0  0  0  0  0  3  0  0  0  0  0  0
  185.7730  178.4590  143.9500 C   0  0  0  0  0  0  0  0  0  0  0  0
  186.4260  178.3280  145.1520 C   0  0  0  0  0  0  0  0  0  0  0  0
  190.2090  175.9990  142.8070 C   0  0  0  0  0  2  0  0  0  0  0  0
  191.5920  176.4760  143.2040 C   0  0  0  0  0  2  0  0  0  0  0  0
  191.4900  177.8540  143.8320 C   0  0  0  0  0  2  0  0  0  0  0  0
  191.3640  176.6620  145.8740 C   0  0  0  0  0  3  0  0  0  0  0  0
  191.6180  177.7620  145.2630 N   0  0  0  0  0  0  0  0  0  0  0  0
  191.5010  176.5700  147.3560 C   0  0  0  0  0  2  0  0  0  0  0  0
  192.6420  175.6410  147.7240 C   0  0  0  0  0  2  0  0  0  0  0  0
  193.1590  175.9970  149.1010 C   0  0  0  0  0  1  0  0  0  0  0  0
  1  5  1  0  0  0  0
  2 26  1  0  0  0  0
  3  4  1  0  0  0  0
  3  1  2  0  0  0  0
  4  6  2  0  0  0  0
  5  2  2  0  0  0  0
  5 14  1  0  0  0  0
  6  2  1  0  0  0  0
  8 10  1  0  0  0  0
  9  7  2  0  0  0  0
  9  8  1  0  0  0  0
 10  3  1  0  0  0  0
 11 10  2  0  0  0  0
 13  9  1  0  0  0  0
 13 12  1  0  0  0  0
 15 14  1  0  0  0  0
 15 24  1  0  0  0  0
 16 18  2  0  0  0  0
 17 21  1  0  0  0  0
 18 19  1  0  0  0  0
 20 23  2  0  0  0  0
 21 22  2  0  0  0  0
 22 16  1  0  0  0  0
 23 19  1  0  0  0  0
 24 21  1  0  0  0  0
 24 25  2  0  0  0  0
 25 20  1  0  0  0  0
 25 16  1  0  0  0  0
 26 27  1  0  0  0  0
 27 28  1  0  0  0  0
 28 30  1  0  0  0  0
 29 31  1  0  0  0  0
 30 29  2  0  0  0  0
 31 32  1  0  0  0  0
 32 33  1  0  0  0  0
M  END
>  <MODEL>
3

>  <REMARK>
 VINA RESULT:      -8.2      2.674      4.172
  Name = 
  11 active torsions:
  status: ('A' for Active; 'I' for Inactive)
    1  A    between atoms: C_1  and  C_10
    2  A    between atoms: C_1  and  N_26
    3  A    between atoms: C_6  and  C_8
    4  A    between atoms: C_7  and  C_15
    5  A    between atoms: C_7  and  C_25
    6  A    between atoms: C_8  and  C_10
    7  A    between atoms: C_11  and  C_19
    8  A    between atoms: C_12  and  C_16
    9  A    between atoms: C_15  and  C_32
   10  A    between atoms: C_17  and  C_29
   11  A    between atoms: C_21  and  C_29
                            x       y       z     vdW  Elec       q    Type
                         _______ _______ _______ _____ _____    ______ ____

>  <TORSDO>
F 11

$$$$
=
 OpenBabel10222417563D

 33 35  0  0  0  0  0  0  0  0999 V2000
  183.7470  178.7650  140.9020 C   0  0  0  0  0  3  0  0  0  0  0  0
  186.0380  178.5690  140.1260 C   0  0  0  0  0  0  0  0  0  0  0  0
  183.2730  178.4440  139.6250 C   0  0  0  0  0  0  0  0  0  0  0  0
  184.1940  178.1750  138.6040 C   0  0  0  0  0  3  0  0  0  0  0  0
  185.1210  178.8370  141.1610 C   0  0  0  0  0  0  0  0  0  0  0  0
  185.5660  178.2430  138.8510 C   0  0  0  0  0  3  0  0  0  0  0  0
  182.1520  181.1420  138.5770 N   0  0  0  0  0  2  0  0  0  0  0  0
  181.1600  179.0030  138.3110 N   0  0  0  0  0  2  0  0  0  0  0  0
  181.4750  180.3200  137.8430 C   0  0  0  0  0  0  0  0  0  0  0  0
  181.8190  178.3220  139.3880 C   0  0  0  0  0  0  0  0  0  0  0  0
  181.1390  177.5530  140.1190 O   0  0  0  0  0  0  0  0  0  0  0  0
  180.2580  182.1440  136.7350 C   0  0  0  0  0  1  0  0  0  0  0  0
  180.9120  180.7900  136.5490 C   0  0  0  0  0  2  0  0  0  0  0  0
  185.5720  179.1280  142.5600 C   0  0  0  0  0  2  0  0  0  0  0  0
  185.5210  177.8790  143.4330 C   0  0  0  0  0  2  0  0  0  0  0  0
  186.5760  178.3350  146.9140 C   0  0  0  0  0  0  0  0  0  0  0  0
  183.4840  179.0920  145.4480 N   0  0  0  0  0  1  0  0  0  0  0  0
  187.5070  178.1860  147.9400 C   0  0  0  0  0  3  0  0  0  0  0  0
  188.7630  177.6430  147.6120 C   0  0  0  0  0  2  0  0  0  0  0  0
  188.0990  177.4190  145.2680 C   0  0  0  0  0  3  0  0  0  0  0  0
  184.8190  178.7240  145.7770 C   0  0  0  0  0  0  0  0  0  0  0  0
  185.3190  178.8060  147.0330 N   0  0  0  0  0  0  0  0  0  0  0  0
  189.0560  177.2620  146.2850 C   0  0  0  0  0  3  0  0  0  0  0  0
  185.7420  178.2140  144.8740 C   0  0  0  0  0  0  0  0  0  0  0  0
  186.8670  177.9650  145.6240 C   0  0  0  0  0  0  0  0  0  0  0  0
  187.5130  178.6400  140.3520 C   0  0  0  0  0  2  0  0  0  0  0  0
  188.2390  177.8110  139.3110 C   0  0  0  0  0  2  0  0  0  0  0  0
  189.7230  177.7860  139.6310 C   0  0  0  0  0  2  0  0  0  0  0  0
  190.0880  176.9620  141.8210 C   0  0  0  0  0  3  0  0  0  0  0  0
  190.0150  176.7270  140.5610 N   0  0  0  0  0  0  0  0  0  0  0  0
  190.3870  175.8590  142.7800 C   0  0  0  0  0  2  0  0  0  0  0  0
  191.4750  176.2840  143.7480 C   0  0  0  0  0  2  0  0  0  0  0  0
  191.6660  177.7830  143.6650 C   0  0  0  0  0  1  0  0  0  0  0  0
  1  5  1  0  0  0  0
  2 26  1  0  0  0  0
  2  5  2  0  0  0  0
  3  1  2  0  0  0  0
  4  6  2  0  0  0  0
  4  3  1  0  0  0  0
  5 14  1  0  0  0  0
  6  2  1  0  0  0  0
  8 10  1  0  0  0  0
  9  8  1  0  0  0  0
  9  7  2  0  0  0  0
 10  3  1  0  0  0  0
 10 11  2  0  0  0  0
 13 12  1  0  0  0  0
 13  9  1  0  0  0  0
 14 15  1  0  0  0  0
 15 24  1  0  0  0  0
 16 22  1  0  0  0  0
 16 18  2  0  0  0  0
 17 21  1  0  0  0  0
 19 18  1  0  0  0  0
 20 25  1  0  0  0  0
 20 23  2  0  0  0  0
 21 22  2  0  0  0  0
 23 19  1  0  0  0  0
 24 25  2  0  0  0  0
 24 21  1  0  0  0  0
 25 16  1  0  0  0  0
 27 28  1  0  0  0  0
 27 26  1  0  0  0  0
 28 30  1  0  0  0  0
 29 31  1  0  0  0  0
 30 29  2  0  0  0  0
 31 32  1  0  0  0  0
 33 32  1  0  0  0  0
M  END
>  <MODEL>
4

>  <REMARK>
 VINA RESULT:      -8.1      1.462      2.237
  Name = 
  11 active torsions:
  status: ('A' for Active; 'I' for Inactive)
    1  A    between atoms: C_1  and  C_10
    2  A    between atoms: C_1  and  N_26
    3  A    between atoms: C_6  and  C_8
    4  A    between atoms: C_7  and  C_15
    5  A    between atoms: C_7  and  C_25
    6  A    between atoms: C_8  and  C_10
    7  A    between atoms: C_11  and  C_19
    8  A    between atoms: C_12  and  C_16
    9  A    between atoms: C_15  and  C_32
   10  A    between atoms: C_17  and  C_29
   11  A    between atoms: C_21  and  C_29
                            x       y       z     vdW  Elec       q    Type
                         _______ _______ _______ _____ _____    ______ ____

>  <TORSDO>
F 11

$$$$
=
 OpenBabel10222417563D

 33 35  0  0  0  0  0  0  0  0999 V2000
  189.9830  177.3960  140.8420 C   0  0  0  0  0  3  0  0  0  0  0  0
  187.8730  178.2470  139.9990 C   0  0  0  0  0  0  0  0  0  0  0  0
  190.5270  177.4300  139.5520 C   0  0  0  0  0  0  0  0  0  0  0  0
  189.7360  177.8870  138.4910 C   0  0  0  0  0  3  0  0  0  0  0  0
  188.6620  177.7940  141.0750 C   0  0  0  0  0  0  0  0  0  0  0  0
  188.4170  178.2870  138.7110 C   0  0  0  0  0  3  0  0  0  0  0  0
  190.6790  174.6930  138.0980 N   0  0  0  0  0  2  0  0  0  0  0  0
  192.3770  176.3470  138.1710 N   0  0  0  0  0  2  0  0  0  0  0  0
  191.6440  175.3140  137.5020 C   0  0  0  0  0  0  0  0  0  0  0  0
  191.9420  177.0550  139.3390 C   0  0  0  0  0  0  0  0  0  0  0  0
  192.8060  177.4150  140.1820 O   0  0  0  0  0  0  0  0  0  0  0  0
  193.3070  175.6410  135.7240 C   0  0  0  0  0  1  0  0  0  0  0  0
  192.0760  174.8670  136.1510 C   0  0  0  0  0  2  0  0  0  0  0  0
  188.1500  177.7900  142.4820 C   0  0  0  0  0  2  0  0  0  0  0  0
  188.5230  176.5000  143.2070 C   0  0  0  0  0  2  0  0  0  0  0  0
  189.4750  177.4830  146.6070 C   0  0  0  0  0  0  0  0  0  0  0  0
  191.5250  176.3400  144.0060 N   0  0  0  0  0  1  0  0  0  0  0  0
  189.1660  177.9990  147.8650 C   0  0  0  0  0  3  0  0  0  0  0  0
  187.8170  178.2930  148.1380 C   0  0  0  0  0  2  0  0  0  0  0  0
  187.1590  177.5530  145.9010 C   0  0  0  0  0  3  0  0  0  0  0  0
  190.4810  176.7440  144.8830 C   0  0  0  0  0  0  0  0  0  0  0  0
  190.7030  177.1680  146.1500 N   0  0  0  0  0  0  0  0  0  0  0  0
  186.8210  178.0710  147.1620 C   0  0  0  0  0  3  0  0  0  0  0  0
  189.1350  176.7850  144.5420 C   0  0  0  0  0  0  0  0  0  0  0  0
  188.5020  177.2670  145.6630 C   0  0  0  0  0  0  0  0  0  0  0  0
  186.4560  178.6760  140.1970 C   0  0  0  0  0  2  0  0  0  0  0  0
  185.6350  178.3430  138.9660 C   0  0  0  0  0  2  0  0  0  0  0  0
  184.1930  178.7570  139.1940 C   0  0  0  0  0  2  0  0  0  0  0  0
  182.9960  178.4810  141.2190 C   0  0  0  0  0  3  0  0  0  0  0  0
  183.9680  179.0350  140.5880 N   0  0  0  0  0  0  0  0  0  0  0  0
  182.7700  178.7700  142.6650 C   0  0  0  0  0  2  0  0  0  0  0  0
  184.0820  178.7190  143.4240 C   0  0  0  0  0  2  0  0  0  0  0  0
  183.8210  178.9470  144.8970 C   0  0  0  0  0  1  0  0  0  0  0  0
  1  5  1  0  0  0  0
  2 26  1  0  0  0  0
  2  5  2  0  0  0  0
  3  1  2  0  0  0  0
  4  6  2  0  0  0  0
  4  3  1  0  0  0  0
  5 14  1  0  0  0  0
  6  2  1  0  0  0  0
  8 10  1  0  0  0  0
  9  7  2  0  0  0  0
  9  8  1  0  0  0  0
 10  3  1  0  0  0  0
 10 11  2  0  0  0  0
 12 13  1  0  0  0  0
 13  9  1  0  0  0  0
 14 15  1  0  0  0  0
 15 24  1  0  0  0  0
 16 18  2  0  0  0  0
 17 21  1  0  0  0  0
 18 19  1  0  0  0  0
 20 23  2  0  0  0  0
 21 22  2  0  0  0  0
 22 16  1  0  0  0  0
 23 19  1  0  0  0  0
 24 21  1  0  0  0  0
 24 25  2  0  0  0  0
 25 20  1  0  0  0  0
 25 16  1  0  0  0  0
 27 28  1  0  0  0  0
 27 26  1  0  0  0  0
 28 30  1  0  0  0  0
 29 31  1  0  0  0  0
 30 29  2  0  0  0  0
 31 32  1  0  0  0  0
 32 33  1  0  0  0  0
M  END
>  <MODEL>
5

>  <REMARK>
 VINA RESULT:      -8.1      3.090      6.830
  Name = 
  11 active torsions:
  status: ('A' for Active; 'I' for Inactive)
    1  A    between atoms: C_1  and  C_10
    2  A    between atoms: C_1  and  N_26
    3  A    between atoms: C_6  and  C_8
    4  A    between atoms: C_7  and  C_15
    5  A    between atoms: C_7  and  C_25
    6  A    between atoms: C_8  and  C_10
    7  A    between atoms: C_11  and  C_19
    8  A    between atoms: C_12  and  C_16
    9  A    between atoms: C_15  and  C_32
   10  A    between atoms: C_17  and  C_29
   11  A    between atoms: C_21  and  C_29
                            x       y       z     vdW  Elec       q    Type
                         _______ _______ _______ _____ _____    ______ ____

>  <TORSDO>
F 11

$$$$
=
 OpenBabel10222417563D

 33 35  0  0  0  0  0  0  0  0999 V2000
  185.6670  178.5250  141.1850 C   0  0  0  0  0  3  0  0  0  0  0  0
  185.5030  178.1670  143.5800 C   0  0  0  0  0  0  0  0  0  0  0  0
  184.3160  178.8880  141.1330 C   0  0  0  0  0  0  0  0  0  0  0  0
  183.5670  178.8980  142.3180 C   0  0  0  0  0  3  0  0  0  0  0  0
  186.2660  178.1580  142.3960 C   0  0  0  0  0  0  0  0  0  0  0  0
  184.1540  178.5340  143.5310 C   0  0  0  0  0  3  0  0  0  0  0  0
  182.8440  176.5030  139.8000 N   0  0  0  0  0  2  0  0  0  0  0  0
  182.4670  178.8070  139.3800 N   0  0  0  0  0  2  0  0  0  0  0  0
  182.0130  177.4570  139.5290 C   0  0  0  0  0  0  0  0  0  0  0  0
  183.7180  179.3230  139.8530 C   0  0  0  0  0  0  0  0  0  0  0  0
  184.2960  180.2160  139.1780 O   0  0  0  0  0  0  0  0  0  0  0  0
  179.9790  176.4250  140.4420 C   0  0  0  0  0  1  0  0  0  0  0  0
  180.5900  177.1280  139.2470 C   0  0  0  0  0  2  0  0  0  0  0  0
  187.7280  177.8330  142.4020 C   0  0  0  0  0  2  0  0  0  0  0  0
  188.4840  178.6480  141.3560 C   0  0  0  0  0  2  0  0  0  0  0  0
  189.7390  176.4870  138.6750 C   0  0  0  0  0  0  0  0  0  0  0  0
  191.0900  177.0270  141.8620 N   0  0  0  0  0  1  0  0  0  0  0  0
  189.6190  175.9040  137.4140 C   0  0  0  0  0  3  0  0  0  0  0  0
  188.5260  176.2900  136.6160 C   0  0  0  0  0  3  0  0  0  0  0  0
  187.7300  177.8040  138.3650 C   0  0  0  0  0  3  0  0  0  0  0  0
  190.3580  177.0120  140.6420 C   0  0  0  0  0  0  0  0  0  0  0  0
  190.6940  176.2280  139.5900 N   0  0  0  0  0  2  0  0  0  0  0  0
  187.5880  177.2330  137.0890 C   0  0  0  0  0  3  0  0  0  0  0  0
  189.2140  177.7590  140.3990 C   0  0  0  0  0  0  0  0  0  0  0  0
  188.8260  177.4060  139.1290 C   0  0  0  0  0  0  0  0  0  0  0  0
  186.0960  177.7760  144.8940 C   0  0  0  0  0  2  0  0  0  0  0  0
  185.4810  178.6010  146.0080 C   0  0  0  0  0  2  0  0  0  0  0  0
  186.3220  178.4600  147.2640 C   0  0  0  0  0  2  0  0  0  0  0  0
  188.3600  177.3390  147.7090 C   0  0  0  0  0  3  0  0  0  0  0  0
  187.6680  178.0810  146.9230 N   0  0  0  0  0  0  0  0  0  0  0  0
  189.7530  176.9470  147.3490 C   0  0  0  0  0  2  0  0  0  0  0  0
  189.9930  177.1550  145.8660 C   0  0  0  0  0  2  0  0  0  0  0  0
  191.4210  176.7850  145.5290 C   0  0  0  0  0  1  0  0  0  0  0  0
  1  5  1  0  0  0  0
  2 26  1  0  0  0  0
  3  1  2  0  0  0  0
  3  4  1  0  0  0  0
  4  6  2  0  0  0  0
  5 14  1  0  0  0  0
  5  2  2  0  0  0  0
  6  2  1  0  0  0  0
  8  9  1  0  0  0  0
  8 10  1  0  0  0  0
  9  7  2  0  0  0  0
 10  3  1  0  0  0  0
 11 10  2  0  0  0  0
 13  9  1  0  0  0  0
 13 12  1  0  0  0  0
 15 14  1  0  0  0  0
 16 25  2  0  0  0  0
 16 22  1  0  0  0  0
 18 16  1  0  0  0  0
 19 23  1  0  0  0  0
 19 18  2  0  0  0  0
 20 25  1  0  0  0  0
 21 17  1  0  0  0  0
 22 21  1  0  0  0  0
 23 20  2  0  0  0  0
 24 21  2  0  0  0  0
 24 15  1  0  0  0  0
 25 24  1  0  0  0  0
 26 27  1  0  0  0  0
 27 28  1  0  0  0  0
 30 28  1  0  0  0  0
 30 29  2  0  0  0  0
 31 29  1  0  0  0  0
 32 31  1  0  0  0  0
 33 32  1  0  0  0  0
M  END
>  <MODEL>
6

>  <REMARK>
 VINA RESULT:      -8.1      1.673      5.831
  Name = 
  11 active torsions:
  status: ('A' for Active; 'I' for Inactive)
    1  A    between atoms: C_1  and  C_10
    2  A    between atoms: C_1  and  N_26
    3  A    between atoms: C_6  and  C_8
    4  A    between atoms: C_7  and  C_15
    5  A    between atoms: C_7  and  C_25
    6  A    between atoms: C_8  and  C_10
    7  A    between atoms: C_11  and  C_19
    8  A    between atoms: C_12  and  C_16
    9  A    between atoms: C_15  and  C_32
   10  A    between atoms: C_17  and  C_29
   11  A    between atoms: C_21  and  C_29
                            x       y       z     vdW  Elec       q    Type
                         _______ _______ _______ _____ _____    ______ ____

>  <TORSDO>
F 11

$$$$
=
 OpenBabel10222417563D

 33 35  0  0  0  0  0  0  0  0999 V2000
  188.4460  177.8260  139.6040 C   0  0  0  0  0  3  0  0  0  0  0  0
  190.1290  176.8960  141.0850 C   0  0  0  0  0  0  0  0  0  0  0  0
  189.2800  177.6110  138.5000 C   0  0  0  0  0  0  0  0  0  0  0  0
  190.5370  177.0250  138.6980 C   0  0  0  0  0  3  0  0  0  0  0  0
  188.8610  177.4800  140.8950 C   0  0  0  0  0  0  0  0  0  0  0  0
  190.9610  176.6760  139.9820 C   0  0  0  0  0  3  0  0  0  0  0  0
  187.9850  175.0980  137.2210 N   0  0  0  0  0  2  0  0  0  0  0  0
  187.6070  177.3530  136.5930 N   0  0  0  0  0  2  0  0  0  0  0  0
  187.1660  176.0060  136.8010 C   0  0  0  0  0  0  0  0  0  0  0  0
  188.7980  177.9350  137.1400 C   0  0  0  0  0  0  0  0  0  0  0  0
  189.4210  178.7890  136.4550 O   0  0  0  0  0  0  0  0  0  0  0  0
  184.9880  176.8590  136.0500 C   0  0  0  0  0  1  0  0  0  0  0  0
  185.7830  175.6210  136.4140 C   0  0  0  0  0  2  0  0  0  0  0  0
  187.9070  177.6800  142.0320 C   0  0  0  0  0  2  0  0  0  0  0  0
  187.3200  179.0880  142.0250 C   0  0  0  0  0  2  0  0  0  0  0  0
  183.7480  178.8310  142.8070 C   0  0  0  0  0  0  0  0  0  0  0  0
  185.2890  179.0480  139.6680 N   0  0  0  0  0  1  0  0  0  0  0  0
  182.7020  178.6740  143.7150 C   0  0  0  0  0  3  0  0  0  0  0  0
  183.0230  178.6290  145.0840 C   0  0  0  0  0  2  0  0  0  0  0  0
  185.4020  178.8920  144.5760 C   0  0  0  0  0  3  0  0  0  0  0  0
  184.9260  179.0010  141.0430 C   0  0  0  0  0  0  0  0  0  0  0  0
  183.6460  178.8670  141.4640 N   0  0  0  0  0  0  0  0  0  0  0  0
  184.3640  178.7380  145.5110 C   0  0  0  0  0  3  0  0  0  0  0  0
  185.8260  179.0540  142.1000 C   0  0  0  0  0  0  0  0  0  0  0  0
  185.0500  178.9380  143.2280 C   0  0  0  0  0  0  0  0  0  0  0  0
  190.6190  176.5170  142.4440 C   0  0  0  0  0  2  0  0  0  0  0  0
  191.6810  177.4950  142.9060 C   0  0  0  0  0  2  0  0  0  0  0  0
  191.2940  178.0550  144.2630 C   0  0  0  0  0  2  0  0  0  0  0  0
  189.3540  177.9060  145.6130 C   0  0  0  0  0  3  0  0  0  0  0  0
  190.1650  177.3390  144.7950 N   0  0  0  0  0  0  0  0  0  0  0  0
  188.1830  177.1600  146.1580 C   0  0  0  0  0  2  0  0  0  0  0  0
  187.6240  177.8730  147.3740 C   0  0  0  0  0  2  0  0  0  0  0  0
  188.6910  177.9570  148.4440 C   0  0  0  0  0  1  0  0  0  0  0  0
  1  5  1  0  0  0  0
  2 26  1  0  0  0  0
  3  4  1  0  0  0  0
  3  1  2  0  0  0  0
  4  6  2  0  0  0  0
  5  2  2  0  0  0  0
  5 14  1  0  0  0  0
  6  2  1  0  0  0  0
  8  9  1  0  0  0  0
  8 10  1  0  0  0  0
  9  7  2  0  0  0  0
 10  3  1  0  0  0  0
 11 10  2  0  0  0  0
 12 13  1  0  0  0  0
 13  9  1  0  0  0  0
 15 14  1  0  0  0  0
 15 24  1  0  0  0  0
 16 25  1  0  0  0  0
 16 18  2  0  0  0  0
 17 21  1  0  0  0  0
 18 19  1  0  0  0  0
 19 23  1  0  0  0  0
 20 23  2  0  0  0  0
 21 22  2  0  0  0  0
 21 24  1  0  0  0  0
 22 16  1  0  0  0  0
 24 25  2  0  0  0  0
 25 20  1  0  0  0  0
 26 27  1  0  0  0  0
 27 28  1  0  0  0  0
 28 30  1  0  0  0  0
 29 31  1  0  0  0  0
 30 29  2  0  0  0  0
 31 32  1  0  0  0  0
 32 33  1  0  0  0  0
M  END
>  <MODEL>
7

>  <REMARK>
 VINA RESULT:      -7.9      2.873      5.118
  Name = 
  11 active torsions:
  status: ('A' for Active; 'I' for Inactive)
    1  A    between atoms: C_1  and  C_10
    2  A    between atoms: C_1  and  N_26
    3  A    between atoms: C_6  and  C_8
    4  A    between atoms: C_7  and  C_15
    5  A    between atoms: C_7  and  C_25
    6  A    between atoms: C_8  and  C_10
    7  A    between atoms: C_11  and  C_19
    8  A    between atoms: C_12  and  C_16
    9  A    between atoms: C_15  and  C_32
   10  A    between atoms: C_17  and  C_29
   11  A    between atoms: C_21  and  C_29
                            x       y       z     vdW  Elec       q    Type
                         _______ _______ _______ _____ _____    ______ ____

>  <TORSDO>
F 11

$$$$
=
 OpenBabel10222417563D

 33 35  0  0  0  0  0  0  0  0999 V2000
  183.5690  178.6950  141.2340 C   0  0  0  0  0  3  0  0  0  0  0  0
  184.0700  179.0640  143.5790 C   0  0  0  0  0  0  0  0  0  0  0  0
  182.2320  178.4240  141.5480 C   0  0  0  0  0  0  0  0  0  0  0  0
  181.8200  178.4880  142.8860 C   0  0  0  0  0  3  0  0  0  0  0  0
  184.4930  179.0080  142.2370 C   0  0  0  0  0  0  0  0  0  0  0  0
  182.7330  178.7990  143.8940 C   0  0  0  0  0  3  0  0  0  0  0  0
  180.1400  180.7120  141.4090 N   0  0  0  0  0  2  0  0  0  0  0  0
  180.6890  179.1950  139.6710 N   0  0  0  0  0  2  0  0  0  0  0  0
  180.3130  180.4930  140.1460 C   0  0  0  0  0  0  0  0  0  0  0  0
  181.2620  178.1490  140.4670 C   0  0  0  0  0  0  0  0  0  0  0  0
  180.9680  176.9550  140.1950 O   0  0  0  0  0  0  0  0  0  0  0  0
  180.5290  181.1880  137.8000 C   0  0  0  0  0  1  0  0  0  0  0  0
  179.9980  181.5680  139.1680 C   0  0  0  0  0  2  0  0  0  0  0  0
  185.8980  179.3440  141.8380 C   0  0  0  0  0  2  0  0  0  0  0  0
  186.3000  178.6210  140.5560 C   0  0  0  0  0  2  0  0  0  0  0  0
  189.6550  177.3700  141.3410 C   0  0  0  0  0  0  0  0  0  0  0  0
  188.5470  178.9860  138.4360 N   0  0  0  0  0  1  0  0  0  0  0  0
  190.5720  176.7910  142.2170 C   0  0  0  0  0  3  0  0  0  0  0  0
  190.0980  176.3620  143.4710 C   0  0  0  0  0  2  0  0  0  0  0  0
  187.8360  177.1110  142.9200 C   0  0  0  0  0  3  0  0  0  0  0  0
  188.7230  178.3360  139.6900 C   0  0  0  0  0  0  0  0  0  0  0  0
  189.9190  177.8650  140.1160 N   0  0  0  0  0  0  0  0  0  0  0  0
  188.7400  176.5220  143.8200 C   0  0  0  0  0  3  0  0  0  0  0  0
  187.7150  178.1410  140.6250 C   0  0  0  0  0  0  0  0  0  0  0  0
  188.3340  177.5210  141.6840 C   0  0  0  0  0  0  0  0  0  0  0  0
  185.0210  179.3870  144.6860 C   0  0  0  0  0  2  0  0  0  0  0  0
  185.1340  178.2100  145.6340 C   0  0  0  0  0  2  0  0  0  0  0  0
  185.6560  178.6910  146.9760 C   0  0  0  0  0  2  0  0  0  0  0  0
  187.5980  178.2180  148.2470 C   0  0  0  0  0  3  0  0  0  0  0  0
  187.0620  178.4060  147.0950 N   0  0  0  0  0  0  0  0  0  0  0  0
  189.0550  177.9190  148.3640 C   0  0  0  0  0  2  0  0  0  0  0  0
  189.5110  177.0580  147.2020 C   0  0  0  0  0  2  0  0  0  0  0  0
  190.9870  176.7570  147.3480 C   0  0  0  0  0  1  0  0  0  0  0  0
  1  3  2  0  0  0  0
  1  5  1  0  0  0  0
  2  6  1  0  0  0  0
  2 26  1  0  0  0  0
  3  4  1  0  0  0  0
  4  6  2  0  0  0  0
  5  2  2  0  0  0  0
  8  9  1  0  0  0  0
  8 10  1  0  0  0  0
  9  7  2  0  0  0  0
 10  3  1  0  0  0  0
 11 10  2  0  0  0  0
 12 13  1  0  0  0  0
 13  9  1  0  0  0  0
 14  5  1  0  0  0  0
 15 24  1  0  0  0  0
 15 14  1  0  0  0  0
 16 25  1  0  0  0  0
 16 18  2  0  0  0  0
 17 21  1  0  0  0  0
 18 19  1  0  0  0  0
 19 23  1  0  0  0  0
 20 23  2  0  0  0  0
 21 22  2  0  0  0  0
 21 24  1  0  0  0  0
 22 16  1  0  0  0  0
 24 25  2  0  0  0  0
 25 20  1  0  0  0  0
 26 27  1  0  0  0  0
 27 28  1  0  0  0  0
 28 30  1  0  0  0  0
 29 31  1  0  0  0  0
 30 29  2  0  0  0  0
 32 33  1  0  0  0  0
 32 31  1  0  0  0  0
M  END
>  <MODEL>
8

>  <REMARK>
 VINA RESULT:      -7.9      2.117      5.276
  Name = 
  11 active torsions:
  status: ('A' for Active; 'I' for Inactive)
    1  A    between atoms: C_1  and  C_10
    2  A    between atoms: C_1  and  N_26
    3  A    between atoms: C_6  and  C_8
    4  A    between atoms: C_7  and  C_15
    5  A    between atoms: C_7  and  C_25
    6  A    between atoms: C_8  and  C_10
    7  A    between atoms: C_11  and  C_19
    8  A    between atoms: C_12  and  C_16
    9  A    between atoms: C_15  and  C_32
   10  A    between atoms: C_17  and  C_29
   11  A    between atoms: C_21  and  C_29
                            x       y       z     vdW  Elec       q    Type
                         _______ _______ _______ _____ _____    ______ ____

>  <TORSDO>
F 11

$$$$
=
 OpenBabel10222417563D

 33 35  0  0  0  0  0  0  0  0999 V2000
  191.4700  177.3460  141.1130 C   0  0  0  0  0  3  0  0  0  0  0  0
  189.1420  178.0260  141.2030 C   0  0  0  0  0  0  0  0  0  0  0  0
  191.3880  177.2050  139.7220 C   0  0  0  0  0  0  0  0  0  0  0  0
  190.1770  177.4890  139.0780 C   0  0  0  0  0  3  0  0  0  0  0  0
  190.3570  177.7480  141.8600 C   0  0  0  0  0  0  0  0  0  0  0  0
  189.0600  177.8900  139.8140 C   0  0  0  0  0  3  0  0  0  0  0  0
  190.7760  174.7190  137.9690 N   0  0  0  0  0  2  0  0  0  0  0  0
  192.5090  176.3000  137.6190 N   0  0  0  0  0  2  0  0  0  0  0  0
  191.5010  175.4000  137.1430 C   0  0  0  0  0  0  0  0  0  0  0  0
  192.5910  176.8320  138.9480 C   0  0  0  0  0  0  0  0  0  0  0  0
  193.7300  177.0360  139.4460 O   0  0  0  0  0  0  0  0  0  0  0  0
  190.5310  176.2440  135.0500 C   0  0  0  0  0  1  0  0  0  0  0  0
  191.3720  175.1540  135.6810 C   0  0  0  0  0  2  0  0  0  0  0  0
  190.5160  177.9370  143.3380 C   0  0  0  0  0  2  0  0  0  0  0  0
  190.1200  176.6810  144.1060 C   0  0  0  0  0  2  0  0  0  0  0  0
  188.3200  177.7540  147.1130 C   0  0  0  0  0  0  0  0  0  0  0  0
  191.6630  176.7530  146.8060 N   0  0  0  0  0  1  0  0  0  0  0  0
  187.1830  178.2530  147.7470 C   0  0  0  0  0  3  0  0  0  0  0  0
  186.0280  178.4450  146.9650 C   0  0  0  0  0  3  0  0  0  0  0  0
  187.1950  177.6440  144.9700 C   0  0  0  0  0  3  0  0  0  0  0  0
  190.2870  177.0820  146.6580 C   0  0  0  0  0  0  0  0  0  0  0  0
  189.5210  177.5300  147.6810 N   0  0  0  0  0  2  0  0  0  0  0  0
  186.0360  178.1430  145.5860 C   0  0  0  0  0  3  0  0  0  0  0  0
  189.5850  177.0190  145.4610 C   0  0  0  0  0  0  0  0  0  0  0  0
  188.3200  177.4590  145.7720 C   0  0  0  0  0  0  0  0  0  0  0  0
  187.9250  178.4500  141.9590 C   0  0  0  0  0  2  0  0  0  0  0  0
  186.7570  178.6250  141.0080 C   0  0  0  0  0  2  0  0  0  0  0  0
  185.5470  179.1190  141.7800 C   0  0  0  0  0  2  0  0  0  0  0  0
  183.8030  178.2640  140.4250 C   0  0  0  0  0  3  0  0  0  0  0  0
  184.4200  178.2530  141.5500 N   0  0  0  0  0  0  0  0  0  0  0  0
  182.6390  177.3620  140.1910 C   0  0  0  0  0  2  0  0  0  0  0  0
  182.9670  176.3460  139.1140 C   0  0  0  0  0  2  0  0  0  0  0  0
  183.7110  177.0290  137.9860 C   0  0  0  0  0  1  0  0  0  0  0  0
  1  5  1  0  0  0  0
  2  5  2  0  0  0  0
  2 26  1  0  0  0  0
  3  1  2  0  0  0  0
  4  3  1  0  0  0  0
  4  6  2  0  0  0  0
  5 14  1  0  0  0  0
  6  2  1  0  0  0  0
  8 10  1  0  0  0  0
  9  8  1  0  0  0  0
  9  7  2  0  0  0  0
 10 11  2  0  0  0  0
 10  3  1  0  0  0  0
 12 13  1  0  0  0  0
 13  9  1  0  0  0  0
 14 15  1  0  0  0  0
 15 24  1  0  0  0  0
 16 22  1  0  0  0  0
 16 18  1  0  0  0  0
 19 18  2  0  0  0  0
 20 23  2  0  0  0  0
 20 25  1  0  0  0  0
 21 17  1  0  0  0  0
 21 22  1  0  0  0  0
 23 19  1  0  0  0  0
 24 25  1  0  0  0  0
 24 21  2  0  0  0  0
 25 16  2  0  0  0  0
 27 28  1  0  0  0  0
 27 26  1  0  0  0  0
 29 30  2  0  0  0  0
 30 28  1  0  0  0  0
 31 29  1  0  0  0  0
 32 31  1  0  0  0  0
 33 32  1  0  0  0  0
M  END
>  <MODEL>
9

>  <REMARK>
 VINA RESULT:      -7.6      3.266      7.059
  Name = 
  11 active torsions:
  status: ('A' for Active; 'I' for Inactive)
    1  A    between atoms: C_1  and  C_10
    2  A    between atoms: C_1  and  N_26
    3  A    between atoms: C_6  and  C_8
    4  A    between atoms: C_7  and  C_15
    5  A    between atoms: C_7  and  C_25
    6  A    between atoms: C_8  and  C_10
    7  A    between atoms: C_11  and  C_19
    8  A    between atoms: C_12  and  C_16
    9  A    between atoms: C_15  and  C_32
   10  A    between atoms: C_17  and  C_29
   11  A    between atoms: C_21  and  C_29
                            x       y       z     vdW  Elec       q    Type
                         _______ _______ _______ _____ _____    ______ ____

>  <TORSDO>
F 11

$$$$
