=
 OpenBabel10222419163D

 35 39  0  0  1  0  0  0  0  0999 V2000
  192.2930  175.8320  136.0720 N   0  0  0  0  0  0  0  0  0  0  0  0
  189.3870  178.0340  137.7100 C   0  0  0  0  0  2  0  0  0  0  0  0
  183.9150  176.5200  137.0250 N   0  0  0  0  0  1  0  0  0  0  0  0
  190.0270  175.6940  136.9780 C   0  0  2  0  0  3  0  0  0  0  0  0
  186.9360  177.3740  135.4660 C   0  0  0  0  0  3  0  0  0  0  0  0
  190.5380  176.6480  134.7040 N   0  0  0  0  0  2  0  0  0  0  0  0
  192.8160  175.3130  137.3020 C   0  0  0  0  0  3  0  0  0  0  0  0
  184.3400  179.6020  139.9030 N   0  0  0  0  0  0  0  0  0  0  0  0
  185.0740  178.2150  138.4450 C   0  0  0  0  0  0  0  0  0  0  0  0
  190.6810  175.4960  138.2690 N   0  0  0  0  0  2  0  0  0  0  0  0
  185.6220  179.4860  140.0990 O   0  0  0  0  0  0  0  0  0  0  0  0
  186.1250  178.6350  139.2360 C   0  0  0  0  0  0  0  0  0  0  0  0
  191.0260  176.0680  135.9160 C   0  0  0  0  0  0  0  0  0  0  0  0
  192.0470  175.1730  138.3390 N   0  0  0  0  0  0  0  0  0  0  0  0
  185.0890  177.2700  137.3150 C   0  0  0  0  0  0  0  0  0  0  0  0
  183.9630  178.8280  138.8950 N   0  0  0  0  0  0  0  0  0  0  0  0
  189.1580  177.0220  134.5940 C   0  0  0  0  0  3  0  0  0  0  0  0
  188.9030  176.7370  137.0470 C   0  0  2  0  0  3  0  0  0  0  0  0
  188.2690  178.8760  138.1260 N   0  0  0  0  0  2  0  0  0  0  0  0
  188.3490  177.0230  135.6650 C   0  0  0  0  0  0  0  0  0  0  0  0
  187.5500  178.1850  139.1870 C   0  0  1  0  0  3  0  0  0  0  0  0
  186.0360  177.3190  136.4140 C   0  0  0  0  0  0  0  0  0  0  0  0
  188.2510  178.3670  140.5300 C   0  0  0  0  0  2  0  0  0  0  0  0
  188.9680  177.0870  140.9300 C   0  0  0  0  0  2  0  0  0  0  0  0
  189.8740  177.3510  141.9610 O   0  0  0  0  0  0  0  0  0  0  0  0
  188.7560  177.6790  144.6290 C   0  0  1  0  0  3  0  0  0  0  0  0
  189.7730  176.2540  142.8240 C   0  0  1  0  0  3  0  0  0  0  0  0
  191.1880  177.1100  144.7440 C   0  0  0  0  0  3  0  0  0  0  0  0
  191.0590  176.0910  143.6410 C   0  0  0  0  0  2  0  0  0  0  0  0
  190.1380  177.7940  145.2230 C   0  0  0  0  0  3  0  0  0  0  0  0
  188.5800  176.4250  143.7650 C   0  0  0  0  0  2  0  0  0  0  0  0
  186.4730  178.4040  145.4080 N   0  0  0  0  0  2  0  0  0  0  0  0
  185.4090  178.5000  146.3940 C   0  0  0  0  0  1  0  0  0  0  0  0
  187.7130  177.7530  145.6910 C   0  0  0  0  0  0  0  0  0  0  0  0
  187.9260  177.2490  146.8290 O   0  0  0  0  0  0  0  0  0  0  0  0
  1  7  1  0  0  0  0
  2 19  1  0  0  0  0
  3 15  1  0  0  0  0
  4 13  1  6  0  0  0
  4 18  1  0  0  0  0
  4 10  1  0  0  0  0
  5 20  1  0  0  0  0
  5 22  2  0  0  0  0
  6 13  1  0  0  0  0
  7 14  2  0  0  0  0
  8 11  1  0  0  0  0
  9 16  1  0  0  0  0
  9 12  2  0  0  0  0
 10 14  1  0  0  0  0
 12 11  1  0  0  0  0
 13  1  2  0  0  0  0
 15  9  1  0  0  0  0
 16  8  2  0  0  0  0
 17  6  1  0  0  0  0
 17 20  2  0  0  0  0
 18  2  1  6  0  0  0
 19 21  1  0  0  0  0
 20 18  1  0  0  0  0
 21 12  1  0  0  0  0
 21 23  1  1  0  0  0
 22 15  2  0  0  0  0
 23 24  1  0  0  0  0
 24 25  1  0  0  0  0
 26 30  1  0  0  0  0
 26 34  1  1  0  0  0
 27 25  1  6  0  0  0
 27 29  1  0  0  0  0
 27 31  1  0  0  0  0
 28 30  2  0  0  0  0
 29 28  1  0  0  0  0
 31 26  1  0  0  0  0
 32 34  1  0  0  0  0
 32 33  1  0  0  0  0
 34 35  2  0  0  0  0
M  END
>  <MODEL>
1

>  <REMARK>
 VINA RESULT:      -9.3      0.000      0.000
  Name = 
  5 active torsions:
  status: ('A' for Active; 'I' for Inactive)
    1  A    between atoms: C_2  and  C_22
    2  A    between atoms: C_6  and  O_20
    3  A    between atoms: C_18  and  O_20
    4  A    between atoms: C_18  and  C_24
    5  A    between atoms: C_24  and  C_34
                            x       y       z     vdW  Elec       q    Type
                         _______ _______ _______ _____ _____    ______ ____

>  <TORSDO>
F 5

$$$$
=
 OpenBabel10222419163D

 35 39  0  0  1  0  0  0  0  0999 V2000
  188.1110  177.4480  137.6030 N   0  0  0  0  0  0  0  0  0  0  0  0
  188.6810  176.4790  141.4380 C   0  0  0  0  0  2  0  0  0  0  0  0
  192.3860  179.4500  144.6240 N   0  0  0  0  0  1  0  0  0  0  0  0
  188.7270  178.3880  139.7740 C   0  0  2  0  0  3  0  0  0  0  0  0
  191.8920  177.5150  141.7440 C   0  0  0  0  0  3  0  0  0  0  0  0
  190.3070  177.0090  138.3810 N   0  0  0  0  0  2  0  0  0  0  0  0
  186.7800  177.9570  137.7610 C   0  0  0  0  0  3  0  0  0  0  0  0
  190.0390  176.8300  146.9860 N   0  0  0  0  0  0  0  0  0  0  0  0
  190.6750  177.7080  145.1390 C   0  0  0  0  0  0  0  0  0  0  0  0
  187.2900  178.5640  139.9740 N   0  0  0  0  0  2  0  0  0  0  0  0
  189.1110  176.5830  146.1070 O   0  0  0  0  0  0  0  0  0  0  0  0
  189.4440  177.1100  144.9530 C   0  0  0  0  0  0  0  0  0  0  0  0
  189.0070  177.5840  138.5330 C   0  0  0  0  0  0  0  0  0  0  0  0
  186.3990  178.4690  138.8920 N   0  0  0  0  0  0  0  0  0  0  0  0
  191.5060  178.4320  144.1620 C   0  0  0  0  0  0  0  0  0  0  0  0
  191.0180  177.5290  146.4290 N   0  0  0  0  0  0  0  0  0  0  0  0
  191.2430  177.0550  139.4660 C   0  0  0  0  0  3  0  0  0  0  0  0
  189.4120  177.7520  140.9910 C   0  0  2  0  0  3  0  0  0  0  0  0
  189.0710  176.0800  142.7890 N   0  0  0  0  0  2  0  0  0  0  0  0
  190.8670  177.4500  140.6930 C   0  0  0  0  0  0  0  0  0  0  0  0
  188.6040  177.1000  143.7170 C   0  0  1  0  0  3  0  0  0  0  0  0
  191.6660  177.9730  142.9480 C   0  0  0  0  0  0  0  0  0  0  0  0
  187.1230  176.9100  144.0360 C   0  0  0  0  0  2  0  0  0  0  0  0
  186.5650  178.1540  144.7110 C   0  0  0  0  0  2  0  0  0  0  0  0
  185.1690  178.1450  144.6450 O   0  0  0  0  0  0  0  0  0  0  0  0
  182.5250  178.5920  143.5130 C   0  0  1  0  0  3  0  0  0  0  0  0
  184.8200  179.4030  144.1430 C   0  0  1  0  0  3  0  0  0  0  0  0
  184.2910  178.7580  141.7500 C   0  0  0  0  0  3  0  0  0  0  0  0
  185.2130  179.5210  142.6670 C   0  0  0  0  0  2  0  0  0  0  0  0
  183.0580  178.3790  142.1170 C   0  0  0  0  0  3  0  0  0  0  0  0
  183.3180  179.6410  144.3000 C   0  0  0  0  0  2  0  0  0  0  0  0
  180.6370  180.0780  142.7570 N   0  0  0  0  0  2  0  0  0  0  0  0
  179.2350  180.4520  142.6750 C   0  0  0  0  0  1  0  0  0  0  0  0
  181.0720  178.9260  143.4820 C   0  0  0  0  0  0  0  0  0  0  0  0
  180.2380  178.2010  144.0910 O   0  0  0  0  0  0  0  0  0  0  0  0
  1  7  1  0  0  0  0
  1 13  2  0  0  0  0
  2 19  1  0  0  0  0
  4 13  1  6  0  0  0
  4 10  1  0  0  0  0
  4 18  1  0  0  0  0
  5 22  2  0  0  0  0
  6 13  1  0  0  0  0
  6 17  1  0  0  0  0
  7 14  2  0  0  0  0
  9 16  1  0  0  0  0
 11  8  1  0  0  0  0
 12  9  2  0  0  0  0
 12 11  1  0  0  0  0
 14 10  1  0  0  0  0
 15  3  1  0  0  0  0
 15  9  1  0  0  0  0
 16  8  2  0  0  0  0
 17 20  2  0  0  0  0
 18  2  1  6  0  0  0
 19 21  1  0  0  0  0
 20 18  1  0  0  0  0
 20  5  1  0  0  0  0
 21 23  1  1  0  0  0
 21 12  1  0  0  0  0
 22 15  2  0  0  0  0
 23 24  1  0  0  0  0
 25 24  1  0  0  0  0
 26 34  1  6  0  0  0
 26 31  1  0  0  0  0
 27 31  1  0  0  0  0
 27 25  1  6  0  0  0
 28 30  2  0  0  0  0
 28 29  1  0  0  0  0
 29 27  1  0  0  0  0
 30 26  1  0  0  0  0
 32 34  1  0  0  0  0
 33 32  1  0  0  0  0
 34 35  2  0  0  0  0
M  END
>  <MODEL>
2

>  <REMARK>
 VINA RESULT:      -8.9      3.323      6.831
  Name = 
  5 active torsions:
  status: ('A' for Active; 'I' for Inactive)
    1  A    between atoms: C_2  and  C_22
    2  A    between atoms: C_6  and  O_20
    3  A    between atoms: C_18  and  O_20
    4  A    between atoms: C_18  and  C_24
    5  A    between atoms: C_24  and  C_34
                            x       y       z     vdW  Elec       q    Type
                         _______ _______ _______ _____ _____    ______ ____

>  <TORSDO>
F 5

$$$$
=
 OpenBabel10222419163D

 35 39  0  0  1  0  0  0  0  0999 V2000
  191.7930  175.7090  135.9000 N   0  0  0  0  0  0  0  0  0  0  0  0
  189.6590  177.8840  138.4850 C   0  0  0  0  0  2  0  0  0  0  0  0
  183.9500  177.5440  138.4860 N   0  0  0  0  0  1  0  0  0  0  0  0
  189.6920  175.7330  137.1480 C   0  0  2  0  0  3  0  0  0  0  0  0
  186.8440  178.2390  136.6340 C   0  0  0  0  0  3  0  0  0  0  0  0
  190.0790  177.1310  135.0900 N   0  0  0  0  0  2  0  0  0  0  0  0
  192.3580  174.8140  136.8680 C   0  0  0  0  0  3  0  0  0  0  0  0
  185.3930  179.6790  141.8500 N   0  0  0  0  0  0  0  0  0  0  0  0
  185.6180  178.6020  140.0120 C   0  0  0  0  0  0  0  0  0  0  0  0
  190.4590  175.1060  138.2220 N   0  0  0  0  0  2  0  0  0  0  0  0
  186.6370  179.3010  141.7800 O   0  0  0  0  0  0  0  0  0  0  0  0
  186.8300  178.6240  140.6730 C   0  0  0  0  0  0  0  0  0  0  0  0
  190.5940  176.1880  136.0330 C   0  0  0  0  0  0  0  0  0  0  0  0
  191.7240  174.5490  137.9690 N   0  0  0  0  0  0  0  0  0  0  0  0
  185.2830  177.9860  138.7170 C   0  0  0  0  0  0  0  0  0  0  0  0
  184.7300  179.2600  140.7810 N   0  0  0  0  0  0  0  0  0  0  0  0
  188.8050  177.7480  135.3170 C   0  0  0  0  0  3  0  0  0  0  0  0
  188.8300  176.8990  137.6500 C   0  0  2  0  0  3  0  0  0  0  0  0
  188.8070  178.7710  139.2750 N   0  0  0  0  0  2  0  0  0  0  0  0
  188.1660  177.6160  136.4900 C   0  0  0  0  0  0  0  0  0  0  0  0
  188.1100  177.9660  140.2670 C   0  0  1  0  0  3  0  0  0  0  0  0
  186.0880  178.1000  137.6930 C   0  0  0  0  0  0  0  0  0  0  0  0
  189.0080  177.6810  141.4680 C   0  0  0  0  0  2  0  0  0  0  0  0
  188.2900  176.7830  142.4640 C   0  0  0  0  0  2  0  0  0  0  0  0
  189.1200  176.5270  143.5590 O   0  0  0  0  0  0  0  0  0  0  0  0
  190.1700  176.6990  146.2690 C   0  0  1  0  0  3  0  0  0  0  0  0
  189.3260  177.7740  144.1580 C   0  0  1  0  0  3  0  0  0  0  0  0
  187.8080  177.5180  146.1720 C   0  0  0  0  0  3  0  0  0  0  0  0
  188.0540  178.2430  144.8740 C   0  0  0  0  0  2  0  0  0  0  0  0
  188.7760  176.8580  146.8260 C   0  0  0  0  0  3  0  0  0  0  0  0
  190.4840  177.7020  145.1540 C   0  0  0  0  0  2  0  0  0  0  0  0
  192.1530  175.7160  147.4700 N   0  0  0  0  0  2  0  0  0  0  0  0
  193.1800  175.7240  148.4990 C   0  0  0  0  0  1  0  0  0  0  0  0
  191.1870  176.7640  147.3560 C   0  0  0  0  0  0  0  0  0  0  0  0
  191.1930  177.7300  148.1670 O   0  0  0  0  0  0  0  0  0  0  0  0
  1 13  2  0  0  0  0
  1  7  1  0  0  0  0
  2 19  1  0  0  0  0
  3 15  1  0  0  0  0
  4 13  1  6  0  0  0
  4 18  1  0  0  0  0
  4 10  1  0  0  0  0
  5 22  2  0  0  0  0
  6 17  1  0  0  0  0
  6 13  1  0  0  0  0
  7 14  2  0  0  0  0
  9 12  2  0  0  0  0
  9 16  1  0  0  0  0
 11  8  1  0  0  0  0
 12 11  1  0  0  0  0
 14 10  1  0  0  0  0
 15  9  1  0  0  0  0
 16  8  2  0  0  0  0
 17 20  2  0  0  0  0
 18  2  1  6  0  0  0
 19 21  1  0  0  0  0
 20  5  1  0  0  0  0
 20 18  1  0  0  0  0
 21 12  1  0  0  0  0
 21 23  1  1  0  0  0
 22 15  2  0  0  0  0
 23 24  1  0  0  0  0
 24 25  1  0  0  0  0
 26 30  1  0  0  0  0
 26 34  1  1  0  0  0
 27 25  1  1  0  0  0
 27 29  1  0  0  0  0
 27 31  1  0  0  0  0
 28 30  2  0  0  0  0
 29 28  1  0  0  0  0
 31 26  1  0  0  0  0
 32 33  1  0  0  0  0
 34 32  1  0  0  0  0
 34 35  2  0  0  0  0
M  END
>  <MODEL>
3

>  <REMARK>
 VINA RESULT:      -8.8      1.870      2.632
  Name = 
  5 active torsions:
  status: ('A' for Active; 'I' for Inactive)
    1  A    between atoms: C_2  and  C_22
    2  A    between atoms: C_6  and  O_20
    3  A    between atoms: C_18  and  O_20
    4  A    between atoms: C_18  and  C_24
    5  A    between atoms: C_24  and  C_34
                            x       y       z     vdW  Elec       q    Type
                         _______ _______ _______ _____ _____    ______ ____

>  <TORSDO>
F 5

$$$$
=
 OpenBabel10222419163D

 35 39  0  0  1  0  0  0  0  0999 V2000
  191.1450  177.3460  144.6950 N   0  0  0  0  0  0  0  0  0  0  0  0
  188.9480  178.6080  141.6040 C   0  0  0  0  0  2  0  0  0  0  0  0
  188.0820  175.1760  137.1120 N   0  0  0  0  0  1  0  0  0  0  0  0
  189.6720  176.5610  142.9090 C   0  0  2  0  0  3  0  0  0  0  0  0
  190.4270  176.7850  139.1620 C   0  0  0  0  0  3  0  0  0  0  0  0
  192.0550  177.2670  142.5080 N   0  0  0  0  0  2  0  0  0  0  0  0
  190.0630  177.2430  145.6310 C   0  0  0  0  0  3  0  0  0  0  0  0
  185.6170  178.6180  136.9510 N   0  0  0  0  0  0  0  0  0  0  0  0
  187.1250  177.3700  137.8200 C   0  0  0  0  0  0  0  0  0  0  0  0
  188.5860  176.8100  143.8550 N   0  0  0  0  0  2  0  0  0  0  0  0
  185.7550  178.9940  138.1910 O   0  0  0  0  0  0  0  0  0  0  0  0
  186.6640  178.2510  138.7770 C   0  0  0  0  0  0  0  0  0  0  0  0
  190.9790  177.0920  143.4320 C   0  0  0  0  0  0  0  0  0  0  0  0
  188.8550  177.0050  145.2200 N   0  0  0  0  0  0  0  0  0  0  0  0
  188.1580  176.3270  137.9460 C   0  0  0  0  0  0  0  0  0  0  0  0
  186.4400  177.6140  136.6870 N   0  0  0  0  0  0  0  0  0  0  0  0
  191.8260  177.1070  141.1020 C   0  0  0  0  0  3  0  0  0  0  0  0
  189.3780  177.1380  141.5170 C   0  0  2  0  0  3  0  0  0  0  0  0
  188.3080  179.0560  140.3700 N   0  0  0  0  0  2  0  0  0  0  0  0
  190.5820  176.9910  140.6090 C   0  0  0  0  0  0  0  0  0  0  0  0
  187.0550  178.3310  140.2180 C   0  0  1  0  0  3  0  0  0  0  0  0
  189.2760  176.5650  138.5810 C   0  0  0  0  0  0  0  0  0  0  0  0
  185.9550  178.9560  141.0720 C   0  0  0  0  0  2  0  0  0  0  0  0
  185.0260  177.8780  141.6100 C   0  0  0  0  0  2  0  0  0  0  0  0
  185.1200  177.8200  143.0040 O   0  0  0  0  0  0  0  0  0  0  0  0
  185.5120  178.4870  145.8100 C   0  0  1  0  0  3  0  0  0  0  0  0
  185.0680  179.1530  143.4260 C   0  0  1  0  0  3  0  0  0  0  0  0
  183.1670  178.9810  145.0940 C   0  0  0  0  0  3  0  0  0  0  0  0
  183.6300  179.5500  143.7770 C   0  0  0  0  0  2  0  0  0  0  0  0
  184.0200  178.5430  146.0320 C   0  0  0  0  0  3  0  0  0  0  0  0
  185.9740  179.3630  144.6400 C   0  0  0  0  0  2  0  0  0  0  0  0
  187.1700  177.8800  147.6050 N   0  0  0  0  0  2  0  0  0  0  0  0
  187.9300  178.1510  148.8140 C   0  0  0  0  0  1  0  0  0  0  0  0
  186.2480  178.8260  147.0610 C   0  0  0  0  0  0  0  0  0  0  0  0
  186.0560  179.9340  147.6330 O   0  0  0  0  0  0  0  0  0  0  0  0
  1  7  1  0  0  0  0
  3 15  1  0  0  0  0
  4 13  1  1  0  0  0
  4 10  1  0  0  0  0
  5 20  1  0  0  0  0
  6 13  1  0  0  0  0
  8 11  1  0  0  0  0
  9 15  1  0  0  0  0
  9 12  2  0  0  0  0
 10 14  1  0  0  0  0
 11 12  1  0  0  0  0
 12 21  1  0  0  0  0
 13  1  2  0  0  0  0
 14  7  2  0  0  0  0
 15 22  2  0  0  0  0
 16  8  2  0  0  0  0
 16  9  1  0  0  0  0
 17  6  1  0  0  0  0
 18  2  1  1  0  0  0
 18  4  1  0  0  0  0
 19  2  1  0  0  0  0
 20 17  2  0  0  0  0
 20 18  1  0  0  0  0
 21 19  1  0  0  0  0
 21 23  1  1  0  0  0
 22  5  2  0  0  0  0
 23 24  1  0  0  0  0
 24 25  1  0  0  0  0
 26 30  1  0  0  0  0
 26 34  1  1  0  0  0
 27 25  1  1  0  0  0
 27 29  1  0  0  0  0
 27 31  1  0  0  0  0
 28 30  2  0  0  0  0
 29 28  1  0  0  0  0
 31 26  1  0  0  0  0
 32 33  1  0  0  0  0
 34 32  1  0  0  0  0
 34 35  2  0  0  0  0
M  END
>  <MODEL>
4

>  <REMARK>
 VINA RESULT:      -8.5      2.481      5.224
  Name = 
  5 active torsions:
  status: ('A' for Active; 'I' for Inactive)
    1  A    between atoms: C_2  and  C_22
    2  A    between atoms: C_6  and  O_20
    3  A    between atoms: C_18  and  O_20
    4  A    between atoms: C_18  and  C_24
    5  A    between atoms: C_24  and  C_34
                            x       y       z     vdW  Elec       q    Type
                         _______ _______ _______ _____ _____    ______ ____

>  <TORSDO>
F 5

$$$$
=
 OpenBabel10222419163D

 35 39  0  0  1  0  0  0  0  0999 V2000
  188.8380  177.4130  136.9600 N   0  0  0  0  0  0  0  0  0  0  0  0
  188.9870  176.5130  140.8500 C   0  0  0  0  0  2  0  0  0  0  0  0
  192.4280  179.4570  144.3430 N   0  0  0  0  0  1  0  0  0  0  0  0
  189.2540  178.3840  139.1640 C   0  0  2  0  0  3  0  0  0  0  0  0
  192.1770  177.4740  141.4630 C   0  0  0  0  0  3  0  0  0  0  0  0
  190.9300  176.9350  137.9660 N   0  0  0  0  0  2  0  0  0  0  0  0
  187.5120  177.9600  136.9700 C   0  0  0  0  0  3  0  0  0  0  0  0
  189.7810  176.9480  146.5000 N   0  0  0  0  0  0  0  0  0  0  0  0
  190.6260  177.7700  144.7120 C   0  0  0  0  0  0  0  0  0  0  0  0
  187.8100  178.6010  139.2120 N   0  0  0  0  0  2  0  0  0  0  0  0
  188.9410  176.7060  145.5360 O   0  0  0  0  0  0  0  0  0  0  0  0
  189.4040  177.2000  144.4120 C   0  0  0  0  0  0  0  0  0  0  0  0
  189.6370  177.5470  137.9740 C   0  0  0  0  0  0  0  0  0  0  0  0
  187.0320  178.5050  138.0460 N   0  0  0  0  0  0  0  0  0  0  0  0
  191.5720  178.4520  143.8120 C   0  0  0  0  0  0  0  0  0  0  0  0
  190.8310  177.6100  146.0330 N   0  0  0  0  0  0  0  0  0  0  0  0
  191.7510  176.9810  139.1400 C   0  0  0  0  0  3  0  0  0  0  0  0
  189.7940  177.7570  140.4570 C   0  0  2  0  0  3  0  0  0  0  0  0
  189.2260  176.1340  142.2410 N   0  0  0  0  0  2  0  0  0  0  0  0
  191.2640  177.4120  140.3140 C   0  0  0  0  0  0  0  0  0  0  0  0
  188.6940  177.1850  143.0970 C   0  0  1  0  0  3  0  0  0  0  0  0
  191.8420  177.9620  142.6300 C   0  0  0  0  0  0  0  0  0  0  0  0
  187.1850  177.0400  143.2660 C   0  0  0  0  0  2  0  0  0  0  0  0
  186.4590  178.1240  142.4830 C   0  0  0  0  0  2  0  0  0  0  0  0
  185.0990  178.1140  142.8060 O   0  0  0  0  0  0  0  0  0  0  0  0
  185.3270  178.5850  145.6690 C   0  0  1  0  0  3  0  0  0  0  0  0
  184.8420  179.3830  143.3350 C   0  0  1  0  0  3  0  0  0  0  0  0
  182.9510  178.7940  144.9170 C   0  0  0  0  0  3  0  0  0  0  0  0
  183.3540  179.5360  143.6680 C   0  0  0  0  0  2  0  0  0  0  0  0
  183.8390  178.4050  145.8440 C   0  0  0  0  0  3  0  0  0  0  0  0
  185.6800  179.6160  144.5920 C   0  0  0  0  0  2  0  0  0  0  0  0
  186.8870  177.9820  147.5520 N   0  0  0  0  0  2  0  0  0  0  0  0
  187.5660  178.2490  148.8100 C   0  0  0  0  0  1  0  0  0  0  0  0
  185.9780  178.9180  146.9690 C   0  0  0  0  0  0  0  0  0  0  0  0
  185.7260  180.0100  147.5470 O   0  0  0  0  0  0  0  0  0  0  0  0
  1  7  1  0  0  0  0
  1 13  2  0  0  0  0
  2 19  1  0  0  0  0
  4 13  1  6  0  0  0
  4 10  1  0  0  0  0
  4 18  1  0  0  0  0
  5 22  2  0  0  0  0
  6 13  1  0  0  0  0
  6 17  1  0  0  0  0
  7 14  2  0  0  0  0
  9 16  1  0  0  0  0
 11  8  1  0  0  0  0
 12  9  2  0  0  0  0
 12 11  1  0  0  0  0
 14 10  1  0  0  0  0
 15  3  1  0  0  0  0
 15  9  1  0  0  0  0
 16  8  2  0  0  0  0
 17 20  2  0  0  0  0
 18  2  1  6  0  0  0
 19 21  1  0  0  0  0
 20 18  1  0  0  0  0
 20  5  1  0  0  0  0
 21 23  1  1  0  0  0
 21 12  1  0  0  0  0
 22 15  2  0  0  0  0
 24 25  1  0  0  0  0
 24 23  1  0  0  0  0
 26 30  1  0  0  0  0
 26 34  1  1  0  0  0
 27 25  1  1  0  0  0
 27 29  1  0  0  0  0
 27 31  1  0  0  0  0
 28 30  2  0  0  0  0
 29 28  1  0  0  0  0
 31 26  1  0  0  0  0
 32 33  1  0  0  0  0
 34 35  2  0  0  0  0
 34 32  1  0  0  0  0
M  END
>  <MODEL>
5

>  <REMARK>
 VINA RESULT:      -8.2      2.553      6.063
  Name = 
  5 active torsions:
  status: ('A' for Active; 'I' for Inactive)
    1  A    between atoms: C_2  and  C_22
    2  A    between atoms: C_6  and  O_20
    3  A    between atoms: C_18  and  O_20
    4  A    between atoms: C_18  and  C_24
    5  A    between atoms: C_24  and  C_34
                            x       y       z     vdW  Elec       q    Type
                         _______ _______ _______ _____ _____    ______ ____

>  <TORSDO>
F 5

$$$$
=
 OpenBabel10222419163D

 35 39  0  0  1  0  0  0  0  0999 V2000
  189.3190  177.3570  136.5200 N   0  0  0  0  0  0  0  0  0  0  0  0
  188.7050  176.8290  140.4330 C   0  0  0  0  0  2  0  0  0  0  0  0
  192.0200  179.5140  144.2410 N   0  0  0  0  0  1  0  0  0  0  0  0
  189.5500  178.4600  138.6890 C   0  0  2  0  0  3  0  0  0  0  0  0
  191.8790  177.3240  141.5080 C   0  0  0  0  0  3  0  0  0  0  0  0
  191.1150  176.6530  137.8960 N   0  0  0  0  0  2  0  0  0  0  0  0
  188.1220  178.1060  136.2670 C   0  0  0  0  0  3  0  0  0  0  0  0
  188.6780  177.6820  146.0910 N   0  0  0  0  0  0  0  0  0  0  0  0
  189.9180  178.1800  144.4180 C   0  0  0  0  0  0  0  0  0  0  0  0
  188.1760  178.9080  138.4760 N   0  0  0  0  0  2  0  0  0  0  0  0
  187.9670  177.4830  145.0180 O   0  0  0  0  0  0  0  0  0  0  0  0
  188.6780  177.7850  143.9570 C   0  0  0  0  0  0  0  0  0  0  0  0
  189.9620  177.4600  137.6420 C   0  0  0  0  0  0  0  0  0  0  0  0
  187.5830  178.8230  137.2060 N   0  0  0  0  0  0  0  0  0  0  0  0
  191.0960  178.6110  143.6450 C   0  0  0  0  0  0  0  0  0  0  0  0
  189.8850  178.1190  145.7630 N   0  0  0  0  0  0  0  0  0  0  0  0
  191.7390  176.6810  139.1860 C   0  0  0  0  0  3  0  0  0  0  0  0
  189.7660  177.8840  140.0950 C   0  0  2  0  0  3  0  0  0  0  0  0
  188.6560  176.5540  141.8670 N   0  0  0  0  0  2  0  0  0  0  0  0
  191.1580  177.2970  140.2280 C   0  0  0  0  0  0  0  0  0  0  0  0
  188.1890  177.7540  142.5450 C   0  0  1  0  0  3  0  0  0  0  0  0
  191.4570  177.9720  142.5630 C   0  0  0  0  0  0  0  0  0  0  0  0
  186.6690  177.8690  142.4660 C   0  0  0  0  0  2  0  0  0  0  0  0
  186.2730  179.1030  141.6690 C   0  0  0  0  0  2  0  0  0  0  0  0
  184.9420  179.4360  141.9380 O   0  0  0  0  0  0  0  0  0  0  0  0
  182.3150  178.6870  140.9320 C   0  0  1  0  0  3  0  0  0  0  0  0
  184.3440  178.2400  142.3480 C   0  0  1  0  0  3  0  0  0  0  0  0
  182.2270  179.1720  143.3840 C   0  0  0  0  0  3  0  0  0  0  0  0
  183.5310  178.4560  143.6290 C   0  0  0  0  0  2  0  0  0  0  0  0
  181.6540  179.2360  142.1730 C   0  0  0  0  0  3  0  0  0  0  0  0
  183.4380  177.6920  141.2460 C   0  0  0  0  0  2  0  0  0  0  0  0
  180.4330  177.0690  140.5040 N   0  0  0  0  0  2  0  0  0  0  0  0
  179.4180  176.4540  139.6650 C   0  0  0  0  0  1  0  0  0  0  0  0
  181.3050  178.0890  140.0130 C   0  0  0  0  0  0  0  0  0  0  0  0
  181.2250  178.4770  138.8150 O   0  0  0  0  0  0  0  0  0  0  0  0
  1 13  2  0  0  0  0
  2 19  1  0  0  0  0
  4 13  1  6  0  0  0
  4 18  1  0  0  0  0
  5 22  2  0  0  0  0
  6 17  1  0  0  0  0
  7  1  1  0  0  0  0
  7 14  2  0  0  0  0
  9 16  1  0  0  0  0
 10  4  1  0  0  0  0
 11  8  1  0  0  0  0
 12  9  2  0  0  0  0
 12 11  1  0  0  0  0
 13  6  1  0  0  0  0
 14 10  1  0  0  0  0
 15  3  1  0  0  0  0
 15  9  1  0  0  0  0
 16  8  2  0  0  0  0
 17 20  2  0  0  0  0
 18 20  1  0  0  0  0
 18  2  1  6  0  0  0
 19 21  1  0  0  0  0
 20  5  1  0  0  0  0
 21 23  1  1  0  0  0
 21 12  1  0  0  0  0
 22 15  2  0  0  0  0
 24 25  1  0  0  0  0
 24 23  1  0  0  0  0
 26 34  1  6  0  0  0
 26 31  1  0  0  0  0
 26 30  1  0  0  0  0
 27 25  1  6  0  0  0
 27 29  1  0  0  0  0
 28 29  1  0  0  0  0
 30 28  2  0  0  0  0
 31 27  1  0  0  0  0
 33 32  1  0  0  0  0
 34 32  1  0  0  0  0
 35 34  2  0  0  0  0
M  END
>  <MODEL>
6

>  <REMARK>
 VINA RESULT:      -8.2      3.039      6.687
  Name = 
  5 active torsions:
  status: ('A' for Active; 'I' for Inactive)
    1  A    between atoms: C_2  and  C_22
    2  A    between atoms: C_6  and  O_20
    3  A    between atoms: C_18  and  O_20
    4  A    between atoms: C_18  and  C_24
    5  A    between atoms: C_24  and  C_34
                            x       y       z     vdW  Elec       q    Type
                         _______ _______ _______ _____ _____    ______ ____

>  <TORSDO>
F 5

$$$$
=
 OpenBabel10222419163D

 35 39  0  0  1  0  0  0  0  0999 V2000
  191.7860  177.5120  141.1050 N   0  0  0  0  0  0  0  0  0  0  0  0
  188.2590  178.5270  139.5230 C   0  0  0  0  0  2  0  0  0  0  0  0
  185.1510  174.6330  136.7150 N   0  0  0  0  0  1  0  0  0  0  0  0
  189.5920  176.6120  140.5100 C   0  0  2  0  0  3  0  0  0  0  0  0
  188.2130  176.3230  136.9500 C   0  0  0  0  0  3  0  0  0  0  0  0
  191.3790  177.1050  138.8060 N   0  0  0  0  0  2  0  0  0  0  0  0
  191.3780  177.5970  142.4780 C   0  0  0  0  0  3  0  0  0  0  0  0
  182.9490  178.1840  137.4170 N   0  0  0  0  0  0  0  0  0  0  0  0
  184.7010  176.9550  137.5100 C   0  0  0  0  0  0  0  0  0  0  0  0
  189.1830  177.0470  141.8440 N   0  0  0  0  0  2  0  0  0  0  0  0
  183.7280  178.6990  138.3250 O   0  0  0  0  0  0  0  0  0  0  0  0
  184.8170  177.9760  138.4330 C   0  0  0  0  0  0  0  0  0  0  0  0
  190.9700  177.1160  140.1750 C   0  0  0  0  0  0  0  0  0  0  0  0
  190.1410  177.3900  142.8120 N   0  0  0  0  0  0  0  0  0  0  0  0
  185.6510  175.8700  137.2100 C   0  0  0  0  0  0  0  0  0  0  0  0
  183.5120  177.1020  136.8970 N   0  0  0  0  0  0  0  0  0  0  0  0
  190.4310  176.7890  137.7780 C   0  0  0  0  0  3  0  0  0  0  0  0
  188.5900  177.0320  139.4260 C   0  0  2  0  0  3  0  0  0  0  0  0
  187.0510  178.8610  138.7720 N   0  0  0  0  0  2  0  0  0  0  0  0
  189.1190  176.6950  138.0450 C   0  0  0  0  0  0  0  0  0  0  0  0
  185.9210  178.2060  139.4160 C   0  0  1  0  0  3  0  0  0  0  0  0
  186.9320  176.1100  137.1100 C   0  0  0  0  0  0  0  0  0  0  0  0
  185.4460  179.0030  140.6280 C   0  0  0  0  0  2  0  0  0  0  0  0
  184.3940  178.2180  141.3970 C   0  0  0  0  0  2  0  0  0  0  0  0
  184.9030  177.8320  142.6400 O   0  0  0  0  0  0  0  0  0  0  0  0
  186.2840  177.7510  145.2010 C   0  0  1  0  0  3  0  0  0  0  0  0
  185.4120  179.0060  143.2050 C   0  0  1  0  0  3  0  0  0  0  0  0
  184.1270  179.0030  145.3900 C   0  0  0  0  0  3  0  0  0  0  0  0
  184.3480  179.6930  144.0680 C   0  0  0  0  0  2  0  0  0  0  0  0
  185.0240  178.1600  145.9240 C   0  0  0  0  0  3  0  0  0  0  0  0
  186.6470  178.6980  144.0520 C   0  0  0  0  0  2  0  0  0  0  0  0
  187.2450  178.0080  147.5150 N   0  0  0  0  0  2  0  0  0  0  0  0
  188.3050  177.8780  148.5010 C   0  0  0  0  0  1  0  0  0  0  0  0
  187.4200  177.6030  146.1560 C   0  0  0  0  0  0  0  0  0  0  0  0
  188.5220  177.1280  145.7670 O   0  0  0  0  0  0  0  0  0  0  0  0
  1  7  1  0  0  0  0
  3 15  1  0  0  0  0
  4 13  1  6  0  0  0
  4 10  1  0  0  0  0
  5 22  2  0  0  0  0
  5 20  1  0  0  0  0
  6 13  1  0  0  0  0
  7 14  2  0  0  0  0
  8 11  1  0  0  0  0
  9 12  2  0  0  0  0
 10 14  1  0  0  0  0
 11 12  1  0  0  0  0
 12 21  1  0  0  0  0
 13  1  2  0  0  0  0
 15  9  1  0  0  0  0
 16  8  2  0  0  0  0
 16  9  1  0  0  0  0
 17 20  2  0  0  0  0
 17  6  1  0  0  0  0
 18  2  1  6  0  0  0
 18  4  1  0  0  0  0
 19 21  1  0  0  0  0
 19  2  1  0  0  0  0
 20 18  1  0  0  0  0
 21 23  1  1  0  0  0
 22 15  2  0  0  0  0
 23 24  1  0  0  0  0
 24 25  1  0  0  0  0
 26 30  1  0  0  0  0
 26 34  1  1  0  0  0
 27 25  1  1  0  0  0
 27 31  1  0  0  0  0
 27 29  1  0  0  0  0
 28 30  2  0  0  0  0
 29 28  1  0  0  0  0
 31 26  1  0  0  0  0
 32 33  1  0  0  0  0
 34 32  1  0  0  0  0
 35 34  2  0  0  0  0
M  END
>  <MODEL>
7

>  <REMARK>
 VINA RESULT:      -8.2      2.135      3.760
  Name = 
  5 active torsions:
  status: ('A' for Active; 'I' for Inactive)
    1  A    between atoms: C_2  and  C_22
    2  A    between atoms: C_6  and  O_20
    3  A    between atoms: C_18  and  O_20
    4  A    between atoms: C_18  and  C_24
    5  A    between atoms: C_24  and  C_34
                            x       y       z     vdW  Elec       q    Type
                         _______ _______ _______ _____ _____    ______ ____

>  <TORSDO>
F 5

$$$$
=
 OpenBabel10222419163D

 35 39  0  0  1  0  0  0  0  0999 V2000
  189.1770  177.7890  146.2200 N   0  0  0  0  0  0  0  0  0  0  0  0
  188.7900  178.7230  142.3540 C   0  0  0  0  0  2  0  0  0  0  0  0
  190.9270  175.2530  138.3410 N   0  0  0  0  0  1  0  0  0  0  0  0
  188.9990  176.8010  143.9920 C   0  0  2  0  0  3  0  0  0  0  0  0
  191.5780  177.1910  141.1890 C   0  0  0  0  0  3  0  0  0  0  0  0
  191.1060  177.8840  144.8460 N   0  0  0  0  0  2  0  0  0  0  0  0
  187.7920  177.5020  146.4580 C   0  0  0  0  0  3  0  0  0  0  0  0
  188.4570  178.2580  136.6610 N   0  0  0  0  0  0  0  0  0  0  0  0
  189.4390  177.2570  138.2790 C   0  0  0  0  0  0  0  0  0  0  0  0
  187.5550  176.8610  144.2090 N   0  0  0  0  0  2  0  0  0  0  0  0
  187.8650  178.6350  137.7580 O   0  0  0  0  0  0  0  0  0  0  0  0
  188.4220  178.0400  138.7860 C   0  0  0  0  0  0  0  0  0  0  0  0
  189.7410  177.5270  145.0810 C   0  0  0  0  0  0  0  0  0  0  0  0
  187.0320  177.0790  145.4940 N   0  0  0  0  0  0  0  0  0  0  0  0
  190.3860  176.3910  139.0030 C   0  0  0  0  0  0  0  0  0  0  0  0
  189.4290  177.4020  136.9400 N   0  0  0  0  0  0  0  0  0  0  0  0
  191.6780  177.7080  143.5440 C   0  0  0  0  0  3  0  0  0  0  0  0
  189.4060  177.3410  142.6140 C   0  0  2  0  0  3  0  0  0  0  0  0
  188.8420  179.0780  140.9380 N   0  0  0  0  0  2  0  0  0  0  0  0
  190.9150  177.4000  142.4830 C   0  0  0  0  0  0  0  0  0  0  0  0
  187.9760  178.1630  140.2080 C   0  0  1  0  0  3  0  0  0  0  0  0
  190.9520  176.7970  140.1090 C   0  0  0  0  0  0  0  0  0  0  0  0
  186.5160  178.5930  140.3120 C   0  0  0  0  0  2  0  0  0  0  0  0
  186.2800  179.3530  141.6090 C   0  0  0  0  0  2  0  0  0  0  0  0
  184.9080  179.5190  141.8200 O   0  0  0  0  0  0  0  0  0  0  0  0
  182.0660  178.8920  141.7560 C   0  0  1  0  0  3  0  0  0  0  0  0
  184.4520  178.2660  142.2430 C   0  0  1  0  0  3  0  0  0  0  0  0
  182.9040  179.0010  144.1110 C   0  0  0  0  0  3  0  0  0  0  0  0
  184.1750  178.2750  143.7510 C   0  0  0  0  0  2  0  0  0  0  0  0
  181.9300  179.2390  143.2190 C   0  0  0  0  0  3  0  0  0  0  0  0
  183.1820  177.8780  141.4860 C   0  0  0  0  0  2  0  0  0  0  0  0
  180.7560  177.3520  140.2550 N   0  0  0  0  0  2  0  0  0  0  0  0
  179.5230  176.8400  139.6820 C   0  0  0  0  0  1  0  0  0  0  0  0
  180.7650  178.4260  141.1980 C   0  0  0  0  0  0  0  0  0  0  0  0
  179.6860  178.9760  141.5510 O   0  0  0  0  0  0  0  0  0  0  0  0
  1  7  1  0  0  0  0
  3 15  1  0  0  0  0
  4 10  1  1  0  0  0
  4 13  1  0  0  0  0
  5 20  1  0  0  0  0
  6 13  1  0  0  0  0
  8 16  2  0  0  0  0
  8 11  1  0  0  0  0
  9 12  2  0  0  0  0
  9 15  1  0  0  0  0
 10 14  1  0  0  0  0
 11 12  1  0  0  0  0
 12 21  1  0  0  0  0
 13  1  2  0  0  0  0
 14  7  2  0  0  0  0
 15 22  2  0  0  0  0
 16  9  1  0  0  0  0
 17  6  1  0  0  0  0
 18  2  1  1  0  0  0
 18  4  1  0  0  0  0
 19  2  1  0  0  0  0
 20 18  1  0  0  0  0
 20 17  2  0  0  0  0
 21 23  1  6  0  0  0
 21 19  1  0  0  0  0
 22  5  2  0  0  0  0
 23 24  1  0  0  0  0
 24 25  1  0  0  0  0
 26 34  1  1  0  0  0
 26 30  1  0  0  0  0
 27 25  1  6  0  0  0
 27 29  1  0  0  0  0
 29 28  1  0  0  0  0
 30 28  2  0  0  0  0
 31 26  1  0  0  0  0
 31 27  1  0  0  0  0
 32 34  1  0  0  0  0
 33 32  1  0  0  0  0
 34 35  2  0  0  0  0
M  END
>  <MODEL>
8

>  <REMARK>
 VINA RESULT:      -8.1      2.955      7.094
  Name = 
  5 active torsions:
  status: ('A' for Active; 'I' for Inactive)
    1  A    between atoms: C_2  and  C_22
    2  A    between atoms: C_6  and  O_20
    3  A    between atoms: C_18  and  O_20
    4  A    between atoms: C_18  and  C_24
    5  A    between atoms: C_24  and  C_34
                            x       y       z     vdW  Elec       q    Type
                         _______ _______ _______ _____ _____    ______ ____

>  <TORSDO>
F 5

$$$$
=
 OpenBabel10222419163D

 35 39  0  0  1  0  0  0  0  0999 V2000
  189.3020  177.2810  136.0780 N   0  0  0  0  0  0  0  0  0  0  0  0
  186.3150  178.6930  138.3270 C   0  0  0  0  0  2  0  0  0  0  0  0
  181.7070  175.4570  139.3290 N   0  0  0  0  0  1  0  0  0  0  0  0
  187.5180  176.5860  137.5990 C   0  0  2  0  0  3  0  0  0  0  0  0
  183.7680  176.9560  136.9220 C   0  0  0  0  0  3  0  0  0  0  0  0
  187.0940  177.2820  135.2160 N   0  0  0  0  0  2  0  0  0  0  0  0
  190.2570  177.1520  137.1400 C   0  0  0  0  0  3  0  0  0  0  0  0
  181.7410  178.9290  141.7580 N   0  0  0  0  0  0  0  0  0  0  0  0
  182.5240  177.6300  140.2450 C   0  0  0  0  0  0  0  0  0  0  0  0
  188.4970  176.8080  138.6600 N   0  0  0  0  0  2  0  0  0  0  0  0
  182.9920  179.2520  141.5880 O   0  0  0  0  0  0  0  0  0  0  0  0
  183.5270  178.4760  140.6760 C   0  0  0  0  0  0  0  0  0  0  0  0
  188.0340  177.0810  136.2740 C   0  0  0  0  0  0  0  0  0  0  0  0
  189.8630  176.9430  138.3600 N   0  0  0  0  0  0  0  0  0  0  0  0
  182.5840  176.5720  139.2220 C   0  0  0  0  0  0  0  0  0  0  0  0
  181.4170  177.9280  140.9520 N   0  0  0  0  0  0  0  0  0  0  0  0
  185.6880  177.1840  135.4780 C   0  0  0  0  0  3  0  0  0  0  0  0
  186.1580  177.2230  137.9160 C   0  0  2  0  0  3  0  0  0  0  0  0
  185.1140  179.1980  138.9880 N   0  0  0  0  0  2  0  0  0  0  0  0
  185.2180  177.1010  136.7330 C   0  0  0  0  0  0  0  0  0  0  0  0
  184.9610  178.4930  140.2530 C   0  0  1  0  0  3  0  0  0  0  0  0
  183.2040  176.7720  138.0880 C   0  0  0  0  0  0  0  0  0  0  0  0
  185.8640  179.0940  141.3260 C   0  0  0  0  0  2  0  0  0  0  0  0
  186.5190  177.9900  142.1440 C   0  0  0  0  0  2  0  0  0  0  0  0
  187.9110  178.1020  142.0640 O   0  0  0  0  0  0  0  0  0  0  0  0
  189.1360  177.8230  144.6900 C   0  0  1  0  0  3  0  0  0  0  0  0
  188.3990  176.8610  142.4870 C   0  0  1  0  0  3  0  0  0  0  0  0
  190.8250  177.4850  142.8760 C   0  0  0  0  0  3  0  0  0  0  0  0
  189.8560  176.6790  142.0490 C   0  0  0  0  0  2  0  0  0  0  0  0
  190.5140  177.9630  144.0910 C   0  0  0  0  0  3  0  0  0  0  0  0
  188.2970  176.7380  144.0080 C   0  0  0  0  0  2  0  0  0  0  0  0
  188.0660  177.8480  146.9690 N   0  0  0  0  0  2  0  0  0  0  0  0
  188.0720  177.6360  148.4080 C   0  0  0  0  0  1  0  0  0  0  0  0
  189.2170  177.5980  146.1610 C   0  0  0  0  0  0  0  0  0  0  0  0
  190.2910  177.1940  146.6860 O   0  0  0  0  0  0  0  0  0  0  0  0
  1 13  2  0  0  0  0
  1  7  1  0  0  0  0
  2 19  1  0  0  0  0
  4 13  1  6  0  0  0
  4 18  1  0  0  0  0
  4 10  1  0  0  0  0
  5 22  2  0  0  0  0
  6 17  1  0  0  0  0
  6 13  1  0  0  0  0
  7 14  2  0  0  0  0
  9 12  2  0  0  0  0
  9 16  1  0  0  0  0
 11  8  1  0  0  0  0
 12 11  1  0  0  0  0
 14 10  1  0  0  0  0
 15  3  1  0  0  0  0
 15  9  1  0  0  0  0
 16  8  2  0  0  0  0
 17 20  2  0  0  0  0
 18  2  1  6  0  0  0
 19 21  1  0  0  0  0
 20  5  1  0  0  0  0
 20 18  1  0  0  0  0
 21 12  1  0  0  0  0
 21 23  1  1  0  0  0
 22 15  2  0  0  0  0
 23 24  1  0  0  0  0
 25 24  1  0  0  0  0
 26 34  1  1  0  0  0
 27 25  1  1  0  0  0
 27 31  1  0  0  0  0
 28 30  2  0  0  0  0
 29 27  1  0  0  0  0
 29 28  1  0  0  0  0
 30 26  1  0  0  0  0
 31 26  1  0  0  0  0
 32 33  1  0  0  0  0
 34 35  2  0  0  0  0
 34 32  1  0  0  0  0
M  END
>  <MODEL>
9

>  <REMARK>
 VINA RESULT:      -8.0      2.098      2.826
  Name = 
  5 active torsions:
  status: ('A' for Active; 'I' for Inactive)
    1  A    between atoms: C_2  and  C_22
    2  A    between atoms: C_6  and  O_20
    3  A    between atoms: C_18  and  O_20
    4  A    between atoms: C_18  and  C_24
    5  A    between atoms: C_24  and  C_34
                            x       y       z     vdW  Elec       q    Type
                         _______ _______ _______ _____ _____    ______ ____

>  <TORSDO>
F 5

$$$$
