=
 OpenBabel10222415413D

 40 45  0  0  1  0  0  0  0  0999 V2000
  189.7270  176.7980  140.2070 C   0  0  1  0  0  3  0  0  0  0  0  0
  191.8590  176.8040  139.3090 C   0  0  0  0  0  0  0  0  0  0  0  0
  189.7720  176.5860  137.9300 C   0  0  0  0  0  0  0  0  0  0  0  0
  190.5300  176.1540  139.1410 C   0  0  2  0  0  3  0  0  0  0  0  0
  192.7280  176.7440  138.4550 O   0  0  0  0  0  0  0  0  0  0  0  0
  188.6970  177.2660  138.2940 C   0  0  0  0  0  0  0  0  0  0  0  0
  192.1460  177.5970  140.9010 S   0  0  0  0  0  0  0  0  0  0  0  0
  190.1070  176.1980  136.5300 C   0  0  0  0  0  1  0  0  0  0  0  0
  190.4460  177.1930  141.4460 C   0  0  2  0  0  3  0  0  0  0  0  0
  188.6920  177.4790  139.7310 C   0  0  0  0  0  2  0  0  0  0  0  0
  186.3870  177.7960  136.7400 C   0  0  1  0  0  3  0  0  0  0  0  0
  187.2580  178.8150  136.4090 C   0  0  0  0  0  2  0  0  0  0  0  0
  187.7290  177.8020  137.3960 N   0  0  0  0  0  0  0  0  0  0  0  0
  184.0250  177.7560  137.6470 N   0  0  0  0  0  2  0  0  0  0  0  0
  185.3560  178.2780  137.7090 C   0  0  0  0  0  0  0  0  0  0  0  0
  185.6720  179.1160  138.5960 O   0  0  0  0  0  0  0  0  0  0  0  0
  182.4210  175.8730  139.5140 C   0  0  0  0  0  2  0  0  0  0  0  0
  180.9460  176.0340  139.1700 C   0  0  0  0  0  2  0  0  0  0  0  0
  182.9810  178.1500  138.5840 C   0  0  1  0  0  3  0  0  0  0  0  0
  181.6460  178.1020  137.8950 C   0  0  0  0  0  0  0  0  0  0  0  0
  181.3260  179.0180  137.0940 O   0  0  0  0  0  0  0  0  0  0  0  0
  183.0100  177.2450  139.8210 C   0  0  0  0  0  2  0  0  0  0  0  0
  180.7730  176.9810  138.0730 N   0  0  0  0  0  2  0  0  0  0  0  0
  190.5040  176.0330  142.4300 C   0  0  0  0  0  2  0  0  0  0  0  0
  189.8130  177.7290  144.1030 C   0  0  1  0  0  3  0  0  0  0  0  0
  188.1930  176.2160  143.2340 C   0  0  0  0  0  2  0  0  0  0  0  0
  189.6300  176.2940  143.6450 C   0  0  1  0  0  3  0  0  0  0  0  0
  188.6190  178.4440  143.8890 O   0  0  0  0  0  0  0  0  0  0  0  0
  187.5960  177.4860  143.7800 C   0  0  1  0  0  3  0  0  0  0  0  0
  190.9060  176.3300  147.3300 N   0  0  0  0  0  1  0  0  0  0  0  0
  190.1920  177.7700  145.5780 C   0  0  1  0  0  3  0  0  0  0  0  0
  191.0040  176.6030  145.9070 C   0  0  1  0  0  3  0  0  0  0  0  0
  191.6520  177.9060  145.7070 N   0  0  0  0  0  2  0  0  0  0  0  0
  186.5230  177.9780  142.8580 C   0  0  0  0  0  3  0  0  0  0  0  0
  185.3090  178.3610  143.2780 C   0  0  0  0  0  3  0  0  0  0  0  0
  184.8840  178.3220  144.7160 C   0  0  1  0  0  3  0  0  0  0  0  0
  185.8400  178.8150  146.9670 C   0  0  0  0  0  1  0  0  0  0  0  0
  185.7370  179.2860  145.5280 C   0  0  0  0  0  2  0  0  0  0  0  0
  182.9670  179.5000  143.8400 O   0  0  0  0  0  1  0  0  0  0  0  0
  183.3950  178.6430  144.8580 C   0  0  0  0  0  2  0  0  0  0  0  0
  1 10  1  6  0  0  0
  1  9  1  0  0  0  0
  2  7  1  0  0  0  0
  3  6  2  0  0  0  0
  4  3  1  6  0  0  0
  4  2  1  0  0  0  0
  4  1  1  0  0  0  0
  5  2  2  0  0  0  0
  6 10  1  0  0  0  0
  7  9  1  0  0  0  0
  8  3  1  0  0  0  0
  9 24  1  1  0  0  0
 11 13  1  0  0  0  0
 11 15  1  1  0  0  0
 12 11  1  0  0  0  0
 12 13  1  0  0  0  0
 13  6  1  0  0  0  0
 14 15  1  0  0  0  0
 15 16  2  0  0  0  0
 17 22  1  0  0  0  0
 18 17  1  0  0  0  0
 19 14  1  6  0  0  0
 19 22  1  0  0  0  0
 20 23  1  0  0  0  0
 20 19  1  0  0  0  0
 21 20  2  0  0  0  0
 23 18  1  0  0  0  0
 25 28  1  1  0  0  0
 25 31  1  0  0  0  0
 26 27  1  0  0  0  0
 26 29  1  0  0  0  0
 27 24  1  6  0  0  0
 27 25  1  0  0  0  0
 29 34  1  6  0  0  0
 29 28  1  0  0  0  0
 31 33  1  6  0  0  0
 31 32  1  0  0  0  0
 32 30  1  1  0  0  0
 33 32  1  0  0  0  0
 34 35  2  0  0  0  0
 36 35  1  6  0  0  0
 36 40  1  0  0  0  0
 36 38  1  0  0  0  0
 38 37  1  0  0  0  0
 39 40  1  0  0  0  0
M  END
>  <MODEL>
1

>  <REMARK>
 VINA RESULT:      -8.3      0.000      0.000
  Name = 
  10 active torsions:
  status: ('A' for Active; 'I' for Inactive)
    1  A    between atoms: C_1  and  C_16
    2  A    between atoms: N_3  and  C_18
    3  A    between atoms: C_4  and  C_28
    4  A    between atoms: C_8  and  C_13
    5  A    between atoms: C_8  and  C_31
    6  A    between atoms: C_8  and  C_39
    7  A    between atoms: C_14  and  C_15
    8  A    between atoms: C_15  and  C_37
    9  A    between atoms: C_17  and  C_21
   10  A    between atoms: C_34  and  N_40
                            x       y       z     vdW  Elec       q    Type
                         _______ _______ _______ _____ _____    ______ ____

>  <TORSDO>
F 10

$$$$
=
 OpenBabel10222415413D

 40 45  0  0  1  0  0  0  0  0999 V2000
  186.0940  178.0230  142.5700 C   0  0  1  0  0  3  0  0  0  0  0  0
  185.4190  178.8630  144.6170 C   0  0  0  0  0  0  0  0  0  0  0  0
  187.5310  177.5460  144.2850 C   0  0  0  0  0  0  0  0  0  0  0  0
  186.0690  177.6700  144.0090 C   0  0  2  0  0  3  0  0  0  0  0  0
  185.4490  179.0820  145.8160 O   0  0  0  0  0  0  0  0  0  0  0  0
  188.2140  177.7150  143.1640 C   0  0  0  0  0  0  0  0  0  0  0  0
  184.4870  179.9090  143.4840 S   0  0  0  0  0  0  0  0  0  0  0  0
  188.1210  177.1630  145.6000 C   0  0  0  0  0  1  0  0  0  0  0  0
  184.9790  178.8640  142.0630 C   0  0  2  0  0  3  0  0  0  0  0  0
  187.3270  178.0970  142.0800 C   0  0  0  0  0  2  0  0  0  0  0  0
  190.8850  176.9750  142.5760 C   0  0  1  0  0  3  0  0  0  0  0  0
  191.0100  178.1450  143.3000 C   0  0  0  0  0  2  0  0  0  0  0  0
  189.6320  177.6320  143.0540 N   0  0  0  0  0  0  0  0  0  0  0  0
  190.0500  176.8220  140.1920 N   0  0  0  0  0  2  0  0  0  0  0  0
  191.0600  177.2390  141.1150 C   0  0  0  0  0  0  0  0  0  0  0  0
  192.0810  177.8580  140.7080 O   0  0  0  0  0  0  0  0  0  0  0  0
  187.8080  177.9870  138.3960 C   0  0  0  0  0  2  0  0  0  0  0  0
  187.5260  176.9690  137.2990 C   0  0  0  0  0  2  0  0  0  0  0  0
  190.1350  177.0820  138.7610 C   0  0  1  0  0  3  0  0  0  0  0  0
  189.6880  175.8650  138.0030 C   0  0  0  0  0  0  0  0  0  0  0  0
  190.4570  174.8740  137.9080 O   0  0  0  0  0  0  0  0  0  0  0  0
  189.2980  178.3130  138.3950 C   0  0  0  0  0  2  0  0  0  0  0  0
  188.3630  175.7860  137.4650 N   0  0  0  0  0  2  0  0  0  0  0  0
  183.7950  178.0000  141.6520 C   0  0  0  0  0  2  0  0  0  0  0  0
  182.1050  177.8730  139.8410 C   0  0  1  0  0  3  0  0  0  0  0  0
  183.9180  179.4030  139.6420 C   0  0  0  0  0  2  0  0  0  0  0  0
  183.5810  178.0350  140.1490 C   0  0  1  0  0  3  0  0  0  0  0  0
  181.6060  179.0710  139.2940 O   0  0  0  0  0  0  0  0  0  0  0  0
  182.7200  179.7820  138.8130 C   0  0  1  0  0  3  0  0  0  0  0  0
  183.0420  174.8570  137.9460 N   0  0  0  0  0  1  0  0  0  0  0  0
  181.8900  176.7220  138.8660 C   0  0  1  0  0  3  0  0  0  0  0  0
  182.8550  175.6620  139.1400 C   0  0  1  0  0  3  0  0  0  0  0  0
  181.4700  175.5220  139.6070 N   0  0  0  0  0  2  0  0  0  0  0  0
  182.4770  181.2560  138.9180 C   0  0  0  0  0  3  0  0  0  0  0  0
  181.5090  181.8930  138.2440 C   0  0  0  0  0  3  0  0  0  0  0  0
  180.5730  181.2030  137.2960 C   0  0  1  0  0  3  0  0  0  0  0  0
  179.0520  182.2140  138.9960 C   0  0  0  0  0  1  0  0  0  0  0  0
  179.1680  181.1900  137.8820 C   0  0  0  0  0  2  0  0  0  0  0  0
  180.8550  183.2380  136.0290 O   0  0  0  0  0  1  0  0  0  0  0  0
  180.5940  181.8700  135.9190 C   0  0  0  0  0  2  0  0  0  0  0  0
  1 10  1  1  0  0  0
  1  4  1  0  0  0  0
  2  5  2  0  0  0  0
  3  8  1  0  0  0  0
  4  3  1  1  0  0  0
  4  2  1  0  0  0  0
  6  3  2  0  0  0  0
  7  2  1  0  0  0  0
  9 24  1  1  0  0  0
  9  1  1  0  0  0  0
  9  7  1  0  0  0  0
 10  6  1  0  0  0  0
 11 15  1  6  0  0  0
 11 13  1  0  0  0  0
 11 12  1  0  0  0  0
 13  6  1  0  0  0  0
 13 12  1  0  0  0  0
 14 15  1  0  0  0  0
 16 15  2  0  0  0  0
 18 23  1  0  0  0  0
 18 17  1  0  0  0  0
 19 14  1  1  0  0  0
 20 19  1  0  0  0  0
 21 20  2  0  0  0  0
 22 17  1  0  0  0  0
 22 19  1  0  0  0  0
 23 20  1  0  0  0  0
 25 28  1  6  0  0  0
 25 27  1  0  0  0  0
 26 27  1  0  0  0  0
 27 24  1  1  0  0  0
 29 34  1  1  0  0  0
 29 28  1  0  0  0  0
 29 26  1  0  0  0  0
 31 32  1  0  0  0  0
 31 33  1  1  0  0  0
 31 25  1  0  0  0  0
 32 30  1  6  0  0  0
 32 33  1  0  0  0  0
 35 34  2  0  0  0  0
 36 40  1  6  0  0  0
 36 38  1  0  0  0  0
 36 35  1  0  0  0  0
 38 37  1  0  0  0  0
 40 39  1  0  0  0  0
M  END
>  <MODEL>
2

>  <REMARK>
 VINA RESULT:      -8.0      2.721      8.171
  Name = 
  10 active torsions:
  status: ('A' for Active; 'I' for Inactive)
    1  A    between atoms: C_1  and  C_16
    2  A    between atoms: N_3  and  C_18
    3  A    between atoms: C_4  and  C_28
    4  A    between atoms: C_8  and  C_13
    5  A    between atoms: C_8  and  C_31
    6  A    between atoms: C_8  and  C_39
    7  A    between atoms: C_14  and  C_15
    8  A    between atoms: C_15  and  C_37
    9  A    between atoms: C_17  and  C_21
   10  A    between atoms: C_34  and  N_40
                            x       y       z     vdW  Elec       q    Type
                         _______ _______ _______ _____ _____    ______ ____

>  <TORSDO>
F 10

$$$$
=
 OpenBabel10222415413D

 40 45  0  0  1  0  0  0  0  0999 V2000
  186.7570  178.3360  144.1600 C   0  0  1  0  0  3  0  0  0  0  0  0
  185.6040  178.1570  146.1580 C   0  0  0  0  0  0  0  0  0  0  0  0
  184.5540  178.9360  144.0140 C   0  0  0  0  0  0  0  0  0  0  0  0
  185.7110  179.0250  144.9530 C   0  0  2  0  0  3  0  0  0  0  0  0
  184.6670  178.2320  146.9350 O   0  0  0  0  0  0  0  0  0  0  0  0
  184.9410  178.3770  142.8790 C   0  0  0  0  0  0  0  0  0  0  0  0
  187.0020  177.0620  146.4600 S   0  0  0  0  0  0  0  0  0  0  0  0
  183.2010  179.5080  144.2710 C   0  0  0  0  0  1  0  0  0  0  0  0
  187.8160  177.6220  144.9190 C   0  0  2  0  0  3  0  0  0  0  0  0
  186.3150  177.9180  142.9800 C   0  0  0  0  0  2  0  0  0  0  0  0
  183.3510  178.6440  140.5490 C   0  0  1  0  0  3  0  0  0  0  0  0
  183.3150  177.2920  140.8290 C   0  0  0  0  0  2  0  0  0  0  0  0
  184.1010  178.1650  141.7480 N   0  0  0  0  0  0  0  0  0  0  0  0
  184.7870  177.8550  138.6210 N   0  0  0  0  0  2  0  0  0  0  0  0
  184.3120  178.9280  139.4400 C   0  0  0  0  0  0  0  0  0  0  0  0
  184.6720  180.1140  139.2100 O   0  0  0  0  0  0  0  0  0  0  0  0
  185.6670  175.7270  136.5460 C   0  0  0  0  0  2  0  0  0  0  0  0
  187.1850  175.6260  136.6090 C   0  0  0  0  0  2  0  0  0  0  0  0
  185.6920  178.0630  137.4970 C   0  0  1  0  0  3  0  0  0  0  0  0
  187.1020  177.7800  137.9310 C   0  0  0  0  0  0  0  0  0  0  0  0
  187.7180  178.6220  138.6330 O   0  0  0  0  0  0  0  0  0  0  0  0
  185.2770  177.1820  136.3130 C   0  0  0  0  0  2  0  0  0  0  0  0
  187.7190  176.5240  137.6290 N   0  0  0  0  0  2  0  0  0  0  0  0
  188.9550  178.5670  145.2770 C   0  0  0  0  0  2  0  0  0  0  0  0
  190.4190  176.6840  144.5970 C   0  0  1  0  0  3  0  0  0  0  0  0
  190.0780  178.5010  143.0960 C   0  0  0  0  0  2  0  0  0  0  0  0
  190.2350  178.1890  144.5510 C   0  0  1  0  0  3  0  0  0  0  0  0
  190.2860  176.1570  143.2980 O   0  0  0  0  0  0  0  0  0  0  0  0
  190.4990  177.2270  142.4110 C   0  0  1  0  0  3  0  0  0  0  0  0
  192.8520  175.9000  147.2480 N   0  0  0  0  0  1  0  0  0  0  0  0
  191.7880  176.3350  145.1670 C   0  0  1  0  0  3  0  0  0  0  0  0
  191.6290  175.7290  146.4850 C   0  0  1  0  0  3  0  0  0  0  0  0
  191.8990  174.8760  145.3210 N   0  0  0  0  0  2  0  0  0  0  0  0
  189.6930  177.0320  141.1640 C   0  0  0  0  0  3  0  0  0  0  0  0
  190.2300  176.6870  139.9860 C   0  0  0  0  0  3  0  0  0  0  0  0
  191.7010  176.4750  139.7810 C   0  0  1  0  0  3  0  0  0  0  0  0
  191.4060  174.9720  137.8110 C   0  0  0  0  0  1  0  0  0  0  0  0
  191.9890  176.2850  138.2990 C   0  0  0  0  0  2  0  0  0  0  0  0
  193.8350  177.5950  139.9160 O   0  0  0  0  0  1  0  0  0  0  0  0
  192.5110  177.6360  140.3600 C   0  0  0  0  0  2  0  0  0  0  0  0
  1 10  1  6  0  0  0
  1  9  1  0  0  0  0
  1  4  1  0  0  0  0
  2  7  1  0  0  0  0
  2  5  2  0  0  0  0
  3  8  1  0  0  0  0
  4  3  1  6  0  0  0
  4  2  1  0  0  0  0
  6 10  1  0  0  0  0
  6  3  2  0  0  0  0
  9 24  1  1  0  0  0
  9  7  1  0  0  0  0
 11 15  1  6  0  0  0
 11 12  1  0  0  0  0
 11 13  1  0  0  0  0
 12 13  1  0  0  0  0
 13  6  1  0  0  0  0
 14 15  1  0  0  0  0
 16 15  2  0  0  0  0
 17 18  1  0  0  0  0
 18 23  1  0  0  0  0
 19 20  1  0  0  0  0
 19 14  1  1  0  0  0
 20 21  2  0  0  0  0
 22 17  1  0  0  0  0
 22 19  1  0  0  0  0
 23 20  1  0  0  0  0
 25 28  1  6  0  0  0
 25 31  1  0  0  0  0
 26 27  1  0  0  0  0
 27 25  1  0  0  0  0
 27 24  1  1  0  0  0
 29 34  1  6  0  0  0
 29 26  1  0  0  0  0
 29 28  1  0  0  0  0
 31 33  1  6  0  0  0
 31 32  1  0  0  0  0
 32 30  1  1  0  0  0
 33 32  1  0  0  0  0
 35 34  2  0  0  0  0
 36 38  1  6  0  0  0
 36 35  1  0  0  0  0
 36 40  1  0  0  0  0
 37 38  1  0  0  0  0
 39 40  1  0  0  0  0
M  END
>  <MODEL>
3

>  <REMARK>
 VINA RESULT:      -7.9      2.255      6.364
  Name = 
  10 active torsions:
  status: ('A' for Active; 'I' for Inactive)
    1  A    between atoms: C_1  and  C_16
    2  A    between atoms: N_3  and  C_18
    3  A    between atoms: C_4  and  C_28
    4  A    between atoms: C_8  and  C_13
    5  A    between atoms: C_8  and  C_31
    6  A    between atoms: C_8  and  C_39
    7  A    between atoms: C_14  and  C_15
    8  A    between atoms: C_15  and  C_37
    9  A    between atoms: C_17  and  C_21
   10  A    between atoms: C_34  and  N_40
                            x       y       z     vdW  Elec       q    Type
                         _______ _______ _______ _____ _____    ______ ____

>  <TORSDO>
F 10

$$$$
=
 OpenBabel10222415413D

 40 45  0  0  1  0  0  0  0  0999 V2000
  185.6780  177.8170  143.4400 C   0  0  1  0  0  3  0  0  0  0  0  0
  185.3990  179.2270  145.2540 C   0  0  0  0  0  0  0  0  0  0  0  0
  187.1490  177.4280  145.1490 C   0  0  0  0  0  0  0  0  0  0  0  0
  185.7240  177.8120  144.9220 C   0  0  2  0  0  3  0  0  0  0  0  0
  185.5950  179.6990  146.3610 O   0  0  0  0  0  0  0  0  0  0  0  0
  187.7360  177.1820  143.9890 C   0  0  0  0  0  0  0  0  0  0  0  0
  184.5960  180.1720  143.9480 S   0  0  0  0  0  0  0  0  0  0  0  0
  187.7750  177.2290  146.4870 C   0  0  0  0  0  1  0  0  0  0  0  0
  184.7160  178.7510  142.8000 C   0  0  2  0  0  3  0  0  0  0  0  0
  186.8430  177.4990  142.8890 C   0  0  0  0  0  2  0  0  0  0  0  0
  190.1780  176.0620  143.0890 C   0  0  1  0  0  3  0  0  0  0  0  0
  190.5120  176.6940  144.2710 C   0  0  0  0  0  2  0  0  0  0  0  0
  189.0880  176.7590  143.8340 N   0  0  0  0  0  0  0  0  0  0  0  0
  190.2420  176.4670  140.5930 N   0  0  0  0  0  2  0  0  0  0  0  0
  190.5890  176.8900  141.9150 C   0  0  0  0  0  0  0  0  0  0  0  0
  191.2080  177.9720  142.0970 O   0  0  0  0  0  0  0  0  0  0  0  0
  189.2360  175.9430  137.7080 C   0  0  0  0  0  2  0  0  0  0  0  0
  190.4590  175.7260  136.8280 C   0  0  0  0  0  2  0  0  0  0  0  0
  190.5730  177.2440  139.4050 C   0  0  1  0  0  3  0  0  0  0  0  0
  191.7990  176.6680  138.7540 C   0  0  0  0  0  0  0  0  0  0  0  0
  192.9310  176.8830  139.2580 O   0  0  0  0  0  0  0  0  0  0  0  0
  189.3820  177.2720  138.4400 C   0  0  0  0  0  2  0  0  0  0  0  0
  191.6830  175.8020  137.6190 N   0  0  0  0  0  2  0  0  0  0  0  0
  183.3430  178.1050  142.6680 C   0  0  0  0  0  2  0  0  0  0  0  0
  182.7020  179.4480  140.6830 C   0  0  1  0  0  3  0  0  0  0  0  0
  184.0190  177.4850  140.3920 C   0  0  0  0  0  2  0  0  0  0  0  0
  182.9010  178.0410  141.2160 C   0  0  1  0  0  3  0  0  0  0  0  0
  183.6790  179.7180  139.7040 O   0  0  0  0  0  0  0  0  0  0  0  0
  184.1540  178.4720  139.2620 C   0  0  1  0  0  3  0  0  0  0  0  0
  179.1410  178.6270  140.2240 N   0  0  0  0  0  1  0  0  0  0  0  0
  181.3080  179.5980  140.0880 C   0  0  1  0  0  3  0  0  0  0  0  0
  180.3280  178.9860  140.9800 C   0  0  1  0  0  3  0  0  0  0  0  0
  180.4880  180.4460  140.9670 N   0  0  0  0  0  2  0  0  0  0  0  0
  185.5920  178.5820  138.8560 C   0  0  0  0  0  3  0  0  0  0  0  0
  186.0910  178.0110  137.7510 C   0  0  0  0  0  3  0  0  0  0  0  0
  185.2690  177.1820  136.8080 C   0  0  1  0  0  3  0  0  0  0  0  0
  187.1190  178.0660  135.3860 C   0  0  0  0  0  1  0  0  0  0  0  0
  185.7600  177.3910  135.3830 C   0  0  0  0  0  2  0  0  0  0  0  0
  184.0490  175.2590  137.6070 O   0  0  0  0  0  1  0  0  0  0  0  0
  185.3090  175.7030  137.1980 C   0  0  0  0  0  2  0  0  0  0  0  0
  1 10  1  6  0  0  0
  1  4  1  0  0  0  0
  2  5  2  0  0  0  0
  3  8  1  0  0  0  0
  4  3  1  6  0  0  0
  4  2  1  0  0  0  0
  6  3  2  0  0  0  0
  7  2  1  0  0  0  0
  9 24  1  1  0  0  0
  9  1  1  0  0  0  0
  9  7  1  0  0  0  0
 10  6  1  0  0  0  0
 11 15  1  6  0  0  0
 11 13  1  0  0  0  0
 11 12  1  0  0  0  0
 13  6  1  0  0  0  0
 13 12  1  0  0  0  0
 14 15  1  0  0  0  0
 15 16  2  0  0  0  0
 17 22  1  0  0  0  0
 18 23  1  0  0  0  0
 18 17  1  0  0  0  0
 19 14  1  1  0  0  0
 20 21  2  0  0  0  0
 20 19  1  0  0  0  0
 22 19  1  0  0  0  0
 23 20  1  0  0  0  0
 25 28  1  6  0  0  0
 25 27  1  0  0  0  0
 26 27  1  0  0  0  0
 27 24  1  1  0  0  0
 29 34  1  1  0  0  0
 29 28  1  0  0  0  0
 29 26  1  0  0  0  0
 31 25  1  0  0  0  0
 31 33  1  1  0  0  0
 31 32  1  0  0  0  0
 32 30  1  6  0  0  0
 33 32  1  0  0  0  0
 35 34  2  0  0  0  0
 36 38  1  6  0  0  0
 36 40  1  0  0  0  0
 36 35  1  0  0  0  0
 38 37  1  0  0  0  0
 40 39  1  0  0  0  0
M  END
>  <MODEL>
4

>  <REMARK>
 VINA RESULT:      -7.8      2.579      8.542
  Name = 
  10 active torsions:
  status: ('A' for Active; 'I' for Inactive)
    1  A    between atoms: C_1  and  C_16
    2  A    between atoms: N_3  and  C_18
    3  A    between atoms: C_4  and  C_28
    4  A    between atoms: C_8  and  C_13
    5  A    between atoms: C_8  and  C_31
    6  A    between atoms: C_8  and  C_39
    7  A    between atoms: C_14  and  C_15
    8  A    between atoms: C_15  and  C_37
    9  A    between atoms: C_17  and  C_21
   10  A    between atoms: C_34  and  N_40
                            x       y       z     vdW  Elec       q    Type
                         _______ _______ _______ _____ _____    ______ ____

>  <TORSDO>
F 10

$$$$
=
 OpenBabel10222415413D

 40 45  0  0  1  0  0  0  0  0999 V2000
  189.9700  177.1370  138.7340 C   0  0  1  0  0  3  0  0  0  0  0  0
  187.9220  178.2040  138.5910 C   0  0  0  0  0  0  0  0  0  0  0  0
  188.9300  177.4180  140.7520 C   0  0  0  0  0  0  0  0  0  0  0  0
  188.6120  177.1090  139.3270 C   0  0  2  0  0  3  0  0  0  0  0  0
  186.8640  178.6790  138.9690 O   0  0  0  0  0  0  0  0  0  0  0  0
  190.2410  177.5050  140.9090 C   0  0  0  0  0  0  0  0  0  0  0  0
  188.6920  178.7120  137.0430 S   0  0  0  0  0  0  0  0  0  0  0  0
  187.9280  177.4890  141.8540 C   0  0  0  0  0  1  0  0  0  0  0  0
  190.0740  177.5410  137.3080 C   0  0  2  0  0  3  0  0  0  0  0  0
  190.9150  177.4080  139.6260 C   0  0  0  0  0  2  0  0  0  0  0  0
  190.9450  178.3270  143.5280 C   0  0  1  0  0  3  0  0  0  0  0  0
  192.0540  177.6360  143.0820 C   0  0  0  0  0  2  0  0  0  0  0  0
  190.8980  177.7580  142.1480 N   0  0  0  0  0  0  0  0  0  0  0  0
  188.9230  177.9990  145.0140 N   0  0  0  0  0  2  0  0  0  0  0  0
  190.1280  177.4770  144.4470 C   0  0  0  0  0  0  0  0  0  0  0  0
  190.4880  176.2930  144.6910 O   0  0  0  0  0  0  0  0  0  0  0  0
  185.8900  178.4400  145.4790 C   0  0  0  0  0  2  0  0  0  0  0  0
  185.6860  178.6830  146.9680 C   0  0  0  0  0  2  0  0  0  0  0  0
  188.0570  177.2130  145.8830 C   0  0  1  0  0  3  0  0  0  0  0  0
  188.0440  177.8190  147.2580 C   0  0  0  0  0  0  0  0  0  0  0  0
  189.0290  177.6500  148.0220 O   0  0  0  0  0  0  0  0  0  0  0  0
  186.6460  177.1290  145.2910 C   0  0  0  0  0  2  0  0  0  0  0  0
  186.9630  178.6610  147.6740 N   0  0  0  0  0  2  0  0  0  0  0  0
  189.8870  176.3400  136.3910 C   0  0  0  0  0  2  0  0  0  0  0  0
  189.9000  173.8660  136.2150 C   0  0  1  0  0  3  0  0  0  0  0  0
  191.7730  174.9800  137.1750 C   0  0  0  0  0  2  0  0  0  0  0  0
  190.2800  175.0480  137.0860 C   0  0  1  0  0  3  0  0  0  0  0  0
  191.0690  173.2250  135.7600 O   0  0  0  0  0  0  0  0  0  0  0  0
  192.1000  173.6130  136.6330 C   0  0  1  0  0  3  0  0  0  0  0  0
  186.8160  172.6450  137.8170 N   0  0  0  0  0  1  0  0  0  0  0  0
  189.0360  172.8860  136.9990 C   0  0  1  0  0  3  0  0  0  0  0  0
  187.6270  173.1470  136.7220 C   0  0  1  0  0  3  0  0  0  0  0  0
  188.3010  172.0210  136.0630 N   0  0  0  0  0  2  0  0  0  0  0  0
  193.4060  173.6580  135.9010 C   0  0  0  0  0  3  0  0  0  0  0  0
  194.5780  173.3340  136.4640 C   0  0  0  0  0  3  0  0  0  0  0  0
  194.7140  172.9060  137.8960 C   0  0  1  0  0  3  0  0  0  0  0  0
  196.8130  171.6740  137.3450 C   0  0  0  0  0  1  0  0  0  0  0  0
  195.4310  171.5650  137.9630 C   0  0  0  0  0  2  0  0  0  0  0  0
  195.1520  175.2520  138.2530 O   0  0  0  0  0  1  0  0  0  0  0  0
  195.4430  173.9680  138.7200 C   0  0  0  0  0  2  0  0  0  0  0  0
  1  4  1  0  0  0  0
  1 10  1  1  0  0  0
  2  5  2  0  0  0  0
  3  6  2  0  0  0  0
  3  8  1  0  0  0  0
  4  2  1  6  0  0  0
  4  3  1  0  0  0  0
  6 13  1  0  0  0  0
  7  9  1  0  0  0  0
  7  2  1  0  0  0  0
  9 24  1  6  0  0  0
  9  1  1  0  0  0  0
 10  6  1  0  0  0  0
 11 15  1  1  0  0  0
 12 11  1  0  0  0  0
 13 12  1  0  0  0  0
 13 11  1  0  0  0  0
 15 16  2  0  0  0  0
 15 14  1  0  0  0  0
 17 18  1  0  0  0  0
 18 23  1  0  0  0  0
 19 14  1  6  0  0  0
 19 20  1  0  0  0  0
 20 23  1  0  0  0  0
 20 21  2  0  0  0  0
 22 17  1  0  0  0  0
 22 19  1  0  0  0  0
 25 28  1  1  0  0  0
 25 31  1  0  0  0  0
 25 27  1  0  0  0  0
 27 24  1  6  0  0  0
 27 26  1  0  0  0  0
 28 29  1  0  0  0  0
 29 34  1  6  0  0  0
 29 26  1  0  0  0  0
 31 33  1  6  0  0  0
 32 31  1  0  0  0  0
 32 30  1  1  0  0  0
 33 32  1  0  0  0  0
 34 35  2  0  0  0  0
 36 35  1  6  0  0  0
 36 38  1  0  0  0  0
 36 40  1  0  0  0  0
 37 38  1  0  0  0  0
 39 40  1  0  0  0  0
M  END
>  <MODEL>
5

>  <REMARK>
 VINA RESULT:      -7.5      3.539      9.281
  Name = 
  10 active torsions:
  status: ('A' for Active; 'I' for Inactive)
    1  A    between atoms: C_1  and  C_16
    2  A    between atoms: N_3  and  C_18
    3  A    between atoms: C_4  and  C_28
    4  A    between atoms: C_8  and  C_13
    5  A    between atoms: C_8  and  C_31
    6  A    between atoms: C_8  and  C_39
    7  A    between atoms: C_14  and  C_15
    8  A    between atoms: C_15  and  C_37
    9  A    between atoms: C_17  and  C_21
   10  A    between atoms: C_34  and  N_40
                            x       y       z     vdW  Elec       q    Type
                         _______ _______ _______ _____ _____    ______ ____

>  <TORSDO>
F 10

$$$$
=
 OpenBabel10222415413D

 40 45  0  0  1  0  0  0  0  0999 V2000
  189.7940  176.8520  138.4720 C   0  0  1  0  0  3  0  0  0  0  0  0
  191.5430  175.5180  137.7570 C   0  0  0  0  0  0  0  0  0  0  0  0
  191.7200  177.1290  139.6750 C   0  0  0  0  0  0  0  0  0  0  0  0
  191.2620  176.8850  138.2750 C   0  0  2  0  0  3  0  0  0  0  0  0
  192.6710  175.0530  137.7190 O   0  0  0  0  0  0  0  0  0  0  0  0
  190.6710  177.2890  140.4660 C   0  0  0  0  0  0  0  0  0  0  0  0
  190.1270  174.6290  137.0850 S   0  0  0  0  0  0  0  0  0  0  0  0
  193.1420  177.2930  140.0910 C   0  0  0  0  0  1  0  0  0  0  0  0
  189.0080  176.0060  137.5370 C   0  0  2  0  0  3  0  0  0  0  0  0
  189.4400  177.0400  139.7380 C   0  0  0  0  0  2  0  0  0  0  0  0
  190.2420  178.2370  143.1020 C   0  0  1  0  0  3  0  0  0  0  0  0
  191.3400  177.4070  143.2160 C   0  0  0  0  0  2  0  0  0  0  0  0
  190.7400  177.5700  141.8610 N   0  0  0  0  0  0  0  0  0  0  0  0
  187.7470  178.2200  143.5210 N   0  0  0  0  0  2  0  0  0  0  0  0
  189.0070  177.5440  143.5800 C   0  0  0  0  0  0  0  0  0  0  0  0
  189.0760  176.3580  143.9990 O   0  0  0  0  0  0  0  0  0  0  0  0
  184.8880  179.3110  143.0250 C   0  0  0  0  0  2  0  0  0  0  0  0
  184.2220  179.4830  144.3830 C   0  0  0  0  0  2  0  0  0  0  0  0
  186.4970  177.5920  143.9300 C   0  0  1  0  0  3  0  0  0  0  0  0
  186.1150  178.0810  145.2990 C   0  0  0  0  0  0  0  0  0  0  0  0
  186.7160  177.6330  146.3090 O   0  0  0  0  0  0  0  0  0  0  0  0
  185.3980  177.8790  142.9020 C   0  0  0  0  0  2  0  0  0  0  0  0
  185.1380  179.1150  145.4570 N   0  0  0  0  0  2  0  0  0  0  0  0
  188.6480  176.7830  136.2780 C   0  0  0  0  0  2  0  0  0  0  0  0
  186.4550  175.8610  136.9810 C   0  0  1  0  0  3  0  0  0  0  0  0
  186.6900  178.2110  136.6710 C   0  0  0  0  0  2  0  0  0  0  0  0
  187.1420  176.8980  136.1110 C   0  0  1  0  0  3  0  0  0  0  0  0
  185.7450  176.5110  138.0090 O   0  0  0  0  0  0  0  0  0  0  0  0
  185.5530  177.8370  137.5850 C   0  0  1  0  0  3  0  0  0  0  0  0
  185.5390  173.2100  134.5940 N   0  0  0  0  0  1  0  0  0  0  0  0
  185.5060  175.0130  136.1430 C   0  0  1  0  0  3  0  0  0  0  0  0
  186.1580  173.7560  135.7880 C   0  0  1  0  0  3  0  0  0  0  0  0
  185.1720  173.7820  136.8760 N   0  0  0  0  0  2  0  0  0  0  0  0
  185.5290  178.7590  138.7650 C   0  0  0  0  0  3  0  0  0  0  0  0
  184.4170  179.0340  139.4610 C   0  0  0  0  0  3  0  0  0  0  0  0
  183.0710  178.4630  139.1260 C   0  0  1  0  0  3  0  0  0  0  0  0
  181.9400  176.2420  139.2290 C   0  0  0  0  0  1  0  0  0  0  0  0
  182.8100  177.2320  139.9810 C   0  0  0  0  0  2  0  0  0  0  0  0
  181.1670  179.5940  138.1660 O   0  0  0  0  0  1  0  0  0  0  0  0
  181.9700  179.5100  139.3060 C   0  0  0  0  0  2  0  0  0  0  0  0
  1 10  1  1  0  0  0
  3  8  1  0  0  0  0
  3  6  2  0  0  0  0
  4  2  1  1  0  0  0
  4  1  1  0  0  0  0
  4  3  1  0  0  0  0
  5  2  2  0  0  0  0
  6 13  1  0  0  0  0
  7  9  1  0  0  0  0
  7  2  1  0  0  0  0
  9 24  1  6  0  0  0
  9  1  1  0  0  0  0
 10  6  1  0  0  0  0
 11 12  1  0  0  0  0
 11 15  1  1  0  0  0
 13 11  1  0  0  0  0
 13 12  1  0  0  0  0
 14 15  1  0  0  0  0
 15 16  2  0  0  0  0
 17 18  1  0  0  0  0
 18 23  1  0  0  0  0
 19 14  1  6  0  0  0
 19 20  1  0  0  0  0
 20 23  1  0  0  0  0
 20 21  2  0  0  0  0
 22 17  1  0  0  0  0
 22 19  1  0  0  0  0
 25 28  1  1  0  0  0
 26 29  1  0  0  0  0
 27 24  1  1  0  0  0
 27 26  1  0  0  0  0
 27 25  1  0  0  0  0
 29 28  1  0  0  0  0
 29 34  1  1  0  0  0
 31 33  1  1  0  0  0
 31 25  1  0  0  0  0
 32 30  1  6  0  0  0
 32 31  1  0  0  0  0
 32 33  1  0  0  0  0
 34 35  2  0  0  0  0
 36 40  1  1  0  0  0
 36 35  1  0  0  0  0
 36 38  1  0  0  0  0
 37 38  1  0  0  0  0
 39 40  1  0  0  0  0
M  END
>  <MODEL>
6

>  <REMARK>
 VINA RESULT:      -7.5      2.500      7.002
  Name = 
  10 active torsions:
  status: ('A' for Active; 'I' for Inactive)
    1  A    between atoms: C_1  and  C_16
    2  A    between atoms: N_3  and  C_18
    3  A    between atoms: C_4  and  C_28
    4  A    between atoms: C_8  and  C_13
    5  A    between atoms: C_8  and  C_31
    6  A    between atoms: C_8  and  C_39
    7  A    between atoms: C_14  and  C_15
    8  A    between atoms: C_15  and  C_37
    9  A    between atoms: C_17  and  C_21
   10  A    between atoms: C_34  and  N_40
                            x       y       z     vdW  Elec       q    Type
                         _______ _______ _______ _____ _____    ______ ____

>  <TORSDO>
F 10

$$$$
=
 OpenBabel10222415413D

 40 45  0  0  1  0  0  0  0  0999 V2000
  186.7450  177.5970  137.3870 C   0  0  1  0  0  3  0  0  0  0  0  0
  186.7950  176.3900  135.4140 C   0  0  0  0  0  0  0  0  0  0  0  0
  185.1920  175.9190  137.2880 C   0  0  0  0  0  0  0  0  0  0  0  0
  186.5970  176.2120  136.8790 C   0  0  2  0  0  3  0  0  0  0  0  0
  186.4900  175.5290  134.6050 O   0  0  0  0  0  0  0  0  0  0  0  0
  184.7050  176.9390  137.9770 C   0  0  0  0  0  0  0  0  0  0  0  0
  187.6150  177.9140  134.9140 S   0  0  0  0  0  0  0  0  0  0  0  0
  184.4910  174.6230  137.0650 C   0  0  0  0  0  1  0  0  0  0  0  0
  187.6780  178.4880  136.6510 C   0  0  2  0  0  3  0  0  0  0  0  0
  185.6460  178.0450  137.9840 C   0  0  0  0  0  2  0  0  0  0  0  0
  182.4580  176.8730  139.7020 C   0  0  1  0  0  3  0  0  0  0  0  0
  181.9300  177.2160  138.4730 C   0  0  0  0  0  2  0  0  0  0  0  0
  183.4010  176.9870  138.5500 N   0  0  0  0  0  0  0  0  0  0  0  0
  183.5280  178.0770  141.6540 N   0  0  0  0  0  2  0  0  0  0  0  0
  182.5890  178.0790  140.5750 C   0  0  0  0  0  0  0  0  0  0  0  0
  181.8950  179.1040  140.3350 O   0  0  0  0  0  0  0  0  0  0  0  0
  185.6800  178.3530  143.8680 C   0  0  0  0  0  2  0  0  0  0  0  0
  184.9550  178.6110  145.1820 C   0  0  0  0  0  2  0  0  0  0  0  0
  183.7380  179.2310  142.5190 C   0  0  1  0  0  3  0  0  0  0  0  0
  182.9140  179.0790  143.7660 C   0  0  0  0  0  0  0  0  0  0  0  0
  181.6740  179.2880  143.7220 O   0  0  0  0  0  0  0  0  0  0  0  0
  185.2280  179.3870  142.8420 C   0  0  0  0  0  2  0  0  0  0  0  0
  183.5100  178.6120  144.9810 N   0  0  0  0  0  2  0  0  0  0  0  0
  189.1000  178.3300  137.1730 C   0  0  0  0  0  2  0  0  0  0  0  0
  190.4180  176.2900  137.6780 C   0  0  1  0  0  3  0  0  0  0  0  0
  189.5540  177.5970  139.4710 C   0  0  0  0  0  2  0  0  0  0  0  0
  189.2200  177.1250  138.0900 C   0  0  1  0  0  3  0  0  0  0  0  0
  191.3990  176.3500  138.6870 O   0  0  0  0  0  0  0  0  0  0  0  0
  190.7390  176.7530  139.8600 C   0  0  1  0  0  3  0  0  0  0  0  0
  189.0770  173.4600  135.7400 N   0  0  0  0  0  1  0  0  0  0  0  0
  190.0000  174.8450  137.4380 C   0  0  1  0  0  3  0  0  0  0  0  0
  189.9650  174.5780  136.0040 C   0  0  1  0  0  3  0  0  0  0  0  0
  191.1060  174.1120  136.8030 N   0  0  0  0  0  2  0  0  0  0  0  0
  191.6650  177.5490  140.7270 C   0  0  0  0  0  3  0  0  0  0  0  0
  191.7000  177.4410  142.0620 C   0  0  0  0  0  3  0  0  0  0  0  0
  190.8040  176.5230  142.8390 C   0  0  1  0  0  3  0  0  0  0  0  0
  191.6610  176.7270  145.1730 C   0  0  0  0  0  1  0  0  0  0  0  0
  191.6000  175.8420  143.9420 C   0  0  0  0  0  2  0  0  0  0  0  0
  188.4340  176.5200  143.2980 O   0  0  0  0  0  1  0  0  0  0  0  0
  189.6010  177.2800  143.4070 C   0  0  0  0  0  2  0  0  0  0  0  0
  1 10  1  6  0  0  0
  3  6  2  0  0  0  0
  4  2  1  6  0  0  0
  4  3  1  0  0  0  0
  4  1  1  0  0  0  0
  5  2  2  0  0  0  0
  6 10  1  0  0  0  0
  6 13  1  0  0  0  0
  7  2  1  0  0  0  0
  7  9  1  0  0  0  0
  8  3  1  0  0  0  0
  9 24  1  1  0  0  0
  9  1  1  0  0  0  0
 11 15  1  1  0  0  0
 12 13  1  0  0  0  0
 12 11  1  0  0  0  0
 13 11  1  0  0  0  0
 15 14  1  0  0  0  0
 16 15  2  0  0  0  0
 17 18  1  0  0  0  0
 19 14  1  6  0  0  0
 19 22  1  0  0  0  0
 19 20  1  0  0  0  0
 20 23  1  0  0  0  0
 21 20  2  0  0  0  0
 22 17  1  0  0  0  0
 23 18  1  0  0  0  0
 25 27  1  0  0  0  0
 25 28  1  1  0  0  0
 26 29  1  0  0  0  0
 27 24  1  6  0  0  0
 27 26  1  0  0  0  0
 28 29  1  0  0  0  0
 29 34  1  1  0  0  0
 31 33  1  1  0  0  0
 31 25  1  0  0  0  0
 32 30  1  1  0  0  0
 32 33  1  0  0  0  0
 32 31  1  0  0  0  0
 34 35  2  0  0  0  0
 36 35  1  1  0  0  0
 36 40  1  0  0  0  0
 36 38  1  0  0  0  0
 38 37  1  0  0  0  0
 39 40  1  0  0  0  0
M  END
>  <MODEL>
7

>  <REMARK>
 VINA RESULT:      -7.4      2.719      6.339
  Name = 
  10 active torsions:
  status: ('A' for Active; 'I' for Inactive)
    1  A    between atoms: C_1  and  C_16
    2  A    between atoms: N_3  and  C_18
    3  A    between atoms: C_4  and  C_28
    4  A    between atoms: C_8  and  C_13
    5  A    between atoms: C_8  and  C_31
    6  A    between atoms: C_8  and  C_39
    7  A    between atoms: C_14  and  C_15
    8  A    between atoms: C_15  and  C_37
    9  A    between atoms: C_17  and  C_21
   10  A    between atoms: C_34  and  N_40
                            x       y       z     vdW  Elec       q    Type
                         _______ _______ _______ _____ _____    ______ ____

>  <TORSDO>
F 10

$$$$
=
 OpenBabel10222415413D

 40 45  0  0  1  0  0  0  0  0999 V2000
  189.9990  176.8340  140.0360 C   0  0  1  0  0  3  0  0  0  0  0  0
  192.1860  176.7730  139.2860 C   0  0  0  0  0  0  0  0  0  0  0  0
  190.1930  176.6750  137.7620 C   0  0  0  0  0  0  0  0  0  0  0  0
  190.8470  176.1830  139.0100 C   0  0  2  0  0  3  0  0  0  0  0  0
  193.1090  176.6960  138.4920 O   0  0  0  0  0  0  0  0  0  0  0  0
  189.1240  177.3910  138.0700 C   0  0  0  0  0  0  0  0  0  0  0  0
  192.3940  177.5140  140.9140 S   0  0  0  0  0  0  0  0  0  0  0  0
  190.6090  176.3060  136.3780 C   0  0  0  0  0  1  0  0  0  0  0  0
  190.6450  177.1700  141.3300 C   0  0  2  0  0  3  0  0  0  0  0  0
  189.0270  177.5700  139.5080 C   0  0  0  0  0  2  0  0  0  0  0  0
  187.6050  178.0630  135.7740 C   0  0  1  0  0  3  0  0  0  0  0  0
  187.2260  178.9990  136.7160 C   0  0  0  0  0  2  0  0  0  0  0  0
  188.2430  177.9880  137.1220 N   0  0  0  0  0  0  0  0  0  0  0  0
  185.2690  177.1930  136.2050 N   0  0  0  0  0  2  0  0  0  0  0  0
  186.5720  176.9910  135.6500 C   0  0  0  0  0  0  0  0  0  0  0  0
  186.8430  175.9280  135.0290 O   0  0  0  0  0  0  0  0  0  0  0  0
  182.3210  177.5580  137.0930 C   0  0  0  0  0  2  0  0  0  0  0  0
  182.0120  176.4680  138.1110 C   0  0  0  0  0  2  0  0  0  0  0  0
  184.2000  176.2090  136.0860 C   0  0  1  0  0  3  0  0  0  0  0  0
  184.1510  175.3700  137.3310 C   0  0  0  0  0  0  0  0  0  0  0  0
  185.0120  174.4710  137.5100 O   0  0  0  0  0  0  0  0  0  0  0  0
  182.8620  176.9090  135.8240 C   0  0  0  0  0  2  0  0  0  0  0  0
  183.1900  175.6430  138.3570 N   0  0  0  0  0  2  0  0  0  0  0  0
  190.5880  175.9850  142.2860 C   0  0  0  0  0  2  0  0  0  0  0  0
  189.9280  177.8090  143.8320 C   0  0  1  0  0  3  0  0  0  0  0  0
  188.3460  176.1200  143.2740 C   0  0  0  0  0  2  0  0  0  0  0  0
  189.8040  176.3250  143.5410 C   0  0  1  0  0  3  0  0  0  0  0  0
  188.6750  178.4270  143.6550 O   0  0  0  0  0  0  0  0  0  0  0  0
  187.7130  177.4050  143.7380 C   0  0  1  0  0  3  0  0  0  0  0  0
  190.6380  176.8820  147.3250 N   0  0  0  0  0  1  0  0  0  0  0  0
  190.4270  178.0320  145.2540 C   0  0  1  0  0  3  0  0  0  0  0  0
  190.7060  176.7440  145.8810 C   0  0  1  0  0  3  0  0  0  0  0  0
  191.8150  177.5580  145.3680 N   0  0  0  0  0  2  0  0  0  0  0  0
  186.5360  177.7310  142.8720 C   0  0  0  0  0  3  0  0  0  0  0  0
  185.4040  178.2740  143.3410 C   0  0  0  0  0  3  0  0  0  0  0  0
  185.1830  178.5980  144.7890 C   0  0  1  0  0  3  0  0  0  0  0  0
  182.9560  179.3690  143.9710 C   0  0  0  0  0  1  0  0  0  0  0  0
  183.6900  178.6420  145.0820 C   0  0  0  0  0  2  0  0  0  0  0  0
  186.6090  178.2430  146.7040 O   0  0  0  0  0  1  0  0  0  0  0  0
  185.8970  177.5910  145.6930 C   0  0  0  0  0  2  0  0  0  0  0  0
  1 10  1  6  0  0  0
  1  9  1  0  0  0  0
  2  7  1  0  0  0  0
  3  6  2  0  0  0  0
  4  3  1  6  0  0  0
  4  2  1  0  0  0  0
  4  1  1  0  0  0  0
  5  2  2  0  0  0  0
  6 10  1  0  0  0  0
  7  9  1  0  0  0  0
  8  3  1  0  0  0  0
  9 24  1  1  0  0  0
 11 15  1  1  0  0  0
 11 12  1  0  0  0  0
 11 13  1  0  0  0  0
 12 13  1  0  0  0  0
 13  6  1  0  0  0  0
 15 14  1  0  0  0  0
 16 15  2  0  0  0  0
 17 18  1  0  0  0  0
 18 23  1  0  0  0  0
 19 14  1  1  0  0  0
 19 20  1  0  0  0  0
 20 21  2  0  0  0  0
 20 23  1  0  0  0  0
 22 19  1  0  0  0  0
 22 17  1  0  0  0  0
 25 28  1  1  0  0  0
 25 31  1  0  0  0  0
 26 27  1  0  0  0  0
 26 29  1  0  0  0  0
 27 24  1  6  0  0  0
 27 25  1  0  0  0  0
 28 29  1  0  0  0  0
 29 34  1  6  0  0  0
 31 33  1  6  0  0  0
 31 32  1  0  0  0  0
 32 30  1  1  0  0  0
 33 32  1  0  0  0  0
 34 35  2  0  0  0  0
 36 35  1  6  0  0  0
 36 38  1  0  0  0  0
 36 40  1  0  0  0  0
 37 38  1  0  0  0  0
 40 39  1  0  0  0  0
M  END
>  <MODEL>
8

>  <REMARK>
 VINA RESULT:      -7.3      1.741      2.180
  Name = 
  10 active torsions:
  status: ('A' for Active; 'I' for Inactive)
    1  A    between atoms: C_1  and  C_16
    2  A    between atoms: N_3  and  C_18
    3  A    between atoms: C_4  and  C_28
    4  A    between atoms: C_8  and  C_13
    5  A    between atoms: C_8  and  C_31
    6  A    between atoms: C_8  and  C_39
    7  A    between atoms: C_14  and  C_15
    8  A    between atoms: C_15  and  C_37
    9  A    between atoms: C_17  and  C_21
   10  A    between atoms: C_34  and  N_40
                            x       y       z     vdW  Elec       q    Type
                         _______ _______ _______ _____ _____    ______ ____

>  <TORSDO>
F 10

$$$$
=
 OpenBabel10222415413D

 40 45  0  0  1  0  0  0  0  0999 V2000
  180.9350  178.5390  141.6610 C   0  0  1  0  0  3  0  0  0  0  0  0
  179.6780  180.3880  141.0680 C   0  0  0  0  0  0  0  0  0  0  0  0
  180.3220  178.5730  139.4570 C   0  0  0  0  0  0  0  0  0  0  0  0
  180.7510  179.4980  140.5460 C   0  0  2  0  0  3  0  0  0  0  0  0
  179.0530  181.1490  140.3470 O   0  0  0  0  0  0  0  0  0  0  0  0
  180.3580  177.3240  139.8910 C   0  0  0  0  0  0  0  0  0  0  0  0
  179.4300  180.3530  142.8520 S   0  0  0  0  0  0  0  0  0  0  0  0
  180.0210  178.9850  138.0560 C   0  0  0  0  0  1  0  0  0  0  0  0
  180.7060  179.0520  143.0360 C   0  0  2  0  0  3  0  0  0  0  0  0
  180.6690  177.2860  141.3090 C   0  0  0  0  0  2  0  0  0  0  0  0
  179.6610  175.5210  137.8190 C   0  0  1  0  0  3  0  0  0  0  0  0
  179.8600  174.7100  138.9190 C   0  0  0  0  0  2  0  0  0  0  0  0
  180.0410  176.1790  139.1050 N   0  0  0  0  0  0  0  0  0  0  0  0
  181.8340  174.4560  137.0810 N   0  0  0  0  0  2  0  0  0  0  0  0
  180.8470  175.4780  136.9110 C   0  0  0  0  0  0  0  0  0  0  0  0
  180.9540  176.3200  135.9790 O   0  0  0  0  0  0  0  0  0  0  0  0
  184.0100  172.2520  137.2180 C   0  0  0  0  0  2  0  0  0  0  0  0
  185.3490  172.9440  137.4290 C   0  0  0  0  0  2  0  0  0  0  0  0
  182.9940  174.3280  136.2080 C   0  0  1  0  0  3  0  0  0  0  0  0
  184.1520  175.0790  136.8000 C   0  0  0  0  0  0  0  0  0  0  0  0
  184.1850  176.3350  136.7230 O   0  0  0  0  0  0  0  0  0  0  0  0
  183.3330  172.8500  135.9890 C   0  0  0  0  0  2  0  0  0  0  0  0
  185.1740  174.3890  137.5280 N   0  0  0  0  0  2  0  0  0  0  0  0
  181.9740  179.6800  143.5970 C   0  0  0  0  0  2  0  0  0  0  0  0
  184.3470  179.3660  142.9440 C   0  0  1  0  0  3  0  0  0  0  0  0
  183.5550  178.4020  144.9720 C   0  0  0  0  0  2  0  0  0  0  0  0
  183.1350  178.7000  143.5670 C   0  0  1  0  0  3  0  0  0  0  0  0
  185.3460  179.5280  143.9230 O   0  0  0  0  0  0  0  0  0  0  0  0
  185.0450  178.6190  144.9520 C   0  0  1  0  0  3  0  0  0  0  0  0
  184.3350  177.9390  139.5490 N   0  0  0  0  0  1  0  0  0  0  0  0
  184.8770  178.5280  141.7870 C   0  0  1  0  0  3  0  0  0  0  0  0
  184.3020  179.0050  140.5340 C   0  0  1  0  0  3  0  0  0  0  0  0
  185.6770  179.3770  140.8910 N   0  0  0  0  0  2  0  0  0  0  0  0
  185.4950  179.1660  146.2720 C   0  0  0  0  0  3  0  0  0  0  0  0
  186.5330  178.6710  146.9600 C   0  0  0  0  0  3  0  0  0  0  0  0
  187.3500  177.5020  146.4920 C   0  0  1  0  0  3  0  0  0  0  0  0
  188.1040  176.7300  144.2420 C   0  0  0  0  0  1  0  0  0  0  0  0
  188.1110  177.8820  145.2300 C   0  0  0  0  0  2  0  0  0  0  0  0
  187.9290  177.5350  148.8350 O   0  0  0  0  0  1  0  0  0  0  0  0
  188.3000  177.0210  147.5900 C   0  0  0  0  0  2  0  0  0  0  0  0
  1 10  1  6  0  0  0
  1  9  1  0  0  0  0
  2  7  1  0  0  0  0
  3  6  2  0  0  0  0
  4  3  1  6  0  0  0
  4  2  1  0  0  0  0
  4  1  1  0  0  0  0
  5  2  2  0  0  0  0
  6 10  1  0  0  0  0
  7  9  1  0  0  0  0
  8  3  1  0  0  0  0
  9 24  1  6  0  0  0
 11 15  1  6  0  0  0
 11 12  1  0  0  0  0
 11 13  1  0  0  0  0
 12 13  1  0  0  0  0
 13  6  1  0  0  0  0
 15 14  1  0  0  0  0
 16 15  2  0  0  0  0
 17 18  1  0  0  0  0
 18 23  1  0  0  0  0
 19 20  1  0  0  0  0
 19 14  1  1  0  0  0
 20 23  1  0  0  0  0
 21 20  2  0  0  0  0
 22 19  1  0  0  0  0
 22 17  1  0  0  0  0
 25 27  1  0  0  0  0
 25 28  1  1  0  0  0
 27 24  1  1  0  0  0
 27 26  1  0  0  0  0
 28 29  1  0  0  0  0
 29 26  1  0  0  0  0
 29 34  1  1  0  0  0
 31 33  1  6  0  0  0
 31 25  1  0  0  0  0
 32 30  1  6  0  0  0
 32 33  1  0  0  0  0
 32 31  1  0  0  0  0
 34 35  2  0  0  0  0
 36 38  1  6  0  0  0
 36 35  1  0  0  0  0
 36 40  1  0  0  0  0
 37 38  1  0  0  0  0
 40 39  1  0  0  0  0
M  END
>  <MODEL>
9

>  <REMARK>
 VINA RESULT:      -7.2      4.412      7.564
  Name = 
  10 active torsions:
  status: ('A' for Active; 'I' for Inactive)
    1  A    between atoms: C_1  and  C_16
    2  A    between atoms: N_3  and  C_18
    3  A    between atoms: C_4  and  C_28
    4  A    between atoms: C_8  and  C_13
    5  A    between atoms: C_8  and  C_31
    6  A    between atoms: C_8  and  C_39
    7  A    between atoms: C_14  and  C_15
    8  A    between atoms: C_15  and  C_37
    9  A    between atoms: C_17  and  C_21
   10  A    between atoms: C_34  and  N_40
                            x       y       z     vdW  Elec       q    Type
                         _______ _______ _______ _____ _____    ______ ____

>  <TORSDO>
F 10

$$$$
