=
 OpenBabel10222415423D

 40 41  0  0  1  0  0  0  0  0999 V2000
  184.3570  178.5380  144.6340 C   0  0  2  0  0  3  0  0  0  0  0  0
  185.3230  179.1570  142.5280 C   0  0  0  0  0  3  0  0  0  0  0  0
  184.8320  178.2350  143.2920 N   0  0  0  0  0  0  0  0  0  0  0  0
  187.1620  178.7320  140.8340 C   0  0  0  0  0  0  0  0  0  0  0  0
  186.5590  178.3330  138.5540 N   0  0  0  0  0  0  0  0  0  0  0  0
  185.2380  178.4540  138.8510 C   0  0  0  0  0  3  0  0  0  0  0  0
  184.8370  178.7260  140.1600 C   0  0  0  0  0  3  0  0  0  0  0  0
  185.7970  178.8700  141.1620 C   0  0  0  0  0  0  0  0  0  0  0  0
  187.5280  178.4650  139.5050 C   0  0  0  0  0  0  0  0  0  0  0  0
  188.1280  178.8700  141.7790 F   0  0  0  0  0  0  0  0  0  0  0  0
  189.2340  178.4450  137.6880 C   0  0  0  0  0  0  0  0  0  0  0  0
  189.4260  176.8910  139.3690 C   0  0  0  0  0  3  0  0  0  0  0  0
  189.8630  176.3410  138.2380 C   0  0  0  0  0  3  0  0  0  0  0  0
  188.9810  178.3130  139.1490 C   0  0  2  0  0  3  0  0  0  0  0  0
  189.8790  176.9020  135.7560 C   0  0  0  0  0  1  0  0  0  0  0  0
  189.7910  177.2570  137.1600 N   0  0  0  0  0  0  0  0  0  0  0  0
  188.9890  179.4690  136.9980 O   0  0  0  0  0  0  0  0  0  0  0  0
  183.1160  179.4170  144.5690 C   0  0  0  0  0  2  0  0  0  0  0  0
  180.4850  179.0880  142.1530 C   0  0  0  0  0  0  0  0  0  0  0  0
  181.9180  178.5830  144.2710 C   0  0  0  0  0  3  0  0  0  0  0  0
  180.3240  178.1230  141.1690 O   0  0  0  0  0  1  0  0  0  0  0  0
  181.2020  178.8250  143.2110 C   0  0  0  0  0  0  0  0  0  0  0  0
  179.8310  180.4230  142.0140 C   0  0  0  0  0  2  0  0  0  0  0  0
  179.6160  181.7380  140.0340 O   0  0  0  0  0  1  0  0  0  0  0  0
  179.1800  180.5640  140.6480 C   0  0  0  0  0  2  0  0  0  0  0  0
  185.4500  179.2760  145.3950 C   0  0  0  0  0  2  0  0  0  0  0  0
  185.7720  178.5820  146.7100 C   0  0  0  0  0  2  0  0  0  0  0  0
  186.8860  177.5560  146.5390 C   0  0  0  0  0  2  0  0  0  0  0  0
  188.1230  177.9300  147.3480 C   0  0  0  0  0  2  0  0  0  0  0  0
  189.0810  176.8340  147.3590 N   0  0  0  0  0  2  0  0  0  0  0  0
  190.2910  177.3690  147.0640 O   0  0  0  0  0  0  0  0  0  0  0  0
  190.9510  176.3680  146.3470 C   0  0  2  0  0  3  0  0  0  0  0  0
  192.0170  175.7510  147.2360 C   0  0  0  0  0  1  0  0  0  0  0  0
  191.5830  176.9420  145.0780 C   0  0  2  0  0  3  0  0  0  0  0  0
  191.8000  178.3160  145.2230 O   0  0  0  0  0  1  0  0  0  0  0  0
  190.4960  176.6660  143.6400 P   0  0  2  0  0  0  0  0  0  0  0  0
  190.6450  175.2400  143.1580 O   0  0  0  0  0  1  0  0  0  0  0  0
  190.9600  177.7170  142.3990 O   0  0  0  0  0  0  0  0  0  0  0  0
  188.1150  176.1160  143.2480 C   0  0  0  0  0  1  0  0  0  0  0  0
  188.8740  176.9760  144.0440 O   0  0  0  0  0  0  0  0  0  0  0  0
  1 18  1  6  0  0  0
  1 26  1  0  0  0  0
  2  3  2  0  0  0  0
  3  1  1  0  0  0  0
  4  8  1  0  0  0  0
  4 10  1  0  0  0  0
  5  6  2  0  0  0  0
  5  9  1  0  0  0  0
  6  7  1  0  0  0  0
  7  8  2  0  0  0  0
  8  2  1  0  0  0  0
  9  4  2  0  0  0  0
 11 14  1  0  0  0  0
 13 12  2  0  0  0  0
 14 12  1  0  0  0  0
 14  9  1  6  0  0  0
 15 16  1  0  0  0  0
 16 11  1  0  0  0  0
 16 13  1  0  0  0  0
 17 11  2  0  0  0  0
 19 22  2  0  0  0  0
 20 18  1  0  0  0  0
 21 19  1  0  0  0  0
 22 20  2  0  0  0  0
 23 19  1  0  0  0  0
 24 25  1  0  0  0  0
 25 23  1  0  0  0  0
 26 27  1  0  0  0  0
 28 27  1  0  0  0  0
 28 29  1  0  0  0  0
 29 30  1  0  0  0  0
 31 30  1  0  0  0  0
 32 31  1  0  0  0  0
 32 33  1  1  0  0  0
 34 35  1  1  0  0  0
 34 32  1  0  0  0  0
 36 38  2  6  0  0  0
 36 40  1  0  0  0  0
 36 34  1  0  0  0  0
 37 36  1  0  0  0  0
 39 40  1  0  0  0  0
M  END
>  <MODEL>
1

>  <REMARK>
 VINA RESULT:      -7.6      0.000      0.000
  Name = 
  17 active torsions:
  status: ('A' for Active; 'I' for Inactive)
    1  A    between atoms: C_3  and  C_37
    2  A    between atoms: C_3  and  C_40
    3  A    between atoms: P_5  and  C_6
    4  A    between atoms: P_5  and  O_29
    5  A    between atoms: C_6  and  C_33
    6  A    between atoms: C_8  and  C_19
    7  A    between atoms: C_13  and  C_23
    8  A    between atoms: C_14  and  C_22
    9  A    between atoms: C_18  and  C_25
   10  A    between atoms: C_19  and  C_32
   11  A    between atoms: N_20  and  C_40
   12  A    between atoms: C_22  and  C_40
   13  A    between atoms: C_24  and  C_27
   14  A    between atoms: C_24  and  N_36
   15  A    between atoms: C_27  and  C_37
   16  A    between atoms: C_33  and  O_34
   17  A    between atoms: O_34  and  N_36
                            x       y       z     vdW  Elec       q    Type
                         _______ _______ _______ _____ _____    ______ ____

>  <TORSDO>
F 17

$$$$
=
 OpenBabel10222415423D

 40 41  0  0  1  0  0  0  0  0999 V2000
  187.5770  177.2650  145.2640 C   0  0  2  0  0  3  0  0  0  0  0  0
  186.0250  178.1110  143.6450 C   0  0  0  0  0  3  0  0  0  0  0  0
  186.2300  177.5270  144.7810 N   0  0  0  0  0  0  0  0  0  0  0  0
  184.3290  178.3680  141.7760 C   0  0  0  0  0  0  0  0  0  0  0  0
  182.0780  178.9520  142.3340 N   0  0  0  0  0  0  0  0  0  0  0  0
  182.3810  178.9750  143.6590 C   0  0  0  0  0  3  0  0  0  0  0  0
  183.6810  178.6990  144.0850 C   0  0  0  0  0  3  0  0  0  0  0  0
  184.6670  178.3950  143.1450 C   0  0  0  0  0  0  0  0  0  0  0  0
  183.0120  178.6580  141.3850 C   0  0  0  0  0  0  0  0  0  0  0  0
  185.2610  178.0820  140.8290 F   0  0  0  0  0  0  0  0  0  0  0  0
  182.9270  179.9120  139.2330 C   0  0  0  0  0  0  0  0  0  0  0  0
  181.1480  178.5610  139.7680 C   0  0  0  0  0  3  0  0  0  0  0  0
  180.6880  179.6110  139.0920 C   0  0  0  0  0  3  0  0  0  0  0  0
  182.6440  178.6260  139.9270 C   0  0  2  0  0  3  0  0  0  0  0  0
  181.5720  181.8460  138.2560 C   0  0  0  0  0  1  0  0  0  0  0  0
  181.7410  180.4790  138.7110 N   0  0  0  0  0  0  0  0  0  0  0  0
  184.0640  180.4400  139.1170 O   0  0  0  0  0  0  0  0  0  0  0  0
  187.7510  177.8220  146.6700 C   0  0  0  0  0  2  0  0  0  0  0  0
  191.1530  176.8420  147.2430 C   0  0  0  0  0  0  0  0  0  0  0  0
  188.5590  176.8800  147.4940 C   0  0  0  0  0  3  0  0  0  0  0  0
  191.9670  177.1210  148.3310 O   0  0  0  0  0  1  0  0  0  0  0  0
  189.8560  176.8610  147.3780 C   0  0  0  0  0  0  0  0  0  0  0  0
  191.7540  176.5050  145.9180 C   0  0  0  0  0  2  0  0  0  0  0  0
  192.3600  174.6480  144.5470 O   0  0  0  0  0  1  0  0  0  0  0  0
  192.1690  175.0430  145.8710 C   0  0  0  0  0  2  0  0  0  0  0  0
  188.5800  177.9350  144.3360 C   0  0  0  0  0  2  0  0  0  0  0  0
  189.2630  176.9170  143.4340 C   0  0  0  0  0  2  0  0  0  0  0  0
  190.1820  177.5980  142.4250 C   0  0  0  0  0  2  0  0  0  0  0  0
  190.2060  176.8500  141.0960 C   0  0  0  0  0  2  0  0  0  0  0  0
  189.3560  177.5130  140.1180 N   0  0  0  0  0  2  0  0  0  0  0  0
  190.1660  177.9290  139.1140 O   0  0  0  0  0  0  0  0  0  0  0  0
  189.7160  177.2330  137.9900 C   0  0  2  0  0  3  0  0  0  0  0  0
  190.9150  176.6500  137.2620 C   0  0  0  0  0  1  0  0  0  0  0  0
  188.9280  178.1580  137.0620 C   0  0  2  0  0  3  0  0  0  0  0  0
  189.0110  179.4800  137.5110 O   0  0  0  0  0  1  0  0  0  0  0  0
  187.1720  177.6650  137.0050 P   0  0  2  0  0  0  0  0  0  0  0  0
  186.3490  178.6280  137.8320 O   0  0  0  0  0  1  0  0  0  0  0  0
  187.0230  176.1120  137.6600 O   0  0  0  0  0  0  0  0  0  0  0  0
  187.7450  177.7140  134.5980 C   0  0  0  0  0  1  0  0  0  0  0  0
  186.6060  177.6430  135.4030 O   0  0  0  0  0  0  0  0  0  0  0  0
  1 26  1  6  0  0  0
  1 18  1  0  0  0  0
  2  3  2  0  0  0  0
  3  1  1  0  0  0  0
  4  8  1  0  0  0  0
  5  6  2  0  0  0  0
  6  7  1  0  0  0  0
  8  2  1  0  0  0  0
  8  7  2  0  0  0  0
  9  4  2  0  0  0  0
  9  5  1  0  0  0  0
 10  4  1  0  0  0  0
 11 14  1  0  0  0  0
 12 14  1  0  0  0  0
 13 12  2  0  0  0  0
 14  9  1  1  0  0  0
 15 16  1  0  0  0  0
 16 13  1  0  0  0  0
 16 11  1  0  0  0  0
 17 11  2  0  0  0  0
 18 20  1  0  0  0  0
 19 22  2  0  0  0  0
 19 21  1  0  0  0  0
 22 20  2  0  0  0  0
 23 19  1  0  0  0  0
 24 25  1  0  0  0  0
 25 23  1  0  0  0  0
 27 26  1  0  0  0  0
 28 27  1  0  0  0  0
 29 28  1  0  0  0  0
 30 29  1  0  0  0  0
 31 30  1  0  0  0  0
 32 33  1  6  0  0  0
 32 31  1  0  0  0  0
 34 35  1  1  0  0  0
 34 32  1  0  0  0  0
 36 34  1  0  0  0  0
 36 38  2  1  0  0  0
 36 37  1  0  0  0  0
 39 40  1  0  0  0  0
 40 36  1  0  0  0  0
M  END
>  <MODEL>
2

>  <REMARK>
 VINA RESULT:      -7.5      2.673      8.081
  Name = 
  17 active torsions:
  status: ('A' for Active; 'I' for Inactive)
    1  A    between atoms: C_3  and  C_37
    2  A    between atoms: C_3  and  C_40
    3  A    between atoms: P_5  and  C_6
    4  A    between atoms: P_5  and  O_29
    5  A    between atoms: C_6  and  C_33
    6  A    between atoms: C_8  and  C_19
    7  A    between atoms: C_13  and  C_23
    8  A    between atoms: C_14  and  C_22
    9  A    between atoms: C_18  and  C_25
   10  A    between atoms: C_19  and  C_32
   11  A    between atoms: N_20  and  C_40
   12  A    between atoms: C_22  and  C_40
   13  A    between atoms: C_24  and  C_27
   14  A    between atoms: C_24  and  N_36
   15  A    between atoms: C_27  and  C_37
   16  A    between atoms: C_33  and  O_34
   17  A    between atoms: O_34  and  N_36
                            x       y       z     vdW  Elec       q    Type
                         _______ _______ _______ _____ _____    ______ ____

>  <TORSDO>
F 17

$$$$
=
 OpenBabel10222415423D

 40 41  0  0  1  0  0  0  0  0999 V2000
  187.9050  177.0340  144.9210 C   0  0  2  0  0  3  0  0  0  0  0  0
  186.0670  178.3450  144.1140 C   0  0  0  0  0  3  0  0  0  0  0  0
  186.5740  177.1780  144.3500 N   0  0  0  0  0  0  0  0  0  0  0  0
  184.4340  178.3550  142.1740 C   0  0  0  0  0  0  0  0  0  0  0  0
  182.1340  178.8510  142.6050 N   0  0  0  0  0  0  0  0  0  0  0  0
  182.3840  178.9970  143.9330 C   0  0  0  0  0  3  0  0  0  0  0  0
  183.6800  178.8300  144.4240 C   0  0  0  0  0  3  0  0  0  0  0  0
  184.7160  178.5110  143.5470 C   0  0  0  0  0  0  0  0  0  0  0  0
  183.1190  178.5370  141.7160 C   0  0  0  0  0  0  0  0  0  0  0  0
  185.4160  178.0490  141.2860 F   0  0  0  0  0  0  0  0  0  0  0  0
  183.0860  179.5960  139.4600 C   0  0  0  0  0  0  0  0  0  0  0  0
  181.3240  178.2450  140.0450 C   0  0  0  0  0  3  0  0  0  0  0  0
  180.8630  179.2190  139.2620 C   0  0  0  0  0  3  0  0  0  0  0  0
  182.8100  178.3680  140.2530 C   0  0  2  0  0  3  0  0  0  0  0  0
  181.7220  181.3990  138.2680 C   0  0  0  0  0  1  0  0  0  0  0  0
  181.9080  180.0810  138.8470 N   0  0  0  0  0  0  0  0  0  0  0  0
  184.2130  180.1460  139.3410 O   0  0  0  0  0  0  0  0  0  0  0  0
  188.0440  177.9080  146.1600 C   0  0  0  0  0  2  0  0  0  0  0  0
  191.2230  176.7420  147.3440 C   0  0  0  0  0  0  0  0  0  0  0  0
  188.6450  177.1200  147.2730 C   0  0  0  0  0  3  0  0  0  0  0  0
  191.9680  177.1960  148.4230 O   0  0  0  0  0  1  0  0  0  0  0  0
  189.9330  176.9330  147.3180 C   0  0  0  0  0  0  0  0  0  0  0  0
  191.8880  176.0230  146.2180 C   0  0  0  0  0  2  0  0  0  0  0  0
  192.0840  178.0690  145.0040 O   0  0  0  0  0  1  0  0  0  0  0  0
  191.6510  176.7470  144.9020 C   0  0  0  0  0  2  0  0  0  0  0  0
  188.9400  177.4620  143.8910 C   0  0  0  0  0  2  0  0  0  0  0  0
  188.7960  176.6690  142.6000 C   0  0  0  0  0  2  0  0  0  0  0  0
  189.5790  177.3140  141.4620 C   0  0  0  0  0  2  0  0  0  0  0  0
  188.7820  177.3100  140.1620 C   0  0  0  0  0  2  0  0  0  0  0  0
  188.5410  178.6710  139.7040 N   0  0  0  0  0  2  0  0  0  0  0  0
  187.4280  178.6330  138.9320 O   0  0  0  0  0  0  0  0  0  0  0  0
  187.8520  178.0580  137.7320 C   0  0  2  0  0  3  0  0  0  0  0  0
  188.8130  179.0110  137.0430 C   0  0  0  0  0  1  0  0  0  0  0  0
  186.6570  177.7580  136.8260 C   0  0  2  0  0  3  0  0  0  0  0  0
  185.4930  177.6210  137.5890 O   0  0  0  0  0  1  0  0  0  0  0  0
  186.9320  176.2170  135.8900 P   0  0  2  0  0  0  0  0  0  0  0  0
  187.9540  176.4610  134.8020 O   0  0  0  0  0  0  0  0  0  0  0  0
  185.4720  175.7470  135.1780 O   0  0  0  0  0  1  0  0  0  0  0  0
  186.3440  174.1840  137.1720 C   0  0  0  0  0  1  0  0  0  0  0  0
  187.4660  174.9750  136.9200 O   0  0  0  0  0  0  0  0  0  0  0  0
  1 26  1  6  0  0  0
  1 18  1  0  0  0  0
  2  3  2  0  0  0  0
  3  1  1  0  0  0  0
  4  8  1  0  0  0  0
  5  6  2  0  0  0  0
  6  7  1  0  0  0  0
  8  2  1  0  0  0  0
  8  7  2  0  0  0  0
  9  4  2  0  0  0  0
  9  5  1  0  0  0  0
 10  4  1  0  0  0  0
 11 14  1  0  0  0  0
 12 14  1  0  0  0  0
 13 12  2  0  0  0  0
 14  9  1  1  0  0  0
 15 16  1  0  0  0  0
 16 13  1  0  0  0  0
 16 11  1  0  0  0  0
 17 11  2  0  0  0  0
 18 20  1  0  0  0  0
 19 21  1  0  0  0  0
 20 22  2  0  0  0  0
 22 19  2  0  0  0  0
 23 19  1  0  0  0  0
 25 24  1  0  0  0  0
 25 23  1  0  0  0  0
 27 26  1  0  0  0  0
 28 27  1  0  0  0  0
 29 28  1  0  0  0  0
 30 29  1  0  0  0  0
 31 30  1  0  0  0  0
 32 33  1  6  0  0  0
 32 31  1  0  0  0  0
 34 35  1  1  0  0  0
 34 32  1  0  0  0  0
 36 37  2  6  0  0  0
 36 34  1  0  0  0  0
 36 40  1  0  0  0  0
 38 36  1  0  0  0  0
 40 39  1  0  0  0  0
M  END
>  <MODEL>
3

>  <REMARK>
 VINA RESULT:      -7.5      2.900      8.205
  Name = 
  17 active torsions:
  status: ('A' for Active; 'I' for Inactive)
    1  A    between atoms: C_3  and  C_37
    2  A    between atoms: C_3  and  C_40
    3  A    between atoms: P_5  and  C_6
    4  A    between atoms: P_5  and  O_29
    5  A    between atoms: C_6  and  C_33
    6  A    between atoms: C_8  and  C_19
    7  A    between atoms: C_13  and  C_23
    8  A    between atoms: C_14  and  C_22
    9  A    between atoms: C_18  and  C_25
   10  A    between atoms: C_19  and  C_32
   11  A    between atoms: N_20  and  C_40
   12  A    between atoms: C_22  and  C_40
   13  A    between atoms: C_24  and  C_27
   14  A    between atoms: C_24  and  N_36
   15  A    between atoms: C_27  and  C_37
   16  A    between atoms: C_33  and  O_34
   17  A    between atoms: O_34  and  N_36
                            x       y       z     vdW  Elec       q    Type
                         _______ _______ _______ _____ _____    ______ ____

>  <TORSDO>
F 17

$$$$
=
 OpenBabel10222415423D

 40 41  0  0  1  0  0  0  0  0999 V2000
  184.8660  178.9190  143.4570 C   0  0  2  0  0  3  0  0  0  0  0  0
  186.2740  177.8870  145.1020 C   0  0  0  0  0  3  0  0  0  0  0  0
  186.1040  178.8140  144.2150 N   0  0  0  0  0  0  0  0  0  0  0  0
  188.7860  177.6040  145.2980 C   0  0  0  0  0  0  0  0  0  0  0  0
  189.7760  177.5730  147.4760 N   0  0  0  0  0  0  0  0  0  0  0  0
  188.5620  177.7460  148.0620 C   0  0  0  0  0  3  0  0  0  0  0  0
  187.4130  177.8480  147.2770 C   0  0  0  0  0  3  0  0  0  0  0  0
  187.5160  177.7740  145.8870 C   0  0  0  0  0  0  0  0  0  0  0  0
  189.9190  177.4980  146.1210 C   0  0  0  0  0  0  0  0  0  0  0  0
  188.9290  177.5230  143.9490 F   0  0  0  0  0  0  0  0  0  0  0  0
  191.4310  178.0730  144.2250 C   0  0  0  0  0  0  0  0  0  0  0  0
  191.4400  175.9100  144.9980 C   0  0  0  0  0  3  0  0  0  0  0  0
  191.6630  175.8870  143.6860 C   0  0  0  0  0  3  0  0  0  0  0  0
  191.2770  177.3200  145.5000 C   0  0  2  0  0  3  0  0  0  0  0  0
  191.5890  177.5200  141.7350 C   0  0  0  0  0  1  0  0  0  0  0  0
  191.6900  177.1960  143.1460 N   0  0  0  0  0  0  0  0  0  0  0  0
  191.3430  179.3230  144.1050 O   0  0  0  0  0  0  0  0  0  0  0  0
  183.6910  178.4410  144.2980 C   0  0  0  0  0  2  0  0  0  0  0  0
  180.4990  178.4670  142.6630 C   0  0  0  0  0  0  0  0  0  0  0  0
  182.5140  179.3270  144.0750 C   0  0  0  0  0  3  0  0  0  0  0  0
  179.2330  178.3840  143.2260 O   0  0  0  0  0  1  0  0  0  0  0  0
  181.5010  178.9010  143.3770 C   0  0  0  0  0  0  0  0  0  0  0  0
  180.7180  178.0750  141.2400 C   0  0  0  0  0  2  0  0  0  0  0  0
  180.6550  178.9230  139.0090 O   0  0  0  0  0  1  0  0  0  0  0  0
  180.1640  179.1320  140.2980 C   0  0  0  0  0  2  0  0  0  0  0  0
  184.9700  178.0520  142.2100 C   0  0  0  0  0  2  0  0  0  0  0  0
  185.3060  178.8870  140.9830 C   0  0  0  0  0  2  0  0  0  0  0  0
  184.0630  179.1740  140.1490 C   0  0  0  0  0  2  0  0  0  0  0  0
  184.2290  178.6930  138.7120 C   0  0  0  0  0  2  0  0  0  0  0  0
  185.6380  178.6330  138.3500 N   0  0  0  0  0  2  0  0  0  0  0  0
  185.7480  177.7240  137.3520 O   0  0  0  0  0  0  0  0  0  0  0  0
  186.9630  178.0260  136.7330 C   0  0  2  0  0  3  0  0  0  0  0  0
  186.7490  178.0820  135.2310 C   0  0  0  0  0  1  0  0  0  0  0  0
  188.0210  176.9780  137.0820 C   0  0  2  0  0  3  0  0  0  0  0  0
  187.4130  175.8240  137.5860 O   0  0  0  0  0  1  0  0  0  0  0  0
  189.1790  177.6270  138.3320 P   0  0  2  0  0  0  0  0  0  0  0  0
  188.8210  177.0700  139.6920 O   0  0  0  0  0  1  0  0  0  0  0  0
  189.0430  179.3130  138.3760 O   0  0  0  0  0  0  0  0  0  0  0  0
  190.9730  175.9260  138.4380 C   0  0  0  0  0  1  0  0  0  0  0  0
  190.7810  177.2160  137.9390 O   0  0  0  0  0  0  0  0  0  0  0  0
  1 26  1  6  0  0  0
  1  3  1  0  0  0  0
  1 18  1  0  0  0  0
  2  8  1  0  0  0  0
  3  2  2  0  0  0  0
  4  8  2  0  0  0  0
  4  9  1  0  0  0  0
  5  6  1  0  0  0  0
  7  6  2  0  0  0  0
  8  7  1  0  0  0  0
  9  5  2  0  0  0  0
 10  4  1  0  0  0  0
 11 14  1  0  0  0  0
 12 14  1  0  0  0  0
 13 12  2  0  0  0  0
 14  9  1  6  0  0  0
 15 16  1  0  0  0  0
 16 13  1  0  0  0  0
 16 11  1  0  0  0  0
 17 11  2  0  0  0  0
 19 21  1  0  0  0  0
 19 22  2  0  0  0  0
 20 18  1  0  0  0  0
 22 20  2  0  0  0  0
 23 19  1  0  0  0  0
 24 25  1  0  0  0  0
 25 23  1  0  0  0  0
 27 26  1  0  0  0  0
 28 27  1  0  0  0  0
 29 28  1  0  0  0  0
 30 29  1  0  0  0  0
 31 30  1  0  0  0  0
 32 33  1  6  0  0  0
 32 34  1  0  0  0  0
 32 31  1  0  0  0  0
 34 35  1  1  0  0  0
 34 36  1  0  0  0  0
 36 38  2  1  0  0  0
 36 37  1  0  0  0  0
 40 36  1  0  0  0  0
 40 39  1  0  0  0  0
M  END
>  <MODEL>
4

>  <REMARK>
 VINA RESULT:      -7.3      2.240      6.491
  Name = 
  17 active torsions:
  status: ('A' for Active; 'I' for Inactive)
    1  A    between atoms: C_3  and  C_37
    2  A    between atoms: C_3  and  C_40
    3  A    between atoms: P_5  and  C_6
    4  A    between atoms: P_5  and  O_29
    5  A    between atoms: C_6  and  C_33
    6  A    between atoms: C_8  and  C_19
    7  A    between atoms: C_13  and  C_23
    8  A    between atoms: C_14  and  C_22
    9  A    between atoms: C_18  and  C_25
   10  A    between atoms: C_19  and  C_32
   11  A    between atoms: N_20  and  C_40
   12  A    between atoms: C_22  and  C_40
   13  A    between atoms: C_24  and  C_27
   14  A    between atoms: C_24  and  N_36
   15  A    between atoms: C_27  and  C_37
   16  A    between atoms: C_33  and  O_34
   17  A    between atoms: O_34  and  N_36
                            x       y       z     vdW  Elec       q    Type
                         _______ _______ _______ _____ _____    ______ ____

>  <TORSDO>
F 17

$$$$
=
 OpenBabel10222415423D

 40 41  0  0  1  0  0  0  0  0999 V2000
  187.6510  177.2360  145.0160 C   0  0  2  0  0  3  0  0  0  0  0  0
  186.0370  178.1440  143.4930 C   0  0  0  0  0  3  0  0  0  0  0  0
  186.2860  177.4980  144.5860 N   0  0  0  0  0  0  0  0  0  0  0  0
  184.2650  178.3940  141.6960 C   0  0  0  0  0  0  0  0  0  0  0  0
  182.0410  178.9900  142.3440 N   0  0  0  0  0  0  0  0  0  0  0  0
  182.4000  179.0210  143.6550 C   0  0  0  0  0  3  0  0  0  0  0  0
  183.7160  178.7430  144.0280 C   0  0  0  0  0  3  0  0  0  0  0  0
  184.6610  178.4300  143.0500 C   0  0  0  0  0  0  0  0  0  0  0  0
  182.9340  178.6860  141.3590 C   0  0  0  0  0  0  0  0  0  0  0  0
  185.1550  178.0980  140.7130 F   0  0  0  0  0  0  0  0  0  0  0  0
  182.8180  179.9020  139.1860 C   0  0  0  0  0  0  0  0  0  0  0  0
  181.0020  178.6480  139.8210 C   0  0  0  0  0  3  0  0  0  0  0  0
  180.5630  179.7060  139.1430 C   0  0  0  0  0  3  0  0  0  0  0  0
  182.5040  178.6450  139.9170 C   0  0  2  0  0  3  0  0  0  0  0  0
  181.5170  181.8810  138.2260 C   0  0  0  0  0  1  0  0  0  0  0  0
  181.6400  180.5160  138.7020 N   0  0  0  0  0  0  0  0  0  0  0  0
  183.9730  180.3730  139.0140 O   0  0  0  0  0  0  0  0  0  0  0  0
  187.9130  177.8860  146.3670 C   0  0  0  0  0  2  0  0  0  0  0  0
  191.2450  176.7740  147.0960 C   0  0  0  0  0  0  0  0  0  0  0  0
  188.6480  176.9390  147.2520 C   0  0  0  0  0  3  0  0  0  0  0  0
  192.0330  177.0570  148.2020 O   0  0  0  0  0  1  0  0  0  0  0  0
  189.9460  176.8570  147.1840 C   0  0  0  0  0  0  0  0  0  0  0  0
  191.8750  176.3620  145.8070 C   0  0  0  0  0  2  0  0  0  0  0  0
  192.4140  174.4300  144.5130 O   0  0  0  0  0  1  0  0  0  0  0  0
  192.2010  174.8770  145.8170 C   0  0  0  0  0  2  0  0  0  0  0  0
  188.6170  177.8130  143.9900 C   0  0  0  0  0  2  0  0  0  0  0  0
  189.4900  176.7260  143.3810 C   0  0  0  0  0  2  0  0  0  0  0  0
  190.4990  177.3100  142.3980 C   0  0  0  0  0  2  0  0  0  0  0  0
  190.5300  176.5220  141.0930 C   0  0  0  0  0  2  0  0  0  0  0  0
  190.2150  177.3870  139.9640 N   0  0  0  0  0  2  0  0  0  0  0  0
  189.8290  176.5790  138.9480 O   0  0  0  0  0  0  0  0  0  0  0  0
  190.6640  176.9290  137.8840 C   0  0  2  0  0  3  0  0  0  0  0  0
  189.8080  177.4320  136.7340 C   0  0  0  0  0  1  0  0  0  0  0  0
  191.5020  175.7300  137.4390 C   0  0  2  0  0  3  0  0  0  0  0  0
  191.0790  174.5710  138.0980 O   0  0  0  0  0  1  0  0  0  0  0  0
  193.2660  176.0070  137.8120 P   0  0  2  0  0  0  0  0  0  0  0  0
  193.3930  176.8620  139.0530 O   0  0  0  0  0  1  0  0  0  0  0  0
  193.9740  176.8210  136.5090 O   0  0  0  0  0  0  0  0  0  0  0  0
  194.2900  174.0150  136.7590 C   0  0  0  0  0  1  0  0  0  0  0  0
  194.0720  174.5280  138.0390 O   0  0  0  0  0  0  0  0  0  0  0  0
  1 26  1  6  0  0  0
  1 18  1  0  0  0  0
  2  3  2  0  0  0  0
  3  1  1  0  0  0  0
  4  8  1  0  0  0  0
  5  6  2  0  0  0  0
  6  7  1  0  0  0  0
  8  2  1  0  0  0  0
  8  7  2  0  0  0  0
  9  4  2  0  0  0  0
  9  5  1  0  0  0  0
 10  4  1  0  0  0  0
 11 14  1  0  0  0  0
 12 14  1  0  0  0  0
 13 12  2  0  0  0  0
 14  9  1  1  0  0  0
 15 16  1  0  0  0  0
 16 13  1  0  0  0  0
 16 11  1  0  0  0  0
 17 11  2  0  0  0  0
 18 20  1  0  0  0  0
 19 22  2  0  0  0  0
 19 21  1  0  0  0  0
 22 20  2  0  0  0  0
 23 25  1  0  0  0  0
 23 19  1  0  0  0  0
 24 25  1  0  0  0  0
 27 26  1  0  0  0  0
 28 27  1  0  0  0  0
 29 28  1  0  0  0  0
 30 29  1  0  0  0  0
 31 30  1  0  0  0  0
 32 33  1  6  0  0  0
 32 31  1  0  0  0  0
 34 36  1  0  0  0  0
 34 32  1  0  0  0  0
 34 35  1  1  0  0  0
 36 38  2  6  0  0  0
 36 40  1  0  0  0  0
 36 37  1  0  0  0  0
 39 40  1  0  0  0  0
M  END
>  <MODEL>
5

>  <REMARK>
 VINA RESULT:      -7.3      3.060      8.070
  Name = 
  17 active torsions:
  status: ('A' for Active; 'I' for Inactive)
    1  A    between atoms: C_3  and  C_37
    2  A    between atoms: C_3  and  C_40
    3  A    between atoms: P_5  and  C_6
    4  A    between atoms: P_5  and  O_29
    5  A    between atoms: C_6  and  C_33
    6  A    between atoms: C_8  and  C_19
    7  A    between atoms: C_13  and  C_23
    8  A    between atoms: C_14  and  C_22
    9  A    between atoms: C_18  and  C_25
   10  A    between atoms: C_19  and  C_32
   11  A    between atoms: N_20  and  C_40
   12  A    between atoms: C_22  and  C_40
   13  A    between atoms: C_24  and  C_27
   14  A    between atoms: C_24  and  N_36
   15  A    between atoms: C_27  and  C_37
   16  A    between atoms: C_33  and  O_34
   17  A    between atoms: O_34  and  N_36
                            x       y       z     vdW  Elec       q    Type
                         _______ _______ _______ _____ _____    ______ ____

>  <TORSDO>
F 17

$$$$
=
 OpenBabel10222415423D

 40 41  0  0  1  0  0  0  0  0999 V2000
  185.6610  177.8640  144.3920 C   0  0  2  0  0  3  0  0  0  0  0  0
  184.3400  178.2800  142.4350 C   0  0  0  0  0  3  0  0  0  0  0  0
  184.4330  178.2690  143.7260 N   0  0  0  0  0  0  0  0  0  0  0  0
  183.0840  179.1070  140.3930 C   0  0  0  0  0  0  0  0  0  0  0  0
  180.7250  179.4680  140.5580 N   0  0  0  0  0  0  0  0  0  0  0  0
  180.7250  179.0700  141.8570 C   0  0  0  0  0  3  0  0  0  0  0  0
  181.9170  178.6810  142.4710 C   0  0  0  0  0  3  0  0  0  0  0  0
  183.1080  178.6990  141.7430 C   0  0  0  0  0  0  0  0  0  0  0  0
  181.8670  179.4970  139.8120 C   0  0  0  0  0  0  0  0  0  0  0  0
  184.2220  179.1430  139.6510 F   0  0  0  0  0  0  0  0  0  0  0  0
  181.8020  181.4080  138.2130 C   0  0  0  0  0  0  0  0  0  0  0  0
  180.5110  179.5660  137.7490 C   0  0  0  0  0  3  0  0  0  0  0  0
  179.8720  180.6470  137.3090 C   0  0  0  0  0  3  0  0  0  0  0  0
  181.8330  179.9280  138.3710 C   0  0  2  0  0  3  0  0  0  0  0  0
  180.1050  183.1750  137.4890 C   0  0  0  0  0  1  0  0  0  0  0  0
  180.6260  181.8230  137.5460 N   0  0  0  0  0  0  0  0  0  0  0  0
  182.6950  182.2000  138.6150 O   0  0  0  0  0  0  0  0  0  0  0  0
  186.0030  178.8400  145.5090 C   0  0  0  0  0  2  0  0  0  0  0  0
  188.7320  177.7560  147.5670 C   0  0  0  0  0  0  0  0  0  0  0  0
  186.2740  178.0960  146.7700 C   0  0  0  0  0  3  0  0  0  0  0  0
  189.1470  178.2530  148.7950 O   0  0  0  0  0  1  0  0  0  0  0  0
  187.5000  177.9280  147.1780 C   0  0  0  0  0  0  0  0  0  0  0  0
  189.6880  177.0120  146.6940 C   0  0  0  0  0  2  0  0  0  0  0  0
  192.0320  176.6340  146.4510 O   0  0  0  0  0  1  0  0  0  0  0  0
  191.0230  176.8200  147.3960 C   0  0  0  0  0  2  0  0  0  0  0  0
  186.7980  177.8490  143.3790 C   0  0  0  0  0  2  0  0  0  0  0  0
  187.6760  176.6190  143.5530 C   0  0  0  0  0  2  0  0  0  0  0  0
  189.0620  176.8380  142.9560 C   0  0  0  0  0  2  0  0  0  0  0  0
  188.9860  177.1670  141.4690 C   0  0  0  0  0  2  0  0  0  0  0  0
  190.2060  176.7580  140.7890 N   0  0  0  0  0  2  0  0  0  0  0  0
  190.4680  177.7010  139.8520 O   0  0  0  0  0  0  0  0  0  0  0  0
  190.1970  177.0720  138.6350 C   0  0  2  0  0  3  0  0  0  0  0  0
  191.5030  176.5820  138.0340 C   0  0  0  0  0  1  0  0  0  0  0  0
  189.4960  178.0340  137.6750 C   0  0  2  0  0  3  0  0  0  0  0  0
  188.8850  179.0700  138.3880 O   0  0  0  0  0  1  0  0  0  0  0  0
  188.2250  177.1580  136.7040 P   0  0  2  0  0  0  0  0  0  0  0  0
  187.7880  175.9140  137.4460 O   0  0  0  0  0  1  0  0  0  0  0  0
  188.8940  176.7060  135.2180 O   0  0  0  0  0  0  0  0  0  0  0  0
  185.8510  177.6490  137.2020 C   0  0  0  0  0  1  0  0  0  0  0  0
  186.8860  178.1660  136.4200 O   0  0  0  0  0  0  0  0  0  0  0  0
  1 26  1  6  0  0  0
  1 18  1  0  0  0  0
  2  3  2  0  0  0  0
  3  1  1  0  0  0  0
  4  8  1  0  0  0  0
  5  6  2  0  0  0  0
  6  7  1  0  0  0  0
  8  2  1  0  0  0  0
  8  7  2  0  0  0  0
  9  4  2  0  0  0  0
  9  5  1  0  0  0  0
 10  4  1  0  0  0  0
 11 14  1  0  0  0  0
 11 17  2  0  0  0  0
 12 14  1  0  0  0  0
 13 16  1  0  0  0  0
 13 12  2  0  0  0  0
 14  9  1  1  0  0  0
 15 16  1  0  0  0  0
 16 11  1  0  0  0  0
 18 20  1  0  0  0  0
 19 21  1  0  0  0  0
 20 22  2  0  0  0  0
 22 19  2  0  0  0  0
 23 25  1  0  0  0  0
 23 19  1  0  0  0  0
 24 25  1  0  0  0  0
 26 27  1  0  0  0  0
 28 27  1  0  0  0  0
 29 28  1  0  0  0  0
 30 29  1  0  0  0  0
 31 30  1  0  0  0  0
 32 33  1  6  0  0  0
 32 31  1  0  0  0  0
 34 35  1  1  0  0  0
 34 32  1  0  0  0  0
 36 38  2  6  0  0  0
 36 37  1  0  0  0  0
 36 34  1  0  0  0  0
 40 36  1  0  0  0  0
 40 39  1  0  0  0  0
M  END
>  <MODEL>
6

>  <REMARK>
 VINA RESULT:      -7.2      2.894      7.681
  Name = 
  17 active torsions:
  status: ('A' for Active; 'I' for Inactive)
    1  A    between atoms: C_3  and  C_37
    2  A    between atoms: C_3  and  C_40
    3  A    between atoms: P_5  and  C_6
    4  A    between atoms: P_5  and  O_29
    5  A    between atoms: C_6  and  C_33
    6  A    between atoms: C_8  and  C_19
    7  A    between atoms: C_13  and  C_23
    8  A    between atoms: C_14  and  C_22
    9  A    between atoms: C_18  and  C_25
   10  A    between atoms: C_19  and  C_32
   11  A    between atoms: N_20  and  C_40
   12  A    between atoms: C_22  and  C_40
   13  A    between atoms: C_24  and  C_27
   14  A    between atoms: C_24  and  N_36
   15  A    between atoms: C_27  and  C_37
   16  A    between atoms: C_33  and  O_34
   17  A    between atoms: O_34  and  N_36
                            x       y       z     vdW  Elec       q    Type
                         _______ _______ _______ _____ _____    ______ ____

>  <TORSDO>
F 17

$$$$
=
 OpenBabel10222415423D

 40 41  0  0  1  0  0  0  0  0999 V2000
  183.8870  178.5330  143.6850 C   0  0  2  0  0  3  0  0  0  0  0  0
  185.6280  178.9660  142.0930 C   0  0  0  0  0  3  0  0  0  0  0  0
  184.7090  178.1710  142.5400 N   0  0  0  0  0  0  0  0  0  0  0  0
  185.9600  178.5750  139.6090 C   0  0  0  0  0  0  0  0  0  0  0  0
  188.1310  177.9570  138.8200 N   0  0  0  0  0  0  0  0  0  0  0  0
  188.6360  178.0040  140.0810 C   0  0  0  0  0  3  0  0  0  0  0  0
  187.8080  178.3360  141.1550 C   0  0  0  0  0  3  0  0  0  0  0  0
  186.4610  178.6210  140.9270 C   0  0  0  0  0  0  0  0  0  0  0  0
  186.8220  178.2310  138.5560 C   0  0  0  0  0  0  0  0  0  0  0  0
  184.6540  178.8420  139.3460 F   0  0  0  0  0  0  0  0  0  0  0  0
  185.9190  176.8110  136.7180 C   0  0  0  0  0  0  0  0  0  0  0  0
  187.4000  178.4770  136.1670 C   0  0  0  0  0  3  0  0  0  0  0  0
  187.5890  177.4570  135.3330 C   0  0  0  0  0  3  0  0  0  0  0  0
  186.2950  178.1850  137.1470 C   0  0  2  0  0  3  0  0  0  0  0  0
  186.8260  175.0390  135.1150 C   0  0  0  0  0  1  0  0  0  0  0  0
  186.6890  176.3970  135.6060 N   0  0  0  0  0  0  0  0  0  0  0  0
  185.0360  176.0960  137.2610 O   0  0  0  0  0  0  0  0  0  0  0  0
  182.7040  179.3800  143.2380 C   0  0  0  0  0  2  0  0  0  0  0  0
  179.5410  178.2740  141.9600 C   0  0  0  0  0  0  0  0  0  0  0  0
  181.4310  178.7530  143.6900 C   0  0  0  0  0  3  0  0  0  0  0  0
  179.0920  176.9780  141.7530 O   0  0  0  0  0  1  0  0  0  0  0  0
  180.4850  178.5050  142.8300 C   0  0  0  0  0  0  0  0  0  0  0  0
  178.9390  179.4110  141.2020 C   0  0  0  0  0  2  0  0  0  0  0  0
  180.6660  179.8200  139.6070 O   0  0  0  0  0  1  0  0  0  0  0  0
  180.0170  180.3650  140.7150 C   0  0  0  0  0  2  0  0  0  0  0  0
  184.7280  179.3330  144.6700 C   0  0  0  0  0  2  0  0  0  0  0  0
  184.8770  178.5970  145.9940 C   0  0  0  0  0  2  0  0  0  0  0  0
  185.7540  179.3770  146.9670 C   0  0  0  0  0  2  0  0  0  0  0  0
  186.7580  178.4680  147.6680 C   0  0  0  0  0  2  0  0  0  0  0  0
  187.1890  177.3980  146.7800 N   0  0  0  0  0  2  0  0  0  0  0  0
  188.5420  177.3610  146.8400 O   0  0  0  0  0  0  0  0  0  0  0  0
  188.9580  177.5920  145.5260 C   0  0  2  0  0  3  0  0  0  0  0  0
  187.9490  176.9710  144.5760 C   0  0  0  0  0  1  0  0  0  0  0  0
  190.3480  177.0000  145.2890 C   0  0  2  0  0  3  0  0  0  0  0  0
  191.1060  177.0560  146.4630 O   0  0  0  0  0  1  0  0  0  0  0  0
  191.2220  177.9210  143.9800 P   0  0  2  0  0  0  0  0  0  0  0  0
  192.4210  178.6270  144.5720 O   0  0  0  0  0  1  0  0  0  0  0  0
  190.1690  179.0750  143.3320 O   0  0  0  0  0  0  0  0  0  0  0  0
  190.5960  176.1100  142.4130 C   0  0  0  0  0  1  0  0  0  0  0  0
  191.7200  176.8720  142.7370 O   0  0  0  0  0  0  0  0  0  0  0  0
  1 18  1  6  0  0  0
  1 26  1  0  0  0  0
  2  3  2  0  0  0  0
  3  1  1  0  0  0  0
  4  8  1  0  0  0  0
  5  6  2  0  0  0  0
  6  7  1  0  0  0  0
  8  7  2  0  0  0  0
  8  2  1  0  0  0  0
  9  5  1  0  0  0  0
  9  4  2  0  0  0  0
 10  4  1  0  0  0  0
 11 14  1  0  0  0  0
 11 17  2  0  0  0  0
 12 14  1  0  0  0  0
 13 16  1  0  0  0  0
 13 12  2  0  0  0  0
 14  9  1  1  0  0  0
 15 16  1  0  0  0  0
 16 11  1  0  0  0  0
 18 20  1  0  0  0  0
 19 22  2  0  0  0  0
 21 19  1  0  0  0  0
 22 20  2  0  0  0  0
 23 19  1  0  0  0  0
 24 25  1  0  0  0  0
 25 23  1  0  0  0  0
 26 27  1  0  0  0  0
 27 28  1  0  0  0  0
 28 29  1  0  0  0  0
 30 31  1  0  0  0  0
 30 29  1  0  0  0  0
 32 33  1  6  0  0  0
 32 31  1  0  0  0  0
 34 32  1  0  0  0  0
 34 35  1  1  0  0  0
 36 38  2  6  0  0  0
 36 37  1  0  0  0  0
 36 34  1  0  0  0  0
 39 40  1  0  0  0  0
 40 36  1  0  0  0  0
M  END
>  <MODEL>
7

>  <REMARK>
 VINA RESULT:      -6.8      1.966      2.597
  Name = 
  17 active torsions:
  status: ('A' for Active; 'I' for Inactive)
    1  A    between atoms: C_3  and  C_37
    2  A    between atoms: C_3  and  C_40
    3  A    between atoms: P_5  and  C_6
    4  A    between atoms: P_5  and  O_29
    5  A    between atoms: C_6  and  C_33
    6  A    between atoms: C_8  and  C_19
    7  A    between atoms: C_13  and  C_23
    8  A    between atoms: C_14  and  C_22
    9  A    between atoms: C_18  and  C_25
   10  A    between atoms: C_19  and  C_32
   11  A    between atoms: N_20  and  C_40
   12  A    between atoms: C_22  and  C_40
   13  A    between atoms: C_24  and  C_27
   14  A    between atoms: C_24  and  N_36
   15  A    between atoms: C_27  and  C_37
   16  A    between atoms: C_33  and  O_34
   17  A    between atoms: O_34  and  N_36
                            x       y       z     vdW  Elec       q    Type
                         _______ _______ _______ _____ _____    ______ ____

>  <TORSDO>
F 17

$$$$
=
 OpenBabel10222415423D

 40 41  0  0  1  0  0  0  0  0999 V2000
  188.4090  176.8470  143.7250 C   0  0  2  0  0  3  0  0  0  0  0  0
  186.3630  178.0950  143.6540 C   0  0  0  0  0  3  0  0  0  0  0  0
  187.0810  177.1220  143.1950 N   0  0  0  0  0  0  0  0  0  0  0  0
  184.6800  178.3090  141.7690 C   0  0  0  0  0  0  0  0  0  0  0  0
  182.4340  178.9420  142.2940 N   0  0  0  0  0  0  0  0  0  0  0  0
  182.7310  179.0080  143.6190 C   0  0  0  0  0  3  0  0  0  0  0  0
  184.0260  178.7290  144.0610 C   0  0  0  0  0  3  0  0  0  0  0  0
  185.0120  178.3800  143.1380 C   0  0  0  0  0  0  0  0  0  0  0  0
  183.3680  178.6030  141.3610 C   0  0  0  0  0  0  0  0  0  0  0  0
  185.6120  177.9770  140.8370 F   0  0  0  0  0  0  0  0  0  0  0  0
  183.1260  179.8340  139.2080 C   0  0  0  0  0  0  0  0  0  0  0  0
  181.5300  178.2730  139.7450 C   0  0  0  0  0  3  0  0  0  0  0  0
  180.9420  179.2570  139.0690 C   0  0  0  0  0  3  0  0  0  0  0  0
  183.0060  178.5240  139.9030 C   0  0  2  0  0  3  0  0  0  0  0  0
  181.5410  181.5850  138.2310 C   0  0  0  0  0  1  0  0  0  0  0  0
  181.8790  180.2490  138.6870 N   0  0  0  0  0  0  0  0  0  0  0  0
  184.1890  180.5000  139.0920 O   0  0  0  0  0  0  0  0  0  0  0  0
  189.0520  178.1320  144.2290 C   0  0  0  0  0  2  0  0  0  0  0  0
  188.2040  177.4770  147.6520 C   0  0  0  0  0  0  0  0  0  0  0  0
  189.6920  177.8940  145.5530 C   0  0  0  0  0  3  0  0  0  0  0  0
  188.3110  176.2900  148.3630 O   0  0  0  0  0  1  0  0  0  0  0  0
  188.9550  177.6780  146.6050 C   0  0  0  0  0  0  0  0  0  0  0  0
  187.2440  178.5340  148.0890 C   0  0  0  0  0  2  0  0  0  0  0  0
  184.9770  178.6260  147.3480 O   0  0  0  0  0  1  0  0  0  0  0  0
  186.2900  178.8940  146.9610 C   0  0  0  0  0  2  0  0  0  0  0  0
  189.2750  176.2580  142.6200 C   0  0  0  0  0  2  0  0  0  0  0  0
  189.8540  177.3490  141.7310 C   0  0  0  0  0  2  0  0  0  0  0  0
  189.2880  177.2720  140.3180 C   0  0  0  0  0  2  0  0  0  0  0  0
  188.7620  178.6260  139.8520 C   0  0  0  0  0  2  0  0  0  0  0  0
  188.3310  178.5580  138.4630 N   0  0  0  0  0  2  0  0  0  0  0  0
  188.7140  177.3470  137.9920 O   0  0  0  0  0  0  0  0  0  0  0  0
  188.4320  177.3960  136.6250 C   0  0  2  0  0  3  0  0  0  0  0  0
  187.1890  178.2420  136.4110 C   0  0  0  0  0  1  0  0  0  0  0  0
  188.2210  175.9880  136.0670 C   0  0  2  0  0  3  0  0  0  0  0  0
  187.3190  175.2790  136.8680 O   0  0  0  0  0  1  0  0  0  0  0  0
  189.8000  175.0770  136.0120 P   0  0  2  0  0  0  0  0  0  0  0  0
  189.8770  174.2730  134.7320 O   0  0  0  0  0  0  0  0  0  0  0  0
  189.8620  174.0180  137.3300 O   0  0  0  0  0  1  0  0  0  0  0  0
  192.1890  175.4830  135.5090 C   0  0  0  0  0  1  0  0  0  0  0  0
  191.1160  176.1480  136.1050 O   0  0  0  0  0  0  0  0  0  0  0  0
  1 26  1  6  0  0  0
  1 18  1  0  0  0  0
  3  2  2  0  0  0  0
  3  1  1  0  0  0  0
  4  8  1  0  0  0  0
  5  6  2  0  0  0  0
  6  7  1  0  0  0  0
  8  2  1  0  0  0  0
  8  7  2  0  0  0  0
  9  4  2  0  0  0  0
  9  5  1  0  0  0  0
 10  4  1  0  0  0  0
 11 14  1  0  0  0  0
 12 14  1  0  0  0  0
 13 12  2  0  0  0  0
 14  9  1  1  0  0  0
 15 16  1  0  0  0  0
 16 13  1  0  0  0  0
 16 11  1  0  0  0  0
 17 11  2  0  0  0  0
 18 20  1  0  0  0  0
 19 23  1  0  0  0  0
 19 21  1  0  0  0  0
 20 22  2  0  0  0  0
 22 19  2  0  0  0  0
 25 24  1  0  0  0  0
 25 23  1  0  0  0  0
 27 26  1  0  0  0  0
 28 27  1  0  0  0  0
 29 28  1  0  0  0  0
 30 29  1  0  0  0  0
 31 30  1  0  0  0  0
 32 33  1  1  0  0  0
 32 31  1  0  0  0  0
 34 32  1  0  0  0  0
 34 35  1  1  0  0  0
 36 37  2  6  0  0  0
 36 34  1  0  0  0  0
 36 40  1  0  0  0  0
 36 38  1  0  0  0  0
 39 40  1  0  0  0  0
M  END
>  <MODEL>
8

>  <REMARK>
 VINA RESULT:      -6.8      3.033      7.660
  Name = 
  17 active torsions:
  status: ('A' for Active; 'I' for Inactive)
    1  A    between atoms: C_3  and  C_37
    2  A    between atoms: C_3  and  C_40
    3  A    between atoms: P_5  and  C_6
    4  A    between atoms: P_5  and  O_29
    5  A    between atoms: C_6  and  C_33
    6  A    between atoms: C_8  and  C_19
    7  A    between atoms: C_13  and  C_23
    8  A    between atoms: C_14  and  C_22
    9  A    between atoms: C_18  and  C_25
   10  A    between atoms: C_19  and  C_32
   11  A    between atoms: N_20  and  C_40
   12  A    between atoms: C_22  and  C_40
   13  A    between atoms: C_24  and  C_27
   14  A    between atoms: C_24  and  N_36
   15  A    between atoms: C_27  and  C_37
   16  A    between atoms: C_33  and  O_34
   17  A    between atoms: O_34  and  N_36
                            x       y       z     vdW  Elec       q    Type
                         _______ _______ _______ _____ _____    ______ ____

>  <TORSDO>
F 17

$$$$
=
 OpenBabel10222415423D

 40 41  0  0  1  0  0  0  0  0999 V2000
  187.5380  177.7320  143.1520 C   0  0  2  0  0  3  0  0  0  0  0  0
  188.7860  178.1970  141.1590 C   0  0  0  0  0  3  0  0  0  0  0  0
  188.0140  177.3960  141.8190 N   0  0  0  0  0  0  0  0  0  0  0  0
  190.2430  176.8940  139.5440 C   0  0  0  0  0  0  0  0  0  0  0  0
  190.0900  177.3760  137.2060 N   0  0  0  0  0  0  0  0  0  0  0  0
  189.1420  178.3230  137.4330 C   0  0  0  0  0  3  0  0  0  0  0  0
  188.7170  178.5900  138.7350 C   0  0  0  0  0  3  0  0  0  0  0  0
  189.2670  177.8790  139.8020 C   0  0  0  0  0  0  0  0  0  0  0  0
  190.6500  176.6570  138.2210 C   0  0  0  0  0  0  0  0  0  0  0  0
  190.8070  176.1820  140.5550 F   0  0  0  0  0  0  0  0  0  0  0  0
  193.0020  176.1820  137.5460 C   0  0  0  0  0  0  0  0  0  0  0  0
  191.3390  174.8560  136.6780 C   0  0  0  0  0  3  0  0  0  0  0  0
  192.2970  174.9800  135.7620 C   0  0  0  0  0  3  0  0  0  0  0  0
  191.6870  175.6050  137.9370 C   0  0  2  0  0  3  0  0  0  0  0  0
  194.4030  176.3670  135.4160 C   0  0  0  0  0  1  0  0  0  0  0  0
  193.3680  175.7730  136.2420 N   0  0  0  0  0  0  0  0  0  0  0  0
  193.7070  176.9370  138.2660 O   0  0  0  0  0  0  0  0  0  0  0  0
  188.1000  176.7550  144.1750 C   0  0  0  0  0  2  0  0  0  0  0  0
  187.3380  178.0930  147.4140 C   0  0  0  0  0  0  0  0  0  0  0  0
  188.7370  177.5020  145.2960 C   0  0  0  0  0  3  0  0  0  0  0  0
  187.7230  177.6230  148.6620 O   0  0  0  0  0  1  0  0  0  0  0  0
  188.0460  177.7950  146.3600 C   0  0  0  0  0  0  0  0  0  0  0  0
  186.1260  178.9520  147.2730 C   0  0  0  0  0  2  0  0  0  0  0  0
  184.0620  179.0460  146.0770 O   0  0  0  0  0  1  0  0  0  0  0  0
  184.9780  178.1680  146.6570 C   0  0  0  0  0  2  0  0  0  0  0  0
  186.0170  177.6560  143.1750 C   0  0  0  0  0  2  0  0  0  0  0  0
  185.3990  178.6760  142.2310 C   0  0  0  0  0  2  0  0  0  0  0  0
  183.9650  179.0060  142.6310 C   0  0  0  0  0  2  0  0  0  0  0  0
  182.9650  178.5010  141.5960 C   0  0  0  0  0  2  0  0  0  0  0  0
  183.6280  177.6630  140.6070 N   0  0  0  0  0  2  0  0  0  0  0  0
  183.0360  177.9210  139.4160 O   0  0  0  0  0  0  0  0  0  0  0  0
  183.9650  177.4940  138.4630 C   0  0  2  0  0  3  0  0  0  0  0  0
  185.0730  178.5270  138.3620 C   0  0  0  0  0  1  0  0  0  0  0  0
  183.2920  177.3000  137.1040 C   0  0  2  0  0  3  0  0  0  0  0  0
  181.9030  177.4040  137.2310 O   0  0  0  0  0  1  0  0  0  0  0  0
  183.6980  175.6610  136.4150 P   0  0  2  0  0  0  0  0  0  0  0  0
  184.1940  175.8170  134.9950 O   0  0  0  0  0  0  0  0  0  0  0  0
  182.2970  174.7130  136.4070 O   0  0  0  0  0  1  0  0  0  0  0  0
  184.4390  173.5710  137.5140 C   0  0  0  0  0  1  0  0  0  0  0  0
  184.8790  174.8870  137.3620 O   0  0  0  0  0  0  0  0  0  0  0  0
  1 26  1  6  0  0  0
  1 18  1  0  0  0  0
  2  3  2  0  0  0  0
  3  1  1  0  0  0  0
  4  8  1  0  0  0  0
  4 10  1  0  0  0  0
  5  6  2  0  0  0  0
  5  9  1  0  0  0  0
  6  7  1  0  0  0  0
  7  8  2  0  0  0  0
  8  2  1  0  0  0  0
  9  4  2  0  0  0  0
 11 14  1  0  0  0  0
 11 17  2  0  0  0  0
 12 14  1  0  0  0  0
 13 16  1  0  0  0  0
 13 12  2  0  0  0  0
 14  9  1  6  0  0  0
 15 16  1  0  0  0  0
 16 11  1  0  0  0  0
 18 20  1  0  0  0  0
 19 21  1  0  0  0  0
 20 22  2  0  0  0  0
 22 19  2  0  0  0  0
 23 19  1  0  0  0  0
 24 25  1  0  0  0  0
 25 23  1  0  0  0  0
 27 28  1  0  0  0  0
 27 26  1  0  0  0  0
 29 28  1  0  0  0  0
 30 29  1  0  0  0  0
 31 30  1  0  0  0  0
 32 33  1  6  0  0  0
 32 31  1  0  0  0  0
 34 35  1  1  0  0  0
 34 32  1  0  0  0  0
 36 37  2  6  0  0  0
 36 34  1  0  0  0  0
 36 40  1  0  0  0  0
 38 36  1  0  0  0  0
 40 39  1  0  0  0  0
M  END
>  <MODEL>
9

>  <REMARK>
 VINA RESULT:      -6.7      3.472      7.254
  Name = 
  17 active torsions:
  status: ('A' for Active; 'I' for Inactive)
    1  A    between atoms: C_3  and  C_37
    2  A    between atoms: C_3  and  C_40
    3  A    between atoms: P_5  and  C_6
    4  A    between atoms: P_5  and  O_29
    5  A    between atoms: C_6  and  C_33
    6  A    between atoms: C_8  and  C_19
    7  A    between atoms: C_13  and  C_23
    8  A    between atoms: C_14  and  C_22
    9  A    between atoms: C_18  and  C_25
   10  A    between atoms: C_19  and  C_32
   11  A    between atoms: N_20  and  C_40
   12  A    between atoms: C_22  and  C_40
   13  A    between atoms: C_24  and  C_27
   14  A    between atoms: C_24  and  N_36
   15  A    between atoms: C_27  and  C_37
   16  A    between atoms: C_33  and  O_34
   17  A    between atoms: O_34  and  N_36
                            x       y       z     vdW  Elec       q    Type
                         _______ _______ _______ _____ _____    ______ ____

>  <TORSDO>
F 17

$$$$
