=
 OpenBabel10222421183D

 37 42  0  0  1  0  0  0  0  0999 V2000
  182.3850  179.0360  144.2040 C   0  0  0  0  0  3  0  0  0  0  0  0
  187.1330  177.2660  143.1670 C   0  0  0  0  0  3  0  0  0  0  0  0
  186.4910  178.4590  146.6000 C   0  0  0  0  0  3  0  0  0  0  0  0
  183.0010  178.7580  142.9990 C   0  0  0  0  0  0  0  0  0  0  0  0
  184.3730  178.4980  142.9050 C   0  0  0  0  0  0  0  0  0  0  0  0
  183.1370  179.0480  145.3300 N   0  0  0  0  0  0  0  0  0  0  0  0
  185.2410  178.5520  138.8420 N   0  0  0  0  0  0  0  0  0  0  0  0
  189.1260  176.9440  144.4770 C   0  0  0  0  0  3  0  0  0  0  0  0
  186.0290  178.4380  141.0650 N   0  0  0  0  0  0  0  0  0  0  0  0
  185.1540  178.8120  146.5300 C   0  0  0  0  0  3  0  0  0  0  0  0
  186.4870  177.9150  144.2260 C   0  0  0  0  0  0  0  0  0  0  0  0
  188.4360  176.7920  143.2810 C   0  0  0  0  0  3  0  0  0  0  0  0
  184.7600  178.4590  141.5370 C   0  0  0  0  0  0  0  0  0  0  0  0
  184.4690  178.7580  145.3220 C   0  0  0  0  0  0  0  0  0  0  0  0
  182.2700  178.8290  141.4880 S   0  0  0  0  0  0  0  0  0  0  0  0
  183.9450  178.6170  139.2540 C   0  0  0  0  0  0  0  0  0  0  0  0
  183.7000  178.5860  140.6390 C   0  0  0  0  0  0  0  0  0  0  0  0
  188.5200  177.5480  145.5810 C   0  0  0  0  0  0  0  0  0  0  0  0
  187.1770  177.9980  145.4750 C   0  0  0  0  0  0  0  0  0  0  0  0
  186.2730  178.4660  139.7260 C   0  0  0  0  0  0  0  0  0  0  0  0
  185.1420  178.3940  144.1140 C   0  0  0  0  0  0  0  0  0  0  0  0
  182.2170  177.6330  137.7320 C   0  0  0  0  0  1  0  0  0  0  0  0
  182.9450  178.7250  138.2750 O   0  0  0  0  0  0  0  0  0  0  0  0
  189.3020  177.6380  146.7820 N   0  0  0  0  0  2  0  0  0  0  0  0
  190.1160  176.6070  147.2700 N   0  0  0  0  0  2  0  0  0  0  0  0
  191.9990  177.3590  146.1110 O   0  0  0  0  0  0  0  0  0  0  0  0
  191.4910  176.5150  146.8990 C   0  0  0  0  0  0  0  0  0  0  0  0
  193.1700  175.8860  148.4980 N   0  0  0  0  0  1  0  0  0  0  0  0
  192.3230  175.4010  147.4230 C   0  0  0  0  0  2  0  0  0  0  0  0
  187.6730  178.4290  139.2280 C   0  0  0  0  0  2  0  0  0  0  0  0
  187.8530  177.3080  138.4180 O   0  0  0  0  0  0  0  0  0  0  0  0
  189.0210  176.7100  138.8910 C   0  0  2  0  0  3  0  0  0  0  0  0
  189.9610  177.7800  139.4430 C   0  0  0  0  0  2  0  0  0  0  0  0
  191.8710  176.3820  138.6540 C   0  0  0  0  0  2  0  0  0  0  0  0
  190.9410  175.3320  138.2400 N   0  0  0  0  0  2  0  0  0  0  0  0
  189.7160  175.9630  137.7510 C   0  0  0  0  0  2  0  0  0  0  0  0
  191.2960  177.1560  139.8400 C   0  0  0  0  0  2  0  0  0  0  0  0
  1  6  1  0  0  0  0
  2 12  2  0  0  0  0
  2 11  1  0  0  0  0
  4  1  2  0  0  0  0
  5  4  1  0  0  0  0
  5 21  2  0  0  0  0
  7 16  2  0  0  0  0
  7 20  1  0  0  0  0
  8 18  2  0  0  0  0
  9 13  1  0  0  0  0
 10  3  2  0  0  0  0
 11 19  2  0  0  0  0
 12  8  1  0  0  0  0
 13  5  1  0  0  0  0
 14  6  2  0  0  0  0
 14 10  1  0  0  0  0
 15  4  1  0  0  0  0
 16 17  1  0  0  0  0
 17 15  1  0  0  0  0
 17 13  2  0  0  0  0
 18 24  1  0  0  0  0
 19 18  1  0  0  0  0
 19  3  1  0  0  0  0
 20  9  2  0  0  0  0
 21 11  1  0  0  0  0
 21 14  1  0  0  0  0
 22 23  1  0  0  0  0
 23 16  1  0  0  0  0
 24 25  1  0  0  0  0
 26 27  2  0  0  0  0
 27 25  1  0  0  0  0
 27 29  1  0  0  0  0
 29 28  1  0  0  0  0
 30 20  1  0  0  0  0
 31 30  1  0  0  0  0
 32 31  1  6  0  0  0
 32 33  1  0  0  0  0
 33 37  1  0  0  0  0
 34 37  1  0  0  0  0
 35 34  1  0  0  0  0
 36 35  1  0  0  0  0
 36 32  1  0  0  0  0
M  END
>  <MODEL>
1

>  <REMARK>
 VINA RESULT:     -10.5      0.000      0.000
  Name = 
  7 active torsions:
  status: ('A' for Active; 'I' for Inactive)
    1  A    between atoms: N_1  and  N_9
    2  A    between atoms: N_1  and  C_30
    3  A    between atoms: C_7  and  O_31
    4  A    between atoms: C_15  and  O_31
    5  A    between atoms: C_15  and  C_34
    6  A    between atoms: O_20  and  C_26
    7  A    between atoms: C_22  and  C_35
                            x       y       z     vdW  Elec       q    Type
                         _______ _______ _______ _____ _____    ______ ____

>  <TORSDO>
F 7

$$$$
=
 OpenBabel10222421183D

 37 42  0  0  1  0  0  0  0  0999 V2000
  186.1350  178.5230  147.6020 C   0  0  0  0  0  3  0  0  0  0  0  0
  186.7320  178.6180  142.4650 C   0  0  0  0  0  3  0  0  0  0  0  0
  183.2780  178.7000  143.7620 C   0  0  0  0  0  3  0  0  0  0  0  0
  187.2430  178.2640  146.8180 C   0  0  0  0  0  0  0  0  0  0  0  0
  187.1560  178.1210  145.4280 C   0  0  0  0  0  0  0  0  0  0  0  0
  184.9280  178.6500  147.0010 N   0  0  0  0  0  0  0  0  0  0  0  0
  190.8500  176.6480  144.2270 N   0  0  0  0  0  0  0  0  0  0  0  0
  185.2170  178.7860  140.6040 C   0  0  0  0  0  3  0  0  0  0  0  0
  188.6270  177.2050  143.6590 N   0  0  0  0  0  0  0  0  0  0  0  0
  183.4910  178.7000  145.1310 C   0  0  0  0  0  3  0  0  0  0  0  0
  185.6750  178.5010  143.3750 C   0  0  0  0  0  0  0  0  0  0  0  0
  186.5150  178.7520  141.0980 C   0  0  0  0  0  3  0  0  0  0  0  0
  188.3970  177.6530  144.9160 C   0  0  0  0  0  0  0  0  0  0  0  0
  184.7740  178.5700  145.6490 C   0  0  0  0  0  0  0  0  0  0  0  0
  188.7900  177.9420  147.3870 S   0  0  0  0  0  0  0  0  0  0  0  0
  190.6710  177.0450  145.5160 C   0  0  0  0  0  0  0  0  0  0  0  0
  189.4060  177.5450  145.8740 C   0  0  0  0  0  0  0  0  0  0  0  0
  184.1200  178.7130  141.4650 C   0  0  0  0  0  0  0  0  0  0  0  0
  184.3440  178.6150  142.8650 C   0  0  0  0  0  0  0  0  0  0  0  0
  189.8490  176.7210  143.3060 C   0  0  0  0  0  0  0  0  0  0  0  0
  185.8970  178.3750  144.7830 C   0  0  0  0  0  0  0  0  0  0  0  0
  192.1010  175.7210  147.0890 C   0  0  0  0  0  1  0  0  0  0  0  0
  191.7510  176.9140  146.4030 O   0  0  0  0  0  0  0  0  0  0  0  0
  182.8170  178.7830  140.8660 N   0  0  0  0  0  2  0  0  0  0  0  0
  182.0250  177.6630  140.5760 N   0  0  0  0  0  2  0  0  0  0  0  0
  180.0350  178.8830  140.6470 O   0  0  0  0  0  0  0  0  0  0  0  0
  180.6060  177.7730  140.4690 C   0  0  0  0  0  0  0  0  0  0  0  0
  179.1670  176.0850  141.3930 N   0  0  0  0  0  1  0  0  0  0  0  0
  179.7940  176.5630  140.1730 C   0  0  0  0  0  2  0  0  0  0  0  0
  190.0840  176.2470  141.9170 C   0  0  0  0  0  2  0  0  0  0  0  0
  190.4230  177.3280  141.1030 O   0  0  0  0  0  0  0  0  0  0  0  0
  189.8440  177.0390  139.8670 C   0  0  2  0  0  3  0  0  0  0  0  0
  190.8650  176.3380  138.9720 C   0  0  0  0  0  2  0  0  0  0  0  0
  189.8020  177.4780  137.0220 C   0  0  0  0  0  2  0  0  0  0  0  0
  188.7770  178.0400  137.9010 N   0  0  0  0  0  2  0  0  0  0  0  0
  189.3870  178.3360  139.1970 C   0  0  0  0  0  2  0  0  0  0  0  0
  190.2880  176.1380  137.5730 C   0  0  0  0  0  2  0  0  0  0  0  0
  2 11  1  0  0  0  0
  3 10  2  0  0  0  0
  4 15  1  0  0  0  0
  4  1  2  0  0  0  0
  5  4  1  0  0  0  0
  6  1  1  0  0  0  0
  7 16  2  0  0  0  0
  8 12  1  0  0  0  0
  8 18  2  0  0  0  0
  9 13  1  0  0  0  0
 10 14  1  0  0  0  0
 11 21  1  0  0  0  0
 12  2  2  0  0  0  0
 13  5  1  0  0  0  0
 13 17  2  0  0  0  0
 14  6  2  0  0  0  0
 16 17  1  0  0  0  0
 16 23  1  0  0  0  0
 17 15  1  0  0  0  0
 18 19  1  0  0  0  0
 19 11  2  0  0  0  0
 19  3  1  0  0  0  0
 20  9  2  0  0  0  0
 20  7  1  0  0  0  0
 21  5  2  0  0  0  0
 21 14  1  0  0  0  0
 23 22  1  0  0  0  0
 24 18  1  0  0  0  0
 25 24  1  0  0  0  0
 27 25  1  0  0  0  0
 27 26  2  0  0  0  0
 29 27  1  0  0  0  0
 29 28  1  0  0  0  0
 30 20  1  0  0  0  0
 31 30  1  0  0  0  0
 32 31  1  1  0  0  0
 33 32  1  0  0  0  0
 34 37  1  0  0  0  0
 34 35  1  0  0  0  0
 35 36  1  0  0  0  0
 36 32  1  0  0  0  0
 37 33  1  0  0  0  0
M  END
>  <MODEL>
2

>  <REMARK>
 VINA RESULT:     -10.3      2.655      7.273
  Name = 
  7 active torsions:
  status: ('A' for Active; 'I' for Inactive)
    1  A    between atoms: N_1  and  N_9
    2  A    between atoms: N_1  and  C_30
    3  A    between atoms: C_7  and  O_31
    4  A    between atoms: C_15  and  O_31
    5  A    between atoms: C_15  and  C_34
    6  A    between atoms: O_20  and  C_26
    7  A    between atoms: C_22  and  C_35
                            x       y       z     vdW  Elec       q    Type
                         _______ _______ _______ _____ _____    ______ ____

>  <TORSDO>
F 7

$$$$
=
 OpenBabel10222421183D

 37 42  0  0  1  0  0  0  0  0999 V2000
  185.9920  178.6120  147.5880 C   0  0  0  0  0  3  0  0  0  0  0  0
  186.6090  178.5400  142.4530 C   0  0  0  0  0  3  0  0  0  0  0  0
  183.1490  178.6160  143.7340 C   0  0  0  0  0  3  0  0  0  0  0  0
  187.1060  178.3420  146.8170 C   0  0  0  0  0  0  0  0  0  0  0  0
  187.0270  178.1500  145.4330 C   0  0  0  0  0  0  0  0  0  0  0  0
  184.7860  178.7010  146.9780 N   0  0  0  0  0  0  0  0  0  0  0  0
  190.7470  176.6910  144.2960 N   0  0  0  0  0  0  0  0  0  0  0  0
  185.0990  178.6230  140.5820 C   0  0  0  0  0  3  0  0  0  0  0  0
  188.5190  177.1970  143.7020 N   0  0  0  0  0  0  0  0  0  0  0  0
  183.3560  178.6660  145.1020 C   0  0  0  0  0  3  0  0  0  0  0  0
  185.5500  178.4390  143.3620 C   0  0  0  0  0  0  0  0  0  0  0  0
  186.3960  178.6240  141.0810 C   0  0  0  0  0  3  0  0  0  0  0  0
  188.2770  177.6840  144.9420 C   0  0  0  0  0  0  0  0  0  0  0  0
  184.6390  178.5730  145.6290 C   0  0  0  0  0  0  0  0  0  0  0  0
  188.6550  178.0630  147.4030 S   0  0  0  0  0  0  0  0  0  0  0  0
  190.5570  177.1300  145.5710 C   0  0  0  0  0  0  0  0  0  0  0  0
  189.2830  177.6230  145.9060 C   0  0  0  0  0  0  0  0  0  0  0  0
  184.0010  178.5630  141.4410 C   0  0  0  0  0  0  0  0  0  0  0  0
  184.2190  178.5160  142.8440 C   0  0  0  0  0  0  0  0  0  0  0  0
  189.7490  176.7190  143.3700 C   0  0  0  0  0  0  0  0  0  0  0  0
  185.7680  178.3640  144.7750 C   0  0  0  0  0  0  0  0  0  0  0  0
  191.9000  175.9410  147.3190 C   0  0  0  0  0  1  0  0  0  0  0  0
  191.6350  177.0450  146.4660 O   0  0  0  0  0  0  0  0  0  0  0  0
  182.6990  178.5930  140.8340 N   0  0  0  0  0  2  0  0  0  0  0  0
  182.2880  179.5560  139.9020 N   0  0  0  0  0  2  0  0  0  0  0  0
  180.1300  179.6860  140.7830 O   0  0  0  0  0  0  0  0  0  0  0  0
  180.9630  180.0850  139.9260 C   0  0  0  0  0  0  0  0  0  0  0  0
  181.7260  181.5730  138.2000 N   0  0  0  0  0  1  0  0  0  0  0  0
  180.5550  181.0950  138.9140 C   0  0  0  0  0  2  0  0  0  0  0  0
  189.9970  176.2010  141.9990 C   0  0  0  0  0  2  0  0  0  0  0  0
  190.3470  177.2550  141.1550 O   0  0  0  0  0  0  0  0  0  0  0  0
  190.1480  176.7610  139.8660 C   0  0  2  0  0  3  0  0  0  0  0  0
  191.3940  177.0140  139.0200 C   0  0  0  0  0  2  0  0  0  0  0  0
  189.8880  177.3030  137.0510 C   0  0  0  0  0  2  0  0  0  0  0  0
  188.7320  176.9480  137.8740 N   0  0  0  0  0  2  0  0  0  0  0  0
  188.9480  177.4620  139.2260 C   0  0  0  0  0  2  0  0  0  0  0  0
  191.1400  176.6000  137.5720 C   0  0  0  0  0  2  0  0  0  0  0  0
  2 11  1  0  0  0  0
  3 10  2  0  0  0  0
  4 15  1  0  0  0  0
  4  1  2  0  0  0  0
  5  4  1  0  0  0  0
  6  1  1  0  0  0  0
  7 16  2  0  0  0  0
  8 12  1  0  0  0  0
  8 18  2  0  0  0  0
  9 13  1  0  0  0  0
 10 14  1  0  0  0  0
 11 21  1  0  0  0  0
 12  2  2  0  0  0  0
 13  5  1  0  0  0  0
 13 17  2  0  0  0  0
 14  6  2  0  0  0  0
 16 17  1  0  0  0  0
 16 23  1  0  0  0  0
 17 15  1  0  0  0  0
 18 19  1  0  0  0  0
 19 11  2  0  0  0  0
 19  3  1  0  0  0  0
 20  9  2  0  0  0  0
 20  7  1  0  0  0  0
 21  5  2  0  0  0  0
 21 14  1  0  0  0  0
 23 22  1  0  0  0  0
 24 18  1  0  0  0  0
 25 27  1  0  0  0  0
 25 24  1  0  0  0  0
 27 26  2  0  0  0  0
 28 29  1  0  0  0  0
 29 27  1  0  0  0  0
 30 20  1  0  0  0  0
 31 30  1  0  0  0  0
 32 31  1  1  0  0  0
 33 32  1  0  0  0  0
 34 37  1  0  0  0  0
 34 35  1  0  0  0  0
 35 36  1  0  0  0  0
 36 32  1  0  0  0  0
 37 33  1  0  0  0  0
M  END
>  <MODEL>
3

>  <REMARK>
 VINA RESULT:      -9.8      2.528      7.388
  Name = 
  7 active torsions:
  status: ('A' for Active; 'I' for Inactive)
    1  A    between atoms: N_1  and  N_9
    2  A    between atoms: N_1  and  C_30
    3  A    between atoms: C_7  and  O_31
    4  A    between atoms: C_15  and  O_31
    5  A    between atoms: C_15  and  C_34
    6  A    between atoms: O_20  and  C_26
    7  A    between atoms: C_22  and  C_35
                            x       y       z     vdW  Elec       q    Type
                         _______ _______ _______ _____ _____    ______ ____

>  <TORSDO>
F 7

$$$$
=
 OpenBabel10222421183D

 37 42  0  0  1  0  0  0  0  0999 V2000
  190.0020  177.4430  145.5540 C   0  0  0  0  0  3  0  0  0  0  0  0
  186.4600  178.7590  142.0210 C   0  0  0  0  0  3  0  0  0  0  0  0
  185.2360  177.8950  145.3930 C   0  0  0  0  0  3  0  0  0  0  0  0
  190.1020  177.5770  144.1820 C   0  0  0  0  0  0  0  0  0  0  0  0
  188.9770  177.7240  143.3630 C   0  0  0  0  0  0  0  0  0  0  0  0
  188.7720  177.4630  146.1200 N   0  0  0  0  0  0  0  0  0  0  0  0
  190.3670  177.2820  139.4730 N   0  0  0  0  0  0  0  0  0  0  0  0
  184.0700  179.0320  142.0640 C   0  0  0  0  0  3  0  0  0  0  0  0
  188.5290  177.5120  140.9370 N   0  0  0  0  0  0  0  0  0  0  0  0
  186.4200  177.6400  146.0660 C   0  0  0  0  0  3  0  0  0  0  0  0
  186.4710  178.2480  143.3240 C   0  0  0  0  0  0  0  0  0  0  0  0
  185.2810  179.1410  141.3910 C   0  0  0  0  0  3  0  0  0  0  0  0
  189.3630  177.6250  141.9980 C   0  0  0  0  0  0  0  0  0  0  0  0
  187.6350  177.6500  145.3910 C   0  0  0  0  0  0  0  0  0  0  0  0
  191.5170  177.4430  143.2880 S   0  0  0  0  0  0  0  0  0  0  0  0
  191.2560  177.3490  140.5010 C   0  0  0  0  0  0  0  0  0  0  0  0
  190.7390  177.5080  141.8000 C   0  0  0  0  0  0  0  0  0  0  0  0
  184.0210  178.5660  143.3790 C   0  0  0  0  0  0  0  0  0  0  0  0
  185.2310  178.2120  144.0350 C   0  0  0  0  0  0  0  0  0  0  0  0
  189.0230  177.3590  139.6780 C   0  0  0  0  0  0  0  0  0  0  0  0
  187.6860  177.8650  143.9780 C   0  0  0  0  0  0  0  0  0  0  0  0
  193.1490  176.7850  138.9620 C   0  0  0  0  0  1  0  0  0  0  0  0
  192.6230  177.2390  140.2000 O   0  0  0  0  0  0  0  0  0  0  0  0
  182.7280  178.5120  144.0020 N   0  0  0  0  0  2  0  0  0  0  0  0
  181.6540  179.3430  143.6570 N   0  0  0  0  0  2  0  0  0  0  0  0
  180.0600  177.6900  144.0790 O   0  0  0  0  0  0  0  0  0  0  0  0
  180.3090  178.8730  143.7200 C   0  0  0  0  0  0  0  0  0  0  0  0
  179.6860  180.8070  142.4370 N   0  0  0  0  0  1  0  0  0  0  0  0
  179.1930  179.7770  143.3340 C   0  0  0  0  0  2  0  0  0  0  0  0
  188.0910  177.2500  138.5250 C   0  0  0  0  0  2  0  0  0  0  0  0
  187.3860  178.4450  138.3760 O   0  0  0  0  0  0  0  0  0  0  0  0
  186.4320  178.1770  137.3950 C   0  0  2  0  0  3  0  0  0  0  0  0
  185.1040  177.8120  138.0540 C   0  0  0  0  0  2  0  0  0  0  0  0
  184.6820  176.2660  136.1410 C   0  0  0  0  0  2  0  0  0  0  0  0
  185.9090  176.7250  135.4910 N   0  0  0  0  0  2  0  0  0  0  0  0
  186.9040  177.0120  136.5240 C   0  0  0  0  0  2  0  0  0  0  0  0
  184.0900  177.3850  136.9960 C   0  0  0  0  0  2  0  0  0  0  0  0
  1  6  1  0  0  0  0
  2 11  1  0  0  0  0
  3 10  2  0  0  0  0
  4  1  2  0  0  0  0
  5 21  2  0  0  0  0
  5  4  1  0  0  0  0
  7 20  1  0  0  0  0
  7 16  2  0  0  0  0
  8 18  2  0  0  0  0
  9 13  1  0  0  0  0
 11 21  1  0  0  0  0
 11 19  2  0  0  0  0
 12  2  2  0  0  0  0
 12  8  1  0  0  0  0
 13  5  1  0  0  0  0
 14 10  1  0  0  0  0
 14  6  2  0  0  0  0
 15  4  1  0  0  0  0
 16 17  1  0  0  0  0
 17 13  2  0  0  0  0
 17 15  1  0  0  0  0
 18 24  1  0  0  0  0
 18 19  1  0  0  0  0
 19  3  1  0  0  0  0
 20  9  2  0  0  0  0
 21 14  1  0  0  0  0
 22 23  1  0  0  0  0
 23 16  1  0  0  0  0
 25 27  1  0  0  0  0
 25 24  1  0  0  0  0
 27 26  2  0  0  0  0
 28 29  1  0  0  0  0
 29 27  1  0  0  0  0
 30 20  1  0  0  0  0
 31 30  1  0  0  0  0
 32 33  1  0  0  0  0
 32 31  1  1  0  0  0
 34 37  1  0  0  0  0
 35 34  1  0  0  0  0
 35 36  1  0  0  0  0
 36 32  1  0  0  0  0
 37 33  1  0  0  0  0
M  END
>  <MODEL>
4

>  <REMARK>
 VINA RESULT:      -9.7      2.832      7.093
  Name = 
  7 active torsions:
  status: ('A' for Active; 'I' for Inactive)
    1  A    between atoms: N_1  and  N_9
    2  A    between atoms: N_1  and  C_30
    3  A    between atoms: C_7  and  O_31
    4  A    between atoms: C_15  and  O_31
    5  A    between atoms: C_15  and  C_34
    6  A    between atoms: O_20  and  C_26
    7  A    between atoms: C_22  and  C_35
                            x       y       z     vdW  Elec       q    Type
                         _______ _______ _______ _____ _____    ______ ____

>  <TORSDO>
F 7

$$$$
=
 OpenBabel10222421183D

 37 42  0  0  1  0  0  0  0  0999 V2000
  186.8600  178.1550  137.4130 C   0  0  0  0  0  3  0  0  0  0  0  0
  187.1990  177.6020  142.5450 C   0  0  0  0  0  3  0  0  0  0  0  0
  184.1870  179.2770  141.2260 C   0  0  0  0  0  3  0  0  0  0  0  0
  187.9310  177.8080  138.2150 C   0  0  0  0  0  0  0  0  0  0  0  0
  187.8890  177.9270  139.6080 C   0  0  0  0  0  0  0  0  0  0  0  0
  185.7320  178.6180  138.0020 N   0  0  0  0  0  0  0  0  0  0  0  0
  191.7980  177.3470  140.8920 N   0  0  0  0  0  0  0  0  0  0  0  0
  185.7500  178.1390  144.3890 C   0  0  0  0  0  3  0  0  0  0  0  0
  189.5740  177.9380  141.4230 N   0  0  0  0  0  0  0  0  0  0  0  0
  184.4080  179.2190  139.8590 C   0  0  0  0  0  3  0  0  0  0  0  0
  186.3600  178.2560  141.6350 C   0  0  0  0  0  0  0  0  0  0  0  0
  186.9090  177.5460  143.9040 C   0  0  0  0  0  3  0  0  0  0  0  0
  189.1860  177.7050  140.1470 C   0  0  0  0  0  0  0  0  0  0  0  0
  185.6020  178.7170  139.3550 C   0  0  0  0  0  0  0  0  0  0  0  0
  189.4500  177.3450  137.6680 S   0  0  0  0  0  0  0  0  0  0  0  0
  191.4800  177.1340  139.5860 C   0  0  0  0  0  0  0  0  0  0  0  0
  190.1420  177.3340  139.2000 C   0  0  0  0  0  0  0  0  0  0  0  0
  184.8540  178.7720  143.5250 C   0  0  0  0  0  0  0  0  0  0  0  0
  185.1330  178.7950  142.1320 C   0  0  0  0  0  0  0  0  0  0  0  0
  190.8660  177.7450  141.8040 C   0  0  0  0  0  0  0  0  0  0  0  0
  186.6520  178.3040  140.2340 C   0  0  0  0  0  0  0  0  0  0  0  0
  192.5610  175.5070  138.0200 C   0  0  0  0  0  1  0  0  0  0  0  0
  192.5070  176.7450  138.7120 O   0  0  0  0  0  0  0  0  0  0  0  0
  183.6700  179.3330  144.1130 N   0  0  0  0  0  2  0  0  0  0  0  0
  182.4830  178.6190  144.3240 N   0  0  0  0  0  2  0  0  0  0  0  0
  181.2530  179.9660  142.8670 O   0  0  0  0  0  0  0  0  0  0  0  0
  181.2760  178.9830  143.6560 C   0  0  0  0  0  0  0  0  0  0  0  0
  179.3760  177.9060  142.6520 N   0  0  0  0  0  1  0  0  0  0  0  0
  180.0300  178.2120  143.9120 C   0  0  0  0  0  2  0  0  0  0  0  0
  191.2680  177.9940  143.2120 C   0  0  0  0  0  2  0  0  0  0  0  0
  190.1350  178.2390  143.9880 O   0  0  0  0  0  0  0  0  0  0  0  0
  190.2130  177.3200  145.0340 C   0  0  2  0  0  3  0  0  0  0  0  0
  189.4370  177.8460  146.2400 C   0  0  0  0  0  2  0  0  0  0  0  0
  191.1190  176.7190  147.7000 C   0  0  0  0  0  2  0  0  0  0  0  0
  191.7670  176.1460  146.5210 N   0  0  0  0  0  2  0  0  0  0  0  0
  191.6770  177.1090  145.4250 C   0  0  0  0  0  2  0  0  0  0  0  0
  189.6270  176.9150  147.4360 C   0  0  0  0  0  2  0  0  0  0  0  0
  1  6  2  0  0  0  0
  1  4  1  0  0  0  0
  2 12  1  0  0  0  0
  3 19  1  0  0  0  0
  4  5  2  0  0  0  0
  5 13  1  0  0  0  0
  5 21  1  0  0  0  0
  6 14  1  0  0  0  0
  7 20  1  0  0  0  0
  9 20  2  0  0  0  0
 10  3  2  0  0  0  0
 11 19  1  0  0  0  0
 11  2  2  0  0  0  0
 12  8  2  0  0  0  0
 13  9  1  0  0  0  0
 14 10  1  0  0  0  0
 14 21  2  0  0  0  0
 15  4  1  0  0  0  0
 15 17  1  0  0  0  0
 16  7  2  0  0  0  0
 17 16  1  0  0  0  0
 17 13  2  0  0  0  0
 18 24  1  0  0  0  0
 18  8  1  0  0  0  0
 19 18  2  0  0  0  0
 20 30  1  0  0  0  0
 21 11  1  0  0  0  0
 22 23  1  0  0  0  0
 23 16  1  0  0  0  0
 24 25  1  0  0  0  0
 26 27  2  0  0  0  0
 27 29  1  0  0  0  0
 27 25  1  0  0  0  0
 28 29  1  0  0  0  0
 30 31  1  0  0  0  0
 32 31  1  6  0  0  0
 32 36  1  0  0  0  0
 32 33  1  0  0  0  0
 33 37  1  0  0  0  0
 35 34  1  0  0  0  0
 36 35  1  0  0  0  0
 37 34  1  0  0  0  0
M  END
>  <MODEL>
5

>  <REMARK>
 VINA RESULT:      -9.4      2.478      7.492
  Name = 
  7 active torsions:
  status: ('A' for Active; 'I' for Inactive)
    1  A    between atoms: N_1  and  N_9
    2  A    between atoms: N_1  and  C_30
    3  A    between atoms: C_7  and  O_31
    4  A    between atoms: C_15  and  O_31
    5  A    between atoms: C_15  and  C_34
    6  A    between atoms: O_20  and  C_26
    7  A    between atoms: C_22  and  C_35
                            x       y       z     vdW  Elec       q    Type
                         _______ _______ _______ _____ _____    ______ ____

>  <TORSDO>
F 7

$$$$
=
 OpenBabel10222421183D

 37 42  0  0  1  0  0  0  0  0999 V2000
  188.6010  177.6980  146.3780 C   0  0  0  0  0  3  0  0  0  0  0  0
  188.5910  177.3150  141.2200 C   0  0  0  0  0  3  0  0  0  0  0  0
  191.8690  177.6710  142.8770 C   0  0  0  0  0  3  0  0  0  0  0  0
  187.5660  177.8000  145.4670 C   0  0  0  0  0  0  0  0  0  0  0  0
  187.7910  177.8910  144.0890 C   0  0  0  0  0  0  0  0  0  0  0  0
  189.8740  177.6790  145.9150 N   0  0  0  0  0  0  0  0  0  0  0  0
  184.1200  178.8940  142.4250 N   0  0  0  0  0  0  0  0  0  0  0  0
  190.3130  177.2340  139.5410 C   0  0  0  0  0  3  0  0  0  0  0  0
  186.4380  178.5610  142.1270 N   0  0  0  0  0  0  0  0  0  0  0  0
  191.5070  177.7060  144.2130 C   0  0  0  0  0  3  0  0  0  0  0  0
  189.5230  177.5870  142.2280 C   0  0  0  0  0  0  0  0  0  0  0  0
  188.9720  177.1470  139.8930 C   0  0  0  0  0  3  0  0  0  0  0  0
  186.5720  178.1960  143.4240 C   0  0  0  0  0  0  0  0  0  0  0  0
  190.1670  177.7170  144.5840 C   0  0  0  0  0  0  0  0  0  0  0  0
  185.9410  177.9730  145.8520 S   0  0  0  0  0  0  0  0  0  0  0  0
  184.1950  178.5760  143.7460 C   0  0  0  0  0  0  0  0  0  0  0  0
  185.4580  178.2340  144.2620 C   0  0  0  0  0  0  0  0  0  0  0  0
  191.2930  177.4650  140.5080 C   0  0  0  0  0  0  0  0  0  0  0  0
  190.9070  177.5990  141.8690 C   0  0  0  0  0  0  0  0  0  0  0  0
  185.2190  178.8920  141.6200 C   0  0  0  0  0  0  0  0  0  0  0  0
  189.1340  177.7490  143.5960 C   0  0  0  0  0  0  0  0  0  0  0  0
  181.7030  178.6750  143.9650 C   0  0  0  0  0  1  0  0  0  0  0  0
  183.0150  178.6250  144.5050 O   0  0  0  0  0  0  0  0  0  0  0  0
  192.6550  177.5140  140.0540 N   0  0  0  0  0  2  0  0  0  0  0  0
  193.3950  176.3880  139.6660 N   0  0  0  0  0  2  0  0  0  0  0  0
  193.0120  176.7510  137.3920 O   0  0  0  0  0  0  0  0  0  0  0  0
  193.5500  176.0480  138.2900 C   0  0  0  0  0  0  0  0  0  0  0  0
  195.6210  174.8640  138.5760 N   0  0  0  0  0  1  0  0  0  0  0  0
  194.3300  174.8400  137.9120 C   0  0  0  0  0  2  0  0  0  0  0  0
  185.0910  179.2760  140.1910 C   0  0  0  0  0  2  0  0  0  0  0  0
  186.0720  178.6280  139.4400 O   0  0  0  0  0  0  0  0  0  0  0  0
  185.4930  178.4350  138.1860 C   0  0  2  0  0  3  0  0  0  0  0  0
  184.1980  177.6380  138.3340 C   0  0  0  0  0  2  0  0  0  0  0  0
  184.6890  176.6020  136.1170 C   0  0  0  0  0  2  0  0  0  0  0  0
  185.8610  177.4640  135.9660 N   0  0  0  0  0  2  0  0  0  0  0  0
  186.4610  177.6680  137.2840 C   0  0  0  0  0  2  0  0  0  0  0  0
  183.6250  177.3050  136.9580 C   0  0  0  0  0  2  0  0  0  0  0  0
  2 11  1  0  0  0  0
  3 10  2  0  0  0  0
  4 15  1  0  0  0  0
  4  1  2  0  0  0  0
  5  4  1  0  0  0  0
  6  1  1  0  0  0  0
  7 16  2  0  0  0  0
  8 12  1  0  0  0  0
  8 18  2  0  0  0  0
  9 13  1  0  0  0  0
 10 14  1  0  0  0  0
 11 21  1  0  0  0  0
 12  2  2  0  0  0  0
 13  5  1  0  0  0  0
 13 17  2  0  0  0  0
 14  6  2  0  0  0  0
 16 17  1  0  0  0  0
 16 23  1  0  0  0  0
 17 15  1  0  0  0  0
 18 19  1  0  0  0  0
 19 11  2  0  0  0  0
 19  3  1  0  0  0  0
 20  9  2  0  0  0  0
 20  7  1  0  0  0  0
 21  5  2  0  0  0  0
 21 14  1  0  0  0  0
 22 23  1  0  0  0  0
 24 18  1  0  0  0  0
 25 24  1  0  0  0  0
 26 27  2  0  0  0  0
 27 25  1  0  0  0  0
 29 27  1  0  0  0  0
 29 28  1  0  0  0  0
 30 20  1  0  0  0  0
 31 30  1  0  0  0  0
 32 33  1  0  0  0  0
 32 31  1  1  0  0  0
 34 37  1  0  0  0  0
 35 34  1  0  0  0  0
 35 36  1  0  0  0  0
 36 32  1  0  0  0  0
 37 33  1  0  0  0  0
M  END
>  <MODEL>
6

>  <REMARK>
 VINA RESULT:      -8.7      2.607      5.903
  Name = 
  7 active torsions:
  status: ('A' for Active; 'I' for Inactive)
    1  A    between atoms: N_1  and  N_9
    2  A    between atoms: N_1  and  C_30
    3  A    between atoms: C_7  and  O_31
    4  A    between atoms: C_15  and  O_31
    5  A    between atoms: C_15  and  C_34
    6  A    between atoms: O_20  and  C_26
    7  A    between atoms: C_22  and  C_35
                            x       y       z     vdW  Elec       q    Type
                         _______ _______ _______ _____ _____    ______ ____

>  <TORSDO>
F 7

$$$$
=
 OpenBabel10222421183D

 37 42  0  0  1  0  0  0  0  0999 V2000
  188.7500  177.8070  146.3080 C   0  0  0  0  0  3  0  0  0  0  0  0
  188.8090  177.2040  141.1710 C   0  0  0  0  0  3  0  0  0  0  0  0
  192.0550  177.7380  142.8430 C   0  0  0  0  0  3  0  0  0  0  0  0
  187.7220  177.8350  145.3840 C   0  0  0  0  0  0  0  0  0  0  0  0
  187.9600  177.8750  144.0060 C   0  0  0  0  0  0  0  0  0  0  0  0
  190.0270  177.8100  145.8590 N   0  0  0  0  0  0  0  0  0  0  0  0
  184.2760  178.6850  142.2650 N   0  0  0  0  0  0  0  0  0  0  0  0
  190.5510  177.1090  139.5140 C   0  0  0  0  0  3  0  0  0  0  0  0
  186.6070  178.4160  142.0040 N   0  0  0  0  0  0  0  0  0  0  0  0
  191.6770  177.8180  144.1740 C   0  0  0  0  0  3  0  0  0  0  0  0
  189.7200  177.5500  142.1760 C   0  0  0  0  0  0  0  0  0  0  0  0
  189.2090  176.9930  139.8560 C   0  0  0  0  0  3  0  0  0  0  0  0
  186.7390  178.1110  143.3170 C   0  0  0  0  0  0  0  0  0  0  0  0
  190.3340  177.8000  144.5310 C   0  0  0  0  0  0  0  0  0  0  0  0
  186.0880  177.9710  145.7450 S   0  0  0  0  0  0  0  0  0  0  0  0
  184.3470  178.4260  143.5990 C   0  0  0  0  0  0  0  0  0  0  0  0
  185.6150  178.1480  144.1420 C   0  0  0  0  0  0  0  0  0  0  0  0
  191.5120  177.4130  140.4800 C   0  0  0  0  0  0  0  0  0  0  0  0
  191.1070  177.5910  141.8300 C   0  0  0  0  0  0  0  0  0  0  0  0
  185.3830  178.6850  141.4720 C   0  0  0  0  0  0  0  0  0  0  0  0
  189.3110  177.7570  143.5320 C   0  0  0  0  0  0  0  0  0  0  0  0
  181.9150  178.9590  143.8640 C   0  0  0  0  0  1  0  0  0  0  0  0
  183.1580  178.4680  144.3440 O   0  0  0  0  0  0  0  0  0  0  0  0
  192.8770  177.4870  140.0380 N   0  0  0  0  0  2  0  0  0  0  0  0
  193.6510  176.3730  139.6850 N   0  0  0  0  0  2  0  0  0  0  0  0
  193.3990  176.7520  137.3950 O   0  0  0  0  0  0  0  0  0  0  0  0
  193.8910  176.0470  138.3170 C   0  0  0  0  0  0  0  0  0  0  0  0
  195.9540  174.8820  138.7160 N   0  0  0  0  0  1  0  0  0  0  0  0
  194.7040  174.8500  137.9770 C   0  0  0  0  0  2  0  0  0  0  0  0
  185.2590  179.0040  140.0260 C   0  0  0  0  0  2  0  0  0  0  0  0
  184.3240  180.0250  139.8490 O   0  0  0  0  0  0  0  0  0  0  0  0
  183.6400  179.6840  138.6820 C   0  0  2  0  0  3  0  0  0  0  0  0
  182.1900  180.1530  138.7800 C   0  0  0  0  0  2  0  0  0  0  0  0
  181.5470  178.1550  137.4300 C   0  0  0  0  0  2  0  0  0  0  0  0
  182.9580  177.8020  137.2680 N   0  0  0  0  0  2  0  0  0  0  0  0
  183.6720  178.1670  138.4920 C   0  0  0  0  0  2  0  0  0  0  0  0
  181.3970  179.6690  137.5680 C   0  0  0  0  0  2  0  0  0  0  0  0
  2 11  1  0  0  0  0
  3 10  2  0  0  0  0
  4 15  1  0  0  0  0
  4  1  2  0  0  0  0
  5  4  1  0  0  0  0
  6  1  1  0  0  0  0
  7 16  2  0  0  0  0
  8 12  1  0  0  0  0
  8 18  2  0  0  0  0
  9 13  1  0  0  0  0
 10 14  1  0  0  0  0
 11 21  1  0  0  0  0
 12  2  2  0  0  0  0
 13  5  1  0  0  0  0
 13 17  2  0  0  0  0
 14  6  2  0  0  0  0
 16 17  1  0  0  0  0
 16 23  1  0  0  0  0
 17 15  1  0  0  0  0
 18 19  1  0  0  0  0
 19 11  2  0  0  0  0
 19  3  1  0  0  0  0
 20  9  2  0  0  0  0
 20  7  1  0  0  0  0
 21  5  2  0  0  0  0
 21 14  1  0  0  0  0
 22 23  1  0  0  0  0
 24 18  1  0  0  0  0
 25 24  1  0  0  0  0
 26 27  2  0  0  0  0
 27 25  1  0  0  0  0
 29 27  1  0  0  0  0
 29 28  1  0  0  0  0
 30 20  1  0  0  0  0
 31 30  1  0  0  0  0
 32 33  1  0  0  0  0
 32 31  1  1  0  0  0
 34 37  1  0  0  0  0
 35 34  1  0  0  0  0
 35 36  1  0  0  0  0
 36 32  1  0  0  0  0
 37 33  1  0  0  0  0
M  END
>  <MODEL>
7

>  <REMARK>
 VINA RESULT:      -8.5      2.677      6.440
  Name = 
  7 active torsions:
  status: ('A' for Active; 'I' for Inactive)
    1  A    between atoms: N_1  and  N_9
    2  A    between atoms: N_1  and  C_30
    3  A    between atoms: C_7  and  O_31
    4  A    between atoms: C_15  and  O_31
    5  A    between atoms: C_15  and  C_34
    6  A    between atoms: O_20  and  C_26
    7  A    between atoms: C_22  and  C_35
                            x       y       z     vdW  Elec       q    Type
                         _______ _______ _______ _____ _____    ______ ____

>  <TORSDO>
F 7

$$$$
=
 OpenBabel10222421183D

 37 42  0  0  1  0  0  0  0  0999 V2000
  182.9190  179.0090  144.7820 C   0  0  0  0  0  3  0  0  0  0  0  0
  186.8010  178.5120  141.3990 C   0  0  0  0  0  3  0  0  0  0  0  0
  183.3680  178.4530  140.0460 C   0  0  0  0  0  3  0  0  0  0  0  0
  184.2620  178.7510  144.9810 C   0  0  0  0  0  0  0  0  0  0  0  0
  185.1240  178.4280  143.9270 C   0  0  0  0  0  0  0  0  0  0  0  0
  182.4270  178.9540  143.5210 N   0  0  0  0  0  0  0  0  0  0  0  0
  188.6450  177.1460  145.7210 N   0  0  0  0  0  0  0  0  0  0  0  0
  186.9230  178.3130  139.0050 C   0  0  0  0  0  3  0  0  0  0  0  0
  187.3830  177.4310  143.7450 N   0  0  0  0  0  0  0  0  0  0  0  0
  182.6110  178.6440  141.1900 C   0  0  0  0  0  3  0  0  0  0  0  0
  185.4050  178.4180  141.3820 C   0  0  0  0  0  0  0  0  0  0  0  0
  187.5560  178.4540  140.2330 C   0  0  0  0  0  3  0  0  0  0  0  0
  186.3800  178.0110  144.4460 C   0  0  0  0  0  0  0  0  0  0  0  0
  183.2160  178.6920  142.4400 C   0  0  0  0  0  0  0  0  0  0  0  0
  185.0240  178.6400  146.4730 S   0  0  0  0  0  0  0  0  0  0  0  0
  187.6560  177.6840  146.4870 C   0  0  0  0  0  0  0  0  0  0  0  0
  186.4870  178.1120  145.8330 C   0  0  0  0  0  0  0  0  0  0  0  0
  185.5310  178.2530  138.9200 C   0  0  0  0  0  0  0  0  0  0  0  0
  184.7580  178.3500  140.1080 C   0  0  0  0  0  0  0  0  0  0  0  0
  188.5180  177.0150  144.3710 C   0  0  0  0  0  0  0  0  0  0  0  0
  184.6250  178.4890  142.5810 C   0  0  0  0  0  0  0  0  0  0  0  0
  189.1210  177.9790  148.4960 C   0  0  0  0  0  1  0  0  0  0  0  0
  187.8640  177.7600  147.8730 O   0  0  0  0  0  0  0  0  0  0  0  0
  184.9650  178.1320  137.6050 N   0  0  0  0  0  2  0  0  0  0  0  0
  185.0380  176.9730  136.8210 N   0  0  0  0  0  2  0  0  0  0  0  0
  186.6870  177.8570  135.4240 O   0  0  0  0  0  0  0  0  0  0  0  0
  185.9420  176.8840  135.7210 C   0  0  0  0  0  0  0  0  0  0  0  0
  184.7510  174.8980  135.0770 N   0  0  0  0  0  1  0  0  0  0  0  0
  185.9850  175.6450  134.9010 C   0  0  0  0  0  2  0  0  0  0  0  0
  189.6130  176.3940  143.5810 C   0  0  0  0  0  2  0  0  0  0  0  0
  190.5090  177.3780  143.1650 O   0  0  0  0  0  0  0  0  0  0  0  0
  191.0720  176.8750  141.9920 C   0  0  2  0  0  3  0  0  0  0  0  0
  192.0820  177.8760  141.4350 C   0  0  0  0  0  2  0  0  0  0  0  0
  191.4290  177.1250  139.1460 C   0  0  0  0  0  2  0  0  0  0  0  0
  190.5550  176.1040  139.7230 N   0  0  0  0  0  2  0  0  0  0  0  0
  189.9730  176.6330  140.9560 C   0  0  0  0  0  2  0  0  0  0  0  0
  192.6060  177.3990  140.0820 C   0  0  0  0  0  2  0  0  0  0  0  0
  1  4  1  0  0  0  0
  3 19  2  0  0  0  0
  3 10  1  0  0  0  0
  4 15  1  0  0  0  0
  5 13  1  0  0  0  0
  5  4  2  0  0  0  0
  6  1  2  0  0  0  0
  7 16  2  0  0  0  0
  8 12  1  0  0  0  0
  9 20  2  0  0  0  0
  9 13  1  0  0  0  0
 10 14  2  0  0  0  0
 11  2  1  0  0  0  0
 11 21  2  0  0  0  0
 12  2  2  0  0  0  0
 13 17  2  0  0  0  0
 14 21  1  0  0  0  0
 14  6  1  0  0  0  0
 16 23  1  0  0  0  0
 17 15  1  0  0  0  0
 17 16  1  0  0  0  0
 18  8  2  0  0  0  0
 18 19  1  0  0  0  0
 19 11  1  0  0  0  0
 20  7  1  0  0  0  0
 21  5  1  0  0  0  0
 23 22  1  0  0  0  0
 24 18  1  0  0  0  0
 25 24  1  0  0  0  0
 26 27  2  0  0  0  0
 27 25  1  0  0  0  0
 29 28  1  0  0  0  0
 29 27  1  0  0  0  0
 30 20  1  0  0  0  0
 31 30  1  0  0  0  0
 32 31  1  1  0  0  0
 33 32  1  0  0  0  0
 34 35  1  0  0  0  0
 34 37  1  0  0  0  0
 35 36  1  0  0  0  0
 36 32  1  0  0  0  0
 37 33  1  0  0  0  0
M  END
>  <MODEL>
8

>  <REMARK>
 VINA RESULT:      -8.2      2.365      7.112
  Name = 
  7 active torsions:
  status: ('A' for Active; 'I' for Inactive)
    1  A    between atoms: N_1  and  N_9
    2  A    between atoms: N_1  and  C_30
    3  A    between atoms: C_7  and  O_31
    4  A    between atoms: C_15  and  O_31
    5  A    between atoms: C_15  and  C_34
    6  A    between atoms: O_20  and  C_26
    7  A    between atoms: C_22  and  C_35
                            x       y       z     vdW  Elec       q    Type
                         _______ _______ _______ _____ _____    ______ ____

>  <TORSDO>
F 7

$$$$
=
 OpenBabel10222421183D

 37 42  0  0  1  0  0  0  0  0999 V2000
  182.4190  178.8300  144.3860 C   0  0  0  0  0  3  0  0  0  0  0  0
  186.9900  177.4090  142.4260 C   0  0  0  0  0  3  0  0  0  0  0  0
  186.9350  178.5090  145.9490 C   0  0  0  0  0  3  0  0  0  0  0  0
  182.8120  178.6110  143.0800 C   0  0  0  0  0  0  0  0  0  0  0  0
  184.1550  178.4490  142.7220 C   0  0  0  0  0  0  0  0  0  0  0  0
  183.3690  178.8790  145.3500 N   0  0  0  0  0  0  0  0  0  0  0  0
  184.2290  178.6170  138.5710 N   0  0  0  0  0  0  0  0  0  0  0  0
  189.2110  177.2090  143.3280 C   0  0  0  0  0  3  0  0  0  0  0  0
  185.4320  178.5290  140.6020 N   0  0  0  0  0  0  0  0  0  0  0  0
  185.5880  178.7680  146.1420 C   0  0  0  0  0  3  0  0  0  0  0  0
  186.5150  177.9970  143.6040 C   0  0  0  0  0  0  0  0  0  0  0  0
  188.3180  177.0250  142.2800 C   0  0  0  0  0  3  0  0  0  0  0  0
  184.2770  178.4550  141.3050 C   0  0  0  0  0  0  0  0  0  0  0  0
  184.6910  178.6830  145.0840 C   0  0  0  0  0  0  0  0  0  0  0  0
  181.8040  178.6510  141.7370 S   0  0  0  0  0  0  0  0  0  0  0  0
  183.0340  178.5860  139.2220 C   0  0  0  0  0  0  0  0  0  0  0  0
  183.0590  178.5190  140.6270 C   0  0  0  0  0  0  0  0  0  0  0  0
  188.7890  177.7550  144.5420 C   0  0  0  0  0  0  0  0  0  0  0  0
  187.4230  178.1120  144.7030 C   0  0  0  0  0  0  0  0  0  0  0  0
  185.4150  178.5910  139.2420 C   0  0  0  0  0  0  0  0  0  0  0  0
  185.1450  178.3820  143.7610 C   0  0  0  0  0  0  0  0  0  0  0  0
  181.6830  179.4420  137.2960 C   0  0  0  0  0  1  0  0  0  0  0  0
  181.8620  178.6370  138.4520 O   0  0  0  0  0  0  0  0  0  0  0  0
  189.7770  177.8830  145.5760 N   0  0  0  0  0  2  0  0  0  0  0  0
  190.8140  176.9650  145.7910 N   0  0  0  0  0  2  0  0  0  0  0  0
  190.8520  177.3400  148.0950 O   0  0  0  0  0  0  0  0  0  0  0  0
  191.3210  176.7220  147.1020 C   0  0  0  0  0  0  0  0  0  0  0  0
  192.9530  175.8670  148.6440 N   0  0  0  0  0  1  0  0  0  0  0  0
  192.4310  175.7510  147.2940 C   0  0  0  0  0  2  0  0  0  0  0  0
  186.6930  178.6580  138.4890 C   0  0  0  0  0  2  0  0  0  0  0  0
  186.4350  178.5940  137.1190 O   0  0  0  0  0  0  0  0  0  0  0  0
  187.0080  177.3920  136.7040 C   0  0  2  0  0  3  0  0  0  0  0  0
  188.4790  177.6150  136.3600 C   0  0  0  0  0  2  0  0  0  0  0  0
  188.2380  175.8670  134.5940 C   0  0  0  0  0  2  0  0  0  0  0  0
  186.8660  175.6090  135.0290 N   0  0  0  0  0  2  0  0  0  0  0  0
  186.2710  176.8700  135.4690 C   0  0  0  0  0  2  0  0  0  0  0  0
  189.0830  176.3390  135.7770 C   0  0  0  0  0  2  0  0  0  0  0  0
  1  6  1  0  0  0  0
  2 11  1  0  0  0  0
  3 10  2  0  0  0  0
  4  1  2  0  0  0  0
  5  4  1  0  0  0  0
  5 21  2  0  0  0  0
  7 16  2  0  0  0  0
  7 20  1  0  0  0  0
  8 18  2  0  0  0  0
  9 13  1  0  0  0  0
 11 21  1  0  0  0  0
 11 19  2  0  0  0  0
 12  2  2  0  0  0  0
 12  8  1  0  0  0  0
 13  5  1  0  0  0  0
 14  6  2  0  0  0  0
 14 10  1  0  0  0  0
 15  4  1  0  0  0  0
 16 17  1  0  0  0  0
 17 13  2  0  0  0  0
 17 15  1  0  0  0  0
 18 19  1  0  0  0  0
 18 24  1  0  0  0  0
 19  3  1  0  0  0  0
 20  9  2  0  0  0  0
 21 14  1  0  0  0  0
 22 23  1  0  0  0  0
 23 16  1  0  0  0  0
 24 25  1  0  0  0  0
 25 27  1  0  0  0  0
 27 29  1  0  0  0  0
 27 26  2  0  0  0  0
 29 28  1  0  0  0  0
 30 20  1  0  0  0  0
 31 30  1  0  0  0  0
 32 31  1  6  0  0  0
 33 32  1  0  0  0  0
 34 35  1  0  0  0  0
 34 37  1  0  0  0  0
 35 36  1  0  0  0  0
 36 32  1  0  0  0  0
 37 33  1  0  0  0  0
M  END
>  <MODEL>
9

>  <REMARK>
 VINA RESULT:      -8.2      1.751      2.022
  Name = 
  7 active torsions:
  status: ('A' for Active; 'I' for Inactive)
    1  A    between atoms: N_1  and  N_9
    2  A    between atoms: N_1  and  C_30
    3  A    between atoms: C_7  and  O_31
    4  A    between atoms: C_15  and  O_31
    5  A    between atoms: C_15  and  C_34
    6  A    between atoms: O_20  and  C_26
    7  A    between atoms: C_22  and  C_35
                            x       y       z     vdW  Elec       q    Type
                         _______ _______ _______ _____ _____    ______ ____

>  <TORSDO>
F 7

$$$$
