=
 OpenBabel10222416243D

 38 41  0  0  1  0  0  0  0  0999 V2000
  184.4860  178.5790  138.9720 C   0  0  2  0  0  3  0  0  0  0  0  0
  180.2920  181.3890  138.2740 C   0  0  0  0  0  3  0  0  0  0  0  0
  185.9150  178.3090  139.4850 C   0  0  2  0  0  3  0  0  0  0  0  0
  179.3350  179.1690  138.5960 N   0  0  0  0  0  1  0  0  0  0  0  0
  181.9800  178.0680  139.1810 C   0  0  2  0  0  3  0  0  0  0  0  0
  181.3880  182.2500  138.2290 C   0  0  0  0  0  3  0  0  0  0  0  0
  182.8620  180.4130  138.7920 C   0  0  0  0  0  0  0  0  0  0  0  0
  184.1560  179.9570  139.0500 O   0  0  0  0  0  0  0  0  0  0  0  0
  183.6990  178.9380  141.7700 N   0  0  0  0  0  2  0  0  0  0  0  0
  182.6700  181.7650  138.4900 C   0  0  0  0  0  3  0  0  0  0  0  0
  181.7690  179.5270  138.8090 C   0  0  0  0  0  0  0  0  0  0  0  0
  183.4780  177.6250  141.1710 C   0  0  0  0  0  2  0  0  0  0  0  0
  183.4000  177.7110  139.6420 C   0  0  2  0  0  3  0  0  0  0  0  0
  186.1660  178.5410  141.9480 C   0  0  0  0  0  2  0  0  0  0  0  0
  180.4730  180.0310  138.5510 C   0  0  0  0  0  0  0  0  0  0  0  0
  184.8580  178.9000  142.6660 C   0  0  2  0  0  3  0  0  0  0  0  0
  186.3360  179.2550  140.6070 C   0  0  0  0  0  2  0  0  0  0  0  0
  181.5530  177.1250  138.0730 C   0  0  0  0  0  1  0  0  0  0  0  0
  186.3690  178.0940  137.1170 O   0  0  0  0  0  1  0  0  0  0  0  0
  186.9580  178.3190  138.3630 C   0  0  2  0  0  3  0  0  0  0  0  0
  188.0010  177.2490  138.6280 C   0  0  0  0  0  2  0  0  0  0  0  0
  189.3000  177.8850  139.0760 C   0  0  0  0  0  2  0  0  0  0  0  0
  190.1950  176.8220  139.7050 C   0  0  0  0  0  2  0  0  0  0  0  0
  190.0180  176.8040  141.2120 C   0  0  0  0  0  2  0  0  0  0  0  0
  190.8480  177.8320  141.8110 N   0  0  0  0  0  2  0  0  0  0  0  0
  191.6010  177.2140  142.8870 C   0  0  0  0  0  2  0  0  0  0  0  0
  191.0850  179.4230  143.9990 N   0  0  0  0  0  1  0  0  0  0  0  0
  191.5520  178.0840  144.1040 C   0  0  0  0  0  0  0  0  0  0  0  0
  191.9270  177.6310  145.2160 O   0  0  0  0  0  0  0  0  0  0  0  0
  184.6480  177.9180  143.8150 C   0  0  0  0  0  2  0  0  0  0  0  0
  185.9690  179.1070  147.1760 C   0  0  0  0  0  3  0  0  0  0  0  0
  187.6310  177.6580  146.1470 C   0  0  0  0  0  0  0  0  0  0  0  0
  186.8050  177.5280  145.0210 C   0  0  0  0  0  3  0  0  0  0  0  0
  185.1410  178.9490  146.0590 C   0  0  0  0  0  3  0  0  0  0  0  0
  185.5610  178.1670  144.9770 C   0  0  0  0  0  0  0  0  0  0  0  0
  187.2110  178.4690  147.2180 C   0  0  0  0  0  3  0  0  0  0  0  0
  188.8270  176.9350  146.2010 O   0  0  0  0  0  0  0  0  0  0  0  0
  189.5680  176.7510  147.3960 C   0  0  0  0  0  1  0  0  0  0  0  0
  1  8  1  1  0  0  0
  1  3  1  0  0  0  0
  1 13  1  0  0  0  0
  2 15  1  0  0  0  0
  3 20  1  6  0  0  0
  3 17  1  0  0  0  0
  5 18  1  6  0  0  0
  5 13  1  0  0  0  0
  6  2  2  0  0  0  0
  6 10  1  0  0  0  0
  7 11  1  0  0  0  0
  7  8  1  0  0  0  0
  9 16  1  0  0  0  0
 10  7  2  0  0  0  0
 11  5  1  0  0  0  0
 12  9  1  0  0  0  0
 13 12  1  1  0  0  0
 14 16  1  0  0  0  0
 15  4  1  0  0  0  0
 15 11  2  0  0  0  0
 16 30  1  1  0  0  0
 17 14  1  0  0  0  0
 20 19  1  6  0  0  0
 20 21  1  0  0  0  0
 21 22  1  0  0  0  0
 22 23  1  0  0  0  0
 23 24  1  0  0  0  0
 24 25  1  0  0  0  0
 25 26  1  0  0  0  0
 26 28  1  0  0  0  0
 27 28  1  0  0  0  0
 28 29  2  0  0  0  0
 30 35  1  0  0  0  0
 31 36  1  0  0  0  0
 32 37  1  0  0  0  0
 32 36  2  0  0  0  0
 33 32  1  0  0  0  0
 34 31  2  0  0  0  0
 35 33  2  0  0  0  0
 35 34  1  0  0  0  0
 37 38  1  0  0  0  0
M  END
>  <MODEL>
1

>  <REMARK>
 VINA RESULT:      -7.0      0.000      0.000
  Name = 
  11 active torsions:
  status: ('A' for Active; 'I' for Inactive)
    1  A    between atoms: C_3  and  C_20
    2  A    between atoms: C_4  and  C_20
    3  A    between atoms: C_4  and  C_30
    4  A    between atoms: O_5  and  C_7
    5  A    between atoms: C_11  and  N_23
    6  A    between atoms: C_11  and  C_25
    7  A    between atoms: N_23  and  C_34
    8  A    between atoms: C_25  and  C_30
    9  A    between atoms: C_26  and  C_35
   10  A    between atoms: C_29  and  C_35
   11  A    between atoms: C_34  and  C_36
                            x       y       z     vdW  Elec       q    Type
                         _______ _______ _______ _____ _____    ______ ____

>  <TORSDO>
F 11

$$$$
=
 OpenBabel10222416243D

 38 41  0  0  1  0  0  0  0  0999 V2000
  186.9560  177.9210  137.9260 C   0  0  2  0  0  3  0  0  0  0  0  0
  188.9320  173.6480  135.9740 C   0  0  0  0  0  3  0  0  0  0  0  0
  186.1370  178.7420  138.9430 C   0  0  2  0  0  3  0  0  0  0  0  0
  190.7130  175.2510  135.5220 N   0  0  0  0  0  1  0  0  0  0  0  0
  189.2680  177.3310  136.9850 C   0  0  2  0  0  3  0  0  0  0  0  0
  187.6920  173.3250  136.5250 C   0  0  0  0  0  3  0  0  0  0  0  0
  187.4700  175.5850  137.3650 C   0  0  0  0  0  0  0  0  0  0  0  0
  186.7190  176.5290  138.0680 O   0  0  0  0  0  0  0  0  0  0  0  0
  188.6940  177.1550  140.1550 N   0  0  0  0  0  2  0  0  0  0  0  0
  186.9630  174.2900  137.2210 C   0  0  0  0  0  3  0  0  0  0  0  0
  188.7050  175.9330  136.7870 C   0  0  0  0  0  0  0  0  0  0  0  0
  189.1180  178.2790  139.3260 C   0  0  0  0  0  2  0  0  0  0  0  0
  188.4670  178.2290  137.9380 C   0  0  2  0  0  3  0  0  0  0  0  0
  186.9370  178.5370  141.2870 C   0  0  0  0  0  2  0  0  0  0  0  0
  189.4380  174.9450  136.0900 C   0  0  0  0  0  0  0  0  0  0  0  0
  188.1720  177.6360  141.4370 C   0  0  2  0  0  3  0  0  0  0  0  0
  185.9260  178.0130  140.2690 C   0  0  0  0  0  2  0  0  0  0  0  0
  189.4880  178.0540  135.6700 C   0  0  0  0  0  1  0  0  0  0  0  0
  184.2970  180.3090  139.0860 O   0  0  0  0  0  1  0  0  0  0  0  0
  184.7930  179.2130  138.3770 C   0  0  2  0  0  3  0  0  0  0  0  0
  183.7890  178.0770  138.4370 C   0  0  0  0  0  2  0  0  0  0  0  0
  182.4280  178.6030  138.8420 C   0  0  0  0  0  2  0  0  0  0  0  0
  181.9610  177.8840  140.1030 C   0  0  0  0  0  2  0  0  0  0  0  0
  181.8760  178.8540  141.2670 C   0  0  0  0  0  2  0  0  0  0  0  0
  182.9420  178.5770  142.2100 N   0  0  0  0  0  2  0  0  0  0  0  0
  182.5210  179.0770  143.5060 C   0  0  0  0  0  2  0  0  0  0  0  0
  183.7200  179.0110  145.7290 N   0  0  0  0  0  1  0  0  0  0  0  0
  183.7210  179.3660  144.3520 C   0  0  0  0  0  0  0  0  0  0  0  0
  184.7270  179.9250  143.8440 O   0  0  0  0  0  0  0  0  0  0  0  0
  189.2340  178.3940  142.2280 C   0  0  0  0  0  2  0  0  0  0  0  0
  188.2020  177.3040  145.7200 C   0  0  0  0  0  3  0  0  0  0  0  0
  190.6290  177.2370  145.5620 C   0  0  0  0  0  0  0  0  0  0  0  0
  190.5460  177.7260  144.2500 C   0  0  0  0  0  3  0  0  0  0  0  0
  188.1300  177.7650  144.4010 C   0  0  0  0  0  3  0  0  0  0  0  0
  189.3010  177.9860  143.6680 C   0  0  0  0  0  0  0  0  0  0  0  0
  189.4460  177.0460  146.3000 C   0  0  0  0  0  3  0  0  0  0  0  0
  191.8820  176.9010  146.0860 O   0  0  0  0  0  0  0  0  0  0  0  0
  192.0500  176.0300  147.1920 C   0  0  0  0  0  1  0  0  0  0  0  0
  1 13  1  0  0  0  0
  1  8  1  1  0  0  0
  1  3  1  0  0  0  0
  2 15  2  0  0  0  0
  2  6  1  0  0  0  0
  3 20  1  6  0  0  0
  3 17  1  0  0  0  0
  4 15  1  0  0  0  0
  5 18  1  6  0  0  0
  5 13  1  0  0  0  0
  6 10  2  0  0  0  0
  7  8  1  0  0  0  0
  9 16  1  0  0  0  0
 10  7  1  0  0  0  0
 11  5  1  0  0  0  0
 11  7  2  0  0  0  0
 12  9  1  0  0  0  0
 13 12  1  1  0  0  0
 14 16  1  0  0  0  0
 15 11  1  0  0  0  0
 16 30  1  6  0  0  0
 17 14  1  0  0  0  0
 20 21  1  0  0  0  0
 20 19  1  1  0  0  0
 21 22  1  0  0  0  0
 22 23  1  0  0  0  0
 23 24  1  0  0  0  0
 24 25  1  0  0  0  0
 25 26  1  0  0  0  0
 26 28  1  0  0  0  0
 28 27  1  0  0  0  0
 29 28  2  0  0  0  0
 30 35  1  0  0  0  0
 31 36  1  0  0  0  0
 32 37  1  0  0  0  0
 32 36  2  0  0  0  0
 33 32  1  0  0  0  0
 34 31  2  0  0  0  0
 35 33  2  0  0  0  0
 35 34  1  0  0  0  0
 37 38  1  0  0  0  0
M  END
>  <MODEL>
2

>  <REMARK>
 VINA RESULT:      -7.0      2.523      6.586
  Name = 
  11 active torsions:
  status: ('A' for Active; 'I' for Inactive)
    1  A    between atoms: C_3  and  C_20
    2  A    between atoms: C_4  and  C_20
    3  A    between atoms: C_4  and  C_30
    4  A    between atoms: O_5  and  C_7
    5  A    between atoms: C_11  and  N_23
    6  A    between atoms: C_11  and  C_25
    7  A    between atoms: N_23  and  C_34
    8  A    between atoms: C_25  and  C_30
    9  A    between atoms: C_26  and  C_35
   10  A    between atoms: C_29  and  C_35
   11  A    between atoms: C_34  and  C_36
                            x       y       z     vdW  Elec       q    Type
                         _______ _______ _______ _____ _____    ______ ____

>  <TORSDO>
F 11

$$$$
=
 OpenBabel10222416243D

 38 41  0  0  1  0  0  0  0  0999 V2000
  190.3570  177.1220  137.2170 C   0  0  2  0  0  3  0  0  0  0  0  0
  192.1280  172.4630  136.1550 C   0  0  0  0  0  3  0  0  0  0  0  0
  189.3230  178.1330  137.7540 C   0  0  2  0  0  3  0  0  0  0  0  0
  194.1760  173.6210  136.7970 N   0  0  0  0  0  1  0  0  0  0  0  0
  192.6490  176.0100  137.5140 C   0  0  2  0  0  3  0  0  0  0  0  0
  190.7440  172.4380  135.9810 C   0  0  0  0  0  3  0  0  0  0  0  0
  190.5940  174.7150  136.7890 C   0  0  0  0  0  0  0  0  0  0  0  0
  189.8020  175.8210  137.1000 O   0  0  0  0  0  0  0  0  0  0  0  0
  190.5230  176.0590  139.9410 N   0  0  0  0  0  2  0  0  0  0  0  0
  189.9780  173.5590  136.2990 C   0  0  0  0  0  3  0  0  0  0  0  0
  191.9920  174.7660  136.9400 C   0  0  0  0  0  0  0  0  0  0  0  0
  191.5290  177.0370  139.5370 C   0  0  0  0  0  2  0  0  0  0  0  0
  191.6790  177.0900  138.0120 C   0  0  2  0  0  3  0  0  0  0  0  0
  188.7610  177.8270  140.1560 C   0  0  0  0  0  2  0  0  0  0  0  0
  192.7580  173.6200  136.6210 C   0  0  0  0  0  0  0  0  0  0  0  0
  189.5340  176.6810  140.8250 C   0  0  2  0  0  3  0  0  0  0  0  0
  188.3250  177.5080  138.7270 C   0  0  0  0  0  2  0  0  0  0  0  0
  193.6490  176.6270  136.5540 C   0  0  0  0  0  1  0  0  0  0  0  0
  187.4890  179.5860  137.1310 O   0  0  0  0  0  1  0  0  0  0  0  0
  188.5820  178.8710  136.6350 C   0  0  2  0  0  3  0  0  0  0  0  0
  188.1020  177.8740  135.5970 C   0  0  0  0  0  2  0  0  0  0  0  0
  186.5880  177.8210  135.5840 C   0  0  0  0  0  2  0  0  0  0  0  0
  186.1240  176.4520  136.0690 C   0  0  0  0  0  2  0  0  0  0  0  0
  184.8880  176.5880  136.9390 C   0  0  0  0  0  2  0  0  0  0  0  0
  184.7960  177.9440  137.4440 N   0  0  0  0  0  2  0  0  0  0  0  0
  184.4820  177.8640  138.8590 C   0  0  0  0  0  2  0  0  0  0  0  0
  185.4460  179.2850  140.7120 N   0  0  0  0  0  1  0  0  0  0  0  0
  184.7020  179.1970  139.5030 C   0  0  0  0  0  0  0  0  0  0  0  0
  184.2260  180.2350  138.9760 O   0  0  0  0  0  0  0  0  0  0  0  0
  190.1780  177.2100  142.1040 C   0  0  0  0  0  2  0  0  0  0  0  0
  186.9390  177.3160  144.0910 C   0  0  0  0  0  3  0  0  0  0  0  0
  188.8130  177.4090  145.6400 C   0  0  0  0  0  0  0  0  0  0  0  0
  189.6990  177.4020  144.5520 C   0  0  0  0  0  3  0  0  0  0  0  0
  187.8310  177.2820  143.0150 C   0  0  0  0  0  3  0  0  0  0  0  0
  189.2110  177.3350  143.2430 C   0  0  0  0  0  0  0  0  0  0  0  0
  187.4270  177.3850  145.3980 C   0  0  0  0  0  3  0  0  0  0  0  0
  189.3310  177.3870  146.9390 O   0  0  0  0  0  0  0  0  0  0  0  0
  188.6370  177.9120  148.0580 C   0  0  0  0  0  1  0  0  0  0  0  0
  1  8  1  1  0  0  0
  1  3  1  0  0  0  0
  1 13  1  0  0  0  0
  2 15  1  0  0  0  0
  3 20  1  6  0  0  0
  3 17  1  0  0  0  0
  5 18  1  6  0  0  0
  5 13  1  0  0  0  0
  6  2  2  0  0  0  0
  6 10  1  0  0  0  0
  7 11  1  0  0  0  0
  7  8  1  0  0  0  0
  9 16  1  0  0  0  0
 10  7  2  0  0  0  0
 11  5  1  0  0  0  0
 12  9  1  0  0  0  0
 13 12  1  1  0  0  0
 14 16  1  0  0  0  0
 15  4  1  0  0  0  0
 15 11  2  0  0  0  0
 16 30  1  1  0  0  0
 17 14  1  0  0  0  0
 20 19  1  1  0  0  0
 21 20  1  0  0  0  0
 22 21  1  0  0  0  0
 22 23  1  0  0  0  0
 23 24  1  0  0  0  0
 24 25  1  0  0  0  0
 25 26  1  0  0  0  0
 26 28  1  0  0  0  0
 28 27  1  0  0  0  0
 29 28  2  0  0  0  0
 30 35  1  0  0  0  0
 31 36  1  0  0  0  0
 32 37  1  0  0  0  0
 33 32  1  0  0  0  0
 34 35  1  0  0  0  0
 34 31  2  0  0  0  0
 35 33  2  0  0  0  0
 36 32  2  0  0  0  0
 37 38  1  0  0  0  0
M  END
>  <MODEL>
3

>  <REMARK>
 VINA RESULT:      -6.9      3.102      7.942
  Name = 
  11 active torsions:
  status: ('A' for Active; 'I' for Inactive)
    1  A    between atoms: C_3  and  C_20
    2  A    between atoms: C_4  and  C_20
    3  A    between atoms: C_4  and  C_30
    4  A    between atoms: O_5  and  C_7
    5  A    between atoms: C_11  and  N_23
    6  A    between atoms: C_11  and  C_25
    7  A    between atoms: N_23  and  C_34
    8  A    between atoms: C_25  and  C_30
    9  A    between atoms: C_26  and  C_35
   10  A    between atoms: C_29  and  C_35
   11  A    between atoms: C_34  and  C_36
                            x       y       z     vdW  Elec       q    Type
                         _______ _______ _______ _____ _____    ______ ____

>  <TORSDO>
F 11

$$$$
=
 OpenBabel10222416243D

 38 41  0  0  1  0  0  0  0  0999 V2000
  190.2910  177.2820  137.5870 C   0  0  2  0  0  3  0  0  0  0  0  0
  192.0170  172.6540  136.3310 C   0  0  0  0  0  3  0  0  0  0  0  0
  189.2690  178.2790  138.1700 C   0  0  2  0  0  3  0  0  0  0  0  0
  194.0780  173.7690  137.0040 N   0  0  0  0  0  1  0  0  0  0  0  0
  192.5760  176.1400  137.8250 C   0  0  2  0  0  3  0  0  0  0  0  0
  190.6320  172.6460  136.1650 C   0  0  0  0  0  3  0  0  0  0  0  0
  190.5060  174.8910  137.0630 C   0  0  0  0  0  0  0  0  0  0  0  0
  189.7240  175.9900  137.4230 O   0  0  0  0  0  0  0  0  0  0  0  0
  190.4660  176.1100  140.2660 N   0  0  0  0  0  2  0  0  0  0  0  0
  189.8770  173.7610  136.5320 C   0  0  0  0  0  3  0  0  0  0  0  0
  191.9050  174.9240  137.2070 C   0  0  0  0  0  0  0  0  0  0  0  0
  191.4770  177.0950  139.8940 C   0  0  0  0  0  2  0  0  0  0  0  0
  191.6180  177.2080  138.3710 C   0  0  2  0  0  3  0  0  0  0  0  0
  188.7200  177.8820  140.5620 C   0  0  0  0  0  2  0  0  0  0  0  0
  192.6590  173.7860  136.8380 C   0  0  0  0  0  0  0  0  0  0  0  0
  189.4880  176.7050  141.1800 C   0  0  2  0  0  3  0  0  0  0  0  0
  188.2720  177.6240  139.1240 C   0  0  0  0  0  2  0  0  0  0  0  0
  193.5740  176.7860  136.8840 C   0  0  0  0  0  1  0  0  0  0  0  0
  187.1590  179.1450  137.3580 O   0  0  0  0  0  1  0  0  0  0  0  0
  188.5270  179.0660  137.0860 C   0  0  2  0  0  3  0  0  0  0  0  0
  188.7350  178.3990  135.7390 C   0  0  0  0  0  2  0  0  0  0  0  0
  187.4210  177.8600  135.2140 C   0  0  0  0  0  2  0  0  0  0  0  0
  187.5730  176.3780  134.8890 C   0  0  0  0  0  2  0  0  0  0  0  0
  186.3570  175.6030  135.3600 C   0  0  0  0  0  2  0  0  0  0  0  0
  186.3260  175.5820  136.8100 N   0  0  0  0  0  2  0  0  0  0  0  0
  185.0000  175.1510  137.2130 C   0  0  0  0  0  2  0  0  0  0  0  0
  183.9700  172.9380  136.5640 N   0  0  0  0  0  1  0  0  0  0  0  0
  184.9560  173.6570  137.2940 C   0  0  0  0  0  0  0  0  0  0  0  0
  185.7880  173.0420  138.0080 O   0  0  0  0  0  0  0  0  0  0  0  0
  190.1430  177.1780  142.4750 C   0  0  0  0  0  2  0  0  0  0  0  0
  186.9340  177.0950  144.5110 C   0  0  0  0  0  3  0  0  0  0  0  0
  188.7720  177.7430  145.9680 C   0  0  0  0  0  0  0  0  0  0  0  0
  189.6440  177.6960  144.8710 C   0  0  0  0  0  3  0  0  0  0  0  0
  187.8180  177.0260  143.4290 C   0  0  0  0  0  3  0  0  0  0  0  0
  189.1720  177.3350  143.6050 C   0  0  0  0  0  0  0  0  0  0  0  0
  187.4080  177.4570  145.7740 C   0  0  0  0  0  3  0  0  0  0  0  0
  189.2890  178.0200  147.2380 O   0  0  0  0  0  0  0  0  0  0  0  0
  188.4880  178.0660  148.4070 C   0  0  0  0  0  1  0  0  0  0  0  0
  1  8  1  1  0  0  0
  1  3  1  0  0  0  0
  1 13  1  0  0  0  0
  2 15  1  0  0  0  0
  3 20  1  6  0  0  0
  3 17  1  0  0  0  0
  5 18  1  6  0  0  0
  5 13  1  0  0  0  0
  6  2  2  0  0  0  0
  6 10  1  0  0  0  0
  7 11  1  0  0  0  0
  7  8  1  0  0  0  0
  9 16  1  0  0  0  0
 10  7  2  0  0  0  0
 11  5  1  0  0  0  0
 12  9  1  0  0  0  0
 13 12  1  1  0  0  0
 14 16  1  0  0  0  0
 15  4  1  0  0  0  0
 15 11  2  0  0  0  0
 16 30  1  1  0  0  0
 17 14  1  0  0  0  0
 20 19  1  1  0  0  0
 21 20  1  0  0  0  0
 22 21  1  0  0  0  0
 23 22  1  0  0  0  0
 23 24  1  0  0  0  0
 24 25  1  0  0  0  0
 25 26  1  0  0  0  0
 26 28  1  0  0  0  0
 27 28  1  0  0  0  0
 28 29  2  0  0  0  0
 30 35  1  0  0  0  0
 31 36  1  0  0  0  0
 32 37  1  0  0  0  0
 33 32  1  0  0  0  0
 34 35  1  0  0  0  0
 34 31  2  0  0  0  0
 35 33  2  0  0  0  0
 36 32  2  0  0  0  0
 37 38  1  0  0  0  0
M  END
>  <MODEL>
4

>  <REMARK>
 VINA RESULT:      -6.7      4.022      8.092
  Name = 
  11 active torsions:
  status: ('A' for Active; 'I' for Inactive)
    1  A    between atoms: C_3  and  C_20
    2  A    between atoms: C_4  and  C_20
    3  A    between atoms: C_4  and  C_30
    4  A    between atoms: O_5  and  C_7
    5  A    between atoms: C_11  and  N_23
    6  A    between atoms: C_11  and  C_25
    7  A    between atoms: N_23  and  C_34
    8  A    between atoms: C_25  and  C_30
    9  A    between atoms: C_26  and  C_35
   10  A    between atoms: C_29  and  C_35
   11  A    between atoms: C_34  and  C_36
                            x       y       z     vdW  Elec       q    Type
                         _______ _______ _______ _____ _____    ______ ____

>  <TORSDO>
F 11

$$$$
=
 OpenBabel10222416243D

 38 41  0  0  1  0  0  0  0  0999 V2000
  183.4300  177.3140  137.2900 C   0  0  2  0  0  3  0  0  0  0  0  0
  186.5490  173.2900  137.0580 C   0  0  0  0  0  3  0  0  0  0  0  0
  182.2480  178.1320  137.8490 C   0  0  2  0  0  3  0  0  0  0  0  0
  188.0810  175.1160  136.5430 N   0  0  0  0  0  1  0  0  0  0  0  0
  185.9720  177.0810  137.0400 C   0  0  2  0  0  3  0  0  0  0  0  0
  185.2850  172.8230  137.4150 C   0  0  0  0  0  3  0  0  0  0  0  0
  184.4670  175.0990  137.5240 C   0  0  0  0  0  0  0  0  0  0  0  0
  183.4090  175.9770  137.7670 O   0  0  0  0  0  0  0  0  0  0  0  0
  184.6440  177.5150  139.9480 N   0  0  0  0  0  2  0  0  0  0  0  0
  184.2460  173.7240  137.6500 C   0  0  0  0  0  3  0  0  0  0  0  0
  185.7290  175.5830  137.1330 C   0  0  0  0  0  0  0  0  0  0  0  0
  185.0650  178.4830  138.9400 C   0  0  0  0  0  2  0  0  0  0  0  0
  184.8110  177.9620  137.5200 C   0  0  2  0  0  3  0  0  0  0  0  0
  182.4440  178.6710  140.2680 C   0  0  0  0  0  2  0  0  0  0  0  0
  186.7760  174.6600  136.9040 C   0  0  0  0  0  0  0  0  0  0  0  0
  183.7350  178.1450  140.9100 C   0  0  2  0  0  3  0  0  0  0  0  0
  181.8340  177.7030  139.2550 C   0  0  0  0  0  2  0  0  0  0  0  0
  186.3940  177.5090  135.6470 C   0  0  0  0  0  1  0  0  0  0  0  0
  181.1830  179.0590  135.8820 O   0  0  0  0  0  1  0  0  0  0  0  0
  181.0340  178.1310  136.9140 C   0  0  2  0  0  3  0  0  0  0  0  0
  179.7810  178.4550  137.7070 C   0  0  0  0  0  2  0  0  0  0  0  0
  179.3510  179.8830  137.4440 C   0  0  0  0  0  2  0  0  0  0  0  0
  179.3580  180.6640  138.7540 C   0  0  0  0  0  2  0  0  0  0  0  0
  180.6240  181.4920  138.8720 C   0  0  0  0  0  2  0  0  0  0  0  0
  180.9570  182.0580  137.5790 N   0  0  0  0  0  2  0  0  0  0  0  0
  180.3090  183.3540  137.4890 C   0  0  0  0  0  2  0  0  0  0  0  0
  181.0060  184.9870  135.6930 N   0  0  0  0  0  1  0  0  0  0  0  0
  181.2690  184.3640  136.9440 C   0  0  0  0  0  0  0  0  0  0  0  0
  182.3060  184.6580  137.5910 O   0  0  0  0  0  0  0  0  0  0  0  0
  184.4120  179.2930  141.6530 C   0  0  0  0  0  2  0  0  0  0  0  0
  184.3590  178.7390  145.4140 C   0  0  0  0  0  3  0  0  0  0  0  0
  186.4170  177.8070  144.5120 C   0  0  0  0  0  0  0  0  0  0  0  0
  186.0490  178.2560  143.2350 C   0  0  0  0  0  3  0  0  0  0  0  0
  183.9890  179.1590  144.1320 C   0  0  0  0  0  3  0  0  0  0  0  0
  184.8370  178.9270  143.0430 C   0  0  0  0  0  0  0  0  0  0  0  0
  185.5700  178.0700  145.6040 C   0  0  0  0  0  3  0  0  0  0  0  0
  187.5910  177.0610  144.6590 O   0  0  0  0  0  0  0  0  0  0  0  0
  188.7390  177.5480  145.3340 C   0  0  0  0  0  1  0  0  0  0  0  0
  1 13  1  0  0  0  0
  1  8  1  1  0  0  0
  1  3  1  0  0  0  0
  2  6  1  0  0  0  0
  3 20  1  6  0  0  0
  3 17  1  0  0  0  0
  4 15  1  0  0  0  0
  5 18  1  6  0  0  0
  5 11  1  0  0  0  0
  5 13  1  0  0  0  0
  6 10  2  0  0  0  0
  7 10  1  0  0  0  0
  7  8  1  0  0  0  0
  9 16  1  0  0  0  0
 11  7  2  0  0  0  0
 12  9  1  0  0  0  0
 13 12  1  1  0  0  0
 14 16  1  0  0  0  0
 15  2  2  0  0  0  0
 15 11  1  0  0  0  0
 16 30  1  6  0  0  0
 17 14  1  0  0  0  0
 20 19  1  6  0  0  0
 20 21  1  0  0  0  0
 22 21  1  0  0  0  0
 22 23  1  0  0  0  0
 23 24  1  0  0  0  0
 25 24  1  0  0  0  0
 26 25  1  0  0  0  0
 27 28  1  0  0  0  0
 28 26  1  0  0  0  0
 28 29  2  0  0  0  0
 30 35  1  0  0  0  0
 31 36  1  0  0  0  0
 32 37  1  0  0  0  0
 32 36  2  0  0  0  0
 33 32  1  0  0  0  0
 34 31  2  0  0  0  0
 35 33  2  0  0  0  0
 35 34  1  0  0  0  0
 37 38  1  0  0  0  0
M  END
>  <MODEL>
5

>  <REMARK>
 VINA RESULT:      -6.6      2.926      7.494
  Name = 
  11 active torsions:
  status: ('A' for Active; 'I' for Inactive)
    1  A    between atoms: C_3  and  C_20
    2  A    between atoms: C_4  and  C_20
    3  A    between atoms: C_4  and  C_30
    4  A    between atoms: O_5  and  C_7
    5  A    between atoms: C_11  and  N_23
    6  A    between atoms: C_11  and  C_25
    7  A    between atoms: N_23  and  C_34
    8  A    between atoms: C_25  and  C_30
    9  A    between atoms: C_26  and  C_35
   10  A    between atoms: C_29  and  C_35
   11  A    between atoms: C_34  and  C_36
                            x       y       z     vdW  Elec       q    Type
                         _______ _______ _______ _____ _____    ______ ____

>  <TORSDO>
F 11

$$$$
=
 OpenBabel10222416243D

 38 41  0  0  1  0  0  0  0  0999 V2000
  183.4120  177.5450  137.4070 C   0  0  2  0  0  3  0  0  0  0  0  0
  186.2430  173.3190  137.0890 C   0  0  0  0  0  3  0  0  0  0  0  0
  182.2900  178.4330  137.9830 C   0  0  2  0  0  3  0  0  0  0  0  0
  187.8990  175.0440  136.6120 N   0  0  0  0  0  1  0  0  0  0  0  0
  185.9320  177.1400  137.1520 C   0  0  2  0  0  3  0  0  0  0  0  0
  184.9480  172.9340  137.4360 C   0  0  0  0  0  3  0  0  0  0  0  0
  184.2920  175.2590  137.5940 C   0  0  0  0  0  0  0  0  0  0  0  0
  183.2970  176.2030  137.8560 O   0  0  0  0  0  0  0  0  0  0  0  0
  184.6340  177.6050  140.0690 N   0  0  0  0  0  2  0  0  0  0  0  0
  183.9750  173.9000  137.6900 C   0  0  0  0  0  3  0  0  0  0  0  0
  185.5850  175.6620  137.2130 C   0  0  0  0  0  0  0  0  0  0  0  0
  185.1230  178.5620  139.0810 C   0  0  0  0  0  2  0  0  0  0  0  0
  184.8350  178.0900  137.6510 C   0  0  2  0  0  3  0  0  0  0  0  0
  182.5200  178.9050  140.4130 C   0  0  0  0  0  2  0  0  0  0  0  0
  186.5650  174.6730  136.9640 C   0  0  0  0  0  0  0  0  0  0  0  0
  183.7700  178.2760  141.0440 C   0  0  2  0  0  3  0  0  0  0  0  0
  181.8450  178.0030  139.3800 C   0  0  0  0  0  2  0  0  0  0  0  0
  186.3840  177.5680  135.7690 C   0  0  0  0  0  1  0  0  0  0  0  0
  181.3180  177.8950  135.8320 O   0  0  0  0  0  1  0  0  0  0  0  0
  181.0800  178.5360  137.0500 C   0  0  2  0  0  3  0  0  0  0  0  0
  180.7550  179.9960  136.7960 C   0  0  0  0  0  2  0  0  0  0  0  0
  179.6120  180.4400  137.6850 C   0  0  0  0  0  2  0  0  0  0  0  0
  180.1420  181.3800  138.7620 C   0  0  0  0  0  2  0  0  0  0  0  0
  179.0870  181.6180  139.8260 C   0  0  0  0  0  2  0  0  0  0  0  0
  179.6310  181.2970  141.1310 N   0  0  0  0  0  2  0  0  0  0  0  0
  179.1250  179.9880  141.5060 C   0  0  0  0  0  2  0  0  0  0  0  0
  179.2920  178.3950  143.4590 N   0  0  0  0  0  1  0  0  0  0  0  0
  179.7970  179.5270  142.7610 C   0  0  0  0  0  0  0  0  0  0  0  0
  180.8040  180.1410  143.1970 O   0  0  0  0  0  0  0  0  0  0  0  0
  184.5250  179.3580  141.8120 C   0  0  0  0  0  2  0  0  0  0  0  0
  184.4440  178.6140  145.5390 C   0  0  0  0  0  3  0  0  0  0  0  0
  186.5180  177.7450  144.6090 C   0  0  0  0  0  0  0  0  0  0  0  0
  186.1570  178.2550  143.3540 C   0  0  0  0  0  3  0  0  0  0  0  0
  184.0820  179.0960  144.2770 C   0  0  0  0  0  3  0  0  0  0  0  0
  184.9410  178.9250  143.1850 C   0  0  0  0  0  0  0  0  0  0  0  0
  185.6600  177.9460  145.7060 C   0  0  0  0  0  3  0  0  0  0  0  0
  187.6970  177.0020  144.7290 O   0  0  0  0  0  0  0  0  0  0  0  0
  188.7820  177.3980  145.5510 C   0  0  0  0  0  1  0  0  0  0  0  0
  1 13  1  0  0  0  0
  1  8  1  1  0  0  0
  1  3  1  0  0  0  0
  2  6  1  0  0  0  0
  3 20  1  6  0  0  0
  3 17  1  0  0  0  0
  4 15  1  0  0  0  0
  5 18  1  6  0  0  0
  5 11  1  0  0  0  0
  5 13  1  0  0  0  0
  6 10  2  0  0  0  0
  7 10  1  0  0  0  0
  7  8  1  0  0  0  0
  9 16  1  0  0  0  0
 11  7  2  0  0  0  0
 12  9  1  0  0  0  0
 13 12  1  1  0  0  0
 14 16  1  0  0  0  0
 15  2  2  0  0  0  0
 15 11  1  0  0  0  0
 16 30  1  6  0  0  0
 17 14  1  0  0  0  0
 20 19  1  6  0  0  0
 21 20  1  0  0  0  0
 21 22  1  0  0  0  0
 22 23  1  0  0  0  0
 23 24  1  0  0  0  0
 24 25  1  0  0  0  0
 25 26  1  0  0  0  0
 26 28  1  0  0  0  0
 28 29  2  0  0  0  0
 28 27  1  0  0  0  0
 30 35  1  0  0  0  0
 31 36  1  0  0  0  0
 32 37  1  0  0  0  0
 32 36  2  0  0  0  0
 33 32  1  0  0  0  0
 34 31  2  0  0  0  0
 35 33  2  0  0  0  0
 35 34  1  0  0  0  0
 37 38  1  0  0  0  0
M  END
>  <MODEL>
6

>  <REMARK>
 VINA RESULT:      -6.5      2.916      7.064
  Name = 
  11 active torsions:
  status: ('A' for Active; 'I' for Inactive)
    1  A    between atoms: C_3  and  C_20
    2  A    between atoms: C_4  and  C_20
    3  A    between atoms: C_4  and  C_30
    4  A    between atoms: O_5  and  C_7
    5  A    between atoms: C_11  and  N_23
    6  A    between atoms: C_11  and  C_25
    7  A    between atoms: N_23  and  C_34
    8  A    between atoms: C_25  and  C_30
    9  A    between atoms: C_26  and  C_35
   10  A    between atoms: C_29  and  C_35
   11  A    between atoms: C_34  and  C_36
                            x       y       z     vdW  Elec       q    Type
                         _______ _______ _______ _____ _____    ______ ____

>  <TORSDO>
F 11

$$$$
=
 OpenBabel10222416243D

 38 41  0  0  1  0  0  0  0  0999 V2000
  184.2810  178.5610  139.1020 C   0  0  2  0  0  3  0  0  0  0  0  0
  180.0840  181.2900  138.1470 C   0  0  0  0  0  3  0  0  0  0  0  0
  185.7040  178.3370  139.6520 C   0  0  2  0  0  3  0  0  0  0  0  0
  179.1330  179.0950  138.6190 N   0  0  0  0  0  1  0  0  0  0  0  0
  181.7750  178.0540  139.3170 C   0  0  2  0  0  3  0  0  0  0  0  0
  181.1770  182.1510  138.0530 C   0  0  0  0  0  3  0  0  0  0  0  0
  182.6510  180.3690  138.7680 C   0  0  0  0  0  0  0  0  0  0  0  0
  183.9430  179.9400  139.0750 O   0  0  0  0  0  0  0  0  0  0  0  0
  183.4560  179.1200  141.8560 N   0  0  0  0  0  2  0  0  0  0  0  0
  182.4570  181.6930  138.3640 C   0  0  0  0  0  3  0  0  0  0  0  0
  181.5620  179.4800  138.8360 C   0  0  0  0  0  0  0  0  0  0  0  0
  183.2490  177.7660  141.3530 C   0  0  0  0  0  2  0  0  0  0  0  0
  183.1910  177.7390  139.8210 C   0  0  2  0  0  3  0  0  0  0  0  0
  185.9220  178.7510  142.0930 C   0  0  0  0  0  2  0  0  0  0  0  0
  180.2680  179.9570  138.5250 C   0  0  0  0  0  0  0  0  0  0  0  0
  184.6030  179.1550  142.7670 C   0  0  2  0  0  3  0  0  0  0  0  0
  186.1070  179.3660  140.7070 C   0  0  0  0  0  2  0  0  0  0  0  0
  181.3670  177.0300  138.2750 C   0  0  0  0  0  1  0  0  0  0  0  0
  186.3910  177.3760  137.5390 O   0  0  0  0  0  1  0  0  0  0  0  0
  186.7610  178.2700  138.5460 C   0  0  2  0  0  3  0  0  0  0  0  0
  188.0910  177.8410  139.1370 C   0  0  0  0  0  2  0  0  0  0  0  0
  189.2330  178.3400  138.2750 C   0  0  0  0  0  2  0  0  0  0  0  0
  190.0180  177.1510  137.7340 C   0  0  0  0  0  2  0  0  0  0  0  0
  190.6690  176.3830  138.8700 C   0  0  0  0  0  2  0  0  0  0  0  0
  191.2890  175.1800  138.3510 N   0  0  0  0  0  2  0  0  0  0  0  0
  191.9700  175.5350  137.1190 C   0  0  0  0  0  2  0  0  0  0  0  0
  194.2940  174.5470  137.1690 N   0  0  0  0  0  1  0  0  0  0  0  0
  193.4390  175.6650  137.3720 C   0  0  0  0  0  0  0  0  0  0  0  0
  193.9140  176.7610  137.7660 O   0  0  0  0  0  0  0  0  0  0  0  0
  184.3830  178.2590  143.9830 C   0  0  0  0  0  2  0  0  0  0  0  0
  186.5350  178.5890  147.0990 C   0  0  0  0  0  3  0  0  0  0  0  0
  187.8230  177.4590  145.3720 C   0  0  0  0  0  0  0  0  0  0  0  0
  186.7440  177.6040  144.4870 C   0  0  0  0  0  3  0  0  0  0  0  0
  185.4560  178.7050  146.2170 C   0  0  0  0  0  3  0  0  0  0  0  0
  185.5620  178.2210  144.9080 C   0  0  0  0  0  0  0  0  0  0  0  0
  187.7160  177.9740  146.6770 C   0  0  0  0  0  3  0  0  0  0  0  0
  188.9590  176.7590  144.9510 O   0  0  0  0  0  0  0  0  0  0  0  0
  190.2790  177.1530  145.2860 C   0  0  0  0  0  1  0  0  0  0  0  0
  1  8  1  1  0  0  0
  1  3  1  0  0  0  0
  1 13  1  0  0  0  0
  2 15  1  0  0  0  0
  3 20  1  6  0  0  0
  3 17  1  0  0  0  0
  5 18  1  6  0  0  0
  5 13  1  0  0  0  0
  6  2  2  0  0  0  0
  6 10  1  0  0  0  0
  7 11  1  0  0  0  0
  7  8  1  0  0  0  0
  9 16  1  0  0  0  0
 10  7  2  0  0  0  0
 11  5  1  0  0  0  0
 12  9  1  0  0  0  0
 13 12  1  1  0  0  0
 14 16  1  0  0  0  0
 15  4  1  0  0  0  0
 15 11  2  0  0  0  0
 16 30  1  1  0  0  0
 17 14  1  0  0  0  0
 20 19  1  6  0  0  0
 20 21  1  0  0  0  0
 22 21  1  0  0  0  0
 23 22  1  0  0  0  0
 23 24  1  0  0  0  0
 25 24  1  0  0  0  0
 26 28  1  0  0  0  0
 26 25  1  0  0  0  0
 27 28  1  0  0  0  0
 28 29  2  0  0  0  0
 30 35  1  0  0  0  0
 32 36  2  0  0  0  0
 33 35  2  0  0  0  0
 33 32  1  0  0  0  0
 34 31  2  0  0  0  0
 35 34  1  0  0  0  0
 36 31  1  0  0  0  0
 37 38  1  0  0  0  0
 37 32  1  0  0  0  0
M  END
>  <MODEL>
7

>  <REMARK>
 VINA RESULT:      -6.5      2.094      2.687
  Name = 
  11 active torsions:
  status: ('A' for Active; 'I' for Inactive)
    1  A    between atoms: C_3  and  C_20
    2  A    between atoms: C_4  and  C_20
    3  A    between atoms: C_4  and  C_30
    4  A    between atoms: O_5  and  C_7
    5  A    between atoms: C_11  and  N_23
    6  A    between atoms: C_11  and  C_25
    7  A    between atoms: N_23  and  C_34
    8  A    between atoms: C_25  and  C_30
    9  A    between atoms: C_26  and  C_35
   10  A    between atoms: C_29  and  C_35
   11  A    between atoms: C_34  and  C_36
                            x       y       z     vdW  Elec       q    Type
                         _______ _______ _______ _____ _____    ______ ____

>  <TORSDO>
F 11

$$$$
=
 OpenBabel10222416243D

 38 41  0  0  1  0  0  0  0  0999 V2000
  191.1160  176.5970  137.7970 C   0  0  2  0  0  3  0  0  0  0  0  0
  188.4460  177.8160  141.9640 C   0  0  0  0  0  3  0  0  0  0  0  0
  191.9560  175.6630  136.9030 C   0  0  2  0  0  3  0  0  0  0  0  0
  187.2030  179.0010  140.2330 N   0  0  0  0  0  1  0  0  0  0  0  0
  188.8900  177.8220  138.1550 C   0  0  2  0  0  3  0  0  0  0  0  0
  189.4740  176.9590  142.3580 C   0  0  0  0  0  3  0  0  0  0  0  0
  190.1250  176.6660  140.0450 C   0  0  0  0  0  0  0  0  0  0  0  0
  190.9760  176.0740  139.1100 O   0  0  0  0  0  0  0  0  0  0  0  0
  188.9380  174.6560  137.5360 N   0  0  0  0  0  2  0  0  0  0  0  0
  190.3100  176.3840  141.4010 C   0  0  0  0  0  3  0  0  0  0  0  0
  189.1130  177.5530  139.6350 C   0  0  0  0  0  0  0  0  0  0  0  0
  188.9300  175.8020  136.6320 C   0  0  0  0  0  2  0  0  0  0  0  0
  189.7420  176.9710  137.2030 C   0  0  2  0  0  3  0  0  0  0  0  0
  190.7990  173.5560  136.2690 C   0  0  0  0  0  2  0  0  0  0  0  0
  188.2660  178.1260  140.6130 C   0  0  0  0  0  0  0  0  0  0  0  0
  189.3710  173.4500  136.8250 C   0  0  2  0  0  3  0  0  0  0  0  0
  191.7850  174.1860  137.2510 C   0  0  0  0  0  2  0  0  0  0  0  0
  189.0500  179.2890  137.8070 C   0  0  0  0  0  1  0  0  0  0  0  0
  193.7020  177.1260  137.7230 O   0  0  0  0  0  1  0  0  0  0  0  0
  193.4420  176.0360  136.8900 C   0  0  2  0  0  3  0  0  0  0  0  0
  193.8710  176.3720  135.4730 C   0  0  0  0  0  2  0  0  0  0  0  0
  195.3710  176.2190  135.3310 C   0  0  0  0  0  2  0  0  0  0  0  0
  195.7430  174.7440  135.4390 C   0  0  0  0  0  2  0  0  0  0  0  0
  197.1700  174.5920  135.9320 C   0  0  0  0  0  2  0  0  0  0  0  0
  197.3120  175.2420  137.2200 N   0  0  0  0  0  2  0  0  0  0  0  0
  197.4140  174.2010  138.2270 C   0  0  0  0  0  2  0  0  0  0  0  0
  195.8110  175.2570  139.8690 N   0  0  0  0  0  1  0  0  0  0  0  0
  196.1570  174.1560  139.0380 C   0  0  0  0  0  0  0  0  0  0  0  0
  195.4120  173.1440  138.9860 O   0  0  0  0  0  0  0  0  0  0  0  0
  188.4270  173.1040  135.6770 C   0  0  0  0  0  2  0  0  0  0  0  0
  185.1680  172.6490  137.5800 C   0  0  0  0  0  3  0  0  0  0  0  0
  184.7960  174.2060  135.7480 C   0  0  0  0  0  0  0  0  0  0  0  0
  186.1270  174.0300  135.3420 C   0  0  0  0  0  3  0  0  0  0  0  0
  186.5010  172.5020  137.1830 C   0  0  0  0  0  3  0  0  0  0  0  0
  186.9800  173.1840  136.0590 C   0  0  0  0  0  0  0  0  0  0  0  0
  184.3170  173.4930  136.8620 C   0  0  0  0  0  3  0  0  0  0  0  0
  183.9920  175.1250  135.0660 O   0  0  0  0  0  0  0  0  0  0  0  0
  183.1750  176.0780  135.7260 C   0  0  0  0  0  1  0  0  0  0  0  0
  1  8  1  1  0  0  0
  2  6  1  0  0  0  0
  3 20  1  1  0  0  0
  3 17  1  0  0  0  0
  3  1  1  0  0  0  0
  4 15  1  0  0  0  0
  5 18  1  1  0  0  0
  5 11  1  0  0  0  0
  7 10  1  0  0  0  0
  8  7  1  0  0  0  0
 10  6  2  0  0  0  0
 11  7  2  0  0  0  0
 11 15  1  0  0  0  0
 12  9  1  0  0  0  0
 13 12  1  1  0  0  0
 13  1  1  0  0  0  0
 13  5  1  0  0  0  0
 14 16  1  0  0  0  0
 14 17  1  0  0  0  0
 15  2  2  0  0  0  0
 16 30  1  6  0  0  0
 16  9  1  0  0  0  0
 20 19  1  1  0  0  0
 21 20  1  0  0  0  0
 22 23  1  0  0  0  0
 22 21  1  0  0  0  0
 23 24  1  0  0  0  0
 24 25  1  0  0  0  0
 25 26  1  0  0  0  0
 26 28  1  0  0  0  0
 28 27  1  0  0  0  0
 29 28  2  0  0  0  0
 30 35  1  0  0  0  0
 32 36  1  0  0  0  0
 33 32  2  0  0  0  0
 33 35  1  0  0  0  0
 34 31  1  0  0  0  0
 35 34  2  0  0  0  0
 36 31  2  0  0  0  0
 37 38  1  0  0  0  0
 37 32  1  0  0  0  0
M  END
>  <MODEL>
8

>  <REMARK>
 VINA RESULT:      -6.4      4.965      8.971
  Name = 
  11 active torsions:
  status: ('A' for Active; 'I' for Inactive)
    1  A    between atoms: C_3  and  C_20
    2  A    between atoms: C_4  and  C_20
    3  A    between atoms: C_4  and  C_30
    4  A    between atoms: O_5  and  C_7
    5  A    between atoms: C_11  and  N_23
    6  A    between atoms: C_11  and  C_25
    7  A    between atoms: N_23  and  C_34
    8  A    between atoms: C_25  and  C_30
    9  A    between atoms: C_26  and  C_35
   10  A    between atoms: C_29  and  C_35
   11  A    between atoms: C_34  and  C_36
                            x       y       z     vdW  Elec       q    Type
                         _______ _______ _______ _____ _____    ______ ____

>  <TORSDO>
F 11

$$$$
=
 OpenBabel10222416243D

 38 41  0  0  1  0  0  0  0  0999 V2000
  189.2600  176.7870  136.6250 C   0  0  2  0  0  3  0  0  0  0  0  0
  190.2560  171.9880  135.2280 C   0  0  0  0  0  3  0  0  0  0  0  0
  188.5980  177.8800  137.4890 C   0  0  2  0  0  3  0  0  0  0  0  0
  192.4050  173.0640  134.8160 N   0  0  0  0  0  1  0  0  0  0  0  0
  191.4170  175.5680  135.9600 C   0  0  2  0  0  3  0  0  0  0  0  0
  188.9380  172.0290  135.6840 C   0  0  0  0  0  3  0  0  0  0  0  0
  189.2210  174.3510  136.3100 C   0  0  0  0  0  0  0  0  0  0  0  0
  188.6780  175.5140  136.8590 O   0  0  0  0  0  0  0  0  0  0  0  0
  190.5910  175.8610  139.0650 N   0  0  0  0  0  2  0  0  0  0  0  0
  188.4220  173.2070  136.2250 C   0  0  0  0  0  3  0  0  0  0  0  0
  190.5420  174.3330  135.8250 C   0  0  0  0  0  0  0  0  0  0  0  0
  191.3370  176.7600  138.1900 C   0  0  0  0  0  2  0  0  0  0  0  0
  190.7960  176.7240  136.7550 C   0  0  2  0  0  3  0  0  0  0  0  0
  189.1530  177.7320  139.9080 C   0  0  0  0  0  2  0  0  0  0  0  0
  191.0570  173.1320  135.2840 C   0  0  0  0  0  0  0  0  0  0  0  0
  190.1130  176.5830  140.2470 C   0  0  2  0  0  3  0  0  0  0  0  0
  188.1200  177.3630  138.8440 C   0  0  0  0  0  2  0  0  0  0  0  0
  191.9030  176.0780  134.6160 C   0  0  0  0  0  1  0  0  0  0  0  0
  187.6580  179.9790  136.7340 O   0  0  0  0  0  1  0  0  0  0  0  0
  187.4570  178.5980  136.7620 C   0  0  2  0  0  3  0  0  0  0  0  0
  186.1410  178.2930  137.4530 C   0  0  0  0  0  2  0  0  0  0  0  0
  185.4430  177.1380  136.7650 C   0  0  0  0  0  2  0  0  0  0  0  0
  184.3720  176.5700  137.6890 C   0  0  0  0  0  2  0  0  0  0  0  0
  183.6610  177.6870  138.4290 C   0  0  0  0  0  2  0  0  0  0  0  0
  183.1230  177.1800  139.6760 N   0  0  0  0  0  2  0  0  0  0  0  0
  182.9910  178.3040  140.5860 C   0  0  0  0  0  2  0  0  0  0  0  0
  185.0040  178.2300  142.1110 N   0  0  0  0  0  1  0  0  0  0  0  0
  184.3480  178.7960  140.9830 C   0  0  0  0  0  0  0  0  0  0  0  0
  184.9030  179.7100  140.3210 O   0  0  0  0  0  0  0  0  0  0  0  0
  191.2700  177.1420  141.0700 C   0  0  0  0  0  2  0  0  0  0  0  0
  191.2920  178.5660  144.5950 C   0  0  0  0  0  3  0  0  0  0  0  0
  189.2920  177.2110  144.3080 C   0  0  0  0  0  0  0  0  0  0  0  0
  189.7110  176.8860  143.0100 C   0  0  0  0  0  3  0  0  0  0  0  0
  191.6870  178.2570  143.2890 C   0  0  0  0  0  3  0  0  0  0  0  0
  190.9030  177.4100  142.4980 C   0  0  0  0  0  0  0  0  0  0  0  0
  190.1020  178.0410  145.1040 C   0  0  0  0  0  3  0  0  0  0  0  0
  188.0530  176.7450  144.7600 O   0  0  0  0  0  0  0  0  0  0  0  0
  187.0120  177.6060  145.1930 C   0  0  0  0  0  1  0  0  0  0  0  0
  1 13  1  0  0  0  0
  1  8  1  1  0  0  0
  1  3  1  0  0  0  0
  2 15  2  0  0  0  0
  2  6  1  0  0  0  0
  3 20  1  6  0  0  0
  3 17  1  0  0  0  0
  4 15  1  0  0  0  0
  5 18  1  6  0  0  0
  5 13  1  0  0  0  0
  6 10  2  0  0  0  0
  7  8  1  0  0  0  0
  9 16  1  0  0  0  0
 10  7  1  0  0  0  0
 11  5  1  0  0  0  0
 11  7  2  0  0  0  0
 12  9  1  0  0  0  0
 13 12  1  1  0  0  0
 14 16  1  0  0  0  0
 15 11  1  0  0  0  0
 16 30  1  6  0  0  0
 17 14  1  0  0  0  0
 20 19  1  1  0  0  0
 20 21  1  0  0  0  0
 22 21  1  0  0  0  0
 22 23  1  0  0  0  0
 23 24  1  0  0  0  0
 24 25  1  0  0  0  0
 25 26  1  0  0  0  0
 26 28  1  0  0  0  0
 28 27  1  0  0  0  0
 29 28  2  0  0  0  0
 30 35  1  0  0  0  0
 31 36  1  0  0  0  0
 32 37  1  0  0  0  0
 32 36  2  0  0  0  0
 33 32  1  0  0  0  0
 34 31  2  0  0  0  0
 35 33  2  0  0  0  0
 35 34  1  0  0  0  0
 37 38  1  0  0  0  0
M  END
>  <MODEL>
9

>  <REMARK>
 VINA RESULT:      -6.4      3.229      7.798
  Name = 
  11 active torsions:
  status: ('A' for Active; 'I' for Inactive)
    1  A    between atoms: C_3  and  C_20
    2  A    between atoms: C_4  and  C_20
    3  A    between atoms: C_4  and  C_30
    4  A    between atoms: O_5  and  C_7
    5  A    between atoms: C_11  and  N_23
    6  A    between atoms: C_11  and  C_25
    7  A    between atoms: N_23  and  C_34
    8  A    between atoms: C_25  and  C_30
    9  A    between atoms: C_26  and  C_35
   10  A    between atoms: C_29  and  C_35
   11  A    between atoms: C_34  and  C_36
                            x       y       z     vdW  Elec       q    Type
                         _______ _______ _______ _____ _____    ______ ____

>  <TORSDO>
F 11

$$$$
