=
 OpenBabel10222419093D

 50 54  0  0  1  0  0  0  0  0999 V2000
  184.0060  179.0450  139.3870 C   0  0  0  0  0  0  0  0  0  0  0  0
  181.9800  178.8860  140.5740 C   0  0  2  0  0  3  0  0  0  0  0  0
  185.3470  178.8460  141.6530 C   0  0  0  0  0  0  0  0  0  0  0  0
  184.9450  179.2730  138.3890 O   0  0  0  0  0  1  0  0  0  0  0  0
  184.2680  178.7550  140.7790 C   0  0  0  0  0  0  0  0  0  0  0  0
  182.6740  179.1070  139.2370 C   0  0  0  0  0  0  0  0  0  0  0  0
  182.4100  178.8310  143.8660 C   0  0  0  0  0  2  0  0  0  0  0  0
  184.7670  178.7800  142.9210 C   0  0  0  0  0  0  0  0  0  0  0  0
  183.1270  178.6370  141.4380 N   0  0  0  0  0  0  0  0  0  0  0  0
  183.3950  178.6650  142.7530 C   0  0  0  0  0  0  0  0  0  0  0  0
  185.4320  178.8860  144.2610 C   0  0  1  0  0  3  0  0  0  0  0  0
  183.0840  178.4750  145.1960 C   0  0  0  0  0  2  0  0  0  0  0  0
  184.4110  179.2370  145.3630 C   0  0  0  0  0  2  0  0  0  0  0  0
  180.7440  181.0200  136.5930 C   0  0  0  0  0  3  0  0  0  0  0  0
  181.9100  178.5000  136.9610 C   0  0  0  0  0  3  0  0  0  0  0  0
  180.6580  180.0530  135.5880 C   0  0  0  0  0  3  0  0  0  0  0  0
  181.9850  179.4570  137.9830 C   0  0  0  0  0  0  0  0  0  0  0  0
  181.2450  178.7940  135.7700 C   0  0  0  0  0  3  0  0  0  0  0  0
  181.5090  181.7210  138.7590 O   0  0  0  0  0  1  0  0  0  0  0  0
  181.4090  180.7310  137.7870 C   0  0  0  0  0  0  0  0  0  0  0  0
  181.0500  177.6700  140.5090 C   0  0  1  0  0  3  0  0  0  0  0  0
  179.8420  177.9890  139.8860 O   0  0  0  0  0  1  0  0  0  0  0  0
  181.7240  176.5210  139.7770 C   0  0  0  0  0  2  0  0  0  0  0  0
  180.7780  175.4380  139.5520 N   0  0  0  0  0  2  0  0  0  0  0  0
  180.7080  175.2140  138.1160 C   0  0  0  0  0  2  0  0  0  0  0  0
  181.7230  173.2070  137.3370 O   0  0  0  0  0  0  0  0  0  0  0  0
  183.1680  175.0230  137.6040 N   0  0  0  0  0  2  0  0  0  0  0  0
  181.8780  174.4150  137.6620 C   0  0  0  0  0  0  0  0  0  0  0  0
  184.3900  173.6520  135.3990 C   0  0  0  0  0  1  0  0  0  0  0  0
  184.7760  172.9580  137.9660 O   0  0  0  0  0  0  0  0  0  0  0  0
  184.5760  174.1600  137.0910 S   0  0  0  0  0  0  0  0  0  0  0  0
  185.7730  175.0580  137.2030 O   0  0  0  0  0  0  0  0  0  0  0  0
  186.7720  179.0860  141.3730 C   0  0  0  0  0  3  0  0  0  0  0  0
  187.6810  178.1230  141.3850 C   0  0  0  0  0  2  0  0  0  0  0  0
  186.1760  177.5900  144.5690 C   0  0  0  0  0  2  0  0  0  0  0  0
  186.7180  177.5810  145.9940 C   0  0  0  0  0  2  0  0  0  0  0  0
  189.4530  176.7250  146.9550 O   0  0  0  0  0  0  0  0  0  0  0  0
  188.7660  177.9170  147.2250 C   0  0  1  0  0  3  0  0  0  0  0  0
  187.9820  178.3160  146.0550 N   0  0  0  0  0  0  0  0  0  0  0  0
  188.7870  177.8050  144.9670 C   0  0  0  0  0  2  0  0  0  0  0  0
  189.7120  176.7690  145.5770 C   0  0  1  0  0  3  0  0  0  0  0  0
  187.9650  177.8210  148.5190 C   0  0  0  0  0  1  0  0  0  0  0  0
  191.9610  177.0190  146.3120 O   0  0  0  0  0  0  0  0  0  0  0  0
  191.1600  177.0780  145.3400 C   0  0  0  0  0  0  0  0  0  0  0  0
  191.5990  177.4990  144.0800 O   0  0  0  0  0  0  0  0  0  0  0  0
  191.8150  176.5850  143.0120 C   0  0  0  0  0  2  0  0  0  0  0  0
  191.4470  177.3130  140.6230 C   0  0  0  0  0  0  0  0  0  0  0  0
  192.6850  177.4550  140.4400 O   0  0  0  0  0  0  0  0  0  0  0  0
  190.5100  177.5270  139.4930 C   0  0  0  0  0  1  0  0  0  0  0  0
  190.9360  176.9120  141.8960 N   0  0  0  0  0  2  0  0  0  0  0  0
  1  5  1  0  0  0  0
  2 21  1  6  0  0  0
  2  9  1  0  0  0  0
  3  8  1  0  0  0  0
  4  1  1  0  0  0  0
  5  9  1  0  0  0  0
  5  3  2  0  0  0  0
  6  1  2  0  0  0  0
  6  2  1  0  0  0  0
  7 12  1  0  0  0  0
  8 11  1  0  0  0  0
  9 10  1  0  0  0  0
 10  8  2  0  0  0  0
 10  7  1  0  0  0  0
 11 35  1  1  0  0  0
 11 13  1  0  0  0  0
 12 13  1  0  0  0  0
 14 20  1  0  0  0  0
 15 17  1  0  0  0  0
 16 18  1  0  0  0  0
 16 14  2  0  0  0  0
 17  6  1  0  0  0  0
 18 15  2  0  0  0  0
 20 17  2  0  0  0  0
 20 19  1  0  0  0  0
 21 22  1  6  0  0  0
 23 21  1  0  0  0  0
 24 23  1  0  0  0  0
 25 24  1  0  0  0  0
 26 28  2  0  0  0  0
 27 28  1  0  0  0  0
 28 25  1  0  0  0  0
 29 31  1  0  0  0  0
 31 32  2  0  0  0  0
 31 27  1  0  0  0  0
 31 30  2  0  0  0  0
 33 34  2  0  0  0  0
 33  3  1  0  0  0  0
 35 36  1  0  0  0  0
 36 39  1  0  0  0  0
 37 38  1  0  0  0  0
 38 42  1  1  0  0  0
 39 38  1  0  0  0  0
 40 41  1  0  0  0  0
 40 39  1  0  0  0  0
 41 44  1  1  0  0  0
 41 37  1  0  0  0  0
 44 43  2  0  0  0  0
 45 44  1  0  0  0  0
 46 45  1  0  0  0  0
 47 50  1  0  0  0  0
 48 47  2  0  0  0  0
 49 47  1  0  0  0  0
 50 46  1  0  0  0  0
M  END
>  <MODEL>
1

>  <REMARK>
 VINA RESULT:      -8.6      0.000      0.000
  Name = 
  15 active torsions:
  status: ('A' for Active; 'I' for Inactive)
    1  A    between atoms: C_2  and  C_5
    2  A    between atoms: C_2  and  C_27
    3  A    between atoms: C_9  and  C_11
    4  A    between atoms: C_12  and  C_31
    5  A    between atoms: C_12  and  C_46
    6  A    between atoms: C_18  and  C_25
    7  A    between atoms: N_24  and  S_30
    8  A    between atoms: C_26  and  N_41
    9  A    between atoms: C_26  and  C_43
   10  A    between atoms: C_27  and  N_41
   11  A    between atoms: N_29  and  C_31
   12  A    between atoms: C_32  and  N_38
   13  A    between atoms: C_32  and  O_39
   14  A    between atoms: C_35  and  C_37
   15  A    between atoms: C_35  and  O_39
                            x       y       z     vdW  Elec       q    Type
                         _______ _______ _______ _____ _____    ______ ____

>  <TORSDO>
F 15

$$$$
=
 OpenBabel10222419093D

 50 54  0  0  1  0  0  0  0  0999 V2000
  193.0350  176.5010  138.9470 C   0  0  0  0  0  0  0  0  0  0  0  0
  191.5390  176.3370  137.1390 C   0  0  2  0  0  3  0  0  0  0  0  0
  191.0480  177.2400  140.5220 C   0  0  0  0  0  0  0  0  0  0  0  0
  194.1960  176.5880  139.7070 O   0  0  0  0  0  1  0  0  0  0  0  0
  191.6780  176.6940  139.4070 C   0  0  0  0  0  0  0  0  0  0  0  0
  192.9790  176.2700  137.6270 C   0  0  0  0  0  0  0  0  0  0  0  0
  188.4710  177.3500  137.9010 C   0  0  0  0  0  2  0  0  0  0  0  0
  189.7330  177.4520  140.1020 C   0  0  0  0  0  0  0  0  0  0  0  0
  190.8370  176.5720  138.3930 N   0  0  0  0  0  0  0  0  0  0  0  0
  189.6400  177.0420  138.7800 C   0  0  0  0  0  0  0  0  0  0  0  0
  188.5990  178.0740  140.8600 C   0  0  1  0  0  3  0  0  0  0  0  0
  187.2210  177.5380  138.7690 C   0  0  0  0  0  2  0  0  0  0  0  0
  187.4830  178.5450  139.9030 C   0  0  0  0  0  2  0  0  0  0  0  0
  196.0630  174.8040  135.9790 C   0  0  0  0  0  3  0  0  0  0  0  0
  194.4840  177.1140  135.8490 C   0  0  0  0  0  3  0  0  0  0  0  0
  196.3960  175.8330  135.0940 C   0  0  0  0  0  3  0  0  0  0  0  0
  194.1530  176.0950  136.7550 C   0  0  0  0  0  0  0  0  0  0  0  0
  195.6030  176.9870  135.0270 C   0  0  0  0  0  3  0  0  0  0  0  0
  194.6150  173.8740  137.6550 O   0  0  0  0  0  1  0  0  0  0  0  0
  194.9430  174.9260  136.8060 C   0  0  0  0  0  0  0  0  0  0  0  0
  191.1200  175.0070  136.5010 C   0  0  1  0  0  3  0  0  0  0  0  0
  190.6370  174.1150  137.4600 O   0  0  0  0  0  1  0  0  0  0  0  0
  190.0690  175.2370  135.4280 C   0  0  0  0  0  2  0  0  0  0  0  0
  189.0020  174.2540  135.5440 N   0  0  0  0  0  2  0  0  0  0  0  0
  187.7520  174.9300  135.2350 C   0  0  0  0  0  2  0  0  0  0  0  0
  186.5060  172.9530  135.6830 O   0  0  0  0  0  0  0  0  0  0  0  0
  185.6300  174.9190  136.5930 N   0  0  0  0  0  2  0  0  0  0  0  0
  186.6070  174.1990  135.8420 C   0  0  0  0  0  0  0  0  0  0  0  0
  183.1350  173.5990  136.0710 C   0  0  0  0  0  1  0  0  0  0  0  0
  183.5850  175.0960  138.2570 O   0  0  0  0  0  0  0  0  0  0  0  0
  184.2700  174.1410  137.3260 S   0  0  0  0  0  0  0  0  0  0  0  0
  184.7450  172.9480  138.1040 O   0  0  0  0  0  0  0  0  0  0  0  0
  191.6090  177.6410  141.8210 C   0  0  0  0  0  3  0  0  0  0  0  0
  191.8380  176.7830  142.8040 C   0  0  0  0  0  2  0  0  0  0  0  0
  188.0740  177.0900  141.9000 C   0  0  0  0  0  2  0  0  0  0  0  0
  188.2710  177.6150  143.3170 C   0  0  0  0  0  2  0  0  0  0  0  0
  187.0480  178.6670  145.8740 O   0  0  0  0  0  0  0  0  0  0  0  0
  187.5460  177.3840  145.6070 C   0  0  1  0  0  3  0  0  0  0  0  0
  187.2760  177.0250  144.2140 N   0  0  0  0  0  0  0  0  0  0  0  0
  186.0420  177.7350  143.9550 C   0  0  0  0  0  2  0  0  0  0  0  0
  185.9340  178.7980  145.0320 C   0  0  1  0  0  3  0  0  0  0  0  0
  189.0070  177.2530  146.0220 C   0  0  0  0  0  1  0  0  0  0  0  0
  184.7570  178.4580  147.0710 O   0  0  0  0  0  0  0  0  0  0  0  0
  184.6720  178.6810  145.8330 C   0  0  0  0  0  0  0  0  0  0  0  0
  183.4230  178.7390  145.2040 O   0  0  0  0  0  0  0  0  0  0  0  0
  183.1710  179.6110  144.1090 C   0  0  0  0  0  2  0  0  0  0  0  0
  181.4180  179.1250  142.3590 C   0  0  0  0  0  0  0  0  0  0  0  0
  180.6570  180.0140  142.8260 O   0  0  0  0  0  0  0  0  0  0  0  0
  181.0170  178.3870  141.1370 C   0  0  0  0  0  1  0  0  0  0  0  0
  182.6790  178.8450  142.9700 N   0  0  0  0  0  2  0  0  0  0  0  0
  1  5  1  0  0  0  0
  1  4  1  0  0  0  0
  2 21  1  1  0  0  0
  2  6  1  0  0  0  0
  2  9  1  0  0  0  0
  3 33  1  0  0  0  0
  5  3  2  0  0  0  0
  6  1  2  0  0  0  0
  7 12  1  0  0  0  0
  7 10  1  0  0  0  0
  8  3  1  0  0  0  0
  8 11  1  0  0  0  0
  9 10  1  0  0  0  0
  9  5  1  0  0  0  0
 10  8  2  0  0  0  0
 11 35  1  1  0  0  0
 12 13  1  0  0  0  0
 13 11  1  0  0  0  0
 14 20  1  0  0  0  0
 15 17  1  0  0  0  0
 16 14  2  0  0  0  0
 17 20  2  0  0  0  0
 17  6  1  0  0  0  0
 18 16  1  0  0  0  0
 18 15  2  0  0  0  0
 20 19  1  0  0  0  0
 21 22  1  1  0  0  0
 23 24  1  0  0  0  0
 23 21  1  0  0  0  0
 25 24  1  0  0  0  0
 25 28  1  0  0  0  0
 26 28  2  0  0  0  0
 27 31  1  0  0  0  0
 28 27  1  0  0  0  0
 29 31  1  0  0  0  0
 31 32  2  0  0  0  0
 31 30  2  0  0  0  0
 33 34  2  0  0  0  0
 35 36  1  0  0  0  0
 36 39  1  0  0  0  0
 38 37  1  0  0  0  0
 38 42  1  6  0  0  0
 39 38  1  0  0  0  0
 40 39  1  0  0  0  0
 40 41  1  0  0  0  0
 41 44  1  1  0  0  0
 41 37  1  0  0  0  0
 44 43  2  0  0  0  0
 45 44  1  0  0  0  0
 46 45  1  0  0  0  0
 47 48  2  0  0  0  0
 47 50  1  0  0  0  0
 49 47  1  0  0  0  0
 50 46  1  0  0  0  0
M  END
>  <MODEL>
2

>  <REMARK>
 VINA RESULT:      -7.6      3.407      8.680
  Name = 
  15 active torsions:
  status: ('A' for Active; 'I' for Inactive)
    1  A    between atoms: C_2  and  C_5
    2  A    between atoms: C_2  and  C_27
    3  A    between atoms: C_9  and  C_11
    4  A    between atoms: C_12  and  C_31
    5  A    between atoms: C_12  and  C_46
    6  A    between atoms: C_18  and  C_25
    7  A    between atoms: N_24  and  S_30
    8  A    between atoms: C_26  and  N_41
    9  A    between atoms: C_26  and  C_43
   10  A    between atoms: C_27  and  N_41
   11  A    between atoms: N_29  and  C_31
   12  A    between atoms: C_32  and  N_38
   13  A    between atoms: C_32  and  O_39
   14  A    between atoms: C_35  and  C_37
   15  A    between atoms: C_35  and  O_39
                            x       y       z     vdW  Elec       q    Type
                         _______ _______ _______ _____ _____    ______ ____

>  <TORSDO>
F 15

$$$$
=
 OpenBabel10222419093D

 50 54  0  0  1  0  0  0  0  0999 V2000
  183.5970  176.1350  137.9010 C   0  0  0  0  0  0  0  0  0  0  0  0
  184.4230  178.3340  137.7790 C   0  0  2  0  0  3  0  0  0  0  0  0
  185.8610  175.2310  136.8870 C   0  0  0  0  0  0  0  0  0  0  0  0
  182.7500  175.0390  138.0200 O   0  0  0  0  0  1  0  0  0  0  0  0
  184.9860  176.1210  137.5010 C   0  0  0  0  0  0  0  0  0  0  0  0
  183.2490  177.4170  138.0890 C   0  0  0  0  0  0  0  0  0  0  0  0
  187.3890  178.5230  136.3010 C   0  0  0  0  0  2  0  0  0  0  0  0
  186.9190  176.0320  136.4550 C   0  0  0  0  0  0  0  0  0  0  0  0
  185.4560  177.3580  137.4620 N   0  0  0  0  0  0  0  0  0  0  0  0
  186.6310  177.3410  136.8140 C   0  0  0  0  0  0  0  0  0  0  0  0
  188.1360  175.6350  135.6750 C   0  0  1  0  0  3  0  0  0  0  0  0
  188.8130  178.0910  135.9330 C   0  0  0  0  0  2  0  0  0  0  0  0
  188.7940  176.8610  135.0080 C   0  0  0  0  0  2  0  0  0  0  0  0
  179.8080  178.9940  137.8590 C   0  0  0  0  0  3  0  0  0  0  0  0
  181.3960  177.6300  139.7200 C   0  0  0  0  0  3  0  0  0  0  0  0
  179.3310  178.7600  139.1510 C   0  0  0  0  0  3  0  0  0  0  0  0
  181.8920  177.8770  138.4320 C   0  0  0  0  0  0  0  0  0  0  0  0
  180.1240  178.0740  140.0810 C   0  0  0  0  0  3  0  0  0  0  0  0
  181.5210  178.7690  136.1910 O   0  0  0  0  0  1  0  0  0  0  0  0
  181.0820  178.5520  137.4920 C   0  0  0  0  0  0  0  0  0  0  0  0
  184.7970  179.1700  139.0090 C   0  0  1  0  0  3  0  0  0  0  0  0
  184.0300  180.3350  139.0820 O   0  0  0  0  0  1  0  0  0  0  0  0
  184.6290  178.3560  140.2800 C   0  0  0  0  0  2  0  0  0  0  0  0
  184.6820  179.2220  141.4480 N   0  0  0  0  0  2  0  0  0  0  0  0
  183.6860  178.7390  142.3930 C   0  0  0  0  0  2  0  0  0  0  0  0
  183.5660  178.7490  144.7700 O   0  0  0  0  0  0  0  0  0  0  0  0
  185.6770  178.2980  143.8750 N   0  0  0  0  0  2  0  0  0  0  0  0
  184.2870  178.5970  143.7470 C   0  0  0  0  0  0  0  0  0  0  0  0
  188.2020  177.9590  145.1950 C   0  0  0  0  0  1  0  0  0  0  0  0
  185.9030  176.9120  146.1130 O   0  0  0  0  0  0  0  0  0  0  0  0
  186.4470  178.1220  145.4130 S   0  0  0  0  0  0  0  0  0  0  0  0
  186.1690  179.3400  146.2450 O   0  0  0  0  0  0  0  0  0  0  0  0
  185.7060  173.7930  136.6110 C   0  0  0  0  0  3  0  0  0  0  0  0
  185.5250  172.8920  137.5640 C   0  0  0  0  0  2  0  0  0  0  0  0
  189.1110  174.8940  136.5850 C   0  0  0  0  0  2  0  0  0  0  0  0
  190.2060  175.8190  137.1040 C   0  0  0  0  0  2  0  0  0  0  0  0
  190.8400  177.7790  139.3160 O   0  0  0  0  0  0  0  0  0  0  0  0
  191.4130  176.5240  139.0710 C   0  0  1  0  0  3  0  0  0  0  0  0
  190.4010  175.6090  138.5390 N   0  0  0  0  0  0  0  0  0  0  0  0
  189.1960  176.0930  139.1760 C   0  0  0  0  0  2  0  0  0  0  0  0
  189.5070  177.5010  139.6500 C   0  0  1  0  0  3  0  0  0  0  0  0
  192.6710  176.6400  138.2170 C   0  0  0  0  0  1  0  0  0  0  0  0
  188.5810  178.6210  141.5340 O   0  0  0  0  0  0  0  0  0  0  0  0
  189.3030  177.6710  141.1260 C   0  0  0  0  0  0  0  0  0  0  0  0
  189.9660  176.8390  142.0340 O   0  0  0  0  0  0  0  0  0  0  0  0
  191.0790  177.2910  142.7970 C   0  0  0  0  0  2  0  0  0  0  0  0
  191.6950  176.7840  145.1910 C   0  0  0  0  0  0  0  0  0  0  0  0
  191.8250  178.0090  145.4530 O   0  0  0  0  0  0  0  0  0  0  0  0
  191.8580  175.7830  146.2740 C   0  0  0  0  0  1  0  0  0  0  0  0
  191.3550  176.3480  143.8740 N   0  0  0  0  0  2  0  0  0  0  0  0
  1  4  1  0  0  0  0
  1  6  2  0  0  0  0
  2  6  1  0  0  0  0
  2 21  1  1  0  0  0
  3  5  2  0  0  0  0
  5  1  1  0  0  0  0
  6 17  1  0  0  0  0
  7 10  1  0  0  0  0
  8 10  2  0  0  0  0
  8  3  1  0  0  0  0
  9  5  1  0  0  0  0
  9  2  1  0  0  0  0
 10  9  1  0  0  0  0
 11  8  1  0  0  0  0
 11 35  1  1  0  0  0
 12  7  1  0  0  0  0
 13 11  1  0  0  0  0
 13 12  1  0  0  0  0
 14 16  1  0  0  0  0
 15 18  1  0  0  0  0
 16 18  2  0  0  0  0
 17 15  2  0  0  0  0
 19 20  1  0  0  0  0
 20 14  2  0  0  0  0
 20 17  1  0  0  0  0
 21 22  1  1  0  0  0
 21 23  1  0  0  0  0
 23 24  1  0  0  0  0
 24 25  1  0  0  0  0
 25 28  1  0  0  0  0
 27 31  1  0  0  0  0
 28 27  1  0  0  0  0
 28 26  2  0  0  0  0
 29 31  1  0  0  0  0
 31 30  2  0  0  0  0
 31 32  2  0  0  0  0
 33  3  1  0  0  0  0
 33 34  2  0  0  0  0
 35 36  1  0  0  0  0
 36 39  1  0  0  0  0
 37 41  1  0  0  0  0
 38 42  1  6  0  0  0
 38 37  1  0  0  0  0
 39 38  1  0  0  0  0
 39 40  1  0  0  0  0
 40 41  1  0  0  0  0
 41 44  1  1  0  0  0
 44 43  2  0  0  0  0
 44 45  1  0  0  0  0
 45 46  1  0  0  0  0
 46 50  1  0  0  0  0
 47 48  2  0  0  0  0
 47 49  1  0  0  0  0
 50 47  1  0  0  0  0
M  END
>  <MODEL>
3

>  <REMARK>
 VINA RESULT:      -7.0      3.061      6.804
  Name = 
  15 active torsions:
  status: ('A' for Active; 'I' for Inactive)
    1  A    between atoms: C_2  and  C_5
    2  A    between atoms: C_2  and  C_27
    3  A    between atoms: C_9  and  C_11
    4  A    between atoms: C_12  and  C_31
    5  A    between atoms: C_12  and  C_46
    6  A    between atoms: C_18  and  C_25
    7  A    between atoms: N_24  and  S_30
    8  A    between atoms: C_26  and  N_41
    9  A    between atoms: C_26  and  C_43
   10  A    between atoms: C_27  and  N_41
   11  A    between atoms: N_29  and  C_31
   12  A    between atoms: C_32  and  N_38
   13  A    between atoms: C_32  and  O_39
   14  A    between atoms: C_35  and  C_37
   15  A    between atoms: C_35  and  O_39
                            x       y       z     vdW  Elec       q    Type
                         _______ _______ _______ _____ _____    ______ ____

>  <TORSDO>
F 15

$$$$
=
 OpenBabel10222419093D

 50 54  0  0  1  0  0  0  0  0999 V2000
  185.5330  178.4760  139.9480 C   0  0  0  0  0  0  0  0  0  0  0  0
  186.4490  177.8690  137.8680 C   0  0  2  0  0  3  0  0  0  0  0  0
  187.8530  177.9880  141.1100 C   0  0  0  0  0  0  0  0  0  0  0  0
  184.6380  178.7880  140.9650 O   0  0  0  0  0  1  0  0  0  0  0  0
  186.9540  178.2470  140.0800 C   0  0  0  0  0  0  0  0  0  0  0  0
  185.2160  178.2810  138.6590 C   0  0  0  0  0  0  0  0  0  0  0  0
  189.5560  176.7240  138.1060 C   0  0  0  0  0  2  0  0  0  0  0  0
  188.9790  177.4780  140.4620 C   0  0  0  0  0  0  0  0  0  0  0  0
  187.4710  177.9340  138.9030 N   0  0  0  0  0  0  0  0  0  0  0  0
  188.7050  177.4450  139.1020 C   0  0  0  0  0  0  0  0  0  0  0  0
  190.2540  176.9670  141.0640 C   0  0  1  0  0  3  0  0  0  0  0  0
  190.9930  176.6390  138.6340 C   0  0  0  0  0  2  0  0  0  0  0  0
  191.0220  176.0750  140.0660 C   0  0  0  0  0  2  0  0  0  0  0  0
  181.7560  179.5160  137.7200 C   0  0  0  0  0  3  0  0  0  0  0  0
  183.3330  177.2160  137.4520 C   0  0  0  0  0  3  0  0  0  0  0  0
  181.2430  178.3840  137.0820 C   0  0  0  0  0  3  0  0  0  0  0  0
  183.8500  178.3400  138.1120 C   0  0  0  0  0  0  0  0  0  0  0  0
  182.0340  177.2340  136.9440 C   0  0  0  0  0  3  0  0  0  0  0  0
  183.5550  180.6530  138.8340 O   0  0  0  0  0  1  0  0  0  0  0  0
  183.0570  179.5020  138.2320 C   0  0  0  0  0  0  0  0  0  0  0  0
  186.7270  178.8670  136.7380 C   0  0  1  0  0  3  0  0  0  0  0  0
  187.7870  179.7170  137.0630 O   0  0  0  0  0  1  0  0  0  0  0  0
  187.0270  178.1360  135.4410 C   0  0  0  0  0  2  0  0  0  0  0  0
  186.1260  177.0050  135.2750 N   0  0  0  0  0  2  0  0  0  0  0  0
  186.9310  175.8640  134.8660 C   0  0  0  0  0  2  0  0  0  0  0  0
  187.2990  173.7310  135.8540 O   0  0  0  0  0  0  0  0  0  0  0  0
  185.0850  174.4800  135.8790 N   0  0  0  0  0  2  0  0  0  0  0  0
  186.4680  174.6320  135.5590 C   0  0  0  0  0  0  0  0  0  0  0  0
  182.7230  173.2460  136.9450 C   0  0  0  0  0  1  0  0  0  0  0  0
  185.1730  172.9000  137.9950 O   0  0  0  0  0  0  0  0  0  0  0  0
  184.4710  173.0760  136.6810 S   0  0  0  0  0  0  0  0  0  0  0  0
  184.7210  171.8700  135.8230 O   0  0  0  0  0  0  0  0  0  0  0  0
  187.6730  178.0860  142.5680 C   0  0  0  0  0  3  0  0  0  0  0  0
  187.0540  177.1590  143.2820 C   0  0  0  0  0  2  0  0  0  0  0  0
  191.1020  178.1400  141.5440 C   0  0  0  0  0  2  0  0  0  0  0  0
  191.5660  177.9430  142.9830 C   0  0  0  0  0  2  0  0  0  0  0  0
  191.6800  176.5720  145.6750 O   0  0  0  0  0  0  0  0  0  0  0  0
  191.0620  176.1320  144.4960 C   0  0  1  0  0  3  0  0  0  0  0  0
  190.5210  177.2770  143.7600 N   0  0  0  0  0  0  0  0  0  0  0  0
  190.1840  178.1890  144.8320 C   0  0  0  0  0  2  0  0  0  0  0  0
  190.9610  177.7180  146.0460 C   0  0  1  0  0  3  0  0  0  0  0  0
  191.9870  175.2360  143.6800 C   0  0  0  0  0  1  0  0  0  0  0  0
  190.2320  176.3150  147.8240 O   0  0  0  0  0  0  0  0  0  0  0  0
  190.0740  177.4070  147.2140 C   0  0  0  0  0  0  0  0  0  0  0  0
  189.0390  178.2780  147.5710 O   0  0  0  0  0  0  0  0  0  0  0  0
  187.7780  177.8030  148.0270 C   0  0  0  0  0  2  0  0  0  0  0  0
  185.8660  178.8690  146.7710 C   0  0  0  0  0  0  0  0  0  0  0  0
  185.7860  179.8000  147.6160 O   0  0  0  0  0  0  0  0  0  0  0  0
  184.9890  178.8880  145.5750 C   0  0  0  0  0  1  0  0  0  0  0  0
  186.8180  177.8160  146.9300 N   0  0  0  0  0  2  0  0  0  0  0  0
  1  5  1  0  0  0  0
  1  4  1  0  0  0  0
  2 21  1  6  0  0  0
  2  6  1  0  0  0  0
  2  9  1  0  0  0  0
  3 33  1  0  0  0  0
  5  3  2  0  0  0  0
  6  1  2  0  0  0  0
  7 12  1  0  0  0  0
  7 10  1  0  0  0  0
  8 11  1  0  0  0  0
  8  3  1  0  0  0  0
  9 10  1  0  0  0  0
  9  5  1  0  0  0  0
 10  8  2  0  0  0  0
 11 35  1  6  0  0  0
 12 13  1  0  0  0  0
 13 11  1  0  0  0  0
 14 20  1  0  0  0  0
 15 17  1  0  0  0  0
 16 14  2  0  0  0  0
 17 20  2  0  0  0  0
 17  6  1  0  0  0  0
 18 16  1  0  0  0  0
 18 15  2  0  0  0  0
 20 19  1  0  0  0  0
 21 22  1  1  0  0  0
 23 21  1  0  0  0  0
 24 23  1  0  0  0  0
 25 24  1  0  0  0  0
 25 28  1  0  0  0  0
 27 31  1  0  0  0  0
 28 26  2  0  0  0  0
 28 27  1  0  0  0  0
 31 29  1  0  0  0  0
 31 30  2  0  0  0  0
 32 31  2  0  0  0  0
 33 34  2  0  0  0  0
 35 36  1  0  0  0  0
 36 39  1  0  0  0  0
 37 41  1  0  0  0  0
 38 42  1  6  0  0  0
 38 37  1  0  0  0  0
 39 38  1  0  0  0  0
 39 40  1  0  0  0  0
 40 41  1  0  0  0  0
 41 44  1  1  0  0  0
 44 45  1  0  0  0  0
 44 43  2  0  0  0  0
 45 46  1  0  0  0  0
 47 50  1  0  0  0  0
 47 48  2  0  0  0  0
 49 47  1  0  0  0  0
 50 46  1  0  0  0  0
M  END
>  <MODEL>
4

>  <REMARK>
 VINA RESULT:      -7.0      2.356      5.260
  Name = 
  15 active torsions:
  status: ('A' for Active; 'I' for Inactive)
    1  A    between atoms: C_2  and  C_5
    2  A    between atoms: C_2  and  C_27
    3  A    between atoms: C_9  and  C_11
    4  A    between atoms: C_12  and  C_31
    5  A    between atoms: C_12  and  C_46
    6  A    between atoms: C_18  and  C_25
    7  A    between atoms: N_24  and  S_30
    8  A    between atoms: C_26  and  N_41
    9  A    between atoms: C_26  and  C_43
   10  A    between atoms: C_27  and  N_41
   11  A    between atoms: N_29  and  C_31
   12  A    between atoms: C_32  and  N_38
   13  A    between atoms: C_32  and  O_39
   14  A    between atoms: C_35  and  C_37
   15  A    between atoms: C_35  and  O_39
                            x       y       z     vdW  Elec       q    Type
                         _______ _______ _______ _____ _____    ______ ____

>  <TORSDO>
F 15

$$$$
=
 OpenBabel10222419093D

 50 54  0  0  1  0  0  0  0  0999 V2000
  187.9820  177.2140  146.3040 C   0  0  0  0  0  0  0  0  0  0  0  0
  189.3570  177.3250  144.3980 C   0  0  2  0  0  3  0  0  0  0  0  0
  185.9150  177.9900  144.8550 C   0  0  0  0  0  0  0  0  0  0  0  0
  187.5390  177.1390  147.6190 O   0  0  0  0  0  1  0  0  0  0  0  0
  187.1820  177.4850  145.1300 C   0  0  0  0  0  0  0  0  0  0  0  0
  189.2560  177.0960  145.8990 C   0  0  0  0  0  0  0  0  0  0  0  0
  187.7840  178.5320  141.7350 C   0  0  0  0  0  2  0  0  0  0  0  0
  185.9740  178.3470  143.5070 C   0  0  0  0  0  0  0  0  0  0  0  0
  187.9540  177.5180  144.0560 N   0  0  0  0  0  0  0  0  0  0  0  0
  187.2500  178.0550  143.0480 C   0  0  0  0  0  0  0  0  0  0  0  0
  184.9190  179.0010  142.6660 C   0  0  1  0  0  3  0  0  0  0  0  0
  186.6180  178.7560  140.7660 C   0  0  0  0  0  2  0  0  0  0  0  0
  185.5320  179.6420  141.4030 C   0  0  0  0  0  2  0  0  0  0  0  0
  191.6990  177.4680  148.7750 C   0  0  0  0  0  3  0  0  0  0  0  0
  191.3400  175.8930  146.4860 C   0  0  0  0  0  3  0  0  0  0  0  0
  192.6340  176.4830  148.4470 C   0  0  0  0  0  3  0  0  0  0  0  0
  190.4060  176.8930  146.7960 C   0  0  0  0  0  0  0  0  0  0  0  0
  192.4520  175.6920  147.3040 C   0  0  0  0  0  3  0  0  0  0  0  0
  189.6510  178.6390  148.3240 O   0  0  0  0  0  1  0  0  0  0  0  0
  190.5830  177.6740  147.9590 C   0  0  0  0  0  0  0  0  0  0  0  0
  189.9420  176.0920  143.6990 C   0  0  1  0  0  3  0  0  0  0  0  0
  188.9450  175.3480  143.0650 O   0  0  0  0  0  1  0  0  0  0  0  0
  191.0030  176.5020  142.6920 C   0  0  0  0  0  2  0  0  0  0  0  0
  190.6220  176.0820  141.3530 N   0  0  0  0  0  2  0  0  0  0  0  0
  191.0210  177.1380  140.4350 C   0  0  0  0  0  2  0  0  0  0  0  0
  190.4610  175.9460  138.4520 O   0  0  0  0  0  0  0  0  0  0  0  0
  189.4520  178.0410  138.6820 N   0  0  0  0  0  2  0  0  0  0  0  0
  190.3050  176.9920  139.1390 C   0  0  0  0  0  0  0  0  0  0  0  0
  189.6110  177.1890  135.9460 C   0  0  0  0  0  1  0  0  0  0  0  0
  188.1900  179.3250  136.7480 O   0  0  0  0  0  0  0  0  0  0  0  0
  188.5900  177.9470  137.1860 S   0  0  0  0  0  0  0  0  0  0  0  0
  187.3560  177.1140  137.3800 O   0  0  0  0  0  0  0  0  0  0  0  0
  184.7800  178.2360  145.7590 C   0  0  0  0  0  3  0  0  0  0  0  0
  184.9250  178.7110  146.9870 C   0  0  0  0  0  2  0  0  0  0  0  0
  183.8370  177.9840  142.3160 C   0  0  0  0  0  2  0  0  0  0  0  0
  182.5900  178.6620  141.7590 C   0  0  0  0  0  2  0  0  0  0  0  0
  182.6900  178.8900  138.7460 O   0  0  0  0  0  0  0  0  0  0  0  0
  181.5820  178.6370  139.5670 C   0  0  1  0  0  3  0  0  0  0  0  0
  181.9890  177.8290  140.7180 N   0  0  0  0  0  0  0  0  0  0  0  0
  183.0730  177.0450  140.1650 C   0  0  0  0  0  2  0  0  0  0  0  0
  183.5130  177.7670  138.9050 C   0  0  1  0  0  3  0  0  0  0  0  0
  180.8460  179.9220  139.9270 C   0  0  0  0  0  1  0  0  0  0  0  0
  183.3060  177.4460  136.5570 O   0  0  0  0  0  0  0  0  0  0  0  0
  183.4330  176.8980  137.6850 C   0  0  0  0  0  0  0  0  0  0  0  0
  183.4190  175.5040  137.8050 O   0  0  0  0  0  0  0  0  0  0  0  0
  183.7260  174.6500  136.7100 C   0  0  0  0  0  2  0  0  0  0  0  0
  185.9290  173.5220  137.2080 C   0  0  0  0  0  0  0  0  0  0  0  0
  185.3720  172.7070  137.9910 O   0  0  0  0  0  0  0  0  0  0  0  0
  187.3790  173.3940  136.9280 C   0  0  0  0  0  1  0  0  0  0  0  0
  185.1720  174.5440  136.5560 N   0  0  0  0  0  2  0  0  0  0  0  0
  1  4  1  0  0  0  0
  2 21  1  6  0  0  0
  2  6  1  0  0  0  0
  3  5  2  0  0  0  0
  3 33  1  0  0  0  0
  5  1  1  0  0  0  0
  6  1  2  0  0  0  0
  6 17  1  0  0  0  0
  7 10  1  0  0  0  0
  8  3  1  0  0  0  0
  9  2  1  0  0  0  0
  9  5  1  0  0  0  0
 10  8  2  0  0  0  0
 10  9  1  0  0  0  0
 11 35  1  6  0  0  0
 11  8  1  0  0  0  0
 12 13  1  0  0  0  0
 12  7  1  0  0  0  0
 13 11  1  0  0  0  0
 15 17  2  0  0  0  0
 15 18  1  0  0  0  0
 16 14  1  0  0  0  0
 17 20  1  0  0  0  0
 18 16  2  0  0  0  0
 20 19  1  0  0  0  0
 20 14  2  0  0  0  0
 21 22  1  6  0  0  0
 23 21  1  0  0  0  0
 24 23  1  0  0  0  0
 25 24  1  0  0  0  0
 26 28  2  0  0  0  0
 27 28  1  0  0  0  0
 28 25  1  0  0  0  0
 29 31  1  0  0  0  0
 30 31  2  0  0  0  0
 31 32  2  0  0  0  0
 31 27  1  0  0  0  0
 33 34  2  0  0  0  0
 36 35  1  0  0  0  0
 37 41  1  0  0  0  0
 37 38  1  0  0  0  0
 38 42  1  1  0  0  0
 38 39  1  0  0  0  0
 39 36  1  0  0  0  0
 40 39  1  0  0  0  0
 41 44  1  6  0  0  0
 41 40  1  0  0  0  0
 43 44  2  0  0  0  0
 44 45  1  0  0  0  0
 46 45  1  0  0  0  0
 47 48  2  0  0  0  0
 49 47  1  0  0  0  0
 50 46  1  0  0  0  0
 50 47  1  0  0  0  0
M  END
>  <MODEL>
5

>  <REMARK>
 VINA RESULT:      -7.0      2.221      9.322
  Name = 
  15 active torsions:
  status: ('A' for Active; 'I' for Inactive)
    1  A    between atoms: C_2  and  C_5
    2  A    between atoms: C_2  and  C_27
    3  A    between atoms: C_9  and  C_11
    4  A    between atoms: C_12  and  C_31
    5  A    between atoms: C_12  and  C_46
    6  A    between atoms: C_18  and  C_25
    7  A    between atoms: N_24  and  S_30
    8  A    between atoms: C_26  and  N_41
    9  A    between atoms: C_26  and  C_43
   10  A    between atoms: C_27  and  N_41
   11  A    between atoms: N_29  and  C_31
   12  A    between atoms: C_32  and  N_38
   13  A    between atoms: C_32  and  O_39
   14  A    between atoms: C_35  and  C_37
   15  A    between atoms: C_35  and  O_39
                            x       y       z     vdW  Elec       q    Type
                         _______ _______ _______ _____ _____    ______ ____

>  <TORSDO>
F 15

$$$$
=
 OpenBabel10222419093D

 50 54  0  0  1  0  0  0  0  0999 V2000
  192.2110  176.4870  137.8260 C   0  0  0  0  0  0  0  0  0  0  0  0
  191.5360  175.9590  135.6340 C   0  0  2  0  0  3  0  0  0  0  0  0
  189.8250  177.5070  138.3130 C   0  0  0  0  0  0  0  0  0  0  0  0
  192.9840  176.7300  138.9550 O   0  0  0  0  0  1  0  0  0  0  0  0
  190.8010  176.7580  137.6630 C   0  0  0  0  0  0  0  0  0  0  0  0
  192.6610  176.0000  136.6590 C   0  0  0  0  0  0  0  0  0  0  0  0
  188.4970  177.0810  134.9110 C   0  0  0  0  0  2  0  0  0  0  0  0
  188.7990  177.6230  137.3740 C   0  0  0  0  0  0  0  0  0  0  0  0
  190.4180  176.4320  136.4390 N   0  0  0  0  0  0  0  0  0  0  0  0
  189.2030  176.9610  136.2230 C   0  0  0  0  0  0  0  0  0  0  0  0
  187.5060  178.3740  137.4880 C   0  0  1  0  0  3  0  0  0  0  0  0
  187.0240  177.4280  135.1580 C   0  0  0  0  0  2  0  0  0  0  0  0
  186.8930  178.6400  136.0970 C   0  0  0  0  0  2  0  0  0  0  0  0
  196.0510  174.3030  136.7300 C   0  0  0  0  0  3  0  0  0  0  0  0
  194.7770  176.4450  135.4500 C   0  0  0  0  0  3  0  0  0  0  0  0
  196.7550  175.0980  135.8210 C   0  0  0  0  0  3  0  0  0  0  0  0
  194.0670  175.6660  136.3750 C   0  0  0  0  0  0  0  0  0  0  0  0
  196.1160  176.1670  135.1780 C   0  0  0  0  0  3  0  0  0  0  0  0
  194.0220  173.7530  137.8900 O   0  0  0  0  0  1  0  0  0  0  0  0
  194.7090  174.5780  137.0060 C   0  0  0  0  0  0  0  0  0  0  0  0
  191.3070  174.5270  135.1380 C   0  0  1  0  0  3  0  0  0  0  0  0
  192.4740  173.9870  134.5940 O   0  0  0  0  0  1  0  0  0  0  0  0
  190.8030  173.6440  136.2670 C   0  0  0  0  0  2  0  0  0  0  0  0
  189.4790  173.1280  135.9550 N   0  0  0  0  0  2  0  0  0  0  0  0
  188.5960  173.5070  137.0470 C   0  0  0  0  0  2  0  0  0  0  0  0
  186.8940  172.4100  135.7960 O   0  0  0  0  0  0  0  0  0  0  0  0
  186.1470  174.0520  137.2820 N   0  0  0  0  0  2  0  0  0  0  0  0
  187.1760  173.2790  136.6650 C   0  0  0  0  0  0  0  0  0  0  0  0
  183.4730  174.8380  137.9690 C   0  0  0  0  0  1  0  0  0  0  0  0
  184.0990  172.4020  137.0230 O   0  0  0  0  0  0  0  0  0  0  0  0
  184.4750  173.8480  136.8870 S   0  0  0  0  0  0  0  0  0  0  0  0
  184.2460  174.2860  135.4700 O   0  0  0  0  0  0  0  0  0  0  0  0
  189.8590  178.1610  139.6310 C   0  0  0  0  0  3  0  0  0  0  0  0
  189.1370  177.7450  140.6610 C   0  0  0  0  0  2  0  0  0  0  0  0
  186.5460  177.6100  138.3940 C   0  0  0  0  0  2  0  0  0  0  0  0
  185.1420  178.2020  138.3470 C   0  0  0  0  0  2  0  0  0  0  0  0
  183.1060  178.5060  140.5610 O   0  0  0  0  0  0  0  0  0  0  0  0
  183.5860  179.4810  139.6760 C   0  0  1  0  0  3  0  0  0  0  0  0
  184.9970  179.2310  139.3770 N   0  0  0  0  0  0  0  0  0  0  0  0
  185.4610  178.6270  140.6070 C   0  0  0  0  0  2  0  0  0  0  0  0
  184.2180  178.1530  141.3380 C   0  0  1  0  0  3  0  0  0  0  0  0
  182.6930  179.6100  138.4470 C   0  0  0  0  0  1  0  0  0  0  0  0
  182.9610  179.1420  143.0990 O   0  0  0  0  0  0  0  0  0  0  0  0
  184.0940  178.7490  142.7090 C   0  0  0  0  0  0  0  0  0  0  0  0
  185.2270  178.9370  143.5070 O   0  0  0  0  0  0  0  0  0  0  0  0
  185.8300  177.8670  144.2250 C   0  0  0  0  0  2  0  0  0  0  0  0
  188.3190  177.4690  144.3630 C   0  0  0  0  0  0  0  0  0  0  0  0
  188.2110  176.3720  143.7530 O   0  0  0  0  0  0  0  0  0  0  0  0
  189.6630  177.9690  144.7380 C   0  0  0  0  0  1  0  0  0  0  0  0
  187.1650  178.2560  144.6630 N   0  0  0  0  0  2  0  0  0  0  0  0
  1  4  1  0  0  0  0
  2 21  1  1  0  0  0
  2  9  1  0  0  0  0
  2  6  1  0  0  0  0
  3 33  1  0  0  0  0
  5  1  1  0  0  0  0
  5  3  2  0  0  0  0
  6  1  2  0  0  0  0
  7 12  1  0  0  0  0
  7 10  1  0  0  0  0
  8 11  1  0  0  0  0
  8  3  1  0  0  0  0
  9  5  1  0  0  0  0
 10  9  1  0  0  0  0
 10  8  2  0  0  0  0
 11 35  1  1  0  0  0
 12 13  1  0  0  0  0
 13 11  1  0  0  0  0
 14 20  1  0  0  0  0
 15 17  1  0  0  0  0
 16 14  2  0  0  0  0
 17  6  1  0  0  0  0
 17 20  2  0  0  0  0
 18 15  2  0  0  0  0
 18 16  1  0  0  0  0
 20 19  1  0  0  0  0
 21 22  1  1  0  0  0
 21 23  1  0  0  0  0
 24 23  1  0  0  0  0
 24 25  1  0  0  0  0
 26 28  2  0  0  0  0
 28 25  1  0  0  0  0
 28 27  1  0  0  0  0
 31 30  2  0  0  0  0
 31 27  1  0  0  0  0
 31 29  1  0  0  0  0
 32 31  2  0  0  0  0
 33 34  2  0  0  0  0
 36 35  1  0  0  0  0
 36 39  1  0  0  0  0
 37 41  1  0  0  0  0
 38 42  1  6  0  0  0
 38 37  1  0  0  0  0
 39 38  1  0  0  0  0
 39 40  1  0  0  0  0
 40 41  1  0  0  0  0
 41 44  1  1  0  0  0
 44 43  2  0  0  0  0
 44 45  1  0  0  0  0
 45 46  1  0  0  0  0
 46 50  1  0  0  0  0
 47 50  1  0  0  0  0
 47 49  1  0  0  0  0
 48 47  2  0  0  0  0
M  END
>  <MODEL>
6

>  <REMARK>
 VINA RESULT:      -6.9      3.884      9.196
  Name = 
  15 active torsions:
  status: ('A' for Active; 'I' for Inactive)
    1  A    between atoms: C_2  and  C_5
    2  A    between atoms: C_2  and  C_27
    3  A    between atoms: C_9  and  C_11
    4  A    between atoms: C_12  and  C_31
    5  A    between atoms: C_12  and  C_46
    6  A    between atoms: C_18  and  C_25
    7  A    between atoms: N_24  and  S_30
    8  A    between atoms: C_26  and  N_41
    9  A    between atoms: C_26  and  C_43
   10  A    between atoms: C_27  and  N_41
   11  A    between atoms: N_29  and  C_31
   12  A    between atoms: C_32  and  N_38
   13  A    between atoms: C_32  and  O_39
   14  A    between atoms: C_35  and  C_37
   15  A    between atoms: C_35  and  O_39
                            x       y       z     vdW  Elec       q    Type
                         _______ _______ _______ _____ _____    ______ ____

>  <TORSDO>
F 15

$$$$
=
 OpenBabel10222419093D

 50 54  0  0  1  0  0  0  0  0999 V2000
  186.2300  177.8420  145.5100 C   0  0  0  0  0  0  0  0  0  0  0  0
  188.0340  177.8760  144.0000 C   0  0  2  0  0  3  0  0  0  0  0  0
  184.5500  178.2210  143.5080 C   0  0  0  0  0  0  0  0  0  0  0  0
  185.4720  177.8750  146.6750 O   0  0  0  0  0  1  0  0  0  0  0  0
  185.7380  177.8880  144.1520 C   0  0  0  0  0  0  0  0  0  0  0  0
  187.5700  177.8140  145.4490 C   0  0  0  0  0  0  0  0  0  0  0  0
  187.1090  178.5910  140.8930 C   0  0  0  0  0  2  0  0  0  0  0  0
  184.9240  178.4220  142.1790 C   0  0  0  0  0  0  0  0  0  0  0  0
  186.7550  177.8780  143.3040 N   0  0  0  0  0  0  0  0  0  0  0  0
  186.2940  178.2160  142.0900 C   0  0  0  0  0  0  0  0  0  0  0  0
  184.0740  178.8580  141.0230 C   0  0  1  0  0  3  0  0  0  0  0  0
  186.2160  178.5750  139.6470 C   0  0  0  0  0  2  0  0  0  0  0  0
  184.9410  179.4090  139.8710 C   0  0  0  0  0  2  0  0  0  0  0  0
  189.0490  178.6340  148.8420 C   0  0  0  0  0  3  0  0  0  0  0  0
  189.6350  177.0680  146.5950 C   0  0  0  0  0  3  0  0  0  0  0  0
  190.2230  177.8770  148.8000 C   0  0  0  0  0  3  0  0  0  0  0  0
  188.4650  177.8400  146.6180 C   0  0  0  0  0  0  0  0  0  0  0  0
  190.5140  177.0900  147.6780 C   0  0  0  0  0  3  0  0  0  0  0  0
  186.9890  179.3530  147.8390 O   0  0  0  0  0  1  0  0  0  0  0  0
  188.1660  178.6160  147.7590 C   0  0  0  0  0  0  0  0  0  0  0  0
  188.8670  176.6400  143.6440 C   0  0  1  0  0  3  0  0  0  0  0  0
  188.1420  175.7540  142.8440 O   0  0  0  0  0  1  0  0  0  0  0  0
  190.1510  177.0450  142.9400 C   0  0  0  0  0  2  0  0  0  0  0  0
  190.3140  176.2890  141.7070 N   0  0  0  0  0  2  0  0  0  0  0  0
  190.7860  177.2150  140.6890 C   0  0  0  0  0  2  0  0  0  0  0  0
  190.5700  175.6350  138.9220 O   0  0  0  0  0  0  0  0  0  0  0  0
  189.5520  177.7050  138.5470 N   0  0  0  0  0  2  0  0  0  0  0  0
  190.3050  176.7920  139.3460 C   0  0  0  0  0  0  0  0  0  0  0  0
  187.8130  175.9400  137.0980 C   0  0  0  0  0  1  0  0  0  0  0  0
  190.1120  176.9020  136.0920 O   0  0  0  0  0  0  0  0  0  0  0  0
  188.9630  177.2880  136.9750 S   0  0  0  0  0  0  0  0  0  0  0  0
  188.2620  178.4760  136.3810 O   0  0  0  0  0  0  0  0  0  0  0  0
  183.2070  178.4480  144.0650 C   0  0  0  0  0  3  0  0  0  0  0  0
  182.7350  179.6540  144.3410 C   0  0  0  0  0  2  0  0  0  0  0  0
  183.1950  177.6980  140.5660 C   0  0  0  0  0  2  0  0  0  0  0  0
  181.7590  178.1470  140.3210 C   0  0  0  0  0  2  0  0  0  0  0  0
  180.1090  176.7360  138.2170 O   0  0  0  0  0  0  0  0  0  0  0  0
  179.7240  177.1410  139.5030 C   0  0  1  0  0  3  0  0  0  0  0  0
  180.8520  177.0040  140.4270 N   0  0  0  0  0  0  0  0  0  0  0  0
  181.5660  175.8800  139.8630 C   0  0  0  0  0  2  0  0  0  0  0  0
  181.0780  175.7450  138.4320 C   0  0  1  0  0  3  0  0  0  0  0  0
  179.0850  178.5250  139.4870 C   0  0  0  0  0  1  0  0  0  0  0  0
  179.6450  173.9160  138.9440 O   0  0  0  0  0  0  0  0  0  0  0  0
  180.4970  174.3920  138.1460 C   0  0  0  0  0  0  0  0  0  0  0  0
  180.9520  173.6400  137.0580 O   0  0  0  0  0  0  0  0  0  0  0  0
  182.0280  174.0770  136.2370 C   0  0  0  0  0  2  0  0  0  0  0  0
  184.2960  173.6300  137.2500 C   0  0  0  0  0  0  0  0  0  0  0  0
  184.3310  174.7810  137.7620 O   0  0  0  0  0  0  0  0  0  0  0  0
  185.3990  172.6760  137.5190 C   0  0  0  0  0  1  0  0  0  0  0  0
  183.1890  173.2200  136.4460 N   0  0  0  0  0  2  0  0  0  0  0  0
  1  4  1  0  0  0  0
  2 21  1  6  0  0  0
  2  6  1  0  0  0  0
  3 33  1  0  0  0  0
  3  5  2  0  0  0  0
  5  1  1  0  0  0  0
  6  1  2  0  0  0  0
  6 17  1  0  0  0  0
  7 10  1  0  0  0  0
  8  3  1  0  0  0  0
  9  2  1  0  0  0  0
  9  5  1  0  0  0  0
 10  8  2  0  0  0  0
 10  9  1  0  0  0  0
 11 35  1  6  0  0  0
 11  8  1  0  0  0  0
 12 13  1  0  0  0  0
 12  7  1  0  0  0  0
 13 11  1  0  0  0  0
 15 17  2  0  0  0  0
 15 18  1  0  0  0  0
 16 14  1  0  0  0  0
 17 20  1  0  0  0  0
 18 16  2  0  0  0  0
 20 19  1  0  0  0  0
 20 14  2  0  0  0  0
 21 22  1  6  0  0  0
 23 21  1  0  0  0  0
 24 23  1  0  0  0  0
 25 24  1  0  0  0  0
 26 28  2  0  0  0  0
 27 28  1  0  0  0  0
 28 25  1  0  0  0  0
 30 31  2  0  0  0  0
 31 29  1  0  0  0  0
 31 27  1  0  0  0  0
 32 31  2  0  0  0  0
 33 34  2  0  0  0  0
 36 39  1  0  0  0  0
 36 35  1  0  0  0  0
 37 41  1  0  0  0  0
 37 38  1  0  0  0  0
 38 42  1  6  0  0  0
 38 39  1  0  0  0  0
 40 39  1  0  0  0  0
 41 44  1  1  0  0  0
 41 40  1  0  0  0  0
 44 43  2  0  0  0  0
 45 44  1  0  0  0  0
 46 50  1  0  0  0  0
 46 45  1  0  0  0  0
 47 49  1  0  0  0  0
 47 48  2  0  0  0  0
 50 47  1  0  0  0  0
M  END
>  <MODEL>
7

>  <REMARK>
 VINA RESULT:      -6.8      2.450      9.336
  Name = 
  15 active torsions:
  status: ('A' for Active; 'I' for Inactive)
    1  A    between atoms: C_2  and  C_5
    2  A    between atoms: C_2  and  C_27
    3  A    between atoms: C_9  and  C_11
    4  A    between atoms: C_12  and  C_31
    5  A    between atoms: C_12  and  C_46
    6  A    between atoms: C_18  and  C_25
    7  A    between atoms: N_24  and  S_30
    8  A    between atoms: C_26  and  N_41
    9  A    between atoms: C_26  and  C_43
   10  A    between atoms: C_27  and  N_41
   11  A    between atoms: N_29  and  C_31
   12  A    between atoms: C_32  and  N_38
   13  A    between atoms: C_32  and  O_39
   14  A    between atoms: C_35  and  C_37
   15  A    between atoms: C_35  and  O_39
                            x       y       z     vdW  Elec       q    Type
                         _______ _______ _______ _____ _____    ______ ____

>  <TORSDO>
F 15

$$$$
=
 OpenBabel10222419093D

 50 54  0  0  1  0  0  0  0  0999 V2000
  183.3770  176.4020  137.6980 C   0  0  0  0  0  0  0  0  0  0  0  0
  184.3290  178.5530  137.6760 C   0  0  2  0  0  3  0  0  0  0  0  0
  185.7060  175.3670  137.0050 C   0  0  0  0  0  0  0  0  0  0  0  0
  182.4650  175.3530  137.7070 O   0  0  0  0  0  1  0  0  0  0  0  0
  184.8040  176.3100  137.4900 C   0  0  0  0  0  0  0  0  0  0  0  0
  183.0760  177.7030  137.8300 C   0  0  0  0  0  0  0  0  0  0  0  0
  187.4730  178.5680  136.6130 C   0  0  0  0  0  2  0  0  0  0  0  0
  186.8540  176.1070  136.7160 C   0  0  0  0  0  0  0  0  0  0  0  0
  185.3410  177.5200  137.5080 N   0  0  0  0  0  0  0  0  0  0  0  0
  186.5900  177.4340  137.0250 C   0  0  0  0  0  0  0  0  0  0  0  0
  188.1420  175.6360  136.1110 C   0  0  1  0  0  3  0  0  0  0  0  0
  188.9080  178.0570  136.4430 C   0  0  0  0  0  2  0  0  0  0  0  0
  188.9490  176.8170  135.5320 C   0  0  0  0  0  2  0  0  0  0  0  0
  179.6700  178.5430  139.2690 C   0  0  0  0  0  3  0  0  0  0  0  0
  181.1460  178.9640  136.9250 C   0  0  0  0  0  3  0  0  0  0  0  0
  179.1070  179.2490  138.2020 C   0  0  0  0  0  3  0  0  0  0  0  0
  181.7120  178.2370  137.9820 C   0  0  0  0  0  0  0  0  0  0  0  0
  179.8470  179.4630  137.0310 C   0  0  0  0  0  3  0  0  0  0  0  0
  181.5180  177.3680  140.2550 O   0  0  0  0  0  1  0  0  0  0  0  0
  180.9700  178.0400  139.1670 C   0  0  0  0  0  0  0  0  0  0  0  0
  184.5780  179.3850  138.9400 C   0  0  1  0  0  3  0  0  0  0  0  0
  183.6090  180.3790  139.0910 O   0  0  0  0  0  1  0  0  0  0  0  0
  184.6030  178.4930  140.1700 C   0  0  0  0  0  2  0  0  0  0  0  0
  185.2890  179.1590  141.2660 N   0  0  0  0  0  2  0  0  0  0  0  0
  186.6380  178.6160  141.3280 C   0  0  0  0  0  2  0  0  0  0  0  0
  187.6190  176.9790  142.7500 O   0  0  0  0  0  0  0  0  0  0  0  0
  186.2800  178.5660  143.8220 N   0  0  0  0  0  2  0  0  0  0  0  0
  186.8840  178.0000  142.6600 C   0  0  0  0  0  0  0  0  0  0  0  0
  185.3050  178.5660  146.5220 C   0  0  0  0  0  1  0  0  0  0  0  0
  187.8960  178.2370  145.8870 O   0  0  0  0  0  0  0  0  0  0  0  0
  186.5160  177.9050  145.4030 S   0  0  0  0  0  0  0  0  0  0  0  0
  186.3610  176.4130  145.3400 O   0  0  0  0  0  0  0  0  0  0  0  0
  185.5130  173.9370  136.7190 C   0  0  0  0  0  3  0  0  0  0  0  0
  185.2480  173.0430  137.6600 C   0  0  0  0  0  2  0  0  0  0  0  0
  188.9440  174.8580  137.1490 C   0  0  0  0  0  2  0  0  0  0  0  0
  190.3910  174.6660  136.7100 C   0  0  0  0  0  2  0  0  0  0  0  0
  192.8500  176.2370  137.4990 O   0  0  0  0  0  0  0  0  0  0  0  0
  192.6510  174.8500  137.5340 C   0  0  1  0  0  3  0  0  0  0  0  0
  191.2600  174.5550  137.8820 N   0  0  0  0  0  0  0  0  0  0  0  0
  190.9200  175.6750  138.7320 C   0  0  0  0  0  2  0  0  0  0  0  0
  191.9540  176.7490  138.4470 C   0  0  1  0  0  3  0  0  0  0  0  0
  193.1380  174.1810  136.2540 C   0  0  0  0  0  1  0  0  0  0  0  0
  193.9280  176.9080  139.7640 O   0  0  0  0  0  0  0  0  0  0  0  0
  192.6980  177.1730  139.6780 C   0  0  0  0  0  0  0  0  0  0  0  0
  192.0240  177.7790  140.7430 O   0  0  0  0  0  0  0  0  0  0  0  0
  190.9810  177.1180  141.4480 C   0  0  0  0  0  2  0  0  0  0  0  0
  191.2790  176.8330  143.9390 C   0  0  0  0  0  0  0  0  0  0  0  0
  191.6340  175.6330  143.7930 O   0  0  0  0  0  0  0  0  0  0  0  0
  191.2880  177.4390  145.2920 C   0  0  0  0  0  1  0  0  0  0  0  0
  190.9050  177.6270  142.8120 N   0  0  0  0  0  2  0  0  0  0  0  0
  1  4  1  0  0  0  0
  1  6  2  0  0  0  0
  2  6  1  0  0  0  0
  2 21  1  1  0  0  0
  3  5  2  0  0  0  0
  5  9  1  0  0  0  0
  5  1  1  0  0  0  0
  6 17  1  0  0  0  0
  7 10  1  0  0  0  0
  8  3  1  0  0  0  0
  8 10  2  0  0  0  0
  9  2  1  0  0  0  0
 10  9  1  0  0  0  0
 11  8  1  0  0  0  0
 11 35  1  1  0  0  0
 12  7  1  0  0  0  0
 13 11  1  0  0  0  0
 13 12  1  0  0  0  0
 15 18  2  0  0  0  0
 15 17  1  0  0  0  0
 16 14  2  0  0  0  0
 17 20  2  0  0  0  0
 18 16  1  0  0  0  0
 20 14  1  0  0  0  0
 20 19  1  0  0  0  0
 21 22  1  1  0  0  0
 21 23  1  0  0  0  0
 23 24  1  0  0  0  0
 24 25  1  0  0  0  0
 25 28  1  0  0  0  0
 27 31  1  0  0  0  0
 28 26  2  0  0  0  0
 28 27  1  0  0  0  0
 31 30  2  0  0  0  0
 31 29  1  0  0  0  0
 32 31  2  0  0  0  0
 33  3  1  0  0  0  0
 33 34  2  0  0  0  0
 36 35  1  0  0  0  0
 36 39  1  0  0  0  0
 37 38  1  0  0  0  0
 37 41  1  0  0  0  0
 38 42  1  6  0  0  0
 38 39  1  0  0  0  0
 39 40  1  0  0  0  0
 41 40  1  0  0  0  0
 41 44  1  1  0  0  0
 44 43  2  0  0  0  0
 44 45  1  0  0  0  0
 45 46  1  0  0  0  0
 46 50  1  0  0  0  0
 47 49  1  0  0  0  0
 48 47  2  0  0  0  0
 50 47  1  0  0  0  0
M  END
>  <MODEL>
8

>  <REMARK>
 VINA RESULT:      -6.8      2.996      7.020
  Name = 
  15 active torsions:
  status: ('A' for Active; 'I' for Inactive)
    1  A    between atoms: C_2  and  C_5
    2  A    between atoms: C_2  and  C_27
    3  A    between atoms: C_9  and  C_11
    4  A    between atoms: C_12  and  C_31
    5  A    between atoms: C_12  and  C_46
    6  A    between atoms: C_18  and  C_25
    7  A    between atoms: N_24  and  S_30
    8  A    between atoms: C_26  and  N_41
    9  A    between atoms: C_26  and  C_43
   10  A    between atoms: C_27  and  N_41
   11  A    between atoms: N_29  and  C_31
   12  A    between atoms: C_32  and  N_38
   13  A    between atoms: C_32  and  O_39
   14  A    between atoms: C_35  and  C_37
   15  A    between atoms: C_35  and  O_39
                            x       y       z     vdW  Elec       q    Type
                         _______ _______ _______ _____ _____    ______ ____

>  <TORSDO>
F 15

$$$$
=
 OpenBabel10222419093D

 50 54  0  0  1  0  0  0  0  0999 V2000
  185.6420  178.3660  140.0660 C   0  0  0  0  0  0  0  0  0  0  0  0
  186.7150  178.0010  138.0030 C   0  0  2  0  0  3  0  0  0  0  0  0
  187.9200  177.9250  141.3260 C   0  0  0  0  0  0  0  0  0  0  0  0
  184.6710  178.5310  141.0470 O   0  0  0  0  0  1  0  0  0  0  0  0
  187.0650  178.2160  140.2670 C   0  0  0  0  0  0  0  0  0  0  0  0
  185.4130  178.2640  138.7470 C   0  0  0  0  0  0  0  0  0  0  0  0
  189.8730  177.0370  138.3400 C   0  0  0  0  0  2  0  0  0  0  0  0
  189.1130  177.5450  140.7100 C   0  0  0  0  0  0  0  0  0  0  0  0
  187.6690  178.0400  139.1030 N   0  0  0  0  0  0  0  0  0  0  0  0
  188.9200  177.6140  139.3370 C   0  0  0  0  0  0  0  0  0  0  0  0
  190.3830  177.0640  141.3460 C   0  0  1  0  0  3  0  0  0  0  0  0
  191.2800  176.9970  138.9480 C   0  0  0  0  0  2  0  0  0  0  0  0
  191.2660  176.3130  140.3270 C   0  0  0  0  0  2  0  0  0  0  0  0
  182.3680  177.2910  136.7090 C   0  0  0  0  0  3  0  0  0  0  0  0
  183.2380  179.3820  138.3570 C   0  0  0  0  0  3  0  0  0  0  0  0
  181.5440  178.3980  136.9330 C   0  0  0  0  0  3  0  0  0  0  0  0
  184.0790  178.2860  138.1230 C   0  0  0  0  0  0  0  0  0  0  0  0
  181.9780  179.4420  137.7600 C   0  0  0  0  0  3  0  0  0  0  0  0
  184.4180  176.1000  137.0910 O   0  0  0  0  0  1  0  0  0  0  0  0
  183.6310  177.2270  137.3030 C   0  0  0  0  0  0  0  0  0  0  0  0
  186.9890  179.1100  136.9800 C   0  0  1  0  0  3  0  0  0  0  0  0
  188.2180  179.7270  137.2200 O   0  0  0  0  0  1  0  0  0  0  0  0
  186.9520  178.5530  135.5670 C   0  0  0  0  0  2  0  0  0  0  0  0
  187.9560  177.5120  135.4050 N   0  0  0  0  0  2  0  0  0  0  0  0
  187.2630  176.3010  134.9940 C   0  0  0  0  0  2  0  0  0  0  0  0
  187.3260  174.1040  135.9070 O   0  0  0  0  0  0  0  0  0  0  0  0
  189.4090  175.0900  135.5220 N   0  0  0  0  0  2  0  0  0  0  0  0
  187.9820  175.1000  135.4980 C   0  0  0  0  0  0  0  0  0  0  0  0
  191.9890  173.8310  135.5110 C   0  0  0  0  0  1  0  0  0  0  0  0
  189.6780  172.4630  135.6160 O   0  0  0  0  0  0  0  0  0  0  0  0
  190.3150  173.7330  136.0970 S   0  0  0  0  0  0  0  0  0  0  0  0
  190.3200  173.7450  137.5980 O   0  0  0  0  0  0  0  0  0  0  0  0
  187.6510  177.8840  142.7720 C   0  0  0  0  0  3  0  0  0  0  0  0
  187.3080  176.7760  143.4110 C   0  0  0  0  0  2  0  0  0  0  0  0
  191.1210  178.2420  141.9740 C   0  0  0  0  0  2  0  0  0  0  0  0
  191.6180  177.9070  143.3760 C   0  0  0  0  0  2  0  0  0  0  0  0
  191.6370  176.7010  146.1480 O   0  0  0  0  0  0  0  0  0  0  0  0
  191.0790  176.1790  144.9720 C   0  0  1  0  0  3  0  0  0  0  0  0
  190.5510  177.2670  144.1470 N   0  0  0  0  0  0  0  0  0  0  0  0
  190.1510  178.2340  145.1460 C   0  0  0  0  0  2  0  0  0  0  0  0
  190.8830  177.8510  146.4190 C   0  0  1  0  0  3  0  0  0  0  0  0
  192.0550  175.2550  144.2510 C   0  0  0  0  0  1  0  0  0  0  0  0
  190.3300  177.8780  148.7320 O   0  0  0  0  0  0  0  0  0  0  0  0
  189.9510  177.5930  147.5640 C   0  0  0  0  0  0  0  0  0  0  0  0
  188.7150  176.9740  147.3490 O   0  0  0  0  0  0  0  0  0  0  0  0
  187.4910  177.5720  147.7590 C   0  0  0  0  0  2  0  0  0  0  0  0
  185.7410  178.8410  146.4550 C   0  0  0  0  0  0  0  0  0  0  0  0
  185.6820  179.7350  147.3410 O   0  0  0  0  0  0  0  0  0  0  0  0
  184.9390  178.9840  145.2160 C   0  0  0  0  0  1  0  0  0  0  0  0
  186.6010  177.7110  146.6130 N   0  0  0  0  0  2  0  0  0  0  0  0
  1  5  1  0  0  0  0
  1  4  1  0  0  0  0
  2 21  1  6  0  0  0
  2  6  1  0  0  0  0
  2  9  1  0  0  0  0
  3 33  1  0  0  0  0
  5  3  2  0  0  0  0
  6  1  2  0  0  0  0
  7 12  1  0  0  0  0
  7 10  1  0  0  0  0
  8  3  1  0  0  0  0
  8 11  1  0  0  0  0
  9 10  1  0  0  0  0
  9  5  1  0  0  0  0
 10  8  2  0  0  0  0
 11 35  1  6  0  0  0
 12 13  1  0  0  0  0
 13 11  1  0  0  0  0
 14 16  2  0  0  0  0
 14 20  1  0  0  0  0
 16 18  1  0  0  0  0
 17 15  1  0  0  0  0
 17  6  1  0  0  0  0
 18 15  2  0  0  0  0
 19 20  1  0  0  0  0
 20 17  2  0  0  0  0
 21 22  1  1  0  0  0
 23 21  1  0  0  0  0
 24 23  1  0  0  0  0
 25 24  1  0  0  0  0
 25 28  1  0  0  0  0
 27 31  1  0  0  0  0
 28 27  1  0  0  0  0
 28 26  2  0  0  0  0
 29 31  1  0  0  0  0
 30 31  2  0  0  0  0
 31 32  2  0  0  0  0
 33 34  2  0  0  0  0
 35 36  1  0  0  0  0
 36 39  1  0  0  0  0
 37 41  1  0  0  0  0
 38 42  1  6  0  0  0
 38 37  1  0  0  0  0
 39 38  1  0  0  0  0
 39 40  1  0  0  0  0
 40 41  1  0  0  0  0
 41 44  1  1  0  0  0
 44 43  2  0  0  0  0
 45 44  1  0  0  0  0
 45 46  1  0  0  0  0
 47 50  1  0  0  0  0
 47 48  2  0  0  0  0
 49 47  1  0  0  0  0
 50 46  1  0  0  0  0
M  END
>  <MODEL>
9

>  <REMARK>
 VINA RESULT:      -6.7      2.857      5.743
  Name = 
  15 active torsions:
  status: ('A' for Active; 'I' for Inactive)
    1  A    between atoms: C_2  and  C_5
    2  A    between atoms: C_2  and  C_27
    3  A    between atoms: C_9  and  C_11
    4  A    between atoms: C_12  and  C_31
    5  A    between atoms: C_12  and  C_46
    6  A    between atoms: C_18  and  C_25
    7  A    between atoms: N_24  and  S_30
    8  A    between atoms: C_26  and  N_41
    9  A    between atoms: C_26  and  C_43
   10  A    between atoms: C_27  and  N_41
   11  A    between atoms: N_29  and  C_31
   12  A    between atoms: C_32  and  N_38
   13  A    between atoms: C_32  and  O_39
   14  A    between atoms: C_35  and  C_37
   15  A    between atoms: C_35  and  O_39
                            x       y       z     vdW  Elec       q    Type
                         _______ _______ _______ _____ _____    ______ ____

>  <TORSDO>
F 15

$$$$
