=
 OpenBabel10222419213D

 49 54  0  0  1  0  0  0  0  0999 V2000
  187.3260  177.7850  138.6710 C   0  0  2  0  0  3  0  0  0  0  0  0
  188.3370  178.3250  139.6850 C   0  0  0  0  0  2  0  0  0  0  0  0
  189.8450  176.4610  138.9790 C   0  0  0  0  0  3  0  0  0  0  0  0
  189.5530  177.4430  139.8500 C   0  0  0  0  0  0  0  0  0  0  0  0
  188.0510  177.2590  137.4380 C   0  0  0  0  0  2  0  0  0  0  0  0
  188.9290  176.0730  137.8430 C   0  0  1  0  0  3  0  0  0  0  0  0
  192.5250  174.5680  135.9690 C   0  0  2  0  0  3  0  0  0  0  0  0
  190.2290  174.0860  136.8930 C   0  0  0  0  0  2  0  0  0  0  0  0
  191.8970  175.8430  135.3770 C   0  0  0  0  0  2  0  0  0  0  0  0
  190.9020  176.4970  136.3300 C   0  0  0  0  0  2  0  0  0  0  0  0
  189.7480  175.5360  136.6630 C   0  0  2  0  0  3  0  0  0  0  0  0
  191.7310  173.9930  137.1450 C   0  0  0  0  0  2  0  0  0  0  0  0
  193.9580  174.8200  136.4220 C   0  0  0  0  0  2  0  0  0  0  0  0
  194.0480  176.3420  138.2760 O   0  0  0  0  0  1  0  0  0  0  0  0
  194.0640  174.9880  137.9400 C   0  0  2  0  0  3  0  0  0  0  0  0
  195.3260  174.3370  138.4990 C   0  0  1  0  0  3  0  0  0  0  0  0
  195.3050  172.8330  138.2920 C   0  0  0  0  0  1  0  0  0  0  0  0
  196.4670  174.8810  137.9100 O   0  0  0  0  0  1  0  0  0  0  0  0
  186.4560  178.8090  138.2980 O   0  0  0  0  0  0  0  0  0  0  0  0
  184.9580  177.2970  137.4290 O   0  0  0  0  0  1  0  0  0  0  0  0
  185.1780  178.2610  138.4090 C   0  0  2  0  0  3  0  0  0  0  0  0
  183.4190  178.2310  140.8800 C   0  0  0  0  0  0  0  0  0  0  0  0
  183.1660  179.3120  139.8380 C   0  0  2  0  0  3  0  0  0  0  0  0
  182.7350  177.0780  140.8320 C   0  0  0  0  0  3  0  0  0  0  0  0
  182.5450  178.8310  138.5120 C   0  0  1  0  0  3  0  0  0  0  0  0
  181.7350  176.8090  139.7620 C   0  0  0  0  0  2  0  0  0  0  0  0
  184.0170  179.2880  138.5530 C   0  0  2  0  0  3  0  0  0  0  0  0
  182.2750  177.3220  138.4420 C   0  0  0  0  0  2  0  0  0  0  0  0
  185.0250  178.5620  145.0500 N   0  0  0  0  0  0  0  0  0  0  0  0
  186.5890  178.2900  143.0740 C   0  0  0  0  0  2  0  0  0  0  0  0
  186.6610  176.8920  144.9840 O   0  0  0  0  0  0  0  0  0  0  0  0
  184.1590  179.4830  144.3720 C   0  0  0  0  0  3  0  0  0  0  0  0
  184.3300  178.5230  142.0220 C   0  0  0  0  0  0  0  0  0  0  0  0
  186.0990  177.8620  144.4100 C   0  0  0  0  0  0  0  0  0  0  0  0
  185.5630  177.9950  142.0390 C   0  0  0  0  0  3  0  0  0  0  0  0
  183.8550  179.4600  143.0670 C   0  0  0  0  0  3  0  0  0  0  0  0
  185.5970  179.3920  147.1490 O   0  0  0  0  0  1  0  0  0  0  0  0
  184.8450  178.4230  146.4850 C   0  0  0  0  0  2  0  0  0  0  0  0
  190.5360  177.7840  140.9250 C   0  0  0  0  0  2  0  0  0  0  0  0
  190.7400  176.7210  144.0630 C   0  0  2  0  0  3  0  0  0  0  0  0
  191.7210  176.9280  142.9410 C   0  0  0  0  0  2  0  0  0  0  0  0
  189.4770  176.3030  143.4690 N   0  0  0  0  0  2  0  0  0  0  0  0
  189.7580  175.8380  142.1700 N   0  0  0  0  0  2  0  0  0  0  0  0
  190.9460  176.5400  141.7090 C   0  0  1  0  0  3  0  0  0  0  0  0
  190.5640  177.9910  144.8320 C   0  0  0  0  0  0  0  0  0  0  0  0
  191.3680  179.3340  144.3370 S   0  0  0  0  0  0  0  0  0  0  0  0
  189.6020  178.0560  145.8880 N   0  0  0  0  0  2  0  0  0  0  0  0
  188.6880  177.7510  147.9620 C   0  0  0  0  0  1  0  0  0  0  0  0
  189.7510  177.3230  147.0730 N   0  0  0  0  0  2  0  0  0  0  0  0
  1 19  1  6  0  0  0
  1  2  1  0  0  0  0
  2  4  1  0  0  0  0
  3  4  2  0  0  0  0
  4 39  1  0  0  0  0
  5  1  1  0  0  0  0
  6  5  1  6  0  0  0
  6  3  1  0  0  0  0
  7 13  1  1  0  0  0
  7 12  1  0  0  0  0
  8 12  1  0  0  0  0
  9  7  1  0  0  0  0
  9 10  1  0  0  0  0
 11 10  1  1  0  0  0
 11  8  1  0  0  0  0
 11  6  1  0  0  0  0
 13 15  1  0  0  0  0
 15 14  1  6  0  0  0
 15 16  1  0  0  0  0
 16 17  1  6  0  0  0
 18 16  1  0  0  0  0
 19 21  1  0  0  0  0
 21 20  1  6  0  0  0
 22 33  1  0  0  0  0
 23 22  1  1  0  0  0
 24 22  2  0  0  0  0
 25 28  1  1  0  0  0
 25 27  1  0  0  0  0
 25 23  1  0  0  0  0
 26 24  1  0  0  0  0
 27 21  1  1  0  0  0
 27 23  1  0  0  0  0
 28 26  1  0  0  0  0
 29 38  1  0  0  0  0
 30 34  1  0  0  0  0
 32 29  1  0  0  0  0
 33 35  2  0  0  0  0
 33 36  1  0  0  0  0
 34 31  2  0  0  0  0
 34 29  1  0  0  0  0
 35 30  1  0  0  0  0
 36 32  2  0  0  0  0
 38 37  1  0  0  0  0
 40 45  1  6  0  0  0
 41 40  1  0  0  0  0
 42 40  1  0  0  0  0
 43 42  1  0  0  0  0
 44 39  1  1  0  0  0
 44 43  1  0  0  0  0
 44 41  1  0  0  0  0
 45 47  1  0  0  0  0
 46 45  2  0  0  0  0
 47 49  1  0  0  0  0
 49 48  1  0  0  0  0
M  END
>  <MODEL>
1

>  <REMARK>
 VINA RESULT:      -8.2      0.000      0.000
  Name = 
  14 active torsions:
  status: ('A' for Active; 'I' for Inactive)
    1  A    between atoms: C_1  and  O_22
    2  A    between atoms: C_3  and  C_9
    3  A    between atoms: C_4  and  C_47
    4  A    between atoms: C_5  and  C_28
    5  A    between atoms: C_8  and  C_18
    6  A    between atoms: C_9  and  N_48
    7  A    between atoms: N_12  and  C_42
    8  A    between atoms: C_15  and  C_25
    9  A    between atoms: C_18  and  C_47
   10  A    between atoms: O_22  and  C_38
   11  A    between atoms: C_25  and  C_45
   12  A    between atoms: C_34  and  C_49
   13  A    between atoms: C_37  and  C_38
   14  A    between atoms: N_41  and  N_48
                            x       y       z     vdW  Elec       q    Type
                         _______ _______ _______ _____ _____    ______ ____

>  <TORSDO>
F 14

$$$$
=
 OpenBabel10222419213D

 49 54  0  0  1  0  0  0  0  0999 V2000
  187.3350  177.2370  138.0000 C   0  0  2  0  0  3  0  0  0  0  0  0
  187.5790  177.8390  139.3850 C   0  0  0  0  0  2  0  0  0  0  0  0
  189.9080  176.9450  139.2210 C   0  0  0  0  0  3  0  0  0  0  0  0
  188.9260  177.4790  139.9690 C   0  0  0  0  0  0  0  0  0  0  0  0
  188.5890  177.3670  137.1440 C   0  0  0  0  0  2  0  0  0  0  0  0
  189.7140  176.5460  137.7770 C   0  0  1  0  0  3  0  0  0  0  0  0
  193.5080  175.1240  136.2620 C   0  0  2  0  0  3  0  0  0  0  0  0
  191.1080  175.7410  135.7900 C   0  0  0  0  0  2  0  0  0  0  0  0
  193.5280  176.3600  137.1790 C   0  0  0  0  0  2  0  0  0  0  0  0
  192.2290  176.5260  137.9600 C   0  0  0  0  0  2  0  0  0  0  0  0
  191.0320  176.6880  137.0080 C   0  0  2  0  0  3  0  0  0  0  0  0
  192.0950  174.5950  135.9920 C   0  0  0  0  0  2  0  0  0  0  0  0
  194.3510  173.9940  136.8420 C   0  0  0  0  0  2  0  0  0  0  0  0
  196.6900  174.3550  136.4360 O   0  0  0  0  0  1  0  0  0  0  0  0
  195.6870  174.4950  137.3960 C   0  0  2  0  0  3  0  0  0  0  0  0
  196.0890  173.7560  138.6690 C   0  0  1  0  0  3  0  0  0  0  0  0
  196.4490  174.7280  139.7790 C   0  0  0  0  0  1  0  0  0  0  0  0
  195.0660  172.9080  139.0940 O   0  0  0  0  0  1  0  0  0  0  0  0
  186.2800  177.9090  137.3850 O   0  0  0  0  0  0  0  0  0  0  0  0
  185.9750  175.8710  136.3660 O   0  0  0  0  0  1  0  0  0  0  0  0
  185.3590  176.9150  137.0500 C   0  0  2  0  0  3  0  0  0  0  0  0
  182.7660  176.9220  138.6240 C   0  0  0  0  0  0  0  0  0  0  0  0
  182.7410  177.4780  137.2060 C   0  0  2  0  0  3  0  0  0  0  0  0
  182.4660  175.6340  138.8470 C   0  0  0  0  0  3  0  0  0  0  0  0
  182.8900  176.4380  136.0770 C   0  0  1  0  0  3  0  0  0  0  0  0
  182.1240  174.7100  137.7300 C   0  0  0  0  0  2  0  0  0  0  0  0
  184.0430  177.4150  136.3840 C   0  0  2  0  0  3  0  0  0  0  0  0
  183.0440  174.9900  136.5590 C   0  0  0  0  0  2  0  0  0  0  0  0
  182.4610  178.8440  142.6600 N   0  0  0  0  0  0  0  0  0  0  0  0
  184.5980  179.0000  141.3060 C   0  0  0  0  0  2  0  0  0  0  0  0
  184.5380  178.2430  143.5500 O   0  0  0  0  0  0  0  0  0  0  0  0
  181.6040  179.0500  141.5280 C   0  0  0  0  0  3  0  0  0  0  0  0
  182.9940  177.8540  139.7640 C   0  0  0  0  0  0  0  0  0  0  0  0
  183.8790  178.6630  142.5620 C   0  0  0  0  0  0  0  0  0  0  0  0
  184.2360  178.0300  140.2390 C   0  0  0  0  0  3  0  0  0  0  0  0
  181.8320  178.6160  140.2810 C   0  0  0  0  0  3  0  0  0  0  0  0
  180.5820  178.3380  143.9400 O   0  0  0  0  0  1  0  0  0  0  0  0
  181.8460  178.9260  143.9740 C   0  0  0  0  0  2  0  0  0  0  0  0
  189.2170  177.8790  141.3810 C   0  0  0  0  0  2  0  0  0  0  0  0
  189.6790  176.8570  144.5060 C   0  0  2  0  0  3  0  0  0  0  0  0
  189.7740  176.2140  143.1480 C   0  0  0  0  0  2  0  0  0  0  0  0
  188.6080  177.8430  144.4500 N   0  0  0  0  0  2  0  0  0  0  0  0
  187.8040  177.5270  143.3370 N   0  0  0  0  0  2  0  0  0  0  0  0
  188.6570  176.8560  142.3670 C   0  0  1  0  0  3  0  0  0  0  0  0
  190.9770  177.5110  144.8560 C   0  0  0  0  0  0  0  0  0  0  0  0
  191.3470  178.9540  144.1670 S   0  0  0  0  0  0  0  0  0  0  0  0
  191.8030  176.9500  145.8810 N   0  0  0  0  0  2  0  0  0  0  0  0
  192.3500  175.8480  147.8070 C   0  0  0  0  0  1  0  0  0  0  0  0
  191.2770  176.5270  147.1080 N   0  0  0  0  0  2  0  0  0  0  0  0
  1 19  1  6  0  0  0
  1  2  1  0  0  0  0
  2  4  1  0  0  0  0
  3  4  2  0  0  0  0
  4 39  1  0  0  0  0
  5  1  1  0  0  0  0
  6  5  1  6  0  0  0
  6  3  1  0  0  0  0
  7 13  1  1  0  0  0
  7  9  1  0  0  0  0
  8 12  1  0  0  0  0
  9 10  1  0  0  0  0
 11  8  1  6  0  0  0
 11  6  1  0  0  0  0
 11 10  1  0  0  0  0
 12  7  1  0  0  0  0
 13 15  1  0  0  0  0
 15 14  1  6  0  0  0
 15 16  1  0  0  0  0
 16 18  1  0  0  0  0
 16 17  1  1  0  0  0
 21 20  1  6  0  0  0
 21 19  1  0  0  0  0
 22 24  2  0  0  0  0
 22 33  1  0  0  0  0
 23 22  1  1  0  0  0
 25 27  1  0  0  0  0
 25 28  1  1  0  0  0
 25 23  1  0  0  0  0
 26 24  1  0  0  0  0
 27 21  1  1  0  0  0
 27 23  1  0  0  0  0
 28 26  1  0  0  0  0
 29 38  1  0  0  0  0
 30 34  1  0  0  0  0
 32 29  1  0  0  0  0
 33 35  2  0  0  0  0
 33 36  1  0  0  0  0
 34 29  1  0  0  0  0
 34 31  2  0  0  0  0
 35 30  1  0  0  0  0
 36 32  2  0  0  0  0
 37 38  1  0  0  0  0
 40 45  1  6  0  0  0
 41 40  1  0  0  0  0
 42 40  1  0  0  0  0
 43 42  1  0  0  0  0
 44 39  1  6  0  0  0
 44 41  1  0  0  0  0
 44 43  1  0  0  0  0
 45 47  1  0  0  0  0
 46 45  2  0  0  0  0
 47 49  1  0  0  0  0
 49 48  1  0  0  0  0
M  END
>  <MODEL>
2

>  <REMARK>
 VINA RESULT:      -7.7      1.972      2.523
  Name = 
  14 active torsions:
  status: ('A' for Active; 'I' for Inactive)
    1  A    between atoms: C_1  and  O_22
    2  A    between atoms: C_3  and  C_9
    3  A    between atoms: C_4  and  C_47
    4  A    between atoms: C_5  and  C_28
    5  A    between atoms: C_8  and  C_18
    6  A    between atoms: C_9  and  N_48
    7  A    between atoms: N_12  and  C_42
    8  A    between atoms: C_15  and  C_25
    9  A    between atoms: C_18  and  C_47
   10  A    between atoms: O_22  and  C_38
   11  A    between atoms: C_25  and  C_45
   12  A    between atoms: C_34  and  C_49
   13  A    between atoms: C_37  and  C_38
   14  A    between atoms: N_41  and  N_48
                            x       y       z     vdW  Elec       q    Type
                         _______ _______ _______ _____ _____    ______ ____

>  <TORSDO>
F 14

$$$$
=
 OpenBabel10222419213D

 49 54  0  0  1  0  0  0  0  0999 V2000
  189.5120  177.6520  138.4520 C   0  0  2  0  0  3  0  0  0  0  0  0
  190.7870  177.0560  137.8520 C   0  0  0  0  0  2  0  0  0  0  0  0
  191.7460  177.1120  140.1600 C   0  0  0  0  0  3  0  0  0  0  0  0
  191.9310  176.9670  138.8360 C   0  0  0  0  0  0  0  0  0  0  0  0
  189.2700  177.0770  139.8430 C   0  0  0  0  0  2  0  0  0  0  0  0
  190.4170  177.4980  140.7640 C   0  0  1  0  0  3  0  0  0  0  0  0
  188.6320  177.1380  144.6880 C   0  0  2  0  0  3  0  0  0  0  0  0
  188.9220  176.1850  142.3710 C   0  0  0  0  0  2  0  0  0  0  0  0
  190.1340  177.4680  144.6190 C   0  0  0  0  0  2  0  0  0  0  0  0
  190.5590  177.9600  143.2400 C   0  0  0  0  0  2  0  0  0  0  0  0
  190.2790  176.8940  142.1660 C   0  0  2  0  0  3  0  0  0  0  0  0
  187.9920  176.9480  143.3090 C   0  0  0  0  0  2  0  0  0  0  0  0
  187.8650  178.2210  145.4390 C   0  0  0  0  0  2  0  0  0  0  0  0
  185.4870  177.9570  145.2370 O   0  0  0  0  0  1  0  0  0  0  0  0
  186.5760  177.6860  146.0670 C   0  0  2  0  0  3  0  0  0  0  0  0
  186.3260  178.2820  147.4500 C   0  0  1  0  0  3  0  0  0  0  0  0
  187.6180  178.3980  148.2390 C   0  0  0  0  0  1  0  0  0  0  0  0
  185.7180  179.5330  147.3480 O   0  0  0  0  0  1  0  0  0  0  0  0
  188.4290  177.3470  137.6290 O   0  0  0  0  0  0  0  0  0  0  0  0
  188.1400  179.5720  137.1240 O   0  0  0  0  0  1  0  0  0  0  0  0
  188.4540  178.3120  136.6210 C   0  0  2  0  0  3  0  0  0  0  0  0
  185.9210  176.6520  136.7700 C   0  0  0  0  0  0  0  0  0  0  0  0
  186.3630  177.1560  135.4020 C   0  0  2  0  0  3  0  0  0  0  0  0
  186.2990  175.4370  137.1940 C   0  0  0  0  0  3  0  0  0  0  0  0
  187.6240  176.4870  134.8190 C   0  0  1  0  0  3  0  0  0  0  0  0
  187.1720  174.5600  136.3650 C   0  0  0  0  0  2  0  0  0  0  0  0
  187.6840  177.9440  135.3190 C   0  0  2  0  0  3  0  0  0  0  0  0
  188.2460  175.4070  135.7140 C   0  0  0  0  0  2  0  0  0  0  0  0
  182.4130  177.7810  139.3190 N   0  0  0  0  0  0  0  0  0  0  0  0
  184.5550  179.1340  139.3860 C   0  0  0  0  0  2  0  0  0  0  0  0
  183.5130  178.2620  141.3260 O   0  0  0  0  0  0  0  0  0  0  0  0
  182.4380  177.6130  137.8950 C   0  0  0  0  0  3  0  0  0  0  0  0
  184.9570  177.4650  137.5650 C   0  0  0  0  0  0  0  0  0  0  0  0
  183.4830  178.3670  140.0720 C   0  0  0  0  0  0  0  0  0  0  0  0
  185.4040  178.2130  138.5840 C   0  0  0  0  0  3  0  0  0  0  0  0
  183.5370  177.4690  137.1410 C   0  0  0  0  0  3  0  0  0  0  0  0
  180.1020  178.0590  139.3960 O   0  0  0  0  0  1  0  0  0  0  0  0
  181.1830  177.4190  140.0020 C   0  0  0  0  0  2  0  0  0  0  0  0
  193.2730  176.5470  138.3260 C   0  0  0  0  0  2  0  0  0  0  0  0
  194.9470  174.1650  136.7290 C   0  0  2  0  0  3  0  0  0  0  0  0
  194.4570  175.5440  136.3770 C   0  0  0  0  0  2  0  0  0  0  0  0
  193.9770  173.5750  137.6430 N   0  0  0  0  0  2  0  0  0  0  0  0
  192.7780  174.3030  137.5090 N   0  0  0  0  0  2  0  0  0  0  0  0
  193.1370  175.6510  137.0960 C   0  0  1  0  0  3  0  0  0  0  0  0
  196.2930  174.2470  137.3740 C   0  0  0  0  0  0  0  0  0  0  0  0
  197.5630  174.7920  136.4870 S   0  0  0  0  0  0  0  0  0  0  0  0
  196.4290  173.9900  138.7740 N   0  0  0  0  0  2  0  0  0  0  0  0
  197.4730  175.1960  140.4120 C   0  0  0  0  0  1  0  0  0  0  0  0
  196.2090  174.9860  139.7350 N   0  0  0  0  0  2  0  0  0  0  0  0
  1 19  1  6  0  0  0
  1  5  1  0  0  0  0
  2  1  1  0  0  0  0
  2  4  1  0  0  0  0
  3  6  1  0  0  0  0
  4  3  2  0  0  0  0
  6  5  1  6  0  0  0
  6 11  1  0  0  0  0
  7 13  1  6  0  0  0
  8 12  1  0  0  0  0
  9  7  1  0  0  0  0
 10  9  1  0  0  0  0
 11  8  1  1  0  0  0
 11 10  1  0  0  0  0
 12  7  1  0  0  0  0
 13 15  1  0  0  0  0
 15 14  1  6  0  0  0
 15 16  1  0  0  0  0
 16 17  1  6  0  0  0
 18 16  1  0  0  0  0
 21 20  1  1  0  0  0
 21 19  1  0  0  0  0
 22 24  2  0  0  0  0
 22 33  1  0  0  0  0
 23 22  1  1  0  0  0
 25 27  1  0  0  0  0
 25 23  1  0  0  0  0
 25 28  1  1  0  0  0
 26 24  1  0  0  0  0
 27 23  1  0  0  0  0
 27 21  1  1  0  0  0
 28 26  1  0  0  0  0
 29 38  1  0  0  0  0
 29 34  1  0  0  0  0
 30 34  1  0  0  0  0
 32 29  1  0  0  0  0
 33 35  2  0  0  0  0
 34 31  2  0  0  0  0
 35 30  1  0  0  0  0
 36 33  1  0  0  0  0
 36 32  2  0  0  0  0
 37 38  1  0  0  0  0
 39  4  1  0  0  0  0
 40 45  1  1  0  0  0
 40 42  1  0  0  0  0
 41 40  1  0  0  0  0
 41 44  1  0  0  0  0
 43 42  1  0  0  0  0
 44 43  1  0  0  0  0
 44 39  1  1  0  0  0
 45 47  1  0  0  0  0
 46 45  2  0  0  0  0
 47 49  1  0  0  0  0
 49 48  1  0  0  0  0
M  END
>  <MODEL>
3

>  <REMARK>
 VINA RESULT:      -7.3      3.690      7.701
  Name = 
  14 active torsions:
  status: ('A' for Active; 'I' for Inactive)
    1  A    between atoms: C_1  and  O_22
    2  A    between atoms: C_3  and  C_9
    3  A    between atoms: C_4  and  C_47
    4  A    between atoms: C_5  and  C_28
    5  A    between atoms: C_8  and  C_18
    6  A    between atoms: C_9  and  N_48
    7  A    between atoms: N_12  and  C_42
    8  A    between atoms: C_15  and  C_25
    9  A    between atoms: C_18  and  C_47
   10  A    between atoms: O_22  and  C_38
   11  A    between atoms: C_25  and  C_45
   12  A    between atoms: C_34  and  C_49
   13  A    between atoms: C_37  and  C_38
   14  A    between atoms: N_41  and  N_48
                            x       y       z     vdW  Elec       q    Type
                         _______ _______ _______ _____ _____    ______ ____

>  <TORSDO>
F 14

$$$$
=
 OpenBabel10222419213D

 49 54  0  0  1  0  0  0  0  0999 V2000
  184.9140  178.4030  139.9270 C   0  0  2  0  0  3  0  0  0  0  0  0
  184.5450  179.1440  141.2140 C   0  0  0  0  0  2  0  0  0  0  0  0
  186.8190  178.5410  142.0590 C   0  0  0  0  0  3  0  0  0  0  0  0
  185.5820  179.0070  142.3050 C   0  0  0  0  0  0  0  0  0  0  0  0
  186.3870  178.6180  139.6020 C   0  0  0  0  0  2  0  0  0  0  0  0
  187.2390  178.0010  140.7130 C   0  0  1  0  0  3  0  0  0  0  0  0
  191.0920  177.1760  138.9270 C   0  0  2  0  0  3  0  0  0  0  0  0
  189.0550  178.6590  139.0360 C   0  0  0  0  0  2  0  0  0  0  0  0
  190.9940  177.1180  140.4620 C   0  0  0  0  0  2  0  0  0  0  0  0
  189.5520  177.0250  140.9510 C   0  0  0  0  0  2  0  0  0  0  0  0
  188.7370  178.2440  140.4900 C   0  0  2  0  0  3  0  0  0  0  0  0
  189.7730  177.5640  138.2530 C   0  0  0  0  0  2  0  0  0  0  0  0
  191.5600  175.8420  138.3560 C   0  0  0  0  0  2  0  0  0  0  0  0
  193.6690  176.9420  138.6830 O   0  0  0  0  0  1  0  0  0  0  0  0
  193.0730  175.8120  138.1220 C   0  0  2  0  0  3  0  0  0  0  0  0
  193.4180  175.7350  136.6370 C   0  0  1  0  0  3  0  0  0  0  0  0
  192.1690  175.8160  135.7780 C   0  0  0  0  0  1  0  0  0  0  0  0
  194.3050  176.7510  136.2810 O   0  0  0  0  0  1  0  0  0  0  0  0
  184.1310  178.8830  138.8780 O   0  0  0  0  0  0  0  0  0  0  0  0
  182.0200  179.3710  139.6490 O   0  0  0  0  0  1  0  0  0  0  0  0
  182.8500  178.3850  139.1220 C   0  0  2  0  0  3  0  0  0  0  0  0
  182.5240  175.7810  137.6010 C   0  0  0  0  0  0  0  0  0  0  0  0
  182.6890  175.7080  139.1130 C   0  0  2  0  0  3  0  0  0  0  0  0
  181.2980  175.8210  137.0590 C   0  0  0  0  0  3  0  0  0  0  0  0
  181.4890  176.2070  139.9420 C   0  0  1  0  0  3  0  0  0  0  0  0
  180.0720  175.8170  137.9060 C   0  0  0  0  0  2  0  0  0  0  0  0
  182.7900  177.0340  139.8920 C   0  0  2  0  0  3  0  0  0  0  0  0
  180.3020  176.7080  139.1090 C   0  0  0  0  0  2  0  0  0  0  0  0
  186.4090  176.7560  135.5930 N   0  0  0  0  0  0  0  0  0  0  0  0
  185.7220  174.3500  135.9910 C   0  0  0  0  0  2  0  0  0  0  0  0
  187.8140  175.2280  136.6710 O   0  0  0  0  0  0  0  0  0  0  0  0
  185.0960  177.1780  135.2020 C   0  0  0  0  0  3  0  0  0  0  0  0
  183.7310  175.6720  136.7340 C   0  0  0  0  0  0  0  0  0  0  0  0
  186.7050  175.4570  136.1190 C   0  0  0  0  0  0  0  0  0  0  0  0
  184.5450  174.6140  136.8610 C   0  0  0  0  0  3  0  0  0  0  0  0
  183.9410  176.7140  135.7010 C   0  0  0  0  0  3  0  0  0  0  0  0
  187.2990  178.8570  136.0640 O   0  0  0  0  0  1  0  0  0  0  0  0
  187.5000  177.6820  135.3400 C   0  0  0  0  0  2  0  0  0  0  0  0
  185.2630  179.5570  143.6590 C   0  0  0  0  0  2  0  0  0  0  0  0
  185.9730  177.7720  146.3670 C   0  0  2  0  0  3  0  0  0  0  0  0
  185.6540  177.4520  144.9320 C   0  0  0  0  0  2  0  0  0  0  0  0
  185.2120  178.9610  146.7300 N   0  0  0  0  0  2  0  0  0  0  0  0
  184.1720  179.0960  145.7900 N   0  0  0  0  0  2  0  0  0  0  0  0
  184.6310  178.4900  144.5500 C   0  0  1  0  0  3  0  0  0  0  0  0
  187.4390  178.0190  146.5250 C   0  0  0  0  0  0  0  0  0  0  0  0
  188.0500  178.2180  148.0360 S   0  0  0  0  0  0  0  0  0  0  0  0
  188.3020  177.9400  145.3870 N   0  0  0  0  0  2  0  0  0  0  0  0
  190.2810  178.5060  144.3930 C   0  0  0  0  0  1  0  0  0  0  0  0
  189.6900  177.8080  145.5180 N   0  0  0  0  0  2  0  0  0  0  0  0
  1 19  1  6  0  0  0
  1  2  1  0  0  0  0
  2  4  1  0  0  0  0
  3  4  2  0  0  0  0
  4 39  1  0  0  0  0
  5  1  1  0  0  0  0
  6  5  1  6  0  0  0
  6  3  1  0  0  0  0
  7 13  1  6  0  0  0
  7  9  1  0  0  0  0
  9 10  1  0  0  0  0
 11  8  1  6  0  0  0
 11  6  1  0  0  0  0
 11 10  1  0  0  0  0
 12  7  1  0  0  0  0
 12  8  1  0  0  0  0
 15 13  1  0  0  0  0
 15 14  1  6  0  0  0
 16 17  1  6  0  0  0
 16 15  1  0  0  0  0
 18 16  1  0  0  0  0
 19 21  1  0  0  0  0
 21 20  1  1  0  0  0
 23 22  1  6  0  0  0
 23 27  1  0  0  0  0
 23 25  1  0  0  0  0
 24 22  2  0  0  0  0
 24 26  1  0  0  0  0
 25 28  1  6  0  0  0
 26 28  1  0  0  0  0
 27 21  1  6  0  0  0
 27 25  1  0  0  0  0
 29 34  1  0  0  0  0
 30 34  1  0  0  0  0
 30 35  1  0  0  0  0
 32 29  1  0  0  0  0
 32 36  2  0  0  0  0
 33 35  2  0  0  0  0
 33 22  1  0  0  0  0
 34 31  2  0  0  0  0
 36 33  1  0  0  0  0
 38 29  1  0  0  0  0
 38 37  1  0  0  0  0
 40 45  1  6  0  0  0
 40 42  1  0  0  0  0
 41 40  1  0  0  0  0
 43 42  1  0  0  0  0
 44 39  1  6  0  0  0
 44 41  1  0  0  0  0
 44 43  1  0  0  0  0
 45 46  2  0  0  0  0
 47 49  1  0  0  0  0
 47 45  1  0  0  0  0
 48 49  1  0  0  0  0
M  END
>  <MODEL>
4

>  <REMARK>
 VINA RESULT:      -7.3      2.433      5.543
  Name = 
  14 active torsions:
  status: ('A' for Active; 'I' for Inactive)
    1  A    between atoms: C_1  and  O_22
    2  A    between atoms: C_3  and  C_9
    3  A    between atoms: C_4  and  C_47
    4  A    between atoms: C_5  and  C_28
    5  A    between atoms: C_8  and  C_18
    6  A    between atoms: C_9  and  N_48
    7  A    between atoms: N_12  and  C_42
    8  A    between atoms: C_15  and  C_25
    9  A    between atoms: C_18  and  C_47
   10  A    between atoms: O_22  and  C_38
   11  A    between atoms: C_25  and  C_45
   12  A    between atoms: C_34  and  C_49
   13  A    between atoms: C_37  and  C_38
   14  A    between atoms: N_41  and  N_48
                            x       y       z     vdW  Elec       q    Type
                         _______ _______ _______ _____ _____    ______ ____

>  <TORSDO>
F 14

$$$$
=
 OpenBabel10222419213D

 49 54  0  0  1  0  0  0  0  0999 V2000
  183.3210  179.5770  139.4840 C   0  0  2  0  0  3  0  0  0  0  0  0
  184.3150  179.0240  138.4610 C   0  0  0  0  0  2  0  0  0  0  0  0
  185.8140  178.5000  140.3910 C   0  0  0  0  0  3  0  0  0  0  0  0
  185.6440  178.6310  139.0640 C   0  0  0  0  0  0  0  0  0  0  0  0
  183.3550  178.7360  140.7550 C   0  0  0  0  0  2  0  0  0  0  0  0
  184.7410  178.8530  141.3940 C   0  0  1  0  0  3  0  0  0  0  0  0
  185.9480  178.0300  145.4650 C   0  0  2  0  0  3  0  0  0  0  0  0
  184.0830  178.5320  143.8440 C   0  0  0  0  0  2  0  0  0  0  0  0
  186.5140  177.1200  144.3600 C   0  0  0  0  0  2  0  0  0  0  0  0
  186.3570  177.7270  142.9700 C   0  0  0  0  0  2  0  0  0  0  0  0
  184.8740  177.9720  142.6420 C   0  0  2  0  0  3  0  0  0  0  0  0
  184.9870  179.0980  144.9350 C   0  0  0  0  0  2  0  0  0  0  0  0
  187.0680  178.7200  146.2360 C   0  0  0  0  0  2  0  0  0  0  0  0
  187.7110  177.8680  148.3870 O   0  0  0  0  0  1  0  0  0  0  0  0
  187.9310  177.7240  147.0170 C   0  0  2  0  0  3  0  0  0  0  0  0
  189.4170  177.8990  146.7150 C   0  0  1  0  0  3  0  0  0  0  0  0
  190.1930  176.6310  147.0260 C   0  0  0  0  0  1  0  0  0  0  0  0
  189.6120  178.2610  145.3830 O   0  0  0  0  0  1  0  0  0  0  0  0
  182.0370  179.5480  138.9420 O   0  0  0  0  0  0  0  0  0  0  0  0
  182.5950  181.7720  139.1110 O   0  0  0  0  0  1  0  0  0  0  0  0
  181.8270  180.8300  138.4320 C   0  0  2  0  0  3  0  0  0  0  0  0
  180.2650  179.8750  136.0140 C   0  0  0  0  0  0  0  0  0  0  0  0
  179.5280  180.7060  137.0550 C   0  0  2  0  0  3  0  0  0  0  0  0
  180.8280  180.4710  134.9520 C   0  0  0  0  0  3  0  0  0  0  0  0
  179.9130  182.1970  137.1150 C   0  0  1  0  0  3  0  0  0  0  0  0
  180.7700  181.9480  134.7680 C   0  0  0  0  0  2  0  0  0  0  0  0
  180.3370  181.2450  138.2510 C   0  0  2  0  0  3  0  0  0  0  0  0
  180.9900  182.6200  136.1080 C   0  0  0  0  0  2  0  0  0  0  0  0
  181.3230  175.6820  137.1890 N   0  0  0  0  0  0  0  0  0  0  0  0
  178.9400  176.2990  136.5870 C   0  0  0  0  0  2  0  0  0  0  0  0
  179.5230  175.1930  138.5990 O   0  0  0  0  0  0  0  0  0  0  0  0
  181.9040  176.4660  136.1380 C   0  0  0  0  0  3  0  0  0  0  0  0
  180.2360  178.3890  136.1190 C   0  0  0  0  0  0  0  0  0  0  0  0
  179.9300  175.7040  137.5220 C   0  0  0  0  0  0  0  0  0  0  0  0
  179.1180  177.7750  136.5330 C   0  0  0  0  0  3  0  0  0  0  0  0
  181.4370  177.6380  135.6830 C   0  0  0  0  0  3  0  0  0  0  0  0
  183.2290  175.4450  138.5060 O   0  0  0  0  0  1  0  0  0  0  0  0
  182.2000  174.7480  137.8740 C   0  0  0  0  0  2  0  0  0  0  0  0
  186.7480  178.2240  138.1410 C   0  0  0  0  0  2  0  0  0  0  0  0
  189.7820  176.9200  137.7920 C   0  0  2  0  0  3  0  0  0  0  0  0
  188.6730  176.7870  138.8010 C   0  0  0  0  0  2  0  0  0  0  0  0
  189.7600  178.2900  137.2950 N   0  0  0  0  0  2  0  0  0  0  0  0
  189.0370  179.0620  138.2240 N   0  0  0  0  0  2  0  0  0  0  0  0
  188.0860  178.1730  138.8750 C   0  0  1  0  0  3  0  0  0  0  0  0
  189.5750  175.9520  136.6710 C   0  0  0  0  0  0  0  0  0  0  0  0
  190.4800  176.1110  135.3110 S   0  0  0  0  0  0  0  0  0  0  0  0
  188.7070  174.8300  136.8500 N   0  0  0  0  0  2  0  0  0  0  0  0
  188.1100  172.6230  136.8360 C   0  0  0  0  0  1  0  0  0  0  0  0
  189.2020  173.5420  137.0920 N   0  0  0  0  0  2  0  0  0  0  0  0
  1 19  1  6  0  0  0
  1  5  1  0  0  0  0
  2  4  1  0  0  0  0
  2  1  1  0  0  0  0
  4  3  2  0  0  0  0
  5  6  1  0  0  0  0
  6  3  1  6  0  0  0
  6 11  1  0  0  0  0
  7 13  1  6  0  0  0
  8 12  1  0  0  0  0
  9  7  1  0  0  0  0
 10  9  1  0  0  0  0
 11 10  1  1  0  0  0
 11  8  1  0  0  0  0
 12  7  1  0  0  0  0
 13 15  1  0  0  0  0
 15 14  1  1  0  0  0
 16 15  1  0  0  0  0
 16 17  1  6  0  0  0
 18 16  1  0  0  0  0
 21 19  1  0  0  0  0
 21 20  1  1  0  0  0
 22 33  1  0  0  0  0
 23 22  1  6  0  0  0
 23 25  1  0  0  0  0
 23 27  1  0  0  0  0
 24 22  2  0  0  0  0
 25 28  1  6  0  0  0
 25 27  1  0  0  0  0
 26 24  1  0  0  0  0
 26 28  1  0  0  0  0
 27 21  1  6  0  0  0
 29 34  1  0  0  0  0
 29 38  1  0  0  0  0
 30 34  1  0  0  0  0
 32 29  1  0  0  0  0
 33 35  2  0  0  0  0
 34 31  2  0  0  0  0
 35 30  1  0  0  0  0
 36 33  1  0  0  0  0
 36 32  2  0  0  0  0
 38 37  1  0  0  0  0
 39  4  1  0  0  0  0
 40 45  1  6  0  0  0
 40 41  1  0  0  0  0
 41 44  1  0  0  0  0
 42 40  1  0  0  0  0
 42 43  1  0  0  0  0
 43 44  1  0  0  0  0
 44 39  1  6  0  0  0
 45 47  1  0  0  0  0
 46 45  2  0  0  0  0
 47 49  1  0  0  0  0
 48 49  1  0  0  0  0
M  END
>  <MODEL>
5

>  <REMARK>
 VINA RESULT:      -7.2      4.160      8.314
  Name = 
  14 active torsions:
  status: ('A' for Active; 'I' for Inactive)
    1  A    between atoms: C_1  and  O_22
    2  A    between atoms: C_3  and  C_9
    3  A    between atoms: C_4  and  C_47
    4  A    between atoms: C_5  and  C_28
    5  A    between atoms: C_8  and  C_18
    6  A    between atoms: C_9  and  N_48
    7  A    between atoms: N_12  and  C_42
    8  A    between atoms: C_15  and  C_25
    9  A    between atoms: C_18  and  C_47
   10  A    between atoms: O_22  and  C_38
   11  A    between atoms: C_25  and  C_45
   12  A    between atoms: C_34  and  C_49
   13  A    between atoms: C_37  and  C_38
   14  A    between atoms: N_41  and  N_48
                            x       y       z     vdW  Elec       q    Type
                         _______ _______ _______ _____ _____    ______ ____

>  <TORSDO>
F 14

$$$$
=
 OpenBabel10222419213D

 49 54  0  0  1  0  0  0  0  0999 V2000
  185.3940  178.2490  138.4680 C   0  0  2  0  0  3  0  0  0  0  0  0
  184.0240  177.8350  137.9270 C   0  0  0  0  0  2  0  0  0  0  0  0
  183.2860  177.6430  140.3080 C   0  0  0  0  0  3  0  0  0  0  0  0
  183.0580  177.4000  139.0050 C   0  0  0  0  0  0  0  0  0  0  0  0
  185.2270  179.0990  139.7230 C   0  0  0  0  0  2  0  0  0  0  0  0
  184.5700  178.2540  140.8150 C   0  0  1  0  0  3  0  0  0  0  0  0
  184.8360  179.0350  145.0620 C   0  0  2  0  0  3  0  0  0  0  0  0
  185.6020  179.6030  142.7270 C   0  0  0  0  0  2  0  0  0  0  0  0
  183.4290  178.9110  144.4500 C   0  0  0  0  0  2  0  0  0  0  0  0
  183.4490  178.2520  143.0740 C   0  0  0  0  0  2  0  0  0  0  0  0
  184.3020  179.0660  142.0870 C   0  0  2  0  0  3  0  0  0  0  0  0
  185.9580  178.8920  144.0290 C   0  0  0  0  0  2  0  0  0  0  0  0
  185.0500  178.0030  146.1630 C   0  0  0  0  0  2  0  0  0  0  0  0
  185.6830  179.9570  147.4050 O   0  0  0  0  0  1  0  0  0  0  0  0
  185.8390  178.5720  147.3440 C   0  0  2  0  0  3  0  0  0  0  0  0
  187.3240  178.2280  147.2550 C   0  0  1  0  0  3  0  0  0  0  0  0
  187.9360  178.0760  148.6370 C   0  0  0  0  0  1  0  0  0  0  0  0
  187.5180  177.0600  146.5190 O   0  0  0  0  0  1  0  0  0  0  0  0
  186.0710  178.9830  137.4950 O   0  0  0  0  0  0  0  0  0  0  0  0
  186.9860  178.3020  135.4990 O   0  0  0  0  0  1  0  0  0  0  0  0
  186.9170  178.0670  136.8700 C   0  0  2  0  0  3  0  0  0  0  0  0
  189.2320  176.3530  137.8190 C   0  0  0  0  0  0  0  0  0  0  0  0
  187.8460  175.7230  137.7850 C   0  0  2  0  0  3  0  0  0  0  0  0
  190.0550  176.2280  136.7670 C   0  0  0  0  0  3  0  0  0  0  0  0
  187.2750  175.4400  136.3810 C   0  0  1  0  0  3  0  0  0  0  0  0
  189.6390  175.4970  135.5370 C   0  0  0  0  0  2  0  0  0  0  0  0
  186.6820  176.5730  137.2420 C   0  0  2  0  0  3  0  0  0  0  0  0
  188.1970  175.8410  135.2230 C   0  0  0  0  0  2  0  0  0  0  0  0
  189.5610  177.4760  142.1440 N   0  0  0  0  0  0  0  0  0  0  0  0
  191.5990  177.5030  140.6380 C   0  0  0  0  0  2  0  0  0  0  0  0
  191.5310  176.3470  142.7040 O   0  0  0  0  0  0  0  0  0  0  0  0
  188.6930  178.0510  141.1570 C   0  0  0  0  0  3  0  0  0  0  0  0
  189.7090  176.9890  139.0800 C   0  0  0  0  0  0  0  0  0  0  0  0
  190.9070  177.0640  141.8780 C   0  0  0  0  0  0  0  0  0  0  0  0
  190.9880  176.8400  139.4550 C   0  0  0  0  0  3  0  0  0  0  0  0
  188.7540  177.8330  139.8360 C   0  0  0  0  0  3  0  0  0  0  0  0
  189.6740  178.3910  144.2830 O   0  0  0  0  0  1  0  0  0  0  0  0
  189.0570  177.4110  143.5060 C   0  0  0  0  0  2  0  0  0  0  0  0
  181.7410  176.8250  138.5870 C   0  0  0  0  0  2  0  0  0  0  0  0
  180.6000  174.4110  136.6140 C   0  0  2  0  0  3  0  0  0  0  0  0
  181.9630  174.9250  136.9920 C   0  0  0  0  0  2  0  0  0  0  0  0
  179.6920  175.5500  136.5960 N   0  0  0  0  0  2  0  0  0  0  0  0
  180.4800  176.7140  136.5040 N   0  0  0  0  0  2  0  0  0  0  0  0
  181.7640  176.4130  137.1170 C   0  0  1  0  0  3  0  0  0  0  0  0
  180.1430  173.3910  137.6070 C   0  0  0  0  0  0  0  0  0  0  0  0
  179.4760  173.9020  139.0170 S   0  0  0  0  0  0  0  0  0  0  0  0
  180.1600  172.0030  137.2610 N   0  0  0  0  0  2  0  0  0  0  0  0
  179.3080  170.2320  136.0940 C   0  0  0  0  0  1  0  0  0  0  0  0
  179.8770  171.5590  135.9630 N   0  0  0  0  0  2  0  0  0  0  0  0
  1 19  1  6  0  0  0
  1  5  1  0  0  0  0
  2  1  1  0  0  0  0
  2  4  1  0  0  0  0
  3  6  1  0  0  0  0
  4  3  2  0  0  0  0
  6  5  1  6  0  0  0
  6 11  1  0  0  0  0
  7 13  1  1  0  0  0
  8 12  1  0  0  0  0
  9  7  1  0  0  0  0
 10  9  1  0  0  0  0
 11  8  1  1  0  0  0
 11 10  1  0  0  0  0
 12  7  1  0  0  0  0
 13 15  1  0  0  0  0
 15 14  1  6  0  0  0
 16 15  1  0  0  0  0
 16 17  1  1  0  0  0
 18 16  1  0  0  0  0
 21 20  1  6  0  0  0
 21 19  1  0  0  0  0
 22 33  1  0  0  0  0
 23 22  1  6  0  0  0
 24 22  2  0  0  0  0
 25 28  1  6  0  0  0
 25 27  1  0  0  0  0
 25 23  1  0  0  0  0
 26 24  1  0  0  0  0
 27 21  1  6  0  0  0
 27 23  1  0  0  0  0
 28 26  1  0  0  0  0
 29 38  1  0  0  0  0
 30 34  1  0  0  0  0
 32 29  1  0  0  0  0
 33 35  2  0  0  0  0
 33 36  1  0  0  0  0
 34 29  1  0  0  0  0
 34 31  2  0  0  0  0
 35 30  1  0  0  0  0
 36 32  2  0  0  0  0
 38 37  1  0  0  0  0
 39  4  1  0  0  0  0
 40 41  1  0  0  0  0
 40 45  1  1  0  0  0
 41 44  1  0  0  0  0
 42 40  1  0  0  0  0
 43 42  1  0  0  0  0
 43 44  1  0  0  0  0
 44 39  1  1  0  0  0
 45 46  2  0  0  0  0
 47 45  1  0  0  0  0
 49 48  1  0  0  0  0
 49 47  1  0  0  0  0
M  END
>  <MODEL>
6

>  <REMARK>
 VINA RESULT:      -7.1      4.277      9.506
  Name = 
  14 active torsions:
  status: ('A' for Active; 'I' for Inactive)
    1  A    between atoms: C_1  and  O_22
    2  A    between atoms: C_3  and  C_9
    3  A    between atoms: C_4  and  C_47
    4  A    between atoms: C_5  and  C_28
    5  A    between atoms: C_8  and  C_18
    6  A    between atoms: C_9  and  N_48
    7  A    between atoms: N_12  and  C_42
    8  A    between atoms: C_15  and  C_25
    9  A    between atoms: C_18  and  C_47
   10  A    between atoms: O_22  and  C_38
   11  A    between atoms: C_25  and  C_45
   12  A    between atoms: C_34  and  C_49
   13  A    between atoms: C_37  and  C_38
   14  A    between atoms: N_41  and  N_48
                            x       y       z     vdW  Elec       q    Type
                         _______ _______ _______ _____ _____    ______ ____

>  <TORSDO>
F 14

$$$$
=
 OpenBabel10222419213D

 49 54  0  0  1  0  0  0  0  0999 V2000
  188.9200  177.4750  138.9060 C   0  0  2  0  0  3  0  0  0  0  0  0
  187.5080  177.7240  138.3730 C   0  0  0  0  0  2  0  0  0  0  0  0
  188.4080  177.1860  136.1040 C   0  0  0  0  0  3  0  0  0  0  0  0
  187.4170  177.6840  136.8650 C   0  0  0  0  0  0  0  0  0  0  0  0
  189.5760  176.3330  138.1390 C   0  0  0  0  0  2  0  0  0  0  0  0
  189.7350  176.7420  136.6730 C   0  0  1  0  0  3  0  0  0  0  0  0
  192.6100  173.6370  135.7770 C   0  0  2  0  0  3  0  0  0  0  0  0
  190.2880  174.2480  136.5490 C   0  0  0  0  0  2  0  0  0  0  0  0
  192.4460  174.7690  134.7490 C   0  0  0  0  0  2  0  0  0  0  0  0
  191.7310  175.9850  135.3300 C   0  0  0  0  0  2  0  0  0  0  0  0
  190.3220  175.6110  135.8210 C   0  0  2  0  0  3  0  0  0  0  0  0
  191.6720  173.7730  136.9810 C   0  0  0  0  0  2  0  0  0  0  0  0
  194.0460  173.5560  136.2830 C   0  0  0  0  0  2  0  0  0  0  0  0
  194.6750  175.6570  137.2600 O   0  0  0  0  0  1  0  0  0  0  0  0
  194.2530  174.3630  137.5670 C   0  0  2  0  0  3  0  0  0  0  0  0
  195.2650  173.7010  138.4980 C   0  0  1  0  0  3  0  0  0  0  0  0
  196.1140  172.6860  137.7540 C   0  0  0  0  0  1  0  0  0  0  0  0
  196.0850  174.6570  139.0980 O   0  0  0  0  0  1  0  0  0  0  0  0
  188.8520  177.1470  140.2590 O   0  0  0  0  0  0  0  0  0  0  0  0
  191.0420  177.5980  139.7230 O   0  0  0  0  0  1  0  0  0  0  0  0
  190.1350  177.3800  140.7560 C   0  0  2  0  0  3  0  0  0  0  0  0
  189.4260  177.7820  143.6780 C   0  0  0  0  0  0  0  0  0  0  0  0
  190.2190  176.5370  143.3020 C   0  0  2  0  0  3  0  0  0  0  0  0
  190.0660  178.8960  144.0630 C   0  0  0  0  0  3  0  0  0  0  0  0
  191.6820  176.7780  142.8810 C   0  0  1  0  0  3  0  0  0  0  0  0
  191.5530  178.9610  144.1150 C   0  0  0  0  0  2  0  0  0  0  0  0
  190.6340  176.3660  141.8280 C   0  0  2  0  0  3  0  0  0  0  0  0
  192.1200  178.2480  142.9040 C   0  0  0  0  0  2  0  0  0  0  0  0
  185.2090  178.2600  145.1160 N   0  0  0  0  0  0  0  0  0  0  0  0
  185.7240  178.0840  142.6410 C   0  0  0  0  0  2  0  0  0  0  0  0
  184.4350  179.8390  143.5740 O   0  0  0  0  0  0  0  0  0  0  0  0
  186.1490  177.2440  145.4920 C   0  0  0  0  0  3  0  0  0  0  0  0
  187.9390  177.7030  143.7420 C   0  0  0  0  0  0  0  0  0  0  0  0
  185.0950  178.7880  143.7880 C   0  0  0  0  0  0  0  0  0  0  0  0
  187.2050  178.1910  142.7310 C   0  0  0  0  0  3  0  0  0  0  0  0
  187.3300  177.0100  144.9020 C   0  0  0  0  0  3  0  0  0  0  0  0
  184.9390  178.9240  147.3320 O   0  0  0  0  0  1  0  0  0  0  0  0
  184.2650  178.6920  146.1330 C   0  0  0  0  0  2  0  0  0  0  0  0
  186.1220  178.0660  136.2220 C   0  0  0  0  0  2  0  0  0  0  0  0
  183.4190  176.6290  137.5090 C   0  0  2  0  0  3  0  0  0  0  0  0
  184.8570  176.2240  137.3230 C   0  0  0  0  0  2  0  0  0  0  0  0
  183.0530  177.4750  136.3810 N   0  0  0  0  0  2  0  0  0  0  0  0
  183.9950  177.2430  135.3590 N   0  0  0  0  0  2  0  0  0  0  0  0
  185.2370  176.8410  136.0020 C   0  0  1  0  0  3  0  0  0  0  0  0
  183.2570  177.3720  138.7960 C   0  0  0  0  0  0  0  0  0  0  0  0
  182.0180  176.9660  139.7940 S   0  0  0  0  0  0  0  0  0  0  0  0
  184.2520  178.3160  139.2040 N   0  0  0  0  0  2  0  0  0  0  0  0
  182.9090  180.1050  138.7310 C   0  0  0  0  0  1  0  0  0  0  0  0
  183.9150  179.6020  139.6460 N   0  0  0  0  0  2  0  0  0  0  0  0
  1 19  1  1  0  0  0
  2  1  1  0  0  0  0
  3  4  2  0  0  0  0
  4  2  1  0  0  0  0
  5  1  1  0  0  0  0
  6  3  1  6  0  0  0
  6  5  1  0  0  0  0
  7 13  1  1  0  0  0
  7 12  1  0  0  0  0
  8 12  1  0  0  0  0
  9 10  1  0  0  0  0
  9  7  1  0  0  0  0
 11 10  1  1  0  0  0
 11  8  1  0  0  0  0
 11  6  1  0  0  0  0
 13 15  1  0  0  0  0
 15 14  1  6  0  0  0
 15 16  1  0  0  0  0
 16 17  1  6  0  0  0
 16 18  1  0  0  0  0
 19 21  1  0  0  0  0
 21 20  1  6  0  0  0
 22 33  1  0  0  0  0
 22 24  2  0  0  0  0
 23 22  1  6  0  0  0
 24 26  1  0  0  0  0
 25 28  1  6  0  0  0
 25 23  1  0  0  0  0
 27 21  1  6  0  0  0
 27 25  1  0  0  0  0
 27 23  1  0  0  0  0
 28 26  1  0  0  0  0
 29 32  1  0  0  0  0
 29 38  1  0  0  0  0
 30 35  1  0  0  0  0
 30 34  1  0  0  0  0
 31 34  2  0  0  0  0
 33 36  1  0  0  0  0
 34 29  1  0  0  0  0
 35 33  2  0  0  0  0
 36 32  2  0  0  0  0
 38 37  1  0  0  0  0
 39  4  1  0  0  0  0
 40 45  1  1  0  0  0
 41 40  1  0  0  0  0
 42 40  1  0  0  0  0
 43 44  1  0  0  0  0
 43 42  1  0  0  0  0
 44 39  1  1  0  0  0
 44 41  1  0  0  0  0
 45 47  1  0  0  0  0
 45 46  2  0  0  0  0
 47 49  1  0  0  0  0
 48 49  1  0  0  0  0
M  END
>  <MODEL>
7

>  <REMARK>
 VINA RESULT:      -7.0      3.008      5.972
  Name = 
  14 active torsions:
  status: ('A' for Active; 'I' for Inactive)
    1  A    between atoms: C_1  and  O_22
    2  A    between atoms: C_3  and  C_9
    3  A    between atoms: C_4  and  C_47
    4  A    between atoms: C_5  and  C_28
    5  A    between atoms: C_8  and  C_18
    6  A    between atoms: C_9  and  N_48
    7  A    between atoms: N_12  and  C_42
    8  A    between atoms: C_15  and  C_25
    9  A    between atoms: C_18  and  C_47
   10  A    between atoms: O_22  and  C_38
   11  A    between atoms: C_25  and  C_45
   12  A    between atoms: C_34  and  C_49
   13  A    between atoms: C_37  and  C_38
   14  A    between atoms: N_41  and  N_48
                            x       y       z     vdW  Elec       q    Type
                         _______ _______ _______ _____ _____    ______ ____

>  <TORSDO>
F 14

$$$$
=
 OpenBabel10222419213D

 49 54  0  0  1  0  0  0  0  0999 V2000
  183.2060  178.9080  140.4670 C   0  0  2  0  0  3  0  0  0  0  0  0
  184.1280  178.6080  139.2830 C   0  0  0  0  0  2  0  0  0  0  0  0
  185.9740  178.3610  140.9510 C   0  0  0  0  0  3  0  0  0  0  0  0
  185.5850  178.4890  139.6700 C   0  0  0  0  0  0  0  0  0  0  0  0
  183.6030  178.0590  141.6690 C   0  0  0  0  0  2  0  0  0  0  0  0
  185.0140  178.4500  142.1130 C   0  0  1  0  0  3  0  0  0  0  0  0
  187.4720  177.6220  145.5750 C   0  0  2  0  0  3  0  0  0  0  0  0
  185.2000  178.2120  144.6520 C   0  0  0  0  0  2  0  0  0  0  0  0
  187.5840  176.6590  144.3780 C   0  0  0  0  0  2  0  0  0  0  0  0
  187.0020  177.2510  143.0990 C   0  0  0  0  0  2  0  0  0  0  0  0
  185.5100  177.5830  143.2760 C   0  0  2  0  0  3  0  0  0  0  0  0
  186.4470  178.7390  145.3570 C   0  0  0  0  0  2  0  0  0  0  0  0
  188.8210  178.2520  145.9010 C   0  0  0  0  0  2  0  0  0  0  0  0
  190.6020  176.9260  146.8140 O   0  0  0  0  0  1  0  0  0  0  0  0
  189.9870  177.3010  145.6190 C   0  0  2  0  0  3  0  0  0  0  0  0
  191.0190  177.9270  144.6860 C   0  0  1  0  0  3  0  0  0  0  0  0
  191.6530  176.8790  143.7870 C   0  0  0  0  0  1  0  0  0  0  0  0
  190.4410  178.9310  143.9100 O   0  0  0  0  0  1  0  0  0  0  0  0
  181.8890  178.6220  140.1090 O   0  0  0  0  0  0  0  0  0  0  0  0
  181.3830  180.1240  141.7750 O   0  0  0  0  0  1  0  0  0  0  0  0
  181.1630  179.7640  140.4480 C   0  0  2  0  0  3  0  0  0  0  0  0
  180.3800  179.6380  137.5210 C   0  0  0  0  0  0  0  0  0  0  0  0
  179.2650  179.6200  138.5580 C   0  0  2  0  0  3  0  0  0  0  0  0
  180.7790  180.7990  136.9810 C   0  0  0  0  0  3  0  0  0  0  0  0
  179.0260  180.9470  139.3060 C   0  0  1  0  0  3  0  0  0  0  0  0
  180.1690  182.0960  137.3880 C   0  0  0  0  0  2  0  0  0  0  0  0
  179.6600  179.7490  140.0420 C   0  0  2  0  0  3  0  0  0  0  0  0
  179.9580  182.0920  138.8880 C   0  0  0  0  0  2  0  0  0  0  0  0
  183.2300  176.5510  135.9630 N   0  0  0  0  0  0  0  0  0  0  0  0
  181.1980  175.8750  137.3190 C   0  0  0  0  0  2  0  0  0  0  0  0
  183.3990  175.1730  137.8450 O   0  0  0  0  0  0  0  0  0  0  0  0
  182.5260  177.5480  135.2090 C   0  0  0  0  0  3  0  0  0  0  0  0
  180.9230  178.3440  137.0180 C   0  0  0  0  0  0  0  0  0  0  0  0
  182.6640  175.8470  137.0750 C   0  0  0  0  0  0  0  0  0  0  0  0
  180.7830  177.2340  137.7570 C   0  0  0  0  0  3  0  0  0  0  0  0
  181.5360  178.3260  135.6680 C   0  0  0  0  0  3  0  0  0  0  0  0
  185.3570  177.3180  135.4030 O   0  0  0  0  0  1  0  0  0  0  0  0
  184.5530  176.1810  135.4900 C   0  0  0  0  0  2  0  0  0  0  0  0
  186.5990  178.3520  138.5790 C   0  0  0  0  0  2  0  0  0  0  0  0
  189.6170  177.0390  138.1380 C   0  0  2  0  0  3  0  0  0  0  0  0
  188.6460  177.1200  139.2850 C   0  0  0  0  0  2  0  0  0  0  0  0
  189.4800  178.2640  137.3610 N   0  0  0  0  0  2  0  0  0  0  0  0
  188.8450  179.2140  138.1840 N   0  0  0  0  0  2  0  0  0  0  0  0
  188.0180  178.4810  139.1300 C   0  0  1  0  0  3  0  0  0  0  0  0
  189.3130  175.8440  137.2920 C   0  0  0  0  0  0  0  0  0  0  0  0
  190.5010  174.7430  137.0240 S   0  0  0  0  0  0  0  0  0  0  0  0
  187.9740  175.6050  136.8510 N   0  0  0  0  0  2  0  0  0  0  0  0
  186.7850  173.6800  137.1760 C   0  0  0  0  0  1  0  0  0  0  0  0
  187.6030  174.4070  136.2260 N   0  0  0  0  0  2  0  0  0  0  0  0
  1 19  1  6  0  0  0
  1  5  1  0  0  0  0
  2  4  1  0  0  0  0
  2  1  1  0  0  0  0
  4  3  2  0  0  0  0
  5  6  1  0  0  0  0
  6  3  1  6  0  0  0
  6 11  1  0  0  0  0
  7 13  1  6  0  0  0
  8 12  1  0  0  0  0
  9  7  1  0  0  0  0
 10  9  1  0  0  0  0
 11 10  1  6  0  0  0
 11  8  1  0  0  0  0
 12  7  1  0  0  0  0
 15 13  1  0  0  0  0
 15 14  1  1  0  0  0
 16 17  1  6  0  0  0
 16 15  1  0  0  0  0
 18 16  1  0  0  0  0
 19 21  1  0  0  0  0
 21 20  1  1  0  0  0
 23 22  1  6  0  0  0
 23 25  1  0  0  0  0
 23 27  1  0  0  0  0
 24 26  1  0  0  0  0
 24 22  2  0  0  0  0
 25 28  1  6  0  0  0
 25 27  1  0  0  0  0
 26 28  1  0  0  0  0
 27 21  1  6  0  0  0
 29 34  1  0  0  0  0
 30 35  1  0  0  0  0
 32 36  2  0  0  0  0
 32 29  1  0  0  0  0
 33 22  1  0  0  0  0
 33 35  2  0  0  0  0
 34 30  1  0  0  0  0
 34 31  2  0  0  0  0
 36 33  1  0  0  0  0
 37 38  1  0  0  0  0
 38 29  1  0  0  0  0
 39  4  1  0  0  0  0
 40 45  1  6  0  0  0
 40 41  1  0  0  0  0
 42 40  1  0  0  0  0
 42 43  1  0  0  0  0
 43 44  1  0  0  0  0
 44 39  1  6  0  0  0
 44 41  1  0  0  0  0
 46 45  2  0  0  0  0
 47 45  1  0  0  0  0
 49 47  1  0  0  0  0
 49 48  1  0  0  0  0
M  END
>  <MODEL>
8

>  <REMARK>
 VINA RESULT:      -6.8      3.999      7.774
  Name = 
  14 active torsions:
  status: ('A' for Active; 'I' for Inactive)
    1  A    between atoms: C_1  and  O_22
    2  A    between atoms: C_3  and  C_9
    3  A    between atoms: C_4  and  C_47
    4  A    between atoms: C_5  and  C_28
    5  A    between atoms: C_8  and  C_18
    6  A    between atoms: C_9  and  N_48
    7  A    between atoms: N_12  and  C_42
    8  A    between atoms: C_15  and  C_25
    9  A    between atoms: C_18  and  C_47
   10  A    between atoms: O_22  and  C_38
   11  A    between atoms: C_25  and  C_45
   12  A    between atoms: C_34  and  C_49
   13  A    between atoms: C_37  and  C_38
   14  A    between atoms: N_41  and  N_48
                            x       y       z     vdW  Elec       q    Type
                         _______ _______ _______ _____ _____    ______ ____

>  <TORSDO>
F 14

$$$$
=
 OpenBabel10222419213D

 49 54  0  0  1  0  0  0  0  0999 V2000
  187.0930  178.2550  139.5710 C   0  0  2  0  0  3  0  0  0  0  0  0
  188.0810  177.8210  138.4870 C   0  0  0  0  0  2  0  0  0  0  0  0
  189.8120  177.7180  140.2880 C   0  0  0  0  0  3  0  0  0  0  0  0
  189.5070  177.7200  138.9790 C   0  0  0  0  0  0  0  0  0  0  0  0
  187.3930  177.5270  140.8760 C   0  0  0  0  0  2  0  0  0  0  0  0
  188.7810  177.9380  141.3700 C   0  0  1  0  0  3  0  0  0  0  0  0
  188.9280  177.3390  145.6520 C   0  0  2  0  0  3  0  0  0  0  0  0
  187.9610  176.6560  143.4250 C   0  0  0  0  0  2  0  0  0  0  0  0
  190.2690  177.4610  144.9060 C   0  0  0  0  0  2  0  0  0  0  0  0
  190.1080  178.0590  143.5120 C   0  0  0  0  0  2  0  0  0  0  0  0
  189.1840  177.1870  142.6440 C   0  0  2  0  0  3  0  0  0  0  0  0
  187.7120  177.4170  144.7240 C   0  0  0  0  0  2  0  0  0  0  0  0
  188.7960  178.4150  146.7230 C   0  0  0  0  0  2  0  0  0  0  0  0
  187.2100  176.8850  147.6780 O   0  0  0  0  0  1  0  0  0  0  0  0
  187.5300  178.2390  147.5660 C   0  0  2  0  0  3  0  0  0  0  0  0
  186.3440  178.9980  146.9780 C   0  0  1  0  0  3  0  0  0  0  0  0
  185.1160  178.1090  146.8800 C   0  0  0  0  0  1  0  0  0  0  0  0
  186.0510  180.1280  147.7410 O   0  0  0  0  0  1  0  0  0  0  0  0
  185.7950  177.9540  139.1590 O   0  0  0  0  0  0  0  0  0  0  0  0
  185.7360  179.7510  140.5920 O   0  0  0  0  0  1  0  0  0  0  0  0
  184.9800  178.8750  139.8190 C   0  0  2  0  0  3  0  0  0  0  0  0
  182.7310  177.5750  138.2540 C   0  0  0  0  0  0  0  0  0  0  0  0
  182.6450  177.5550  139.7740 C   0  0  2  0  0  3  0  0  0  0  0  0
  182.1450  178.5620  137.5600 C   0  0  0  0  0  3  0  0  0  0  0  0
  182.3580  178.9120  140.4460 C   0  0  1  0  0  3  0  0  0  0  0  0
  181.4190  179.6690  138.2430 C   0  0  0  0  0  2  0  0  0  0  0  0
  183.7550  178.2720  140.5670 C   0  0  2  0  0  3  0  0  0  0  0  0
  182.2020  180.0870  139.4710 C   0  0  0  0  0  2  0  0  0  0  0  0
  185.8040  174.8450  136.4710 N   0  0  0  0  0  0  0  0  0  0  0  0
  183.5810  173.9410  137.2860 C   0  0  0  0  0  2  0  0  0  0  0  0
  185.6690  173.0540  137.9690 O   0  0  0  0  0  0  0  0  0  0  0  0
  185.2300  176.0180  135.8780 C   0  0  0  0  0  3  0  0  0  0  0  0
  183.3520  176.4190  137.5470 C   0  0  0  0  0  0  0  0  0  0  0  0
  185.0670  173.9180  137.2780 C   0  0  0  0  0  0  0  0  0  0  0  0
  183.0960  175.1710  137.9670 C   0  0  0  0  0  3  0  0  0  0  0  0
  184.1760  176.7000  136.3480 C   0  0  0  0  0  3  0  0  0  0  0  0
  187.6060  175.3730  135.0930 O   0  0  0  0  0  1  0  0  0  0  0  0
  187.1880  174.5510  136.1380 C   0  0  0  0  0  2  0  0  0  0  0  0
  190.5860  177.4570  137.9760 C   0  0  0  0  0  2  0  0  0  0  0  0
  192.0960  174.8140  136.6500 C   0  0  2  0  0  3  0  0  0  0  0  0
  191.3390  175.9950  136.1050 C   0  0  0  0  0  2  0  0  0  0  0  0
  191.4960  174.4640  137.9320 N   0  0  0  0  0  2  0  0  0  0  0  0
  190.2150  175.0470  137.9690 N   0  0  0  0  0  2  0  0  0  0  0  0
  190.2570  176.2320  137.1250 C   0  0  1  0  0  3  0  0  0  0  0  0
  193.5390  175.1630  136.8240 C   0  0  0  0  0  0  0  0  0  0  0  0
  194.1620  176.4080  135.9540 S   0  0  0  0  0  0  0  0  0  0  0  0
  194.3130  174.5100  137.8340 N   0  0  0  0  0  2  0  0  0  0  0  0
  195.9100  174.5130  139.4690 C   0  0  0  0  0  1  0  0  0  0  0  0
  195.6460  174.8600  138.0870 N   0  0  0  0  0  2  0  0  0  0  0  0
  1 19  1  6  0  0  0
  1  5  1  0  0  0  0
  2  4  1  0  0  0  0
  2  1  1  0  0  0  0
  4  3  2  0  0  0  0
  5  6  1  0  0  0  0
  6  3  1  6  0  0  0
  6 11  1  0  0  0  0
  7 13  1  1  0  0  0
  8 12  1  0  0  0  0
  9  7  1  0  0  0  0
 10  9  1  0  0  0  0
 11  8  1  1  0  0  0
 11 10  1  0  0  0  0
 12  7  1  0  0  0  0
 13 15  1  0  0  0  0
 15 14  1  6  0  0  0
 16 17  1  1  0  0  0
 16 15  1  0  0  0  0
 16 18  1  0  0  0  0
 19 21  1  0  0  0  0
 21 20  1  1  0  0  0
 23 22  1  6  0  0  0
 23 25  1  0  0  0  0
 23 27  1  0  0  0  0
 24 26  1  0  0  0  0
 24 22  2  0  0  0  0
 25 28  1  6  0  0  0
 25 27  1  0  0  0  0
 26 28  1  0  0  0  0
 27 21  1  6  0  0  0
 29 34  1  0  0  0  0
 30 35  1  0  0  0  0
 32 36  2  0  0  0  0
 32 29  1  0  0  0  0
 33 35  2  0  0  0  0
 33 22  1  0  0  0  0
 34 30  1  0  0  0  0
 34 31  2  0  0  0  0
 36 33  1  0  0  0  0
 37 38  1  0  0  0  0
 38 29  1  0  0  0  0
 39  4  1  0  0  0  0
 40 45  1  1  0  0  0
 40 42  1  0  0  0  0
 41 40  1  0  0  0  0
 41 44  1  0  0  0  0
 42 43  1  0  0  0  0
 44 43  1  0  0  0  0
 44 39  1  1  0  0  0
 45 47  1  0  0  0  0
 46 45  2  0  0  0  0
 47 49  1  0  0  0  0
 49 48  1  0  0  0  0
M  END
>  <MODEL>
9

>  <REMARK>
 VINA RESULT:      -6.7      3.556      7.928
  Name = 
  14 active torsions:
  status: ('A' for Active; 'I' for Inactive)
    1  A    between atoms: C_1  and  O_22
    2  A    between atoms: C_3  and  C_9
    3  A    between atoms: C_4  and  C_47
    4  A    between atoms: C_5  and  C_28
    5  A    between atoms: C_8  and  C_18
    6  A    between atoms: C_9  and  N_48
    7  A    between atoms: N_12  and  C_42
    8  A    between atoms: C_15  and  C_25
    9  A    between atoms: C_18  and  C_47
   10  A    between atoms: O_22  and  C_38
   11  A    between atoms: C_25  and  C_45
   12  A    between atoms: C_34  and  C_49
   13  A    between atoms: C_37  and  C_38
   14  A    between atoms: N_41  and  N_48
                            x       y       z     vdW  Elec       q    Type
                         _______ _______ _______ _____ _____    ______ ____

>  <TORSDO>
F 14

$$$$
