=
 OpenBabel10222419253D

 64 70  0  0  1  0  0  0  0  0999 V2000
  185.0790  178.9890  138.4680 C   0  0  0  0  0  2  0  0  0  0  0  0
  185.5180  178.0800  137.3430 C   0  0  2  0  0  3  0  0  0  0  0  0
  184.3340  177.6870  138.2130 C   0  0  2  0  0  3  0  0  0  0  0  0
  183.0480  177.9240  137.4600 C   0  0  0  0  0  0  0  0  0  0  0  0
  182.1260  178.7310  137.9010 N   0  0  0  0  0  0  0  0  0  0  0  0
  182.1490  177.7060  135.2760 O   0  0  0  0  0  0  0  0  0  0  0  0
  182.7750  177.1630  136.2280 C   0  0  0  0  0  0  0  0  0  0  0  0
  183.2230  175.8430  136.1240 O   0  0  0  0  0  0  0  0  0  0  0  0
  183.4580  175.0040  137.2530 C   0  0  0  0  0  2  0  0  0  0  0  0
  183.1430  172.6130  136.5030 C   0  0  0  0  0  2  0  0  0  0  0  0
  184.1510  173.6960  136.8670 C   0  0  1  0  0  3  0  0  0  0  0  0
  183.7400  171.2390  136.7480 C   0  0  0  0  0  2  0  0  0  0  0  0
  185.1720  173.9390  135.7930 C   0  0  0  0  0  3  0  0  0  0  0  0
  185.9870  173.0120  135.2820 C   0  0  0  0  0  3  0  0  0  0  0  0
  184.6470  170.8310  135.5980 C   0  0  0  0  0  2  0  0  0  0  0  0
  185.9450  171.5770  135.6040 C   0  0  0  0  0  0  0  0  0  0  0  0
  187.0410  170.8990  135.5130 N   0  0  0  0  0  2  0  0  0  0  0  0
  182.2000  179.5060  139.1380 C   0  0  1  0  0  3  0  0  0  0  0  0
  181.9480  180.9940  138.8230 C   0  0  0  0  0  3  0  0  0  0  0  0
  180.9170  181.1970  137.7270 C   0  0  0  0  0  2  0  0  0  0  0  0
  180.5440  181.4470  139.1780 C   0  0  0  0  0  2  0  0  0  0  0  0
  181.3510  178.8960  140.2810 C   0  0  2  0  0  3  0  0  0  0  0  0
  181.3950  178.9770  142.7750 C   0  0  0  0  0  3  0  0  0  0  0  0
  182.0950  178.8030  141.5770 C   0  0  0  0  0  0  0  0  0  0  0  0
  182.0650  178.9080  144.0010 C   0  0  0  0  0  3  0  0  0  0  0  0
  183.4770  178.5630  141.6130 C   0  0  0  0  0  3  0  0  0  0  0  0
  183.4420  178.6680  144.0330 C   0  0  0  0  0  3  0  0  0  0  0  0
  184.1480  178.4970  142.8390 C   0  0  0  0  0  3  0  0  0  0  0  0
  179.9200  174.1700  139.9190 C   0  0  0  0  0  1  0  0  0  0  0  0
  178.9390  176.4320  139.3010 C   0  0  0  0  0  2  0  0  0  0  0  0
  179.3330  177.7160  139.3930 N   0  0  0  0  0  0  0  0  0  0  0  0
  179.9480  175.6520  139.8170 C   0  0  0  0  0  0  0  0  0  0  0  0
  180.5610  177.6630  139.9510 C   0  0  0  0  0  0  0  0  0  0  0  0
  180.9710  176.4120  140.2400 N   0  0  0  0  0  0  0  0  0  0  0  0
  186.7250  177.2670  137.7680 C   0  0  0  0  0  2  0  0  0  0  0  0
  188.2460  178.9780  137.1040 O   0  0  0  0  0  0  0  0  0  0  0  0
  187.9500  177.7540  137.0640 C   0  0  0  0  0  0  0  0  0  0  0  0
  188.4280  175.6480  136.1230 N   0  0  0  0  0  0  0  0  0  0  0  0
  188.7820  176.8540  136.3320 N   0  0  0  0  0  0  0  0  0  0  0  0
  189.2890  174.7470  135.3760 C   0  0  0  0  0  2  0  0  0  0  0  0
  190.5590  172.7230  135.5440 O   0  0  0  0  0  0  0  0  0  0  0  0
  189.8710  173.6860  136.3050 C   0  0  1  0  0  3  0  0  0  0  0  0
  191.3620  173.5950  136.3060 C   0  0  2  0  0  3  0  0  0  0  0  0
  192.8060  175.6340  135.9090 C   0  0  0  0  0  0  0  0  0  0  0  0
  192.0010  174.5610  135.4200 N   0  0  0  0  0  2  0  0  0  0  0  0
  193.3830  176.3940  135.0880 O   0  0  0  0  0  0  0  0  0  0  0  0
  193.0070  175.8270  137.3830 C   0  0  2  0  0  3  0  0  0  0  0  0
  194.0480  174.9040  137.9610 C   0  0  0  0  0  0  0  0  0  0  0  0
  195.1290  175.4120  138.6730 O   0  0  0  0  0  1  0  0  0  0  0  0
  193.9070  173.6550  137.8740 O   0  0  0  0  0  0  0  0  0  0  0  0
  191.6650  175.7060  138.0990 C   0  0  0  0  0  2  0  0  0  0  0  0
  191.7180  176.3460  139.4820 C   0  0  0  0  0  2  0  0  0  0  0  0
  189.8050  177.4090  140.7930 C   0  0  0  0  0  0  0  0  0  0  0  0
  188.9400  178.3230  140.8510 O   0  0  0  0  0  0  0  0  0  0  0  0
  190.6530  177.3310  139.6460 N   0  0  0  0  0  2  0  0  0  0  0  0
  188.2480  176.7850  143.7880 C   0  0  0  0  0  0  0  0  0  0  0  0
  192.1940  177.2350  142.3560 O   0  0  0  0  0  1  0  0  0  0  0  0
  191.0070  176.8210  142.9670 C   0  0  1  0  0  3  0  0  0  0  0  0
  187.0440  176.7240  144.1540 O   0  0  0  0  0  0  0  0  0  0  0  0
  188.6440  176.1750  142.5540 N   0  0  0  0  0  2  0  0  0  0  0  0
  190.2790  179.1030  143.3320 O   0  0  0  0  0  1  0  0  0  0  0  0
  190.5160  177.8790  143.9610 C   0  0  1  0  0  3  0  0  0  0  0  0
  189.2640  177.4110  144.7020 C   0  0  0  0  0  2  0  0  0  0  0  0
  189.9410  176.4270  141.9270 C   0  0  1  0  0  3  0  0  0  0  0  0
  2 35  1  1  0  0  0
  2  3  1  0  0  0  0
  2  1  1  0  0  0  0
  3  4  1  6  0  0  0
  3  1  1  0  0  0  0
  4  5  2  0  0  0  0
  6  7  2  0  0  0  0
  7  4  1  0  0  0  0
  8  7  1  0  0  0  0
  8  9  1  0  0  0  0
 10 12  1  0  0  0  0
 10 11  1  0  0  0  0
 11  9  1  6  0  0  0
 13 11  1  0  0  0  0
 14 16  1  0  0  0  0
 14 13  2  0  0  0  0
 15 16  1  0  0  0  0
 15 12  1  0  0  0  0
 17 16  2  0  0  0  0
 18  5  1  6  0  0  0
 19 18  1  0  0  0  0
 19 21  1  0  0  0  0
 20 19  1  0  0  0  0
 20 21  1  0  0  0  0
 22 18  1  6  0  0  0
 22 24  1  0  0  0  0
 23 25  1  0  0  0  0
 24 26  1  0  0  0  0
 24 23  2  0  0  0  0
 25 27  2  0  0  0  0
 26 28  2  0  0  0  0
 28 27  1  0  0  0  0
 30 31  1  0  0  0  0
 30 32  1  0  0  0  0
 31 33  2  0  0  0  0
 32 29  1  0  0  0  0
 32 34  2  0  0  0  0
 33 34  1  0  0  0  0
 33 22  1  0  0  0  0
 37 36  2  0  0  0  0
 37 35  1  0  0  0  0
 38 39  2  0  0  0  0
 39 37  1  0  0  0  0
 40 38  1  0  0  0  0
 41 42  1  0  0  0  0
 41 43  1  0  0  0  0
 42 40  1  6  0  0  0
 42 43  1  0  0  0  0
 43 45  1  6  0  0  0
 44 47  1  0  0  0  0
 45 44  1  0  0  0  0
 46 44  2  0  0  0  0
 47 48  1  0  0  0  0
 47 51  1  1  0  0  0
 48 49  1  0  0  0  0
 50 48  2  0  0  0  0
 51 52  1  0  0  0  0
 52 55  1  0  0  0  0
 53 54  2  0  0  0  0
 55 53  1  0  0  0  0
 56 59  2  0  0  0  0
 56 63  1  0  0  0  0
 58 57  1  6  0  0  0
 58 62  1  0  0  0  0
 60 56  1  0  0  0  0
 62 61  1  6  0  0  0
 62 63  1  0  0  0  0
 64 53  1  6  0  0  0
 64 60  1  0  0  0  0
 64 58  1  0  0  0  0
M  END
>  <MODEL>
1

>  <REMARK>
 VINA RESULT:      -7.0      0.000      0.000
  Name = 
  22 active torsions:
  status: ('A' for Active; 'I' for Inactive)
    1  A    between atoms: C_5  and  C_37
    2  A    between atoms: C_7  and  C_64
    3  A    between atoms: C_10  and  C_48
    4  A    between atoms: C_12  and  C_51
    5  A    between atoms: C_16  and  C_48
    6  A    between atoms: C_17  and  C_26
    7  A    between atoms: N_21  and  C_61
    8  A    between atoms: C_22  and  C_39
    9  A    between atoms: C_22  and  C_50
   10  A    between atoms: C_23  and  C_42
   11  A    between atoms: C_23  and  C_62
   12  A    between atoms: C_26  and  O_47
   13  A    between atoms: C_31  and  N_44
   14  A    between atoms: C_31  and  C_59
   15  A    between atoms: C_32  and  N_33
   16  A    between atoms: C_32  and  C_54
   17  A    between atoms: N_36  and  C_50
   18  A    between atoms: C_37  and  C_51
   19  A    between atoms: C_37  and  N_57
   20  A    between atoms: C_38  and  C_51
   21  A    between atoms: O_47  and  C_62
   22  A    between atoms: C_48  and  C_59
                            x       y       z     vdW  Elec       q    Type
                         _______ _______ _______ _____ _____    ______ ____

>  <TORSDO>
F 22

$$$$
=
 OpenBabel10222419253D

 64 70  0  0  1  0  0  0  0  0999 V2000
  189.2200  176.6450  137.9490 C   0  0  0  0  0  2  0  0  0  0  0  0
  190.7300  176.6530  137.9840 C   0  0  2  0  0  3  0  0  0  0  0  0
  189.9960  175.5040  137.3090 C   0  0  2  0  0  3  0  0  0  0  0  0
  190.0750  175.6590  135.8110 C   0  0  0  0  0  0  0  0  0  0  0  0
  189.0410  175.4720  135.0410 N   0  0  0  0  0  0  0  0  0  0  0  0
  191.5580  177.0540  134.5950 O   0  0  0  0  0  0  0  0  0  0  0  0
  191.3720  175.9490  135.1750 C   0  0  0  0  0  0  0  0  0  0  0  0
  192.3910  174.9930  135.2300 O   0  0  0  0  0  0  0  0  0  0  0  0
  193.7290  175.2490  134.8100 C   0  0  0  0  0  2  0  0  0  0  0  0
  194.0910  173.9760  136.9620 C   0  0  0  0  0  2  0  0  0  0  0  0
  194.7600  174.6530  135.7710 C   0  0  1  0  0  3  0  0  0  0  0  0
  195.0300  173.9710  138.1550 C   0  0  0  0  0  2  0  0  0  0  0  0
  195.7070  173.7520  135.0330 C   0  0  0  0  0  3  0  0  0  0  0  0
  196.7560  173.1270  135.5770 C   0  0  0  0  0  3  0  0  0  0  0  0
  196.0460  172.8450  138.0400 C   0  0  0  0  0  2  0  0  0  0  0  0
  197.0940  173.1280  137.0080 C   0  0  0  0  0  0  0  0  0  0  0  0
  198.3340  172.9900  137.3420 N   0  0  0  0  0  2  0  0  0  0  0  0
  187.7000  175.1090  135.4960 C   0  0  1  0  0  3  0  0  0  0  0  0
  186.7280  176.2660  135.1930 C   0  0  0  0  0  3  0  0  0  0  0  0
  185.9340  176.7020  136.4110 C   0  0  0  0  0  2  0  0  0  0  0  0
  187.0910  177.5510  135.9150 C   0  0  0  0  0  2  0  0  0  0  0  0
  187.2620  173.7030  135.0140 C   0  0  2  0  0  3  0  0  0  0  0  0
  186.0140  173.1570  137.1050 C   0  0  0  0  0  3  0  0  0  0  0  0
  186.0320  173.2040  135.7070 C   0  0  0  0  0  0  0  0  0  0  0  0
  184.8840  172.6850  137.7810 C   0  0  0  0  0  3  0  0  0  0  0  0
  184.9100  172.7690  134.9870 C   0  0  0  0  0  3  0  0  0  0  0  0
  183.7680  172.2520  137.0590 C   0  0  0  0  0  3  0  0  0  0  0  0
  183.7810  172.2930  135.6620 C   0  0  0  0  0  3  0  0  0  0  0  0
  191.7040  171.5270  134.7880 C   0  0  0  0  0  1  0  0  0  0  0  0
  189.2820  170.7540  134.7480 C   0  0  0  0  0  2  0  0  0  0  0  0
  188.0750  171.3480  134.8020 N   0  0  0  0  0  0  0  0  0  0  0  0
  190.2340  171.7460  134.8070 C   0  0  0  0  0  0  0  0  0  0  0  0
  188.3420  172.6690  134.8830 C   0  0  0  0  0  0  0  0  0  0  0  0
  189.6590  172.9560  134.9030 N   0  0  0  0  0  0  0  0  0  0  0  0
  191.2260  176.1860  139.3380 C   0  0  0  0  0  2  0  0  0  0  0  0
  190.1380  178.1570  140.1220 O   0  0  0  0  0  0  0  0  0  0  0  0
  190.6680  177.0530  140.4200 C   0  0  0  0  0  0  0  0  0  0  0  0
  191.4220  177.3240  142.6350 N   0  0  0  0  0  0  0  0  0  0  0  0
  190.7410  176.6570  141.7900 N   0  0  0  0  0  0  0  0  0  0  0  0
  191.4850  176.9050  144.0240 C   0  0  0  0  0  2  0  0  0  0  0  0
  190.1620  178.8890  144.2470 O   0  0  0  0  0  0  0  0  0  0  0  0
  191.0520  178.0470  144.9390 C   0  0  1  0  0  3  0  0  0  0  0  0
  189.5930  178.0860  145.2550 C   0  0  2  0  0  3  0  0  0  0  0  0
  187.4160  177.0250  144.5230 C   0  0  0  0  0  0  0  0  0  0  0  0
  188.8390  177.0000  144.6390 N   0  0  0  0  0  2  0  0  0  0  0  0
  186.8310  176.0860  143.9210 O   0  0  0  0  0  0  0  0  0  0  0  0
  186.6260  178.1790  145.0630 C   0  0  2  0  0  3  0  0  0  0  0  0
  186.5990  178.2200  146.5700 C   0  0  0  0  0  0  0  0  0  0  0  0
  187.4940  177.4610  147.3150 O   0  0  0  0  0  1  0  0  0  0  0  0
  185.8160  179.0040  147.1690 O   0  0  0  0  0  0  0  0  0  0  0  0
  185.2240  178.1620  144.4610 C   0  0  0  0  0  2  0  0  0  0  0  0
  185.1480  179.0420  143.2180 C   0  0  0  0  0  2  0  0  0  0  0  0
  184.1980  178.3940  140.9400 C   0  0  0  0  0  0  0  0  0  0  0  0
  184.3040  177.6680  139.9160 O   0  0  0  0  0  0  0  0  0  0  0  0
  185.1410  178.2340  142.0020 N   0  0  0  0  0  2  0  0  0  0  0  0
  180.7720  178.4050  141.1580 C   0  0  0  0  0  0  0  0  0  0  0  0
  183.7600  180.3120  138.8630 O   0  0  0  0  0  1  0  0  0  0  0  0
  182.6610  179.9800  139.6600 C   0  0  1  0  0  3  0  0  0  0  0  0
  179.9360  177.7530  141.8370 O   0  0  0  0  0  0  0  0  0  0  0  0
  181.9610  178.8990  141.7860 N   0  0  0  0  0  2  0  0  0  0  0  0
  182.3460  177.8620  138.5250 O   0  0  0  0  0  1  0  0  0  0  0  0
  181.7090  179.0450  138.9040 C   0  0  1  0  0  3  0  0  0  0  0  0
  180.4590  178.7370  139.7260 C   0  0  0  0  0  2  0  0  0  0  0  0
  183.0980  179.4200  141.0270 C   0  0  1  0  0  3  0  0  0  0  0  0
  1  2  1  0  0  0  0
  2 35  1  1  0  0  0
  3  4  1  6  0  0  0
  3  1  1  0  0  0  0
  3  2  1  0  0  0  0
  5  4  2  0  0  0  0
  6  7  2  0  0  0  0
  7  8  1  0  0  0  0
  7  4  1  0  0  0  0
  9  8  1  0  0  0  0
 10 12  1  0  0  0  0
 11  9  1  6  0  0  0
 11 10  1  0  0  0  0
 13 14  2  0  0  0  0
 13 11  1  0  0  0  0
 14 16  1  0  0  0  0
 15 12  1  0  0  0  0
 16 17  2  0  0  0  0
 16 15  1  0  0  0  0
 18  5  1  6  0  0  0
 19 18  1  0  0  0  0
 19 21  1  0  0  0  0
 19 20  1  0  0  0  0
 21 20  1  0  0  0  0
 22 18  1  1  0  0  0
 22 24  1  0  0  0  0
 23 25  1  0  0  0  0
 24 23  2  0  0  0  0
 26 28  2  0  0  0  0
 26 24  1  0  0  0  0
 27 25  2  0  0  0  0
 28 27  1  0  0  0  0
 29 32  1  0  0  0  0
 30 31  1  0  0  0  0
 30 32  1  0  0  0  0
 31 33  2  0  0  0  0
 32 34  2  0  0  0  0
 33 34  1  0  0  0  0
 33 22  1  0  0  0  0
 35 37  1  0  0  0  0
 36 37  2  0  0  0  0
 37 39  1  0  0  0  0
 38 40  1  0  0  0  0
 39 38  2  0  0  0  0
 41 42  1  0  0  0  0
 41 43  1  0  0  0  0
 42 40  1  6  0  0  0
 42 43  1  0  0  0  0
 43 45  1  6  0  0  0
 44 45  1  0  0  0  0
 44 47  1  0  0  0  0
 46 44  2  0  0  0  0
 47 51  1  1  0  0  0
 47 48  1  0  0  0  0
 48 50  2  0  0  0  0
 48 49  1  0  0  0  0
 52 51  1  0  0  0  0
 53 55  1  0  0  0  0
 54 53  2  0  0  0  0
 55 52  1  0  0  0  0
 56 60  1  0  0  0  0
 56 59  2  0  0  0  0
 58 57  1  6  0  0  0
 58 64  1  0  0  0  0
 62 61  1  1  0  0  0
 62 58  1  0  0  0  0
 62 63  1  0  0  0  0
 63 56  1  0  0  0  0
 64 53  1  6  0  0  0
 64 60  1  0  0  0  0
M  END
>  <MODEL>
2

>  <REMARK>
 VINA RESULT:      -5.0      2.511      9.398
  Name = 
  22 active torsions:
  status: ('A' for Active; 'I' for Inactive)
    1  A    between atoms: C_5  and  C_37
    2  A    between atoms: C_7  and  C_64
    3  A    between atoms: C_10  and  C_48
    4  A    between atoms: C_12  and  C_51
    5  A    between atoms: C_16  and  C_48
    6  A    between atoms: C_17  and  C_26
    7  A    between atoms: N_21  and  C_61
    8  A    between atoms: C_22  and  C_39
    9  A    between atoms: C_22  and  C_50
   10  A    between atoms: C_23  and  C_42
   11  A    between atoms: C_23  and  C_62
   12  A    between atoms: C_26  and  O_47
   13  A    between atoms: C_31  and  N_44
   14  A    between atoms: C_31  and  C_59
   15  A    between atoms: C_32  and  N_33
   16  A    between atoms: C_32  and  C_54
   17  A    between atoms: N_36  and  C_50
   18  A    between atoms: C_37  and  C_51
   19  A    between atoms: C_37  and  N_57
   20  A    between atoms: C_38  and  C_51
   21  A    between atoms: O_47  and  C_62
   22  A    between atoms: C_48  and  C_59
                            x       y       z     vdW  Elec       q    Type
                         _______ _______ _______ _____ _____    ______ ____

>  <TORSDO>
F 22

$$$$
=
 OpenBabel10222419253D

 64 70  0  0  1  0  0  0  0  0999 V2000
  183.6650  178.6580  137.8320 C   0  0  0  0  0  2  0  0  0  0  0  0
  184.0410  178.1770  136.4500 C   0  0  2  0  0  3  0  0  0  0  0  0
  183.0590  177.3730  137.2880 C   0  0  2  0  0  3  0  0  0  0  0  0
  181.6550  177.5940  136.7800 C   0  0  0  0  0  0  0  0  0  0  0  0
  180.7900  178.3150  137.4330 N   0  0  0  0  0  0  0  0  0  0  0  0
  180.7380  177.5830  134.5940 O   0  0  0  0  0  0  0  0  0  0  0  0
  181.2090  176.9120  135.5530 C   0  0  0  0  0  0  0  0  0  0  0  0
  181.3200  175.5210  135.4620 O   0  0  0  0  0  0  0  0  0  0  0  0
  182.2780  174.8640  134.6350 C   0  0  0  0  0  2  0  0  0  0  0  0
  183.1850  172.9860  136.0600 C   0  0  0  0  0  2  0  0  0  0  0  0
  183.4740  174.3460  135.4370 C   0  0  1  0  0  3  0  0  0  0  0  0
  184.0390  172.7870  137.3000 C   0  0  0  0  0  2  0  0  0  0  0  0
  184.7170  174.3590  134.5940 C   0  0  0  0  0  3  0  0  0  0  0  0
  185.9380  174.0240  135.0190 C   0  0  0  0  0  3  0  0  0  0  0  0
  185.4480  172.3560  136.9240 C   0  0  0  0  0  2  0  0  0  0  0  0
  186.2530  173.4800  136.3490 C   0  0  0  0  0  0  0  0  0  0  0  0
  187.4280  173.7020  136.8370 N   0  0  0  0  0  2  0  0  0  0  0  0
  181.0410  179.0000  138.7000 C   0  0  1  0  0  3  0  0  0  0  0  0
  180.5140  180.4460  138.6100 C   0  0  0  0  0  3  0  0  0  0  0  0
  181.4650  181.4580  139.2230 C   0  0  0  0  0  2  0  0  0  0  0  0
  181.3590  181.3320  137.7130 C   0  0  0  0  0  2  0  0  0  0  0  0
  180.5790  178.1790  139.9300 C   0  0  2  0  0  3  0  0  0  0  0  0
  182.6050  178.1690  141.3870 C   0  0  0  0  0  3  0  0  0  0  0  0
  181.2800  178.5720  141.1930 C   0  0  0  0  0  0  0  0  0  0  0  0
  183.2820  178.5110  142.5620 C   0  0  0  0  0  3  0  0  0  0  0  0
  180.6320  179.3200  142.1880 C   0  0  0  0  0  3  0  0  0  0  0  0
  182.6330  179.2570  143.5510 C   0  0  0  0  0  3  0  0  0  0  0  0
  181.3080  179.6600  143.3650 C   0  0  0  0  0  3  0  0  0  0  0  0
  178.9650  173.5050  140.2020 C   0  0  0  0  0  1  0  0  0  0  0  0
  180.8250  174.7320  138.9780 C   0  0  0  0  0  2  0  0  0  0  0  0
  181.2680  176.0010  138.9110 N   0  0  0  0  0  0  0  0  0  0  0  0
  179.7580  174.7100  139.8470 C   0  0  0  0  0  0  0  0  0  0  0  0
  180.4620  176.6940  139.7430 C   0  0  0  0  0  0  0  0  0  0  0  0
  179.5100  175.9390  140.3290 N   0  0  0  0  0  0  0  0  0  0  0  0
  185.3900  177.4870  136.4840 C   0  0  0  0  0  2  0  0  0  0  0  0
  186.5640  179.4880  137.0330 O   0  0  0  0  0  0  0  0  0  0  0  0
  186.3530  178.2770  137.3090 C   0  0  0  0  0  0  0  0  0  0  0  0
  187.5000  178.3730  139.3650 N   0  0  0  0  0  0  0  0  0  0  0  0
  187.0540  177.6740  138.3980 N   0  0  0  0  0  0  0  0  0  0  0  0
  188.2110  177.7420  140.4630 C   0  0  0  0  0  2  0  0  0  0  0  0
  187.4700  178.3550  142.6570 O   0  0  0  0  0  0  0  0  0  0  0  0
  188.3550  178.7190  141.6260 C   0  0  1  0  0  3  0  0  0  0  0  0
  188.8360  178.1140  142.9050 C   0  0  2  0  0  3  0  0  0  0  0  0
  190.4110  176.1350  142.9460 C   0  0  0  0  0  0  0  0  0  0  0  0
  189.1000  176.6840  142.8040 N   0  0  0  0  0  2  0  0  0  0  0  0
  190.5610  174.8850  142.9150 O   0  0  0  0  0  0  0  0  0  0  0  0
  191.5920  177.0290  143.1830 C   0  0  2  0  0  3  0  0  0  0  0  0
  191.5220  177.7610  144.4990 C   0  0  0  0  0  0  0  0  0  0  0  0
  191.6360  179.1450  144.5470 O   0  0  0  0  0  0  0  0  0  0  0  0
  191.2790  177.1300  145.5620 O   0  0  0  0  0  1  0  0  0  0  0  0
  191.7540  177.9800  142.0010 C   0  0  0  0  0  2  0  0  0  0  0  0
  192.2270  177.2360  140.7560 C   0  0  0  0  0  2  0  0  0  0  0  0
  191.3180  176.5960  138.4590 C   0  0  0  0  0  0  0  0  0  0  0  0
  190.3950  176.7250  137.6120 O   0  0  0  0  0  0  0  0  0  0  0  0
  191.2430  177.3330  139.6810 N   0  0  0  0  0  2  0  0  0  0  0  0
  193.9910  176.4650  136.3090 C   0  0  0  0  0  0  0  0  0  0  0  0
  190.9060  173.8950  137.6140 O   0  0  0  0  0  1  0  0  0  0  0  0
  192.1150  174.4930  137.2500 C   0  0  1  0  0  3  0  0  0  0  0  0
  194.8450  177.3050  135.9200 O   0  0  0  0  0  0  0  0  0  0  0  0
  193.6320  176.4110  137.6950 N   0  0  0  0  0  2  0  0  0  0  0  0
  191.0640  175.7850  135.4900 O   0  0  0  0  0  1  0  0  0  0  0  0
  192.0970  174.8880  135.7690 C   0  0  1  0  0  3  0  0  0  0  0  0
  193.4390  175.4690  135.3280 C   0  0  0  0  0  2  0  0  0  0  0  0
  192.4720  175.6670  138.1830 C   0  0  1  0  0  3  0  0  0  0  0  0
  2 35  1  1  0  0  0
  2  3  1  0  0  0  0
  2  1  1  0  0  0  0
  3  4  1  6  0  0  0
  3  1  1  0  0  0  0
  4  5  2  0  0  0  0
  6  7  2  0  0  0  0
  7  4  1  0  0  0  0
  8  7  1  0  0  0  0
  9  8  1  0  0  0  0
 10 12  1  0  0  0  0
 11  9  1  6  0  0  0
 11 10  1  0  0  0  0
 13 14  2  0  0  0  0
 13 11  1  0  0  0  0
 14 16  1  0  0  0  0
 15 12  1  0  0  0  0
 16 17  2  0  0  0  0
 16 15  1  0  0  0  0
 18  5  1  6  0  0  0
 19 18  1  0  0  0  0
 19 20  1  0  0  0  0
 21 19  1  0  0  0  0
 21 20  1  0  0  0  0
 22 18  1  6  0  0  0
 22 24  1  0  0  0  0
 23 25  1  0  0  0  0
 24 23  2  0  0  0  0
 24 26  1  0  0  0  0
 25 27  2  0  0  0  0
 26 28  2  0  0  0  0
 28 27  1  0  0  0  0
 30 32  1  0  0  0  0
 31 30  1  0  0  0  0
 31 33  2  0  0  0  0
 32 29  1  0  0  0  0
 32 34  2  0  0  0  0
 33 22  1  0  0  0  0
 33 34  1  0  0  0  0
 35 37  1  0  0  0  0
 36 37  2  0  0  0  0
 37 39  1  0  0  0  0
 38 40  1  0  0  0  0
 39 38  2  0  0  0  0
 41 43  1  0  0  0  0
 42 40  1  6  0  0  0
 42 41  1  0  0  0  0
 42 43  1  0  0  0  0
 43 45  1  6  0  0  0
 44 47  1  0  0  0  0
 45 44  1  0  0  0  0
 46 44  2  0  0  0  0
 47 51  1  6  0  0  0
 47 48  1  0  0  0  0
 48 49  2  0  0  0  0
 48 50  1  0  0  0  0
 52 51  1  0  0  0  0
 53 55  1  0  0  0  0
 54 53  2  0  0  0  0
 55 52  1  0  0  0  0
 56 60  1  0  0  0  0
 58 57  1  1  0  0  0
 58 64  1  0  0  0  0
 59 56  2  0  0  0  0
 60 64  1  0  0  0  0
 62 61  1  1  0  0  0
 62 58  1  0  0  0  0
 63 62  1  0  0  0  0
 63 56  1  0  0  0  0
 64 53  1  6  0  0  0
M  END
>  <MODEL>
3

>  <REMARK>
 VINA RESULT:      -4.8      1.693      4.849
  Name = 
  22 active torsions:
  status: ('A' for Active; 'I' for Inactive)
    1  A    between atoms: C_5  and  C_37
    2  A    between atoms: C_7  and  C_64
    3  A    between atoms: C_10  and  C_48
    4  A    between atoms: C_12  and  C_51
    5  A    between atoms: C_16  and  C_48
    6  A    between atoms: C_17  and  C_26
    7  A    between atoms: N_21  and  C_61
    8  A    between atoms: C_22  and  C_39
    9  A    between atoms: C_22  and  C_50
   10  A    between atoms: C_23  and  C_42
   11  A    between atoms: C_23  and  C_62
   12  A    between atoms: C_26  and  O_47
   13  A    between atoms: C_31  and  N_44
   14  A    between atoms: C_31  and  C_59
   15  A    between atoms: C_32  and  N_33
   16  A    between atoms: C_32  and  C_54
   17  A    between atoms: N_36  and  C_50
   18  A    between atoms: C_37  and  C_51
   19  A    between atoms: C_37  and  N_57
   20  A    between atoms: C_38  and  C_51
   21  A    between atoms: O_47  and  C_62
   22  A    between atoms: C_48  and  C_59
                            x       y       z     vdW  Elec       q    Type
                         _______ _______ _______ _____ _____    ______ ____

>  <TORSDO>
F 22

$$$$
=
 OpenBabel10222419253D

 64 70  0  0  1  0  0  0  0  0999 V2000
  183.1640  176.6980  140.2000 C   0  0  0  0  0  2  0  0  0  0  0  0
  182.6440  178.1130  140.2980 C   0  0  2  0  0  3  0  0  0  0  0  0
  182.1710  177.2120  139.1680 C   0  0  2  0  0  3  0  0  0  0  0  0
  180.7720  176.7260  139.4560 C   0  0  0  0  0  0  0  0  0  0  0  0
  180.3140  175.6080  138.9690 N   0  0  0  0  0  0  0  0  0  0  0  0
  179.6700  177.3310  141.4670 O   0  0  0  0  0  0  0  0  0  0  0  0
  179.8550  177.5710  140.2410 C   0  0  0  0  0  0  0  0  0  0  0  0
  179.2020  178.6380  139.6180 O   0  0  0  0  0  0  0  0  0  0  0  0
  179.2160  179.9700  140.1270 C   0  0  0  0  0  2  0  0  0  0  0  0
  179.4160  182.4270  139.5780 C   0  0  0  0  0  2  0  0  0  0  0  0
  179.3730  181.0110  139.0170 C   0  0  1  0  0  3  0  0  0  0  0  0
  178.9370  183.4190  138.5330 C   0  0  0  0  0  2  0  0  0  0  0  0
  180.5530  180.6820  138.1500 C   0  0  0  0  0  3  0  0  0  0  0  0
  180.9230  181.3620  137.0610 C   0  0  0  0  0  3  0  0  0  0  0  0
  180.0450  183.7390  137.5420 C   0  0  0  0  0  2  0  0  0  0  0  0
  180.3030  182.6100  136.5920 C   0  0  0  0  0  0  0  0  0  0  0  0
  180.3390  182.8710  135.3270 N   0  0  0  0  0  2  0  0  0  0  0  0
  181.0610  174.6880  138.1130 C   0  0  1  0  0  3  0  0  0  0  0  0
  180.1190  173.5730  137.6190 C   0  0  0  0  0  3  0  0  0  0  0  0
  180.3830  172.2380  138.2910 C   0  0  0  0  0  2  0  0  0  0  0  0
  179.1790  173.0680  138.6990 C   0  0  0  0  0  2  0  0  0  0  0  0
  181.8880  175.4170  137.0240 C   0  0  2  0  0  3  0  0  0  0  0  0
  179.7560  175.9730  135.8530 C   0  0  0  0  0  3  0  0  0  0  0  0
  181.0630  176.3430  136.1850 C   0  0  0  0  0  0  0  0  0  0  0  0
  178.9650  176.8120  135.0600 C   0  0  0  0  0  3  0  0  0  0  0  0
  181.5780  177.5600  135.7150 C   0  0  0  0  0  3  0  0  0  0  0  0
  179.4820  178.0240  134.5940 C   0  0  0  0  0  3  0  0  0  0  0  0
  180.7880  178.3980  134.9200 C   0  0  0  0  0  3  0  0  0  0  0  0
  185.9470  172.9620  135.6070 C   0  0  0  0  0  1  0  0  0  0  0  0
  183.5840  173.2590  134.7190 C   0  0  0  0  0  2  0  0  0  0  0  0
  182.4840  173.9330  135.1010 N   0  0  0  0  0  0  0  0  0  0  0  0
  184.5700  173.5180  135.6430 C   0  0  0  0  0  0  0  0  0  0  0  0
  182.8460  174.5770  136.2310 C   0  0  0  0  0  0  0  0  0  0  0  0
  184.1190  174.3370  136.6060 N   0  0  0  0  0  0  0  0  0  0  0  0
  183.6680  179.0870  139.7490 C   0  0  0  0  0  2  0  0  0  0  0  0
  186.0220  179.2620  140.0810 O   0  0  0  0  0  0  0  0  0  0  0  0
  184.8900  179.0910  140.6080 C   0  0  0  0  0  0  0  0  0  0  0  0
  185.7770  179.1450  142.7900 N   0  0  0  0  0  0  0  0  0  0  0  0
  184.7970  178.8870  142.0190 N   0  0  0  0  0  0  0  0  0  0  0  0
  185.6630  178.9300  144.2220 C   0  0  0  0  0  2  0  0  0  0  0  0
  186.6160  176.8280  143.5800 O   0  0  0  0  0  0  0  0  0  0  0  0
  185.7980  177.4440  144.5440 C   0  0  1  0  0  3  0  0  0  0  0  0
  187.1850  176.9890  144.8590 C   0  0  2  0  0  3  0  0  0  0  0  0
  189.2540  178.0750  143.8900 C   0  0  0  0  0  0  0  0  0  0  0  0
  188.1700  178.0630  144.8190 N   0  0  0  0  0  2  0  0  0  0  0  0
  190.0310  179.0650  143.8640 O   0  0  0  0  0  0  0  0  0  0  0  0
  189.4400  176.9470  142.9190 C   0  0  2  0  0  3  0  0  0  0  0  0
  190.7200  176.1830  143.1420 C   0  0  0  0  0  0  0  0  0  0  0  0
  191.9220  176.8560  143.3310 O   0  0  0  0  0  1  0  0  0  0  0  0
  190.7000  174.9280  143.2380 O   0  0  0  0  0  0  0  0  0  0  0  0
  189.3240  177.4790  141.4930 C   0  0  0  0  0  2  0  0  0  0  0  0
  190.1340  176.6290  140.5200 C   0  0  0  0  0  2  0  0  0  0  0  0
  190.2220  176.7780  137.9750 C   0  0  0  0  0  0  0  0  0  0  0  0
  190.4270  177.5000  136.9630 O   0  0  0  0  0  0  0  0  0  0  0  0
  190.3820  177.3490  139.2750 N   0  0  0  0  0  2  0  0  0  0  0  0
  190.9830  174.1610  135.8880 C   0  0  0  0  0  0  0  0  0  0  0  0
  187.5180  176.0580  137.3790 O   0  0  0  0  0  1  0  0  0  0  0  0
  188.5140  175.1620  136.9800 C   0  0  1  0  0  3  0  0  0  0  0  0
  192.0580  173.6850  135.4350 O   0  0  0  0  0  0  0  0  0  0  0  0
  190.9030  174.5400  137.2670 N   0  0  0  0  0  2  0  0  0  0  0  0
  189.1420  176.5440  135.0900 O   0  0  0  0  0  1  0  0  0  0  0  0
  188.7500  175.2580  135.4680 C   0  0  1  0  0  3  0  0  0  0  0  0
  189.7750  174.2290  134.9960 C   0  0  0  0  0  2  0  0  0  0  0  0
  189.8030  175.3410  137.8040 C   0  0  1  0  0  3  0  0  0  0  0  0
  1  2  1  0  0  0  0
  2 35  1  6  0  0  0
  3  4  1  1  0  0  0
  3  1  1  0  0  0  0
  3  2  1  0  0  0  0
  4  7  1  0  0  0  0
  5  4  2  0  0  0  0
  7  6  2  0  0  0  0
  8  9  1  0  0  0  0
  8  7  1  0  0  0  0
 11 10  1  0  0  0  0
 11  9  1  1  0  0  0
 12 10  1  0  0  0  0
 13 11  1  0  0  0  0
 14 13  2  0  0  0  0
 15 12  1  0  0  0  0
 16 14  1  0  0  0  0
 16 15  1  0  0  0  0
 17 16  2  0  0  0  0
 18  5  1  6  0  0  0
 19 18  1  0  0  0  0
 19 20  1  0  0  0  0
 19 21  1  0  0  0  0
 20 21  1  0  0  0  0
 22 18  1  6  0  0  0
 23 24  1  0  0  0  0
 24 22  1  0  0  0  0
 25 23  2  0  0  0  0
 26 24  2  0  0  0  0
 27 28  2  0  0  0  0
 27 25  1  0  0  0  0
 28 26  1  0  0  0  0
 29 32  1  0  0  0  0
 30 31  1  0  0  0  0
 30 32  1  0  0  0  0
 31 33  2  0  0  0  0
 32 34  2  0  0  0  0
 33 34  1  0  0  0  0
 33 22  1  0  0  0  0
 35 37  1  0  0  0  0
 36 37  2  0  0  0  0
 37 39  1  0  0  0  0
 38 40  1  0  0  0  0
 39 38  2  0  0  0  0
 41 42  1  0  0  0  0
 41 43  1  0  0  0  0
 42 40  1  6  0  0  0
 42 43  1  0  0  0  0
 43 45  1  6  0  0  0
 44 45  1  0  0  0  0
 46 44  2  0  0  0  0
 47 51  1  6  0  0  0
 47 48  1  0  0  0  0
 47 44  1  0  0  0  0
 48 50  2  0  0  0  0
 48 49  1  0  0  0  0
 52 51  1  0  0  0  0
 53 55  1  0  0  0  0
 54 53  2  0  0  0  0
 55 52  1  0  0  0  0
 56 60  1  0  0  0  0
 58 57  1  1  0  0  0
 58 64  1  0  0  0  0
 59 56  2  0  0  0  0
 60 64  1  0  0  0  0
 62 61  1  1  0  0  0
 62 58  1  0  0  0  0
 63 62  1  0  0  0  0
 63 56  1  0  0  0  0
 64 53  1  6  0  0  0
M  END
>  <MODEL>
4

>  <REMARK>
 VINA RESULT:      -4.8      2.548      7.799
  Name = 
  22 active torsions:
  status: ('A' for Active; 'I' for Inactive)
    1  A    between atoms: C_5  and  C_37
    2  A    between atoms: C_7  and  C_64
    3  A    between atoms: C_10  and  C_48
    4  A    between atoms: C_12  and  C_51
    5  A    between atoms: C_16  and  C_48
    6  A    between atoms: C_17  and  C_26
    7  A    between atoms: N_21  and  C_61
    8  A    between atoms: C_22  and  C_39
    9  A    between atoms: C_22  and  C_50
   10  A    between atoms: C_23  and  C_42
   11  A    between atoms: C_23  and  C_62
   12  A    between atoms: C_26  and  O_47
   13  A    between atoms: C_31  and  N_44
   14  A    between atoms: C_31  and  C_59
   15  A    between atoms: C_32  and  N_33
   16  A    between atoms: C_32  and  C_54
   17  A    between atoms: N_36  and  C_50
   18  A    between atoms: C_37  and  C_51
   19  A    between atoms: C_37  and  N_57
   20  A    between atoms: C_38  and  C_51
   21  A    between atoms: O_47  and  C_62
   22  A    between atoms: C_48  and  C_59
                            x       y       z     vdW  Elec       q    Type
                         _______ _______ _______ _____ _____    ______ ____

>  <TORSDO>
F 22

$$$$
=
 OpenBabel10222419253D

 64 70  0  0  1  0  0  0  0  0999 V2000
  190.0390  176.9120  139.3090 C   0  0  0  0  0  2  0  0  0  0  0  0
  191.5240  177.0070  139.5710 C   0  0  2  0  0  3  0  0  0  0  0  0
  190.9640  175.8040  138.8280 C   0  0  2  0  0  3  0  0  0  0  0  0
  191.2620  175.9310  137.3550 C   0  0  0  0  0  0  0  0  0  0  0  0
  190.3360  175.8000  136.4480 N   0  0  0  0  0  0  0  0  0  0  0  0
  193.4770  176.7250  137.6510 O   0  0  0  0  0  0  0  0  0  0  0  0
  192.6520  176.1240  136.9070 C   0  0  0  0  0  0  0  0  0  0  0  0
  193.0460  175.6310  135.6600 O   0  0  0  0  0  0  0  0  0  0  0  0
  193.5990  174.3300  135.4700 C   0  0  0  0  0  2  0  0  0  0  0  0
  195.7170  175.6860  135.7150 C   0  0  0  0  0  2  0  0  0  0  0  0
  195.1090  174.3750  135.2290 C   0  0  1  0  0  3  0  0  0  0  0  0
  196.9860  175.9930  134.9400 C   0  0  0  0  0  2  0  0  0  0  0  0
  195.7720  173.1630  135.8170 C   0  0  0  0  0  3  0  0  0  0  0  0
  197.0730  172.8760  135.7240 C   0  0  0  0  0  3  0  0  0  0  0  0
  198.1610  175.2020  135.4930 C   0  0  0  0  0  2  0  0  0  0  0  0
  198.0930  173.7510  135.1280 C   0  0  0  0  0  0  0  0  0  0  0  0
  199.1390  173.2020  134.6060 N   0  0  0  0  0  2  0  0  0  0  0  0
  188.9230  175.5330  136.7120 C   0  0  1  0  0  3  0  0  0  0  0  0
  188.1680  176.8700  136.8450 C   0  0  0  0  0  3  0  0  0  0  0  0
  189.0530  178.0750  136.5830 C   0  0  0  0  0  2  0  0  0  0  0  0
  188.0560  177.6220  135.5310 C   0  0  0  0  0  2  0  0  0  0  0  0
  188.3140  174.4970  135.7330 C   0  0  2  0  0  3  0  0  0  0  0  0
  185.8920  174.3630  135.1470 C   0  0  0  0  0  3  0  0  0  0  0  0
  186.9070  174.1230  136.0790 C   0  0  0  0  0  0  0  0  0  0  0  0
  184.5660  174.0350  135.4460 C   0  0  0  0  0  3  0  0  0  0  0  0
  186.5840  173.5530  137.3200 C   0  0  0  0  0  3  0  0  0  0  0  0
  184.2490  173.4670  136.6840 C   0  0  0  0  0  3  0  0  0  0  0  0
  185.2570  173.2270  137.6210 C   0  0  0  0  0  3  0  0  0  0  0  0
  192.1560  171.3890  135.4180 C   0  0  0  0  0  1  0  0  0  0  0  0
  189.7510  171.4180  134.5940 C   0  0  0  0  0  2  0  0  0  0  0  0
  188.7100  172.2670  134.6730 N   0  0  0  0  0  0  0  0  0  0  0  0
  190.8100  171.9970  135.2550 C   0  0  0  0  0  0  0  0  0  0  0  0
  189.1780  173.3250  135.3690 C   0  0  0  0  0  0  0  0  0  0  0  0
  190.4620  173.1920  135.7580 N   0  0  0  0  0  0  0  0  0  0  0  0
  191.8310  176.5990  140.9980 C   0  0  0  0  0  2  0  0  0  0  0  0
  190.3670  178.3780  141.6120 O   0  0  0  0  0  0  0  0  0  0  0  0
  190.8970  177.2840  141.9430 C   0  0  0  0  0  0  0  0  0  0  0  0
  191.0060  177.2900  144.2970 N   0  0  0  0  0  0  0  0  0  0  0  0
  190.6100  176.7250  143.2260 N   0  0  0  0  0  0  0  0  0  0  0  0
  190.7050  176.7060  145.5920 C   0  0  0  0  0  2  0  0  0  0  0  0
  189.4390  178.7330  145.7650 O   0  0  0  0  0  0  0  0  0  0  0  0
  190.1230  177.7650  146.5240 C   0  0  1  0  0  3  0  0  0  0  0  0
  188.6320  177.8600  146.5210 C   0  0  2  0  0  3  0  0  0  0  0  0
  186.7800  177.1870  144.9350 C   0  0  0  0  0  0  0  0  0  0  0  0
  187.9930  176.8980  145.6300 N   0  0  0  0  0  2  0  0  0  0  0  0
  186.3160  176.3380  144.1290 O   0  0  0  0  0  0  0  0  0  0  0  0
  186.0880  178.5050  145.1200 C   0  0  2  0  0  3  0  0  0  0  0  0
  185.6690  178.7540  146.5470 C   0  0  0  0  0  0  0  0  0  0  0  0
  186.5450  179.3480  147.4490 O   0  0  0  0  0  1  0  0  0  0  0  0
  184.4910  178.5010  146.9140 O   0  0  0  0  0  0  0  0  0  0  0  0
  184.9170  178.6050  144.1470 C   0  0  0  0  0  2  0  0  0  0  0  0
  185.1680  179.6760  143.0910 C   0  0  0  0  0  2  0  0  0  0  0  0
  185.3570  178.7160  140.7340 C   0  0  0  0  0  0  0  0  0  0  0  0
  186.1150  178.3030  139.8170 O   0  0  0  0  0  0  0  0  0  0  0  0
  185.9360  179.1390  141.9710 N   0  0  0  0  0  2  0  0  0  0  0  0
  182.9000  176.6200  139.5720 C   0  0  0  0  0  0  0  0  0  0  0  0
  184.1690  180.5960  138.9340 O   0  0  0  0  0  1  0  0  0  0  0  0
  183.4600  179.4170  139.1760 C   0  0  1  0  0  3  0  0  0  0  0  0
  182.6170  175.4090  139.7680 O   0  0  0  0  0  0  0  0  0  0  0  0
  183.2680  177.4490  140.6810 N   0  0  0  0  0  2  0  0  0  0  0  0
  184.9170  178.1230  137.7350 O   0  0  0  0  0  1  0  0  0  0  0  0
  183.5850  178.4590  137.9850 C   0  0  1  0  0  3  0  0  0  0  0  0
  182.7480  177.1970  138.1930 C   0  0  0  0  0  2  0  0  0  0  0  0
  183.8680  178.7730  140.5150 C   0  0  1  0  0  3  0  0  0  0  0  0
  1  2  1  0  0  0  0
  2 35  1  1  0  0  0
  3  4  1  6  0  0  0
  3  1  1  0  0  0  0
  3  2  1  0  0  0  0
  5  4  2  0  0  0  0
  7  4  1  0  0  0  0
  7  6  2  0  0  0  0
  8  7  1  0  0  0  0
  9  8  1  0  0  0  0
 11  9  1  1  0  0  0
 11 10  1  0  0  0  0
 11 13  1  0  0  0  0
 12 15  1  0  0  0  0
 12 10  1  0  0  0  0
 14 13  2  0  0  0  0
 16 15  1  0  0  0  0
 16 14  1  0  0  0  0
 17 16  2  0  0  0  0
 18  5  1  6  0  0  0
 18 19  1  0  0  0  0
 20 19  1  0  0  0  0
 21 20  1  0  0  0  0
 21 19  1  0  0  0  0
 22 24  1  0  0  0  0
 22 18  1  1  0  0  0
 23 25  2  0  0  0  0
 23 24  1  0  0  0  0
 24 26  2  0  0  0  0
 25 27  1  0  0  0  0
 26 28  1  0  0  0  0
 27 28  2  0  0  0  0
 30 31  1  0  0  0  0
 30 32  1  0  0  0  0
 31 33  2  0  0  0  0
 32 29  1  0  0  0  0
 32 34  2  0  0  0  0
 33 22  1  0  0  0  0
 33 34  1  0  0  0  0
 35 37  1  0  0  0  0
 36 37  2  0  0  0  0
 37 39  1  0  0  0  0
 38 40  1  0  0  0  0
 39 38  2  0  0  0  0
 41 43  1  0  0  0  0
 41 42  1  0  0  0  0
 42 40  1  6  0  0  0
 43 45  1  6  0  0  0
 43 42  1  0  0  0  0
 44 47  1  0  0  0  0
 44 45  1  0  0  0  0
 46 44  2  0  0  0  0
 47 51  1  6  0  0  0
 47 48  1  0  0  0  0
 48 50  2  0  0  0  0
 48 49  1  0  0  0  0
 52 51  1  0  0  0  0
 53 55  1  0  0  0  0
 54 53  2  0  0  0  0
 55 52  1  0  0  0  0
 56 59  2  0  0  0  0
 56 60  1  0  0  0  0
 58 57  1  6  0  0  0
 58 64  1  0  0  0  0
 62 61  1  1  0  0  0
 62 63  1  0  0  0  0
 62 58  1  0  0  0  0
 63 56  1  0  0  0  0
 64 60  1  0  0  0  0
 64 53  1  6  0  0  0
M  END
>  <MODEL>
5

>  <REMARK>
 VINA RESULT:      -4.3      2.619      9.821
  Name = 
  22 active torsions:
  status: ('A' for Active; 'I' for Inactive)
    1  A    between atoms: C_5  and  C_37
    2  A    between atoms: C_7  and  C_64
    3  A    between atoms: C_10  and  C_48
    4  A    between atoms: C_12  and  C_51
    5  A    between atoms: C_16  and  C_48
    6  A    between atoms: C_17  and  C_26
    7  A    between atoms: N_21  and  C_61
    8  A    between atoms: C_22  and  C_39
    9  A    between atoms: C_22  and  C_50
   10  A    between atoms: C_23  and  C_42
   11  A    between atoms: C_23  and  C_62
   12  A    between atoms: C_26  and  O_47
   13  A    between atoms: C_31  and  N_44
   14  A    between atoms: C_31  and  C_59
   15  A    between atoms: C_32  and  N_33
   16  A    between atoms: C_32  and  C_54
   17  A    between atoms: N_36  and  C_50
   18  A    between atoms: C_37  and  C_51
   19  A    between atoms: C_37  and  N_57
   20  A    between atoms: C_38  and  C_51
   21  A    between atoms: O_47  and  C_62
   22  A    between atoms: C_48  and  C_59
                            x       y       z     vdW  Elec       q    Type
                         _______ _______ _______ _____ _____    ______ ____

>  <TORSDO>
F 22

$$$$
=
 OpenBabel10222419253D

 64 70  0  0  1  0  0  0  0  0999 V2000
  184.4510  179.0170  137.8470 C   0  0  0  0  0  2  0  0  0  0  0  0
  184.7730  178.0560  138.9670 C   0  0  2  0  0  3  0  0  0  0  0  0
  183.3610  178.6040  138.8250 C   0  0  2  0  0  3  0  0  0  0  0  0
  182.4610  177.5460  138.2360 C   0  0  0  0  0  0  0  0  0  0  0  0
  181.4580  177.8440  137.4620 N   0  0  0  0  0  0  0  0  0  0  0  0
  182.2320  175.7060  139.7150 O   0  0  0  0  0  0  0  0  0  0  0  0
  182.6580  176.1330  138.6060 C   0  0  0  0  0  0  0  0  0  0  0  0
  183.3120  175.2760  137.7160 O   0  0  0  0  0  0  0  0  0  0  0  0
  182.9970  173.8910  137.5880 C   0  0  0  0  0  2  0  0  0  0  0  0
  183.9690  173.0230  135.4240 C   0  0  0  0  0  2  0  0  0  0  0  0
  184.1330  173.0990  136.9370 C   0  0  1  0  0  3  0  0  0  0  0  0
  184.6590  171.7820  134.8850 C   0  0  0  0  0  2  0  0  0  0  0  0
  185.4650  173.6440  137.3620 C   0  0  0  0  0  3  0  0  0  0  0  0
  186.6510  173.1360  137.0160 C   0  0  0  0  0  3  0  0  0  0  0  0
  186.1560  172.0120  134.7480 C   0  0  0  0  0  2  0  0  0  0  0  0
  186.8540  172.0250  136.0730 C   0  0  0  0  0  0  0  0  0  0  0  0
  187.9000  171.2830  136.2200 N   0  0  0  0  0  2  0  0  0  0  0  0
  181.0750  179.1950  137.0540 C   0  0  1  0  0  3  0  0  0  0  0  0
  180.6340  179.1750  135.5770 C   0  0  0  0  0  3  0  0  0  0  0  0
  181.3430  180.2220  134.7370 C   0  0  0  0  0  2  0  0  0  0  0  0
  181.7460  178.7610  134.6300 C   0  0  0  0  0  2  0  0  0  0  0  0
  180.0990  179.8690  138.0500 C   0  0  2  0  0  3  0  0  0  0  0  0
  178.9640  182.0870  137.8980 C   0  0  0  0  0  3  0  0  0  0  0  0
  180.1570  181.3650  138.0050 C   0  0  0  0  0  0  0  0  0  0  0  0
  178.9880  183.4850  137.8420 C   0  0  0  0  0  3  0  0  0  0  0  0
  181.3800  182.0520  138.0500 C   0  0  0  0  0  3  0  0  0  0  0  0
  180.2090  184.1660  137.8870 C   0  0  0  0  0  3  0  0  0  0  0  0
  181.4040  183.4490  137.9900 C   0  0  0  0  0  3  0  0  0  0  0  0
  181.1730  178.9720  142.7990 C   0  0  0  0  0  1  0  0  0  0  0  0
  179.3680  178.2490  141.1620 C   0  0  0  0  0  2  0  0  0  0  0  0
  179.0810  178.4870  139.8690 N   0  0  0  0  0  0  0  0  0  0  0  0
  180.5120  178.9470  141.4690 C   0  0  0  0  0  0  0  0  0  0  0  0
  180.0630  179.3100  139.4420 C   0  0  0  0  0  0  0  0  0  0  0  0
  180.9570  179.6290  140.4000 N   0  0  0  0  0  0  0  0  0  0  0  0
  185.4670  178.7850  140.1010 C   0  0  0  0  0  2  0  0  0  0  0  0
  187.6960  179.3620  140.7170 O   0  0  0  0  0  0  0  0  0  0  0  0
  186.9470  178.7700  139.8950 C   0  0  0  0  0  0  0  0  0  0  0  0
  186.8130  177.4120  137.9750 N   0  0  0  0  0  0  0  0  0  0  0  0
  187.5250  178.1080  138.7700 N   0  0  0  0  0  0  0  0  0  0  0  0
  187.4190  176.7450  136.8360 C   0  0  0  0  0  2  0  0  0  0  0  0
  189.4580  177.9930  136.9830 O   0  0  0  0  0  0  0  0  0  0  0  0
  188.3850  177.6890  136.1260 C   0  0  1  0  0  3  0  0  0  0  0  0
  189.7560  177.1400  135.9020 C   0  0  2  0  0  3  0  0  0  0  0  0
  190.6830  175.4700  137.5610 C   0  0  0  0  0  0  0  0  0  0  0  0
  189.9200  175.7770  136.3930 N   0  0  0  0  0  2  0  0  0  0  0  0
  190.7300  174.2790  137.9680 O   0  0  0  0  0  0  0  0  0  0  0  0
  191.3780  176.5560  138.3260 C   0  0  2  0  0  3  0  0  0  0  0  0
  192.8660  176.3370  138.4380 C   0  0  0  0  0  0  0  0  0  0  0  0
  193.7340  177.4160  138.5590 O   0  0  0  0  0  1  0  0  0  0  0  0
  193.3300  175.1680  138.5050 O   0  0  0  0  0  0  0  0  0  0  0  0
  190.7140  176.7220  139.6900 C   0  0  0  0  0  2  0  0  0  0  0  0
  191.7250  176.5590  140.8190 C   0  0  0  0  0  2  0  0  0  0  0  0
  190.8750  177.7700  142.8980 C   0  0  0  0  0  0  0  0  0  0  0  0
  190.9480  178.7900  143.6330 O   0  0  0  0  0  0  0  0  0  0  0  0
  191.6900  177.7030  141.7250 N   0  0  0  0  0  2  0  0  0  0  0  0
  187.5590  177.3840  143.6970 C   0  0  0  0  0  0  0  0  0  0  0  0
  191.3010  176.1750  145.2340 O   0  0  0  0  0  1  0  0  0  0  0  0
  189.9900  176.2640  144.7600 C   0  0  1  0  0  3  0  0  0  0  0  0
  186.4840  177.8320  143.2170 O   0  0  0  0  0  0  0  0  0  0  0  0
  188.5870  176.9160  142.8150 N   0  0  0  0  0  2  0  0  0  0  0  0
  189.7040  178.4940  145.6630 O   0  0  0  0  0  1  0  0  0  0  0  0
  189.1610  177.2080  145.6380 C   0  0  1  0  0  3  0  0  0  0  0  0
  187.7020  177.2560  145.1870 C   0  0  0  0  0  2  0  0  0  0  0  0
  189.9500  176.6390  143.2660 C   0  0  1  0  0  3  0  0  0  0  0  0
  1  3  1  0  0  0  0
  1  2  1  0  0  0  0
  2 35  1  1  0  0  0
  3  4  1  6  0  0  0
  3  2  1  0  0  0  0
  4  7  1  0  0  0  0
  5  4  2  0  0  0  0
  7  6  2  0  0  0  0
  8  7  1  0  0  0  0
  9  8  1  0  0  0  0
 10 11  1  0  0  0  0
 11 13  1  0  0  0  0
 11  9  1  6  0  0  0
 12 10  1  0  0  0  0
 14 13  2  0  0  0  0
 15 12  1  0  0  0  0
 15 16  1  0  0  0  0
 16 17  2  0  0  0  0
 16 14  1  0  0  0  0
 18  5  1  1  0  0  0
 19 18  1  0  0  0  0
 20 19  1  0  0  0  0
 21 20  1  0  0  0  0
 21 19  1  0  0  0  0
 22 18  1  1  0  0  0
 22 33  1  0  0  0  0
 23 24  1  0  0  0  0
 24 26  2  0  0  0  0
 24 22  1  0  0  0  0
 25 27  1  0  0  0  0
 25 23  2  0  0  0  0
 27 28  2  0  0  0  0
 28 26  1  0  0  0  0
 30 32  1  0  0  0  0
 31 30  1  0  0  0  0
 32 29  1  0  0  0  0
 33 31  2  0  0  0  0
 33 34  1  0  0  0  0
 34 32  2  0  0  0  0
 37 35  1  0  0  0  0
 37 36  2  0  0  0  0
 38 39  2  0  0  0  0
 39 37  1  0  0  0  0
 40 38  1  0  0  0  0
 42 40  1  1  0  0  0
 42 41  1  0  0  0  0
 43 42  1  0  0  0  0
 43 45  1  1  0  0  0
 43 41  1  0  0  0  0
 44 46  2  0  0  0  0
 44 47  1  0  0  0  0
 45 44  1  0  0  0  0
 47 48  1  0  0  0  0
 47 51  1  1  0  0  0
 48 50  2  0  0  0  0
 48 49  1  0  0  0  0
 51 52  1  0  0  0  0
 52 55  1  0  0  0  0
 53 54  2  0  0  0  0
 55 53  1  0  0  0  0
 56 63  1  0  0  0  0
 58 57  1  1  0  0  0
 58 62  1  0  0  0  0
 59 56  2  0  0  0  0
 60 64  1  0  0  0  0
 60 56  1  0  0  0  0
 62 61  1  6  0  0  0
 63 62  1  0  0  0  0
 64 53  1  1  0  0  0
 64 58  1  0  0  0  0
M  END
>  <MODEL>
6

>  <REMARK>
 VINA RESULT:      -4.2      1.851      3.387
  Name = 
  22 active torsions:
  status: ('A' for Active; 'I' for Inactive)
    1  A    between atoms: C_5  and  C_37
    2  A    between atoms: C_7  and  C_64
    3  A    between atoms: C_10  and  C_48
    4  A    between atoms: C_12  and  C_51
    5  A    between atoms: C_16  and  C_48
    6  A    between atoms: C_17  and  C_26
    7  A    between atoms: N_21  and  C_61
    8  A    between atoms: C_22  and  C_39
    9  A    between atoms: C_22  and  C_50
   10  A    between atoms: C_23  and  C_42
   11  A    between atoms: C_23  and  C_62
   12  A    between atoms: C_26  and  O_47
   13  A    between atoms: C_31  and  N_44
   14  A    between atoms: C_31  and  C_59
   15  A    between atoms: C_32  and  N_33
   16  A    between atoms: C_32  and  C_54
   17  A    between atoms: N_36  and  C_50
   18  A    between atoms: C_37  and  C_51
   19  A    between atoms: C_37  and  N_57
   20  A    between atoms: C_38  and  C_51
   21  A    between atoms: O_47  and  C_62
   22  A    between atoms: C_48  and  C_59
                            x       y       z     vdW  Elec       q    Type
                         _______ _______ _______ _____ _____    ______ ____

>  <TORSDO>
F 22

$$$$
=
 OpenBabel10222419253D

 64 70  0  0  1  0  0  0  0  0999 V2000
  184.3320  178.5900  137.3020 C   0  0  0  0  0  2  0  0  0  0  0  0
  184.2520  178.0360  135.8990 C   0  0  2  0  0  3  0  0  0  0  0  0
  183.3250  177.4970  136.9790 C   0  0  2  0  0  3  0  0  0  0  0  0
  181.9380  178.0590  136.7870 C   0  0  0  0  0  0  0  0  0  0  0  0
  181.3500  178.7740  137.7040 N   0  0  0  0  0  0  0  0  0  0  0  0
  180.6950  178.6550  134.8580 O   0  0  0  0  0  0  0  0  0  0  0  0
  181.1810  177.7310  135.5670 C   0  0  0  0  0  0  0  0  0  0  0  0
  181.0150  176.3910  135.2030 O   0  0  0  0  0  0  0  0  0  0  0  0
  182.1020  175.5280  134.8750 C   0  0  0  0  0  2  0  0  0  0  0  0
  182.8830  173.6410  136.3610 C   0  0  0  0  0  2  0  0  0  0  0  0
  181.8540  174.0890  135.3300 C   0  0  1  0  0  3  0  0  0  0  0  0
  183.0400  172.1310  136.3220 C   0  0  0  0  0  2  0  0  0  0  0  0
  180.4370  173.9220  135.7970 C   0  0  0  0  0  3  0  0  0  0  0  0
  179.8910  172.7720  136.2010 C   0  0  0  0  0  3  0  0  0  0  0  0
  181.9190  171.4510  137.0930 C   0  0  0  0  0  2  0  0  0  0  0  0
  180.6130  171.5000  136.3600 C   0  0  0  0  0  0  0  0  0  0  0  0
  179.9520  170.4000  136.2150 N   0  0  0  0  0  2  0  0  0  0  0  0
  181.9250  179.1320  138.9990 C   0  0  1  0  0  3  0  0  0  0  0  0
  181.9160  180.6650  139.1540 C   0  0  0  0  0  3  0  0  0  0  0  0
  181.5410  181.3850  137.8710 C   0  0  0  0  0  2  0  0  0  0  0  0
  180.5320  181.2700  139.0000 C   0  0  0  0  0  2  0  0  0  0  0  0
  181.3160  178.3220  140.1720 C   0  0  2  0  0  3  0  0  0  0  0  0
  181.2330  178.8150  142.6160 C   0  0  0  0  0  3  0  0  0  0  0  0
  182.0060  178.5740  141.4760 C   0  0  0  0  0  0  0  0  0  0  0  0
  181.8490  179.0650  143.8470 C   0  0  0  0  0  3  0  0  0  0  0  0
  183.4060  178.5880  141.5750 C   0  0  0  0  0  3  0  0  0  0  0  0
  183.2440  179.0780  143.9410 C   0  0  0  0  0  3  0  0  0  0  0  0
  184.0230  178.8410  142.8050 C   0  0  0  0  0  3  0  0  0  0  0  0
  178.9360  174.0790  139.2500 C   0  0  0  0  0  1  0  0  0  0  0  0
  181.3610  174.8040  139.4840 C   0  0  0  0  0  2  0  0  0  0  0  0
  182.0060  175.9570  139.7430 N   0  0  0  0  0  0  0  0  0  0  0  0
  180.0120  175.0730  139.5000 C   0  0  0  0  0  0  0  0  0  0  0  0
  181.0290  176.8720  139.9120 C   0  0  0  0  0  0  0  0  0  0  0  0
  179.7860  176.3720  139.7570 N   0  0  0  0  0  0  0  0  0  0  0  0
  185.3640  177.0330  135.6680 C   0  0  0  0  0  2  0  0  0  0  0  0
  187.4800  178.1290  135.7590 O   0  0  0  0  0  0  0  0  0  0  0  0
  186.6060  177.4650  136.3790 C   0  0  0  0  0  0  0  0  0  0  0  0
  187.7010  177.7260  138.4480 N   0  0  0  0  0  0  0  0  0  0  0  0
  186.8240  177.1230  137.7480 N   0  0  0  0  0  0  0  0  0  0  0  0
  187.9090  177.3640  139.8390 C   0  0  0  0  0  2  0  0  0  0  0  0
  187.3810  178.6650  141.7800 O   0  0  0  0  0  0  0  0  0  0  0  0
  188.2340  178.6070  140.6630 C   0  0  1  0  0  3  0  0  0  0  0  0
  188.7250  178.3370  142.0480 C   0  0  2  0  0  3  0  0  0  0  0  0
  190.0690  176.2220  142.3910 C   0  0  0  0  0  0  0  0  0  0  0  0
  188.8220  176.9160  142.3610 N   0  0  0  0  0  2  0  0  0  0  0  0
  190.0910  175.0100  142.7330 O   0  0  0  0  0  0  0  0  0  0  0  0
  191.3490  176.9360  142.0710 C   0  0  2  0  0  3  0  0  0  0  0  0
  191.6520  178.0590  143.0290 C   0  0  0  0  0  0  0  0  0  0  0  0
  191.3410  177.9420  144.3790 O   0  0  0  0  0  1  0  0  0  0  0  0
  192.2640  179.0850  142.6300 O   0  0  0  0  0  0  0  0  0  0  0  0
  191.3180  177.4060  140.6200 C   0  0  0  0  0  2  0  0  0  0  0  0
  191.8780  176.3410  139.6830 C   0  0  0  0  0  2  0  0  0  0  0  0
  193.6190  176.3500  137.8180 C   0  0  0  0  0  0  0  0  0  0  0  0
  194.0890  176.9420  136.8100 O   0  0  0  0  0  0  0  0  0  0  0  0
  192.5340  176.9490  138.5290 N   0  0  0  0  0  2  0  0  0  0  0  0
  196.5010  175.2100  139.2950 C   0  0  0  0  0  0  0  0  0  0  0  0
  194.1170  174.2440  135.9470 O   0  0  0  0  0  1  0  0  0  0  0  0
  194.8860  174.2480  137.1130 C   0  0  1  0  0  3  0  0  0  0  0  0
  197.1950  175.5940  140.2730 O   0  0  0  0  0  0  0  0  0  0  0  0
  195.0730  175.1910  139.4050 N   0  0  0  0  0  2  0  0  0  0  0  0
  196.2930  176.0460  136.3010 O   0  0  0  0  0  1  0  0  0  0  0  0
  196.3050  174.7500  136.8210 C   0  0  1  0  0  3  0  0  0  0  0  0
  197.1880  174.6850  138.0660 C   0  0  0  0  0  2  0  0  0  0  0  0
  194.1920  175.0250  138.2490 C   0  0  1  0  0  3  0  0  0  0  0  0
  2 35  1  1  0  0  0
  2  3  1  0  0  0  0
  2  1  1  0  0  0  0
  3  4  1  6  0  0  0
  3  1  1  0  0  0  0
  4  5  2  0  0  0  0
  6  7  2  0  0  0  0
  7  4  1  0  0  0  0
  8  7  1  0  0  0  0
  9  8  1  0  0  0  0
 11  9  1  1  0  0  0
 11 13  1  0  0  0  0
 11 10  1  0  0  0  0
 12 10  1  0  0  0  0
 12 15  1  0  0  0  0
 13 14  2  0  0  0  0
 14 16  1  0  0  0  0
 16 15  1  0  0  0  0
 17 16  2  0  0  0  0
 18  5  1  6  0  0  0
 18 19  1  0  0  0  0
 20 21  1  0  0  0  0
 20 19  1  0  0  0  0
 21 19  1  0  0  0  0
 22 18  1  6  0  0  0
 22 24  1  0  0  0  0
 23 25  1  0  0  0  0
 24 26  1  0  0  0  0
 24 23  2  0  0  0  0
 25 27  2  0  0  0  0
 26 28  2  0  0  0  0
 28 27  1  0  0  0  0
 29 32  1  0  0  0  0
 30 32  1  0  0  0  0
 30 31  1  0  0  0  0
 31 33  2  0  0  0  0
 32 34  2  0  0  0  0
 33 22  1  0  0  0  0
 34 33  1  0  0  0  0
 35 37  1  0  0  0  0
 36 37  2  0  0  0  0
 37 39  1  0  0  0  0
 38 40  1  0  0  0  0
 39 38  2  0  0  0  0
 41 43  1  0  0  0  0
 42 40  1  6  0  0  0
 42 41  1  0  0  0  0
 42 43  1  0  0  0  0
 43 45  1  6  0  0  0
 44 46  2  0  0  0  0
 45 44  1  0  0  0  0
 47 51  1  6  0  0  0
 47 44  1  0  0  0  0
 47 48  1  0  0  0  0
 48 49  1  0  0  0  0
 50 48  2  0  0  0  0
 52 51  1  0  0  0  0
 53 55  1  0  0  0  0
 54 53  2  0  0  0  0
 55 52  1  0  0  0  0
 56 60  1  0  0  0  0
 56 59  2  0  0  0  0
 58 57  1  6  0  0  0
 58 64  1  0  0  0  0
 62 61  1  1  0  0  0
 62 58  1  0  0  0  0
 62 63  1  0  0  0  0
 63 56  1  0  0  0  0
 64 53  1  6  0  0  0
 64 60  1  0  0  0  0
M  END
>  <MODEL>
7

>  <REMARK>
 VINA RESULT:      -4.0      2.088      5.030
  Name = 
  22 active torsions:
  status: ('A' for Active; 'I' for Inactive)
    1  A    between atoms: C_5  and  C_37
    2  A    between atoms: C_7  and  C_64
    3  A    between atoms: C_10  and  C_48
    4  A    between atoms: C_12  and  C_51
    5  A    between atoms: C_16  and  C_48
    6  A    between atoms: C_17  and  C_26
    7  A    between atoms: N_21  and  C_61
    8  A    between atoms: C_22  and  C_39
    9  A    between atoms: C_22  and  C_50
   10  A    between atoms: C_23  and  C_42
   11  A    between atoms: C_23  and  C_62
   12  A    between atoms: C_26  and  O_47
   13  A    between atoms: C_31  and  N_44
   14  A    between atoms: C_31  and  C_59
   15  A    between atoms: C_32  and  N_33
   16  A    between atoms: C_32  and  C_54
   17  A    between atoms: N_36  and  C_50
   18  A    between atoms: C_37  and  C_51
   19  A    between atoms: C_37  and  N_57
   20  A    between atoms: C_38  and  C_51
   21  A    between atoms: O_47  and  C_62
   22  A    between atoms: C_48  and  C_59
                            x       y       z     vdW  Elec       q    Type
                         _______ _______ _______ _____ _____    ______ ____

>  <TORSDO>
F 22

$$$$
