=
 OpenBabel10222420463D

 39 42  0  0  1  0  0  0  0  0999 V2000
  190.0490  178.1760  143.0850 N   0  0  0  0  0  0  0  0  0  0  0  0
  187.7430  177.6120  142.5320 C   0  0  0  0  0  3  0  0  0  0  0  0
  189.1520  177.5130  145.2730 C   0  0  0  0  0  0  0  0  0  0  0  0
  189.1860  177.2730  142.3350 C   0  0  1  0  0  3  0  0  0  0  0  0
  187.1530  177.5960  143.7270 C   0  0  0  0  0  0  0  0  0  0  0  0
  190.0680  178.2540  144.3810 C   0  0  0  0  0  3  0  0  0  0  0  0
  187.8650  177.2770  144.9810 C   0  0  0  0  0  3  0  0  0  0  0  0
  190.6830  176.7770  140.4040 N   0  0  0  0  0  0  0  0  0  0  0  0
  188.7970  177.9570  139.9560 N   0  0  0  0  0  2  0  0  0  0  0  0
  189.5440  177.3210  140.8880 C   0  0  0  0  0  0  0  0  0  0  0  0
  190.6490  177.0850  139.0970 C   0  0  0  0  0  0  0  0  0  0  0  0
  189.5050  177.7990  138.8250 C   0  0  0  0  0  0  0  0  0  0  0  0
  191.4840  175.2030  137.7470 C   0  0  0  0  0  1  0  0  0  0  0  0
  191.6850  176.6600  138.1130 C   0  0  0  0  0  2  0  0  0  0  0  0
  189.0740  178.3170  137.4960 C   0  0  0  0  0  2  0  0  0  0  0  0
  188.9730  179.7080  137.5390 O   0  0  0  0  0  1  0  0  0  0  0  0
  185.6790  177.8280  143.7900 C   0  0  0  0  0  2  0  0  0  0  0  0
  185.2040  178.3680  142.5600 O   0  0  0  0  0  0  0  0  0  0  0  0
  182.9070  178.9410  143.1860 C   0  0  0  0  0  3  0  0  0  0  0  0
  183.8440  178.4780  142.2480 C   0  0  0  0  0  0  0  0  0  0  0  0
  181.1110  178.6490  141.5740 C   0  0  0  0  0  0  0  0  0  0  0  0
  182.0520  178.1910  140.6400 C   0  0  0  0  0  3  0  0  0  0  0  0
  183.4070  178.1100  140.9730 C   0  0  0  0  0  3  0  0  0  0  0  0
  181.5530  179.0180  142.8520 C   0  0  0  0  0  3  0  0  0  0  0  0
  179.6810  181.0810  140.3140 C   0  0  0  0  0  1  0  0  0  0  0  0
  179.0510  179.7940  140.5600 N   0  0  0  0  0  2  0  0  0  0  0  0
  179.6630  178.6990  141.2580 C   0  0  0  0  0  0  0  0  0  0  0  0
  178.9320  177.7340  141.6080 O   0  0  0  0  0  0  0  0  0  0  0  0
  189.6700  177.1560  146.6370 C   0  0  1  0  0  3  0  0  0  0  0  0
  191.5580  175.6750  147.3020 C   0  0  1  0  0  3  0  0  0  0  0  0
  191.1940  176.9950  146.6500 C   0  0  1  0  0  3  0  0  0  0  0  0
  191.6010  175.8100  145.7950 C   0  0  0  0  0  2  0  0  0  0  0  0
  192.9820  176.7050  148.9730 N   0  0  0  0  0  1  0  0  0  0  0  0
  192.9640  175.7720  147.8600 C   0  0  0  0  0  2  0  0  0  0  0  0
  189.1410  178.1160  147.7160 C   0  0  2  0  0  3  0  0  0  0  0  0
  190.1270  178.3230  148.8610 C   0  0  0  0  0  1  0  0  0  0  0  0
  187.7890  177.6510  148.2400 C   0  0  0  0  0  2  0  0  0  0  0  0
  186.7200  178.5250  147.7460 C   0  0  0  0  0  0  0  0  0  0  0  0
  185.8770  179.2150  147.3540 N   0  0  0  0  0  0  0  0  0  0  0  0
  1  6  2  0  0  0  0
  2  5  2  0  0  0  0
  3 29  1  0  0  0  0
  4 10  1  6  0  0  0
  4  2  1  0  0  0  0
  4  1  1  0  0  0  0
  5 17  1  0  0  0  0
  5  7  1  0  0  0  0
  6  3  1  0  0  0  0
  7  3  2  0  0  0  0
  8 10  2  0  0  0  0
  9 10  1  0  0  0  0
 11  8  1  0  0  0  0
 12 11  2  0  0  0  0
 12  9  1  0  0  0  0
 13 14  1  0  0  0  0
 14 11  1  0  0  0  0
 15 16  1  0  0  0  0
 15 12  1  0  0  0  0
 18 17  1  0  0  0  0
 20 18  1  0  0  0  0
 20 19  2  0  0  0  0
 21 24  2  0  0  0  0
 22 23  2  0  0  0  0
 22 21  1  0  0  0  0
 23 20  1  0  0  0  0
 24 19  1  0  0  0  0
 25 26  1  0  0  0  0
 26 27  1  0  0  0  0
 27 21  1  0  0  0  0
 27 28  2  0  0  0  0
 29 35  1  1  0  0  0
 30 34  1  1  0  0  0
 31 29  1  6  0  0  0
 31 30  1  0  0  0  0
 32 31  1  0  0  0  0
 32 30  1  0  0  0  0
 34 33  1  0  0  0  0
 35 37  1  0  0  0  0
 35 36  1  1  0  0  0
 38 37  1  0  0  0  0
 39 38  3  0  0  0  0
M  END
>  <MODEL>
1

>  <REMARK>
 VINA RESULT:      -8.8      0.000      0.000
  Name = 
  13 active torsions:
  status: ('A' for Active; 'I' for Inactive)
    1  A    between atoms: O_1  and  C_2
    2  A    between atoms: O_1  and  C_17
    3  A    between atoms: C_2  and  C_32
    4  A    between atoms: C_4  and  C_36
    5  A    between atoms: C_10  and  C_20
    6  A    between atoms: C_11  and  C_29
    7  A    between atoms: C_12  and  C_16
    8  A    between atoms: C_12  and  C_20
    9  A    between atoms: C_16  and  C_22
   10  A    between atoms: C_18  and  C_19
   11  A    between atoms: C_20  and  C_24
   12  A    between atoms: C_21  and  C_26
   13  A    between atoms: CA_27  and  C_35
                            x       y       z     vdW  Elec       q    Type
                         _______ _______ _______ _____ _____    ______ ____

>  <TORSDO>
F 13

$$$$
=
 OpenBabel10222420463D

 39 42  0  0  1  0  0  0  0  0999 V2000
  190.7050  177.6830  141.9780 N   0  0  0  0  0  0  0  0  0  0  0  0
  188.5170  177.8390  140.9170 C   0  0  0  0  0  3  0  0  0  0  0  0
  189.1960  177.5520  143.9110 C   0  0  0  0  0  0  0  0  0  0  0  0
  189.7700  177.0390  141.0650 C   0  0  1  0  0  3  0  0  0  0  0  0
  187.7160  178.1270  141.9430 C   0  0  0  0  0  0  0  0  0  0  0  0
  190.4730  177.8720  143.2420 C   0  0  0  0  0  3  0  0  0  0  0  0
  187.9970  177.7160  143.3330 C   0  0  0  0  0  3  0  0  0  0  0  0
  189.7170  176.5560  138.6200 N   0  0  0  0  0  0  0  0  0  0  0  0
  191.7620  176.8460  139.5590 N   0  0  0  0  0  2  0  0  0  0  0  0
  190.4220  176.8320  139.7400 C   0  0  0  0  0  0  0  0  0  0  0  0
  190.6650  176.3880  137.6840 C   0  0  0  0  0  0  0  0  0  0  0  0
  191.9060  176.5660  138.2530 C   0  0  0  0  0  0  0  0  0  0  0  0
  189.6090  174.8040  136.1230 C   0  0  0  0  0  1  0  0  0  0  0  0
  190.3800  176.1030  136.2490 C   0  0  0  0  0  2  0  0  0  0  0  0
  193.2220  176.4880  137.5590 C   0  0  0  0  0  2  0  0  0  0  0  0
  194.1710  175.9160  138.4070 O   0  0  0  0  0  1  0  0  0  0  0  0
  186.4260  178.8250  141.6590 C   0  0  0  0  0  2  0  0  0  0  0  0
  185.5170  178.6560  142.7440 O   0  0  0  0  0  0  0  0  0  0  0  0
  183.2760  179.0410  143.6530 C   0  0  0  0  0  3  0  0  0  0  0  0
  184.1270  178.6970  142.5900 C   0  0  0  0  0  0  0  0  0  0  0  0
  181.3300  178.7310  142.2290 C   0  0  0  0  0  0  0  0  0  0  0  0
  182.1850  178.3910  141.1690 C   0  0  0  0  0  3  0  0  0  0  0  0
  183.5720  178.3780  141.3480 C   0  0  0  0  0  3  0  0  0  0  0  0
  181.8910  179.0500  143.4740 C   0  0  0  0  0  3  0  0  0  0  0  0
  179.6900  180.8940  140.7530 C   0  0  0  0  0  1  0  0  0  0  0  0
  179.1350  179.6580  141.2800 N   0  0  0  0  0  2  0  0  0  0  0  0
  179.8560  178.7060  142.0760 C   0  0  0  0  0  0  0  0  0  0  0  0
  179.1990  177.8040  142.6620 O   0  0  0  0  0  0  0  0  0  0  0  0
  189.2630  177.1780  145.3640 C   0  0  1  0  0  3  0  0  0  0  0  0
  190.9280  176.1980  146.9350 C   0  0  1  0  0  3  0  0  0  0  0  0
  190.6820  177.3040  145.9260 C   0  0  1  0  0  3  0  0  0  0  0  0
  191.5070  176.0900  145.5410 C   0  0  0  0  0  2  0  0  0  0  0  0
  193.1030  175.6850  147.8780 N   0  0  0  0  0  1  0  0  0  0  0  0
  192.0100  176.6420  147.9000 C   0  0  0  0  0  2  0  0  0  0  0  0
  188.2020  177.9220  146.1930 C   0  0  2  0  0  3  0  0  0  0  0  0
  188.6060  178.0990  147.6530 C   0  0  0  0  0  1  0  0  0  0  0  0
  186.8480  177.2360  146.0830 C   0  0  0  0  0  2  0  0  0  0  0  0
  185.7750  178.1500  146.4880 C   0  0  0  0  0  0  0  0  0  0  0  0
  184.9300  178.8740  146.8070 N   0  0  0  0  0  0  0  0  0  0  0  0
  1  6  2  0  0  0  0
  2  4  1  0  0  0  0
  2  5  2  0  0  0  0
  3 29  1  0  0  0  0
  4 10  1  6  0  0  0
  4  1  1  0  0  0  0
  5  7  1  0  0  0  0
  6  3  1  0  0  0  0
  7  3  2  0  0  0  0
  8 10  2  0  0  0  0
  9 10  1  0  0  0  0
 11 12  2  0  0  0  0
 11  8  1  0  0  0  0
 12  9  1  0  0  0  0
 13 14  1  0  0  0  0
 14 11  1  0  0  0  0
 15 12  1  0  0  0  0
 15 16  1  0  0  0  0
 17  5  1  0  0  0  0
 17 18  1  0  0  0  0
 20 18  1  0  0  0  0
 20 19  2  0  0  0  0
 21 24  2  0  0  0  0
 22 23  2  0  0  0  0
 22 21  1  0  0  0  0
 23 20  1  0  0  0  0
 24 19  1  0  0  0  0
 25 26  1  0  0  0  0
 26 27  1  0  0  0  0
 27 21  1  0  0  0  0
 27 28  2  0  0  0  0
 29 35  1  1  0  0  0
 30 34  1  1  0  0  0
 31 29  1  6  0  0  0
 31 30  1  0  0  0  0
 32 31  1  0  0  0  0
 32 30  1  0  0  0  0
 33 34  1  0  0  0  0
 35 36  1  1  0  0  0
 37 35  1  0  0  0  0
 37 38  1  0  0  0  0
 38 39  3  0  0  0  0
M  END
>  <MODEL>
2

>  <REMARK>
 VINA RESULT:      -8.8      1.555      1.987
  Name = 
  13 active torsions:
  status: ('A' for Active; 'I' for Inactive)
    1  A    between atoms: O_1  and  C_2
    2  A    between atoms: O_1  and  C_17
    3  A    between atoms: C_2  and  C_32
    4  A    between atoms: C_4  and  C_36
    5  A    between atoms: C_10  and  C_20
    6  A    between atoms: C_11  and  C_29
    7  A    between atoms: C_12  and  C_16
    8  A    between atoms: C_12  and  C_20
    9  A    between atoms: C_16  and  C_22
   10  A    between atoms: C_18  and  C_19
   11  A    between atoms: C_20  and  C_24
   12  A    between atoms: C_21  and  C_26
   13  A    between atoms: CA_27  and  C_35
                            x       y       z     vdW  Elec       q    Type
                         _______ _______ _______ _____ _____    ______ ____

>  <TORSDO>
F 13

$$$$
=
 OpenBabel10222420463D

 39 42  0  0  1  0  0  0  0  0999 V2000
  190.0450  178.1170  142.9770 N   0  0  0  0  0  0  0  0  0  0  0  0
  187.7480  177.6100  142.3400 C   0  0  0  0  0  3  0  0  0  0  0  0
  189.0400  177.5250  145.1390 C   0  0  0  0  0  0  0  0  0  0  0  0
  189.1860  177.2250  142.2090 C   0  0  1  0  0  3  0  0  0  0  0  0
  187.1090  177.6360  143.5090 C   0  0  0  0  0  0  0  0  0  0  0  0
  190.0130  178.2200  144.2710 C   0  0  0  0  0  3  0  0  0  0  0  0
  187.7590  177.3210  144.7970 C   0  0  0  0  0  3  0  0  0  0  0  0
  189.0180  178.0280  139.8550 N   0  0  0  0  0  0  0  0  0  0  0  0
  190.5550  176.4130  140.2750 N   0  0  0  0  0  2  0  0  0  0  0  0
  189.6040  177.2330  140.7770 C   0  0  0  0  0  0  0  0  0  0  0  0
  189.6350  177.6910  138.7110 C   0  0  0  0  0  0  0  0  0  0  0  0
  190.5690  176.7130  138.9650 C   0  0  0  0  0  0  0  0  0  0  0  0
  188.2040  177.6320  136.7080 C   0  0  0  0  0  1  0  0  0  0  0  0
  189.3590  178.3340  137.3940 C   0  0  0  0  0  2  0  0  0  0  0  0
  191.4820  176.0760  137.9760 C   0  0  0  0  0  2  0  0  0  0  0  0
  191.3410  174.6880  138.0260 O   0  0  0  0  0  1  0  0  0  0  0  0
  185.6410  177.9120  143.5070 C   0  0  0  0  0  2  0  0  0  0  0  0
  185.3390  179.0040  142.6410 O   0  0  0  0  0  0  0  0  0  0  0  0
  185.0400  179.0480  140.2110 C   0  0  0  0  0  3  0  0  0  0  0  0
  184.5280  178.8780  141.5070 C   0  0  0  0  0  0  0  0  0  0  0  0
  182.8390  178.6440  139.2610 C   0  0  0  0  0  0  0  0  0  0  0  0
  182.3330  178.4720  140.5590 C   0  0  0  0  0  3  0  0  0  0  0  0
  183.1710  178.5840  141.6720 C   0  0  0  0  0  3  0  0  0  0  0  0
  184.2000  178.9390  139.1010 C   0  0  0  0  0  3  0  0  0  0  0  0
  181.9940  176.0230  137.8610 C   0  0  0  0  0  1  0  0  0  0  0  0
  181.4840  177.3400  137.5170 N   0  0  0  0  0  2  0  0  0  0  0  0
  181.9600  178.5760  138.0690 C   0  0  0  0  0  0  0  0  0  0  0  0
  181.6020  179.6510  137.5170 O   0  0  0  0  0  0  0  0  0  0  0  0
  189.4900  177.1800  146.5290 C   0  0  1  0  0  3  0  0  0  0  0  0
  191.3540  175.6870  147.2360 C   0  0  1  0  0  3  0  0  0  0  0  0
  191.0120  177.0310  146.6210 C   0  0  1  0  0  3  0  0  0  0  0  0
  191.4790  175.8860  145.7410 C   0  0  0  0  0  2  0  0  0  0  0  0
  192.7600  176.8870  148.8050 N   0  0  0  0  0  1  0  0  0  0  0  0
  192.7250  175.7710  147.8750 C   0  0  0  0  0  2  0  0  0  0  0  0
  188.8990  178.1420  147.5740 C   0  0  2  0  0  3  0  0  0  0  0  0
  189.8350  178.3830  148.7550 C   0  0  0  0  0  1  0  0  0  0  0  0
  187.5370  177.6570  148.0490 C   0  0  0  0  0  2  0  0  0  0  0  0
  186.4740  178.5190  147.5220 C   0  0  0  0  0  0  0  0  0  0  0  0
  185.6350  179.2010  147.1080 N   0  0  0  0  0  0  0  0  0  0  0  0
  1  6  2  0  0  0  0
  2  5  2  0  0  0  0
  3 29  1  0  0  0  0
  4 10  1  6  0  0  0
  4  2  1  0  0  0  0
  4  1  1  0  0  0  0
  5  7  1  0  0  0  0
  6  3  1  0  0  0  0
  7  3  2  0  0  0  0
  8 10  2  0  0  0  0
  9 10  1  0  0  0  0
 11 12  2  0  0  0  0
 11  8  1  0  0  0  0
 12  9  1  0  0  0  0
 13 14  1  0  0  0  0
 14 11  1  0  0  0  0
 15 16  1  0  0  0  0
 15 12  1  0  0  0  0
 17  5  1  0  0  0  0
 18 17  1  0  0  0  0
 19 20  1  0  0  0  0
 20 23  2  0  0  0  0
 20 18  1  0  0  0  0
 21 22  2  0  0  0  0
 22 23  1  0  0  0  0
 24 21  1  0  0  0  0
 24 19  2  0  0  0  0
 26 25  1  0  0  0  0
 26 27  1  0  0  0  0
 27 21  1  0  0  0  0
 28 27  2  0  0  0  0
 29 35  1  1  0  0  0
 30 34  1  1  0  0  0
 31 29  1  6  0  0  0
 31 30  1  0  0  0  0
 32 31  1  0  0  0  0
 32 30  1  0  0  0  0
 34 33  1  0  0  0  0
 35 37  1  0  0  0  0
 35 36  1  1  0  0  0
 38 37  1  0  0  0  0
 39 38  3  0  0  0  0
M  END
>  <MODEL>
3

>  <REMARK>
 VINA RESULT:      -8.5      1.733      2.430
  Name = 
  13 active torsions:
  status: ('A' for Active; 'I' for Inactive)
    1  A    between atoms: O_1  and  C_2
    2  A    between atoms: O_1  and  C_17
    3  A    between atoms: C_2  and  C_32
    4  A    between atoms: C_4  and  C_36
    5  A    between atoms: C_10  and  C_20
    6  A    between atoms: C_11  and  C_29
    7  A    between atoms: C_12  and  C_16
    8  A    between atoms: C_12  and  C_20
    9  A    between atoms: C_16  and  C_22
   10  A    between atoms: C_18  and  C_19
   11  A    between atoms: C_20  and  C_24
   12  A    between atoms: C_21  and  C_26
   13  A    between atoms: CA_27  and  C_35
                            x       y       z     vdW  Elec       q    Type
                         _______ _______ _______ _____ _____    ______ ____

>  <TORSDO>
F 13

$$$$
=
 OpenBabel10222420463D

 39 42  0  0  1  0  0  0  0  0999 V2000
  188.5630  178.5740  138.5400 N   0  0  0  0  0  0  0  0  0  0  0  0
  189.0300  177.8370  140.8160 C   0  0  0  0  0  3  0  0  0  0  0  0
  190.5180  177.1240  138.2110 C   0  0  0  0  0  0  0  0  0  0  0  0
  188.0580  177.8190  139.6800 C   0  0  1  0  0  3  0  0  0  0  0  0
  190.2670  177.3540  140.7180 C   0  0  0  0  0  0  0  0  0  0  0  0
  189.6220  178.2460  137.8640 C   0  0  0  0  0  3  0  0  0  0  0  0
  190.8200  176.7810  139.4730 C   0  0  0  0  0  3  0  0  0  0  0  0
  186.4190  178.5610  141.4050 N   0  0  0  0  0  0  0  0  0  0  0  0
  185.7460  178.6780  139.2420 N   0  0  0  0  0  0  0  0  0  0  0  0
  186.7410  178.3740  140.1060 C   0  0  0  0  0  0  0  0  0  0  0  0
  185.1530  179.0090  141.3550 C   0  0  2  0  0  3  0  0  0  0  0  0
  184.7460  179.0810  140.0430 C   0  0  0  0  0  0  0  0  0  0  0  0
  184.3230  178.2600  143.5490 C   0  0  0  0  0  1  0  0  0  0  0  0
  184.3600  179.4030  142.5540 C   0  0  0  0  0  2  0  0  0  0  0  0
  183.4200  179.5470  139.5470 C   0  0  0  0  0  2  0  0  0  0  0  0
  183.5690  180.7460  138.8500 O   0  0  0  0  0  1  0  0  0  0  0  0
  191.1090  177.3070  141.9510 C   0  0  0  0  0  2  0  0  0  0  0  0
  190.5770  176.3720  142.8850 O   0  0  0  0  0  0  0  0  0  0  0  0
  190.5470  177.1470  145.2070 C   0  0  0  0  0  3  0  0  0  0  0  0
  189.8790  176.7540  144.0370 C   0  0  0  0  0  0  0  0  0  0  0  0
  188.4210  177.4820  146.3380 C   0  0  0  0  0  0  0  0  0  0  0  0
  187.7590  177.0910  145.1640 C   0  0  0  0  0  3  0  0  0  0  0  0
  188.4820  176.7340  144.0220 C   0  0  0  0  0  3  0  0  0  0  0  0
  189.8230  177.5000  146.3480 C   0  0  0  0  0  3  0  0  0  0  0  0
  185.8950  179.2580  146.4250 C   0  0  0  0  0  1  0  0  0  0  0  0
  186.4360  178.5430  147.5690 N   0  0  0  0  0  2  0  0  0  0  0  0
  187.6760  177.8200  147.5740 C   0  0  0  0  0  0  0  0  0  0  0  0
  188.1420  177.4490  148.6850 O   0  0  0  0  0  0  0  0  0  0  0  0
  191.2390  176.4500  137.0790 C   0  0  1  0  0  3  0  0  0  0  0  0
  193.0900  174.9210  136.4190 C   0  0  1  0  0  3  0  0  0  0  0  0
  192.5380  175.7820  137.5400 C   0  0  1  0  0  3  0  0  0  0  0  0
  193.7050  176.2740  136.7050 C   0  0  0  0  0  2  0  0  0  0  0  0
  194.6390  174.3460  138.1950 N   0  0  0  0  0  1  0  0  0  0  0  0
  193.9610  173.8340  137.0170 C   0  0  0  0  0  2  0  0  0  0  0  0
  190.3080  175.5140  136.2890 C   0  0  2  0  0  3  0  0  0  0  0  0
  189.6280  176.2080  135.1130 C   0  0  0  0  0  1  0  0  0  0  0  0
  189.2810  174.8680  137.2080 C   0  0  0  0  0  2  0  0  0  0  0  0
  188.8600  173.5700  136.6720 C   0  0  0  0  0  0  0  0  0  0  0  0
  188.5250  172.5460  136.2490 N   0  0  0  0  0  0  0  0  0  0  0  0
  1  4  1  0  0  0  0
  3  7  2  0  0  0  0
  4 10  1  1  0  0  0
  4  2  1  0  0  0  0
  5  2  2  0  0  0  0
  5 17  1  0  0  0  0
  6  3  1  0  0  0  0
  6  1  2  0  0  0  0
  7  5  1  0  0  0  0
  9 12  2  0  0  0  0
  9 10  1  0  0  0  0
 10  8  2  0  0  0  0
 11  8  1  0  0  0  0
 11 14  1  6  0  0  0
 12 11  1  0  0  0  0
 14 13  1  0  0  0  0
 15 12  1  0  0  0  0
 16 15  1  0  0  0  0
 17 18  1  0  0  0  0
 18 20  1  0  0  0  0
 19 24  1  0  0  0  0
 20 19  2  0  0  0  0
 21 24  2  0  0  0  0
 21 27  1  0  0  0  0
 22 21  1  0  0  0  0
 23 20  1  0  0  0  0
 23 22  2  0  0  0  0
 25 26  1  0  0  0  0
 26 27  1  0  0  0  0
 27 28  2  0  0  0  0
 29 35  1  1  0  0  0
 29  3  1  0  0  0  0
 30 32  1  0  0  0  0
 30 34  1  1  0  0  0
 30 31  1  0  0  0  0
 31 29  1  6  0  0  0
 32 31  1  0  0  0  0
 34 33  1  0  0  0  0
 35 36  1  6  0  0  0
 35 37  1  0  0  0  0
 38 37  1  0  0  0  0
 39 38  3  0  0  0  0
M  END
>  <MODEL>
4

>  <REMARK>
 VINA RESULT:      -8.4      2.966      8.500
  Name = 
  13 active torsions:
  status: ('A' for Active; 'I' for Inactive)
    1  A    between atoms: O_1  and  C_2
    2  A    between atoms: O_1  and  C_17
    3  A    between atoms: C_2  and  C_32
    4  A    between atoms: C_4  and  C_36
    5  A    between atoms: C_10  and  C_20
    6  A    between atoms: C_11  and  C_29
    7  A    between atoms: C_12  and  C_16
    8  A    between atoms: C_12  and  C_20
    9  A    between atoms: C_16  and  C_22
   10  A    between atoms: C_18  and  C_19
   11  A    between atoms: C_20  and  C_24
   12  A    between atoms: C_21  and  C_26
   13  A    between atoms: CA_27  and  C_35
                            x       y       z     vdW  Elec       q    Type
                         _______ _______ _______ _____ _____    ______ ____

>  <TORSDO>
F 13

$$$$
=
 OpenBabel10222420463D

 39 42  0  0  1  0  0  0  0  0999 V2000
  186.8760  176.9570  143.9220 N   0  0  0  0  0  0  0  0  0  0  0  0
  188.3450  178.0270  142.2980 C   0  0  0  0  0  3  0  0  0  0  0  0
  188.9670  177.1690  145.1940 C   0  0  0  0  0  0  0  0  0  0  0  0
  187.1090  178.1570  143.1280 C   0  0  1  0  0  3  0  0  0  0  0  0
  189.5530  177.8300  142.8240 C   0  0  0  0  0  0  0  0  0  0  0  0
  187.6700  176.5430  144.8620 C   0  0  0  0  0  3  0  0  0  0  0  0
  189.7950  177.6870  144.2740 C   0  0  0  0  0  3  0  0  0  0  0  0
  184.6560  178.3460  142.7290 N   0  0  0  0  0  0  0  0  0  0  0  0
  186.0100  178.7180  140.9470 N   0  0  0  0  0  0  0  0  0  0  0  0
  185.9230  178.4280  142.2660 C   0  0  0  0  0  0  0  0  0  0  0  0
  183.9060  178.6000  141.6440 C   0  0  2  0  0  3  0  0  0  0  0  0
  184.7280  178.8270  140.5640 C   0  0  0  0  0  0  0  0  0  0  0  0
  181.9250  178.9970  143.0510 C   0  0  0  0  0  1  0  0  0  0  0  0
  182.4170  178.6660  141.6560 C   0  0  0  0  0  2  0  0  0  0  0  0
  184.3010  179.1630  139.1770 C   0  0  0  0  0  2  0  0  0  0  0  0
  184.2690  180.5490  139.0130 O   0  0  0  0  0  1  0  0  0  0  0  0
  190.7340  177.8420  141.9090 C   0  0  0  0  0  2  0  0  0  0  0  0
  190.3340  177.5510  140.5720 O   0  0  0  0  0  0  0  0  0  0  0  0
  192.6180  177.1320  139.7950 C   0  0  0  0  0  3  0  0  0  0  0  0
  191.2310  177.1470  139.5770 C   0  0  0  0  0  0  0  0  0  0  0  0
  192.9930  176.3550  137.5220 C   0  0  0  0  0  0  0  0  0  0  0  0
  191.6060  176.3690  137.3110 C   0  0  0  0  0  3  0  0  0  0  0  0
  190.7320  176.7580  138.3310 C   0  0  0  0  0  3  0  0  0  0  0  0
  193.4890  176.7470  138.7740 C   0  0  0  0  0  3  0  0  0  0  0  0
  193.4670  173.4750  136.5110 C   0  0  0  0  0  1  0  0  0  0  0  0
  194.0480  174.6630  135.9080 N   0  0  0  0  0  2  0  0  0  0  0  0
  193.9400  175.9910  136.4410 C   0  0  0  0  0  0  0  0  0  0  0  0
  194.6820  176.8880  135.9560 O   0  0  0  0  0  0  0  0  0  0  0  0
  189.4290  177.0660  146.6190 C   0  0  1  0  0  3  0  0  0  0  0  0
  191.3710  175.6840  147.3410 C   0  0  1  0  0  3  0  0  0  0  0  0
  190.9560  177.0080  146.7250 C   0  0  1  0  0  3  0  0  0  0  0  0
  191.4990  175.8950  145.8480 C   0  0  0  0  0  2  0  0  0  0  0  0
  192.7060  177.0010  148.8790 N   0  0  0  0  0  1  0  0  0  0  0  0
  192.7290  175.8480  147.9940 C   0  0  0  0  0  2  0  0  0  0  0  0
  188.7890  178.1490  147.5050 C   0  0  2  0  0  3  0  0  0  0  0  0
  189.6520  178.5200  148.7060 C   0  0  0  0  0  1  0  0  0  0  0  0
  187.3930  177.7320  147.9460 C   0  0  0  0  0  2  0  0  0  0  0  0
  186.3820  178.6030  147.3370 C   0  0  0  0  0  0  0  0  0  0  0  0
  185.5860  179.2910  146.8550 N   0  0  0  0  0  0  0  0  0  0  0  0
  1  6  2  0  0  0  0
  2  5  2  0  0  0  0
  2  4  1  0  0  0  0
  3 29  1  0  0  0  0
  4 10  1  6  0  0  0
  4  1  1  0  0  0  0
  5  7  1  0  0  0  0
  6  3  1  0  0  0  0
  7  3  2  0  0  0  0
  9 10  1  0  0  0  0
 10  8  2  0  0  0  0
 11 14  1  1  0  0  0
 11  8  1  0  0  0  0
 12  9  2  0  0  0  0
 12 11  1  0  0  0  0
 14 13  1  0  0  0  0
 15 12  1  0  0  0  0
 16 15  1  0  0  0  0
 17  5  1  0  0  0  0
 18 17  1  0  0  0  0
 20 19  1  0  0  0  0
 20 18  1  0  0  0  0
 21 24  1  0  0  0  0
 22 21  2  0  0  0  0
 22 23  1  0  0  0  0
 23 20  2  0  0  0  0
 24 19  2  0  0  0  0
 26 27  1  0  0  0  0
 26 25  1  0  0  0  0
 27 21  1  0  0  0  0
 28 27  2  0  0  0  0
 29 35  1  1  0  0  0
 30 34  1  1  0  0  0
 31 29  1  6  0  0  0
 31 30  1  0  0  0  0
 32 31  1  0  0  0  0
 32 30  1  0  0  0  0
 34 33  1  0  0  0  0
 35 37  1  0  0  0  0
 35 36  1  1  0  0  0
 38 37  1  0  0  0  0
 39 38  3  0  0  0  0
M  END
>  <MODEL>
5

>  <REMARK>
 VINA RESULT:      -8.1      2.337      7.608
  Name = 
  13 active torsions:
  status: ('A' for Active; 'I' for Inactive)
    1  A    between atoms: O_1  and  C_2
    2  A    between atoms: O_1  and  C_17
    3  A    between atoms: C_2  and  C_32
    4  A    between atoms: C_4  and  C_36
    5  A    between atoms: C_10  and  C_20
    6  A    between atoms: C_11  and  C_29
    7  A    between atoms: C_12  and  C_16
    8  A    between atoms: C_12  and  C_20
    9  A    between atoms: C_16  and  C_22
   10  A    between atoms: C_18  and  C_19
   11  A    between atoms: C_20  and  C_24
   12  A    between atoms: C_21  and  C_26
   13  A    between atoms: CA_27  and  C_35
                            x       y       z     vdW  Elec       q    Type
                         _______ _______ _______ _____ _____    ______ ____

>  <TORSDO>
F 13

$$$$
=
 OpenBabel10222420463D

 39 42  0  0  1  0  0  0  0  0999 V2000
  184.2030  179.0730  139.7270 N   0  0  0  0  0  0  0  0  0  0  0  0
  186.2290  178.6080  140.9970 C   0  0  0  0  0  3  0  0  0  0  0  0
  185.6610  178.0930  138.0110 C   0  0  0  0  0  0  0  0  0  0  0  0
  184.7790  178.2960  140.8170 C   0  0  1  0  0  3  0  0  0  0  0  0
  187.1360  178.4160  140.0400 C   0  0  0  0  0  0  0  0  0  0  0  0
  184.5580  178.9550  138.4840 C   0  0  0  0  0  3  0  0  0  0  0  0
  186.8010  177.9090  138.6940 C   0  0  0  0  0  3  0  0  0  0  0  0
  184.6180  178.5640  143.2900 N   0  0  0  0  0  0  0  0  0  0  0  0
  182.6860  178.7540  142.1150 N   0  0  0  0  0  0  0  0  0  0  0  0
  184.0240  178.5590  142.0760 C   0  0  0  0  0  0  0  0  0  0  0  0
  183.5980  178.7750  144.1390 C   0  0  2  0  0  3  0  0  0  0  0  0
  182.4270  178.8930  143.4260 C   0  0  0  0  0  0  0  0  0  0  0  0
  185.2230  178.8390  145.9870 C   0  0  0  0  0  1  0  0  0  0  0  0
  183.7560  178.9060  145.6160 C   0  0  0  0  0  2  0  0  0  0  0  0
  181.0690  179.1520  143.9820 C   0  0  0  0  0  2  0  0  0  0  0  0
  180.1800  178.1740  143.5360 O   0  0  0  0  0  1  0  0  0  0  0  0
  188.5740  178.6420  140.3720 C   0  0  0  0  0  2  0  0  0  0  0  0
  189.0840  177.5610  141.1480 O   0  0  0  0  0  0  0  0  0  0  0  0
  190.1000  178.3500  143.2320 C   0  0  0  0  0  3  0  0  0  0  0  0
  189.1430  177.5840  142.5460 C   0  0  0  0  0  0  0  0  0  0  0  0
  189.2340  177.5680  145.3650 C   0  0  0  0  0  0  0  0  0  0  0  0
  188.2790  176.8070  144.6740 C   0  0  0  0  0  3  0  0  0  0  0  0
  188.2310  176.8180  143.2770 C   0  0  0  0  0  3  0  0  0  0  0  0
  190.1480  178.3340  144.6270 C   0  0  0  0  0  3  0  0  0  0  0  0
  191.5530  176.2580  146.9300 C   0  0  0  0  0  1  0  0  0  0  0  0
  190.4820  177.0300  147.5400 N   0  0  0  0  0  2  0  0  0  0  0  0
  189.3330  177.5340  146.8430 C   0  0  0  0  0  0  0  0  0  0  0  0
  188.3710  177.9780  147.5270 O   0  0  0  0  0  0  0  0  0  0  0  0
  185.5410  177.5330  136.6220 C   0  0  1  0  0  3  0  0  0  0  0  0
  186.6390  176.2570  134.7870 C   0  0  1  0  0  3  0  0  0  0  0  0
  186.8570  176.9180  136.1350 C   0  0  1  0  0  3  0  0  0  0  0  0
  187.3180  177.6070  134.8650 C   0  0  0  0  0  2  0  0  0  0  0  0
  187.2260  173.9430  135.2150 N   0  0  0  0  0  1  0  0  0  0  0  0
  187.6820  175.1750  134.5940 C   0  0  0  0  0  2  0  0  0  0  0  0
  184.3320  176.5920  136.4900 C   0  0  2  0  0  3  0  0  0  0  0  0
  183.0240  177.3380  136.2470 C   0  0  0  0  0  1  0  0  0  0  0  0
  184.2200  175.6790  137.7030 C   0  0  0  0  0  2  0  0  0  0  0  0
  183.8300  174.3270  137.2920 C   0  0  0  0  0  0  0  0  0  0  0  0
  183.5250  173.2580  136.9670 N   0  0  0  0  0  0  0  0  0  0  0  0
  1  4  1  0  0  0  0
  3  6  1  0  0  0  0
  3  7  2  0  0  0  0
  4  2  1  0  0  0  0
  4 10  1  1  0  0  0
  5 17  1  0  0  0  0
  5  2  2  0  0  0  0
  6  1  2  0  0  0  0
  7  5  1  0  0  0  0
  8 11  1  0  0  0  0
  9 12  2  0  0  0  0
 10  9  1  0  0  0  0
 10  8  2  0  0  0  0
 11 14  1  6  0  0  0
 12 15  1  0  0  0  0
 12 11  1  0  0  0  0
 14 13  1  0  0  0  0
 16 15  1  0  0  0  0
 17 18  1  0  0  0  0
 18 20  1  0  0  0  0
 19 24  1  0  0  0  0
 20 19  2  0  0  0  0
 20 23  1  0  0  0  0
 21 27  1  0  0  0  0
 22 21  1  0  0  0  0
 23 22  2  0  0  0  0
 24 21  2  0  0  0  0
 25 26  1  0  0  0  0
 27 28  2  0  0  0  0
 27 26  1  0  0  0  0
 29 35  1  1  0  0  0
 29  3  1  0  0  0  0
 30 34  1  1  0  0  0
 30 32  1  0  0  0  0
 30 31  1  0  0  0  0
 31 29  1  6  0  0  0
 32 31  1  0  0  0  0
 34 33  1  0  0  0  0
 35 36  1  1  0  0  0
 35 37  1  0  0  0  0
 38 37  1  0  0  0  0
 39 38  3  0  0  0  0
M  END
>  <MODEL>
6

>  <REMARK>
 VINA RESULT:      -7.9      3.391      9.859
  Name = 
  13 active torsions:
  status: ('A' for Active; 'I' for Inactive)
    1  A    between atoms: O_1  and  C_2
    2  A    between atoms: O_1  and  C_17
    3  A    between atoms: C_2  and  C_32
    4  A    between atoms: C_4  and  C_36
    5  A    between atoms: C_10  and  C_20
    6  A    between atoms: C_11  and  C_29
    7  A    between atoms: C_12  and  C_16
    8  A    between atoms: C_12  and  C_20
    9  A    between atoms: C_16  and  C_22
   10  A    between atoms: C_18  and  C_19
   11  A    between atoms: C_20  and  C_24
   12  A    between atoms: C_21  and  C_26
   13  A    between atoms: CA_27  and  C_35
                            x       y       z     vdW  Elec       q    Type
                         _______ _______ _______ _____ _____    ______ ____

>  <TORSDO>
F 13

$$$$
=
 OpenBabel10222420463D

 39 42  0  0  1  0  0  0  0  0999 V2000
  189.2070  177.2430  136.8740 N   0  0  0  0  0  0  0  0  0  0  0  0
  189.1300  177.2930  139.3090 C   0  0  0  0  0  3  0  0  0  0  0  0
  191.2900  176.0860  137.4690 C   0  0  0  0  0  0  0  0  0  0  0  0
  188.4880  176.7890  138.0570 C   0  0  1  0  0  3  0  0  0  0  0  0
  190.3860  177.0030  139.6460 C   0  0  0  0  0  0  0  0  0  0  0  0
  190.4270  176.9000  136.5890 C   0  0  0  0  0  3  0  0  0  0  0  0
  191.2840  176.1830  138.8070 C   0  0  0  0  0  3  0  0  0  0  0  0
  186.2010  176.7380  137.0670 N   0  0  0  0  0  0  0  0  0  0  0  0
  186.5410  178.1930  138.7740 N   0  0  0  0  0  2  0  0  0  0  0  0
  187.0650  177.2310  137.9810 C   0  0  0  0  0  0  0  0  0  0  0  0
  185.0710  177.4260  137.2980 C   0  0  0  0  0  0  0  0  0  0  0  0
  185.2770  178.3080  138.3340 C   0  0  0  0  0  0  0  0  0  0  0  0
  183.8310  175.8680  135.8500 C   0  0  0  0  0  1  0  0  0  0  0  0
  183.7950  177.2080  136.5580 C   0  0  0  0  0  2  0  0  0  0  0  0
  184.2750  179.2440  138.9180 C   0  0  0  0  0  2  0  0  0  0  0  0
  184.7490  179.7500  140.1290 O   0  0  0  0  0  1  0  0  0  0  0  0
  190.8830  177.4560  140.9800 C   0  0  0  0  0  2  0  0  0  0  0  0
  190.5360  176.5120  141.9900 O   0  0  0  0  0  0  0  0  0  0  0  0
  188.3500  176.4380  143.0900 C   0  0  0  0  0  3  0  0  0  0  0  0
  189.7010  176.8210  143.0690 C   0  0  0  0  0  0  0  0  0  0  0  0
  188.0560  177.4990  145.2580 C   0  0  0  0  0  0  0  0  0  0  0  0
  189.4070  177.8760  145.2330 C   0  0  0  0  0  3  0  0  0  0  0  0
  190.2230  177.5360  144.1500 C   0  0  0  0  0  3  0  0  0  0  0  0
  187.5350  176.7820  144.1710 C   0  0  0  0  0  3  0  0  0  0  0  0
  185.3780  178.9980  144.9060 C   0  0  0  0  0  1  0  0  0  0  0  0
  185.8660  178.4720  146.1710 N   0  0  0  0  0  2  0  0  0  0  0  0
  187.1610  177.8880  146.3730 C   0  0  0  0  0  0  0  0  0  0  0  0
  187.5450  177.6900  147.5580 O   0  0  0  0  0  0  0  0  0  0  0  0
  192.3290  175.2300  136.8030 C   0  0  1  0  0  3  0  0  0  0  0  0
  194.3080  173.7700  137.1950 C   0  0  1  0  0  3  0  0  0  0  0  0
  193.5250  174.9580  137.7210 C   0  0  1  0  0  3  0  0  0  0  0  0
  194.8230  175.1740  136.9660 C   0  0  0  0  0  2  0  0  0  0  0  0
  195.7240  174.1660  139.1230 N   0  0  0  0  0  1  0  0  0  0  0  0
  195.0670  173.1320  138.3420 C   0  0  0  0  0  2  0  0  0  0  0  0
  191.7140  173.9570  136.1960 C   0  0  2  0  0  3  0  0  0  0  0  0
  191.5650  174.0350  134.6800 C   0  0  0  0  0  1  0  0  0  0  0  0
  190.3820  173.6300  136.8570 C   0  0  0  0  0  2  0  0  0  0  0  0
  189.3480  173.4060  135.8410 C   0  0  0  0  0  0  0  0  0  0  0  0
  188.5320  173.2300  135.0390 N   0  0  0  0  0  0  0  0  0  0  0  0
  1  4  1  0  0  0  0
  2  5  2  0  0  0  0
  3  7  2  0  0  0  0
  4 10  1  6  0  0  0
  4  2  1  0  0  0  0
  5 17  1  0  0  0  0
  6  1  2  0  0  0  0
  6  3  1  0  0  0  0
  7  5  1  0  0  0  0
  8 11  1  0  0  0  0
  8 10  2  0  0  0  0
 10  9  1  0  0  0  0
 11 12  2  0  0  0  0
 12  9  1  0  0  0  0
 12 15  1  0  0  0  0
 13 14  1  0  0  0  0
 14 11  1  0  0  0  0
 15 16  1  0  0  0  0
 17 18  1  0  0  0  0
 18 20  1  0  0  0  0
 19 24  1  0  0  0  0
 20 19  2  0  0  0  0
 20 23  1  0  0  0  0
 21 27  1  0  0  0  0
 22 21  1  0  0  0  0
 23 22  2  0  0  0  0
 24 21  2  0  0  0  0
 25 26  1  0  0  0  0
 26 27  1  0  0  0  0
 27 28  2  0  0  0  0
 29 35  1  1  0  0  0
 29  3  1  0  0  0  0
 30 31  1  0  0  0  0
 30 34  1  1  0  0  0
 31 29  1  6  0  0  0
 32 30  1  0  0  0  0
 32 31  1  0  0  0  0
 34 33  1  0  0  0  0
 35 36  1  6  0  0  0
 35 37  1  0  0  0  0
 38 37  1  0  0  0  0
 39 38  3  0  0  0  0
M  END
>  <MODEL>
7

>  <REMARK>
 VINA RESULT:      -7.8      3.455      8.450
  Name = 
  13 active torsions:
  status: ('A' for Active; 'I' for Inactive)
    1  A    between atoms: O_1  and  C_2
    2  A    between atoms: O_1  and  C_17
    3  A    between atoms: C_2  and  C_32
    4  A    between atoms: C_4  and  C_36
    5  A    between atoms: C_10  and  C_20
    6  A    between atoms: C_11  and  C_29
    7  A    between atoms: C_12  and  C_16
    8  A    between atoms: C_12  and  C_20
    9  A    between atoms: C_16  and  C_22
   10  A    between atoms: C_18  and  C_19
   11  A    between atoms: C_20  and  C_24
   12  A    between atoms: C_21  and  C_26
   13  A    between atoms: CA_27  and  C_35
                            x       y       z     vdW  Elec       q    Type
                         _______ _______ _______ _____ _____    ______ ____

>  <TORSDO>
F 13

$$$$
=
 OpenBabel10222420463D

 39 42  0  0  1  0  0  0  0  0999 V2000
  188.3770  178.5050  138.2430 N   0  0  0  0  0  0  0  0  0  0  0  0
  188.9190  177.8470  140.5260 C   0  0  0  0  0  3  0  0  0  0  0  0
  190.3830  177.1260  137.9090 C   0  0  0  0  0  0  0  0  0  0  0  0
  187.9260  177.7610  139.4120 C   0  0  1  0  0  3  0  0  0  0  0  0
  190.1730  177.4110  140.4130 C   0  0  0  0  0  0  0  0  0  0  0  0
  189.4350  178.2020  137.5520 C   0  0  0  0  0  3  0  0  0  0  0  0
  190.7230  176.8290  139.1720 C   0  0  0  0  0  3  0  0  0  0  0  0
  185.6880  178.7700  138.9830 N   0  0  0  0  0  0  0  0  0  0  0  0
  186.2140  178.3360  141.1470 N   0  0  0  0  0  0  0  0  0  0  0  0
  186.5960  178.2730  139.8520 C   0  0  0  0  0  0  0  0  0  0  0  0
  184.6780  179.1660  139.7770 C   0  0  2  0  0  3  0  0  0  0  0  0
  184.9970  178.9010  141.0880 C   0  0  0  0  0  0  0  0  0  0  0  0
  182.7090  178.7700  138.3530 C   0  0  0  0  0  1  0  0  0  0  0  0
  183.4030  179.7530  139.2740 C   0  0  0  0  0  2  0  0  0  0  0  0
  184.1450  179.1660  142.2820 C   0  0  0  0  0  2  0  0  0  0  0  0
  184.4500  178.2550  143.2940 O   0  0  0  0  0  1  0  0  0  0  0  0
  191.0410  177.4310  141.6290 C   0  0  0  0  0  2  0  0  0  0  0  0
  190.5770  176.4860  142.5900 O   0  0  0  0  0  0  0  0  0  0  0  0
  188.3070  176.4000  143.5050 C   0  0  0  0  0  3  0  0  0  0  0  0
  189.6490  176.8040  143.5890 C   0  0  0  0  0  0  0  0  0  0  0  0
  187.8170  177.5020  145.6160 C   0  0  0  0  0  0  0  0  0  0  0  0
  189.1600  177.9010  145.6950 C   0  0  0  0  0  3  0  0  0  0  0  0
  190.0690  177.5520  144.6920 C   0  0  0  0  0  3  0  0  0  0  0  0
  187.4000  176.7530  144.5060 C   0  0  0  0  0  3  0  0  0  0  0  0
  188.4710  177.9120  148.6070 C   0  0  0  0  0  1  0  0  0  0  0  0
  187.1830  178.2040  148.0000 N   0  0  0  0  0  2  0  0  0  0  0  0
  186.8260  177.9010  146.6430 C   0  0  0  0  0  0  0  0  0  0  0  0
  185.6120  177.9890  146.3150 O   0  0  0  0  0  0  0  0  0  0  0  0
  191.1070  176.4530  136.7790 C   0  0  1  0  0  3  0  0  0  0  0  0
  193.1120  175.1590  136.0690 C   0  0  1  0  0  3  0  0  0  0  0  0
  192.3320  175.6720  137.2650 C   0  0  1  0  0  3  0  0  0  0  0  0
  193.6050  176.3720  136.8270 C   0  0  0  0  0  2  0  0  0  0  0  0
  193.2680  172.7400  135.9830 N   0  0  0  0  0  1  0  0  0  0  0  0
  193.9110  173.9410  136.4880 C   0  0  0  0  0  2  0  0  0  0  0  0
  190.1510  175.6230  135.9050 C   0  0  2  0  0  3  0  0  0  0  0  0
  189.6760  176.3750  134.6660 C   0  0  0  0  0  1  0  0  0  0  0  0
  188.9700  175.1180  136.7210 C   0  0  0  0  0  2  0  0  0  0  0  0
  187.9640  174.5100  135.8440 C   0  0  0  0  0  0  0  0  0  0  0  0
  187.1710  174.0280  135.1520 N   0  0  0  0  0  0  0  0  0  0  0  0
  1  4  1  0  0  0  0
  3  7  2  0  0  0  0
  4 10  1  1  0  0  0
  4  2  1  0  0  0  0
  5  2  2  0  0  0  0
  5 17  1  0  0  0  0
  6  3  1  0  0  0  0
  6  1  2  0  0  0  0
  7  5  1  0  0  0  0
  8 11  1  0  0  0  0
  8 10  2  0  0  0  0
 10  9  1  0  0  0  0
 11 14  1  6  0  0  0
 11 12  1  0  0  0  0
 12  9  2  0  0  0  0
 12 15  1  0  0  0  0
 13 14  1  0  0  0  0
 15 16  1  0  0  0  0
 17 18  1  0  0  0  0
 18 20  1  0  0  0  0
 19 20  2  0  0  0  0
 19 24  1  0  0  0  0
 20 23  1  0  0  0  0
 21 22  1  0  0  0  0
 21 27  1  0  0  0  0
 23 22  2  0  0  0  0
 24 21  2  0  0  0  0
 26 25  1  0  0  0  0
 27 26  1  0  0  0  0
 28 27  2  0  0  0  0
 29 35  1  1  0  0  0
 29  3  1  0  0  0  0
 30 34  1  1  0  0  0
 30 32  1  0  0  0  0
 30 31  1  0  0  0  0
 31 29  1  6  0  0  0
 32 31  1  0  0  0  0
 33 34  1  0  0  0  0
 35 36  1  6  0  0  0
 35 37  1  0  0  0  0
 38 37  1  0  0  0  0
 39 38  3  0  0  0  0
M  END
>  <MODEL>
8

>  <REMARK>
 VINA RESULT:      -7.7      2.915      8.707
  Name = 
  13 active torsions:
  status: ('A' for Active; 'I' for Inactive)
    1  A    between atoms: O_1  and  C_2
    2  A    between atoms: O_1  and  C_17
    3  A    between atoms: C_2  and  C_32
    4  A    between atoms: C_4  and  C_36
    5  A    between atoms: C_10  and  C_20
    6  A    between atoms: C_11  and  C_29
    7  A    between atoms: C_12  and  C_16
    8  A    between atoms: C_12  and  C_20
    9  A    between atoms: C_16  and  C_22
   10  A    between atoms: C_18  and  C_19
   11  A    between atoms: C_20  and  C_24
   12  A    between atoms: C_21  and  C_26
   13  A    between atoms: CA_27  and  C_35
                            x       y       z     vdW  Elec       q    Type
                         _______ _______ _______ _____ _____    ______ ____

>  <TORSDO>
F 13

$$$$
=
 OpenBabel10222420463D

 39 42  0  0  1  0  0  0  0  0999 V2000
  185.0160  178.8650  144.4050 N   0  0  0  0  0  0  0  0  0  0  0  0
  186.6580  178.2480  142.7130 C   0  0  0  0  0  3  0  0  0  0  0  0
  183.5960  178.4890  142.4360 C   0  0  0  0  0  0  0  0  0  0  0  0
  186.0140  177.8790  144.0100 C   0  0  1  0  0  3  0  0  0  0  0  0
  185.9740  178.3870  141.5790 C   0  0  0  0  0  0  0  0  0  0  0  0
  183.9280  179.1060  143.7370 C   0  0  0  0  0  3  0  0  0  0  0  0
  184.5080  178.2250  141.4880 C   0  0  0  0  0  3  0  0  0  0  0  0
  188.3570  177.6240  144.8200 N   0  0  0  0  0  0  0  0  0  0  0  0
  186.7310  177.6650  146.4010 N   0  0  0  0  0  0  0  0  0  0  0  0
  187.0380  177.7420  145.0860 C   0  0  0  0  0  0  0  0  0  0  0  0
  188.9110  177.4670  146.0340 C   0  0  2  0  0  3  0  0  0  0  0  0
  187.9240  177.4940  146.9930 C   0  0  0  0  0  0  0  0  0  0  0  0
  191.0960  177.1150  144.9560 C   0  0  0  0  0  1  0  0  0  0  0  0
  190.3770  177.3360  146.2720 C   0  0  0  0  0  2  0  0  0  0  0  0
  188.1120  177.3730  148.4660 C   0  0  0  0  0  2  0  0  0  0  0  0
  189.1930  178.1580  148.8720 O   0  0  0  0  0  1  0  0  0  0  0  0
  186.7360  178.6340  140.3180 C   0  0  0  0  0  2  0  0  0  0  0  0
  188.1150  178.8550  140.6030 O   0  0  0  0  0  0  0  0  0  0  0  0
  189.2760  178.2080  138.5460 C   0  0  0  0  0  3  0  0  0  0  0  0
  189.1490  178.1800  139.9440 C   0  0  0  0  0  0  0  0  0  0  0  0
  191.2360  176.7750  138.6700 C   0  0  0  0  0  0  0  0  0  0  0  0
  191.1060  176.7530  140.0670 C   0  0  0  0  0  3  0  0  0  0  0  0
  190.0740  177.4530  140.6990 C   0  0  0  0  0  3  0  0  0  0  0  0
  190.3050  177.5050  137.9170 C   0  0  0  0  0  3  0  0  0  0  0  0
  190.7720  174.0780  137.2360 C   0  0  0  0  0  1  0  0  0  0  0  0
  192.0250  174.8170  137.2130 N   0  0  0  0  0  2  0  0  0  0  0  0
  192.2930  176.0020  137.9760 C   0  0  0  0  0  0  0  0  0  0  0  0
  193.4860  176.4050  138.0470 O   0  0  0  0  0  0  0  0  0  0  0  0
  182.1390  178.3050  142.1210 C   0  0  1  0  0  3  0  0  0  0  0  0
  179.8010  178.9060  142.7320 C   0  0  1  0  0  3  0  0  0  0  0  0
  181.2580  179.3100  142.8690 C   0  0  1  0  0  3  0  0  0  0  0  0
  180.5450  178.6250  144.0200 C   0  0  0  0  0  2  0  0  0  0  0  0
  179.4970  181.2420  142.1580 N   0  0  0  0  0  1  0  0  0  0  0  0
  178.9310  180.1340  142.9070 C   0  0  0  0  0  2  0  0  0  0  0  0
  181.8850  178.2670  140.6040 C   0  0  2  0  0  3  0  0  0  0  0  0
  181.1350  179.4950  140.0980 C   0  0  0  0  0  1  0  0  0  0  0  0
  181.1650  176.9870  140.2060 C   0  0  0  0  0  2  0  0  0  0  0  0
  181.3450  176.7220  138.7750 C   0  0  0  0  0  0  0  0  0  0  0  0
  181.4850  176.5130  137.6450 N   0  0  0  0  0  0  0  0  0  0  0  0
  2  4  1  0  0  0  0
  3  6  1  0  0  0  0
  4  1  1  0  0  0  0
  4 10  1  1  0  0  0
  5  2  2  0  0  0  0
  6  1  2  0  0  0  0
  7  5  1  0  0  0  0
  7  3  2  0  0  0  0
  8 10  2  0  0  0  0
  8 11  1  0  0  0  0
  9 12  2  0  0  0  0
 10  9  1  0  0  0  0
 11 14  1  1  0  0  0
 11 12  1  0  0  0  0
 12 15  1  0  0  0  0
 13 14  1  0  0  0  0
 15 16  1  0  0  0  0
 17 18  1  0  0  0  0
 17  5  1  0  0  0  0
 19 20  1  0  0  0  0
 20 18  1  0  0  0  0
 20 23  2  0  0  0  0
 21 22  2  0  0  0  0
 22 23  1  0  0  0  0
 24 19  2  0  0  0  0
 24 21  1  0  0  0  0
 26 25  1  0  0  0  0
 26 27  1  0  0  0  0
 27 28  2  0  0  0  0
 27 21  1  0  0  0  0
 29 35  1  6  0  0  0
 29  3  1  0  0  0  0
 30 31  1  0  0  0  0
 30 34  1  1  0  0  0
 30 32  1  0  0  0  0
 31 29  1  6  0  0  0
 31 32  1  0  0  0  0
 33 34  1  0  0  0  0
 35 36  1  1  0  0  0
 37 35  1  0  0  0  0
 38 37  1  0  0  0  0
 39 38  3  0  0  0  0
M  END
>  <MODEL>
9

>  <REMARK>
 VINA RESULT:      -7.6      2.596      9.606
  Name = 
  13 active torsions:
  status: ('A' for Active; 'I' for Inactive)
    1  A    between atoms: O_1  and  C_2
    2  A    between atoms: O_1  and  C_17
    3  A    between atoms: C_2  and  C_32
    4  A    between atoms: C_4  and  C_36
    5  A    between atoms: C_10  and  C_20
    6  A    between atoms: C_11  and  C_29
    7  A    between atoms: C_12  and  C_16
    8  A    between atoms: C_12  and  C_20
    9  A    between atoms: C_16  and  C_22
   10  A    between atoms: C_18  and  C_19
   11  A    between atoms: C_20  and  C_24
   12  A    between atoms: C_21  and  C_26
   13  A    between atoms: CA_27  and  C_35
                            x       y       z     vdW  Elec       q    Type
                         _______ _______ _______ _____ _____    ______ ____

>  <TORSDO>
F 13

$$$$
