=
 OpenBabel10222418313D

 68 77  0  0  1  0  0  0  0  0999 V2000
  189.0080  177.7000  136.1790 O   0  0  0  0  0  0  0  0  0  0  0  0
  189.5790  177.5520  137.4670 C   0  0  2  0  0  3  0  0  0  0  0  0
  188.5270  175.4370  136.7580 C   0  0  1  0  0  3  0  0  0  0  0  0
  188.4340  176.5250  135.7550 C   0  0  0  0  0  0  0  0  0  0  0  0
  189.1970  176.1400  137.9420 C   0  0  1  0  0  3  0  0  0  0  0  0
  187.9490  176.3870  134.6040 O   0  0  0  0  0  0  0  0  0  0  0  0
  189.0360  179.8170  138.0240 O   0  0  0  0  0  0  0  0  0  0  0  0
  189.0380  178.6040  138.3770 C   0  0  0  0  0  0  0  0  0  0  0  0
  188.5830  178.2210  139.6770 N   0  0  0  0  0  0  0  0  0  0  0  0
  187.4290  178.6100  140.1410 C   0  0  0  0  0  3  0  0  0  0  0  0
  186.9740  178.2030  141.4970 C   0  0  0  0  0  2  0  0  0  0  0  0
  188.0600  178.2680  142.3690 O   0  0  0  0  0  0  0  0  0  0  0  0
  191.1960  176.3580  144.5240 C   0  0  2  0  0  0  0  0  0  0  0  0
  190.4290  177.6670  146.7000 C   0  0  1  0  0  3  0  0  0  0  0  0
  189.8890  176.5390  143.7930 C   0  0  1  0  0  0  0  0  0  0  0  0
  188.8240  176.8390  144.6680 O   0  0  0  0  0  0  0  0  0  0  0  0
  192.1270  175.2750  144.0010 C   0  0  0  0  0  1  0  0  0  0  0  0
  186.1390  178.2830  145.8430 C   0  0  1  0  0  3  0  0  0  0  0  0
  187.8430  178.6350  148.7190 O   0  0  0  0  0  1  0  0  0  0  0  0
  188.1310  178.1410  147.4470 C   0  0  1  0  0  3  0  0  0  0  0  0
  191.2000  176.4960  146.0830 C   0  0  0  0  0  2  0  0  0  0  0  0
  189.2600  177.1230  147.5050 C   0  0  2  0  0  3  0  0  0  0  0  0
  190.5030  177.6430  148.2120 C   0  0  0  0  0  2  0  0  0  0  0  0
  190.4610  178.9060  143.9580 C   0  0  0  0  0  2  0  0  0  0  0  0
  186.4430  176.5730  143.5970 O   0  0  0  0  0  0  0  0  0  0  0  0
  191.0570  177.5520  143.5150 C   0  0  0  0  0  0  0  0  0  0  0  0
  186.9810  178.8460  144.8610 O   0  0  0  0  0  0  0  0  0  0  0  0
  187.5330  177.5930  143.8410 P   0  0  2  0  0  0  0  0  0  0  0  0
  186.8980  177.4480  146.8890 C   0  0  0  0  0  2  0  0  0  0  0  0
  185.4280  179.2980  146.4780 O   0  0  0  0  0  1  0  0  0  0  0  0
  189.6000  175.5120  142.6980 C   0  0  0  0  0  1  0  0  0  0  0  0
  191.8740  178.6230  144.2650 C   0  0  0  0  0  2  0  0  0  0  0  0
  190.4500  175.3790  138.3320 C   0  0  0  0  0  2  0  0  0  0  0  0
  190.9530  174.5850  137.1420 C   0  0  0  0  0  2  0  0  0  0  0  0
  192.2060  175.1610  136.6780 N   0  0  0  0  0  2  0  0  0  0  0  0
  195.3660  173.8270  137.6220 N   0  0  0  0  0  0  0  0  0  0  0  0
  194.0320  175.4570  138.3920 C   0  0  0  0  0  0  0  0  0  0  0  0
  193.4840  174.8890  137.2560 C   0  0  0  0  0  0  0  0  0  0  0  0
  195.2140  174.7610  138.5820 C   0  0  0  0  0  0  0  0  0  0  0  0
  194.3180  173.9210  136.8190 N   0  0  0  0  0  0  0  0  0  0  0  0
  196.9330  175.1170  140.5660 C   0  0  0  0  0  3  0  0  0  0  0  0
  196.1490  174.9490  139.6630 C   0  0  0  0  0  0  0  0  0  0  0  0
  193.0660  177.3930  139.9130 C   0  0  0  0  0  3  0  0  0  0  0  0
  193.5050  176.5120  139.2180 C   0  0  0  0  0  0  0  0  0  0  0  0
  194.1260  173.0580  135.7280 N   0  0  0  0  0  2  0  0  0  0  0  0
  193.3880  171.8070  135.8270 C   0  0  0  0  0  2  0  0  0  0  0  0
  195.5980  170.6470  135.7960 C   0  0  0  0  0  2  0  0  0  0  0  0
  194.2460  170.7400  136.4810 C   0  0  0  0  0  3  0  0  0  0  0  0
  194.5090  169.6390  135.4680 C   0  0  0  0  0  2  0  0  0  0  0  0
  187.1510  174.9280  137.1780 C   0  0  0  0  0  2  0  0  0  0  0  0
  186.7470  173.4080  136.3000 S   0  0  0  0  0  0  0  0  0  0  0  0
  185.4230  173.7770  135.4430 C   0  0  0  0  0  2  0  0  0  0  0  0
  181.7940  177.4600  139.2420 C   0  0  0  0  0  3  0  0  0  0  0  0
  183.0560  173.5990  136.4970 C   0  0  2  0  0  0  0  0  0  0  0  0
  181.8680  172.8650  137.0740 C   0  0  0  0  0  0  0  0  0  0  0  0
  181.6100  171.5880  136.8100 C   0  0  0  0  0  2  0  0  0  0  0  0
  180.6080  176.8220  139.6000 C   0  0  0  0  0  3  0  0  0  0  0  0
  182.4510  175.5260  137.9280 C   0  0  0  0  0  0  0  0  0  0  0  0
  180.3450  175.5330  139.1420 C   0  0  0  0  0  3  0  0  0  0  0  0
  184.1850  171.5050  135.3360 C   0  0  0  0  0  1  0  0  0  0  0  0
  184.1550  172.9970  135.6170 C   0  0  2  0  0  0  0  0  0  0  0  0
  183.3460  174.8640  137.0810 O   0  0  0  0  0  0  0  0  0  0  0  0
  182.9610  173.7000  134.9800 C   0  0  0  0  0  2  0  0  0  0  0  0
  180.9970  173.5690  137.9070 O   0  0  0  0  0  0  0  0  0  0  0  0
  181.2620  174.8780  138.3190 C   0  0  0  0  0  0  0  0  0  0  0  0
  182.7250  176.8310  138.4110 C   0  0  0  0  0  0  0  0  0  0  0  0
  183.8980  177.5350  138.1090 O   0  0  0  0  0  0  0  0  0  0  0  0
  184.2390  178.8140  138.6270 C   0  0  0  0  0  1  0  0  0  0  0  0
  1  2  1  0  0  0  0
  2  5  1  0  0  0  0
  2  8  1  1  0  0  0
  3 50  1  1  0  0  0
  3  5  1  0  0  0  0
  4  1  1  0  0  0  0
  4  3  1  0  0  0  0
  5 33  1  6  0  0  0
  6  4  2  0  0  0  0
  7  8  2  0  0  0  0
  8  9  1  0  0  0  0
  9 10  2  0  0  0  0
 10 11  1  0  0  0  0
 11 12  1  0  0  0  0
 12 28  1  0  0  0  0
 13 17  1  6  0  0  0
 13 21  1  0  0  0  0
 14 21  1  6  0  0  0
 14 22  1  0  0  0  0
 14 23  1  0  0  0  0
 15 31  1  6  0  0  0
 15 13  1  0  0  0  0
 15 16  1  0  0  0  0
 18 30  1  1  0  0  0
 18 29  1  0  0  0  0
 20 22  1  0  0  0  0
 20 19  1  1  0  0  0
 22 23  1  1  0  0  0
 24 32  1  0  0  0  0
 26 15  1  0  0  0  0
 26 24  1  0  0  0  0
 26 32  1  0  0  0  0
 26 13  1  0  0  0  0
 27 18  1  0  0  0  0
 28 25  2  6  0  0  0
 28 16  1  0  0  0  0
 28 27  1  0  0  0  0
 29 20  1  0  0  0  0
 34 33  1  0  0  0  0
 35 34  1  0  0  0  0
 35 38  1  0  0  0  0
 36 39  2  0  0  0  0
 37 39  1  0  0  0  0
 37 44  1  0  0  0  0
 38 37  2  0  0  0  0
 39 42  1  0  0  0  0
 40 38  1  0  0  0  0
 40 36  1  0  0  0  0
 42 41  3  0  0  0  0
 44 43  3  0  0  0  0
 45 46  1  0  0  0  0
 45 40  1  0  0  0  0
 46 48  1  0  0  0  0
 47 48  1  0  0  0  0
 49 47  1  0  0  0  0
 49 48  1  0  0  0  0
 51 50  1  0  0  0  0
 52 61  1  0  0  0  0
 52 51  1  0  0  0  0
 53 57  1  0  0  0  0
 54 63  1  6  0  0  0
 54 55  1  0  0  0  0
 54 62  1  0  0  0  0
 55 64  1  0  0  0  0
 56 55  2  0  0  0  0
 58 65  2  0  0  0  0
 58 66  1  0  0  0  0
 59 57  2  0  0  0  0
 61 60  1  6  0  0  0
 61 54  1  0  0  0  0
 62 58  1  0  0  0  0
 63 61  1  0  0  0  0
 64 65  1  0  0  0  0
 65 59  1  0  0  0  0
 66 53  2  0  0  0  0
 67 66  1  0  0  0  0
 67 68  1  0  0  0  0
M  END
>  <MODEL>
1

>  <REMARK>
 VINA RESULT:      -7.5      0.000      0.000
  Name = 
  18 active torsions:
  status: ('A' for Active; 'I' for Inactive)
    1  A    between atoms: O_4  and  C_66
    2  A    between atoms: C_6  and  C_22
    3  A    between atoms: C_6  and  S_29
    4  A    between atoms: C_14  and  C_56
    5  A    between atoms: C_15  and  C_25
    6  A    between atoms: C_15  and  N_47
    7  A    between atoms: C_19  and  C_48
    8  A    between atoms: C_20  and  C_26
    9  A    between atoms: C_25  and  C_31
   10  A    between atoms: C_34  and  O_35
   11  A    between atoms: C_34  and  C_57
   12  A    between atoms: O_35  and  P_54
   13  A    between atoms: C_38  and  C_42
   14  A    between atoms: N_44  and  C_56
   15  A    between atoms: N_47  and  C_58
   16  A    between atoms: C_48  and  N_51
   17  A    between atoms: N_51  and  N_68
   18  A    between atoms: C_62  and  C_65
                            x       y       z     vdW  Elec       q    Type
                         _______ _______ _______ _____ _____    ______ ____

>  <TORSDO>
F 18

$$$$
=
 OpenBabel10222418313D

 68 77  0  0  1  0  0  0  0  0999 V2000
  190.2920  175.7580  139.3950 O   0  0  0  0  0  0  0  0  0  0  0  0
  190.2040  176.8590  140.2820 C   0  0  2  0  0  3  0  0  0  0  0  0
  188.7340  177.2200  138.3350 C   0  0  1  0  0  3  0  0  0  0  0  0
  189.4630  175.9300  138.3110 C   0  0  0  0  0  0  0  0  0  0  0  0
  189.2970  177.8910  139.5920 C   0  0  1  0  0  3  0  0  0  0  0  0
  189.3010  175.0420  137.4380 O   0  0  0  0  0  0  0  0  0  0  0  0
  191.9300  177.7050  141.7090 O   0  0  0  0  0  0  0  0  0  0  0  0
  191.5680  177.4080  140.5360 C   0  0  0  0  0  0  0  0  0  0  0  0
  192.4310  177.6500  139.4220 N   0  0  0  0  0  0  0  0  0  0  0  0
  192.8920  176.6770  138.6890 C   0  0  0  0  0  3  0  0  0  0  0  0
  193.7900  176.9490  137.5350 C   0  0  0  0  0  2  0  0  0  0  0  0
  194.6970  175.8960  137.4200 O   0  0  0  0  0  0  0  0  0  0  0  0
  197.8560  173.7010  135.5970 C   0  0  2  0  0  0  0  0  0  0  0  0
  196.3350  171.5300  135.6930 C   0  0  1  0  0  3  0  0  0  0  0  0
  196.7120  174.6710  135.7460 C   0  0  1  0  0  0  0  0  0  0  0  0
  195.4720  174.0910  135.4060 O   0  0  0  0  0  0  0  0  0  0  0  0
  199.1670  174.2650  135.0710 C   0  0  0  0  0  1  0  0  0  0  0  0
  192.3000  173.3250  135.5760 C   0  0  1  0  0  3  0  0  0  0  0  0
  193.2630  170.1360  135.1230 O   0  0  0  0  0  1  0  0  0  0  0  0
  193.9150  171.3610  135.2700 C   0  0  1  0  0  3  0  0  0  0  0  0
  197.5420  172.2540  135.0890 C   0  0  0  0  0  2  0  0  0  0  0  0
  195.2860  171.3250  134.6120 C   0  0  2  0  0  3  0  0  0  0  0  0
  196.1460  170.1600  135.0780 C   0  0  0  0  0  2  0  0  0  0  0  0
  196.4400  173.5670  137.9050 C   0  0  0  0  0  2  0  0  0  0  0  0
  193.5350  175.8260  135.0450 O   0  0  0  0  0  0  0  0  0  0  0  0
  197.5130  174.2460  137.0280 C   0  0  0  0  0  0  0  0  0  0  0  0
  193.0700  173.7760  136.6690 O   0  0  0  0  0  0  0  0  0  0  0  0
  194.1710  174.9520  136.1040 P   0  0  2  0  0  0  0  0  0  0  0  0
  193.0950  172.4470  134.5940 C   0  0  0  0  0  2  0  0  0  0  0  0
  191.1960  172.6200  136.0490 O   0  0  0  0  0  1  0  0  0  0  0  0
  196.9710  176.0810  135.2130 C   0  0  0  0  0  1  0  0  0  0  0  0
  197.7910  172.9800  137.8620 C   0  0  0  0  0  2  0  0  0  0  0  0
  188.1530  178.2620  140.5170 C   0  0  0  0  0  2  0  0  0  0  0  0
  188.6500  178.2980  141.9490 C   0  0  0  0  0  2  0  0  0  0  0  0
  187.8500  177.3890  142.7560 N   0  0  0  0  0  2  0  0  0  0  0  0
  186.4740  178.1430  145.9490 N   0  0  0  0  0  0  0  0  0  0  0  0
  188.4850  177.4990  145.1940 C   0  0  0  0  0  0  0  0  0  0  0  0
  187.5830  177.5650  144.1480 C   0  0  0  0  0  0  0  0  0  0  0  0
  187.7440  177.8660  146.3050 C   0  0  0  0  0  0  0  0  0  0  0  0
  186.3850  177.9480  144.6420 N   0  0  0  0  0  0  0  0  0  0  0  0
  188.6430  178.0870  148.7870 C   0  0  0  0  0  3  0  0  0  0  0  0
  188.2360  177.9910  147.6530 C   0  0  0  0  0  0  0  0  0  0  0  0
  191.0530  176.8670  145.1350 C   0  0  0  0  0  3  0  0  0  0  0  0
  189.8820  177.1540  145.1590 C   0  0  0  0  0  0  0  0  0  0  0  0
  185.2040  178.1900  143.9230 N   0  0  0  0  0  2  0  0  0  0  0  0
  183.9100  178.3770  144.5640 C   0  0  0  0  0  2  0  0  0  0  0  0
  182.1790  179.7700  143.4290 C   0  0  0  0  0  2  0  0  0  0  0  0
  182.8040  178.3900  143.5260 C   0  0  0  0  0  3  0  0  0  0  0  0
  181.4850  178.6760  144.2240 C   0  0  0  0  0  2  0  0  0  0  0  0
  189.0490  178.0780  137.1130 C   0  0  0  0  0  2  0  0  0  0  0  0
  187.5730  178.3060  136.1060 S   0  0  0  0  0  0  0  0  0  0  0  0
  186.3820  177.6440  136.9820 C   0  0  0  0  0  2  0  0  0  0  0  0
  180.9590  177.8560  140.4040 C   0  0  0  0  0  3  0  0  0  0  0  0
  184.1630  176.2960  137.0360 C   0  0  2  0  0  0  0  0  0  0  0  0
  183.3090  175.0610  136.8700 C   0  0  0  0  0  0  0  0  0  0  0  0
  183.6550  174.0430  136.0880 C   0  0  0  0  0  2  0  0  0  0  0  0
  180.1050  176.8030  140.0830 C   0  0  0  0  0  3  0  0  0  0  0  0
  182.5750  177.0540  138.7790 C   0  0  0  0  0  0  0  0  0  0  0  0
  180.4850  175.8640  139.1270 C   0  0  0  0  0  3  0  0  0  0  0  0
  186.2410  175.4310  135.6430 C   0  0  0  0  0  1  0  0  0  0  0  0
  185.5450  176.5340  136.4220 C   0  0  2  0  0  0  0  0  0  0  0  0
  183.7960  177.1650  138.1020 O   0  0  0  0  0  0  0  0  0  0  0  0
  184.2950  177.0580  135.7240 C   0  0  0  0  0  2  0  0  0  0  0  0
  182.0950  174.9990  137.5570 O   0  0  0  0  0  0  0  0  0  0  0  0
  181.7170  175.9760  138.4820 C   0  0  0  0  0  0  0  0  0  0  0  0
  182.1950  177.9980  139.7660 C   0  0  0  0  0  0  0  0  0  0  0  0
  183.0010  179.0760  140.1550 O   0  0  0  0  0  0  0  0  0  0  0  0
  184.4130  179.0280  140.3000 C   0  0  0  0  0  1  0  0  0  0  0  0
  1  2  1  0  0  0  0
  2  8  1  6  0  0  0
  3 50  1  6  0  0  0
  3  5  1  0  0  0  0
  4  3  1  0  0  0  0
  4  1  1  0  0  0  0
  5  2  1  0  0  0  0
  5 33  1  1  0  0  0
  6  4  2  0  0  0  0
  8  7  2  0  0  0  0
  9  8  1  0  0  0  0
 10  9  2  0  0  0  0
 11 10  1  0  0  0  0
 12 11  1  0  0  0  0
 13 17  1  6  0  0  0
 13 15  1  0  0  0  0
 13 26  1  0  0  0  0
 14 23  1  6  0  0  0
 15 31  1  6  0  0  0
 15 26  1  0  0  0  0
 16 15  1  0  0  0  0
 16 28  1  0  0  0  0
 18 30  1  1  0  0  0
 18 27  1  0  0  0  0
 20 19  1  6  0  0  0
 21 13  1  0  0  0  0
 21 14  1  0  0  0  0
 22 23  1  1  0  0  0
 22 20  1  0  0  0  0
 22 14  1  0  0  0  0
 26 32  1  0  0  0  0
 26 24  1  0  0  0  0
 28 25  2  6  0  0  0
 28 27  1  0  0  0  0
 28 12  1  0  0  0  0
 29 20  1  0  0  0  0
 29 18  1  0  0  0  0
 32 24  1  0  0  0  0
 33 34  1  0  0  0  0
 34 35  1  0  0  0  0
 35 38  1  0  0  0  0
 36 39  2  0  0  0  0
 37 39  1  0  0  0  0
 38 40  1  0  0  0  0
 38 37  2  0  0  0  0
 39 42  1  0  0  0  0
 40 36  1  0  0  0  0
 42 41  3  0  0  0  0
 43 44  3  0  0  0  0
 44 37  1  0  0  0  0
 45 46  1  0  0  0  0
 45 40  1  0  0  0  0
 47 48  1  0  0  0  0
 47 49  1  0  0  0  0
 48 49  1  0  0  0  0
 48 46  1  0  0  0  0
 51 52  1  0  0  0  0
 51 50  1  0  0  0  0
 54 63  1  6  0  0  0
 54 62  1  0  0  0  0
 55 54  1  0  0  0  0
 55 64  1  0  0  0  0
 56 55  2  0  0  0  0
 57 53  1  0  0  0  0
 58 66  1  0  0  0  0
 59 57  2  0  0  0  0
 61 60  1  6  0  0  0
 61 52  1  0  0  0  0
 61 54  1  0  0  0  0
 62 58  1  0  0  0  0
 63 61  1  0  0  0  0
 64 65  1  0  0  0  0
 65 58  2  0  0  0  0
 65 59  1  0  0  0  0
 66 67  1  0  0  0  0
 66 53  2  0  0  0  0
 67 68  1  0  0  0  0
M  END
>  <MODEL>
2

>  <REMARK>
 VINA RESULT:      -7.4      3.453      9.431
  Name = 
  18 active torsions:
  status: ('A' for Active; 'I' for Inactive)
    1  A    between atoms: O_4  and  C_66
    2  A    between atoms: C_6  and  C_22
    3  A    between atoms: C_6  and  S_29
    4  A    between atoms: C_14  and  C_56
    5  A    between atoms: C_15  and  C_25
    6  A    between atoms: C_15  and  N_47
    7  A    between atoms: C_19  and  C_48
    8  A    between atoms: C_20  and  C_26
    9  A    between atoms: C_25  and  C_31
   10  A    between atoms: C_34  and  O_35
   11  A    between atoms: C_34  and  C_57
   12  A    between atoms: O_35  and  P_54
   13  A    between atoms: C_38  and  C_42
   14  A    between atoms: N_44  and  C_56
   15  A    between atoms: N_47  and  C_58
   16  A    between atoms: C_48  and  N_51
   17  A    between atoms: N_51  and  N_68
   18  A    between atoms: C_62  and  C_65
                            x       y       z     vdW  Elec       q    Type
                         _______ _______ _______ _____ _____    ______ ____

>  <TORSDO>
F 18

$$$$
=
 OpenBabel10222418313D

 68 77  0  0  1  0  0  0  0  0999 V2000
  188.4590  177.1560  135.7510 O   0  0  0  0  0  0  0  0  0  0  0  0
  187.3620  176.8650  136.5980 C   0  0  2  0  0  3  0  0  0  0  0  0
  188.8610  178.4940  137.6840 C   0  0  1  0  0  3  0  0  0  0  0  0
  189.2980  178.0790  136.3300 C   0  0  0  0  0  0  0  0  0  0  0  0
  187.6280  177.6160  137.9130 C   0  0  1  0  0  3  0  0  0  0  0  0
  190.2890  178.5620  135.7270 O   0  0  0  0  0  0  0  0  0  0  0  0
  186.2850  174.8930  137.4240 O   0  0  0  0  0  0  0  0  0  0  0  0
  187.2720  175.3910  136.8140 C   0  0  0  0  0  0  0  0  0  0  0  0
  188.3520  174.5640  136.3740 N   0  0  0  0  0  0  0  0  0  0  0  0
  189.2990  174.1860  137.1840 C   0  0  0  0  0  3  0  0  0  0  0  0
  190.4160  173.3270  136.7080 C   0  0  0  0  0  2  0  0  0  0  0  0
  191.5960  174.0680  136.7530 O   0  0  0  0  0  0  0  0  0  0  0  0
  195.1670  176.2360  135.9330 C   0  0  2  0  0  0  0  0  0  0  0  0
  196.5590  174.2550  137.0180 C   0  0  1  0  0  3  0  0  0  0  0  0
  193.9280  175.4110  135.6930 C   0  0  1  0  0  0  0  0  0  0  0  0
  194.2000  174.0270  135.6870 O   0  0  0  0  0  0  0  0  0  0  0  0
  195.2790  177.5430  135.1620 C   0  0  0  0  0  1  0  0  0  0  0  0
  193.8560  170.8360  136.2980 C   0  0  1  0  0  3  0  0  0  0  0  0
  197.0860  170.8820  137.2300 O   0  0  0  0  0  1  0  0  0  0  0  0
  196.1590  171.8340  136.8070 C   0  0  1  0  0  3  0  0  0  0  0  0
  196.5320  175.4900  136.1130 C   0  0  0  0  0  2  0  0  0  0  0  0
  196.8610  173.0270  136.1750 C   0  0  2  0  0  3  0  0  0  0  0  0
  197.9380  173.6320  137.0640 C   0  0  0  0  0  2  0  0  0  0  0  0
  193.9350  175.2260  138.1260 C   0  0  0  0  0  2  0  0  0  0  0  0
  192.2690  172.5550  134.6900 O   0  0  0  0  0  0  0  0  0  0  0  0
  194.0180  176.2780  137.0000 C   0  0  0  0  0  0  0  0  0  0  0  0
  193.2540  171.8610  137.0570 O   0  0  0  0  0  0  0  0  0  0  0  0
  192.7880  173.1150  135.9960 P   0  0  2  0  0  0  0  0  0  0  0  0
  195.2470  171.2140  135.7610 C   0  0  0  0  0  2  0  0  0  0  0  0
  193.9500  169.6830  137.0740 O   0  0  0  0  0  1  0  0  0  0  0  0
  192.9980  175.9250  134.5940 C   0  0  0  0  0  1  0  0  0  0  0  0
  194.8610  176.3610  138.2880 C   0  0  0  0  0  2  0  0  0  0  0  0
  186.4390  178.4980  138.2460 C   0  0  0  0  0  2  0  0  0  0  0  0
  185.4300  177.7050  139.0550 C   0  0  0  0  0  2  0  0  0  0  0  0
  184.2120  177.5450  138.2750 N   0  0  0  0  0  2  0  0  0  0  0  0
  180.7980  177.5670  139.2770 N   0  0  0  0  0  0  0  0  0  0  0  0
  182.3690  179.1320  138.9420 C   0  0  0  0  0  0  0  0  0  0  0  0
  182.9030  177.8720  138.7450 C   0  0  0  0  0  0  0  0  0  0  0  0
  181.0470  178.8920  139.2770 C   0  0  0  0  0  0  0  0  0  0  0  0
  181.9320  176.9580  138.9630 N   0  0  0  0  0  0  0  0  0  0  0  0
  179.1940  180.7180  139.7720 C   0  0  0  0  0  3  0  0  0  0  0  0
  180.0430  179.8880  139.5490 C   0  0  0  0  0  0  0  0  0  0  0  0
  183.5530  181.4850  138.7010 C   0  0  0  0  0  3  0  0  0  0  0  0
  183.0110  180.4140  138.8120 C   0  0  0  0  0  0  0  0  0  0  0  0
  182.0250  175.5650  138.8240 N   0  0  0  0  0  2  0  0  0  0  0  0
  181.7140  174.8690  137.5840 C   0  0  0  0  0  2  0  0  0  0  0  0
  180.6660  172.8120  136.6380 C   0  0  0  0  0  2  0  0  0  0  0  0
  180.7520  173.7260  137.8470 C   0  0  0  0  0  3  0  0  0  0  0  0
  179.5800  173.8450  136.8860 C   0  0  0  0  0  2  0  0  0  0  0  0
  189.9140  178.1850  138.7440 C   0  0  0  0  0  2  0  0  0  0  0  0
  189.2490  177.0580  139.9830 S   0  0  0  0  0  0  0  0  0  0  0  0
  189.0880  177.9700  141.3110 C   0  0  0  0  0  2  0  0  0  0  0  0
  184.6070  178.7520  145.8350 C   0  0  0  0  0  3  0  0  0  0  0  0
  188.9780  177.6830  143.8900 C   0  0  2  0  0  0  0  0  0  0  0  0
  189.5440  177.6810  145.2910 C   0  0  0  0  0  0  0  0  0  0  0  0
  190.8390  177.5270  145.5470 C   0  0  0  0  0  2  0  0  0  0  0  0
  185.1230  178.5500  147.1140 C   0  0  0  0  0  3  0  0  0  0  0  0
  186.7850  178.2810  144.8700 C   0  0  0  0  0  0  0  0  0  0  0  0
  186.4690  178.2330  147.2790 C   0  0  0  0  0  3  0  0  0  0  0  0
  191.2970  177.6070  142.6160 C   0  0  0  0  0  1  0  0  0  0  0  0
  189.7780  177.5940  142.5870 C   0  0  2  0  0  0  0  0  0  0  0  0
  187.6310  178.1250  143.7670 O   0  0  0  0  0  0  0  0  0  0  0  0
  189.1820  176.3360  143.2090 C   0  0  0  0  0  2  0  0  0  0  0  0
  188.6600  177.8300  146.3610 O   0  0  0  0  0  0  0  0  0  0  0  0
  187.3040  178.1080  146.1680 C   0  0  0  0  0  0  0  0  0  0  0  0
  185.4190  178.6230  144.7050 C   0  0  0  0  0  0  0  0  0  0  0  0
  184.8260  178.8550  143.4560 O   0  0  0  0  0  0  0  0  0  0  0  0
  184.7170  177.8960  142.4140 C   0  0  0  0  0  1  0  0  0  0  0  0
  1  4  1  0  0  0  0
  1  2  1  0  0  0  0
  2  8  1  1  0  0  0
  2  5  1  0  0  0  0
  3  5  1  0  0  0  0
  3 50  1  1  0  0  0
  4  3  1  0  0  0  0
  5 33  1  6  0  0  0
  6  4  2  0  0  0  0
  8  7  2  0  0  0  0
  9  8  1  0  0  0  0
  9 10  2  0  0  0  0
 11 12  1  0  0  0  0
 11 10  1  0  0  0  0
 13 17  1  6  0  0  0
 13 21  1  0  0  0  0
 13 26  1  0  0  0  0
 14 21  1  6  0  0  0
 14 23  1  0  0  0  0
 15 31  1  6  0  0  0
 15 13  1  0  0  0  0
 15 26  1  0  0  0  0
 16 15  1  0  0  0  0
 16 28  1  0  0  0  0
 18 27  1  0  0  0  0
 18 30  1  1  0  0  0
 20 19  1  6  0  0  0
 22 20  1  0  0  0  0
 22 14  1  0  0  0  0
 22 23  1  1  0  0  0
 24 32  1  0  0  0  0
 26 24  1  0  0  0  0
 26 32  1  0  0  0  0
 28 25  2  6  0  0  0
 28 12  1  0  0  0  0
 28 27  1  0  0  0  0
 29 18  1  0  0  0  0
 29 20  1  0  0  0  0
 33 34  1  0  0  0  0
 35 38  1  0  0  0  0
 35 34  1  0  0  0  0
 37 39  1  0  0  0  0
 38 37  2  0  0  0  0
 38 40  1  0  0  0  0
 39 36  2  0  0  0  0
 39 42  1  0  0  0  0
 40 36  1  0  0  0  0
 42 41  3  0  0  0  0
 43 44  3  0  0  0  0
 44 37  1  0  0  0  0
 45 40  1  0  0  0  0
 46 48  1  0  0  0  0
 46 45  1  0  0  0  0
 47 49  1  0  0  0  0
 47 48  1  0  0  0  0
 49 48  1  0  0  0  0
 50 51  1  0  0  0  0
 51 52  1  0  0  0  0
 52 61  1  0  0  0  0
 53 57  1  0  0  0  0
 54 63  1  1  0  0  0
 54 55  1  0  0  0  0
 55 56  2  0  0  0  0
 55 64  1  0  0  0  0
 57 59  2  0  0  0  0
 58 65  2  0  0  0  0
 61 60  1  1  0  0  0
 61 63  1  0  0  0  0
 61 54  1  0  0  0  0
 62 54  1  0  0  0  0
 62 58  1  0  0  0  0
 65 64  1  0  0  0  0
 65 59  1  0  0  0  0
 66 58  1  0  0  0  0
 66 53  2  0  0  0  0
 67 66  1  0  0  0  0
 68 67  1  0  0  0  0
M  END
>  <MODEL>
3

>  <REMARK>
 VINA RESULT:      -4.7      3.613     10.622
  Name = 
  18 active torsions:
  status: ('A' for Active; 'I' for Inactive)
    1  A    between atoms: O_4  and  C_66
    2  A    between atoms: C_6  and  C_22
    3  A    between atoms: C_6  and  S_29
    4  A    between atoms: C_14  and  C_56
    5  A    between atoms: C_15  and  C_25
    6  A    between atoms: C_15  and  N_47
    7  A    between atoms: C_19  and  C_48
    8  A    between atoms: C_20  and  C_26
    9  A    between atoms: C_25  and  C_31
   10  A    between atoms: C_34  and  O_35
   11  A    between atoms: C_34  and  C_57
   12  A    between atoms: O_35  and  P_54
   13  A    between atoms: C_38  and  C_42
   14  A    between atoms: N_44  and  C_56
   15  A    between atoms: N_47  and  C_58
   16  A    between atoms: C_48  and  N_51
   17  A    between atoms: N_51  and  N_68
   18  A    between atoms: C_62  and  C_65
                            x       y       z     vdW  Elec       q    Type
                         _______ _______ _______ _____ _____    ______ ____

>  <TORSDO>
F 18

$$$$
