=
 OpenBabel10222420433D

 39 43  0  0  1  0  0  0  0  0999 V2000
  187.9740  178.0470  141.1450 C   0  0  0  0  0  0  0  0  0  0  0  0
  186.7390  178.3410  140.6440 C   0  0  0  0  0  0  0  0  0  0  0  0
  188.2180  178.1080  138.7890 C   0  0  1  0  0  3  0  0  0  0  0  0
  184.8310  178.6230  143.8170 C   0  0  0  0  0  3  0  0  0  0  0  0
  188.6670  177.6690  145.2560 C   0  0  0  0  0  3  0  0  0  0  0  0
  185.0630  178.5040  145.1880 C   0  0  0  0  0  3  0  0  0  0  0  0
  185.6440  178.5380  141.4920 C   0  0  0  0  0  0  0  0  0  0  0  0
  186.7560  178.3960  139.1620 C   0  0  0  0  0  2  0  0  0  0  0  0
  186.3370  178.1880  145.6580 C   0  0  0  0  0  0  0  0  0  0  0  0
  186.5530  178.0680  146.9960 N   0  0  0  0  0  0  0  0  0  0  0  0
  187.7800  177.7570  147.4960 C   0  0  0  0  0  0  0  0  0  0  0  0
  187.1730  178.1120  143.3660 C   0  0  0  0  0  0  0  0  0  0  0  0
  187.9630  177.6410  148.9010 N   0  0  0  0  0  1  0  0  0  0  0  0
  188.9960  177.8730  140.0960 C   0  0  0  0  0  2  0  0  0  0  0  0
  188.1920  177.9280  142.4780 N   0  0  0  0  0  0  0  0  0  0  0  0
  185.8670  178.4310  142.8900 C   0  0  0  0  0  0  0  0  0  0  0  0
  188.8600  177.5530  146.6330 C   0  0  0  0  0  3  0  0  0  0  0  0
  187.4010  177.9890  144.7480 C   0  0  0  0  0  0  0  0  0  0  0  0
  183.0490  179.2500  138.7480 C   0  0  0  0  0  2  0  0  0  0  0  0
  182.6370  177.7750  138.7720 C   0  0  2  0  0  3  0  0  0  0  0  0
  183.3280  177.8760  141.0940 O   0  0  0  0  0  0  0  0  0  0  0  0
  183.2560  177.0350  139.9670 C   0  0  0  0  0  2  0  0  0  0  0  0
  184.3080  178.8810  140.8810 C   0  0  2  0  0  3  0  0  0  0  0  0
  184.3830  179.4590  139.4540 C   0  0  0  0  0  2  0  0  0  0  0  0
  183.0560  177.1090  137.4710 C   0  0  0  0  0  2  0  0  0  0  0  0
  184.0830  176.1980  137.7130 O   0  0  0  0  0  0  0  0  0  0  0  0
  184.7890  176.1400  136.5130 C   0  0  0  0  0  2  0  0  0  0  0  0
  185.2070  177.4210  136.1560 O   0  0  0  0  0  1  0  0  0  0  0  0
  188.2840  176.8950  137.9210 C   0  0  0  0  0  3  0  0  0  0  0  0
  189.3520  176.1020  137.9410 C   0  0  0  0  0  3  0  0  0  0  0  0
  189.3970  174.8900  137.0770 C   0  0  0  0  0  2  0  0  0  0  0  0
  190.7980  174.6170  136.6660 C   0  0  0  0  0  0  0  0  0  0  0  0
  191.7790  174.3250  137.6620 N   0  0  0  0  0  2  0  0  0  0  0  0
  191.1050  174.6310  135.4450 O   0  0  0  0  0  0  0  0  0  0  0  0
  193.1570  173.9970  137.3260 C   0  0  0  0  0  2  0  0  0  0  0  0
  194.2420  175.4100  137.6860 P   0  0  0  0  0  0  0  0  0  0  0  0
  195.2420  175.0520  139.0040 O   0  0  0  0  0  1  0  0  0  0  0  0
  193.2980  176.7670  138.0500 O   0  0  0  0  0  1  0  0  0  0  0  0
  195.0950  175.7040  136.4740 O   0  0  0  0  0  0  0  0  0  0  0  0
  1 15  1  0  0  0  0
  2  1  2  0  0  0  0
  2  7  1  0  0  0  0
  3 29  1  6  0  0  0
  3  8  1  0  0  0  0
  3 14  1  0  0  0  0
  4  6  2  0  0  0  0
  5 17  1  0  0  0  0
  6  9  1  0  0  0  0
  7 16  2  0  0  0  0
  8  2  1  0  0  0  0
  9 10  2  0  0  0  0
 10 11  1  0  0  0  0
 11 13  1  0  0  0  0
 12 18  1  0  0  0  0
 14  1  1  0  0  0  0
 15 12  2  0  0  0  0
 16 12  1  0  0  0  0
 16  4  1  0  0  0  0
 17 11  2  0  0  0  0
 18  5  2  0  0  0  0
 18  9  1  0  0  0  0
 19 20  1  0  0  0  0
 19 24  1  0  0  0  0
 20 25  1  6  0  0  0
 20 22  1  0  0  0  0
 22 21  1  0  0  0  0
 23 21  1  0  0  0  0
 23  7  1  6  0  0  0
 24 23  1  0  0  0  0
 25 26  1  0  0  0  0
 27 26  1  0  0  0  0
 28 27  1  0  0  0  0
 29 30  2  0  0  0  0
 31 30  1  0  0  0  0
 32 31  1  0  0  0  0
 32 33  1  0  0  0  0
 34 32  2  0  0  0  0
 35 33  1  0  0  0  0
 35 36  1  0  0  0  0
 36 38  1  0  0  0  0
 36 37  1  0  0  0  0
 39 36  2  0  0  0  0
M  END
>  <MODEL>
1

>  <REMARK>
 VINA RESULT:      -8.4      0.000      0.000
  Name = 
  9 active torsions:
  status: ('A' for Active; 'I' for Inactive)
    1  A    between atoms: C_3  and  P_4
    2  A    between atoms: C_3  and  N_27
    3  A    between atoms: C_5  and  C_6
    4  A    between atoms: C_6  and  C_14
    5  A    between atoms: C_8  and  C_9
    6  A    between atoms: C_10  and  C_30
    7  A    between atoms: C_17  and  C_26
    8  A    between atoms: C_18  and  O_20
    9  A    between atoms: O_20  and  C_30
                            x       y       z     vdW  Elec       q    Type
                         _______ _______ _______ _____ _____    ______ ____

>  <TORSDO>
F 9

$$$$
=
 OpenBabel10222420433D

 39 43  0  0  1  0  0  0  0  0999 V2000
  185.3060  178.7580  143.0880 C   0  0  0  0  0  0  0  0  0  0  0  0
  185.4060  178.4660  144.4180 C   0  0  0  0  0  0  0  0  0  0  0  0
  183.2590  179.4380  144.0660 C   0  0  1  0  0  3  0  0  0  0  0  0
  188.8290  177.0290  144.4830 C   0  0  0  0  0  3  0  0  0  0  0  0
  188.4040  177.9310  140.3960 C   0  0  0  0  0  3  0  0  0  0  0  0
  189.8640  176.7590  143.5870 C   0  0  0  0  0  3  0  0  0  0  0  0
  186.5620  177.8780  144.9420 C   0  0  0  0  0  0  0  0  0  0  0  0
  184.1680  178.8350  145.1470 C   0  0  0  0  0  2  0  0  0  0  0  0
  189.7170  177.0610  142.2340 C   0  0  0  0  0  0  0  0  0  0  0  0
  190.7290  176.7890  141.3660 N   0  0  0  0  0  0  0  0  0  0  0  0
  190.6250  177.0640  140.0380 C   0  0  0  0  0  0  0  0  0  0  0  0
  187.4740  177.9220  142.6630 C   0  0  0  0  0  0  0  0  0  0  0  0
  191.7060  176.7640  139.1650 N   0  0  0  0  0  1  0  0  0  0  0  0
  184.0140  179.3700  142.7270 C   0  0  0  0  0  2  0  0  0  0  0  0
  186.3140  178.4900  142.2220 N   0  0  0  0  0  0  0  0  0  0  0  0
  187.6290  177.6070  144.0450 C   0  0  0  0  0  0  0  0  0  0  0  0
  189.4580  177.6410  139.5300 C   0  0  0  0  0  3  0  0  0  0  0  0
  188.5190  177.6440  141.7630 C   0  0  0  0  0  0  0  0  0  0  0  0
  187.9920  176.6390  148.2870 C   0  0  0  0  0  2  0  0  0  0  0  0
  188.5550  178.0390  148.5520 C   0  0  2  0  0  3  0  0  0  0  0  0
  186.6740  178.7770  147.2100 O   0  0  0  0  0  0  0  0  0  0  0  0
  188.0120  179.0650  147.5460 C   0  0  0  0  0  2  0  0  0  0  0  0
  186.6210  177.5960  146.4230 C   0  0  2  0  0  3  0  0  0  0  0  0
  187.5960  176.4730  146.8250 C   0  0  0  0  0  2  0  0  0  0  0  0
  190.0730  177.9970  148.4870 C   0  0  0  0  0  2  0  0  0  0  0  0
  190.4820  177.4630  147.2670 O   0  0  0  0  0  0  0  0  0  0  0  0
  191.5480  176.6250  147.5910 C   0  0  0  0  0  2  0  0  0  0  0  0
  192.1080  176.1090  146.4240 O   0  0  0  0  0  1  0  0  0  0  0  0
  181.9890  178.6550  143.9860 C   0  0  0  0  0  3  0  0  0  0  0  0
  181.0350  178.9940  143.1240 C   0  0  0  0  0  3  0  0  0  0  0  0
  179.7810  178.1950  143.0490 C   0  0  0  0  0  2  0  0  0  0  0  0
  179.6840  177.5340  141.7220 C   0  0  0  0  0  0  0  0  0  0  0  0
  180.1550  178.2160  140.5590 N   0  0  0  0  0  2  0  0  0  0  0  0
  179.2020  176.3730  141.6360 O   0  0  0  0  0  0  0  0  0  0  0  0
  180.1380  177.6080  139.2380 C   0  0  0  0  0  2  0  0  0  0  0  0
  181.8100  177.0670  138.7760 P   0  0  0  0  0  0  0  0  0  0  0  0
  182.8700  178.3870  138.7850 O   0  0  0  0  0  1  0  0  0  0  0  0
  181.7740  176.3860  137.2270 O   0  0  0  0  0  0  0  0  0  0  0  0
  182.2900  176.0320  139.7670 O   0  0  0  0  0  1  0  0  0  0  0  0
  1  2  1  0  0  0  0
  2  7  2  0  0  0  0
  2  8  1  0  0  0  0
  3 29  1  6  0  0  0
  3  8  1  0  0  0  0
  5 18  1  0  0  0  0
  6  4  2  0  0  0  0
  9  6  1  0  0  0  0
 10  9  1  0  0  0  0
 11 10  2  0  0  0  0
 12 16  2  0  0  0  0
 13 11  1  0  0  0  0
 14  1  1  0  0  0  0
 14  3  1  0  0  0  0
 15 12  1  0  0  0  0
 15  1  2  0  0  0  0
 16  4  1  0  0  0  0
 16  7  1  0  0  0  0
 17 11  1  0  0  0  0
 17  5  2  0  0  0  0
 18  9  2  0  0  0  0
 18 12  1  0  0  0  0
 19 20  1  0  0  0  0
 20 25  1  6  0  0  0
 21 22  1  0  0  0  0
 22 20  1  0  0  0  0
 23  7  1  6  0  0  0
 23 24  1  0  0  0  0
 23 21  1  0  0  0  0
 24 19  1  0  0  0  0
 26 27  1  0  0  0  0
 26 25  1  0  0  0  0
 28 27  1  0  0  0  0
 30 29  2  0  0  0  0
 31 30  1  0  0  0  0
 32 31  1  0  0  0  0
 33 32  1  0  0  0  0
 34 32  2  0  0  0  0
 35 33  1  0  0  0  0
 36 37  1  0  0  0  0
 36 35  1  0  0  0  0
 36 39  1  0  0  0  0
 38 36  2  0  0  0  0
M  END
>  <MODEL>
2

>  <REMARK>
 VINA RESULT:      -8.2      4.468      9.239
  Name = 
  9 active torsions:
  status: ('A' for Active; 'I' for Inactive)
    1  A    between atoms: C_3  and  P_4
    2  A    between atoms: C_3  and  N_27
    3  A    between atoms: C_5  and  C_6
    4  A    between atoms: C_6  and  C_14
    5  A    between atoms: C_8  and  C_9
    6  A    between atoms: C_10  and  C_30
    7  A    between atoms: C_17  and  C_26
    8  A    between atoms: C_18  and  O_20
    9  A    between atoms: O_20  and  C_30
                            x       y       z     vdW  Elec       q    Type
                         _______ _______ _______ _____ _____    ______ ____

>  <TORSDO>
F 9

$$$$
=
 OpenBabel10222420433D

 39 43  0  0  1  0  0  0  0  0999 V2000
  187.7270  178.0400  140.3430 C   0  0  0  0  0  0  0  0  0  0  0  0
  186.4410  178.3430  139.9990 C   0  0  0  0  0  0  0  0  0  0  0  0
  187.7020  178.2140  137.9800 C   0  0  1  0  0  3  0  0  0  0  0  0
  184.9040  178.4550  143.3770 C   0  0  0  0  0  3  0  0  0  0  0  0
  188.8840  177.4810  144.3270 C   0  0  0  0  0  3  0  0  0  0  0  0
  185.2910  178.2750  144.7060 C   0  0  0  0  0  3  0  0  0  0  0  0
  185.4490  178.4880  140.9740 C   0  0  0  0  0  0  0  0  0  0  0  0
  186.2900  178.4660  138.5290 C   0  0  0  0  0  2  0  0  0  0  0  0
  186.6120  177.9530  145.0130 C   0  0  0  0  0  0  0  0  0  0  0  0
  186.9800  177.7740  146.3110 N   0  0  0  0  0  0  0  0  0  0  0  0
  188.2570  177.4560  146.6540 C   0  0  0  0  0  0  0  0  0  0  0  0
  187.1830  177.9930  142.6410 C   0  0  0  0  0  0  0  0  0  0  0  0
  188.5990  177.2770  148.0220 N   0  0  0  0  0  1  0  0  0  0  0  0
  188.6250  177.9270  139.1780 C   0  0  0  0  0  2  0  0  0  0  0  0
  188.0960  177.8630  141.6360 N   0  0  0  0  0  0  0  0  0  0  0  0
  185.8290  178.3190  142.3320 C   0  0  0  0  0  0  0  0  0  0  0  0
  189.2330  177.3040  145.6660 C   0  0  0  0  0  3  0  0  0  0  0  0
  187.5670  177.8100  143.9810 C   0  0  0  0  0  0  0  0  0  0  0  0
  182.5960  179.4870  138.6000 C   0  0  0  0  0  2  0  0  0  0  0  0
  182.2620  178.0060  138.3970 C   0  0  2  0  0  3  0  0  0  0  0  0
  183.1430  177.7550  140.6430 O   0  0  0  0  0  0  0  0  0  0  0  0
  183.0170  177.1150  139.3940 C   0  0  0  0  0  2  0  0  0  0  0  0
  184.0500  178.8430  140.5340 C   0  0  2  0  0  3  0  0  0  0  0  0
  183.9730  179.6580  139.2290 C   0  0  0  0  0  2  0  0  0  0  0  0
  182.6010  177.5980  136.9720 C   0  0  0  0  0  2  0  0  0  0  0  0
  183.6850  176.7210  136.9740 O   0  0  0  0  0  0  0  0  0  0  0  0
  184.1760  176.7700  135.6700 C   0  0  0  0  0  2  0  0  0  0  0  0
  183.2790  177.4610  134.8590 O   0  0  0  0  0  1  0  0  0  0  0  0
  187.6770  177.0420  137.0530 C   0  0  0  0  0  3  0  0  0  0  0  0
  188.2690  175.8990  137.3870 C   0  0  0  0  0  3  0  0  0  0  0  0
  188.2250  174.7380  136.4560 C   0  0  0  0  0  2  0  0  0  0  0  0
  187.3660  173.6680  137.0270 C   0  0  0  0  0  0  0  0  0  0  0  0
  185.9970  173.9480  137.3260 N   0  0  0  0  0  2  0  0  0  0  0  0
  187.8470  172.5210  137.2280 O   0  0  0  0  0  0  0  0  0  0  0  0
  185.0880  172.9340  137.8380 C   0  0  0  0  0  2  0  0  0  0  0  0
  183.6770  172.7310  136.7100 P   0  0  0  0  0  0  0  0  0  0  0  0
  183.1780  171.1140  136.6900 O   0  0  0  0  0  1  0  0  0  0  0  0
  184.1330  173.1980  135.1490 O   0  0  0  0  0  0  0  0  0  0  0  0
  182.5350  173.6030  137.1800 O   0  0  0  0  0  1  0  0  0  0  0  0
  1 15  1  0  0  0  0
  2  1  2  0  0  0  0
  2  7  1  0  0  0  0
  3 29  1  6  0  0  0
  3  8  1  0  0  0  0
  3 14  1  0  0  0  0
  4  6  2  0  0  0  0
  5 17  1  0  0  0  0
  6  9  1  0  0  0  0
  7 16  2  0  0  0  0
  8  2  1  0  0  0  0
  9 10  2  0  0  0  0
 10 11  1  0  0  0  0
 11 13  1  0  0  0  0
 12 18  1  0  0  0  0
 14  1  1  0  0  0  0
 15 12  2  0  0  0  0
 16 12  1  0  0  0  0
 16  4  1  0  0  0  0
 17 11  2  0  0  0  0
 18  5  2  0  0  0  0
 18  9  1  0  0  0  0
 19 24  1  0  0  0  0
 20 25  1  6  0  0  0
 20 19  1  0  0  0  0
 20 22  1  0  0  0  0
 22 21  1  0  0  0  0
 23 21  1  0  0  0  0
 23  7  1  6  0  0  0
 24 23  1  0  0  0  0
 25 26  1  0  0  0  0
 27 26  1  0  0  0  0
 28 27  1  0  0  0  0
 29 30  2  0  0  0  0
 31 32  1  0  0  0  0
 31 30  1  0  0  0  0
 32 34  2  0  0  0  0
 32 33  1  0  0  0  0
 33 35  1  0  0  0  0
 36 39  1  0  0  0  0
 36 35  1  0  0  0  0
 37 36  1  0  0  0  0
 38 36  2  0  0  0  0
M  END
>  <MODEL>
3

>  <REMARK>
 VINA RESULT:      -8.1      3.217      4.274
  Name = 
  9 active torsions:
  status: ('A' for Active; 'I' for Inactive)
    1  A    between atoms: C_3  and  P_4
    2  A    between atoms: C_3  and  N_27
    3  A    between atoms: C_5  and  C_6
    4  A    between atoms: C_6  and  C_14
    5  A    between atoms: C_8  and  C_9
    6  A    between atoms: C_10  and  C_30
    7  A    between atoms: C_17  and  C_26
    8  A    between atoms: C_18  and  O_20
    9  A    between atoms: O_20  and  C_30
                            x       y       z     vdW  Elec       q    Type
                         _______ _______ _______ _____ _____    ______ ____

>  <TORSDO>
F 9

$$$$
=
 OpenBabel10222420433D

 39 43  0  0  1  0  0  0  0  0999 V2000
  189.2030  177.7460  141.1910 C   0  0  0  0  0  0  0  0  0  0  0  0
  188.0990  178.1370  140.4900 C   0  0  0  0  0  0  0  0  0  0  0  0
  189.8540  177.8040  138.9130 C   0  0  1  0  0  3  0  0  0  0  0  0
  185.6980  178.5440  143.2930 C   0  0  0  0  0  3  0  0  0  0  0  0
  189.1460  177.2910  145.3510 C   0  0  0  0  0  3  0  0  0  0  0  0
  185.6800  178.3980  144.6810 C   0  0  0  0  0  3  0  0  0  0  0  0
  186.8920  178.4120  141.1410 C   0  0  0  0  0  0  0  0  0  0  0  0
  188.3760  178.1990  139.0340 C   0  0  0  0  0  2  0  0  0  0  0  0
  186.8270  177.9830  145.3570 C   0  0  0  0  0  0  0  0  0  0  0  0
  186.7990  177.8390  146.7100 N   0  0  0  0  0  0  0  0  0  0  0  0
  187.8950  177.4330  147.4070 C   0  0  0  0  0  0  0  0  0  0  0  0
  188.0380  177.8590  143.2410 C   0  0  0  0  0  0  0  0  0  0  0  0
  187.8240  177.2940  148.8200 N   0  0  0  0  0  1  0  0  0  0  0  0
  190.3760  177.5020  140.3290 C   0  0  0  0  0  2  0  0  0  0  0  0
  189.1790  177.6030  142.5390 N   0  0  0  0  0  0  0  0  0  0  0  0
  186.8610  178.2790  142.5550 C   0  0  0  0  0  0  0  0  0  0  0  0
  189.0890  177.1520  146.7380 C   0  0  0  0  0  3  0  0  0  0  0  0
  188.0140  177.7100  144.6400 C   0  0  0  0  0  0  0  0  0  0  0  0
  184.1450  178.2550  138.4590 C   0  0  0  0  0  2  0  0  0  0  0  0
  183.1760  177.6870  139.5000 C   0  0  2  0  0  3  0  0  0  0  0  0
  184.5130  178.9600  141.0740 O   0  0  0  0  0  0  0  0  0  0  0  0
  183.7540  177.7830  140.9200 C   0  0  0  0  0  2  0  0  0  0  0  0
  185.7110  178.8590  140.3170 C   0  0  2  0  0  3  0  0  0  0  0  0
  185.5860  178.1700  138.9440 C   0  0  0  0  0  2  0  0  0  0  0  0
  182.8580  176.2400  139.1630 C   0  0  0  0  0  2  0  0  0  0  0  0
  181.6180  175.8890  139.6950 O   0  0  0  0  0  0  0  0  0  0  0  0
  180.6940  176.3330  138.7510 C   0  0  0  0  0  2  0  0  0  0  0  0
  180.9460  175.7170  137.5260 O   0  0  0  0  0  1  0  0  0  0  0  0
  189.9800  176.5940  138.0450 C   0  0  0  0  0  3  0  0  0  0  0  0
  190.9340  175.6940  138.2680 C   0  0  0  0  0  3  0  0  0  0  0  0
  191.0370  174.4890  137.4000 C   0  0  0  0  0  2  0  0  0  0  0  0
  192.4420  174.3120  136.9500 C   0  0  0  0  0  0  0  0  0  0  0  0
  193.4850  175.0500  137.5900 N   0  0  0  0  0  2  0  0  0  0  0  0
  192.7040  173.5040  136.0200 O   0  0  0  0  0  0  0  0  0  0  0  0
  194.8860  174.8870  137.2350 C   0  0  0  0  0  2  0  0  0  0  0  0
  195.8090  174.1820  138.6320 P   0  0  0  0  0  0  0  0  0  0  0  0
  197.4370  173.9840  138.2120 O   0  0  0  0  0  0  0  0  0  0  0  0
  195.1480  172.6790  139.0430 O   0  0  0  0  0  1  0  0  0  0  0  0
  195.7060  175.1140  139.8180 O   0  0  0  0  0  1  0  0  0  0  0  0
  1 15  1  0  0  0  0
  2  7  1  0  0  0  0
  2  1  2  0  0  0  0
  3 29  1  6  0  0  0
  3  8  1  0  0  0  0
  3 14  1  0  0  0  0
  4  6  2  0  0  0  0
  5 17  1  0  0  0  0
  6  9  1  0  0  0  0
  7 16  2  0  0  0  0
  8  2  1  0  0  0  0
  9 10  2  0  0  0  0
 10 11  1  0  0  0  0
 11 13  1  0  0  0  0
 12 18  1  0  0  0  0
 14  1  1  0  0  0  0
 15 12  2  0  0  0  0
 16 12  1  0  0  0  0
 16  4  1  0  0  0  0
 17 11  2  0  0  0  0
 18  5  2  0  0  0  0
 18  9  1  0  0  0  0
 19 24  1  0  0  0  0
 19 20  1  0  0  0  0
 20 25  1  6  0  0  0
 20 22  1  0  0  0  0
 22 21  1  0  0  0  0
 23 21  1  0  0  0  0
 23  7  1  1  0  0  0
 24 23  1  0  0  0  0
 25 26  1  0  0  0  0
 27 26  1  0  0  0  0
 28 27  1  0  0  0  0
 29 30  2  0  0  0  0
 31 30  1  0  0  0  0
 32 31  1  0  0  0  0
 32 33  1  0  0  0  0
 34 32  2  0  0  0  0
 35 33  1  0  0  0  0
 35 36  1  0  0  0  0
 36 38  1  0  0  0  0
 36 39  1  0  0  0  0
 37 36  2  0  0  0  0
M  END
>  <MODEL>
4

>  <REMARK>
 VINA RESULT:      -8.0      1.677      2.015
  Name = 
  9 active torsions:
  status: ('A' for Active; 'I' for Inactive)
    1  A    between atoms: C_3  and  P_4
    2  A    between atoms: C_3  and  N_27
    3  A    between atoms: C_5  and  C_6
    4  A    between atoms: C_6  and  C_14
    5  A    between atoms: C_8  and  C_9
    6  A    between atoms: C_10  and  C_30
    7  A    between atoms: C_17  and  C_26
    8  A    between atoms: C_18  and  O_20
    9  A    between atoms: O_20  and  C_30
                            x       y       z     vdW  Elec       q    Type
                         _______ _______ _______ _____ _____    ______ ____

>  <TORSDO>
F 9

$$$$
=
 OpenBabel10222420433D

 39 43  0  0  1  0  0  0  0  0999 V2000
  189.4000  177.7480  140.6230 C   0  0  0  0  0  0  0  0  0  0  0  0
  188.0910  178.1330  140.6040 C   0  0  0  0  0  0  0  0  0  0  0  0
  188.8850  178.2200  138.3590 C   0  0  1  0  0  3  0  0  0  0  0  0
  187.3140  177.8650  144.2250 C   0  0  0  0  0  3  0  0  0  0  0  0
  191.3420  176.6530  144.1660 C   0  0  0  0  0  3  0  0  0  0  0  0
  187.9630  177.5060  145.4080 C   0  0  0  0  0  3  0  0  0  0  0  0
  187.3380  178.1850  141.7820 C   0  0  0  0  0  0  0  0  0  0  0  0
  187.6380  178.4460  139.2270 C   0  0  0  0  0  2  0  0  0  0  0  0
  189.2980  177.1060  145.3800 C   0  0  0  0  0  0  0  0  0  0  0  0
  189.9210  176.7530  146.5370 N   0  0  0  0  0  0  0  0  0  0  0  0
  191.2210  176.3520  146.5540 C   0  0  0  0  0  0  0  0  0  0  0  0
  189.3540  177.4280  142.9620 C   0  0  0  0  0  0  0  0  0  0  0  0
  191.8360  175.9910  147.7840 N   0  0  0  0  0  1  0  0  0  0  0  0
  190.0220  177.7560  139.2850 C   0  0  0  0  0  2  0  0  0  0  0  0
  190.0240  177.3970  141.7740 N   0  0  0  0  0  0  0  0  0  0  0  0
  187.9870  177.8330  142.9950 C   0  0  0  0  0  0  0  0  0  0  0  0
  191.9550  176.2960  145.3670 C   0  0  0  0  0  3  0  0  0  0  0  0
  190.0020  177.0640  144.1560 C   0  0  0  0  0  0  0  0  0  0  0  0
  183.6010  178.3800  142.6600 C   0  0  0  0  0  2  0  0  0  0  0  0
  183.8960  179.5510  143.6020 C   0  0  2  0  0  3  0  0  0  0  0  0
  185.7260  179.9960  142.0740 O   0  0  0  0  0  0  0  0  0  0  0  0
  185.3300  180.0720  143.4240 C   0  0  0  0  0  2  0  0  0  0  0  0
  185.9000  178.6360  141.7020 C   0  0  2  0  0  3  0  0  0  0  0  0
  184.8800  177.6410  142.2860 C   0  0  0  0  0  2  0  0  0  0  0  0
  183.6740  179.1150  145.0410 C   0  0  0  0  0  2  0  0  0  0  0  0
  184.5750  178.1050  145.3760 O   0  0  0  0  0  0  0  0  0  0  0  0
  184.7960  178.2710  146.7420 C   0  0  0  0  0  2  0  0  0  0  0  0
  185.3950  179.5080  146.9700 O   0  0  0  0  0  1  0  0  0  0  0  0
  188.5950  177.1770  137.3290 C   0  0  0  0  0  3  0  0  0  0  0  0
  188.2300  175.9500  137.6890 C   0  0  0  0  0  3  0  0  0  0  0  0
  187.9350  174.9260  136.6500 C   0  0  0  0  0  2  0  0  0  0  0  0
  186.6820  174.2060  136.9950 C   0  0  0  0  0  0  0  0  0  0  0  0
  185.5300  174.9490  137.3970 N   0  0  0  0  0  2  0  0  0  0  0  0
  186.6410  172.9490  136.9160 O   0  0  0  0  0  0  0  0  0  0  0  0
  184.2570  174.3120  137.6990 C   0  0  0  0  0  2  0  0  0  0  0  0
  182.8830  175.4050  137.2320 P   0  0  0  0  0  0  0  0  0  0  0  0
  183.4730  176.7510  136.3920 O   0  0  0  0  0  1  0  0  0  0  0  0
  182.0750  175.9210  138.6250 O   0  0  0  0  0  1  0  0  0  0  0  0
  181.9210  174.6440  136.3470 O   0  0  0  0  0  0  0  0  0  0  0  0
  1 15  1  0  0  0  0
  2  1  2  0  0  0  0
  2  7  1  0  0  0  0
  3 29  1  6  0  0  0
  3  8  1  0  0  0  0
  3 14  1  0  0  0  0
  4  6  2  0  0  0  0
  5 17  1  0  0  0  0
  7 16  2  0  0  0  0
  8  2  1  0  0  0  0
  9  6  1  0  0  0  0
  9 10  2  0  0  0  0
 10 11  1  0  0  0  0
 11 13  1  0  0  0  0
 12 16  1  0  0  0  0
 12 18  1  0  0  0  0
 14  1  1  0  0  0  0
 15 12  2  0  0  0  0
 16  4  1  0  0  0  0
 17 11  2  0  0  0  0
 18  5  2  0  0  0  0
 18  9  1  0  0  0  0
 19 20  1  0  0  0  0
 20 25  1  1  0  0  0
 21 22  1  0  0  0  0
 22 20  1  0  0  0  0
 23  7  1  1  0  0  0
 23 21  1  0  0  0  0
 23 24  1  0  0  0  0
 24 19  1  0  0  0  0
 25 26  1  0  0  0  0
 26 27  1  0  0  0  0
 27 28  1  0  0  0  0
 29 30  2  0  0  0  0
 31 32  1  0  0  0  0
 31 30  1  0  0  0  0
 32 33  1  0  0  0  0
 33 35  1  0  0  0  0
 34 32  2  0  0  0  0
 36 35  1  0  0  0  0
 36 38  1  0  0  0  0
 37 36  1  0  0  0  0
 39 36  2  0  0  0  0
M  END
>  <MODEL>
5

>  <REMARK>
 VINA RESULT:      -7.9      3.849      5.826
  Name = 
  9 active torsions:
  status: ('A' for Active; 'I' for Inactive)
    1  A    between atoms: C_3  and  P_4
    2  A    between atoms: C_3  and  N_27
    3  A    between atoms: C_5  and  C_6
    4  A    between atoms: C_6  and  C_14
    5  A    between atoms: C_8  and  C_9
    6  A    between atoms: C_10  and  C_30
    7  A    between atoms: C_17  and  C_26
    8  A    between atoms: C_18  and  O_20
    9  A    between atoms: O_20  and  C_30
                            x       y       z     vdW  Elec       q    Type
                         _______ _______ _______ _____ _____    ______ ____

>  <TORSDO>
F 9

$$$$
=
 OpenBabel10222420433D

 39 43  0  0  1  0  0  0  0  0999 V2000
  189.7700  176.8030  138.3700 C   0  0  0  0  0  0  0  0  0  0  0  0
  190.5260  176.8440  139.5060 C   0  0  0  0  0  0  0  0  0  0  0  0
  191.8710  175.8700  137.7970 C   0  0  1  0  0  3  0  0  0  0  0  0
  188.0700  178.3790  141.8300 C   0  0  0  0  0  3  0  0  0  0  0  0
  185.8420  178.2450  138.2650 C   0  0  0  0  0  3  0  0  0  0  0  0
  186.7580  178.8540  141.7970 C   0  0  0  0  0  3  0  0  0  0  0  0
  190.0110  177.3690  140.6960 C   0  0  0  0  0  0  0  0  0  0  0  0
  191.8840  176.2950  139.2730 C   0  0  0  0  0  2  0  0  0  0  0  0
  186.0250  178.8060  140.6120 C   0  0  0  0  0  0  0  0  0  0  0  0
  184.7490  179.2760  140.5870 N   0  0  0  0  0  0  0  0  0  0  0  0
  184.0010  179.2510  139.4510 C   0  0  0  0  0  0  0  0  0  0  0  0
  187.9270  177.7900  139.4680 C   0  0  0  0  0  0  0  0  0  0  0  0
  182.6710  179.7530  139.4680 N   0  0  0  0  0  1  0  0  0  0  0  0
  190.4870  176.2180  137.2210 C   0  0  0  0  0  2  0  0  0  0  0  0
  188.4980  177.2690  138.3430 N   0  0  0  0  0  0  0  0  0  0  0  0
  188.6740  177.8460  140.6820 C   0  0  0  0  0  0  0  0  0  0  0  0
  184.5350  178.7340  138.2690 C   0  0  0  0  0  3  0  0  0  0  0  0
  186.6070  178.2730  139.4390 C   0  0  0  0  0  0  0  0  0  0  0  0
  191.2120  178.3030  144.2250 C   0  0  0  0  0  2  0  0  0  0  0  0
  190.4570  177.0960  144.7890 C   0  0  2  0  0  3  0  0  0  0  0  0
  190.8830  176.1240  142.6080 O   0  0  0  0  0  0  0  0  0  0  0  0
  189.9590  176.1680  143.6710 C   0  0  0  0  0  2  0  0  0  0  0  0
  190.8870  177.3690  141.9250 C   0  0  2  0  0  3  0  0  0  0  0  0
  190.7540  178.6250  142.8080 C   0  0  0  0  0  2  0  0  0  0  0  0
  189.2850  177.5760  145.6300 C   0  0  0  0  0  2  0  0  0  0  0  0
  188.0840  177.2500  145.0010 O   0  0  0  0  0  0  0  0  0  0  0  0
  187.1020  177.8440  145.7930 C   0  0  0  0  0  2  0  0  0  0  0  0
  187.5320  177.8830  147.1170 O   0  0  0  0  0  1  0  0  0  0  0  0
  192.9410  176.6030  137.0560 C   0  0  0  0  0  3  0  0  0  0  0  0
  193.6240  176.0070  136.0820 C   0  0  0  0  0  3  0  0  0  0  0  0
  194.6790  176.7560  135.3460 C   0  0  0  0  0  2  0  0  0  0  0  0
  195.9940  176.0950  135.5420 C   0  0  0  0  0  0  0  0  0  0  0  0
  196.0550  174.6750  135.6850 N   0  0  0  0  0  2  0  0  0  0  0  0
  197.0460  176.7890  135.5650 O   0  0  0  0  0  0  0  0  0  0  0  0
  197.3130  173.9590  135.8290 C   0  0  0  0  0  2  0  0  0  0  0  0
  197.7160  173.7460  137.5880 P   0  0  0  0  0  0  0  0  0  0  0  0
  196.4100  173.0390  138.4000 O   0  0  0  0  0  1  0  0  0  0  0  0
  198.0550  175.2550  138.2740 O   0  0  0  0  0  1  0  0  0  0  0  0
  198.9290  172.8530  137.7160 O   0  0  0  0  0  0  0  0  0  0  0  0
  1  2  1  0  0  0  0
  2  7  2  0  0  0  0
  3 29  1  6  0  0  0
  3  8  1  0  0  0  0
  5 17  2  0  0  0  0
  5 18  1  0  0  0  0
  6  4  1  0  0  0  0
  8  2  1  0  0  0  0
  9  6  2  0  0  0  0
 10  9  1  0  0  0  0
 11 13  1  0  0  0  0
 11 10  2  0  0  0  0
 12 16  1  0  0  0  0
 14  3  1  0  0  0  0
 14  1  1  0  0  0  0
 15  1  2  0  0  0  0
 15 12  1  0  0  0  0
 16  7  1  0  0  0  0
 16  4  2  0  0  0  0
 17 11  1  0  0  0  0
 18 12  2  0  0  0  0
 18  9  1  0  0  0  0
 19 20  1  0  0  0  0
 20 25  1  6  0  0  0
 21 22  1  0  0  0  0
 22 20  1  0  0  0  0
 23  7  1  6  0  0  0
 23 21  1  0  0  0  0
 23 24  1  0  0  0  0
 24 19  1  0  0  0  0
 26 25  1  0  0  0  0
 26 27  1  0  0  0  0
 27 28  1  0  0  0  0
 30 29  2  0  0  0  0
 31 32  1  0  0  0  0
 31 30  1  0  0  0  0
 32 34  2  0  0  0  0
 32 33  1  0  0  0  0
 33 35  1  0  0  0  0
 35 36  1  0  0  0  0
 36 39  2  0  0  0  0
 36 38  1  0  0  0  0
 36 37  1  0  0  0  0
M  END
>  <MODEL>
6

>  <REMARK>
 VINA RESULT:      -7.9      3.604      6.629
  Name = 
  9 active torsions:
  status: ('A' for Active; 'I' for Inactive)
    1  A    between atoms: C_3  and  P_4
    2  A    between atoms: C_3  and  N_27
    3  A    between atoms: C_5  and  C_6
    4  A    between atoms: C_6  and  C_14
    5  A    between atoms: C_8  and  C_9
    6  A    between atoms: C_10  and  C_30
    7  A    between atoms: C_17  and  C_26
    8  A    between atoms: C_18  and  O_20
    9  A    between atoms: O_20  and  C_30
                            x       y       z     vdW  Elec       q    Type
                         _______ _______ _______ _____ _____    ______ ____

>  <TORSDO>
F 9

$$$$
=
 OpenBabel10222420433D

 39 43  0  0  1  0  0  0  0  0999 V2000
  188.6140  177.8380  140.8980 C   0  0  0  0  0  0  0  0  0  0  0  0
  187.4450  178.2180  140.3050 C   0  0  0  0  0  0  0  0  0  0  0  0
  189.0530  177.9200  138.5710 C   0  0  1  0  0  3  0  0  0  0  0  0
  185.3050  178.5710  143.3190 C   0  0  0  0  0  3  0  0  0  0  0  0
  188.9440  177.3550  145.0430 C   0  0  0  0  0  3  0  0  0  0  0  0
  185.4170  178.4170  144.7010 C   0  0  0  0  0  3  0  0  0  0  0  0
  186.2990  178.4710  141.0660 C   0  0  0  0  0  0  0  0  0  0  0  0
  187.5870  178.2940  138.8300 C   0  0  0  0  0  2  0  0  0  0  0  0
  186.6260  178.0140  145.2660 C   0  0  0  0  0  0  0  0  0  0  0  0
  186.7240  177.8600  146.6140 N   0  0  0  0  0  0  0  0  0  0  0  0
  187.8840  177.4650  147.2050 C   0  0  0  0  0  0  0  0  0  0  0  0
  187.6400  177.9200  143.0480 C   0  0  0  0  0  0  0  0  0  0  0  0
  187.9450  177.3160  148.6180 N   0  0  0  0  0  1  0  0  0  0  0  0
  189.7060  177.6160  139.9310 C   0  0  0  0  0  2  0  0  0  0  0  0
  188.7150  177.6860  142.2420 N   0  0  0  0  0  0  0  0  0  0  0  0
  186.3990  178.3280  142.4750 C   0  0  0  0  0  0  0  0  0  0  0  0
  189.0160  177.2050  146.4280 C   0  0  0  0  0  3  0  0  0  0  0  0
  187.7460  177.7620  144.4410 C   0  0  0  0  0  0  0  0  0  0  0  0
  183.6260  178.6300  138.3090 C   0  0  0  0  0  2  0  0  0  0  0  0
  182.8140  177.5650  139.0520 C   0  0  2  0  0  3  0  0  0  0  0  0
  183.8580  178.5040  141.0290 O   0  0  0  0  0  0  0  0  0  0  0  0
  183.3700  177.3110  140.4600 C   0  0  0  0  0  2  0  0  0  0  0  0
  185.0410  178.9070  140.3560 C   0  0  2  0  0  3  0  0  0  0  0  0
  185.0570  178.6920  138.8300 C   0  0  0  0  0  2  0  0  0  0  0  0
  182.8130  176.2740  138.2500 C   0  0  0  0  0  2  0  0  0  0  0  0
  182.2000  175.2590  138.9830 O   0  0  0  0  0  0  0  0  0  0  0  0
  181.0350  174.9700  138.2740 C   0  0  0  0  0  2  0  0  0  0  0  0
  179.9660  174.8600  139.1600 O   0  0  0  0  0  1  0  0  0  0  0  0
  189.1150  176.7180  137.6860 C   0  0  0  0  0  3  0  0  0  0  0  0
  188.0180  176.0190  137.4120 C   0  0  0  0  0  3  0  0  0  0  0  0
  188.0950  174.8300  136.5190 C   0  0  0  0  0  2  0  0  0  0  0  0
  187.2300  173.7460  137.0500 C   0  0  0  0  0  0  0  0  0  0  0  0
  185.8810  174.0370  137.4180 N   0  0  0  0  0  2  0  0  0  0  0  0
  187.6870  172.5770  137.1560 O   0  0  0  0  0  0  0  0  0  0  0  0
  184.9640  173.0130  137.8950 C   0  0  0  0  0  2  0  0  0  0  0  0
  183.8620  172.4820  136.5510 P   0  0  0  0  0  0  0  0  0  0  0  0
  182.4420  171.8210  137.1920 O   0  0  0  0  0  1  0  0  0  0  0  0
  184.6470  171.3200  135.6050 O   0  0  0  0  0  0  0  0  0  0  0  0
  183.5160  173.6770  135.6910 O   0  0  0  0  0  1  0  0  0  0  0  0
  1 15  1  0  0  0  0
  2  1  2  0  0  0  0
  2  7  1  0  0  0  0
  3 29  1  6  0  0  0
  3  8  1  0  0  0  0
  3 14  1  0  0  0  0
  4  6  2  0  0  0  0
  5 17  1  0  0  0  0
  6  9  1  0  0  0  0
  7 16  2  0  0  0  0
  8  2  1  0  0  0  0
  9 10  2  0  0  0  0
 10 11  1  0  0  0  0
 11 13  1  0  0  0  0
 12 18  1  0  0  0  0
 14  1  1  0  0  0  0
 15 12  2  0  0  0  0
 16 12  1  0  0  0  0
 16  4  1  0  0  0  0
 17 11  2  0  0  0  0
 18  5  2  0  0  0  0
 18  9  1  0  0  0  0
 19 24  1  0  0  0  0
 19 20  1  0  0  0  0
 20 25  1  6  0  0  0
 20 22  1  0  0  0  0
 22 21  1  0  0  0  0
 23 21  1  0  0  0  0
 23  7  1  1  0  0  0
 24 23  1  0  0  0  0
 25 26  1  0  0  0  0
 27 26  1  0  0  0  0
 27 28  1  0  0  0  0
 30 29  2  0  0  0  0
 31 32  1  0  0  0  0
 31 30  1  0  0  0  0
 32 34  2  0  0  0  0
 32 33  1  0  0  0  0
 33 35  1  0  0  0  0
 36 37  1  0  0  0  0
 36 35  1  0  0  0  0
 38 36  2  0  0  0  0
 39 36  1  0  0  0  0
M  END
>  <MODEL>
7

>  <REMARK>
 VINA RESULT:      -7.9      3.321      4.432
  Name = 
  9 active torsions:
  status: ('A' for Active; 'I' for Inactive)
    1  A    between atoms: C_3  and  P_4
    2  A    between atoms: C_3  and  N_27
    3  A    between atoms: C_5  and  C_6
    4  A    between atoms: C_6  and  C_14
    5  A    between atoms: C_8  and  C_9
    6  A    between atoms: C_10  and  C_30
    7  A    between atoms: C_17  and  C_26
    8  A    between atoms: C_18  and  O_20
    9  A    between atoms: O_20  and  C_30
                            x       y       z     vdW  Elec       q    Type
                         _______ _______ _______ _____ _____    ______ ____

>  <TORSDO>
F 9

$$$$
=
 OpenBabel10222420433D

 39 43  0  0  1  0  0  0  0  0999 V2000
  189.4050  177.4960  140.8680 C   0  0  0  0  0  0  0  0  0  0  0  0
  188.7820  177.7720  139.6850 C   0  0  0  0  0  0  0  0  0  0  0  0
  191.0040  177.0830  139.1700 C   0  0  1  0  0  3  0  0  0  0  0  0
  185.4480  178.7940  140.9630 C   0  0  0  0  0  3  0  0  0  0  0  0
  187.4470  177.8770  144.5480 C   0  0  0  0  0  3  0  0  0  0  0  0
  184.7970  178.9270  142.1900 C   0  0  0  0  0  3  0  0  0  0  0  0
  187.4520  178.2040  139.6540 C   0  0  0  0  0  0  0  0  0  0  0  0
  189.6840  177.5370  138.5310 C   0  0  0  0  0  2  0  0  0  0  0  0
  185.4660  178.6210  143.3750 C   0  0  0  0  0  0  0  0  0  0  0  0
  184.8220  178.7490  144.5660 N   0  0  0  0  0  0  0  0  0  0  0  0
  185.4370  178.4580  145.7450 C   0  0  0  0  0  0  0  0  0  0  0  0
  187.4700  178.0460  142.1040 C   0  0  0  0  0  0  0  0  0  0  0  0
  184.7280  178.6040  146.9680 N   0  0  0  0  0  1  0  0  0  0  0  0
  190.8010  177.0530  140.6950 C   0  0  0  0  0  2  0  0  0  0  0  0
  188.7660  177.6240  142.0570 N   0  0  0  0  0  0  0  0  0  0  0  0
  186.7790  178.3550  140.8960 C   0  0  0  0  0  0  0  0  0  0  0  0
  186.7630  178.0160  145.7560 C   0  0  0  0  0  3  0  0  0  0  0  0
  186.8080  178.1780  143.3390 C   0  0  0  0  0  0  0  0  0  0  0  0
  187.1820  178.6120  135.8420 C   0  0  0  0  0  2  0  0  0  0  0  0
  186.6520  177.1790  135.7380 C   0  0  2  0  0  3  0  0  0  0  0  0
  185.7930  177.5990  137.9670 O   0  0  0  0  0  0  0  0  0  0  0  0
  186.3130  176.6010  137.1200 C   0  0  0  0  0  2  0  0  0  0  0  0
  186.8230  178.5130  138.3180 C   0  0  2  0  0  3  0  0  0  0  0  0
  187.8240  178.8640  137.2010 C   0  0  0  0  0  2  0  0  0  0  0  0
  187.6840  176.3040  135.0450 C   0  0  0  0  0  2  0  0  0  0  0  0
  188.0910  175.2820  135.9000 O   0  0  0  0  0  0  0  0  0  0  0  0
  188.1780  174.1560  135.0820 C   0  0  0  0  0  2  0  0  0  0  0  0
  188.4970  173.0410  135.8550 O   0  0  0  0  0  1  0  0  0  0  0  0
  191.3620  175.7230  138.6670 C   0  0  0  0  0  3  0  0  0  0  0  0
  191.3090  175.4420  137.3680 C   0  0  0  0  0  3  0  0  0  0  0  0
  191.6800  174.0840  136.8830 C   0  0  0  0  0  2  0  0  0  0  0  0
  193.1030  174.0740  136.4590 C   0  0  0  0  0  0  0  0  0  0  0  0
  193.9400  172.9780  136.8290 N   0  0  0  0  0  2  0  0  0  0  0  0
  193.5550  175.0230  135.7640 O   0  0  0  0  0  0  0  0  0  0  0  0
  195.3290  172.8780  136.4040 C   0  0  0  0  0  2  0  0  0  0  0  0
  196.4230  173.5940  137.6660 P   0  0  0  0  0  0  0  0  0  0  0  0
  196.6150  175.2530  137.3940 O   0  0  0  0  0  0  0  0  0  0  0  0
  197.9330  172.8340  137.5990 O   0  0  0  0  0  1  0  0  0  0  0  0
  195.8140  173.3770  139.0330 O   0  0  0  0  0  1  0  0  0  0  0  0
  1 15  1  0  0  0  0
  2  1  2  0  0  0  0
  3 29  1  6  0  0  0
  3 14  1  0  0  0  0
  4  6  2  0  0  0  0
  5 17  1  0  0  0  0
  6  9  1  0  0  0  0
  7  2  1  0  0  0  0
  7 16  2  0  0  0  0
  8  3  1  0  0  0  0
  8  2  1  0  0  0  0
  9 10  2  0  0  0  0
 10 11  1  0  0  0  0
 11 17  2  0  0  0  0
 11 13  1  0  0  0  0
 12 18  1  0  0  0  0
 14  1  1  0  0  0  0
 15 12  2  0  0  0  0
 16  4  1  0  0  0  0
 16 12  1  0  0  0  0
 18  9  1  0  0  0  0
 18  5  2  0  0  0  0
 19 24  1  0  0  0  0
 20 25  1  1  0  0  0
 20 19  1  0  0  0  0
 20 22  1  0  0  0  0
 21 23  1  0  0  0  0
 22 21  1  0  0  0  0
 23  7  1  1  0  0  0
 24 23  1  0  0  0  0
 25 26  1  0  0  0  0
 27 28  1  0  0  0  0
 27 26  1  0  0  0  0
 30 29  2  0  0  0  0
 31 30  1  0  0  0  0
 32 33  1  0  0  0  0
 32 31  1  0  0  0  0
 34 32  2  0  0  0  0
 35 33  1  0  0  0  0
 35 36  1  0  0  0  0
 36 39  1  0  0  0  0
 37 36  2  0  0  0  0
 38 36  1  0  0  0  0
M  END
>  <MODEL>
8

>  <REMARK>
 VINA RESULT:      -7.6      2.033      3.333
  Name = 
  9 active torsions:
  status: ('A' for Active; 'I' for Inactive)
    1  A    between atoms: C_3  and  P_4
    2  A    between atoms: C_3  and  N_27
    3  A    between atoms: C_5  and  C_6
    4  A    between atoms: C_6  and  C_14
    5  A    between atoms: C_8  and  C_9
    6  A    between atoms: C_10  and  C_30
    7  A    between atoms: C_17  and  C_26
    8  A    between atoms: C_18  and  O_20
    9  A    between atoms: O_20  and  C_30
                            x       y       z     vdW  Elec       q    Type
                         _______ _______ _______ _____ _____    ______ ____

>  <TORSDO>
F 9

$$$$
=
 OpenBabel10222420433D

 39 43  0  0  1  0  0  0  0  0999 V2000
  185.0370  178.1700  141.7800 C   0  0  0  0  0  0  0  0  0  0  0  0
  185.5440  178.3010  140.5190 C   0  0  0  0  0  0  0  0  0  0  0  0
  183.1730  178.4760  140.3500 C   0  0  1  0  0  3  0  0  0  0  0  0
  189.1650  177.9500  141.2640 C   0  0  0  0  0  3  0  0  0  0  0  0
  187.5050  177.6040  145.1140 C   0  0  0  0  0  3  0  0  0  0  0  0
  189.9870  177.7550  142.3740 C   0  0  0  0  0  3  0  0  0  0  0  0
  186.9220  178.2420  140.2850 C   0  0  0  0  0  0  0  0  0  0  0  0
  184.4660  178.5130  139.5230 C   0  0  0  0  0  2  0  0  0  0  0  0
  189.4300  177.6410  143.6480 C   0  0  0  0  0  0  0  0  0  0  0  0
  190.2390  177.4560  144.7250 N   0  0  0  0  0  0  0  0  0  0  0  0
  189.7370  177.3430  145.9850 C   0  0  0  0  0  0  0  0  0  0  0  0
  187.1960  177.9120  142.7030 C   0  0  0  0  0  0  0  0  0  0  0  0
  190.6180  177.1510  147.0840 N   0  0  0  0  0  1  0  0  0  0  0  0
  183.5660  178.2610  141.8230 C   0  0  0  0  0  2  0  0  0  0  0  0
  185.8420  177.9840  142.8550 N   0  0  0  0  0  0  0  0  0  0  0  0
  187.7710  178.0330  141.4040 C   0  0  0  0  0  0  0  0  0  0  0  0
  188.3580  177.4150  146.2010 C   0  0  0  0  0  3  0  0  0  0  0  0
  188.0290  177.7190  143.8190 C   0  0  0  0  0  0  0  0  0  0  0  0
  189.4400  178.6050  137.4050 C   0  0  0  0  0  2  0  0  0  0  0  0
  189.4670  177.0810  137.2530 C   0  0  2  0  0  3  0  0  0  0  0  0
  187.1950  177.2050  138.0910 O   0  0  0  0  0  0  0  0  0  0  0  0
  188.3580  176.4110  138.0780 C   0  0  0  0  0  2  0  0  0  0  0  0
  187.4210  178.3730  138.8680 C   0  0  2  0  0  3  0  0  0  0  0  0
  188.8160  179.0130  138.7340 C   0  0  0  0  0  2  0  0  0  0  0  0
  190.8270  176.5510  137.6780 C   0  0  0  0  0  2  0  0  0  0  0  0
  190.6870  175.2880  138.2510 O   0  0  0  0  0  0  0  0  0  0  0  0
  191.0680  174.4030  137.2440 C   0  0  0  0  0  2  0  0  0  0  0  0
  190.1450  173.3620  137.1640 O   0  0  0  0  0  1  0  0  0  0  0  0
  182.4400  179.7680  140.1920 C   0  0  0  0  0  3  0  0  0  0  0  0
  181.1790  179.7870  139.7690 C   0  0  0  0  0  3  0  0  0  0  0  0
  180.4600  181.0830  139.6270 C   0  0  0  0  0  2  0  0  0  0  0  0
  180.4560  181.5030  138.2030 C   0  0  0  0  0  0  0  0  0  0  0  0
  179.6520  182.6110  137.7970 N   0  0  0  0  0  2  0  0  0  0  0  0
  181.1750  180.8900  137.3690 O   0  0  0  0  0  0  0  0  0  0  0  0
  179.6410  183.1070  136.4290 C   0  0  0  0  0  2  0  0  0  0  0  0
  180.5010  184.7050  136.3360 P   0  0  0  0  0  0  0  0  0  0  0  0
  180.8020  185.1090  134.7200 O   0  0  0  0  0  0  0  0  0  0  0  0
  181.9680  184.6050  137.1730 O   0  0  0  0  0  1  0  0  0  0  0  0
  179.6370  185.7730  136.9680 O   0  0  0  0  0  1  0  0  0  0  0  0
  1 14  1  0  0  0  0
  1 15  1  0  0  0  0
  2  1  2  0  0  0  0
  3 29  1  1  0  0  0
  3 14  1  0  0  0  0
  4 16  1  0  0  0  0
  4  6  2  0  0  0  0
  5 17  1  0  0  0  0
  6  9  1  0  0  0  0
  7  2  1  0  0  0  0
  7 16  2  0  0  0  0
  8  3  1  0  0  0  0
  8  2  1  0  0  0  0
  9 18  1  0  0  0  0
  9 10  2  0  0  0  0
 10 11  1  0  0  0  0
 11 17  2  0  0  0  0
 11 13  1  0  0  0  0
 12 15  2  0  0  0  0
 12 18  1  0  0  0  0
 16 12  1  0  0  0  0
 18  5  2  0  0  0  0
 19 24  1  0  0  0  0
 20 19  1  0  0  0  0
 20 25  1  1  0  0  0
 20 22  1  0  0  0  0
 21 23  1  0  0  0  0
 22 21  1  0  0  0  0
 23  7  1  1  0  0  0
 24 23  1  0  0  0  0
 25 26  1  0  0  0  0
 27 26  1  0  0  0  0
 28 27  1  0  0  0  0
 30 29  2  0  0  0  0
 31 30  1  0  0  0  0
 32 31  1  0  0  0  0
 33 32  1  0  0  0  0
 34 32  2  0  0  0  0
 35 33  1  0  0  0  0
 36 35  1  0  0  0  0
 36 39  1  0  0  0  0
 36 38  1  0  0  0  0
 37 36  2  0  0  0  0
M  END
>  <MODEL>
9

>  <REMARK>
 VINA RESULT:      -7.5      4.522      8.394
  Name = 
  9 active torsions:
  status: ('A' for Active; 'I' for Inactive)
    1  A    between atoms: C_3  and  P_4
    2  A    between atoms: C_3  and  N_27
    3  A    between atoms: C_5  and  C_6
    4  A    between atoms: C_6  and  C_14
    5  A    between atoms: C_8  and  C_9
    6  A    between atoms: C_10  and  C_30
    7  A    between atoms: C_17  and  C_26
    8  A    between atoms: C_18  and  O_20
    9  A    between atoms: O_20  and  C_30
                            x       y       z     vdW  Elec       q    Type
                         _______ _______ _______ _____ _____    ______ ____

>  <TORSDO>
F 9

$$$$
