=
 OpenBabel10222416283D

 38 44  0  0  1  0  0  0  0  0999 V2000
  189.4240  177.4000  139.3750 C   0  0  2  0  0  3  0  0  0  0  0  0
  188.6890  179.0530  139.5930 S   0  0  0  0  0  0  0  0  0  0  0  0
  187.3210  177.3980  138.0080 C   0  0  2  0  0  3  0  0  0  0  0  0
  187.1510  178.4100  139.0300 N   0  0  0  0  0  0  0  0  0  0  0  0
  188.5350  176.5640  138.4370 C   0  0  1  0  0  3  0  0  0  0  0  0
  185.9570  178.4870  139.8260 C   0  0  0  0  0  0  0  0  0  0  0  0
  184.8660  178.7860  141.9720 C   0  0  0  0  0  0  0  0  0  0  0  0
  182.4000  178.8800  143.4650 C   0  0  0  0  0  2  0  0  0  0  0  0
  186.0280  178.7230  141.2040 C   0  0  0  0  0  3  0  0  0  0  0  0
  183.6160  178.6050  141.3410 C   0  0  0  0  0  0  0  0  0  0  0  0
  183.7420  179.0930  144.0980 C   0  0  0  0  0  0  0  0  0  0  0  0
  184.6970  178.3100  139.2430 C   0  0  0  0  0  3  0  0  0  0  0  0
  183.8270  179.3270  145.3310 O   0  0  0  0  0  0  0  0  0  0  0  0
  182.5020  178.6540  142.0160 N   0  0  0  0  0  0  0  0  0  0  0  0
  184.9550  179.0200  143.2800 C   0  0  0  0  0  3  0  0  0  0  0  0
  183.5690  178.3750  140.0010 N   0  0  0  0  0  0  0  0  0  0  0  0
  189.2440  174.4820  137.2720 C   0  0  0  0  0  2  0  0  0  0  0  0
  190.4860  175.1640  137.8010 C   0  0  0  0  0  2  0  0  0  0  0  0
  189.3370  175.9970  137.2710 C   0  0  0  0  0  3  0  0  0  0  0  0
  187.5380  178.0240  136.7740 O   0  0  0  0  0  0  0  0  0  0  0  0
  186.6700  176.7650  134.9610 C   0  0  0  0  0  2  0  0  0  0  0  0
  186.5870  178.2340  134.6120 C   0  0  0  0  0  2  0  0  0  0  0  0
  186.3750  177.7840  136.0420 C   0  0  0  0  0  3  0  0  0  0  0  0
  189.6230  176.7330  140.7400 C   0  0  2  0  0  3  0  0  0  0  0  0
  189.2660  176.9560  143.1600 C   0  0  1  0  0  3  0  0  0  0  0  0
  188.0530  177.1850  142.4840 O   0  0  0  0  0  0  0  0  0  0  0  0
  189.2190  177.6710  141.8650 C   0  0  2  0  0  3  0  0  0  0  0  0
  189.4150  177.9530  144.3060 C   0  0  1  0  0  3  0  0  0  0  0  0
  188.5440  177.5440  145.5130 C   0  0  2  0  0  0  0  0  0  0  0  0
  187.1330  177.0430  145.2290 C   0  0  0  0  0  1  0  0  0  0  0  0
  188.8550  178.1550  146.8830 C   0  0  2  0  0  3  0  0  0  0  0  0
  189.2610  176.7220  146.5650 C   0  0  0  0  0  2  0  0  0  0  0  0
  187.6690  178.1420  147.8360 C   0  0  0  0  0  1  0  0  0  0  0  0
  190.8930  178.1490  144.6550 C   0  0  0  0  0  2  0  0  0  0  0  0
  191.4280  179.4290  144.0400 C   0  0  0  0  0  1  0  0  0  0  0  0
  191.0050  176.3060  140.9220 N   0  0  0  0  0  2  0  0  0  0  0  0
  192.9450  177.1840  139.9780 O   0  0  0  0  0  1  0  0  0  0  0  0
  191.8470  177.4840  140.7850 C   0  0  0  0  0  2  0  0  0  0  0  0
  1  2  1  0  0  0  0
  1 24  1  1  0  0  0
  3 20  1  6  0  0  0
  3  5  1  0  0  0  0
  3  4  1  0  0  0  0
  4  2  1  0  0  0  0
  4  6  1  0  0  0  0
  5 19  1  6  0  0  0
  5  1  1  0  0  0  0
  6  9  2  0  0  0  0
  7 15  2  0  0  0  0
  8 11  1  0  0  0  0
  9  7  1  0  0  0  0
 10  7  1  0  0  0  0
 10 14  2  0  0  0  0
 11 13  2  0  0  0  0
 12  6  1  0  0  0  0
 12 16  2  0  0  0  0
 14  8  1  0  0  0  0
 15 11  1  0  0  0  0
 16 10  1  0  0  0  0
 17 18  1  0  0  0  0
 19 17  1  0  0  0  0
 19 18  1  0  0  0  0
 21 23  1  0  0  0  0
 22 21  1  0  0  0  0
 22 23  1  0  0  0  0
 23 20  1  0  0  0  0
 24 36  1  1  0  0  0
 25 28  1  1  0  0  0
 26 25  1  0  0  0  0
 27 24  1  6  0  0  0
 27 26  1  0  0  0  0
 27 25  1  0  0  0  0
 28 34  1  1  0  0  0
 28 29  1  0  0  0  0
 29 30  1  6  0  0  0
 29 32  1  0  0  0  0
 29 31  1  0  0  0  0
 31 33  1  1  0  0  0
 32 31  1  0  0  0  0
 35 34  1  0  0  0  0
 37 38  1  0  0  0  0
 38 36  1  0  0  0  0
M  END
>  <MODEL>
1

>  <REMARK>
 VINA RESULT:      -7.4      0.000      0.000
  Name = 
  11 active torsions:
  status: ('A' for Active; 'I' for Inactive)
    1  A    between atoms: C_1  and  N_31
    2  A    between atoms: C_3  and  C_24
    3  A    between atoms: C_7  and  C_24
    4  A    between atoms: O_11  and  C_22
    5  A    between atoms: O_11  and  C_29
    6  A    between atoms: C_12  and  C_24
    7  A    between atoms: C_14  and  C_26
    8  A    between atoms: N_17  and  C_26
    9  A    between atoms: N_17  and  C_38
   10  A    between atoms: C_23  and  C_26
   11  A    between atoms: C_33  and  C_34
                            x       y       z     vdW  Elec       q    Type
                         _______ _______ _______ _____ _____    ______ ____

>  <TORSDO>
F 11

$$$$
=
 OpenBabel10222416283D

 38 44  0  0  1  0  0  0  0  0999 V2000
  182.9470  178.1480  138.4360 C   0  0  2  0  0  3  0  0  0  0  0  0
  183.8840  179.5810  139.0610 S   0  0  0  0  0  0  0  0  0  0  0  0
  182.5860  178.1690  140.9180 C   0  0  2  0  0  3  0  0  0  0  0  0
  183.8260  178.8770  140.6730 N   0  0  0  0  0  0  0  0  0  0  0  0
  182.2510  177.4400  139.6110 C   0  0  1  0  0  3  0  0  0  0  0  0
  185.0200  178.5930  141.4210 C   0  0  0  0  0  0  0  0  0  0  0  0
  186.1250  178.0860  143.5200 C   0  0  0  0  0  0  0  0  0  0  0  0
  188.5950  177.5660  144.9140 C   0  0  0  0  0  2  0  0  0  0  0  0
  184.9610  178.3510  142.7990 C   0  0  0  0  0  3  0  0  0  0  0  0
  187.3640  178.0700  142.8420 C   0  0  0  0  0  0  0  0  0  0  0  0
  187.2610  177.5660  145.5980 C   0  0  0  0  0  0  0  0  0  0  0  0
  186.2700  178.5700  140.7910 C   0  0  0  0  0  3  0  0  0  0  0  0
  187.1850  177.3300  146.8310 O   0  0  0  0  0  0  0  0  0  0  0  0
  188.4790  177.8280  143.4730 N   0  0  0  0  0  0  0  0  0  0  0  0
  186.0470  177.8490  144.8280 C   0  0  0  0  0  3  0  0  0  0  0  0
  187.3980  178.3090  141.5040 N   0  0  0  0  0  0  0  0  0  0  0  0
  180.2310  176.0750  140.1100 C   0  0  0  0  0  2  0  0  0  0  0  0
  180.4970  175.9840  138.6250 C   0  0  0  0  0  2  0  0  0  0  0  0
  180.7550  177.2840  139.3590 C   0  0  0  0  0  3  0  0  0  0  0  0
  181.5920  179.0930  141.2610 O   0  0  0  0  0  0  0  0  0  0  0  0
  180.2610  179.7010  143.1270 C   0  0  0  0  0  2  0  0  0  0  0  0
  181.6350  179.3130  143.6210 C   0  0  0  0  0  2  0  0  0  0  0  0
  181.0280  178.5940  142.4350 C   0  0  0  0  0  3  0  0  0  0  0  0
  183.8810  177.2130  137.6590 C   0  0  2  0  0  3  0  0  0  0  0  0
  184.1330  174.9050  136.8580 C   0  0  1  0  0  3  0  0  0  0  0  0
  182.7800  175.2820  136.7820 O   0  0  0  0  0  0  0  0  0  0  0  0
  183.5030  175.7590  137.8890 C   0  0  2  0  0  3  0  0  0  0  0  0
  184.2420  173.4670  137.3590 C   0  0  1  0  0  3  0  0  0  0  0  0
  183.5250  172.4910  136.4020 C   0  0  2  0  0  0  0  0  0  0  0  0
  183.7910  172.6420  134.9100 C   0  0  0  0  0  1  0  0  0  0  0  0
  182.2180  171.8390  136.8640 C   0  0  2  0  0  3  0  0  0  0  0  0
  183.5170  171.0460  136.8570 C   0  0  0  0  0  2  0  0  0  0  0  0
  181.3360  171.3710  135.7160 C   0  0  0  0  0  1  0  0  0  0  0  0
  185.7050  173.1030  137.6240 C   0  0  0  0  0  2  0  0  0  0  0  0
  186.6390  174.0710  136.9240 C   0  0  0  0  0  1  0  0  0  0  0  0
  185.2730  177.4290  138.0310 N   0  0  0  0  0  2  0  0  0  0  0  0
  186.9500  178.7870  137.1550 O   0  0  0  0  0  1  0  0  0  0  0  0
  185.9880  177.8300  136.8300 C   0  0  0  0  0  2  0  0  0  0  0  0
  1 24  1  1  0  0  0
  1  2  1  0  0  0  0
  1  5  1  0  0  0  0
  2  4  1  0  0  0  0
  3 20  1  6  0  0  0
  4  3  1  0  0  0  0
  4  6  1  0  0  0  0
  5 19  1  6  0  0  0
  5  3  1  0  0  0  0
  6  9  2  0  0  0  0
  7 15  2  0  0  0  0
  8 11  1  0  0  0  0
  9  7  1  0  0  0  0
 10 14  2  0  0  0  0
 10  7  1  0  0  0  0
 11 13  2  0  0  0  0
 12  6  1  0  0  0  0
 12 16  2  0  0  0  0
 14  8  1  0  0  0  0
 15 11  1  0  0  0  0
 16 10  1  0  0  0  0
 18 19  1  0  0  0  0
 18 17  1  0  0  0  0
 19 17  1  0  0  0  0
 20 23  1  0  0  0  0
 21 22  1  0  0  0  0
 23 21  1  0  0  0  0
 23 22  1  0  0  0  0
 24 36  1  1  0  0  0
 25 28  1  1  0  0  0
 25 27  1  0  0  0  0
 26 25  1  0  0  0  0
 26 27  1  0  0  0  0
 27 24  1  6  0  0  0
 28 34  1  6  0  0  0
 29 30  1  6  0  0  0
 29 32  1  0  0  0  0
 29 31  1  0  0  0  0
 29 28  1  0  0  0  0
 31 33  1  6  0  0  0
 32 31  1  0  0  0  0
 35 34  1  0  0  0  0
 38 37  1  0  0  0  0
 38 36  1  0  0  0  0
M  END
>  <MODEL>
2

>  <REMARK>
 VINA RESULT:      -6.9      3.586      8.049
  Name = 
  11 active torsions:
  status: ('A' for Active; 'I' for Inactive)
    1  A    between atoms: C_1  and  N_31
    2  A    between atoms: C_3  and  C_24
    3  A    between atoms: C_7  and  C_24
    4  A    between atoms: O_11  and  C_22
    5  A    between atoms: O_11  and  C_29
    6  A    between atoms: C_12  and  C_24
    7  A    between atoms: C_14  and  C_26
    8  A    between atoms: N_17  and  C_26
    9  A    between atoms: N_17  and  C_38
   10  A    between atoms: C_23  and  C_26
   11  A    between atoms: C_33  and  C_34
                            x       y       z     vdW  Elec       q    Type
                         _______ _______ _______ _____ _____    ______ ____

>  <TORSDO>
F 11

$$$$
=
 OpenBabel10222416283D

 38 44  0  0  1  0  0  0  0  0999 V2000
  182.4960  178.1730  138.5310 C   0  0  2  0  0  3  0  0  0  0  0  0
  183.4560  179.6170  139.0940 S   0  0  0  0  0  0  0  0  0  0  0  0
  182.1770  178.2780  141.0170 C   0  0  2  0  0  3  0  0  0  0  0  0
  183.4190  178.9660  140.7280 N   0  0  0  0  0  0  0  0  0  0  0  0
  181.8140  177.5090  139.7400 C   0  0  1  0  0  3  0  0  0  0  0  0
  184.6220  178.6960  141.4660 C   0  0  0  0  0  0  0  0  0  0  0  0
  185.7550  178.2150  143.5570 C   0  0  0  0  0  0  0  0  0  0  0  0
  188.2430  177.7210  144.9280 C   0  0  0  0  0  2  0  0  0  0  0  0
  184.5810  178.4660  142.8460 C   0  0  0  0  0  3  0  0  0  0  0  0
  186.9860  178.1990  142.8650 C   0  0  0  0  0  0  0  0  0  0  0  0
  186.9160  177.7210  145.6270 C   0  0  0  0  0  0  0  0  0  0  0  0
  185.8650  178.6740  140.8220 C   0  0  0  0  0  3  0  0  0  0  0  0
  186.8550  177.4960  146.8620 O   0  0  0  0  0  0  0  0  0  0  0  0
  188.1090  177.9690  143.4860 N   0  0  0  0  0  0  0  0  0  0  0  0
  185.6920  177.9900  144.8680 C   0  0  0  0  0  3  0  0  0  0  0  0
  187.0030  178.4260  141.5240 N   0  0  0  0  0  0  0  0  0  0  0  0
  179.8070  176.1250  140.2410 C   0  0  0  0  0  2  0  0  0  0  0  0
  180.0390  176.0850  138.7470 C   0  0  0  0  0  2  0  0  0  0  0  0
  180.3130  177.3590  139.5180 C   0  0  0  0  0  3  0  0  0  0  0  0
  181.1970  179.2220  141.3460 O   0  0  0  0  0  0  0  0  0  0  0  0
  179.5620  178.6890  142.9790 C   0  0  0  0  0  2  0  0  0  0  0  0
  180.0130  180.1150  143.1960 C   0  0  0  0  0  2  0  0  0  0  0  0
  181.0030  179.0740  142.7190 C   0  0  0  0  0  3  0  0  0  0  0  0
  183.4090  177.2040  137.7710 C   0  0  2  0  0  3  0  0  0  0  0  0
  185.7050  176.8070  136.9950 C   0  0  1  0  0  3  0  0  0  0  0  0
  185.7290  177.2120  138.3420 O   0  0  0  0  0  0  0  0  0  0  0  0
  184.7710  177.8290  137.5180 C   0  0  2  0  0  3  0  0  0  0  0  0
  186.8450  177.4780  136.2330 C   0  0  1  0  0  3  0  0  0  0  0  0
  188.1930  177.2660  136.9540 C   0  0  2  0  0  0  0  0  0  0  0  0
  188.6140  175.8330  137.2570 C   0  0  0  0  0  1  0  0  0  0  0  0
  188.7530  178.4040  137.8130 C   0  0  2  0  0  3  0  0  0  0  0  0
  189.3330  178.1180  136.4350 C   0  0  0  0  0  2  0  0  0  0  0  0
  189.7320  177.9340  138.8780 C   0  0  0  0  0  1  0  0  0  0  0  0
  186.8530  177.0230  134.7710 C   0  0  0  0  0  2  0  0  0  0  0  0
  186.0280  175.7620  134.5940 C   0  0  0  0  0  1  0  0  0  0  0  0
  182.8070  176.7950  136.5070 N   0  0  0  0  0  2  0  0  0  0  0  0
  180.8050  177.4270  135.5000 O   0  0  0  0  0  1  0  0  0  0  0  0
  182.0040  177.9080  136.0270 C   0  0  0  0  0  2  0  0  0  0  0  0
  1 24  1  1  0  0  0
  1  2  1  0  0  0  0
  1  5  1  0  0  0  0
  2  4  1  0  0  0  0
  3 20  1  6  0  0  0
  4  3  1  0  0  0  0
  4  6  1  0  0  0  0
  5 19  1  6  0  0  0
  5  3  1  0  0  0  0
  6  9  2  0  0  0  0
  7 15  2  0  0  0  0
  8 11  1  0  0  0  0
  9  7  1  0  0  0  0
 10 14  2  0  0  0  0
 10  7  1  0  0  0  0
 11 13  2  0  0  0  0
 12  6  1  0  0  0  0
 12 16  2  0  0  0  0
 14  8  1  0  0  0  0
 15 11  1  0  0  0  0
 16 10  1  0  0  0  0
 18 19  1  0  0  0  0
 18 17  1  0  0  0  0
 19 17  1  0  0  0  0
 20 23  1  0  0  0  0
 21 22  1  0  0  0  0
 23 21  1  0  0  0  0
 23 22  1  0  0  0  0
 24 36  1  6  0  0  0
 25 28  1  6  0  0  0
 25 27  1  0  0  0  0
 25 26  1  0  0  0  0
 27 24  1  1  0  0  0
 27 26  1  0  0  0  0
 28 34  1  6  0  0  0
 28 29  1  0  0  0  0
 29 30  1  1  0  0  0
 29 31  1  0  0  0  0
 31 33  1  1  0  0  0
 32 29  1  0  0  0  0
 32 31  1  0  0  0  0
 35 34  1  0  0  0  0
 37 38  1  0  0  0  0
 38 36  1  0  0  0  0
M  END
>  <MODEL>
3

>  <REMARK>
 VINA RESULT:      -6.8      2.848      7.729
  Name = 
  11 active torsions:
  status: ('A' for Active; 'I' for Inactive)
    1  A    between atoms: C_1  and  N_31
    2  A    between atoms: C_3  and  C_24
    3  A    between atoms: C_7  and  C_24
    4  A    between atoms: O_11  and  C_22
    5  A    between atoms: O_11  and  C_29
    6  A    between atoms: C_12  and  C_24
    7  A    between atoms: C_14  and  C_26
    8  A    between atoms: N_17  and  C_26
    9  A    between atoms: N_17  and  C_38
   10  A    between atoms: C_23  and  C_26
   11  A    between atoms: C_33  and  C_34
                            x       y       z     vdW  Elec       q    Type
                         _______ _______ _______ _____ _____    ______ ____

>  <TORSDO>
F 11

$$$$
=
 OpenBabel10222416283D

 38 44  0  0  1  0  0  0  0  0999 V2000
  183.9690  177.8760  141.4370 C   0  0  2  0  0  3  0  0  0  0  0  0
  182.8930  177.0490  140.2200 S   0  0  0  0  0  0  0  0  0  0  0  0
  181.7410  179.0180  141.6060 C   0  0  2  0  0  3  0  0  0  0  0  0
  181.8090  178.4330  140.2820 N   0  0  0  0  0  0  0  0  0  0  0  0
  183.1720  178.9770  142.1590 C   0  0  1  0  0  3  0  0  0  0  0  0
  181.4660  179.1830  139.1060 C   0  0  0  0  0  0  0  0  0  0  0  0
  181.1730  181.3040  137.9650 C   0  0  0  0  0  0  0  0  0  0  0  0
  180.4240  182.6950  135.5520 C   0  0  0  0  0  2  0  0  0  0  0  0
  181.5170  180.5820  139.1080 C   0  0  0  0  0  3  0  0  0  0  0  0
  180.7690  180.6040  136.8070 C   0  0  0  0  0  0  0  0  0  0  0  0
  180.8820  183.4050  136.7910 C   0  0  0  0  0  0  0  0  0  0  0  0
  181.0570  178.5310  137.9360 C   0  0  0  0  0  3  0  0  0  0  0  0
  180.9540  184.6600  136.8070 O   0  0  0  0  0  0  0  0  0  0  0  0
  180.4370  181.2350  135.7150 N   0  0  0  0  0  0  0  0  0  0  0  0
  181.2370  182.6340  137.9850 C   0  0  0  0  0  3  0  0  0  0  0  0
  180.7250  179.2450  136.8270 N   0  0  0  0  0  0  0  0  0  0  0  0
  183.6430  180.1270  144.3150 C   0  0  0  0  0  2  0  0  0  0  0  0
  184.6660  179.0280  144.1420 C   0  0  0  0  0  2  0  0  0  0  0  0
  183.2420  178.8120  143.6730 C   0  0  0  0  0  3  0  0  0  0  0  0
  180.8630  178.2650  142.3950 O   0  0  0  0  0  0  0  0  0  0  0  0
  179.7580  180.2110  143.1800 C   0  0  0  0  0  2  0  0  0  0  0  0
  179.0430  178.9960  143.7260 C   0  0  0  0  0  2  0  0  0  0  0  0
  179.6520  178.9540  142.3410 C   0  0  0  0  0  3  0  0  0  0  0  0
  185.2210  178.4220  140.7420 C   0  0  2  0  0  3  0  0  0  0  0  0
  187.4420  177.7000  141.5010 C   0  0  1  0  0  3  0  0  0  0  0  0
  186.5070  177.5040  142.5340 O   0  0  0  0  0  0  0  0  0  0  0  0
  186.3390  178.6550  141.7450 C   0  0  2  0  0  3  0  0  0  0  0  0
  188.7460  178.2440  142.0800 C   0  0  1  0  0  3  0  0  0  0  0  0
  189.1410  177.4850  143.3650 C   0  0  2  0  0  0  0  0  0  0  0  0
  189.2690  175.9690  143.2780 C   0  0  0  0  0  1  0  0  0  0  0  0
  188.8380  178.1300  144.7210 C   0  0  2  0  0  3  0  0  0  0  0  0
  190.2560  178.1260  144.1650 C   0  0  0  0  0  2  0  0  0  0  0  0
  188.7420  177.1280  145.8610 C   0  0  0  0  0  1  0  0  0  0  0  0
  189.8430  178.2550  141.0120 C   0  0  0  0  0  2  0  0  0  0  0  0
  189.3950  177.5070  139.7700 C   0  0  0  0  0  1  0  0  0  0  0  0
  184.9300  179.6580  140.0250 N   0  0  0  0  0  2  0  0  0  0  0  0
  186.1340  178.6810  138.2870 O   0  0  0  0  0  1  0  0  0  0  0  0
  184.9520  179.3530  138.6030 C   0  0  0  0  0  2  0  0  0  0  0  0
  1 24  1  6  0  0  0
  1  5  1  0  0  0  0
  2  4  1  0  0  0  0
  2  1  1  0  0  0  0
  3  5  1  0  0  0  0
  3 20  1  1  0  0  0
  4  3  1  0  0  0  0
  5 19  1  1  0  0  0
  6  9  2  0  0  0  0
  6  4  1  0  0  0  0
  7 15  2  0  0  0  0
  7  9  1  0  0  0  0
  8 14  1  0  0  0  0
  8 11  1  0  0  0  0
 10 16  1  0  0  0  0
 10  7  1  0  0  0  0
 11 13  2  0  0  0  0
 11 15  1  0  0  0  0
 12  6  1  0  0  0  0
 14 10  2  0  0  0  0
 16 12  2  0  0  0  0
 18 17  1  0  0  0  0
 19 18  1  0  0  0  0
 19 17  1  0  0  0  0
 21 22  1  0  0  0  0
 23 20  1  0  0  0  0
 23 21  1  0  0  0  0
 23 22  1  0  0  0  0
 24 36  1  1  0  0  0
 25 27  1  0  0  0  0
 25 28  1  1  0  0  0
 25 26  1  0  0  0  0
 27 24  1  6  0  0  0
 27 26  1  0  0  0  0
 28 34  1  6  0  0  0
 28 29  1  0  0  0  0
 29 30  1  6  0  0  0
 29 32  1  0  0  0  0
 29 31  1  0  0  0  0
 31 33  1  1  0  0  0
 32 31  1  0  0  0  0
 35 34  1  0  0  0  0
 37 38  1  0  0  0  0
 38 36  1  0  0  0  0
M  END
>  <MODEL>
4

>  <REMARK>
 VINA RESULT:      -6.6      3.550      6.729
  Name = 
  11 active torsions:
  status: ('A' for Active; 'I' for Inactive)
    1  A    between atoms: C_1  and  N_31
    2  A    between atoms: C_3  and  C_24
    3  A    between atoms: C_7  and  C_24
    4  A    between atoms: O_11  and  C_22
    5  A    between atoms: O_11  and  C_29
    6  A    between atoms: C_12  and  C_24
    7  A    between atoms: C_14  and  C_26
    8  A    between atoms: N_17  and  C_26
    9  A    between atoms: N_17  and  C_38
   10  A    between atoms: C_23  and  C_26
   11  A    between atoms: C_33  and  C_34
                            x       y       z     vdW  Elec       q    Type
                         _______ _______ _______ _____ _____    ______ ____

>  <TORSDO>
F 11

$$$$
=
 OpenBabel10222416283D

 38 44  0  0  1  0  0  0  0  0999 V2000
  181.9330  178.3530  140.3480 C   0  0  2  0  0  3  0  0  0  0  0  0
  182.6840  176.7700  139.8430 S   0  0  0  0  0  0  0  0  0  0  0  0
  182.2690  178.5160  137.8670 C   0  0  2  0  0  3  0  0  0  0  0  0
  183.2180  177.5340  138.3510 N   0  0  0  0  0  0  0  0  0  0  0  0
  181.7490  179.2490  139.1110 C   0  0  1  0  0  3  0  0  0  0  0  0
  184.6030  177.5690  137.9670 C   0  0  0  0  0  0  0  0  0  0  0  0
  186.4970  176.5970  136.8040 C   0  0  0  0  0  0  0  0  0  0  0  0
  189.2970  176.7610  136.1360 C   0  0  0  0  0  2  0  0  0  0  0  0
  185.1490  176.5620  137.1640 C   0  0  0  0  0  3  0  0  0  0  0  0
  187.3020  177.6610  137.2660 C   0  0  0  0  0  0  0  0  0  0  0  0
  188.4070  175.6590  135.6430 C   0  0  0  0  0  0  0  0  0  0  0  0
  185.4390  178.6030  138.4050 C   0  0  0  0  0  3  0  0  0  0  0  0
  188.8740  174.7560  134.9040 O   0  0  0  0  0  0  0  0  0  0  0  0
  188.5670  177.7360  136.9580 N   0  0  0  0  0  0  0  0  0  0  0  0
  186.9950  175.6330  136.0320 C   0  0  0  0  0  3  0  0  0  0  0  0
  186.7510  178.6280  138.0470 N   0  0  0  0  0  0  0  0  0  0  0  0
  180.2820  181.1080  138.3450 C   0  0  0  0  0  2  0  0  0  0  0  0
  180.1080  180.9650  139.8400 C   0  0  0  0  0  2  0  0  0  0  0  0
  180.3080  179.7320  138.9840 C   0  0  0  0  0  3  0  0  0  0  0  0
  181.2360  177.8590  137.1880 O   0  0  0  0  0  0  0  0  0  0  0  0
  180.3980  177.4480  135.0080 C   0  0  0  0  0  2  0  0  0  0  0  0
  181.7820  176.8490  135.1140 C   0  0  0  0  0  2  0  0  0  0  0  0
  181.4590  178.1380  135.8400 C   0  0  0  0  0  3  0  0  0  0  0  0
  182.7920  179.0170  141.4290 C   0  0  2  0  0  3  0  0  0  0  0  0
  184.9060  178.7860  142.6570 C   0  0  1  0  0  3  0  0  0  0  0  0
  185.0630  178.2780  141.3540 O   0  0  0  0  0  0  0  0  0  0  0  0
  183.8240  178.0440  141.9750 C   0  0  2  0  0  3  0  0  0  0  0  0
  185.6190  177.8780  143.6560 C   0  0  1  0  0  3  0  0  0  0  0  0
  187.1120  177.7220  143.2950 C   0  0  2  0  0  0  0  0  0  0  0  0
  187.6590  178.5830  142.1640 C   0  0  0  0  0  1  0  0  0  0  0  0
  187.8140  176.4020  143.6320 C   0  0  2  0  0  3  0  0  0  0  0  0
  188.0490  177.6430  144.4830 C   0  0  0  0  0  2  0  0  0  0  0  0
  189.0460  176.1360  142.7810 C   0  0  0  0  0  1  0  0  0  0  0  0
  185.3820  178.3660  145.0870 C   0  0  0  0  0  2  0  0  0  0  0  0
  184.0100  179.0000  145.2220 C   0  0  0  0  0  1  0  0  0  0  0  0
  181.9680  179.5300  142.5160 N   0  0  0  0  0  2  0  0  0  0  0  0
  180.5240  178.4990  144.0240 O   0  0  0  0  0  1  0  0  0  0  0  0
  180.8390  178.6260  142.6710 C   0  0  0  0  0  2  0  0  0  0  0  0
  1 24  1  1  0  0  0
  2  1  1  0  0  0  0
  3 20  1  1  0  0  0
  3  4  1  0  0  0  0
  3  5  1  0  0  0  0
  4  2  1  0  0  0  0
  5 19  1  6  0  0  0
  5  1  1  0  0  0  0
  6  4  1  0  0  0  0
  6 12  1  0  0  0  0
  7  9  1  0  0  0  0
  7 10  1  0  0  0  0
  8 14  1  0  0  0  0
  9  6  2  0  0  0  0
 10 16  1  0  0  0  0
 11 15  1  0  0  0  0
 11  8  1  0  0  0  0
 13 11  2  0  0  0  0
 14 10  2  0  0  0  0
 15  7  2  0  0  0  0
 16 12  2  0  0  0  0
 17 19  1  0  0  0  0
 17 18  1  0  0  0  0
 19 18  1  0  0  0  0
 21 22  1  0  0  0  0
 21 23  1  0  0  0  0
 22 23  1  0  0  0  0
 23 20  1  0  0  0  0
 24 36  1  1  0  0  0
 25 28  1  1  0  0  0
 26 27  1  0  0  0  0
 26 25  1  0  0  0  0
 27 24  1  6  0  0  0
 27 25  1  0  0  0  0
 28 34  1  1  0  0  0
 29 30  1  6  0  0  0
 29 31  1  0  0  0  0
 29 28  1  0  0  0  0
 29 32  1  0  0  0  0
 31 33  1  6  0  0  0
 31 32  1  0  0  0  0
 34 35  1  0  0  0  0
 36 38  1  0  0  0  0
 38 37  1  0  0  0  0
M  END
>  <MODEL>
5

>  <REMARK>
 VINA RESULT:      -6.6      3.011      7.225
  Name = 
  11 active torsions:
  status: ('A' for Active; 'I' for Inactive)
    1  A    between atoms: C_1  and  N_31
    2  A    between atoms: C_3  and  C_24
    3  A    between atoms: C_7  and  C_24
    4  A    between atoms: O_11  and  C_22
    5  A    between atoms: O_11  and  C_29
    6  A    between atoms: C_12  and  C_24
    7  A    between atoms: C_14  and  C_26
    8  A    between atoms: N_17  and  C_26
    9  A    between atoms: N_17  and  C_38
   10  A    between atoms: C_23  and  C_26
   11  A    between atoms: C_33  and  C_34
                            x       y       z     vdW  Elec       q    Type
                         _______ _______ _______ _____ _____    ______ ____

>  <TORSDO>
F 11

$$$$
=
 OpenBabel10222416283D

 38 44  0  0  1  0  0  0  0  0999 V2000
  181.2620  177.7270  139.4330 C   0  0  2  0  0  3  0  0  0  0  0  0
  182.0920  176.1060  139.4940 S   0  0  0  0  0  0  0  0  0  0  0  0
  181.7440  177.1160  137.0480 C   0  0  2  0  0  3  0  0  0  0  0  0
  182.6930  176.3860  137.8640 N   0  0  0  0  0  0  0  0  0  0  0  0
  181.1260  178.1770  137.9670 C   0  0  1  0  0  3  0  0  0  0  0  0
  184.0960  176.3660  137.5570 C   0  0  0  0  0  0  0  0  0  0  0  0
  186.2250  177.5070  137.3340 C   0  0  0  0  0  0  0  0  0  0  0  0
  189.0230  177.3440  136.6550 C   0  0  0  0  0  2  0  0  0  0  0  0
  184.8660  177.5320  137.6440 C   0  0  0  0  0  3  0  0  0  0  0  0
  186.8150  176.2900  136.9280 C   0  0  0  0  0  0  0  0  0  0  0  0
  188.3720  178.6130  137.1140 C   0  0  0  0  0  0  0  0  0  0  0  0
  184.7210  175.1820  137.1470 C   0  0  0  0  0  3  0  0  0  0  0  0
  189.0490  179.6670  137.2190 O   0  0  0  0  0  0  0  0  0  0  0  0
  188.0810  176.2160  136.6270 N   0  0  0  0  0  0  0  0  0  0  0  0
  186.9410  178.6260  137.4330 C   0  0  0  0  0  3  0  0  0  0  0  0
  186.0480  175.1690  136.8490 N   0  0  0  0  0  0  0  0  0  0  0  0
  179.6500  179.5630  136.5200 C   0  0  0  0  0  2  0  0  0  0  0  0
  179.4140  179.9770  137.9550 C   0  0  0  0  0  2  0  0  0  0  0  0
  179.6810  178.5230  137.6240 C   0  0  0  0  0  3  0  0  0  0  0  0
  180.7760  176.2270  136.5650 O   0  0  0  0  0  0  0  0  0  0  0  0
  180.2610  175.0110  134.5950 C   0  0  0  0  0  2  0  0  0  0  0  0
  181.1520  174.1590  135.4680 C   0  0  0  0  0  2  0  0  0  0  0  0
  181.3480  175.6600  135.4260 C   0  0  0  0  0  3  0  0  0  0  0  0
  182.0320  178.7410  140.2860 C   0  0  2  0  0  3  0  0  0  0  0  0
  184.1170  178.6990  141.5830 C   0  0  1  0  0  3  0  0  0  0  0  0
  183.9890  177.4980  140.8620 O   0  0  0  0  0  0  0  0  0  0  0  0
  182.8050  178.0420  141.3910 C   0  0  2  0  0  3  0  0  0  0  0  0
  184.6510  178.4080  142.9830 C   0  0  1  0  0  3  0  0  0  0  0  0
  186.1690  178.1250  142.9490 C   0  0  2  0  0  0  0  0  0  0  0  0
  186.9560  178.6390  141.7500 C   0  0  0  0  0  1  0  0  0  0  0  0
  186.7100  176.9280  143.7370 C   0  0  2  0  0  3  0  0  0  0  0  0
  186.8870  178.3450  144.2650 C   0  0  0  0  0  2  0  0  0  0  0  0
  188.0440  176.4130  143.2190 C   0  0  0  0  0  1  0  0  0  0  0  0
  184.2590  179.5290  143.9500 C   0  0  0  0  0  2  0  0  0  0  0  0
  183.3610  179.0010  145.0530 C   0  0  0  0  0  1  0  0  0  0  0  0
  181.1340  179.7360  140.8610 N   0  0  0  0  0  2  0  0  0  0  0  0
  180.4260  180.3640  142.9880 O   0  0  0  0  0  1  0  0  0  0  0  0
  180.7610  179.2720  142.1880 C   0  0  0  0  0  2  0  0  0  0  0  0
  1  2  1  0  0  0  0
  1 24  1  1  0  0  0
  3 20  1  1  0  0  0
  3  4  1  0  0  0  0
  3  5  1  0  0  0  0
  4  2  1  0  0  0  0
  5 19  1  6  0  0  0
  5  1  1  0  0  0  0
  6  9  2  0  0  0  0
  6  4  1  0  0  0  0
  7 15  2  0  0  0  0
  7  9  1  0  0  0  0
  8 11  1  0  0  0  0
 10  7  1  0  0  0  0
 11 13  2  0  0  0  0
 11 15  1  0  0  0  0
 12  6  1  0  0  0  0
 14  8  1  0  0  0  0
 14 10  2  0  0  0  0
 16 10  1  0  0  0  0
 16 12  2  0  0  0  0
 17 19  1  0  0  0  0
 17 18  1  0  0  0  0
 19 18  1  0  0  0  0
 21 23  1  0  0  0  0
 21 22  1  0  0  0  0
 23 22  1  0  0  0  0
 23 20  1  0  0  0  0
 24 36  1  1  0  0  0
 25 28  1  1  0  0  0
 26 27  1  0  0  0  0
 26 25  1  0  0  0  0
 27 24  1  6  0  0  0
 27 25  1  0  0  0  0
 28 34  1  1  0  0  0
 29 30  1  6  0  0  0
 29 28  1  0  0  0  0
 29 31  1  0  0  0  0
 29 32  1  0  0  0  0
 31 33  1  6  0  0  0
 31 32  1  0  0  0  0
 34 35  1  0  0  0  0
 36 38  1  0  0  0  0
 38 37  1  0  0  0  0
M  END
>  <MODEL>
6

>  <REMARK>
 VINA RESULT:      -6.6      3.570      7.335
  Name = 
  11 active torsions:
  status: ('A' for Active; 'I' for Inactive)
    1  A    between atoms: C_1  and  N_31
    2  A    between atoms: C_3  and  C_24
    3  A    between atoms: C_7  and  C_24
    4  A    between atoms: O_11  and  C_22
    5  A    between atoms: O_11  and  C_29
    6  A    between atoms: C_12  and  C_24
    7  A    between atoms: C_14  and  C_26
    8  A    between atoms: N_17  and  C_26
    9  A    between atoms: N_17  and  C_38
   10  A    between atoms: C_23  and  C_26
   11  A    between atoms: C_33  and  C_34
                            x       y       z     vdW  Elec       q    Type
                         _______ _______ _______ _____ _____    ______ ____

>  <TORSDO>
F 11

$$$$
=
 OpenBabel10222416283D

 38 44  0  0  1  0  0  0  0  0999 V2000
  188.4300  176.8340  136.7980 C   0  0  2  0  0  3  0  0  0  0  0  0
  189.2760  178.2420  137.5880 S   0  0  0  0  0  0  0  0  0  0  0  0
  186.9620  177.5270  138.7100 C   0  0  2  0  0  3  0  0  0  0  0  0
  188.3000  177.9810  139.0290 N   0  0  0  0  0  0  0  0  0  0  0  0
  187.1160  176.5430  137.5430 C   0  0  1  0  0  3  0  0  0  0  0  0
  188.8930  177.7400  140.3150 C   0  0  0  0  0  0  0  0  0  0  0  0
  188.6990  177.5280  142.7240 C   0  0  0  0  0  0  0  0  0  0  0  0
  190.0150  177.0670  145.2480 C   0  0  0  0  0  2  0  0  0  0  0  0
  188.1140  177.7520  141.4780 C   0  0  0  0  0  3  0  0  0  0  0  0
  190.0890  177.2910  142.7970 C   0  0  0  0  0  0  0  0  0  0  0  0
  188.5380  177.2970  145.1320 C   0  0  0  0  0  0  0  0  0  0  0  0
  190.2680  177.5030  140.4350 C   0  0  0  0  0  3  0  0  0  0  0  0
  187.8170  177.2920  146.1620 O   0  0  0  0  0  0  0  0  0  0  0  0
  190.6810  177.0770  143.9390 N   0  0  0  0  0  0  0  0  0  0  0  0
  187.9380  177.5350  143.8170 C   0  0  0  0  0  3  0  0  0  0  0  0
  190.8280  177.2840  141.6550 N   0  0  0  0  0  0  0  0  0  0  0  0
  185.0480  175.3250  136.8820 C   0  0  0  0  0  2  0  0  0  0  0  0
  186.0000  175.2970  135.7070 C   0  0  0  0  0  2  0  0  0  0  0  0
  185.9270  176.5270  136.5890 C   0  0  0  0  0  3  0  0  0  0  0  0
  186.1780  178.6310  138.3500 O   0  0  0  0  0  0  0  0  0  0  0  0
  184.2000  179.6920  139.1180 C   0  0  0  0  0  2  0  0  0  0  0  0
  184.8640  179.0030  140.2880 C   0  0  0  0  0  2  0  0  0  0  0  0
  184.9260  178.3780  138.9110 C   0  0  0  0  0  3  0  0  0  0  0  0
  189.3630  175.6180  136.7610 C   0  0  2  0  0  3  0  0  0  0  0  0
  191.6560  174.8290  137.1480 C   0  0  1  0  0  3  0  0  0  0  0  0
  191.0310  175.0790  138.3840 O   0  0  0  0  0  0  0  0  0  0  0  0
  190.7270  175.9650  137.3350 C   0  0  2  0  0  3  0  0  0  0  0  0
  193.1010  175.3190  137.1900 C   0  0  1  0  0  3  0  0  0  0  0  0
  194.0900  174.1370  137.1000 C   0  0  2  0  0  0  0  0  0  0  0  0
  193.6910  172.9460  136.2360 C   0  0  0  0  0  1  0  0  0  0  0  0
  195.0870  173.9250  138.2440 C   0  0  2  0  0  3  0  0  0  0  0  0
  195.5420  174.5330  136.9240 C   0  0  0  0  0  2  0  0  0  0  0  0
  195.6020  172.4980  138.3440 C   0  0  0  0  0  1  0  0  0  0  0  0
  193.3330  176.3940  136.1260 C   0  0  0  0  0  2  0  0  0  0  0  0
  193.0200  175.8600  134.7410 C   0  0  0  0  0  1  0  0  0  0  0  0
  189.5110  175.1080  135.4030 N   0  0  0  0  0  2  0  0  0  0  0  0
  188.5830  173.3780  136.6550 O   0  0  0  0  0  1  0  0  0  0  0  0
  189.1630  173.6960  135.4280 C   0  0  0  0  0  2  0  0  0  0  0  0
  1 24  1  1  0  0  0
  1  5  1  0  0  0  0
  1  2  1  0  0  0  0
  2  4  1  0  0  0  0
  3 20  1  6  0  0  0
  3  4  1  0  0  0  0
  4  6  1  0  0  0  0
  5 19  1  6  0  0  0
  5  3  1  0  0  0  0
  6 12  1  0  0  0  0
  6  9  2  0  0  0  0
  7 10  1  0  0  0  0
  7 15  2  0  0  0  0
  9  7  1  0  0  0  0
 10 14  2  0  0  0  0
 11  8  1  0  0  0  0
 11 13  2  0  0  0  0
 12 16  2  0  0  0  0
 14  8  1  0  0  0  0
 15 11  1  0  0  0  0
 16 10  1  0  0  0  0
 18 19  1  0  0  0  0
 18 17  1  0  0  0  0
 19 17  1  0  0  0  0
 20 23  1  0  0  0  0
 21 22  1  0  0  0  0
 23 21  1  0  0  0  0
 23 22  1  0  0  0  0
 24 36  1  6  0  0  0
 25 28  1  1  0  0  0
 25 27  1  0  0  0  0
 25 26  1  0  0  0  0
 27 24  1  6  0  0  0
 27 26  1  0  0  0  0
 28 34  1  6  0  0  0
 29 30  1  6  0  0  0
 29 28  1  0  0  0  0
 29 31  1  0  0  0  0
 31 33  1  6  0  0  0
 32 29  1  0  0  0  0
 32 31  1  0  0  0  0
 35 34  1  0  0  0  0
 36 38  1  0  0  0  0
 38 37  1  0  0  0  0
M  END
>  <MODEL>
7

>  <REMARK>
 VINA RESULT:      -6.4      2.757      6.749
  Name = 
  11 active torsions:
  status: ('A' for Active; 'I' for Inactive)
    1  A    between atoms: C_1  and  N_31
    2  A    between atoms: C_3  and  C_24
    3  A    between atoms: C_7  and  C_24
    4  A    between atoms: O_11  and  C_22
    5  A    between atoms: O_11  and  C_29
    6  A    between atoms: C_12  and  C_24
    7  A    between atoms: C_14  and  C_26
    8  A    between atoms: N_17  and  C_26
    9  A    between atoms: N_17  and  C_38
   10  A    between atoms: C_23  and  C_26
   11  A    between atoms: C_33  and  C_34
                            x       y       z     vdW  Elec       q    Type
                         _______ _______ _______ _____ _____    ______ ____

>  <TORSDO>
F 11

$$$$
=
 OpenBabel10222416283D

 38 44  0  0  1  0  0  0  0  0999 V2000
  180.5750  177.9020  138.3920 C   0  0  2  0  0  3  0  0  0  0  0  0
  181.3300  179.4770  138.9120 S   0  0  0  0  0  0  0  0  0  0  0  0
  181.1490  177.6160  140.8170 C   0  0  2  0  0  3  0  0  0  0  0  0
  182.0230  178.6510  140.3030 N   0  0  0  0  0  0  0  0  0  0  0  0
  180.5320  176.9350  139.5880 C   0  0  1  0  0  3  0  0  0  0  0  0
  183.4380  178.6380  140.5530 C   0  0  0  0  0  0  0  0  0  0  0  0
  185.3160  178.2530  142.0380 C   0  0  0  0  0  0  0  0  0  0  0  0
  188.1740  178.3060  142.4240 C   0  0  0  0  0  2  0  0  0  0  0  0
  183.9420  178.2520  141.8000 C   0  0  0  0  0  3  0  0  0  0  0  0
  186.1920  178.6510  141.0040 C   0  0  0  0  0  0  0  0  0  0  0  0
  187.2180  177.8660  143.4920 C   0  0  0  0  0  0  0  0  0  0  0  0
  184.3420  179.0280  139.5570 C   0  0  0  0  0  3  0  0  0  0  0  0
  187.6520  177.4960  144.6120 O   0  0  0  0  0  0  0  0  0  0  0  0
  187.4840  178.6690  141.1780 N   0  0  0  0  0  0  0  0  0  0  0  0
  185.7760  177.8740  143.2290 C   0  0  0  0  0  3  0  0  0  0  0  0
  185.6800  179.0230  139.8000 N   0  0  0  0  0  0  0  0  0  0  0  0
  179.1900  175.0660  140.5370 C   0  0  0  0  0  2  0  0  0  0  0  0
  178.9310  175.1150  139.0480 C   0  0  0  0  0  2  0  0  0  0  0  0
  179.1220  176.4030  139.8220 C   0  0  0  0  0  3  0  0  0  0  0  0
  180.1680  178.2040  141.6250 O   0  0  0  0  0  0  0  0  0  0  0  0
  179.7150  178.6150  143.9170 C   0  0  0  0  0  2  0  0  0  0  0  0
  180.5190  179.7710  143.3700 C   0  0  0  0  0  2  0  0  0  0  0  0
  180.7800  178.3670  142.8690 C   0  0  0  0  0  3  0  0  0  0  0  0
  181.3440  177.3220  137.2000 C   0  0  2  0  0  3  0  0  0  0  0  0
  182.9670  175.6270  136.4780 C   0  0  1  0  0  3  0  0  0  0  0  0
  181.8910  174.9980  137.1300 O   0  0  0  0  0  0  0  0  0  0  0  0
  182.3050  176.2360  137.6520 C   0  0  2  0  0  3  0  0  0  0  0  0
  184.2810  174.9700  136.8960 C   0  0  1  0  0  3  0  0  0  0  0  0
  184.3980  173.5460  136.3130 C   0  0  2  0  0  0  0  0  0  0  0  0
  184.1270  173.3670  134.8240 C   0  0  0  0  0  1  0  0  0  0  0  0
  184.2080  172.3510  137.2530 C   0  0  2  0  0  3  0  0  0  0  0  0
  185.6010  172.7590  136.7930 C   0  0  0  0  0  2  0  0  0  0  0  0
  183.7950  171.0750  136.5360 C   0  0  0  0  0  1  0  0  0  0  0  0
  185.4660  175.8740  136.5470 C   0  0  0  0  0  2  0  0  0  0  0  0
  185.1170  176.8040  135.4000 C   0  0  0  0  0  1  0  0  0  0  0  0
  182.0730  178.3640  136.4860 N   0  0  0  0  0  2  0  0  0  0  0  0
  180.8580  179.9460  135.2840 O   0  0  0  0  0  1  0  0  0  0  0  0
  181.3460  178.6390  135.2560 C   0  0  0  0  0  2  0  0  0  0  0  0
  1 24  1  6  0  0  0
  1  2  1  0  0  0  0
  1  5  1  0  0  0  0
  2  4  1  0  0  0  0
  3 20  1  1  0  0  0
  4  6  1  0  0  0  0
  4  3  1  0  0  0  0
  5 19  1  1  0  0  0
  5  3  1  0  0  0  0
  6  9  2  0  0  0  0
  7 15  2  0  0  0  0
  8 11  1  0  0  0  0
  9  7  1  0  0  0  0
 10 14  2  0  0  0  0
 10  7  1  0  0  0  0
 11 13  2  0  0  0  0
 12 16  2  0  0  0  0
 12  6  1  0  0  0  0
 14  8  1  0  0  0  0
 15 11  1  0  0  0  0
 16 10  1  0  0  0  0
 18 19  1  0  0  0  0
 18 17  1  0  0  0  0
 19 17  1  0  0  0  0
 20 23  1  0  0  0  0
 22 21  1  0  0  0  0
 23 22  1  0  0  0  0
 23 21  1  0  0  0  0
 24 36  1  1  0  0  0
 25 28  1  1  0  0  0
 25 26  1  0  0  0  0
 25 27  1  0  0  0  0
 26 27  1  0  0  0  0
 27 24  1  6  0  0  0
 28 34  1  6  0  0  0
 29 30  1  6  0  0  0
 29 32  1  0  0  0  0
 29 28  1  0  0  0  0
 29 31  1  0  0  0  0
 31 33  1  6  0  0  0
 32 31  1  0  0  0  0
 35 34  1  0  0  0  0
 38 37  1  0  0  0  0
 38 36  1  0  0  0  0
M  END
>  <MODEL>
8

>  <REMARK>
 VINA RESULT:      -6.4      3.925      8.750
  Name = 
  11 active torsions:
  status: ('A' for Active; 'I' for Inactive)
    1  A    between atoms: C_1  and  N_31
    2  A    between atoms: C_3  and  C_24
    3  A    between atoms: C_7  and  C_24
    4  A    between atoms: O_11  and  C_22
    5  A    between atoms: O_11  and  C_29
    6  A    between atoms: C_12  and  C_24
    7  A    between atoms: C_14  and  C_26
    8  A    between atoms: N_17  and  C_26
    9  A    between atoms: N_17  and  C_38
   10  A    between atoms: C_23  and  C_26
   11  A    between atoms: C_33  and  C_34
                            x       y       z     vdW  Elec       q    Type
                         _______ _______ _______ _____ _____    ______ ____

>  <TORSDO>
F 11

$$$$
=
 OpenBabel10222416283D

 38 44  0  0  1  0  0  0  0  0999 V2000
  184.7320  178.4160  138.3670 C   0  0  2  0  0  3  0  0  0  0  0  0
  183.8110  179.7210  139.2450 S   0  0  0  0  0  0  0  0  0  0  0  0
  183.0140  177.2250  139.7530 C   0  0  2  0  0  3  0  0  0  0  0  0
  183.2400  178.5090  140.3850 N   0  0  0  0  0  0  0  0  0  0  0  0
  184.1600  177.0400  138.7510 C   0  0  1  0  0  3  0  0  0  0  0  0
  183.4720  178.6250  141.7990 C   0  0  0  0  0  0  0  0  0  0  0  0
  184.9150  178.3580  143.7300 C   0  0  0  0  0  0  0  0  0  0  0  0
  185.2440  178.6030  146.5850 C   0  0  0  0  0  2  0  0  0  0  0  0
  184.7010  178.2520  142.3560 C   0  0  0  0  0  3  0  0  0  0  0  0
  183.8750  178.8430  144.5520 C   0  0  0  0  0  0  0  0  0  0  0  0
  186.3360  178.1160  145.6800 C   0  0  0  0  0  0  0  0  0  0  0  0
  182.4680  179.0980  142.6510 C   0  0  0  0  0  3  0  0  0  0  0  0
  187.4540  177.7950  146.1580 O   0  0  0  0  0  0  0  0  0  0  0  0
  184.0270  178.9590  145.8420 N   0  0  0  0  0  0  0  0  0  0  0  0
  186.0950  178.0060  144.2390 C   0  0  0  0  0  3  0  0  0  0  0  0
  182.6890  179.1990  143.9890 N   0  0  0  0  0  0  0  0  0  0  0  0
  183.8400  174.7510  137.8280 C   0  0  0  0  0  2  0  0  0  0  0  0
  184.9600  175.4110  137.0550 C   0  0  0  0  0  2  0  0  0  0  0  0
  183.7740  176.2340  137.5150 C   0  0  0  0  0  3  0  0  0  0  0  0
  181.7690  177.2430  139.1130 O   0  0  0  0  0  0  0  0  0  0  0  0
  179.9070  175.7840  138.9370 C   0  0  0  0  0  2  0  0  0  0  0  0
  179.5620  176.8910  139.9060 C   0  0  0  0  0  2  0  0  0  0  0  0
  180.9780  176.3560  139.8430 C   0  0  0  0  0  3  0  0  0  0  0  0
  186.2280  178.5350  138.6760 C   0  0  2  0  0  3  0  0  0  0  0  0
  188.4890  178.3840  137.7290 C   0  0  1  0  0  3  0  0  0  0  0  0
  187.6810  179.1730  136.8890 O   0  0  0  0  0  0  0  0  0  0  0  0
  187.0630  178.0650  137.4960 C   0  0  2  0  0  3  0  0  0  0  0  0
  189.3760  177.4720  136.8850 C   0  0  1  0  0  3  0  0  0  0  0  0
  190.4970  176.8440  137.7400 C   0  0  2  0  0  0  0  0  0  0  0  0
  190.5550  177.2190  139.2160 C   0  0  0  0  0  1  0  0  0  0  0  0
  191.7770  176.3740  137.0410 C   0  0  2  0  0  3  0  0  0  0  0  0
  190.7300  175.3670  137.4980 C   0  0  0  0  0  2  0  0  0  0  0  0
  192.9820  176.3020  137.9670 C   0  0  0  0  0  1  0  0  0  0  0  0
  188.5270  176.4430  136.1360 C   0  0  0  0  0  2  0  0  0  0  0  0
  188.7460  176.5470  134.6380 C   0  0  0  0  0  1  0  0  0  0  0  0
  186.5820  177.7760  139.8690 N   0  0  0  0  0  2  0  0  0  0  0  0
  188.1790  177.8480  141.5620 O   0  0  0  0  0  1  0  0  0  0  0  0
  187.4120  178.6330  140.7000 C   0  0  0  0  0  2  0  0  0  0  0  0
  1 24  1  1  0  0  0
  1  5  1  0  0  0  0
  1  2  1  0  0  0  0
  2  4  1  0  0  0  0
  3 20  1  6  0  0  0
  3  4  1  0  0  0  0
  4  6  1  0  0  0  0
  5 19  1  6  0  0  0
  5  3  1  0  0  0  0
  6  9  2  0  0  0  0
  6 12  1  0  0  0  0
  7 15  2  0  0  0  0
  7 10  1  0  0  0  0
  9  7  1  0  0  0  0
 10 14  2  0  0  0  0
 11 13  2  0  0  0  0
 11  8  1  0  0  0  0
 12 16  2  0  0  0  0
 14  8  1  0  0  0  0
 15 11  1  0  0  0  0
 16 10  1  0  0  0  0
 18 19  1  0  0  0  0
 18 17  1  0  0  0  0
 19 17  1  0  0  0  0
 20 23  1  0  0  0  0
 21 23  1  0  0  0  0
 21 22  1  0  0  0  0
 23 22  1  0  0  0  0
 24 36  1  1  0  0  0
 25 28  1  6  0  0  0
 26 27  1  0  0  0  0
 26 25  1  0  0  0  0
 27 25  1  0  0  0  0
 27 24  1  1  0  0  0
 28 34  1  1  0  0  0
 28 29  1  0  0  0  0
 29 30  1  1  0  0  0
 31 32  1  0  0  0  0
 31 29  1  0  0  0  0
 31 33  1  1  0  0  0
 32 29  1  0  0  0  0
 35 34  1  0  0  0  0
 36 38  1  0  0  0  0
 38 37  1  0  0  0  0
M  END
>  <MODEL>
9

>  <REMARK>
 VINA RESULT:      -6.3      2.575      6.087
  Name = 
  11 active torsions:
  status: ('A' for Active; 'I' for Inactive)
    1  A    between atoms: C_1  and  N_31
    2  A    between atoms: C_3  and  C_24
    3  A    between atoms: C_7  and  C_24
    4  A    between atoms: O_11  and  C_22
    5  A    between atoms: O_11  and  C_29
    6  A    between atoms: C_12  and  C_24
    7  A    between atoms: C_14  and  C_26
    8  A    between atoms: N_17  and  C_26
    9  A    between atoms: N_17  and  C_38
   10  A    between atoms: C_23  and  C_26
   11  A    between atoms: C_33  and  C_34
                            x       y       z     vdW  Elec       q    Type
                         _______ _______ _______ _____ _____    ______ ____

>  <TORSDO>
F 11

$$$$
