=
 OpenBabel10222415393D

 40 43  0  0  1  0  0  0  0  0999 V2000
  185.0330  179.2350  143.8380 N   0  0  0  0  0  2  0  0  0  0  0  0
  185.3210  178.2470  142.8130 C   0  0  0  0  0  2  0  0  0  0  0  0
  187.5330  177.0720  142.7880 C   0  0  0  0  0  2  0  0  0  0  0  0
  188.3070  178.5440  140.4430 C   0  0  0  0  0  2  0  0  0  0  0  0
  186.8450  178.5330  140.8800 C   0  0  0  0  0  2  0  0  0  0  0  0
  186.7740  178.3380  142.3890 C   0  0  1  0  0  3  0  0  0  0  0  0
  188.9610  177.1390  142.2470 C   0  0  0  0  0  2  0  0  0  0  0  0
  188.9450  177.2720  140.7870 N   0  0  0  0  0  0  0  0  0  0  0  0
  190.3310  177.3770  140.3630 C   0  0  0  0  0  2  0  0  0  0  0  0
  190.7500  176.1280  139.7460 N   0  0  0  0  0  2  0  0  0  0  0  0
  189.8190  176.7930  137.5490 N   0  0  0  0  0  2  0  0  0  0  0  0
  191.0530  174.7930  137.8400 N   0  0  0  0  0  2  0  0  0  0  0  0
  190.5850  175.8850  138.3520 C   0  0  0  0  0  0  0  0  0  0  0  0
  189.5070  176.5570  136.1450 C   0  0  0  0  0  2  0  0  0  0  0  0
  187.2820  176.6760  137.1380 N   0  0  0  0  0  2  0  0  0  0  0  0
  188.0330  176.2160  135.9680 C   0  0  2  0  0  3  0  0  0  0  0  0
  185.8690  176.3580  136.9280 C   0  0  0  0  0  2  0  0  0  0  0  0
  187.8550  174.7070  135.7910 C   0  0  0  0  0  2  0  0  0  0  0  0
  186.3640  174.3820  135.7230 C   0  0  0  0  0  2  0  0  0  0  0  0
  185.6850  174.9070  136.9070 N   0  0  0  0  0  2  0  0  0  0  0  0
  183.8320  178.7880  144.5300 C   0  0  2  0  0  3  0  0  0  0  0  0
  182.6130  179.5050  143.9680 C   0  0  0  0  0  2  0  0  0  0  0  0
  181.5980  178.5150  143.4110 C   0  0  2  0  0  3  0  0  0  0  0  0
  181.2320  178.8630  141.9920 C   0  0  0  0  0  2  0  0  0  0  0  0
  179.3190  178.3080  143.2940 N   0  0  0  0  0  2  0  0  0  0  0  0
  179.2440  177.8800  140.9030 C   0  0  0  0  0  1  0  0  0  0  0  0
  180.3700  178.5850  144.1850 N   0  0  0  0  0  2  0  0  0  0  0  0
  179.7290  178.8150  141.9930 C   0  0  2  0  0  3  0  0  0  0  0  0
  183.9570  179.0910  145.9490 N   0  0  0  0  0  2  0  0  0  0  0  0
  184.8290  178.0890  146.5530 C   0  0  0  0  0  2  0  0  0  0  0  0
  185.9370  178.7290  147.2550 N   0  0  0  0  0  2  0  0  0  0  0  0
  189.0960  177.1450  146.0690 C   0  0  0  0  0  3  0  0  0  0  0  0
  188.1120  178.3760  148.3770 C   0  0  0  0  0  3  0  0  0  0  0  0
  187.2820  178.2370  147.2530 C   0  0  0  0  0  0  0  0  0  0  0  0
  189.9260  177.2800  147.1920 C   0  0  0  0  0  0  0  0  0  0  0  0
  187.7820  177.6210  146.1010 C   0  0  0  0  0  3  0  0  0  0  0  0
  189.4240  177.9010  148.3450 C   0  0  0  0  0  3  0  0  0  0  0  0
  191.7980  176.1400  146.0180 O   0  0  0  0  0  0  0  0  0  0  0  0
  191.3100  176.7730  147.1570 C   0  0  0  0  0  0  0  0  0  0  0  0
  192.0640  176.9090  148.1580 O   0  0  0  0  0  1  0  0  0  0  0  0
  1 21  1  0  0  0  0
  2  1  1  0  0  0  0
  4  8  1  0  0  0  0
  4  5  1  0  0  0  0
  5  6  1  0  0  0  0
  6  3  1  0  0  0  0
  6  2  1  6  0  0  0
  7  3  1  0  0  0  0
  8  7  1  0  0  0  0
  9  8  1  0  0  0  0
 10  9  1  0  0  0  0
 11 13  1  0  0  0  0
 12 13  2  0  0  0  0
 13 10  1  0  0  0  0
 14 11  1  0  0  0  0
 16 14  1  1  0  0  0
 16 15  1  0  0  0  0
 17 15  1  0  0  0  0
 18 16  1  0  0  0  0
 19 18  1  0  0  0  0
 19 20  1  0  0  0  0
 20 17  1  0  0  0  0
 21 22  1  6  0  0  0
 21 29  1  0  0  0  0
 23 22  1  1  0  0  0
 23 27  1  0  0  0  0
 24 28  1  0  0  0  0
 24 23  1  0  0  0  0
 25 27  1  0  0  0  0
 28 26  1  6  0  0  0
 28 25  1  0  0  0  0
 29 30  1  0  0  0  0
 30 31  1  0  0  0  0
 32 36  2  0  0  0  0
 32 35  1  0  0  0  0
 34 31  1  0  0  0  0
 34 33  2  0  0  0  0
 35 37  2  0  0  0  0
 36 34  1  0  0  0  0
 37 33  1  0  0  0  0
 38 39  2  0  0  0  0
 39 35  1  0  0  0  0
 39 40  1  0  0  0  0
M  END
>  <MODEL>
1

>  <REMARK>
 VINA RESULT:      -8.5      0.000      0.000
  Name = 
  14 active torsions:
  status: ('A' for Active; 'I' for Inactive)
    1  A    between atoms: N_1  and  C_21
    2  A    between atoms: N_1  and  C_25
    3  A    between atoms: C_3  and  N_12
    4  A    between atoms: C_3  and  N_38
    5  A    between atoms: C_4  and  C_7
    6  A    between atoms: C_4  and  N_17
    7  A    between atoms: C_6  and  C_9
    8  A    between atoms: C_6  and  C_25
    9  A    between atoms: C_14  and  C_31
   10  A    between atoms: N_16  and  C_23
   11  A    between atoms: N_16  and  C_36
   12  A    between atoms: C_21  and  C_22
   13  A    between atoms: C_25  and  N_34
   14  A    between atoms: N_34  and  C_36
                            x       y       z     vdW  Elec       q    Type
                         _______ _______ _______ _____ _____    ______ ____

>  <TORSDO>
F 14

$$$$
=
 OpenBabel10222415393D

 40 43  0  0  1  0  0  0  0  0999 V2000
  185.9170  177.6040  143.3070 N   0  0  0  0  0  2  0  0  0  0  0  0
  186.6640  178.5150  142.4570 C   0  0  0  0  0  2  0  0  0  0  0  0
  187.8720  178.2470  140.2790 C   0  0  0  0  0  2  0  0  0  0  0  0
  190.2080  177.3150  141.6710 C   0  0  0  0  0  2  0  0  0  0  0  0
  189.0870  177.9990  142.4490 C   0  0  0  0  0  2  0  0  0  0  0  0
  187.7650  177.7700  141.7280 C   0  0  1  0  0  3  0  0  0  0  0  0
  189.0620  177.5680  139.6020 C   0  0  0  0  0  2  0  0  0  0  0  0
  190.3010  177.8780  140.3220 N   0  0  0  0  0  0  0  0  0  0  0  0
  191.3670  177.1590  139.6460 C   0  0  0  0  0  2  0  0  0  0  0  0
  190.8170  176.0060  138.9530 N   0  0  0  0  0  2  0  0  0  0  0  0
  192.9450  175.5910  137.7570 N   0  0  0  0  0  2  0  0  0  0  0  0
  191.0970  174.1220  137.5810 N   0  0  0  0  0  2  0  0  0  0  0  0
  191.6160  175.1850  138.1040 C   0  0  0  0  0  0  0  0  0  0  0  0
  193.7830  174.8700  136.8070 C   0  0  0  0  0  2  0  0  0  0  0  0
  195.2030  175.0230  138.7840 N   0  0  0  0  0  2  0  0  0  0  0  0
  195.0650  174.3870  137.4720 C   0  0  2  0  0  3  0  0  0  0  0  0
  196.4290  174.5210  139.4080 C   0  0  0  0  0  2  0  0  0  0  0  0
  196.2750  174.7200  136.5970 C   0  0  0  0  0  2  0  0  0  0  0  0
  197.5520  174.3220  137.3350 C   0  0  0  0  0  2  0  0  0  0  0  0
  197.5930  174.9700  138.6450 N   0  0  0  0  0  2  0  0  0  0  0  0
  184.7200  178.3130  143.7360 C   0  0  2  0  0  3  0  0  0  0  0  0
  184.2040  179.1910  142.6050 C   0  0  0  0  0  2  0  0  0  0  0  0
  183.0370  178.5330  141.8830 C   0  0  2  0  0  3  0  0  0  0  0  0
  183.0800  178.8340  140.4070 C   0  0  0  0  0  2  0  0  0  0  0  0
  180.8860  179.0660  141.2970 N   0  0  0  0  0  2  0  0  0  0  0  0
  181.1170  178.4430  138.9600 C   0  0  0  0  0  1  0  0  0  0  0  0
  181.7840  179.0770  142.3790 N   0  0  0  0  0  2  0  0  0  0  0  0
  181.6770  179.2760  140.0950 C   0  0  2  0  0  3  0  0  0  0  0  0
  185.0430  179.1480  144.8850 N   0  0  0  0  0  2  0  0  0  0  0  0
  184.9890  178.3160  146.0810 C   0  0  0  0  0  2  0  0  0  0  0  0
  186.0050  178.7310  147.0430 N   0  0  0  0  0  2  0  0  0  0  0  0
  189.1590  177.0820  145.9350 C   0  0  0  0  0  3  0  0  0  0  0  0
  188.1630  178.3830  148.1990 C   0  0  0  0  0  3  0  0  0  0  0  0
  187.3450  178.2250  147.0690 C   0  0  0  0  0  0  0  0  0  0  0  0
  189.9770  177.2370  147.0630 C   0  0  0  0  0  0  0  0  0  0  0  0
  187.8510  177.5740  145.9390 C   0  0  0  0  0  3  0  0  0  0  0  0
  189.4700  177.8920  148.1940 C   0  0  0  0  0  3  0  0  0  0  0  0
  191.9470  176.3050  145.8660 O   0  0  0  0  0  0  0  0  0  0  0  0
  191.3560  176.7140  147.0570 C   0  0  0  0  0  0  0  0  0  0  0  0
  192.0110  176.6330  148.1310 O   0  0  0  0  0  1  0  0  0  0  0  0
  1 21  1  0  0  0  0
  2  1  1  0  0  0  0
  3  6  1  0  0  0  0
  4  5  1  0  0  0  0
  6  5  1  0  0  0  0
  6  2  1  1  0  0  0
  7  3  1  0  0  0  0
  7  8  1  0  0  0  0
  8  4  1  0  0  0  0
  9  8  1  0  0  0  0
 10  9  1  0  0  0  0
 11 13  1  0  0  0  0
 12 13  2  0  0  0  0
 13 10  1  0  0  0  0
 14 11  1  0  0  0  0
 15 17  1  0  0  0  0
 16 14  1  6  0  0  0
 16 15  1  0  0  0  0
 18 19  1  0  0  0  0
 18 16  1  0  0  0  0
 19 20  1  0  0  0  0
 20 17  1  0  0  0  0
 21 22  1  6  0  0  0
 21 29  1  0  0  0  0
 23 27  1  0  0  0  0
 23 22  1  1  0  0  0
 24 23  1  0  0  0  0
 25 27  1  0  0  0  0
 28 26  1  6  0  0  0
 28 24  1  0  0  0  0
 28 25  1  0  0  0  0
 29 30  1  0  0  0  0
 30 31  1  0  0  0  0
 31 34  1  0  0  0  0
 32 36  2  0  0  0  0
 32 35  1  0  0  0  0
 34 33  2  0  0  0  0
 35 37  2  0  0  0  0
 36 34  1  0  0  0  0
 37 33  1  0  0  0  0
 38 39  2  0  0  0  0
 39 35  1  0  0  0  0
 39 40  1  0  0  0  0
M  END
>  <MODEL>
2

>  <REMARK>
 VINA RESULT:      -8.2      2.667      4.219
  Name = 
  14 active torsions:
  status: ('A' for Active; 'I' for Inactive)
    1  A    between atoms: N_1  and  C_21
    2  A    between atoms: N_1  and  C_25
    3  A    between atoms: C_3  and  N_12
    4  A    between atoms: C_3  and  N_38
    5  A    between atoms: C_4  and  C_7
    6  A    between atoms: C_4  and  N_17
    7  A    between atoms: C_6  and  C_9
    8  A    between atoms: C_6  and  C_25
    9  A    between atoms: C_14  and  C_31
   10  A    between atoms: N_16  and  C_23
   11  A    between atoms: N_16  and  C_36
   12  A    between atoms: C_21  and  C_22
   13  A    between atoms: C_25  and  N_34
   14  A    between atoms: N_34  and  C_36
                            x       y       z     vdW  Elec       q    Type
                         _______ _______ _______ _____ _____    ______ ____

>  <TORSDO>
F 14

$$$$
=
 OpenBabel10222415393D

 40 43  0  0  1  0  0  0  0  0999 V2000
  184.8570  178.3190  143.7310 N   0  0  0  0  0  2  0  0  0  0  0  0
  184.9980  179.2300  142.6090 C   0  0  0  0  0  2  0  0  0  0  0  0
  184.9360  179.0000  140.1160 C   0  0  0  0  0  2  0  0  0  0  0  0
  187.6550  178.0680  140.1170 C   0  0  0  0  0  2  0  0  0  0  0  0
  187.0820  178.7330  141.3660 C   0  0  0  0  0  2  0  0  0  0  0  0
  185.5780  178.5030  141.4110 C   0  0  1  0  0  3  0  0  0  0  0  0
  185.6190  178.3380  138.9190 C   0  0  0  0  0  2  0  0  0  0  0  0
  187.0510  178.6490  138.9160 N   0  0  0  0  0  0  0  0  0  0  0  0
  187.6280  177.9460  137.7820 C   0  0  0  0  0  2  0  0  0  0  0  0
  186.8110  176.7890  137.4570 N   0  0  0  0  0  2  0  0  0  0  0  0
  188.8050  175.3940  136.9950 N   0  0  0  0  0  2  0  0  0  0  0  0
  186.6120  174.5020  136.9670 N   0  0  0  0  0  2  0  0  0  0  0  0
  187.3870  175.5180  137.1650 C   0  0  0  0  0  0  0  0  0  0  0  0
  189.4600  174.1590  136.5830 C   0  0  0  0  0  2  0  0  0  0  0  0
  191.4830  174.5730  137.8800 N   0  0  0  0  0  2  0  0  0  0  0  0
  190.9710  174.3390  136.5280 C   0  0  2  0  0  3  0  0  0  0  0  0
  192.9380  174.7170  137.7980 C   0  0  0  0  0  2  0  0  0  0  0  0
  191.3330  175.5150  135.6180 C   0  0  0  0  0  2  0  0  0  0  0  0
  192.8430  175.7390  135.6660 C   0  0  0  0  0  2  0  0  0  0  0  0
  193.2750  175.9280  137.0500 N   0  0  0  0  0  2  0  0  0  0  0  0
  183.5810  178.6220  144.3630 C   0  0  2  0  0  3  0  0  0  0  0  0
  182.8100  179.6280  143.5200 C   0  0  0  0  0  2  0  0  0  0  0  0
  181.4560  179.0730  143.1000 C   0  0  2  0  0  3  0  0  0  0  0  0
  181.5270  178.4670  141.7220 C   0  0  0  0  0  2  0  0  0  0  0  0
  179.5870  179.8150  142.0000 N   0  0  0  0  0  2  0  0  0  0  0  0
  179.4810  177.9580  140.4360 C   0  0  0  0  0  1  0  0  0  0  0  0
  180.4860  180.1530  143.0260 N   0  0  0  0  0  2  0  0  0  0  0  0
  180.3440  179.0630  141.0110 C   0  0  2  0  0  3  0  0  0  0  0  0
  183.8220  179.1860  145.6840 N   0  0  0  0  0  2  0  0  0  0  0  0
  184.5110  178.1820  146.4870 C   0  0  0  0  0  2  0  0  0  0  0  0
  185.6560  178.7720  147.1760 N   0  0  0  0  0  2  0  0  0  0  0  0
  189.1410  177.8250  148.0970 C   0  0  0  0  0  3  0  0  0  0  0  0
  187.4990  177.8100  145.8370 C   0  0  0  0  0  3  0  0  0  0  0  0
  187.0010  178.2950  147.0570 C   0  0  0  0  0  0  0  0  0  0  0  0
  189.6410  177.3430  146.8790 C   0  0  0  0  0  0  0  0  0  0  0  0
  187.8290  178.2970  148.1850 C   0  0  0  0  0  3  0  0  0  0  0  0
  188.8090  177.3380  145.7500 C   0  0  0  0  0  3  0  0  0  0  0  0
  191.8460  177.2410  145.7340 O   0  0  0  0  0  0  0  0  0  0  0  0
  191.0270  176.8490  146.7890 C   0  0  0  0  0  0  0  0  0  0  0  0
  191.4830  176.0670  147.6660 O   0  0  0  0  0  1  0  0  0  0  0  0
  1 21  1  0  0  0  0
  2  1  1  0  0  0  0
  3  6  1  0  0  0  0
  4  5  1  0  0  0  0
  5  6  1  0  0  0  0
  6  2  1  1  0  0  0
  7  3  1  0  0  0  0
  8  7  1  0  0  0  0
  8  4  1  0  0  0  0
  9  8  1  0  0  0  0
 10  9  1  0  0  0  0
 11 13  1  0  0  0  0
 12 13  2  0  0  0  0
 13 10  1  0  0  0  0
 14 11  1  0  0  0  0
 16 14  1  1  0  0  0
 16 15  1  0  0  0  0
 17 15  1  0  0  0  0
 18 19  1  0  0  0  0
 18 16  1  0  0  0  0
 19 20  1  0  0  0  0
 20 17  1  0  0  0  0
 21 22  1  6  0  0  0
 21 29  1  0  0  0  0
 23 22  1  6  0  0  0
 24 23  1  0  0  0  0
 25 27  1  0  0  0  0
 27 23  1  0  0  0  0
 28 26  1  1  0  0  0
 28 24  1  0  0  0  0
 28 25  1  0  0  0  0
 29 30  1  0  0  0  0
 30 31  1  0  0  0  0
 32 36  1  0  0  0  0
 33 34  1  0  0  0  0
 34 31  1  0  0  0  0
 34 36  2  0  0  0  0
 35 32  2  0  0  0  0
 37 33  2  0  0  0  0
 37 35  1  0  0  0  0
 38 39  2  0  0  0  0
 39 35  1  0  0  0  0
 39 40  1  0  0  0  0
M  END
>  <MODEL>
3

>  <REMARK>
 VINA RESULT:      -8.0      1.503      3.060
  Name = 
  14 active torsions:
  status: ('A' for Active; 'I' for Inactive)
    1  A    between atoms: N_1  and  C_21
    2  A    between atoms: N_1  and  C_25
    3  A    between atoms: C_3  and  N_12
    4  A    between atoms: C_3  and  N_38
    5  A    between atoms: C_4  and  C_7
    6  A    between atoms: C_4  and  N_17
    7  A    between atoms: C_6  and  C_9
    8  A    between atoms: C_6  and  C_25
    9  A    between atoms: C_14  and  C_31
   10  A    between atoms: N_16  and  C_23
   11  A    between atoms: N_16  and  C_36
   12  A    between atoms: C_21  and  C_22
   13  A    between atoms: C_25  and  N_34
   14  A    between atoms: N_34  and  C_36
                            x       y       z     vdW  Elec       q    Type
                         _______ _______ _______ _____ _____    ______ ____

>  <TORSDO>
F 14

$$$$
=
 OpenBabel10222415393D

 40 43  0  0  1  0  0  0  0  0999 V2000
  183.0950  177.0790  140.0050 N   0  0  0  0  0  2  0  0  0  0  0  0
  182.5150  177.3980  138.7120 C   0  0  0  0  0  2  0  0  0  0  0  0
  184.8630  177.6710  137.8860 C   0  0  0  0  0  2  0  0  0  0  0  0
  184.6460  175.2150  136.4090 C   0  0  0  0  0  2  0  0  0  0  0  0
  183.6060  175.5510  137.4740 C   0  0  0  0  0  2  0  0  0  0  0  0
  183.4900  177.0640  137.6000 C   0  0  1  0  0  3  0  0  0  0  0  0
  185.8550  177.2220  136.8130 C   0  0  0  0  0  2  0  0  0  0  0  0
  185.9510  175.7600  136.7900 N   0  0  0  0  0  0  0  0  0  0  0  0
  186.8700  175.4190  135.7170 C   0  0  0  0  0  2  0  0  0  0  0  0
  187.8320  174.4370  136.1910 N   0  0  0  0  0  2  0  0  0  0  0  0
  189.3550  176.1980  137.0350 N   0  0  0  0  0  2  0  0  0  0  0  0
  189.7760  173.8960  137.3920 N   0  0  0  0  0  2  0  0  0  0  0  0
  188.9980  174.8150  136.9190 C   0  0  0  0  0  0  0  0  0  0  0  0
  190.5880  176.6610  137.6600 C   0  0  0  0  0  2  0  0  0  0  0  0
  190.6040  176.3310  140.0760 N   0  0  0  0  0  2  0  0  0  0  0  0
  190.3040  177.2950  139.0150 C   0  0  2  0  0  3  0  0  0  0  0  0
  190.3460  176.9760  141.3650 C   0  0  0  0  0  2  0  0  0  0  0  0
  188.8410  177.7320  139.1000 C   0  0  0  0  0  2  0  0  0  0  0  0
  188.5580  178.2650  140.5040 C   0  0  0  0  0  2  0  0  0  0  0  0
  188.9170  177.2580  141.5010 N   0  0  0  0  0  2  0  0  0  0  0  0
  182.8070  178.2000  140.8860 C   0  0  2  0  0  3  0  0  0  0  0  0
  181.7650  179.1070  140.2490 C   0  0  0  0  0  2  0  0  0  0  0  0
  180.5420  179.2580  141.1430 C   0  0  2  0  0  3  0  0  0  0  0  0
  180.9380  179.2750  142.5960 C   0  0  0  0  0  2  0  0  0  0  0  0
  179.0420  177.8910  142.2090 N   0  0  0  0  0  2  0  0  0  0  0  0
  179.2670  178.9470  144.3860 C   0  0  0  0  0  1  0  0  0  0  0  0
  179.6640  178.1130  140.9680 N   0  0  0  0  0  2  0  0  0  0  0  0
  179.9970  178.2900  143.2320 C   0  0  2  0  0  3  0  0  0  0  0  0
  184.0310  178.9570  141.1130 N   0  0  0  0  0  2  0  0  0  0  0  0
  184.8680  178.2030  142.0390 C   0  0  0  0  0  2  0  0  0  0  0  0
  184.6380  178.6410  143.4130 N   0  0  0  0  0  2  0  0  0  0  0  0
  187.5970  177.3990  145.3100 C   0  0  0  0  0  3  0  0  0  0  0  0
  185.2020  178.7460  145.8180 C   0  0  0  0  0  3  0  0  0  0  0  0
  185.5160  178.3530  144.5070 C   0  0  0  0  0  0  0  0  0  0  0  0
  187.2830  177.7880  146.6200 C   0  0  0  0  0  0  0  0  0  0  0  0
  186.7180  177.6810  144.2600 C   0  0  0  0  0  3  0  0  0  0  0  0
  186.0800  178.4640  146.8660 C   0  0  0  0  0  3  0  0  0  0  0  0
  189.3670  176.7480  147.4910 O   0  0  0  0  0  0  0  0  0  0  0  0
  188.2110  177.4860  147.7250 C   0  0  0  0  0  0  0  0  0  0  0  0
  187.9660  177.8940  148.8920 O   0  0  0  0  0  1  0  0  0  0  0  0
  1 21  1  0  0  0  0
  2  1  1  0  0  0  0
  4  8  1  0  0  0  0
  4  5  1  0  0  0  0
  5  6  1  0  0  0  0
  6  3  1  0  0  0  0
  6  2  1  1  0  0  0
  7  3  1  0  0  0  0
  8  7  1  0  0  0  0
  9 10  1  0  0  0  0
  9  8  1  0  0  0  0
 10 13  1  0  0  0  0
 11 14  1  0  0  0  0
 13 11  1  0  0  0  0
 13 12  2  0  0  0  0
 15 17  1  0  0  0  0
 16 14  1  6  0  0  0
 16 18  1  0  0  0  0
 16 15  1  0  0  0  0
 17 20  1  0  0  0  0
 18 19  1  0  0  0  0
 19 20  1  0  0  0  0
 21 22  1  6  0  0  0
 21 29  1  0  0  0  0
 23 22  1  6  0  0  0
 23 24  1  0  0  0  0
 24 28  1  0  0  0  0
 25 28  1  0  0  0  0
 27 23  1  0  0  0  0
 27 25  1  0  0  0  0
 28 26  1  1  0  0  0
 29 30  1  0  0  0  0
 30 31  1  0  0  0  0
 31 34  1  0  0  0  0
 32 35  1  0  0  0  0
 33 37  1  0  0  0  0
 34 33  2  0  0  0  0
 35 37  2  0  0  0  0
 35 39  1  0  0  0  0
 36 34  1  0  0  0  0
 36 32  2  0  0  0  0
 38 39  2  0  0  0  0
 39 40  1  0  0  0  0
M  END
>  <MODEL>
4

>  <REMARK>
 VINA RESULT:      -7.9      1.928      4.244
  Name = 
  14 active torsions:
  status: ('A' for Active; 'I' for Inactive)
    1  A    between atoms: N_1  and  C_21
    2  A    between atoms: N_1  and  C_25
    3  A    between atoms: C_3  and  N_12
    4  A    between atoms: C_3  and  N_38
    5  A    between atoms: C_4  and  C_7
    6  A    between atoms: C_4  and  N_17
    7  A    between atoms: C_6  and  C_9
    8  A    between atoms: C_6  and  C_25
    9  A    between atoms: C_14  and  C_31
   10  A    between atoms: N_16  and  C_23
   11  A    between atoms: N_16  and  C_36
   12  A    between atoms: C_21  and  C_22
   13  A    between atoms: C_25  and  N_34
   14  A    between atoms: N_34  and  C_36
                            x       y       z     vdW  Elec       q    Type
                         _______ _______ _______ _____ _____    ______ ____

>  <TORSDO>
F 14

$$$$
=
 OpenBabel10222415393D

 40 43  0  0  1  0  0  0  0  0999 V2000
  187.6820  177.8710  138.7690 N   0  0  0  0  0  2  0  0  0  0  0  0
  186.8060  177.3860  137.7170 C   0  0  0  0  0  2  0  0  0  0  0  0
  184.3430  177.1400  137.3350 C   0  0  0  0  0  2  0  0  0  0  0  0
  183.8180  179.1540  139.3170 C   0  0  0  0  0  2  0  0  0  0  0  0
  185.2060  178.5280  139.2250 C   0  0  0  0  0  2  0  0  0  0  0  0
  185.4590  178.0790  137.7920 C   0  0  1  0  0  3  0  0  0  0  0  0
  182.9880  177.8200  137.5310 C   0  0  0  0  0  2  0  0  0  0  0  0
  182.7970  178.1730  138.9410 N   0  0  0  0  0  0  0  0  0  0  0  0
  181.5170  178.8540  139.0300 C   0  0  0  0  0  2  0  0  0  0  0  0
  180.6190  178.0970  139.8880 N   0  0  0  0  0  2  0  0  0  0  0  0
  181.6800  178.9870  141.9420 N   0  0  0  0  0  2  0  0  0  0  0  0
  179.7590  177.6040  142.0160 N   0  0  0  0  0  2  0  0  0  0  0  0
  180.6370  178.2360  141.3070 C   0  0  0  0  0  0  0  0  0  0  0  0
  181.8360  179.0800  143.3880 C   0  0  0  0  0  2  0  0  0  0  0  0
  184.1150  178.3480  142.9180 N   0  0  0  0  0  2  0  0  0  0  0  0
  183.3050  179.2250  143.7660 C   0  0  2  0  0  3  0  0  0  0  0  0
  185.5200  178.5270  143.2870 C   0  0  0  0  0  2  0  0  0  0  0  0
  183.5110  178.8700  145.2390 C   0  0  0  0  0  2  0  0  0  0  0  0
  185.0030  178.9200  145.5630 C   0  0  0  0  0  2  0  0  0  0  0  0
  185.7410  178.0470  144.6510 N   0  0  0  0  0  2  0  0  0  0  0  0
  189.0230  177.9370  138.2060 C   0  0  2  0  0  3  0  0  0  0  0  0
  189.2920  176.7010  137.3610 C   0  0  0  0  0  2  0  0  0  0  0  0
  190.7130  176.1930  137.5620 C   0  0  2  0  0  3  0  0  0  0  0  0
  191.4250  176.0520  136.2420 C   0  0  0  0  0  2  0  0  0  0  0  0
  191.7970  174.1760  137.6570 N   0  0  0  0  0  2  0  0  0  0  0  0
  193.5190  174.7570  136.0450 C   0  0  0  0  0  1  0  0  0  0  0  0
  190.6810  174.8690  138.1580 N   0  0  0  0  0  2  0  0  0  0  0  0
  192.0300  174.6760  136.3110 C   0  0  2  0  0  3  0  0  0  0  0  0
  189.9940  178.0000  139.2900 N   0  0  0  0  0  2  0  0  0  0  0  0
  189.3320  177.5810  140.5190 C   0  0  0  0  0  2  0  0  0  0  0  0
  190.2240  176.7570  141.3290 N   0  0  0  0  0  2  0  0  0  0  0  0
  191.5920  176.4640  144.7840 C   0  0  0  0  0  3  0  0  0  0  0  0
  189.2520  177.3330  143.5290 C   0  0  0  0  0  3  0  0  0  0  0  0
  190.3100  176.8260  142.7570 C   0  0  0  0  0  0  0  0  0  0  0  0
  190.5350  176.9680  145.5570 C   0  0  0  0  0  0  0  0  0  0  0  0
  191.4790  176.3950  143.3930 C   0  0  0  0  0  3  0  0  0  0  0  0
  189.3650  177.4030  144.9180 C   0  0  0  0  0  3  0  0  0  0  0  0
  189.5540  177.3680  147.8060 O   0  0  0  0  0  1  0  0  0  0  0  0
  190.6560  177.0360  147.0240 C   0  0  0  0  0  0  0  0  0  0  0  0
  191.7590  176.7940  147.5850 O   0  0  0  0  0  0  0  0  0  0  0  0
  2  1  1  0  0  0  0
  3  7  1  0  0  0  0
  3  6  1  0  0  0  0
  5  4  1  0  0  0  0
  6  2  1  1  0  0  0
  6  5  1  0  0  0  0
  7  8  1  0  0  0  0
  8  9  1  0  0  0  0
  8  4  1  0  0  0  0
  9 10  1  0  0  0  0
 10 13  1  0  0  0  0
 11 14  1  0  0  0  0
 13 11  1  0  0  0  0
 13 12  2  0  0  0  0
 15 17  1  0  0  0  0
 15 16  1  0  0  0  0
 16 14  1  6  0  0  0
 16 18  1  0  0  0  0
 17 20  1  0  0  0  0
 18 19  1  0  0  0  0
 20 19  1  0  0  0  0
 21 22  1  1  0  0  0
 21  1  1  0  0  0  0
 21 29  1  0  0  0  0
 23 22  1  6  0  0  0
 23 27  1  0  0  0  0
 24 28  1  0  0  0  0
 24 23  1  0  0  0  0
 25 27  1  0  0  0  0
 28 26  1  1  0  0  0
 28 25  1  0  0  0  0
 29 30  1  0  0  0  0
 30 31  1  0  0  0  0
 31 34  1  0  0  0  0
 32 35  1  0  0  0  0
 33 37  1  0  0  0  0
 34 36  1  0  0  0  0
 34 33  2  0  0  0  0
 35 39  1  0  0  0  0
 36 32  2  0  0  0  0
 37 35  2  0  0  0  0
 39 40  2  0  0  0  0
 39 38  1  0  0  0  0
M  END
>  <MODEL>
5

>  <REMARK>
 VINA RESULT:      -7.8      2.117      8.595
  Name = 
  14 active torsions:
  status: ('A' for Active; 'I' for Inactive)
    1  A    between atoms: N_1  and  C_21
    2  A    between atoms: N_1  and  C_25
    3  A    between atoms: C_3  and  N_12
    4  A    between atoms: C_3  and  N_38
    5  A    between atoms: C_4  and  C_7
    6  A    between atoms: C_4  and  N_17
    7  A    between atoms: C_6  and  C_9
    8  A    between atoms: C_6  and  C_25
    9  A    between atoms: C_14  and  C_31
   10  A    between atoms: N_16  and  C_23
   11  A    between atoms: N_16  and  C_36
   12  A    between atoms: C_21  and  C_22
   13  A    between atoms: C_25  and  N_34
   14  A    between atoms: N_34  and  C_36
                            x       y       z     vdW  Elec       q    Type
                         _______ _______ _______ _____ _____    ______ ____

>  <TORSDO>
F 14

$$$$
=
 OpenBabel10222415393D

 40 43  0  0  1  0  0  0  0  0999 V2000
  188.1380  178.1760  144.9650 N   0  0  0  0  0  2  0  0  0  0  0  0
  187.6710  176.9570  144.3270 C   0  0  0  0  0  2  0  0  0  0  0  0
  188.2030  177.9990  142.1130 C   0  0  0  0  0  2  0  0  0  0  0  0
  190.5610  176.3700  141.8930 C   0  0  0  0  0  2  0  0  0  0  0  0
  189.8460  176.4880  143.2360 C   0  0  0  0  0  2  0  0  0  0  0  0
  188.3670  176.7610  142.9940 C   0  0  1  0  0  3  0  0  0  0  0  0
  189.0100  177.8230  140.8260 C   0  0  0  0  0  2  0  0  0  0  0  0
  190.4270  177.6190  141.1400 N   0  0  0  0  0  0  0  0  0  0  0  0
  191.1090  177.4130  139.8730 C   0  0  0  0  0  2  0  0  0  0  0  0
  190.8690  176.0580  139.4030 N   0  0  0  0  0  2  0  0  0  0  0  0
  189.9750  176.8670  137.2400 N   0  0  0  0  0  2  0  0  0  0  0  0
  190.2910  174.5640  137.6880 N   0  0  0  0  0  2  0  0  0  0  0  0
  190.4050  175.7910  138.0820 C   0  0  0  0  0  0  0  0  0  0  0  0
  189.3810  176.6700  135.9240 C   0  0  0  0  0  2  0  0  0  0  0  0
  187.5470  177.6340  137.2110 N   0  0  0  0  0  2  0  0  0  0  0  0
  187.8870  176.9640  135.9540 C   0  0  2  0  0  3  0  0  0  0  0  0
  186.1130  177.9260  137.2000 C   0  0  0  0  0  2  0  0  0  0  0  0
  187.0870  175.6670  135.8180 C   0  0  0  0  0  2  0  0  0  0  0  0
  185.5990  175.9790  135.9580 C   0  0  0  0  0  2  0  0  0  0  0  0
  185.3520  176.6770  137.2190 N   0  0  0  0  0  2  0  0  0  0  0  0
  187.5390  178.2150  146.2910 C   0  0  2  0  0  3  0  0  0  0  0  0
  188.2830  177.2720  147.2240 C   0  0  0  0  0  2  0  0  0  0  0  0
  189.7870  177.3410  146.9950 C   0  0  2  0  0  3  0  0  0  0  0  0
  190.3620  175.9650  146.7820 C   0  0  0  0  0  2  0  0  0  0  0  0
  191.7000  177.2690  148.2560 N   0  0  0  0  0  2  0  0  0  0  0  0
  192.7940  175.5540  146.9260 C   0  0  0  0  0  1  0  0  0  0  0  0
  190.4380  177.8830  148.1760 N   0  0  0  0  0  2  0  0  0  0  0  0
  191.5500  175.9310  147.7050 C   0  0  2  0  0  3  0  0  0  0  0  0
  186.1450  177.8000  146.1990 N   0  0  0  0  0  2  0  0  0  0  0  0
  185.3100  178.9940  146.2520 C   0  0  0  0  0  2  0  0  0  0  0  0
  184.0500  178.7730  145.5500 N   0  0  0  0  0  2  0  0  0  0  0  0
  182.4410  178.8820  142.1890 C   0  0  0  0  0  3  0  0  0  0  0  0
  185.0140  178.9340  143.2780 C   0  0  0  0  0  3  0  0  0  0  0  0
  183.8990  178.8340  144.1270 C   0  0  0  0  0  0  0  0  0  0  0  0
  183.5530  178.9800  141.3400 C   0  0  0  0  0  0  0  0  0  0  0  0
  182.6140  178.8100  143.5740 C   0  0  0  0  0  3  0  0  0  0  0  0
  184.8400  179.0060  141.8950 C   0  0  0  0  0  3  0  0  0  0  0  0
  184.0420  180.0100  139.1310 O   0  0  0  0  0  0  0  0  0  0  0  0
  183.3660  179.0510  139.8790 C   0  0  0  0  0  0  0  0  0  0  0  0
  182.5940  178.2440  139.2950 O   0  0  0  0  0  1  0  0  0  0  0  0
  1 21  1  0  0  0  0
  2  1  1  0  0  0  0
  3  6  1  0  0  0  0
  4  5  1  0  0  0  0
  6  5  1  0  0  0  0
  6  2  1  1  0  0  0
  7  8  1  0  0  0  0
  7  3  1  0  0  0  0
  8  4  1  0  0  0  0
  9  8  1  0  0  0  0
 10  9  1  0  0  0  0
 11 13  1  0  0  0  0
 12 13  2  0  0  0  0
 13 10  1  0  0  0  0
 14 11  1  0  0  0  0
 16 14  1  1  0  0  0
 16 15  1  0  0  0  0
 17 15  1  0  0  0  0
 17 20  1  0  0  0  0
 18 16  1  0  0  0  0
 18 19  1  0  0  0  0
 19 20  1  0  0  0  0
 21 22  1  1  0  0  0
 23 22  1  1  0  0  0
 23 27  1  0  0  0  0
 24 23  1  0  0  0  0
 24 28  1  0  0  0  0
 27 25  1  0  0  0  0
 28 26  1  6  0  0  0
 28 25  1  0  0  0  0
 29 30  1  0  0  0  0
 29 21  1  0  0  0  0
 31 30  1  0  0  0  0
 32 36  1  0  0  0  0
 33 34  1  0  0  0  0
 34 31  1  0  0  0  0
 35 37  1  0  0  0  0
 35 32  2  0  0  0  0
 36 34  2  0  0  0  0
 37 33  2  0  0  0  0
 38 39  2  0  0  0  0
 39 35  1  0  0  0  0
 40 39  1  0  0  0  0
M  END
>  <MODEL>
6

>  <REMARK>
 VINA RESULT:      -7.6      3.103      6.644
  Name = 
  14 active torsions:
  status: ('A' for Active; 'I' for Inactive)
    1  A    between atoms: N_1  and  C_21
    2  A    between atoms: N_1  and  C_25
    3  A    between atoms: C_3  and  N_12
    4  A    between atoms: C_3  and  N_38
    5  A    between atoms: C_4  and  C_7
    6  A    between atoms: C_4  and  N_17
    7  A    between atoms: C_6  and  C_9
    8  A    between atoms: C_6  and  C_25
    9  A    between atoms: C_14  and  C_31
   10  A    between atoms: N_16  and  C_23
   11  A    between atoms: N_16  and  C_36
   12  A    between atoms: C_21  and  C_22
   13  A    between atoms: C_25  and  N_34
   14  A    between atoms: N_34  and  C_36
                            x       y       z     vdW  Elec       q    Type
                         _______ _______ _______ _____ _____    ______ ____

>  <TORSDO>
F 14

$$$$
=
 OpenBabel10222415393D

 40 43  0  0  1  0  0  0  0  0999 V2000
  184.8320  178.3010  141.3090 N   0  0  0  0  0  2  0  0  0  0  0  0
  185.2550  179.1710  142.3920 C   0  0  0  0  0  2  0  0  0  0  0  0
  186.9060  177.9020  143.7850 C   0  0  0  0  0  2  0  0  0  0  0  0
  185.3620  178.4530  146.1460 C   0  0  0  0  0  2  0  0  0  0  0  0
  185.0850  179.2320  144.8630 C   0  0  0  0  0  2  0  0  0  0  0  0
  185.4550  178.3690  143.6640 C   0  0  1  0  0  3  0  0  0  0  0  0
  187.1070  177.2000  145.1270 C   0  0  0  0  0  2  0  0  0  0  0  0
  186.7830  178.1090  146.2300 N   0  0  0  0  0  0  0  0  0  0  0  0
  186.9530  177.3530  147.4590 C   0  0  0  0  0  2  0  0  0  0  0  0
  187.9580  177.9930  148.2920 N   0  0  0  0  0  2  0  0  0  0  0  0
  189.8070  176.8540  147.1010 N   0  0  0  0  0  2  0  0  0  0  0  0
  190.2030  178.4840  148.7720 N   0  0  0  0  0  2  0  0  0  0  0  0
  189.3530  177.8230  148.0550 C   0  0  0  0  0  0  0  0  0  0  0  0
  191.2130  176.5370  146.8840 C   0  0  0  0  0  2  0  0  0  0  0  0
  191.2230  178.3180  145.2170 N   0  0  0  0  0  2  0  0  0  0  0  0
  191.6490  176.9420  145.4820 C   0  0  2  0  0  3  0  0  0  0  0  0
  191.6770  178.6860  143.8760 C   0  0  0  0  0  2  0  0  0  0  0  0
  191.0440  175.9960  144.4430 C   0  0  0  0  0  2  0  0  0  0  0  0
  191.4090  176.4870  143.0440 C   0  0  0  0  0  2  0  0  0  0  0  0
  190.9820  177.8760  142.8760 N   0  0  0  0  0  2  0  0  0  0  0  0
  183.7650  178.9940  140.6030 C   0  0  2  0  0  3  0  0  0  0  0  0
  182.5780  178.0610  140.4100 C   0  0  0  0  0  2  0  0  0  0  0  0
  181.3070  178.6540  141.0030 C   0  0  2  0  0  3  0  0  0  0  0  0
  181.4650  178.8930  142.4820 C   0  0  0  0  0  2  0  0  0  0  0  0
  179.3680  177.8960  141.9620 N   0  0  0  0  0  2  0  0  0  0  0  0
  179.5090  179.3140  143.9300 C   0  0  0  0  0  1  0  0  0  0  0  0
  180.2110  177.7130  140.8510 N   0  0  0  0  0  2  0  0  0  0  0  0
  180.2220  178.2880  143.0740 C   0  0  2  0  0  3  0  0  0  0  0  0
  184.2540  179.4250  139.3000 N   0  0  0  0  0  2  0  0  0  0  0  0
  184.9080  178.2880  138.6610 C   0  0  0  0  0  2  0  0  0  0  0  0
  186.1080  178.7180  137.9500 N   0  0  0  0  0  2  0  0  0  0  0  0
  189.1110  177.3540  139.6870 C   0  0  0  0  0  3  0  0  0  0  0  0
  188.2460  177.8360  137.0740 C   0  0  0  0  0  3  0  0  0  0  0  0
  187.4100  178.1580  138.1560 C   0  0  0  0  0  0  0  0  0  0  0  0
  189.9480  177.0340  138.6080 C   0  0  0  0  0  0  0  0  0  0  0  0
  187.8490  177.9120  139.4610 C   0  0  0  0  0  3  0  0  0  0  0  0
  189.5050  177.2780  137.3000 C   0  0  0  0  0  3  0  0  0  0  0  0
  192.2120  177.1240  139.6310 O   0  0  0  0  0  1  0  0  0  0  0  0
  191.2790  176.4490  138.8500 C   0  0  0  0  0  0  0  0  0  0  0  0
  191.5840  175.3320  138.3530 O   0  0  0  0  0  0  0  0  0  0  0  0
  1  2  1  0  0  0  0
  3  7  1  0  0  0  0
  4  8  1  0  0  0  0
  5  4  1  0  0  0  0
  6  2  1  6  0  0  0
  6  3  1  0  0  0  0
  6  5  1  0  0  0  0
  7  8  1  0  0  0  0
  8  9  1  0  0  0  0
  9 10  1  0  0  0  0
 11 13  1  0  0  0  0
 13 10  1  0  0  0  0
 13 12  2  0  0  0  0
 14 11  1  0  0  0  0
 15 16  1  0  0  0  0
 16 14  1  1  0  0  0
 17 15  1  0  0  0  0
 18 16  1  0  0  0  0
 19 18  1  0  0  0  0
 20 19  1  0  0  0  0
 20 17  1  0  0  0  0
 21 22  1  6  0  0  0
 21  1  1  0  0  0  0
 23 22  1  1  0  0  0
 23 24  1  0  0  0  0
 24 28  1  0  0  0  0
 25 28  1  0  0  0  0
 27 23  1  0  0  0  0
 27 25  1  0  0  0  0
 28 26  1  1  0  0  0
 29 21  1  0  0  0  0
 30 29  1  0  0  0  0
 31 34  1  0  0  0  0
 31 30  1  0  0  0  0
 33 37  2  0  0  0  0
 33 34  1  0  0  0  0
 34 36  2  0  0  0  0
 35 39  1  0  0  0  0
 35 32  2  0  0  0  0
 36 32  1  0  0  0  0
 37 35  1  0  0  0  0
 39 38  1  0  0  0  0
 40 39  2  0  0  0  0
M  END
>  <MODEL>
7

>  <REMARK>
 VINA RESULT:      -7.6      2.846      7.393
  Name = 
  14 active torsions:
  status: ('A' for Active; 'I' for Inactive)
    1  A    between atoms: N_1  and  C_21
    2  A    between atoms: N_1  and  C_25
    3  A    between atoms: C_3  and  N_12
    4  A    between atoms: C_3  and  N_38
    5  A    between atoms: C_4  and  C_7
    6  A    between atoms: C_4  and  N_17
    7  A    between atoms: C_6  and  C_9
    8  A    between atoms: C_6  and  C_25
    9  A    between atoms: C_14  and  C_31
   10  A    between atoms: N_16  and  C_23
   11  A    between atoms: N_16  and  C_36
   12  A    between atoms: C_21  and  C_22
   13  A    between atoms: C_25  and  N_34
   14  A    between atoms: N_34  and  C_36
                            x       y       z     vdW  Elec       q    Type
                         _______ _______ _______ _____ _____    ______ ____

>  <TORSDO>
F 14

$$$$
=
 OpenBabel10222415393D

 40 43  0  0  1  0  0  0  0  0999 V2000
  185.3690  178.6320  138.7290 N   0  0  0  0  0  2  0  0  0  0  0  0
  184.9320  177.8230  137.6040 C   0  0  0  0  0  2  0  0  0  0  0  0
  187.2800  178.4470  136.9970 C   0  0  0  0  0  2  0  0  0  0  0  0
  187.7400  175.7960  135.9870 C   0  0  0  0  0  2  0  0  0  0  0  0
  186.5150  176.0720  136.8530 C   0  0  0  0  0  2  0  0  0  0  0  0
  186.1000  177.5270  136.6840 C   0  0  1  0  0  3  0  0  0  0  0  0
  188.4810  178.0500  136.1380 C   0  0  0  0  0  2  0  0  0  0  0  0
  188.8520  176.6570  136.3970 N   0  0  0  0  0  0  0  0  0  0  0  0
  189.9620  176.3490  135.5100 C   0  0  0  0  0  2  0  0  0  0  0  0
  190.8070  175.3340  136.1190 N   0  0  0  0  0  2  0  0  0  0  0  0
  191.1560  176.7100  138.1490 N   0  0  0  0  0  2  0  0  0  0  0  0
  191.9860  174.5000  137.9690 N   0  0  0  0  0  2  0  0  0  0  0  0
  191.3110  175.4710  137.4450 C   0  0  0  0  0  0  0  0  0  0  0  0
  191.7410  176.9690  139.4580 C   0  0  0  0  0  2  0  0  0  0  0  0
  189.6600  178.0480  140.1310 N   0  0  0  0  0  2  0  0  0  0  0  0
  190.6600  177.0550  140.5280 C   0  0  2  0  0  3  0  0  0  0  0  0
  188.6240  178.0900  141.1640 C   0  0  0  0  0  2  0  0  0  0  0  0
  191.2750  177.4370  141.8750 C   0  0  0  0  0  2  0  0  0  0  0  0
  190.1590  177.6200  142.9020 C   0  0  0  0  0  2  0  0  0  0  0  0
  189.1880  178.5990  142.4130 N   0  0  0  0  0  2  0  0  0  0  0  0
  184.2520  178.7010  139.6590 C   0  0  2  0  0  3  0  0  0  0  0  0
  183.1610  179.5990  139.0950 C   0  0  0  0  0  2  0  0  0  0  0  0
  181.7780  179.0160  139.3500 C   0  0  2  0  0  3  0  0  0  0  0  0
  181.1610  179.6200  140.5850 C   0  0  0  0  0  2  0  0  0  0  0  0
  180.8630  177.2600  140.5050 N   0  0  0  0  0  2  0  0  0  0  0  0
  179.1970  178.5890  141.6730 C   0  0  0  0  0  1  0  0  0  0  0  0
  181.8860  177.5890  139.5970 N   0  0  0  0  0  2  0  0  0  0  0  0
  180.6700  178.4250  141.3560 C   0  0  2  0  0  3  0  0  0  0  0  0
  184.7170  179.2470  140.9270 N   0  0  0  0  0  2  0  0  0  0  0  0
  184.7640  178.1620  141.9000 C   0  0  0  0  0  2  0  0  0  0  0  0
  184.5230  178.6700  143.2480 N   0  0  0  0  0  2  0  0  0  0  0  0
  187.3190  177.2890  145.2900 C   0  0  0  0  0  3  0  0  0  0  0  0
  185.1340  178.9990  145.6210 C   0  0  0  0  0  3  0  0  0  0  0  0
  185.3720  178.4060  144.3710 C   0  0  0  0  0  0  0  0  0  0  0  0
  187.0820  177.8780  146.5400 C   0  0  0  0  0  0  0  0  0  0  0  0
  186.4690  177.5520  144.2120 C   0  0  0  0  0  3  0  0  0  0  0  0
  185.9830  178.7360  146.6970 C   0  0  0  0  0  3  0  0  0  0  0  0
  187.9560  178.4050  148.8080 O   0  0  0  0  0  1  0  0  0  0  0  0
  187.9780  177.5960  147.6760 C   0  0  0  0  0  0  0  0  0  0  0  0
  188.7720  176.6180  147.6330 O   0  0  0  0  0  0  0  0  0  0  0  0
  1 21  1  0  0  0  0
  2  1  1  0  0  0  0
  4  8  1  0  0  0  0
  4  5  1  0  0  0  0
  6  5  1  0  0  0  0
  6  3  1  0  0  0  0
  6  2  1  1  0  0  0
  7  8  1  0  0  0  0
  7  3  1  0  0  0  0
  9 10  1  0  0  0  0
  9  8  1  0  0  0  0
 10 13  1  0  0  0  0
 11 14  1  0  0  0  0
 13 12  2  0  0  0  0
 13 11  1  0  0  0  0
 15 16  1  0  0  0  0
 15 17  1  0  0  0  0
 16 14  1  6  0  0  0
 16 18  1  0  0  0  0
 17 20  1  0  0  0  0
 18 19  1  0  0  0  0
 20 19  1  0  0  0  0
 21 22  1  6  0  0  0
 21 29  1  0  0  0  0
 23 22  1  1  0  0  0
 23 27  1  0  0  0  0
 23 24  1  0  0  0  0
 24 28  1  0  0  0  0
 25 28  1  0  0  0  0
 27 25  1  0  0  0  0
 28 26  1  6  0  0  0
 29 30  1  0  0  0  0
 30 31  1  0  0  0  0
 31 34  1  0  0  0  0
 32 35  1  0  0  0  0
 33 37  1  0  0  0  0
 34 33  2  0  0  0  0
 35 37  2  0  0  0  0
 35 39  1  0  0  0  0
 36 34  1  0  0  0  0
 36 32  2  0  0  0  0
 39 38  1  0  0  0  0
 40 39  2  0  0  0  0
M  END
>  <MODEL>
8

>  <REMARK>
 VINA RESULT:      -7.5      2.062      4.574
  Name = 
  14 active torsions:
  status: ('A' for Active; 'I' for Inactive)
    1  A    between atoms: N_1  and  C_21
    2  A    between atoms: N_1  and  C_25
    3  A    between atoms: C_3  and  N_12
    4  A    between atoms: C_3  and  N_38
    5  A    between atoms: C_4  and  C_7
    6  A    between atoms: C_4  and  N_17
    7  A    between atoms: C_6  and  C_9
    8  A    between atoms: C_6  and  C_25
    9  A    between atoms: C_14  and  C_31
   10  A    between atoms: N_16  and  C_23
   11  A    between atoms: N_16  and  C_36
   12  A    between atoms: C_21  and  C_22
   13  A    between atoms: C_25  and  N_34
   14  A    between atoms: N_34  and  C_36
                            x       y       z     vdW  Elec       q    Type
                         _______ _______ _______ _____ _____    ______ ____

>  <TORSDO>
F 14

$$$$
=
 OpenBabel10222415393D

 40 43  0  0  1  0  0  0  0  0999 V2000
  186.4040  178.2910  142.8140 N   0  0  0  0  0  2  0  0  0  0  0  0
  186.3110  178.9490  141.5220 C   0  0  0  0  0  2  0  0  0  0  0  0
  188.4030  177.5830  141.3530 C   0  0  0  0  0  2  0  0  0  0  0  0
  188.4010  177.9020  138.4970 C   0  0  0  0  0  2  0  0  0  0  0  0
  187.1500  178.2520  139.2980 C   0  0  0  0  0  2  0  0  0  0  0  0
  187.5570  178.6770  140.7020 C   0  0  1  0  0  3  0  0  0  0  0  0
  189.5890  177.2460  140.4500 C   0  0  0  0  0  2  0  0  0  0  0  0
  189.1160  176.7960  139.1380 N   0  0  0  0  0  0  0  0  0  0  0  0
  190.2990  176.5460  138.3310 C   0  0  0  0  0  2  0  0  0  0  0  0
  191.4930  176.7700  139.1300 N   0  0  0  0  0  2  0  0  0  0  0  0
  192.9820  176.1800  137.2420 N   0  0  0  0  0  2  0  0  0  0  0  0
  193.8240  176.9790  139.3050 N   0  0  0  0  0  2  0  0  0  0  0  0
  192.8010  176.6840  138.5710 C   0  0  0  0  0  0  0  0  0  0  0  0
  194.2900  175.9520  136.6400 C   0  0  0  0  0  2  0  0  0  0  0  0
  193.2340  174.1510  135.3770 N   0  0  0  0  0  2  0  0  0  0  0  0
  194.4200  174.5130  136.1560 C   0  0  2  0  0  3  0  0  0  0  0  0
  193.4000  172.7750  134.9060 C   0  0  0  0  0  2  0  0  0  0  0  0
  194.5760  173.5650  137.3470 C   0  0  0  0  0  2  0  0  0  0  0  0
  194.5970  172.1240  136.8410 C   0  0  0  0  0  2  0  0  0  0  0  0
  193.4000  171.8580  136.0450 N   0  0  0  0  0  2  0  0  0  0  0  0
  185.1080  178.4430  143.4590 C   0  0  2  0  0  3  0  0  0  0  0  0
  184.1450  179.1630  142.5260 C   0  0  0  0  0  2  0  0  0  0  0  0
  182.7310  178.6130  142.6610 C   0  0  2  0  0  3  0  0  0  0  0  0
  182.0450  178.5630  141.3210 C   0  0  0  0  0  2  0  0  0  0  0  0
  180.6200  179.4310  143.0170 N   0  0  0  0  0  2  0  0  0  0  0  0
  179.5980  178.2700  141.1430 C   0  0  0  0  0  1  0  0  0  0  0  0
  181.9390  179.4990  143.4980 N   0  0  0  0  0  2  0  0  0  0  0  0
  180.7090  179.2020  141.5830 C   0  0  2  0  0  3  0  0  0  0  0  0
  185.2690  179.2230  144.6790 N   0  0  0  0  0  2  0  0  0  0  0  0
  184.9330  178.3690  145.8120 C   0  0  0  0  0  2  0  0  0  0  0  0
  185.8750  178.5740  146.9090 N   0  0  0  0  0  2  0  0  0  0  0  0
  189.3180  177.7710  148.0890 C   0  0  0  0  0  3  0  0  0  0  0  0
  187.8080  177.5620  145.7470 C   0  0  0  0  0  3  0  0  0  0  0  0
  187.2330  178.1200  146.9000 C   0  0  0  0  0  0  0  0  0  0  0  0
  189.8950  177.2160  146.9380 C   0  0  0  0  0  0  0  0  0  0  0  0
  187.9940  178.2200  148.0690 C   0  0  0  0  0  3  0  0  0  0  0  0
  189.1300  177.1140  145.7670 C   0  0  0  0  0  3  0  0  0  0  0  0
  192.0870  176.9590  148.0840 O   0  0  0  0  0  1  0  0  0  0  0  0
  191.2930  176.7470  146.9610 C   0  0  0  0  0  0  0  0  0  0  0  0
  191.7810  176.1500  145.9650 O   0  0  0  0  0  0  0  0  0  0  0  0
  1 21  1  0  0  0  0
  2  1  1  0  0  0  0
  4  8  1  0  0  0  0
  4  5  1  0  0  0  0
  5  6  1  0  0  0  0
  6  3  1  0  0  0  0
  6  2  1  1  0  0  0
  7  3  1  0  0  0  0
  8  7  1  0  0  0  0
  9 10  1  0  0  0  0
  9  8  1  0  0  0  0
 11 13  1  0  0  0  0
 13 10  1  0  0  0  0
 13 12  2  0  0  0  0
 14 11  1  0  0  0  0
 15 16  1  0  0  0  0
 16 14  1  1  0  0  0
 16 18  1  0  0  0  0
 17 15  1  0  0  0  0
 17 20  1  0  0  0  0
 19 18  1  0  0  0  0
 20 19  1  0  0  0  0
 21 22  1  6  0  0  0
 21 29  1  0  0  0  0
 23 22  1  6  0  0  0
 23 27  1  0  0  0  0
 24 28  1  0  0  0  0
 24 23  1  0  0  0  0
 25 27  1  0  0  0  0
 28 26  1  1  0  0  0
 28 25  1  0  0  0  0
 29 30  1  0  0  0  0
 30 31  1  0  0  0  0
 33 37  2  0  0  0  0
 33 34  1  0  0  0  0
 34 31  1  0  0  0  0
 34 36  2  0  0  0  0
 35 39  1  0  0  0  0
 35 32  2  0  0  0  0
 36 32  1  0  0  0  0
 37 35  1  0  0  0  0
 39 38  1  0  0  0  0
 40 39  2  0  0  0  0
M  END
>  <MODEL>
9

>  <REMARK>
 VINA RESULT:      -7.5      2.273      3.535
  Name = 
  14 active torsions:
  status: ('A' for Active; 'I' for Inactive)
    1  A    between atoms: N_1  and  C_21
    2  A    between atoms: N_1  and  C_25
    3  A    between atoms: C_3  and  N_12
    4  A    between atoms: C_3  and  N_38
    5  A    between atoms: C_4  and  C_7
    6  A    between atoms: C_4  and  N_17
    7  A    between atoms: C_6  and  C_9
    8  A    between atoms: C_6  and  C_25
    9  A    between atoms: C_14  and  C_31
   10  A    between atoms: N_16  and  C_23
   11  A    between atoms: N_16  and  C_36
   12  A    between atoms: C_21  and  C_22
   13  A    between atoms: C_25  and  N_34
   14  A    between atoms: N_34  and  C_36
                            x       y       z     vdW  Elec       q    Type
                         _______ _______ _______ _____ _____    ______ ____

>  <TORSDO>
F 14

$$$$
