=
 OpenBabel10222418273D

 26 29  0  0  0  0  0  0  0  0999 V2000
  188.2500  177.3570  145.5140 C   0  0  0  0  0  0  0  0  0  0  0  0
  184.1590  178.7510  144.6420 C   0  0  0  0  0  0  0  0  0  0  0  0
  185.1060  178.2110  143.8300 N   0  0  0  0  0  0  0  0  0  0  0  0
  189.4990  176.8700  145.5430 N   0  0  0  0  0  0  0  0  0  0  0  0
  189.8480  177.0120  146.8500 C   0  0  0  0  0  0  0  0  0  0  0  0
  186.1230  178.0060  144.6840 C   0  0  0  0  0  0  0  0  0  0  0  0
  187.8810  177.7710  146.7750 C   0  0  0  0  0  0  0  0  0  0  0  0
  185.7640  178.4160  145.9480 C   0  0  0  0  0  0  0  0  0  0  0  0
  188.8840  177.5610  147.6380 N   0  0  0  0  0  2  0  0  0  0  0  0
  184.5430  178.8760  145.9020 O   0  0  0  0  0  0  0  0  0  0  0  0
  187.3880  177.4600  144.4090 C   0  0  0  0  0  0  0  0  0  0  0  0
  182.8160  179.1620  144.1550 C   0  0  0  0  0  1  0  0  0  0  0  0
  186.6210  178.3210  147.0530 C   0  0  0  0  0  3  0  0  0  0  0  0
  191.1560  176.6080  147.3730 C   0  0  0  0  0  0  0  0  0  0  0  0
  192.9870  176.4580  148.6280 N   0  0  0  0  0  0  0  0  0  0  0  0
  192.0520  175.5770  146.7810 C   0  0  0  0  0  3  0  0  0  0  0  0
  191.7340  177.1030  148.4540 C   0  0  0  0  0  2  0  0  0  0  0  0
  193.1760  175.6080  147.7040 N   0  0  0  0  0  0  0  0  0  0  0  0
  187.7750  176.9870  143.0480 C   0  0  0  0  0  2  0  0  0  0  0  0
  188.4970  178.0930  142.2990 C   0  0  0  0  0  2  0  0  0  0  0  0
  187.9140  178.2490  140.9070 C   0  0  0  0  0  2  0  0  0  0  0  0
  189.2290  178.1210  138.7600 C   0  0  0  0  0  0  0  0  0  0  0  0
  188.9960  179.3340  138.5100 O   0  0  0  0  0  0  0  0  0  0  0  0
  188.7180  177.5110  139.9450 N   0  0  0  0  0  2  0  0  0  0  0  0
  190.6490  176.7180  137.1070 N   0  0  0  0  0  0  0  0  0  0  0  0
  190.0150  177.3450  137.8450 C   0  0  0  0  0  0  0  0  0  0  0  0
  1  4  1  0  0  0  0
  1  7  1  0  0  0  0
  2 10  1  0  0  0  0
  3  2  2  0  0  0  0
  3  6  1  0  0  0  0
  4  5  2  0  0  0  0
  5 14  1  0  0  0  0
  5  9  1  0  0  0  0
  6  8  2  0  0  0  0
  7 13  2  0  0  0  0
  7  9  1  0  0  0  0
  8 13  1  0  0  0  0
 10  8  1  0  0  0  0
 11  6  1  0  0  0  0
 11  1  2  0  0  0  0
 12  2  1  0  0  0  0
 14 17  1  0  0  0  0
 16 14  2  0  0  0  0
 16 18  1  0  0  0  0
 17 15  1  0  0  0  0
 18 15  2  0  0  0  0
 19 11  1  0  0  0  0
 20 19  1  0  0  0  0
 21 20  1  0  0  0  0
 22 24  1  0  0  0  0
 23 22  2  0  0  0  0
 24 21  1  0  0  0  0
 25 26  3  0  0  0  0
 26 22  1  0  0  0  0
M  END
>  <MODEL>
1

>  <REMARK>
 VINA RESULT:      -8.6      0.000      0.000
  Name = 
  6 active torsions:
  status: ('A' for Active; 'I' for Inactive)
    1  A    between atoms: C_3  and  C_10
    2  A    between atoms: C_5  and  C_17
    3  A    between atoms: C_5  and  C_18
    4  A    between atoms: C_6  and  C_25
    5  A    between atoms: C_17  and  N_26
    6  A    between atoms: C_18  and  C_21
                            x       y       z     vdW  Elec       q    Type
                         _______ _______ _______ _____ _____    ______ ____

>  <TORSDO>
F 6

$$$$
=
 OpenBabel10222418273D

 26 29  0  0  0  0  0  0  0  0999 V2000
  188.2340  177.3340  142.4830 C   0  0  0  0  0  0  0  0  0  0  0  0
  190.6140  176.8890  138.7980 C   0  0  0  0  0  0  0  0  0  0  0  0
  190.8020  176.3790  140.0440 N   0  0  0  0  0  0  0  0  0  0  0  0
  187.6760  177.3180  143.7030 N   0  0  0  0  0  0  0  0  0  0  0  0
  186.5740  178.0980  143.5390 C   0  0  0  0  0  0  0  0  0  0  0  0
  189.7480  176.8790  140.7130 C   0  0  0  0  0  0  0  0  0  0  0  0
  187.4740  178.1050  141.6320 C   0  0  0  0  0  0  0  0  0  0  0  0
  188.9810  177.6510  139.8700 C   0  0  0  0  0  0  0  0  0  0  0  0
  186.4150  178.6000  142.2850 N   0  0  0  0  0  2  0  0  0  0  0  0
  189.5340  177.6460  138.6870 O   0  0  0  0  0  0  0  0  0  0  0  0
  189.4100  176.6900  142.0630 C   0  0  0  0  0  0  0  0  0  0  0  0
  191.5390  176.6190  137.6660 C   0  0  0  0  0  1  0  0  0  0  0  0
  187.8110  178.3010  140.2840 C   0  0  0  0  0  3  0  0  0  0  0  0
  185.6300  178.3790  144.6250 C   0  0  0  0  0  0  0  0  0  0  0  0
  184.7180  178.5960  146.6420 N   0  0  0  0  0  0  0  0  0  0  0  0
  184.2410  178.8890  144.4640 C   0  0  0  0  0  3  0  0  0  0  0  0
  185.8770  178.2180  145.9140 C   0  0  0  0  0  2  0  0  0  0  0  0
  183.8010  178.9700  145.8480 N   0  0  0  0  0  0  0  0  0  0  0  0
  190.2210  175.8320  142.9760 C   0  0  0  0  0  2  0  0  0  0  0  0
  191.4230  176.6070  143.4860 C   0  0  0  0  0  2  0  0  0  0  0  0
  191.6380  176.3290  144.9620 C   0  0  0  0  0  2  0  0  0  0  0  0
  190.6100  177.0950  147.1320 C   0  0  0  0  0  0  0  0  0  0  0  0
  191.6890  176.8920  147.7490 O   0  0  0  0  0  0  0  0  0  0  0  0
  190.5130  176.8350  145.7320 N   0  0  0  0  0  2  0  0  0  0  0  0
  188.5460  177.9940  148.4150 N   0  0  0  0  0  0  0  0  0  0  0  0
  189.4680  177.5930  147.8430 C   0  0  0  0  0  0  0  0  0  0  0  0
  1  4  1  0  0  0  0
  2  3  2  0  0  0  0
  3  6  1  0  0  0  0
  5  4  2  0  0  0  0
  5 14  1  0  0  0  0
  6 11  2  0  0  0  0
  7  9  1  0  0  0  0
  7  1  2  0  0  0  0
  8 13  2  0  0  0  0
  8  6  1  0  0  0  0
  9  5  1  0  0  0  0
 10  2  1  0  0  0  0
 10  8  1  0  0  0  0
 11  1  1  0  0  0  0
 11 19  1  0  0  0  0
 12  2  1  0  0  0  0
 13  7  1  0  0  0  0
 14 17  1  0  0  0  0
 16 14  2  0  0  0  0
 16 18  1  0  0  0  0
 17 15  1  0  0  0  0
 18 15  2  0  0  0  0
 19 20  1  0  0  0  0
 20 21  1  0  0  0  0
 21 24  1  0  0  0  0
 22 23  2  0  0  0  0
 22 26  1  0  0  0  0
 24 22  1  0  0  0  0
 26 25  3  0  0  0  0
M  END
>  <MODEL>
2

>  <REMARK>
 VINA RESULT:      -8.6      2.312      7.354
  Name = 
  6 active torsions:
  status: ('A' for Active; 'I' for Inactive)
    1  A    between atoms: C_3  and  C_10
    2  A    between atoms: C_5  and  C_17
    3  A    between atoms: C_5  and  C_18
    4  A    between atoms: C_6  and  C_25
    5  A    between atoms: C_17  and  N_26
    6  A    between atoms: C_18  and  C_21
                            x       y       z     vdW  Elec       q    Type
                         _______ _______ _______ _____ _____    ______ ____

>  <TORSDO>
F 6

$$$$
=
 OpenBabel10222418273D

 26 29  0  0  0  0  0  0  0  0999 V2000
  185.5500  178.0280  143.6050 C   0  0  0  0  0  0  0  0  0  0  0  0
  187.7150  178.0030  147.4460 C   0  0  0  0  0  0  0  0  0  0  0  0
  188.0420  177.4710  146.2380 N   0  0  0  0  0  0  0  0  0  0  0  0
  185.0880  177.9160  142.3500 N   0  0  0  0  0  0  0  0  0  0  0  0
  183.8990  178.5730  142.4080 C   0  0  0  0  0  0  0  0  0  0  0  0
  186.9810  177.8120  145.4860 C   0  0  0  0  0  0  0  0  0  0  0  0
  184.6520  178.7340  144.3720 C   0  0  0  0  0  0  0  0  0  0  0  0
  186.0770  178.5190  146.2450 C   0  0  0  0  0  0  0  0  0  0  0  0
  183.5950  179.0890  143.6300 N   0  0  0  0  0  2  0  0  0  0  0  0
  186.5480  178.6270  147.4570 O   0  0  0  0  0  0  0  0  0  0  0  0
  186.7550  177.5300  144.1290 C   0  0  0  0  0  0  0  0  0  0  0  0
  188.5900  177.8910  148.6420 C   0  0  0  0  0  1  0  0  0  0  0  0
  184.8710  179.0140  145.7300 C   0  0  0  0  0  3  0  0  0  0  0  0
  183.0120  178.7170  141.2500 C   0  0  0  0  0  0  0  0  0  0  0  0
  181.2010  178.8280  139.9640 N   0  0  0  0  0  0  0  0  0  0  0  0
  183.4430  178.9790  139.8490 C   0  0  0  0  0  3  0  0  0  0  0  0
  181.6940  178.6350  141.2810 C   0  0  0  0  0  2  0  0  0  0  0  0
  182.1630  179.0200  139.1580 N   0  0  0  0  0  0  0  0  0  0  0  0
  187.7440  176.7870  143.2920 C   0  0  0  0  0  2  0  0  0  0  0  0
  188.6590  177.7670  142.5780 C   0  0  0  0  0  2  0  0  0  0  0  0
  190.0650  177.2040  142.4940 C   0  0  0  0  0  2  0  0  0  0  0  0
  191.3000  177.4240  144.6800 C   0  0  0  0  0  0  0  0  0  0  0  0
  191.7130  178.5720  144.3660 O   0  0  0  0  0  0  0  0  0  0  0  0
  190.4690  176.6800  143.7890 N   0  0  0  0  0  2  0  0  0  0  0  0
  191.9670  176.3990  146.9660 N   0  0  0  0  0  0  0  0  0  0  0  0
  191.6690  176.8570  145.9460 C   0  0  0  0  0  0  0  0  0  0  0  0
  1 11  2  0  0  0  0
  1  7  1  0  0  0  0
  2 10  1  0  0  0  0
  2 12  1  0  0  0  0
  3  2  2  0  0  0  0
  4  5  2  0  0  0  0
  4  1  1  0  0  0  0
  5  9  1  0  0  0  0
  6  3  1  0  0  0  0
  6  8  2  0  0  0  0
  7 13  2  0  0  0  0
  8 10  1  0  0  0  0
  9  7  1  0  0  0  0
 11  6  1  0  0  0  0
 13  8  1  0  0  0  0
 14 17  1  0  0  0  0
 14  5  1  0  0  0  0
 15 17  1  0  0  0  0
 16 14  2  0  0  0  0
 18 16  1  0  0  0  0
 18 15  2  0  0  0  0
 19 11  1  0  0  0  0
 20 19  1  0  0  0  0
 21 20  1  0  0  0  0
 21 24  1  0  0  0  0
 22 26  1  0  0  0  0
 23 22  2  0  0  0  0
 24 22  1  0  0  0  0
 26 25  3  0  0  0  0
M  END
>  <MODEL>
3

>  <REMARK>
 VINA RESULT:      -8.4      2.711      7.251
  Name = 
  6 active torsions:
  status: ('A' for Active; 'I' for Inactive)
    1  A    between atoms: C_3  and  C_10
    2  A    between atoms: C_5  and  C_17
    3  A    between atoms: C_5  and  C_18
    4  A    between atoms: C_6  and  C_25
    5  A    between atoms: C_17  and  N_26
    6  A    between atoms: C_18  and  C_21
                            x       y       z     vdW  Elec       q    Type
                         _______ _______ _______ _____ _____    ______ ____

>  <TORSDO>
F 6

$$$$
=
 OpenBabel10222418273D

 26 29  0  0  0  0  0  0  0  0999 V2000
  189.4850  177.5140  143.9720 C   0  0  0  0  0  0  0  0  0  0  0  0
  192.0510  176.0190  147.2310 C   0  0  0  0  0  0  0  0  0  0  0  0
  190.9340  176.7940  147.2630 N   0  0  0  0  0  0  0  0  0  0  0  0
  188.5690  178.0660  143.1620 N   0  0  0  0  0  0  0  0  0  0  0  0
  188.9840  177.6700  141.9280 C   0  0  0  0  0  0  0  0  0  0  0  0
  190.6280  176.8980  145.9580 C   0  0  0  0  0  0  0  0  0  0  0  0
  190.4080  176.8140  143.2270 C   0  0  0  0  0  0  0  0  0  0  0  0
  191.5450  176.2010  145.2050 C   0  0  0  0  0  0  0  0  0  0  0  0
  190.1060  176.9020  141.9250 N   0  0  0  0  0  2  0  0  0  0  0  0
  192.4200  175.6630  146.0110 O   0  0  0  0  0  0  0  0  0  0  0  0
  189.5560  177.5920  145.3730 C   0  0  0  0  0  0  0  0  0  0  0  0
  192.7870  175.6110  148.4560 C   0  0  0  0  0  1  0  0  0  0  0  0
  191.4830  176.1240  143.8070 C   0  0  0  0  0  3  0  0  0  0  0  0
  188.2790  178.0400  140.6960 C   0  0  0  0  0  0  0  0  0  0  0  0
  187.8210  178.4910  138.5670 N   0  0  0  0  0  0  0  0  0  0  0  0
  186.8430  178.4150  140.5910 C   0  0  0  0  0  2  0  0  0  0  0  0
  188.8220  178.0950  139.4920 C   0  0  0  0  0  3  0  0  0  0  0  0
  186.7160  178.6720  139.1650 N   0  0  0  0  0  0  0  0  0  0  0  0
  188.5420  178.3270  146.1850 C   0  0  0  0  0  2  0  0  0  0  0  0
  187.2890  177.4820  146.3390 C   0  0  0  0  0  2  0  0  0  0  0  0
  186.0530  178.3530  146.2210 C   0  0  0  0  0  2  0  0  0  0  0  0
  184.2280  178.7390  144.5260 C   0  0  0  0  0  0  0  0  0  0  0  0
  183.4410  179.1470  145.4210 O   0  0  0  0  0  0  0  0  0  0  0  0
  185.5540  178.3250  144.8550 N   0  0  0  0  0  2  0  0  0  0  0  0
  183.4310  178.6470  142.0610 N   0  0  0  0  0  0  0  0  0  0  0  0
  183.7870  178.6890  143.1610 C   0  0  0  0  0  0  0  0  0  0  0  0
  1 11  1  0  0  0  0
  2  3  2  0  0  0  0
  2 12  1  0  0  0  0
  4  1  1  0  0  0  0
  5  4  2  0  0  0  0
  6  3  1  0  0  0  0
  7 13  1  0  0  0  0
  7  1  2  0  0  0  0
  8  6  1  0  0  0  0
  8 10  1  0  0  0  0
  9  5  1  0  0  0  0
  9  7  1  0  0  0  0
 10  2  1  0  0  0  0
 11  6  2  0  0  0  0
 11 19  1  0  0  0  0
 13  8  2  0  0  0  0
 14  5  1  0  0  0  0
 15 18  2  0  0  0  0
 15 17  1  0  0  0  0
 16 14  1  0  0  0  0
 17 14  2  0  0  0  0
 18 16  1  0  0  0  0
 19 20  1  0  0  0  0
 21 20  1  0  0  0  0
 22 24  1  0  0  0  0
 22 23  2  0  0  0  0
 24 21  1  0  0  0  0
 25 26  3  0  0  0  0
 26 22  1  0  0  0  0
M  END
>  <MODEL>
4

>  <REMARK>
 VINA RESULT:      -8.4      2.385      7.294
  Name = 
  6 active torsions:
  status: ('A' for Active; 'I' for Inactive)
    1  A    between atoms: C_3  and  C_10
    2  A    between atoms: C_5  and  C_17
    3  A    between atoms: C_5  and  C_18
    4  A    between atoms: C_6  and  C_25
    5  A    between atoms: C_17  and  N_26
    6  A    between atoms: C_18  and  C_21
                            x       y       z     vdW  Elec       q    Type
                         _______ _______ _______ _____ _____    ______ ____

>  <TORSDO>
F 6

$$$$
=
 OpenBabel10222418273D

 26 29  0  0  0  0  0  0  0  0999 V2000
  187.5880  177.4340  144.5500 C   0  0  0  0  0  0  0  0  0  0  0  0
  191.0250  176.7050  147.2130 C   0  0  0  0  0  0  0  0  0  0  0  0
  190.8740  176.4930  145.8780 N   0  0  0  0  0  0  0  0  0  0  0  0
  186.6910  177.5760  143.5620 N   0  0  0  0  0  0  0  0  0  0  0  0
  185.6150  178.1040  144.2060 C   0  0  0  0  0  0  0  0  0  0  0  0
  189.6130  176.9100  145.6700 C   0  0  0  0  0  0  0  0  0  0  0  0
  187.0460  177.8700  145.7390 C   0  0  0  0  0  0  0  0  0  0  0  0
  189.0630  177.3480  146.8530 C   0  0  0  0  0  0  0  0  0  0  0  0
  185.7930  178.2990  145.5410 N   0  0  0  0  0  2  0  0  0  0  0  0
  189.9530  177.2130  147.7980 O   0  0  0  0  0  0  0  0  0  0  0  0
  188.8960  176.9290  144.4630 C   0  0  0  0  0  0  0  0  0  0  0  0
  192.2820  176.3930  147.9440 C   0  0  0  0  0  1  0  0  0  0  0  0
  187.7570  177.8480  146.9480 C   0  0  0  0  0  3  0  0  0  0  0  0
  184.3630  178.4370  143.5210 C   0  0  0  0  0  0  0  0  0  0  0  0
  182.2770  179.0890  143.1110 N   0  0  0  0  0  0  0  0  0  0  0  0
  184.1130  178.3270  142.0580 C   0  0  0  0  0  3  0  0  0  0  0  0
  183.2670  178.8870  144.1070 C   0  0  0  0  0  2  0  0  0  0  0  0
  182.7340  178.7820  141.9670 N   0  0  0  0  0  0  0  0  0  0  0  0
  189.4950  176.4820  143.1710 C   0  0  0  0  0  2  0  0  0  0  0  0
  190.0140  177.6810  142.3960 C   0  0  0  0  0  2  0  0  0  0  0  0
  190.0120  177.3840  140.9080 C   0  0  0  0  0  2  0  0  0  0  0  0
  188.2850  178.3120  139.3240 C   0  0  0  0  0  0  0  0  0  0  0  0
  189.1390  179.0690  138.7900 O   0  0  0  0  0  0  0  0  0  0  0  0
  188.6540  177.4390  140.3920 N   0  0  0  0  0  2  0  0  0  0  0  0
  185.8360  178.3390  138.4770 N   0  0  0  0  0  0  0  0  0  0  0  0
  186.9290  178.3260  138.8560 C   0  0  0  0  0  0  0  0  0  0  0  0
  1  7  1  0  0  0  0
  2 10  1  0  0  0  0
  2 12  1  0  0  0  0
  3  2  2  0  0  0  0
  4  5  2  0  0  0  0
  4  1  1  0  0  0  0
  5  9  1  0  0  0  0
  6  3  1  0  0  0  0
  6  8  2  0  0  0  0
  7 13  2  0  0  0  0
  8 13  1  0  0  0  0
  8 10  1  0  0  0  0
  9  7  1  0  0  0  0
 11  1  2  0  0  0  0
 11  6  1  0  0  0  0
 14 17  1  0  0  0  0
 14  5  1  0  0  0  0
 15 17  1  0  0  0  0
 16 14  2  0  0  0  0
 18 16  1  0  0  0  0
 18 15  2  0  0  0  0
 19 11  1  0  0  0  0
 20 19  1  0  0  0  0
 21 20  1  0  0  0  0
 22 24  1  0  0  0  0
 23 22  2  0  0  0  0
 24 21  1  0  0  0  0
 25 26  3  0  0  0  0
 26 22  1  0  0  0  0
M  END
>  <MODEL>
5

>  <REMARK>
 VINA RESULT:      -8.3      2.074      6.012
  Name = 
  6 active torsions:
  status: ('A' for Active; 'I' for Inactive)
    1  A    between atoms: C_3  and  C_10
    2  A    between atoms: C_5  and  C_17
    3  A    between atoms: C_5  and  C_18
    4  A    between atoms: C_6  and  C_25
    5  A    between atoms: C_17  and  N_26
    6  A    between atoms: C_18  and  C_21
                            x       y       z     vdW  Elec       q    Type
                         _______ _______ _______ _____ _____    ______ ____

>  <TORSDO>
F 6

$$$$
=
 OpenBabel10222418273D

 26 29  0  0  0  0  0  0  0  0999 V2000
  187.6600  177.6420  145.5850 C   0  0  0  0  0  0  0  0  0  0  0  0
  183.5460  178.7960  144.4980 C   0  0  0  0  0  0  0  0  0  0  0  0
  184.5460  178.2610  143.7480 N   0  0  0  0  0  0  0  0  0  0  0  0
  188.9280  177.2160  145.6820 N   0  0  0  0  0  0  0  0  0  0  0  0
  189.2210  177.4400  146.9920 C   0  0  0  0  0  0  0  0  0  0  0  0
  185.5390  178.1470  144.6480 C   0  0  0  0  0  0  0  0  0  0  0  0
  187.2260  178.1010  146.8080 C   0  0  0  0  0  0  0  0  0  0  0  0
  185.1140  178.6030  145.8740 C   0  0  0  0  0  0  0  0  0  0  0  0
  188.2050  177.9820  147.7150 N   0  0  0  0  0  2  0  0  0  0  0  0
  183.8770  179.0030  145.7620 O   0  0  0  0  0  0  0  0  0  0  0  0
  186.8360  177.6480  144.4460 C   0  0  0  0  0  0  0  0  0  0  0  0
  182.2050  179.1190  143.9440 C   0  0  0  0  0  1  0  0  0  0  0  0
  185.9330  178.6050  147.0120 C   0  0  0  0  0  3  0  0  0  0  0  0
  190.5260  177.1250  147.5810 C   0  0  0  0  0  0  0  0  0  0  0  0
  192.4700  176.1430  148.0300 N   0  0  0  0  0  0  0  0  0  0  0  0
  191.2020  177.8890  148.6640 C   0  0  0  0  0  2  0  0  0  0  0  0
  191.2960  176.1090  147.2320 C   0  0  0  0  0  3  0  0  0  0  0  0
  192.4300  177.1280  148.8300 N   0  0  0  0  0  0  0  0  0  0  0  0
  187.2950  177.1250  143.1250 C   0  0  0  0  0  2  0  0  0  0  0  0
  187.8840  178.2530  142.2960 C   0  0  0  0  0  2  0  0  0  0  0  0
  189.0620  177.7460  141.4860 C   0  0  0  0  0  2  0  0  0  0  0  0
  190.9470  176.8690  142.9110 C   0  0  0  0  0  0  0  0  0  0  0  0
  191.4890  178.0060  142.9460 O   0  0  0  0  0  0  0  0  0  0  0  0
  189.7270  176.6660  142.1970 N   0  0  0  0  0  2  0  0  0  0  0  0
  192.0560  174.8780  144.1450 N   0  0  0  0  0  0  0  0  0  0  0  0
  191.5610  175.7670  143.5940 C   0  0  0  0  0  0  0  0  0  0  0  0
  1  4  1  0  0  0  0
  1  7  1  0  0  0  0
  2 10  1  0  0  0  0
  3  2  2  0  0  0  0
  3  6  1  0  0  0  0
  4  5  2  0  0  0  0
  5 14  1  0  0  0  0
  5  9  1  0  0  0  0
  6  8  2  0  0  0  0
  7 13  2  0  0  0  0
  7  9  1  0  0  0  0
  8 13  1  0  0  0  0
 10  8  1  0  0  0  0
 11  6  1  0  0  0  0
 11  1  2  0  0  0  0
 12  2  1  0  0  0  0
 14 16  1  0  0  0  0
 15 18  2  0  0  0  0
 16 18  1  0  0  0  0
 17 14  2  0  0  0  0
 17 15  1  0  0  0  0
 19 11  1  0  0  0  0
 20 19  1  0  0  0  0
 21 24  1  0  0  0  0
 21 20  1  0  0  0  0
 22 23  2  0  0  0  0
 22 26  1  0  0  0  0
 24 22  1  0  0  0  0
 26 25  3  0  0  0  0
M  END
>  <MODEL>
6

>  <REMARK>
 VINA RESULT:      -8.3      1.917      2.598
  Name = 
  6 active torsions:
  status: ('A' for Active; 'I' for Inactive)
    1  A    between atoms: C_3  and  C_10
    2  A    between atoms: C_5  and  C_17
    3  A    between atoms: C_5  and  C_18
    4  A    between atoms: C_6  and  C_25
    5  A    between atoms: C_17  and  N_26
    6  A    between atoms: C_18  and  C_21
                            x       y       z     vdW  Elec       q    Type
                         _______ _______ _______ _____ _____    ______ ____

>  <TORSDO>
F 6

$$$$
=
 OpenBabel10222418273D

 26 29  0  0  0  0  0  0  0  0999 V2000
  188.3060  177.5510  141.9320 C   0  0  0  0  0  0  0  0  0  0  0  0
  184.2660  178.7530  143.2250 C   0  0  0  0  0  0  0  0  0  0  0  0
  185.2380  178.0610  143.8760 N   0  0  0  0  0  0  0  0  0  0  0  0
  189.5550  177.0930  141.7650 N   0  0  0  0  0  0  0  0  0  0  0  0
  189.8570  177.4960  140.5010 C   0  0  0  0  0  0  0  0  0  0  0  0
  186.2160  178.0200  142.9550 C   0  0  0  0  0  0  0  0  0  0  0  0
  187.8920  178.2050  140.7930 C   0  0  0  0  0  0  0  0  0  0  0  0
  185.8120  178.6710  141.8120 C   0  0  0  0  0  0  0  0  0  0  0  0
  188.8640  178.1790  139.8710 N   0  0  0  0  0  2  0  0  0  0  0  0
  184.6000  179.1190  141.9980 O   0  0  0  0  0  0  0  0  0  0  0  0
  187.4840  177.4250  143.0640 C   0  0  0  0  0  0  0  0  0  0  0  0
  182.9490  179.0680  143.8380 C   0  0  0  0  0  1  0  0  0  0  0  0
  186.6250  178.7960  140.6770 C   0  0  0  0  0  3  0  0  0  0  0  0
  191.1470  177.2170  139.8630 C   0  0  0  0  0  0  0  0  0  0  0  0
  193.3300  177.0750  139.4630 N   0  0  0  0  0  0  0  0  0  0  0  0
  191.3440  176.5760  138.5340 C   0  0  0  0  0  3  0  0  0  0  0  0
  192.3310  177.4960  140.3800 C   0  0  0  0  0  2  0  0  0  0  0  0
  192.7950  176.5620  138.4330 N   0  0  0  0  0  0  0  0  0  0  0  0
  187.9400  176.7410  144.3100 C   0  0  0  0  0  2  0  0  0  0  0  0
  188.3100  177.7710  145.3630 C   0  0  0  0  0  2  0  0  0  0  0  0
  189.7720  178.1530  145.2300 C   0  0  0  0  0  2  0  0  0  0  0  0
  191.5150  176.4910  145.9760 C   0  0  0  0  0  0  0  0  0  0  0  0
  191.7200  176.1280  144.7870 O   0  0  0  0  0  0  0  0  0  0  0  0
  190.5520  177.5030  146.2710 N   0  0  0  0  0  2  0  0  0  0  0  0
  192.8520  175.3920  147.9040 N   0  0  0  0  0  0  0  0  0  0  0  0
  192.2550  175.8820  147.0430 C   0  0  0  0  0  0  0  0  0  0  0  0
  1 11  1  0  0  0  0
  2 12  1  0  0  0  0
  2  3  2  0  0  0  0
  4  1  1  0  0  0  0
  5  4  2  0  0  0  0
  6 11  2  0  0  0  0
  6  3  1  0  0  0  0
  7  1  2  0  0  0  0
  8 10  1  0  0  0  0
  8  6  1  0  0  0  0
  9  5  1  0  0  0  0
  9  7  1  0  0  0  0
 10  2  1  0  0  0  0
 11 19  1  0  0  0  0
 13  7  1  0  0  0  0
 13  8  2  0  0  0  0
 14 17  1  0  0  0  0
 14  5  1  0  0  0  0
 15 17  1  0  0  0  0
 16 14  2  0  0  0  0
 18 16  1  0  0  0  0
 18 15  2  0  0  0  0
 19 20  1  0  0  0  0
 21 20  1  0  0  0  0
 21 24  1  0  0  0  0
 22 24  1  0  0  0  0
 22 26  1  0  0  0  0
 23 22  2  0  0  0  0
 26 25  3  0  0  0  0
M  END
>  <MODEL>
7

>  <REMARK>
 VINA RESULT:      -8.2      2.335      6.254
  Name = 
  6 active torsions:
  status: ('A' for Active; 'I' for Inactive)
    1  A    between atoms: C_3  and  C_10
    2  A    between atoms: C_5  and  C_17
    3  A    between atoms: C_5  and  C_18
    4  A    between atoms: C_6  and  C_25
    5  A    between atoms: C_17  and  N_26
    6  A    between atoms: C_18  and  C_21
                            x       y       z     vdW  Elec       q    Type
                         _______ _______ _______ _____ _____    ______ ____

>  <TORSDO>
F 6

$$$$
=
 OpenBabel10222418273D

 26 29  0  0  0  0  0  0  0  0999 V2000
  188.5760  177.9030  142.0940 C   0  0  0  0  0  0  0  0  0  0  0  0
  187.7650  178.2050  137.7700 C   0  0  0  0  0  0  0  0  0  0  0  0
  187.0430  178.6290  138.8420 N   0  0  0  0  0  0  0  0  0  0  0  0
  188.6140  177.9370  143.4340 N   0  0  0  0  0  0  0  0  0  0  0  0
  189.7890  177.3140  143.7180 C   0  0  0  0  0  0  0  0  0  0  0  0
  187.8160  178.2390  139.8710 C   0  0  0  0  0  0  0  0  0  0  0  0
  189.7040  177.2770  141.6100 C   0  0  0  0  0  0  0  0  0  0  0  0
  188.9460  177.6130  139.3980 C   0  0  0  0  0  0  0  0  0  0  0  0
  190.4870  176.8950  142.6280 N   0  0  0  0  0  2  0  0  0  0  0  0
  188.8970  177.6000  138.0930 O   0  0  0  0  0  0  0  0  0  0  0  0
  187.5780  178.4090  141.2440 C   0  0  0  0  0  0  0  0  0  0  0  0
  187.3210  178.4040  136.3660 C   0  0  0  0  0  1  0  0  0  0  0  0
  189.9430  177.1010  140.2390 C   0  0  0  0  0  3  0  0  0  0  0  0
  190.2700  177.1080  145.0870 C   0  0  0  0  0  0  0  0  0  0  0  0
  190.3480  176.8910  147.2990 N   0  0  0  0  0  0  0  0  0  0  0  0
  191.6790  176.8400  145.4860 C   0  0  0  0  0  3  0  0  0  0  0  0
  189.5180  177.1310  146.1730 C   0  0  0  0  0  2  0  0  0  0  0  0
  191.5520  176.7280  146.9310 N   0  0  0  0  0  0  0  0  0  0  0  0
  186.3680  179.1120  141.7640 C   0  0  0  0  0  2  0  0  0  0  0  0
  185.2590  178.1100  142.0320 C   0  0  0  0  0  2  0  0  0  0  0  0
  184.5210  178.4730  143.3070 C   0  0  0  0  0  2  0  0  0  0  0  0
  185.0010  178.7060  145.7700 C   0  0  0  0  0  0  0  0  0  0  0  0
  183.7990  179.0020  146.0070 O   0  0  0  0  0  0  0  0  0  0  0  0
  185.4330  178.4270  144.4390 N   0  0  0  0  0  2  0  0  0  0  0  0
  186.7050  178.6020  147.7200 N   0  0  0  0  0  0  0  0  0  0  0  0
  185.9440  178.6480  146.8500 C   0  0  0  0  0  0  0  0  0  0  0  0
  1  4  1  0  0  0  0
  2 10  1  0  0  0  0
  2  3  2  0  0  0  0
  3  6  1  0  0  0  0
  4  5  2  0  0  0  0
  5 14  1  0  0  0  0
  6 11  1  0  0  0  0
  7  1  1  0  0  0  0
  7  9  1  0  0  0  0
  8  6  2  0  0  0  0
  8 13  1  0  0  0  0
  9  5  1  0  0  0  0
 10  8  1  0  0  0  0
 11 19  1  0  0  0  0
 11  1  2  0  0  0  0
 12  2  1  0  0  0  0
 13  7  2  0  0  0  0
 14 16  2  0  0  0  0
 14 17  1  0  0  0  0
 16 18  1  0  0  0  0
 17 15  1  0  0  0  0
 18 15  2  0  0  0  0
 19 20  1  0  0  0  0
 20 21  1  0  0  0  0
 21 24  1  0  0  0  0
 22 23  2  0  0  0  0
 22 26  1  0  0  0  0
 24 22  1  0  0  0  0
 26 25  3  0  0  0  0
M  END
>  <MODEL>
8

>  <REMARK>
 VINA RESULT:      -8.2      1.873      6.113
  Name = 
  6 active torsions:
  status: ('A' for Active; 'I' for Inactive)
    1  A    between atoms: C_3  and  C_10
    2  A    between atoms: C_5  and  C_17
    3  A    between atoms: C_5  and  C_18
    4  A    between atoms: C_6  and  C_25
    5  A    between atoms: C_17  and  N_26
    6  A    between atoms: C_18  and  C_21
                            x       y       z     vdW  Elec       q    Type
                         _______ _______ _______ _____ _____    ______ ____

>  <TORSDO>
F 6

$$$$
=
 OpenBabel10222418273D

 26 29  0  0  0  0  0  0  0  0999 V2000
  186.8810  177.8900  144.6960 C   0  0  0  0  0  0  0  0  0  0  0  0
  182.6640  178.9970  144.0360 C   0  0  0  0  0  0  0  0  0  0  0  0
  183.6340  178.6280  143.1580 N   0  0  0  0  0  0  0  0  0  0  0  0
  188.1680  177.5150  144.6550 N   0  0  0  0  0  0  0  0  0  0  0  0
  188.5350  177.5540  145.9640 C   0  0  0  0  0  0  0  0  0  0  0  0
  184.6860  178.4280  143.9710 C   0  0  0  0  0  0  0  0  0  0  0  0
  186.5080  178.1400  145.9990 C   0  0  0  0  0  0  0  0  0  0  0  0
  184.3240  178.6750  145.2750 C   0  0  0  0  0  0  0  0  0  0  0  0
  187.5470  177.9330  146.8190 N   0  0  0  0  0  2  0  0  0  0  0  0
  183.0670  179.0270  145.2960 O   0  0  0  0  0  0  0  0  0  0  0  0
  185.9860  178.0270  143.6210 C   0  0  0  0  0  0  0  0  0  0  0  0
  181.2790  179.3350  143.6160 C   0  0  0  0  0  1  0  0  0  0  0  0
  185.2120  178.5450  146.3510 C   0  0  0  0  0  3  0  0  0  0  0  0
  189.8860  177.2170  146.4220 C   0  0  0  0  0  0  0  0  0  0  0  0
  191.6500  176.8150  147.7150 N   0  0  0  0  0  0  0  0  0  0  0  0
  191.0390  176.8590  145.5510 C   0  0  0  0  0  3  0  0  0  0  0  0
  190.2790  177.1810  147.6840 C   0  0  0  0  0  2  0  0  0  0  0  0
  192.0850  176.6340  146.5360 N   0  0  0  0  0  0  0  0  0  0  0  0
  186.3790  177.7300  142.2120 C   0  0  0  0  0  2  0  0  0  0  0  0
  186.3550  179.0040  141.3860 C   0  0  0  0  0  2  0  0  0  0  0  0
  185.7490  178.7330  140.0230 C   0  0  0  0  0  2  0  0  0  0  0  0
  183.5200  179.3680  139.0310 C   0  0  0  0  0  0  0  0  0  0  0  0
  183.3280  178.1880  138.6340 O   0  0  0  0  0  0  0  0  0  0  0  0
  184.7130  179.7130  139.7350 N   0  0  0  0  0  2  0  0  0  0  0  0
  181.7350  181.1880  138.5650 N   0  0  0  0  0  0  0  0  0  0  0  0
  182.5320  180.3750  138.7730 C   0  0  0  0  0  0  0  0  0  0  0  0
  1  7  1  0  0  0  0
  2 10  1  0  0  0  0
  3  6  1  0  0  0  0
  3  2  2  0  0  0  0
  4  1  1  0  0  0  0
  4  5  2  0  0  0  0
  5 14  1  0  0  0  0
  5  9  1  0  0  0  0
  6  8  2  0  0  0  0
  7 13  2  0  0  0  0
  7  9  1  0  0  0  0
  8 10  1  0  0  0  0
  8 13  1  0  0  0  0
 11  6  1  0  0  0  0
 11  1  2  0  0  0  0
 12  2  1  0  0  0  0
 14 17  1  0  0  0  0
 16 14  2  0  0  0  0
 16 18  1  0  0  0  0
 17 15  1  0  0  0  0
 18 15  2  0  0  0  0
 19 11  1  0  0  0  0
 20 19  1  0  0  0  0
 21 20  1  0  0  0  0
 22 24  1  0  0  0  0
 23 22  2  0  0  0  0
 24 21  1  0  0  0  0
 25 26  3  0  0  0  0
 26 22  1  0  0  0  0
M  END
>  <MODEL>
9

>  <REMARK>
 VINA RESULT:      -8.1      2.746      3.524
  Name = 
  6 active torsions:
  status: ('A' for Active; 'I' for Inactive)
    1  A    between atoms: C_3  and  C_10
    2  A    between atoms: C_5  and  C_17
    3  A    between atoms: C_5  and  C_18
    4  A    between atoms: C_6  and  C_25
    5  A    between atoms: C_17  and  N_26
    6  A    between atoms: C_18  and  C_21
                            x       y       z     vdW  Elec       q    Type
                         _______ _______ _______ _____ _____    ______ ____

>  <TORSDO>
F 6

$$$$
