=
 OpenBabel10222419083D

 48 50  0  0  1  0  0  0  0  0999 V2000
  182.4440  178.2540  140.9900 C   0  0  0  0  0  3  0  0  0  0  0  0
  183.7110  178.6680  141.1540 C   0  0  0  0  0  0  0  0  0  0  0  0
  185.4340  178.6410  145.0930 C   0  0  0  0  0  0  0  0  0  0  0  0
  183.5000  178.8840  143.6460 C   0  0  0  0  0  3  0  0  0  0  0  0
  184.2990  178.6730  142.5120 C   0  0  0  0  0  0  0  0  0  0  0  0
  185.6710  178.4380  142.6840 C   0  0  0  0  0  3  0  0  0  0  0  0
  186.2340  178.4260  143.9630 C   0  0  0  0  0  3  0  0  0  0  0  0
  184.0630  178.8670  144.9240 C   0  0  0  0  0  3  0  0  0  0  0  0
  187.0040  177.6350  146.7810 N   0  0  0  0  0  2  0  0  0  0  0  0
  186.0240  178.6210  146.4420 C   0  0  0  0  0  0  0  0  0  0  0  0
  185.6710  179.4790  147.2980 O   0  0  0  0  0  0  0  0  0  0  0  0
  187.6030  177.5440  148.1050 C   0  0  0  0  0  2  0  0  0  0  0  0
  189.1190  177.4690  148.0000 C   0  0  0  0  0  2  0  0  0  0  0  0
  189.5960  177.9510  146.6370 C   0  0  0  0  0  2  0  0  0  0  0  0
  190.4620  176.9050  145.9480 C   0  0  2  0  0  3  0  0  0  0  0  0
  191.8070  177.2180  146.1290 O   0  0  0  0  0  1  0  0  0  0  0  0
  190.9920  177.2520  142.1060 C   0  0  0  0  0  0  0  0  0  0  0  0
  190.1540  176.8300  144.4880 C   0  0  0  0  0  0  0  0  0  0  0  0
  191.1530  177.2060  143.5290 N   0  0  0  0  0  2  0  0  0  0  0  0
  189.6800  176.9920  141.4480 C   0  0  0  0  0  1  0  0  0  0  0  0
  191.9830  177.5430  141.3870 O   0  0  0  0  0  0  0  0  0  0  0  0
  189.0190  176.4290  144.1220 O   0  0  0  0  0  0  0  0  0  0  0  0
  184.5100  179.1440  140.0600 N   0  0  0  0  0  2  0  0  0  0  0  0
  184.2150  180.2680  139.3640 O   0  0  0  0  0  1  0  0  0  0  0  0
  181.8140  178.0510  139.7180 N   0  0  0  0  0  0  0  0  0  0  0  0
  181.3270  175.6760  139.2740 C   0  0  0  0  0  1  0  0  0  0  0  0
  182.2100  176.8760  138.9480 C   0  0  1  0  0  3  0  0  0  0  0  0
  182.2300  177.1920  137.4430 C   0  0  0  0  0  2  0  0  0  0  0  0
  184.9640  174.7580  135.6530 N   0  0  0  0  0  2  0  0  0  0  0  0
  184.4740  176.2330  137.4110 C   0  0  2  0  0  3  0  0  0  0  0  0
  185.1810  175.0020  137.0240 N   0  0  0  0  0  2  0  0  0  0  0  0
  182.6160  175.1160  136.3330 C   0  0  0  0  0  2  0  0  0  0  0  0
  183.5870  174.2920  135.4810 C   0  0  0  0  0  2  0  0  0  0  0  0
  183.2080  176.4100  136.6690 N   0  0  0  0  0  0  0  0  0  0  0  0
  185.3820  177.4390  137.2170 C   0  0  0  0  0  2  0  0  0  0  0  0
  186.7090  177.0460  137.3970 O   0  0  0  0  0  0  0  0  0  0  0  0
  187.2010  177.8770  138.4020 C   0  0  0  0  0  2  0  0  0  0  0  0
  188.6840  178.1920  138.1800 C   0  0  2  0  0  3  0  0  0  0  0  0
  188.0700  179.7550  136.7650 O   0  0  0  0  0  1  0  0  0  0  0  0
  188.9310  179.5030  137.7310 O   0  0  0  0  0  0  0  0  0  0  0  0
  189.4880  177.1110  137.4480 C   0  0  0  0  0  2  0  0  0  0  0  0
  191.6450  176.3550  136.9380 C   0  0  0  0  0  2  0  0  0  0  0  0
  191.2800  175.5570  138.1030 C   0  0  1  0  0  3  0  0  0  0  0  0
  190.8360  176.9730  137.9990 N   0  0  0  0  0  0  0  0  0  0  0  0
  190.8930  173.7240  136.9290 C   0  0  0  0  0  1  0  0  0  0  0  0
  190.2690  174.6470  137.7690 O   0  0  0  0  0  0  0  0  0  0  0  0
  181.0960  179.1510  139.0700 C   0  0  0  0  0  2  0  0  0  0  0  0
  180.4800  180.0800  140.1030 C   0  0  0  0  0  1  0  0  0  0  0  0
  1  2  2  0  0  0  0
  2  5  1  0  0  0  0
  3 10  1  0  0  0  0
  4  8  2  0  0  0  0
  5  6  2  0  0  0  0
  5  4  1  0  0  0  0
  6  7  1  0  0  0  0
  7  3  2  0  0  0  0
  8  3  1  0  0  0  0
  9 12  1  0  0  0  0
 10  9  1  0  0  0  0
 10 11  2  0  0  0  0
 13 12  1  0  0  0  0
 14 13  1  0  0  0  0
 15 16  1  6  0  0  0
 15 14  1  0  0  0  0
 17 19  1  0  0  0  0
 18 15  1  0  0  0  0
 19 18  1  0  0  0  0
 20 17  1  0  0  0  0
 21 17  2  0  0  0  0
 22 18  2  0  0  0  0
 23  2  1  0  0  0  0
 24 23  1  0  0  0  0
 25  1  1  0  0  0  0
 27 26  1  6  0  0  0
 27 25  1  0  0  0  0
 28 27  1  0  0  0  0
 29 31  1  0  0  0  0
 30 35  1  6  0  0  0
 31 30  1  0  0  0  0
 32 34  1  0  0  0  0
 33 29  1  0  0  0  0
 33 32  1  0  0  0  0
 34 30  1  0  0  0  0
 34 28  1  0  0  0  0
 35 36  1  0  0  0  0
 36 37  1  0  0  0  0
 38 41  1  6  0  0  0
 38 37  1  0  0  0  0
 39 40  1  0  0  0  0
 40 38  1  0  0  0  0
 41 44  1  0  0  0  0
 42 44  1  0  0  0  0
 42 43  1  0  0  0  0
 43 46  1  6  0  0  0
 44 43  1  0  0  0  0
 45 46  1  0  0  0  0
 47 25  1  0  0  0  0
 47 48  1  0  0  0  0
M  END
>  <MODEL>
1

>  <REMARK>
 VINA RESULT:      -7.6      0.000      0.000
  Name = 
  21 active torsions:
  status: ('A' for Active; 'I' for Inactive)
    1  A    between atoms: C_1  and  C_23
    2  A    between atoms: C_1  and  C_35
    3  A    between atoms: C_2  and  N_22
    4  A    between atoms: C_2  and  C_23
    5  A    between atoms: C_3  and  N_15
    6  A    between atoms: C_5  and  N_15
    7  A    between atoms: C_6  and  C_25
    8  A    between atoms: C_7  and  N_15
    9  A    between atoms: C_7  and  C_36
   10  A    between atoms: C_8  and  C_16
   11  A    between atoms: C_8  and  N_29
   12  A    between atoms: O_12  and  C_16
   13  A    between atoms: C_13  and  C_38
   14  A    between atoms: C_16  and  C_19
   15  A    between atoms: N_18  and  C_32
   16  A    between atoms: C_19  and  O_31
   17  A    between atoms: C_24  and  C_35
   18  A    between atoms: C_26  and  C_32
   19  A    between atoms: C_27  and  O_41
   20  A    between atoms: O_31  and  C_38
   21  A    between atoms: C_36  and  N_48
                            x       y       z     vdW  Elec       q    Type
                         _______ _______ _______ _____ _____    ______ ____

>  <TORSDO>
F 21

$$$$
=
 OpenBabel10222419083D

 48 50  0  0  1  0  0  0  0  0999 V2000
  182.1930  178.1320  141.3630 C   0  0  0  0  0  3  0  0  0  0  0  0
  183.5190  178.3320  141.4330 C   0  0  0  0  0  0  0  0  0  0  0  0
  185.3820  178.6840  145.2920 C   0  0  0  0  0  0  0  0  0  0  0  0
  185.5090  178.0810  142.9430 C   0  0  0  0  0  3  0  0  0  0  0  0
  184.1640  178.4390  142.7610 C   0  0  0  0  0  0  0  0  0  0  0  0
  183.4380  178.9280  143.8570 C   0  0  0  0  0  3  0  0  0  0  0  0
  184.0410  179.0450  145.1120 C   0  0  0  0  0  3  0  0  0  0  0  0
  186.1120  178.2040  144.1970 C   0  0  0  0  0  3  0  0  0  0  0  0
  187.1830  178.0360  146.9240 N   0  0  0  0  0  2  0  0  0  0  0  0
  186.0230  178.8140  146.6110 C   0  0  0  0  0  0  0  0  0  0  0  0
  185.5550  179.6180  147.4640 O   0  0  0  0  0  0  0  0  0  0  0  0
  187.8450  178.0970  148.2200 C   0  0  0  0  0  2  0  0  0  0  0  0
  189.3270  177.7820  148.0760 C   0  0  0  0  0  2  0  0  0  0  0  0
  189.5390  176.5220  147.2480 C   0  0  0  0  0  2  0  0  0  0  0  0
  190.6830  176.6940  146.2560 C   0  0  2  0  0  3  0  0  0  0  0  0
  191.6330  177.5640  146.7850 O   0  0  0  0  0  1  0  0  0  0  0  0
  190.0090  176.8440  142.4240 C   0  0  0  0  0  0  0  0  0  0  0  0
  190.1860  177.2220  144.9500 C   0  0  0  0  0  0  0  0  0  0  0  0
  190.3670  176.4490  143.7540 N   0  0  0  0  0  2  0  0  0  0  0  0
  189.4710  178.2000  142.1170 C   0  0  0  0  0  1  0  0  0  0  0  0
  190.1720  176.0290  141.4790 O   0  0  0  0  0  0  0  0  0  0  0  0
  189.6080  178.3390  144.9220 O   0  0  0  0  0  0  0  0  0  0  0  0
  184.3350  178.4820  140.2610 N   0  0  0  0  0  2  0  0  0  0  0  0
  184.7650  179.6840  139.8090 O   0  0  0  0  0  1  0  0  0  0  0  0
  181.4760  177.8540  140.1530 N   0  0  0  0  0  0  0  0  0  0  0  0
  180.5330  180.1110  140.4510 C   0  0  0  0  0  1  0  0  0  0  0  0
  180.8290  178.9750  139.4780 C   0  0  1  0  0  3  0  0  0  0  0  0
  181.6640  179.4420  138.2740 C   0  0  0  0  0  2  0  0  0  0  0  0
  180.3020  177.5830  134.9150 N   0  0  0  0  0  2  0  0  0  0  0  0
  181.7880  177.5560  136.7310 C   0  0  2  0  0  3  0  0  0  0  0  0
  180.9280  176.7420  135.8550 N   0  0  0  0  0  2  0  0  0  0  0  0
  179.7620  178.8630  136.9570 C   0  0  0  0  0  2  0  0  0  0  0  0
  179.2630  178.3500  135.6020 C   0  0  0  0  0  2  0  0  0  0  0  0
  181.2230  178.8990  136.9790 N   0  0  0  0  0  0  0  0  0  0  0  0
  183.1840  177.6630  136.1360 C   0  0  0  0  0  2  0  0  0  0  0  0
  184.0960  177.0460  136.9950 O   0  0  0  0  0  0  0  0  0  0  0  0
  185.3370  177.1980  136.3780 C   0  0  0  0  0  2  0  0  0  0  0  0
  186.4600  177.2940  137.4160 C   0  0  2  0  0  3  0  0  0  0  0  0
  187.6410  178.5830  138.7440 O   0  0  0  0  0  1  0  0  0  0  0  0
  186.9280  178.6040  137.6360 O   0  0  0  0  0  0  0  0  0  0  0  0
  187.5660  176.2400  137.2920 C   0  0  0  0  0  2  0  0  0  0  0  0
  189.3190  175.3570  136.0140 C   0  0  0  0  0  2  0  0  0  0  0  0
  189.9250  176.5210  136.6490 C   0  0  1  0  0  3  0  0  0  0  0  0
  188.5030  176.5640  136.2160 N   0  0  0  0  0  0  0  0  0  0  0  0
  191.2850  175.6380  138.1530 C   0  0  0  0  0  1  0  0  0  0  0  0
  190.0640  176.3020  138.0260 O   0  0  0  0  0  0  0  0  0  0  0  0
  181.1030  176.4770  139.8200 C   0  0  0  0  0  2  0  0  0  0  0  0
  179.5970  176.3460  139.6660 C   0  0  0  0  0  1  0  0  0  0  0  0
  1  2  2  0  0  0  0
  2  5  1  0  0  0  0
  3 10  1  0  0  0  0
  4  8  1  0  0  0  0
  5  4  2  0  0  0  0
  5  6  1  0  0  0  0
  6  7  2  0  0  0  0
  7  3  1  0  0  0  0
  8  3  2  0  0  0  0
  9 12  1  0  0  0  0
 10  9  1  0  0  0  0
 10 11  2  0  0  0  0
 13 12  1  0  0  0  0
 14 13  1  0  0  0  0
 15 16  1  1  0  0  0
 15 14  1  0  0  0  0
 17 19  1  0  0  0  0
 18 15  1  0  0  0  0
 19 18  1  0  0  0  0
 20 17  1  0  0  0  0
 21 17  2  0  0  0  0
 22 18  2  0  0  0  0
 23  2  1  0  0  0  0
 24 23  1  0  0  0  0
 25  1  1  0  0  0  0
 27 25  1  0  0  0  0
 27 26  1  1  0  0  0
 28 27  1  0  0  0  0
 29 33  1  0  0  0  0
 29 31  1  0  0  0  0
 30 35  1  6  0  0  0
 30 34  1  0  0  0  0
 31 30  1  0  0  0  0
 32 34  1  0  0  0  0
 33 32  1  0  0  0  0
 34 28  1  0  0  0  0
 35 36  1  0  0  0  0
 37 36  1  0  0  0  0
 38 37  1  6  0  0  0
 38 40  1  0  0  0  0
 40 39  1  0  0  0  0
 41 38  1  0  0  0  0
 42 44  1  0  0  0  0
 42 43  1  0  0  0  0
 43 46  1  1  0  0  0
 44 43  1  0  0  0  0
 44 41  1  0  0  0  0
 46 45  1  0  0  0  0
 47 25  1  0  0  0  0
 48 47  1  0  0  0  0
M  END
>  <MODEL>
2

>  <REMARK>
 VINA RESULT:      -7.2      1.588      2.514
  Name = 
  21 active torsions:
  status: ('A' for Active; 'I' for Inactive)
    1  A    between atoms: C_1  and  C_23
    2  A    between atoms: C_1  and  C_35
    3  A    between atoms: C_2  and  N_22
    4  A    between atoms: C_2  and  C_23
    5  A    between atoms: C_3  and  N_15
    6  A    between atoms: C_5  and  N_15
    7  A    between atoms: C_6  and  C_25
    8  A    between atoms: C_7  and  N_15
    9  A    between atoms: C_7  and  C_36
   10  A    between atoms: C_8  and  C_16
   11  A    between atoms: C_8  and  N_29
   12  A    between atoms: O_12  and  C_16
   13  A    between atoms: C_13  and  C_38
   14  A    between atoms: C_16  and  C_19
   15  A    between atoms: N_18  and  C_32
   16  A    between atoms: C_19  and  O_31
   17  A    between atoms: C_24  and  C_35
   18  A    between atoms: C_26  and  C_32
   19  A    between atoms: C_27  and  O_41
   20  A    between atoms: O_31  and  C_38
   21  A    between atoms: C_36  and  N_48
                            x       y       z     vdW  Elec       q    Type
                         _______ _______ _______ _____ _____    ______ ____

>  <TORSDO>
F 21

$$$$
=
 OpenBabel10222419083D

 48 50  0  0  1  0  0  0  0  0999 V2000
  182.1180  178.5560  141.4120 C   0  0  0  0  0  3  0  0  0  0  0  0
  183.4590  178.5250  141.4790 C   0  0  0  0  0  0  0  0  0  0  0  0
  185.3600  178.6660  145.3330 C   0  0  0  0  0  0  0  0  0  0  0  0
  185.4640  178.1940  142.9540 C   0  0  0  0  0  3  0  0  0  0  0  0
  184.1170  178.5590  142.8050 C   0  0  0  0  0  0  0  0  0  0  0  0
  183.4020  178.9870  143.9330 C   0  0  0  0  0  3  0  0  0  0  0  0
  184.0170  179.0360  145.1870 C   0  0  0  0  0  3  0  0  0  0  0  0
  186.0800  178.2480  144.2060 C   0  0  0  0  0  3  0  0  0  0  0  0
  187.1440  177.8910  146.9280 N   0  0  0  0  0  2  0  0  0  0  0  0
  186.0140  178.7250  146.6510 C   0  0  0  0  0  0  0  0  0  0  0  0
  185.5840  179.5160  147.5340 O   0  0  0  0  0  0  0  0  0  0  0  0
  187.8160  177.8800  148.2200 C   0  0  0  0  0  2  0  0  0  0  0  0
  189.3190  177.7380  148.0360 C   0  0  0  0  0  2  0  0  0  0  0  0
  189.6610  176.4490  147.3000 C   0  0  0  0  0  2  0  0  0  0  0  0
  191.1210  176.4240  146.8690 C   0  0  2  0  0  3  0  0  0  0  0  0
  191.8820  177.1860  147.7530 O   0  0  0  0  0  1  0  0  0  0  0  0
  190.8600  176.5630  142.9870 C   0  0  0  0  0  0  0  0  0  0  0  0
  191.2810  176.9530  145.4820 C   0  0  0  0  0  0  0  0  0  0  0  0
  190.7350  176.2240  144.3730 N   0  0  0  0  0  2  0  0  0  0  0  0
  191.6890  177.7110  142.5230 C   0  0  0  0  0  1  0  0  0  0  0  0
  190.2690  175.8570  142.1290 O   0  0  0  0  0  0  0  0  0  0  0  0
  191.8900  178.0410  145.3080 O   0  0  0  0  0  0  0  0  0  0  0  0
  184.2850  178.4960  140.3050 N   0  0  0  0  0  2  0  0  0  0  0  0
  184.8680  179.6020  139.7840 O   0  0  0  0  0  1  0  0  0  0  0  0
  181.3600  178.3680  140.2100 N   0  0  0  0  0  0  0  0  0  0  0  0
  179.9900  180.3310  140.7990 C   0  0  0  0  0  1  0  0  0  0  0  0
  180.6380  179.5210  139.6800 C   0  0  1  0  0  3  0  0  0  0  0  0
  181.5570  180.3810  138.7970 C   0  0  0  0  0  2  0  0  0  0  0  0
  179.7660  180.8560  135.1680 N   0  0  0  0  0  2  0  0  0  0  0  0
  180.4610  179.3830  136.8570 C   0  0  2  0  0  3  0  0  0  0  0  0
  179.4190  179.6790  135.8600 N   0  0  0  0  0  2  0  0  0  0  0  0
  180.0670  181.6920  137.4730 C   0  0  0  0  0  2  0  0  0  0  0  0
  179.5540  181.9960  136.0620 C   0  0  0  0  0  2  0  0  0  0  0  0
  181.0510  180.6110  137.4330 N   0  0  0  0  0  0  0  0  0  0  0  0
  181.5420  178.5100  136.2380 C   0  0  0  0  0  2  0  0  0  0  0  0
  181.0950  177.1880  136.1980 O   0  0  0  0  0  0  0  0  0  0  0  0
  182.0800  176.4920  135.4990 C   0  0  0  0  0  2  0  0  0  0  0  0
  182.6430  175.3410  136.3400 C   0  0  2  0  0  3  0  0  0  0  0  0
  181.2330  173.6660  136.5080 O   0  0  0  0  0  1  0  0  0  0  0  0
  181.6910  174.7140  137.1660 O   0  0  0  0  0  0  0  0  0  0  0  0
  183.9880  175.6180  137.0230 C   0  0  0  0  0  2  0  0  0  0  0  0
  186.3130  175.3450  137.0090 C   0  0  0  0  0  2  0  0  0  0  0  0
  186.0930  176.3670  135.9920 C   0  0  1  0  0  3  0  0  0  0  0  0
  185.1150  175.2600  136.1610 N   0  0  0  0  0  0  0  0  0  0  0  0
  186.7870  178.0220  137.2840 C   0  0  0  0  0  1  0  0  0  0  0  0
  185.6680  177.5600  136.5900 O   0  0  0  0  0  0  0  0  0  0  0  0
  181.0300  177.0160  139.7530 C   0  0  0  0  0  2  0  0  0  0  0  0
  179.5550  176.9080  139.4030 C   0  0  0  0  0  1  0  0  0  0  0  0
  1  2  2  0  0  0  0
  2  5  1  0  0  0  0
  3 10  1  0  0  0  0
  4  8  1  0  0  0  0
  5  4  2  0  0  0  0
  5  6  1  0  0  0  0
  6  7  2  0  0  0  0
  7  3  1  0  0  0  0
  8  3  2  0  0  0  0
  9 12  1  0  0  0  0
 10  9  1  0  0  0  0
 10 11  2  0  0  0  0
 13 12  1  0  0  0  0
 14 13  1  0  0  0  0
 15 14  1  0  0  0  0
 15 16  1  1  0  0  0
 17 19  1  0  0  0  0
 18 15  1  0  0  0  0
 19 18  1  0  0  0  0
 20 17  1  0  0  0  0
 21 17  2  0  0  0  0
 22 18  2  0  0  0  0
 23  2  1  0  0  0  0
 24 23  1  0  0  0  0
 25  1  1  0  0  0  0
 27 25  1  0  0  0  0
 27 26  1  1  0  0  0
 28 27  1  0  0  0  0
 29 31  1  0  0  0  0
 29 33  1  0  0  0  0
 30 35  1  6  0  0  0
 30 34  1  0  0  0  0
 31 30  1  0  0  0  0
 33 32  1  0  0  0  0
 34 32  1  0  0  0  0
 34 28  1  0  0  0  0
 36 35  1  0  0  0  0
 37 36  1  0  0  0  0
 38 37  1  1  0  0  0
 38 41  1  0  0  0  0
 38 40  1  0  0  0  0
 39 40  1  0  0  0  0
 43 44  1  0  0  0  0
 43 46  1  1  0  0  0
 43 42  1  0  0  0  0
 44 42  1  0  0  0  0
 44 41  1  0  0  0  0
 46 45  1  0  0  0  0
 47 25  1  0  0  0  0
 48 47  1  0  0  0  0
M  END
>  <MODEL>
3

>  <REMARK>
 VINA RESULT:      -7.2      2.308      4.375
  Name = 
  21 active torsions:
  status: ('A' for Active; 'I' for Inactive)
    1  A    between atoms: C_1  and  C_23
    2  A    between atoms: C_1  and  C_35
    3  A    between atoms: C_2  and  N_22
    4  A    between atoms: C_2  and  C_23
    5  A    between atoms: C_3  and  N_15
    6  A    between atoms: C_5  and  N_15
    7  A    between atoms: C_6  and  C_25
    8  A    between atoms: C_7  and  N_15
    9  A    between atoms: C_7  and  C_36
   10  A    between atoms: C_8  and  C_16
   11  A    between atoms: C_8  and  N_29
   12  A    between atoms: O_12  and  C_16
   13  A    between atoms: C_13  and  C_38
   14  A    between atoms: C_16  and  C_19
   15  A    between atoms: N_18  and  C_32
   16  A    between atoms: C_19  and  O_31
   17  A    between atoms: C_24  and  C_35
   18  A    between atoms: C_26  and  C_32
   19  A    between atoms: C_27  and  O_41
   20  A    between atoms: O_31  and  C_38
   21  A    between atoms: C_36  and  N_48
                            x       y       z     vdW  Elec       q    Type
                         _______ _______ _______ _____ _____    ______ ____

>  <TORSDO>
F 21

$$$$
=
 OpenBabel10222419083D

 48 50  0  0  1  0  0  0  0  0999 V2000
  188.4040  176.2570  137.9120 C   0  0  0  0  0  3  0  0  0  0  0  0
  188.2970  177.3980  138.6130 C   0  0  0  0  0  0  0  0  0  0  0  0
  190.3550  177.7060  142.3750 C   0  0  0  0  0  0  0  0  0  0  0  0
  188.3820  178.1100  141.0190 C   0  0  0  0  0  3  0  0  0  0  0  0
  189.0030  177.5180  139.9080 C   0  0  0  0  0  0  0  0  0  0  0  0
  190.3050  177.0150  140.0470 C   0  0  0  0  0  3  0  0  0  0  0  0
  190.9760  177.1120  141.2690 C   0  0  0  0  0  3  0  0  0  0  0  0
  189.0510  178.2010  142.2410 C   0  0  0  0  0  3  0  0  0  0  0  0
  190.9450  176.7420  144.6220 N   0  0  0  0  0  2  0  0  0  0  0  0
  191.0560  177.8020  143.6660 C   0  0  0  0  0  0  0  0  0  0  0  0
  191.7620  178.8140  143.9270 O   0  0  0  0  0  0  0  0  0  0  0  0
  191.5890  176.7890  145.9270 C   0  0  0  0  0  2  0  0  0  0  0  0
  190.5500  176.7330  147.0360 C   0  0  0  0  0  2  0  0  0  0  0  0
  189.7050  178.0000  147.0580 C   0  0  0  0  0  2  0  0  0  0  0  0
  188.2640  177.7020  147.4520 C   0  0  2  0  0  3  0  0  0  0  0  0
  188.1600  176.3790  147.8750 O   0  0  0  0  0  1  0  0  0  0  0  0
  184.9830  178.6460  145.5800 C   0  0  0  0  0  0  0  0  0  0  0  0
  187.3340  177.9400  146.3080 C   0  0  0  0  0  0  0  0  0  0  0  0
  186.0080  178.4310  146.5570 N   0  0  0  0  0  2  0  0  0  0  0  0
  185.1630  178.2780  144.1470 C   0  0  0  0  0  1  0  0  0  0  0  0
  183.8850  179.1430  145.9440 O   0  0  0  0  0  0  0  0  0  0  0  0
  187.7330  177.7120  145.1370 O   0  0  0  0  0  0  0  0  0  0  0  0
  187.4890  178.4980  138.1680 N   0  0  0  0  0  2  0  0  0  0  0  0
  187.8710  179.3430  137.1800 O   0  0  0  0  0  1  0  0  0  0  0  0
  187.9060  176.0720  136.5800 N   0  0  0  0  0  0  0  0  0  0  0  0
  186.7210  174.0240  137.2690 C   0  0  0  0  0  1  0  0  0  0  0  0
  186.6830  175.2890  136.4200 C   0  0  1  0  0  3  0  0  0  0  0  0
  185.4430  176.1490  136.7110 C   0  0  0  0  0  2  0  0  0  0  0  0
  181.7330  174.6610  135.9230 N   0  0  0  0  0  2  0  0  0  0  0  0
  183.0510  176.1280  137.1940 C   0  0  2  0  0  3  0  0  0  0  0  0
  181.7550  175.9350  136.5230 N   0  0  0  0  0  2  0  0  0  0  0  0
  183.9020  175.4400  135.0340 C   0  0  0  0  0  2  0  0  0  0  0  0
  182.5970  174.6920  134.7420 C   0  0  0  0  0  2  0  0  0  0  0  0
  184.1590  175.4680  136.4730 N   0  0  0  0  0  0  0  0  0  0  0  0
  182.9730  175.6300  138.6300 C   0  0  0  0  0  2  0  0  0  0  0  0
  182.7810  176.7190  139.4820 O   0  0  0  0  0  0  0  0  0  0  0  0
  183.7160  177.6700  139.0740 C   0  0  0  0  0  2  0  0  0  0  0  0
  183.2090  179.0910  139.3370 C   0  0  2  0  0  3  0  0  0  0  0  0
  185.0870  179.6320  140.3370 O   0  0  0  0  0  1  0  0  0  0  0  0
  184.2290  180.0570  139.4310 O   0  0  0  0  0  0  0  0  0  0  0  0
  182.1190  179.2160  140.4090 C   0  0  0  0  0  2  0  0  0  0  0  0
  180.0190  180.0980  140.9530 C   0  0  0  0  0  2  0  0  0  0  0  0
  179.6930  178.8130  140.3480 C   0  0  1  0  0  3  0  0  0  0  0  0
  180.8350  179.6120  139.8300 N   0  0  0  0  0  0  0  0  0  0  0  0
  179.3680  176.6620  140.7490 C   0  0  0  0  0  1  0  0  0  0  0  0
  180.1010  177.7660  141.1860 O   0  0  0  0  0  0  0  0  0  0  0  0
  188.7710  176.3340  135.4280 C   0  0  0  0  0  2  0  0  0  0  0  0
  190.1340  176.8360  135.8770 C   0  0  0  0  0  1  0  0  0  0  0  0
  1  2  2  0  0  0  0
  2  5  1  0  0  0  0
  3 10  1  0  0  0  0
  4  8  2  0  0  0  0
  5  6  2  0  0  0  0
  5  4  1  0  0  0  0
  6  7  1  0  0  0  0
  7  3  2  0  0  0  0
  8  3  1  0  0  0  0
  9 12  1  0  0  0  0
 10 11  2  0  0  0  0
 10  9  1  0  0  0  0
 12 13  1  0  0  0  0
 13 14  1  0  0  0  0
 14 15  1  0  0  0  0
 15 16  1  6  0  0  0
 17 21  2  0  0  0  0
 17 19  1  0  0  0  0
 18 19  1  0  0  0  0
 18 15  1  0  0  0  0
 20 17  1  0  0  0  0
 22 18  2  0  0  0  0
 23  2  1  0  0  0  0
 24 23  1  0  0  0  0
 25  1  1  0  0  0  0
 27 25  1  0  0  0  0
 27 28  1  0  0  0  0
 27 26  1  1  0  0  0
 29 31  1  0  0  0  0
 30 35  1  1  0  0  0
 31 30  1  0  0  0  0
 32 34  1  0  0  0  0
 33 32  1  0  0  0  0
 33 29  1  0  0  0  0
 34 28  1  0  0  0  0
 34 30  1  0  0  0  0
 35 36  1  0  0  0  0
 37 36  1  0  0  0  0
 38 37  1  1  0  0  0
 38 40  1  0  0  0  0
 38 41  1  0  0  0  0
 40 39  1  0  0  0  0
 43 42  1  0  0  0  0
 43 46  1  1  0  0  0
 44 43  1  0  0  0  0
 44 41  1  0  0  0  0
 44 42  1  0  0  0  0
 45 46  1  0  0  0  0
 47 48  1  0  0  0  0
 47 25  1  0  0  0  0
M  END
>  <MODEL>
4

>  <REMARK>
 VINA RESULT:      -7.0      1.992      6.345
  Name = 
  21 active torsions:
  status: ('A' for Active; 'I' for Inactive)
    1  A    between atoms: C_1  and  C_23
    2  A    between atoms: C_1  and  C_35
    3  A    between atoms: C_2  and  N_22
    4  A    between atoms: C_2  and  C_23
    5  A    between atoms: C_3  and  N_15
    6  A    between atoms: C_5  and  N_15
    7  A    between atoms: C_6  and  C_25
    8  A    between atoms: C_7  and  N_15
    9  A    between atoms: C_7  and  C_36
   10  A    between atoms: C_8  and  C_16
   11  A    between atoms: C_8  and  N_29
   12  A    between atoms: O_12  and  C_16
   13  A    between atoms: C_13  and  C_38
   14  A    between atoms: C_16  and  C_19
   15  A    between atoms: N_18  and  C_32
   16  A    between atoms: C_19  and  O_31
   17  A    between atoms: C_24  and  C_35
   18  A    between atoms: C_26  and  C_32
   19  A    between atoms: C_27  and  O_41
   20  A    between atoms: O_31  and  C_38
   21  A    between atoms: C_36  and  N_48
                            x       y       z     vdW  Elec       q    Type
                         _______ _______ _______ _____ _____    ______ ____

>  <TORSDO>
F 21

$$$$
=
 OpenBabel10222419083D

 48 50  0  0  1  0  0  0  0  0999 V2000
  182.0770  178.6010  141.2120 C   0  0  0  0  0  3  0  0  0  0  0  0
  182.0050  178.9070  142.5180 C   0  0  0  0  0  0  0  0  0  0  0  0
  185.4710  178.4000  145.0100 C   0  0  0  0  0  0  0  0  0  0  0  0
  184.4370  178.3570  142.8140 C   0  0  0  0  0  3  0  0  0  0  0  0
  183.2000  178.7190  143.3700 C   0  0  0  0  0  0  0  0  0  0  0  0
  183.1140  178.9270  144.7550 C   0  0  0  0  0  3  0  0  0  0  0  0
  184.2390  178.7640  145.5680 C   0  0  0  0  0  3  0  0  0  0  0  0
  185.5610  178.2010  143.6260 C   0  0  0  0  0  3  0  0  0  0  0  0
  187.9260  177.9200  145.2730 N   0  0  0  0  0  2  0  0  0  0  0  0
  186.6600  178.2370  145.8630 C   0  0  0  0  0  0  0  0  0  0  0  0
  186.5670  178.3850  147.1120 O   0  0  0  0  0  0  0  0  0  0  0  0
  189.1320  177.7170  146.0630 C   0  0  0  0  0  2  0  0  0  0  0  0
  190.1760  176.9600  145.2550 C   0  0  0  0  0  2  0  0  0  0  0  0
  190.2680  177.5030  143.8360 C   0  0  0  0  0  2  0  0  0  0  0  0
  189.7020  176.5150  142.8240 C   0  0  2  0  0  3  0  0  0  0  0  0
  190.4640  175.3490  142.8340 O   0  0  0  0  0  1  0  0  0  0  0  0
  188.2810  178.1110  139.5690 C   0  0  0  0  0  0  0  0  0  0  0  0
  189.6940  177.1000  141.4490 C   0  0  0  0  0  0  0  0  0  0  0  0
  188.4650  177.5870  140.8890 N   0  0  0  0  0  2  0  0  0  0  0  0
  189.3770  178.1210  138.5590 C   0  0  0  0  0  1  0  0  0  0  0  0
  187.1510  178.5600  139.2410 O   0  0  0  0  0  0  0  0  0  0  0  0
  190.7720  177.1630  140.8050 O   0  0  0  0  0  0  0  0  0  0  0  0
  180.7940  179.3800  143.1280 N   0  0  0  0  0  2  0  0  0  0  0  0
  180.2930  180.6190  142.9120 O   0  0  0  0  0  1  0  0  0  0  0  0
  181.0500  178.8850  140.2530 N   0  0  0  0  0  0  0  0  0  0  0  0
  182.5970  180.1730  138.8300 C   0  0  0  0  0  1  0  0  0  0  0  0
  181.2010  180.0880  139.4380 C   0  0  1  0  0  3  0  0  0  0  0  0
  180.0960  180.1650  138.3720 C   0  0  0  0  0  2  0  0  0  0  0  0
  180.9290  181.4690  134.6030 N   0  0  0  0  0  2  0  0  0  0  0  0
  180.1690  179.7220  135.9730 C   0  0  2  0  0  3  0  0  0  0  0  0
  180.0030  180.4100  134.6820 N   0  0  0  0  0  2  0  0  0  0  0  0
  179.9870  181.9810  136.8280 C   0  0  0  0  0  2  0  0  0  0  0  0
  180.4790  182.5420  135.4900 C   0  0  0  0  0  2  0  0  0  0  0  0
  180.5500  180.6510  137.0580 N   0  0  0  0  0  0  0  0  0  0  0  0
  181.1930  178.6050  135.8400 C   0  0  0  0  0  2  0  0  0  0  0  0
  180.8290  177.5490  136.6780 O   0  0  0  0  0  0  0  0  0  0  0  0
  181.9110  176.6710  136.6480 C   0  0  0  0  0  2  0  0  0  0  0  0
  181.7440  175.5540  137.6830 C   0  0  2  0  0  3  0  0  0  0  0  0
  183.4330  176.6110  138.6060 O   0  0  0  0  0  1  0  0  0  0  0  0
  182.8150  175.4460  138.5890 O   0  0  0  0  0  0  0  0  0  0  0  0
  181.2430  174.2130  137.1340 C   0  0  0  0  0  2  0  0  0  0  0  0
  179.4370  173.5700  138.4790 C   0  0  0  0  0  2  0  0  0  0  0  0
  179.2820  172.7340  137.2950 C   0  0  1  0  0  3  0  0  0  0  0  0
  179.7830  174.1280  137.1630 N   0  0  0  0  0  0  0  0  0  0  0  0
  179.8090  170.7760  136.4110 C   0  0  0  0  0  1  0  0  0  0  0  0
  180.3100  171.7830  137.2370 O   0  0  0  0  0  0  0  0  0  0  0  0
  179.7510  178.2150  140.3460 C   0  0  0  0  0  2  0  0  0  0  0  0
  179.9250  176.7120  140.4910 C   0  0  0  0  0  1  0  0  0  0  0  0
  1  2  2  0  0  0  0
  2 23  1  0  0  0  0
  2  5  1  0  0  0  0
  3  7  1  0  0  0  0
  3 10  1  0  0  0  0
  4  5  2  0  0  0  0
  4  8  1  0  0  0  0
  5  6  1  0  0  0  0
  6  7  2  0  0  0  0
  8  3  2  0  0  0  0
  9 10  1  0  0  0  0
  9 12  1  0  0  0  0
 10 11  2  0  0  0  0
 13 12  1  0  0  0  0
 14 13  1  0  0  0  0
 15 16  1  6  0  0  0
 15 14  1  0  0  0  0
 17 19  1  0  0  0  0
 18 15  1  0  0  0  0
 19 18  1  0  0  0  0
 20 17  1  0  0  0  0
 21 17  2  0  0  0  0
 22 18  2  0  0  0  0
 24 23  1  0  0  0  0
 25 47  1  0  0  0  0
 25  1  1  0  0  0  0
 27 26  1  6  0  0  0
 27 25  1  0  0  0  0
 28 27  1  0  0  0  0
 29 31  1  0  0  0  0
 29 33  1  0  0  0  0
 30 35  1  6  0  0  0
 30 34  1  0  0  0  0
 31 30  1  0  0  0  0
 32 34  1  0  0  0  0
 33 32  1  0  0  0  0
 34 28  1  0  0  0  0
 35 36  1  0  0  0  0
 37 36  1  0  0  0  0
 38 37  1  6  0  0  0
 38 40  1  0  0  0  0
 40 39  1  0  0  0  0
 41 44  1  0  0  0  0
 41 38  1  0  0  0  0
 43 46  1  1  0  0  0
 43 42  1  0  0  0  0
 44 43  1  0  0  0  0
 44 42  1  0  0  0  0
 45 46  1  0  0  0  0
 47 48  1  0  0  0  0
M  END
>  <MODEL>
5

>  <REMARK>
 VINA RESULT:      -6.9      3.042      5.778
  Name = 
  21 active torsions:
  status: ('A' for Active; 'I' for Inactive)
    1  A    between atoms: C_1  and  C_23
    2  A    between atoms: C_1  and  C_35
    3  A    between atoms: C_2  and  N_22
    4  A    between atoms: C_2  and  C_23
    5  A    between atoms: C_3  and  N_15
    6  A    between atoms: C_5  and  N_15
    7  A    between atoms: C_6  and  C_25
    8  A    between atoms: C_7  and  N_15
    9  A    between atoms: C_7  and  C_36
   10  A    between atoms: C_8  and  C_16
   11  A    between atoms: C_8  and  N_29
   12  A    between atoms: O_12  and  C_16
   13  A    between atoms: C_13  and  C_38
   14  A    between atoms: C_16  and  C_19
   15  A    between atoms: N_18  and  C_32
   16  A    between atoms: C_19  and  O_31
   17  A    between atoms: C_24  and  C_35
   18  A    between atoms: C_26  and  C_32
   19  A    between atoms: C_27  and  O_41
   20  A    between atoms: O_31  and  C_38
   21  A    between atoms: C_36  and  N_48
                            x       y       z     vdW  Elec       q    Type
                         _______ _______ _______ _____ _____    ______ ____

>  <TORSDO>
F 21

$$$$
=
 OpenBabel10222419083D

 48 50  0  0  1  0  0  0  0  0999 V2000
  182.7940  178.2790  141.4470 C   0  0  0  0  0  3  0  0  0  0  0  0
  182.6930  178.7290  142.7080 C   0  0  0  0  0  0  0  0  0  0  0  0
  186.0110  178.2600  145.4010 C   0  0  0  0  0  0  0  0  0  0  0  0
  185.0860  178.1200  143.1610 C   0  0  0  0  0  3  0  0  0  0  0  0
  183.8370  178.5530  143.6310 C   0  0  0  0  0  0  0  0  0  0  0  0
  183.6890  178.8450  144.9950 C   0  0  0  0  0  3  0  0  0  0  0  0
  184.7660  178.6950  145.8730 C   0  0  0  0  0  3  0  0  0  0  0  0
  186.1630  177.9760  144.0380 C   0  0  0  0  0  3  0  0  0  0  0  0
  188.4090  177.6350  145.8330 N   0  0  0  0  0  2  0  0  0  0  0  0
  187.1500  178.1090  146.3230 C   0  0  0  0  0  0  0  0  0  0  0  0
  187.0200  178.4060  147.5420 O   0  0  0  0  0  0  0  0  0  0  0  0
  189.5640  177.4370  146.6970 C   0  0  0  0  0  2  0  0  0  0  0  0
  190.7930  177.0850  145.8710 C   0  0  0  0  0  2  0  0  0  0  0  0
  190.4200  176.8400  144.4150 C   0  0  0  0  0  2  0  0  0  0  0  0
  191.1970  177.7560  143.4790 C   0  0  2  0  0  3  0  0  0  0  0  0
  191.1670  179.0600  143.9700 O   0  0  0  0  0  1  0  0  0  0  0  0
  188.5720  178.1450  140.6300 C   0  0  0  0  0  0  0  0  0  0  0  0
  190.6260  177.7240  142.1000 C   0  0  0  0  0  0  0  0  0  0  0  0
  189.2810  178.1740  141.8740 N   0  0  0  0  0  2  0  0  0  0  0  0
  189.1500  177.5290  139.4010 C   0  0  0  0  0  1  0  0  0  0  0  0
  187.4140  178.6350  140.5740 O   0  0  0  0  0  0  0  0  0  0  0  0
  191.3400  177.3080  141.1510 O   0  0  0  0  0  0  0  0  0  0  0  0
  181.4970  179.3460  143.2080 N   0  0  0  0  0  2  0  0  0  0  0  0
  180.5220  178.6580  143.8470 O   0  0  0  0  0  1  0  0  0  0  0  0
  181.8290  178.5260  140.4160 N   0  0  0  0  0  0  0  0  0  0  0  0
  183.2480  179.9130  138.9540 C   0  0  0  0  0  1  0  0  0  0  0  0
  181.9210  179.7930  139.6950 C   0  0  1  0  0  3  0  0  0  0  0  0
  180.7150  179.9760  138.7600 C   0  0  0  0  0  2  0  0  0  0  0  0
  180.9330  182.5160  135.5810 N   0  0  0  0  0  2  0  0  0  0  0  0
  180.2840  180.4140  136.3970 C   0  0  2  0  0  3  0  0  0  0  0  0
  179.9420  181.5200  135.4880 N   0  0  0  0  0  2  0  0  0  0  0  0
  180.4880  182.2240  137.9930 C   0  0  0  0  0  2  0  0  0  0  0  0
  180.7670  183.2130  136.8580 C   0  0  0  0  0  2  0  0  0  0  0  0
  180.9540  180.8870  137.6280 N   0  0  0  0  0  0  0  0  0  0  0  0
  181.1510  179.3940  135.6750 C   0  0  0  0  0  2  0  0  0  0  0  0
  180.5840  178.1270  135.8200 O   0  0  0  0  0  0  0  0  0  0  0  0
  181.1570  177.3540  134.8110 C   0  0  0  0  0  2  0  0  0  0  0  0
  181.5240  175.9590  135.3260 C   0  0  2  0  0  3  0  0  0  0  0  0
  180.7040  174.1680  136.2980 O   0  0  0  0  0  1  0  0  0  0  0  0
  180.6840  175.4850  136.3520 O   0  0  0  0  0  0  0  0  0  0  0  0
  183.0180  175.7160  135.5710 C   0  0  0  0  0  2  0  0  0  0  0  0
  184.4080  177.1610  136.7810 C   0  0  0  0  0  2  0  0  0  0  0  0
  184.8500  175.8390  137.2100 C   0  0  1  0  0  3  0  0  0  0  0  0
  183.4110  176.0900  136.9300 N   0  0  0  0  0  0  0  0  0  0  0  0
  186.3600  174.2800  136.7850 C   0  0  0  0  0  1  0  0  0  0  0  0
  185.4990  175.1810  136.1560 O   0  0  0  0  0  0  0  0  0  0  0  0
  180.6050  177.7250  140.3470 C   0  0  0  0  0  2  0  0  0  0  0  0
  180.9010  176.3270  139.8290 C   0  0  0  0  0  1  0  0  0  0  0  0
  1  2  2  0  0  0  0
  2 23  1  0  0  0  0
  2  5  1  0  0  0  0
  3  7  1  0  0  0  0
  3 10  1  0  0  0  0
  4  5  2  0  0  0  0
  4  8  1  0  0  0  0
  5  6  1  0  0  0  0
  6  7  2  0  0  0  0
  8  3  2  0  0  0  0
  9 10  1  0  0  0  0
  9 12  1  0  0  0  0
 10 11  2  0  0  0  0
 13 12  1  0  0  0  0
 14 13  1  0  0  0  0
 15 16  1  1  0  0  0
 15 14  1  0  0  0  0
 17 19  1  0  0  0  0
 18 15  1  0  0  0  0
 19 18  1  0  0  0  0
 20 17  1  0  0  0  0
 21 17  2  0  0  0  0
 22 18  2  0  0  0  0
 23 24  1  0  0  0  0
 25  1  1  0  0  0  0
 27 26  1  6  0  0  0
 27 25  1  0  0  0  0
 28 27  1  0  0  0  0
 29 33  1  0  0  0  0
 30 35  1  6  0  0  0
 30 34  1  0  0  0  0
 31 29  1  0  0  0  0
 31 30  1  0  0  0  0
 33 32  1  0  0  0  0
 34 32  1  0  0  0  0
 34 28  1  0  0  0  0
 35 36  1  0  0  0  0
 37 36  1  0  0  0  0
 38 37  1  1  0  0  0
 38 41  1  0  0  0  0
 38 40  1  0  0  0  0
 39 40  1  0  0  0  0
 41 44  1  0  0  0  0
 42 44  1  0  0  0  0
 42 43  1  0  0  0  0
 43 46  1  6  0  0  0
 44 43  1  0  0  0  0
 46 45  1  0  0  0  0
 47 25  1  0  0  0  0
 48 47  1  0  0  0  0
M  END
>  <MODEL>
6

>  <REMARK>
 VINA RESULT:      -6.6      2.842      5.024
  Name = 
  21 active torsions:
  status: ('A' for Active; 'I' for Inactive)
    1  A    between atoms: C_1  and  C_23
    2  A    between atoms: C_1  and  C_35
    3  A    between atoms: C_2  and  N_22
    4  A    between atoms: C_2  and  C_23
    5  A    between atoms: C_3  and  N_15
    6  A    between atoms: C_5  and  N_15
    7  A    between atoms: C_6  and  C_25
    8  A    between atoms: C_7  and  N_15
    9  A    between atoms: C_7  and  C_36
   10  A    between atoms: C_8  and  C_16
   11  A    between atoms: C_8  and  N_29
   12  A    between atoms: O_12  and  C_16
   13  A    between atoms: C_13  and  C_38
   14  A    between atoms: C_16  and  C_19
   15  A    between atoms: N_18  and  C_32
   16  A    between atoms: C_19  and  O_31
   17  A    between atoms: C_24  and  C_35
   18  A    between atoms: C_26  and  C_32
   19  A    between atoms: C_27  and  O_41
   20  A    between atoms: O_31  and  C_38
   21  A    between atoms: C_36  and  N_48
                            x       y       z     vdW  Elec       q    Type
                         _______ _______ _______ _____ _____    ______ ____

>  <TORSDO>
F 21

$$$$
=
 OpenBabel10222419083D

 48 50  0  0  1  0  0  0  0  0999 V2000
  188.8650  176.4430  137.8120 C   0  0  0  0  0  3  0  0  0  0  0  0
  188.6860  177.5440  138.5590 C   0  0  0  0  0  0  0  0  0  0  0  0
  190.5370  177.7250  142.4350 C   0  0  0  0  0  0  0  0  0  0  0  0
  188.5520  177.8680  141.0460 C   0  0  0  0  0  3  0  0  0  0  0  0
  189.3180  177.6200  139.8960 C   0  0  0  0  0  0  0  0  0  0  0  0
  190.6990  177.4180  140.0320 C   0  0  0  0  0  3  0  0  0  0  0  0
  191.3040  177.4740  141.2910 C   0  0  0  0  0  3  0  0  0  0  0  0
  189.1570  177.9190  142.3030 C   0  0  0  0  0  3  0  0  0  0  0  0
  190.9230  176.7370  144.7160 N   0  0  0  0  0  2  0  0  0  0  0  0
  191.1700  177.7770  143.7640 C   0  0  0  0  0  0  0  0  0  0  0  0
  191.9380  178.7330  144.0610 O   0  0  0  0  0  0  0  0  0  0  0  0
  191.4950  176.7440  146.0550 C   0  0  0  0  0  2  0  0  0  0  0  0
  190.4110  176.9870  147.0950 C   0  0  0  0  0  2  0  0  0  0  0  0
  189.0470  177.1440  146.4360 C   0  0  0  0  0  2  0  0  0  0  0  0
  188.1050  177.9750  147.2970 C   0  0  2  0  0  3  0  0  0  0  0  0
  187.8690  177.3160  148.5020 O   0  0  0  0  0  1  0  0  0  0  0  0
  185.5620  178.2220  144.3580 C   0  0  0  0  0  0  0  0  0  0  0  0
  186.8100  178.2190  146.5940 C   0  0  0  0  0  0  0  0  0  0  0  0
  186.7070  177.9760  145.1830 N   0  0  0  0  0  2  0  0  0  0  0  0
  184.3310  178.8750  144.8860 C   0  0  0  0  0  1  0  0  0  0  0  0
  185.6030  177.8980  143.1430 O   0  0  0  0  0  0  0  0  0  0  0  0
  185.8220  178.6300  147.2560 O   0  0  0  0  0  0  0  0  0  0  0  0
  187.8710  178.6430  138.1230 N   0  0  0  0  0  2  0  0  0  0  0  0
  186.5190  178.6370  138.2020 O   0  0  0  0  0  1  0  0  0  0  0  0
  188.4450  176.3100  136.4480 N   0  0  0  0  0  0  0  0  0  0  0  0
  187.3260  174.2440  137.1920 C   0  0  0  0  0  1  0  0  0  0  0  0
  187.3660  175.3680  136.1620 C   0  0  1  0  0  3  0  0  0  0  0  0
  186.0190  176.1000  136.0470 C   0  0  0  0  0  2  0  0  0  0  0  0
  182.6090  173.9050  135.6530 N   0  0  0  0  0  2  0  0  0  0  0  0
  183.5850  175.9730  136.1780 C   0  0  2  0  0  3  0  0  0  0  0  0
  182.4440  175.2990  135.5380 N   0  0  0  0  0  2  0  0  0  0  0  0
  184.8480  174.4610  134.7690 C   0  0  0  0  0  2  0  0  0  0  0  0
  183.6650  173.4880  134.7290 C   0  0  0  0  0  2  0  0  0  0  0  0
  184.8440  175.2130  136.0230 N   0  0  0  0  0  0  0  0  0  0  0  0
  183.2870  176.2200  137.6490 C   0  0  0  0  0  2  0  0  0  0  0  0
  181.9150  176.0820  137.8660 O   0  0  0  0  0  0  0  0  0  0  0  0
  181.5130  177.2900  138.4350 C   0  0  0  0  0  2  0  0  0  0  0  0
  181.1170  177.1040  139.9030 C   0  0  2  0  0  3  0  0  0  0  0  0
  179.5550  175.8450  140.7940 O   0  0  0  0  0  1  0  0  0  0  0  0
  180.7480  175.7870  140.2360 O   0  0  0  0  0  0  0  0  0  0  0  0
  180.1950  178.1850  140.4810 C   0  0  0  0  0  2  0  0  0  0  0  0
  181.9560  178.6160  141.9620 C   0  0  0  0  0  2  0  0  0  0  0  0
  180.8250  179.2930  142.5850 C   0  0  1  0  0  3  0  0  0  0  0  0
  180.9550  179.2680  141.1040 N   0  0  0  0  0  0  0  0  0  0  0  0
  179.1770  179.0400  144.0370 C   0  0  0  0  0  1  0  0  0  0  0  0
  179.9030  178.3530  143.0630 O   0  0  0  0  0  0  0  0  0  0  0  0
  189.2950  176.8090  135.3650 C   0  0  0  0  0  2  0  0  0  0  0  0
  190.6330  176.0890  135.3500 C   0  0  0  0  0  1  0  0  0  0  0  0
  1  2  2  0  0  0  0
  2  5  1  0  0  0  0
  3 10  1  0  0  0  0
  4  8  2  0  0  0  0
  5  6  2  0  0  0  0
  5  4  1  0  0  0  0
  6  7  1  0  0  0  0
  7  3  2  0  0  0  0
  8  3  1  0  0  0  0
  9 12  1  0  0  0  0
 10 11  2  0  0  0  0
 10  9  1  0  0  0  0
 12 13  1  0  0  0  0
 14 13  1  0  0  0  0
 14 15  1  0  0  0  0
 15 16  1  1  0  0  0
 17 20  1  0  0  0  0
 17 19  1  0  0  0  0
 18 22  2  0  0  0  0
 18 15  1  0  0  0  0
 19 18  1  0  0  0  0
 21 17  2  0  0  0  0
 23 24  1  0  0  0  0
 23  2  1  0  0  0  0
 25  1  1  0  0  0  0
 27 25  1  0  0  0  0
 27 26  1  1  0  0  0
 28 27  1  0  0  0  0
 30 35  1  1  0  0  0
 31 29  1  0  0  0  0
 31 30  1  0  0  0  0
 32 34  1  0  0  0  0
 33 32  1  0  0  0  0
 33 29  1  0  0  0  0
 34 28  1  0  0  0  0
 34 30  1  0  0  0  0
 35 36  1  0  0  0  0
 36 37  1  0  0  0  0
 38 37  1  6  0  0  0
 38 40  1  0  0  0  0
 38 41  1  0  0  0  0
 40 39  1  0  0  0  0
 41 44  1  0  0  0  0
 42 43  1  0  0  0  0
 43 46  1  6  0  0  0
 44 42  1  0  0  0  0
 44 43  1  0  0  0  0
 46 45  1  0  0  0  0
 47 25  1  0  0  0  0
 48 47  1  0  0  0  0
M  END
>  <MODEL>
7

>  <REMARK>
 VINA RESULT:      -6.5      2.520      6.820
  Name = 
  21 active torsions:
  status: ('A' for Active; 'I' for Inactive)
    1  A    between atoms: C_1  and  C_23
    2  A    between atoms: C_1  and  C_35
    3  A    between atoms: C_2  and  N_22
    4  A    between atoms: C_2  and  C_23
    5  A    between atoms: C_3  and  N_15
    6  A    between atoms: C_5  and  N_15
    7  A    between atoms: C_6  and  C_25
    8  A    between atoms: C_7  and  N_15
    9  A    between atoms: C_7  and  C_36
   10  A    between atoms: C_8  and  C_16
   11  A    between atoms: C_8  and  N_29
   12  A    between atoms: O_12  and  C_16
   13  A    between atoms: C_13  and  C_38
   14  A    between atoms: C_16  and  C_19
   15  A    between atoms: N_18  and  C_32
   16  A    between atoms: C_19  and  O_31
   17  A    between atoms: C_24  and  C_35
   18  A    between atoms: C_26  and  C_32
   19  A    between atoms: C_27  and  O_41
   20  A    between atoms: O_31  and  C_38
   21  A    between atoms: C_36  and  N_48
                            x       y       z     vdW  Elec       q    Type
                         _______ _______ _______ _____ _____    ______ ____

>  <TORSDO>
F 21

$$$$
=
 OpenBabel10222419083D

 48 50  0  0  1  0  0  0  0  0999 V2000
  187.2370  178.0010  145.8400 C   0  0  0  0  0  3  0  0  0  0  0  0
  186.0370  178.5740  146.0280 C   0  0  0  0  0  0  0  0  0  0  0  0
  183.2000  178.6460  142.7990 C   0  0  0  0  0  0  0  0  0  0  0  0
  185.4490  178.2280  143.6120 C   0  0  0  0  0  3  0  0  0  0  0  0
  185.0690  178.6080  144.9090 C   0  0  0  0  0  0  0  0  0  0  0  0
  183.7420  179.0000  145.1390 C   0  0  0  0  0  3  0  0  0  0  0  0
  182.8170  179.0230  144.0920 C   0  0  0  0  0  3  0  0  0  0  0  0
  184.5220  178.2460  142.5680 C   0  0  0  0  0  3  0  0  0  0  0  0
  182.4450  177.8520  140.5350 N   0  0  0  0  0  2  0  0  0  0  0  0
  182.2250  178.6610  141.6950 C   0  0  0  0  0  0  0  0  0  0  0  0
  181.1920  179.3800  141.7750 O   0  0  0  0  0  0  0  0  0  0  0  0
  181.5350  177.8440  139.3970 C   0  0  0  0  0  2  0  0  0  0  0  0
  182.1570  178.5680  138.2130 C   0  0  0  0  0  2  0  0  0  0  0  0
  182.8950  177.5940  137.3030 C   0  0  0  0  0  2  0  0  0  0  0  0
  184.2310  177.1750  137.9030 C   0  0  2  0  0  3  0  0  0  0  0  0
  184.9650  178.3090  138.2440 O   0  0  0  0  0  1  0  0  0  0  0  0
  185.9950  174.0310  136.4320 C   0  0  0  0  0  0  0  0  0  0  0  0
  185.0120  176.3390  136.9420 C   0  0  0  0  0  0  0  0  0  0  0  0
  185.2190  174.9450  137.2150 N   0  0  0  0  0  2  0  0  0  0  0  0
  186.7830  174.4730  135.2470 C   0  0  0  0  0  1  0  0  0  0  0  0
  186.0330  172.8180  136.7660 O   0  0  0  0  0  0  0  0  0  0  0  0
  185.4720  176.8730  135.9000 O   0  0  0  0  0  0  0  0  0  0  0  0
  185.6680  179.1900  147.2720 N   0  0  0  0  0  2  0  0  0  0  0  0
  186.0470  180.4450  147.6150 O   0  0  0  0  0  1  0  0  0  0  0  0
  188.1950  177.7620  146.8790 N   0  0  0  0  0  0  0  0  0  0  0  0
  190.4660  176.8050  146.9270 C   0  0  0  0  0  1  0  0  0  0  0  0
  189.6010  178.0100  146.5710 C   0  0  1  0  0  3  0  0  0  0  0  0
  189.7710  178.4340  145.1030 C   0  0  0  0  0  2  0  0  0  0  0  0
  190.8970  175.6270  142.3740 N   0  0  0  0  0  2  0  0  0  0  0  0
  190.0360  177.7730  142.7690 C   0  0  2  0  0  3  0  0  0  0  0  0
  190.9070  176.9560  141.9090 N   0  0  0  0  0  2  0  0  0  0  0  0
  191.3630  176.7560  144.5210 C   0  0  0  0  0  2  0  0  0  0  0  0
  191.6780  175.5650  143.6100 C   0  0  0  0  0  2  0  0  0  0  0  0
  190.0610  177.3270  144.1780 N   0  0  0  0  0  0  0  0  0  0  0  0
  188.6130  177.7650  142.2290 C   0  0  0  0  0  2  0  0  0  0  0  0
  188.5400  178.6080  141.1200 O   0  0  0  0  0  0  0  0  0  0  0  0
  188.3620  177.7600  140.0280 C   0  0  0  0  0  2  0  0  0  0  0  0
  188.9090  178.3900  138.7440 C   0  0  2  0  0  3  0  0  0  0  0  0
  188.1570  178.6490  136.6970 O   0  0  0  0  0  1  0  0  0  0  0  0
  187.9290  179.0090  137.9450 O   0  0  0  0  0  0  0  0  0  0  0  0
  189.9130  177.5340  137.9630 C   0  0  0  0  0  2  0  0  0  0  0  0
  191.6030  176.0090  138.5130 C   0  0  0  0  0  2  0  0  0  0  0  0
  190.6910  175.2150  137.6970 C   0  0  1  0  0  3  0  0  0  0  0  0
  190.1560  176.2500  138.6210 N   0  0  0  0  0  0  0  0  0  0  0  0
  190.4090  174.5130  135.6190 C   0  0  0  0  0  1  0  0  0  0  0  0
  190.7330  175.6470  136.3650 O   0  0  0  0  0  0  0  0  0  0  0  0
  187.8250  176.9640  148.0500 C   0  0  0  0  0  2  0  0  0  0  0  0
  187.9350  177.7880  149.3230 C   0  0  0  0  0  1  0  0  0  0  0  0
  1  2  2  0  0  0  0
  1 25  1  0  0  0  0
  2 23  1  0  0  0  0
  3  7  1  0  0  0  0
  4  5  2  0  0  0  0
  5  6  1  0  0  0  0
  5  2  1  0  0  0  0
  7  6  2  0  0  0  0
  8  3  2  0  0  0  0
  8  4  1  0  0  0  0
  9 10  1  0  0  0  0
 10 11  2  0  0  0  0
 10  3  1  0  0  0  0
 12  9  1  0  0  0  0
 13 12  1  0  0  0  0
 14 15  1  0  0  0  0
 14 13  1  0  0  0  0
 15 16  1  6  0  0  0
 17 21  2  0  0  0  0
 17 19  1  0  0  0  0
 18 19  1  0  0  0  0
 18 15  1  0  0  0  0
 20 17  1  0  0  0  0
 22 18  2  0  0  0  0
 23 24  1  0  0  0  0
 25 47  1  0  0  0  0
 27 25  1  0  0  0  0
 27 26  1  6  0  0  0
 28 27  1  0  0  0  0
 29 33  1  0  0  0  0
 30 35  1  6  0  0  0
 30 34  1  0  0  0  0
 31 29  1  0  0  0  0
 31 30  1  0  0  0  0
 33 32  1  0  0  0  0
 34 32  1  0  0  0  0
 34 28  1  0  0  0  0
 36 35  1  0  0  0  0
 37 36  1  0  0  0  0
 38 41  1  6  0  0  0
 38 37  1  0  0  0  0
 39 40  1  0  0  0  0
 40 38  1  0  0  0  0
 41 44  1  0  0  0  0
 42 44  1  0  0  0  0
 43 46  1  6  0  0  0
 43 42  1  0  0  0  0
 43 44  1  0  0  0  0
 45 46  1  0  0  0  0
 47 48  1  0  0  0  0
M  END
>  <MODEL>
8

>  <REMARK>
 VINA RESULT:      -6.3      1.817      7.704
  Name = 
  21 active torsions:
  status: ('A' for Active; 'I' for Inactive)
    1  A    between atoms: C_1  and  C_23
    2  A    between atoms: C_1  and  C_35
    3  A    between atoms: C_2  and  N_22
    4  A    between atoms: C_2  and  C_23
    5  A    between atoms: C_3  and  N_15
    6  A    between atoms: C_5  and  N_15
    7  A    between atoms: C_6  and  C_25
    8  A    between atoms: C_7  and  N_15
    9  A    between atoms: C_7  and  C_36
   10  A    between atoms: C_8  and  C_16
   11  A    between atoms: C_8  and  N_29
   12  A    between atoms: O_12  and  C_16
   13  A    between atoms: C_13  and  C_38
   14  A    between atoms: C_16  and  C_19
   15  A    between atoms: N_18  and  C_32
   16  A    between atoms: C_19  and  O_31
   17  A    between atoms: C_24  and  C_35
   18  A    between atoms: C_26  and  C_32
   19  A    between atoms: C_27  and  O_41
   20  A    between atoms: O_31  and  C_38
   21  A    between atoms: C_36  and  N_48
                            x       y       z     vdW  Elec       q    Type
                         _______ _______ _______ _____ _____    ______ ____

>  <TORSDO>
F 21

$$$$
=
 OpenBabel10222419083D

 48 50  0  0  1  0  0  0  0  0999 V2000
  187.9740  177.7810  143.2420 C   0  0  0  0  0  3  0  0  0  0  0  0
  187.1930  178.0910  144.2900 C   0  0  0  0  0  0  0  0  0  0  0  0
  182.9980  178.7630  143.6270 C   0  0  0  0  0  0  0  0  0  0  0  0
  184.8950  178.6410  145.1380 C   0  0  0  0  0  3  0  0  0  0  0  0
  185.7460  178.3120  144.0710 C   0  0  0  0  0  0  0  0  0  0  0  0
  185.2080  178.2190  142.7790 C   0  0  0  0  0  3  0  0  0  0  0  0
  183.8460  178.4380  142.5600 C   0  0  0  0  0  3  0  0  0  0  0  0
  183.5340  178.8650  144.9170 C   0  0  0  0  0  3  0  0  0  0  0  0
  181.0990  179.3740  142.0960 N   0  0  0  0  0  2  0  0  0  0  0  0
  181.5640  179.0030  143.3980 C   0  0  0  0  0  0  0  0  0  0  0  0
  180.7420  178.8730  144.3460 O   0  0  0  0  0  0  0  0  0  0  0  0
  179.6990  179.6540  141.8100 C   0  0  0  0  0  2  0  0  0  0  0  0
  179.4200  179.5150  140.3210 C   0  0  0  0  0  2  0  0  0  0  0  0
  179.9520  178.1910  139.7870 C   0  0  0  0  0  2  0  0  0  0  0  0
  180.4450  178.3270  138.3530 C   0  0  2  0  0  3  0  0  0  0  0  0
  179.7690  177.4200  137.5390 O   0  0  0  0  0  1  0  0  0  0  0  0
  184.2580  178.9240  138.8690 C   0  0  0  0  0  0  0  0  0  0  0  0
  181.9160  178.0840  138.2650 C   0  0  0  0  0  0  0  0  0  0  0  0
  182.8270  178.9820  138.9140 N   0  0  0  0  0  2  0  0  0  0  0  0
  184.9840  177.9320  138.0260 C   0  0  0  0  0  1  0  0  0  0  0  0
  184.9260  179.7500  139.5440 O   0  0  0  0  0  0  0  0  0  0  0  0
  182.3340  177.0840  137.6250 O   0  0  0  0  0  0  0  0  0  0  0  0
  187.7180  178.2520  145.6160 N   0  0  0  0  0  2  0  0  0  0  0  0
  187.4010  177.4250  146.6420 O   0  0  0  0  0  1  0  0  0  0  0  0
  189.3490  177.3880  143.3420 N   0  0  0  0  0  0  0  0  0  0  0  0
  191.6810  177.5070  142.5520 C   0  0  0  0  0  1  0  0  0  0  0  0
  190.2060  177.6310  142.1850 C   0  0  1  0  0  3  0  0  0  0  0  0
  189.8180  176.7110  141.0160 C   0  0  0  0  0  2  0  0  0  0  0  0
  189.4440  178.2860  137.2770 N   0  0  0  0  0  2  0  0  0  0  0  0
  189.8020  176.3800  138.5980 C   0  0  2  0  0  3  0  0  0  0  0  0
  189.1660  176.9100  137.3800 N   0  0  0  0  0  2  0  0  0  0  0  0
  188.6530  178.2530  139.6170 C   0  0  0  0  0  2  0  0  0  0  0  0
  188.6430  178.9940  138.2770 C   0  0  0  0  0  2  0  0  0  0  0  0
  189.8140  177.3680  139.6980 N   0  0  0  0  0  0  0  0  0  0  0  0
  191.2140  175.9080  138.2860 C   0  0  0  0  0  2  0  0  0  0  0  0
  191.1850  174.5450  137.9870 O   0  0  0  0  0  0  0  0  0  0  0  0
  192.0570  174.3900  136.9110 C   0  0  0  0  0  2  0  0  0  0  0  0
  193.3480  175.1860  137.1270 C   0  0  2  0  0  3  0  0  0  0  0  0
  194.6750  176.7670  136.3790 O   0  0  0  0  0  1  0  0  0  0  0  0
  193.8090  175.8560  135.9790 O   0  0  0  0  0  0  0  0  0  0  0  0
  194.4440  174.4640  137.9210 C   0  0  0  0  0  2  0  0  0  0  0  0
  195.4180  172.3350  137.9860 C   0  0  0  0  0  2  0  0  0  0  0  0
  196.5240  173.1940  137.5790 C   0  0  1  0  0  3  0  0  0  0  0  0
  195.1450  173.4770  137.0990 N   0  0  0  0  0  0  0  0  0  0  0  0
  198.1570  174.5190  138.2630 C   0  0  0  0  0  1  0  0  0  0  0  0
  196.9080  174.0230  138.6410 O   0  0  0  0  0  0  0  0  0  0  0  0
  189.7750  176.4640  144.3950 C   0  0  0  0  0  2  0  0  0  0  0  0
  190.6900  177.1600  145.3890 C   0  0  0  0  0  1  0  0  0  0  0  0
  1 25  1  0  0  0  0
  1  2  2  0  0  0  0
  2 23  1  0  0  0  0
  3  8  1  0  0  0  0
  5  2  1  0  0  0  0
  5  4  1  0  0  0  0
  6  5  2  0  0  0  0
  7  6  1  0  0  0  0
  7  3  2  0  0  0  0
  8  4  2  0  0  0  0
  9 10  1  0  0  0  0
 10  3  1  0  0  0  0
 10 11  2  0  0  0  0
 12  9  1  0  0  0  0
 13 12  1  0  0  0  0
 14 13  1  0  0  0  0
 15 16  1  6  0  0  0
 15 14  1  0  0  0  0
 17 19  1  0  0  0  0
 17 21  2  0  0  0  0
 18 15  1  0  0  0  0
 18 19  1  0  0  0  0
 20 17  1  0  0  0  0
 22 18  2  0  0  0  0
 23 24  1  0  0  0  0
 25 47  1  0  0  0  0
 27 26  1  1  0  0  0
 27 25  1  0  0  0  0
 28 27  1  0  0  0  0
 29 31  1  0  0  0  0
 29 33  1  0  0  0  0
 30 35  1  6  0  0  0
 30 34  1  0  0  0  0
 31 30  1  0  0  0  0
 32 34  1  0  0  0  0
 33 32  1  0  0  0  0
 34 28  1  0  0  0  0
 36 35  1  0  0  0  0
 37 36  1  0  0  0  0
 38 37  1  6  0  0  0
 38 41  1  0  0  0  0
 40 39  1  0  0  0  0
 40 38  1  0  0  0  0
 43 42  1  0  0  0  0
 43 46  1  1  0  0  0
 44 43  1  0  0  0  0
 44 41  1  0  0  0  0
 44 42  1  0  0  0  0
 45 46  1  0  0  0  0
 47 48  1  0  0  0  0
M  END
>  <MODEL>
9

>  <REMARK>
 VINA RESULT:      -6.2      2.863      7.688
  Name = 
  21 active torsions:
  status: ('A' for Active; 'I' for Inactive)
    1  A    between atoms: C_1  and  C_23
    2  A    between atoms: C_1  and  C_35
    3  A    between atoms: C_2  and  N_22
    4  A    between atoms: C_2  and  C_23
    5  A    between atoms: C_3  and  N_15
    6  A    between atoms: C_5  and  N_15
    7  A    between atoms: C_6  and  C_25
    8  A    between atoms: C_7  and  N_15
    9  A    between atoms: C_7  and  C_36
   10  A    between atoms: C_8  and  C_16
   11  A    between atoms: C_8  and  N_29
   12  A    between atoms: O_12  and  C_16
   13  A    between atoms: C_13  and  C_38
   14  A    between atoms: C_16  and  C_19
   15  A    between atoms: N_18  and  C_32
   16  A    between atoms: C_19  and  O_31
   17  A    between atoms: C_24  and  C_35
   18  A    between atoms: C_26  and  C_32
   19  A    between atoms: C_27  and  O_41
   20  A    between atoms: O_31  and  C_38
   21  A    between atoms: C_36  and  N_48
                            x       y       z     vdW  Elec       q    Type
                         _______ _______ _______ _____ _____    ______ ____

>  <TORSDO>
F 21

$$$$
