=
 OpenBabel10222418293D

 49 56  0  0  1  0  0  0  0  0999 V2000
  189.9790  177.4610  146.4310 C   0  0  0  0  0  0  0  0  0  0  0  0
  189.5480  176.5460  140.9200 O   0  0  0  0  0  0  0  0  0  0  0  0
  186.2500  178.1940  144.3840 C   0  0  0  0  0  0  0  0  0  0  0  0
  188.7000  177.2980  142.9830 C   0  0  0  0  0  0  0  0  0  0  0  0
  183.3830  179.3270  142.3030 C   0  0  0  0  0  2  0  0  0  0  0  0
  189.9050  176.9190  145.0240 C   0  0  0  0  0  2  0  0  0  0  0  0
  185.1310  178.6800  145.2240 C   0  0  0  0  0  0  0  0  0  0  0  0
  189.4900  176.8310  139.5740 N   0  0  0  0  0  2  0  0  0  0  0  0
  186.4690  177.8220  140.8100 O   0  0  0  0  0  0  0  0  0  0  0  0
  185.5820  178.0400  141.8760 C   0  0  0  0  0  0  0  0  0  0  0  0
  184.0710  178.0920  141.6640 C   0  0  2  0  0  3  0  0  0  0  0  0
  188.6790  177.2830  141.6760 C   0  0  0  0  0  0  0  0  0  0  0  0
  185.1670  178.3840  146.6870 C   0  0  0  0  0  2  0  0  0  0  0  0
  187.3520  177.3910  145.0470 C   0  0  1  0  0  3  0  0  0  0  0  0
  188.4440  177.8620  139.4380 C   0  0  1  0  0  3  0  0  0  0  0  0
  186.5520  178.3400  147.1670 N   0  0  0  0  0  0  0  0  0  0  0  0
  184.0020  178.9730  144.6210 C   0  0  0  0  0  0  0  0  0  0  0  0
  186.0110  178.0980  143.1000 C   0  0  0  0  0  0  0  0  0  0  0  0
  188.6720  177.3550  144.2930 C   0  0  0  0  0  0  0  0  0  0  0  0
  187.8600  178.1680  140.8200 C   0  0  1  0  0  3  0  0  0  0  0  0
  183.0350  179.1760  143.7670 C   0  0  0  0  0  3  0  0  0  0  0  0
  188.8880  177.8730  147.0810 C   0  0  0  0  0  3  0  0  0  0  0  0
  187.5510  177.8750  146.4710 C   0  0  0  0  0  0  0  0  0  0  0  0
  183.6490  177.9810  140.1940 C   0  0  1  0  0  3  0  0  0  0  0  0
  182.9030  176.8170  139.9820 O   0  0  0  0  0  1  0  0  0  0  0  0
  182.8590  179.1920  139.7130 C   0  0  0  0  0  2  0  0  0  0  0  0
  181.5090  180.1640  137.7680 C   0  0  2  0  0  3  0  0  0  0  0  0
  182.2020  178.9370  138.3540 C   0  0  2  0  0  3  0  0  0  0  0  0
  181.5000  181.2510  138.6700 O   0  0  0  0  0  0  0  0  0  0  0  0
  179.9070  179.6760  139.4450 C   0  0  2  0  0  3  0  0  0  0  0  0
  180.3550  181.1150  139.4740 C   0  0  0  0  0  2  0  0  0  0  0  0
  180.1540  179.0140  140.7130 N   0  0  0  0  0  1  0  0  0  0  0  0
  180.6670  179.0240  138.3120 C   0  0  1  0  0  3  0  0  0  0  0  0
  191.2000  177.5080  147.1080 O   0  0  0  0  0  0  0  0  0  0  0  0
  191.5660  176.5520  148.0940 C   0  0  0  0  0  2  0  0  0  0  0  0
  192.4130  174.9330  146.4010 O   0  0  0  0  0  0  0  0  0  0  0  0
  193.7650  175.6320  148.1180 O   0  0  0  0  0  1  0  0  0  0  0  0
  192.6390  175.6730  147.5550 C   0  0  0  0  0  0  0  0  0  0  0  0
  189.0290  179.1300  138.8480 C   0  0  0  0  0  2  0  0  0  0  0  0
  188.4400  179.3980  137.5480 N   0  0  0  0  0  2  0  0  0  0  0  0
  188.9280  178.3710  136.6450 C   0  0  0  0  0  2  0  0  0  0  0  0
  187.5960  176.3240  136.2730 C   0  0  1  0  0  3  0  0  0  0  0  0
  188.2610  176.6700  134.9570 C   0  0  0  0  0  2  0  0  0  0  0  0
  187.7650  177.7760  135.8700 C   0  0  2  0  0  3  0  0  0  0  0  0
  186.2600  175.9260  136.0300 O   0  0  0  0  0  0  0  0  0  0  0  0
  184.4330  175.2730  137.3520 N   0  0  0  0  0  0  0  0  0  0  0  0
  185.2700  176.1930  136.9720 C   0  0  0  0  0  3  0  0  0  0  0  0
  184.4620  173.9120  136.8300 C   0  0  0  0  0  2  0  0  0  0  0  0
  185.2510  173.0070  137.7630 C   0  0  0  0  0  1  0  0  0  0  0  0
  1 22  2  0  0  0  0
  1 34  1  0  0  0  0
  2 12  1  0  0  0  0
  3 14  1  0  0  0  0
  3  7  1  0  0  0  0
  4 19  2  0  0  0  0
  5 21  1  0  0  0  0
  6  1  1  0  0  0  0
  7 13  1  0  0  0  0
  8  2  1  0  0  0  0
  9 10  1  0  0  0  0
 10 18  2  0  0  0  0
 11 24  1  6  0  0  0
 11 10  1  0  0  0  0
 11  5  1  0  0  0  0
 12  4  2  0  0  0  0
 13 16  1  0  0  0  0
 14 19  1  6  0  0  0
 14 23  1  0  0  0  0
 15 39  1  1  0  0  0
 15  8  1  0  0  0  0
 15 20  1  0  0  0  0
 17  7  2  0  0  0  0
 18  3  2  0  0  0  0
 19  6  1  0  0  0  0
 20  9  1  6  0  0  0
 20 12  1  0  0  0  0
 21 17  2  0  0  0  0
 23 22  1  0  0  0  0
 23 16  2  0  0  0  0
 24 25  1  1  0  0  0
 26 24  1  0  0  0  0
 27 33  1  0  0  0  0
 27 28  1  0  0  0  0
 27 29  1  1  0  0  0
 28 26  1  1  0  0  0
 29 31  1  0  0  0  0
 30 31  1  0  0  0  0
 30 32  1  1  0  0  0
 33 28  1  0  0  0  0
 33 30  1  0  0  0  0
 34 35  1  0  0  0  0
 36 38  2  0  0  0  0
 38 35  1  0  0  0  0
 38 37  1  0  0  0  0
 40 39  1  0  0  0  0
 41 40  1  0  0  0  0
 43 44  1  0  0  0  0
 43 42  1  0  0  0  0
 44 42  1  0  0  0  0
 44 41  1  0  0  0  0
 45 42  1  0  0  0  0
 45 47  1  0  0  0  0
 47 46  2  0  0  0  0
 48 46  1  0  0  0  0
 48 49  1  0  0  0  0
M  END
>  <MODEL>
1

>  <REMARK>
 VINA RESULT:      -8.7      0.000      0.000
  Name = 
  13 active torsions:
  status: ('A' for Active; 'I' for Inactive)
    1  A    between atoms: C_1  and  O_9
    2  A    between atoms: C_2  and  O_15
    3  A    between atoms: C_3  and  N_29
    4  A    between atoms: C_5  and  C_22
    5  A    between atoms: C_5  and  C_38
    6  A    between atoms: C_6  and  N_17
    7  A    between atoms: C_6  and  C_33
    8  A    between atoms: O_9  and  C_49
    9  A    between atoms: O_15  and  C_31
   10  A    between atoms: N_17  and  C_32
   11  A    between atoms: C_25  and  C_38
   12  A    between atoms: C_31  and  C_34
   13  A    between atoms: C_32  and  C_36
                            x       y       z     vdW  Elec       q    Type
                         _______ _______ _______ _____ _____    ______ ____

>  <TORSDO>
F 13

$$$$
=
 OpenBabel10222418293D

 49 56  0  0  1  0  0  0  0  0999 V2000
  192.7190  176.1880  137.8910 C   0  0  0  0  0  0  0  0  0  0  0  0
  189.8070  178.6410  142.0030 O   0  0  0  0  0  0  0  0  0  0  0  0
  188.5150  177.0290  137.3850 C   0  0  0  0  0  0  0  0  0  0  0  0
  189.9750  177.6050  139.8960 C   0  0  0  0  0  0  0  0  0  0  0  0
  184.8050  177.2850  137.4420 C   0  0  0  0  0  2  0  0  0  0  0  0
  192.1170  177.0910  138.9410 C   0  0  0  0  0  2  0  0  0  0  0  0
  187.9260  176.6410  136.0820 C   0  0  0  0  0  0  0  0  0  0  0  0
  188.9450  178.7570  143.0700 N   0  0  0  0  0  2  0  0  0  0  0  0
  186.9260  178.2850  140.3600 O   0  0  0  0  0  0  0  0  0  0  0  0
  186.7330  178.0240  138.9950 C   0  0  0  0  0  0  0  0  0  0  0  0
  185.4480  178.4250  138.2760 C   0  0  2  0  0  3  0  0  0  0  0  0
  189.2720  177.9780  140.9320 C   0  0  0  0  0  0  0  0  0  0  0  0
  188.8380  176.5090  134.9070 C   0  0  0  0  0  2  0  0  0  0  0  0
  190.0040  177.3080  137.4470 C   0  0  1  0  0  3  0  0  0  0  0  0
  187.6940  178.1090  142.6330 C   0  0  1  0  0  3  0  0  0  0  0  0
  190.1660  176.0620  135.3360 N   0  0  0  0  0  0  0  0  0  0  0  0
  186.6360  176.8250  135.9200 C   0  0  0  0  0  0  0  0  0  0  0  0
  187.6880  177.5280  138.2690 C   0  0  0  0  0  0  0  0  0  0  0  0
  190.6270  177.2040  138.8310 C   0  0  0  0  0  0  0  0  0  0  0  0
  187.8670  177.6020  141.1980 C   0  0  1  0  0  3  0  0  0  0  0  0
  185.3710  177.1190  136.0490 C   0  0  0  0  0  3  0  0  0  0  0  0
  192.0780  175.9120  136.7530 C   0  0  0  0  0  3  0  0  0  0  0  0
  190.7320  176.4230  136.4540 C   0  0  0  0  0  0  0  0  0  0  0  0
  184.3870  179.0360  139.2000 C   0  0  1  0  0  3  0  0  0  0  0  0
  184.3880  180.4300  139.0980 O   0  0  0  0  0  1  0  0  0  0  0  0
  182.9870  178.5010  138.9270 C   0  0  0  0  0  2  0  0  0  0  0  0
  181.6660  176.4870  139.7960 C   0  0  2  0  0  3  0  0  0  0  0  0
  182.4100  177.7740  140.1450 C   0  0  2  0  0  3  0  0  0  0  0  0
  181.5480  176.3050  138.4000 O   0  0  0  0  0  0  0  0  0  0  0  0
  180.0240  178.0120  139.0220 C   0  0  2  0  0  3  0  0  0  0  0  0
  180.3780  176.9690  137.9920 C   0  0  0  0  0  2  0  0  0  0  0  0
  180.2560  179.3550  138.5230 N   0  0  0  0  0  1  0  0  0  0  0  0
  180.8760  177.7070  140.2330 C   0  0  1  0  0  3  0  0  0  0  0  0
  193.9930  175.6450  138.0720 O   0  0  0  0  0  0  0  0  0  0  0  0
  194.2820  174.2750  137.8260 C   0  0  0  0  0  2  0  0  0  0  0  0
  195.8410  172.5240  138.6670 O   0  0  0  0  0  0  0  0  0  0  0  0
  196.0200  174.6890  139.4030 O   0  0  0  0  0  1  0  0  0  0  0  0
  195.4170  173.8470  138.6880 C   0  0  0  0  0  0  0  0  0  0  0  0
  187.3620  176.9410  143.5420 C   0  0  0  0  0  2  0  0  0  0  0  0
  186.4360  177.3600  144.5790 N   0  0  0  0  0  2  0  0  0  0  0  0
  186.9420  176.8290  145.8330 C   0  0  0  0  0  2  0  0  0  0  0  0
  188.8580  176.8960  147.3920 C   0  0  1  0  0  3  0  0  0  0  0  0
  187.9540  178.0600  147.7430 C   0  0  0  0  0  2  0  0  0  0  0  0
  188.1340  177.6510  146.2930 C   0  0  2  0  0  3  0  0  0  0  0  0
  190.2070  177.3230  147.4380 O   0  0  0  0  0  0  0  0  0  0  0  0
  191.8690  176.2400  146.1830 N   0  0  0  0  0  0  0  0  0  0  0  0
  191.2360  176.3940  147.3080 C   0  0  0  0  0  3  0  0  0  0  0  0
  191.5560  177.0120  144.9870 C   0  0  0  0  0  2  0  0  0  0  0  0
  191.5660  176.1120  143.7610 C   0  0  0  0  0  1  0  0  0  0  0  0
  1 34  1  0  0  0  0
  1  6  1  0  0  0  0
  2  8  1  0  0  0  0
  3 14  1  0  0  0  0
  3 18  2  0  0  0  0
  4 12  2  0  0  0  0
  5 11  1  0  0  0  0
  7  3  1  0  0  0  0
 10  9  1  0  0  0  0
 11 10  1  0  0  0  0
 11 24  1  1  0  0  0
 12 20  1  0  0  0  0
 12  2  1  0  0  0  0
 13 16  1  0  0  0  0
 13  7  1  0  0  0  0
 14 23  1  6  0  0  0
 14 19  1  0  0  0  0
 15  8  1  0  0  0  0
 15 39  1  1  0  0  0
 16 23  2  0  0  0  0
 17 21  2  0  0  0  0
 17  7  2  0  0  0  0
 18 10  2  0  0  0  0
 19  6  1  0  0  0  0
 19  4  2  0  0  0  0
 20  9  1  6  0  0  0
 20 15  1  0  0  0  0
 21  5  1  0  0  0  0
 22  1  2  0  0  0  0
 23 22  1  0  0  0  0
 24 25  1  6  0  0  0
 26 24  1  0  0  0  0
 27 29  1  6  0  0  0
 27 28  1  0  0  0  0
 27 33  1  0  0  0  0
 28 26  1  6  0  0  0
 28 33  1  0  0  0  0
 30 32  1  6  0  0  0
 30 33  1  0  0  0  0
 31 29  1  0  0  0  0
 31 30  1  0  0  0  0
 35 34  1  0  0  0  0
 35 38  1  0  0  0  0
 36 38  2  0  0  0  0
 38 37  1  0  0  0  0
 39 40  1  0  0  0  0
 40 41  1  0  0  0  0
 41 44  1  0  0  0  0
 42 45  1  0  0  0  0
 42 43  1  0  0  0  0
 44 42  1  0  0  0  0
 44 43  1  0  0  0  0
 46 47  2  0  0  0  0
 47 45  1  0  0  0  0
 48 46  1  0  0  0  0
 49 48  1  0  0  0  0
M  END
>  <MODEL>
2

>  <REMARK>
 VINA RESULT:      -7.9      3.136      7.794
  Name = 
  13 active torsions:
  status: ('A' for Active; 'I' for Inactive)
    1  A    between atoms: C_1  and  O_9
    2  A    between atoms: C_2  and  O_15
    3  A    between atoms: C_3  and  N_29
    4  A    between atoms: C_5  and  C_22
    5  A    between atoms: C_5  and  C_38
    6  A    between atoms: C_6  and  N_17
    7  A    between atoms: C_6  and  C_33
    8  A    between atoms: O_9  and  C_49
    9  A    between atoms: O_15  and  C_31
   10  A    between atoms: N_17  and  C_32
   11  A    between atoms: C_25  and  C_38
   12  A    between atoms: C_31  and  C_34
   13  A    between atoms: C_32  and  C_36
                            x       y       z     vdW  Elec       q    Type
                         _______ _______ _______ _____ _____    ______ ____

>  <TORSDO>
F 13

$$$$
=
 OpenBabel10222418293D

 49 56  0  0  1  0  0  0  0  0999 V2000
  189.8660  177.3060  146.7480 C   0  0  0  0  0  0  0  0  0  0  0  0
  189.4350  176.3550  141.2430 O   0  0  0  0  0  0  0  0  0  0  0  0
  186.1980  178.2100  144.6600 C   0  0  0  0  0  0  0  0  0  0  0  0
  188.6090  177.1730  143.2900 C   0  0  0  0  0  0  0  0  0  0  0  0
  183.4120  179.4690  142.5410 C   0  0  0  0  0  2  0  0  0  0  0  0
  189.7760  176.7540  145.3460 C   0  0  0  0  0  2  0  0  0  0  0  0
  185.0990  178.7630  145.4840 C   0  0  0  0  0  0  0  0  0  0  0  0
  189.4030  176.6280  139.8940 N   0  0  0  0  0  2  0  0  0  0  0  0
  186.4270  177.7890  141.0920 O   0  0  0  0  0  0  0  0  0  0  0  0
  185.5450  178.0650  142.1470 C   0  0  0  0  0  0  0  0  0  0  0  0
  184.0400  178.1930  141.9220 C   0  0  2  0  0  3  0  0  0  0  0  0
  188.5990  177.1440  141.9840 C   0  0  0  0  0  0  0  0  0  0  0  0
  185.1070  178.4820  146.9510 C   0  0  0  0  0  2  0  0  0  0  0  0
  187.2500  177.3590  145.3400 C   0  0  1  0  0  3  0  0  0  0  0  0
  188.4130  177.7100  139.7370 C   0  0  1  0  0  3  0  0  0  0  0  0
  186.4830  178.3700  147.4430 N   0  0  0  0  0  0  0  0  0  0  0  0
  183.9920  179.1080  144.8680 C   0  0  0  0  0  0  0  0  0  0  0  0
  185.9660  178.1130  143.3750 C   0  0  0  0  0  0  0  0  0  0  0  0
  188.5740  177.2450  144.5990 C   0  0  0  0  0  0  0  0  0  0  0  0
  187.8350  178.0610  141.1110 C   0  0  1  0  0  3  0  0  0  0  0  0
  183.0440  179.3520  144.0040 C   0  0  0  0  0  3  0  0  0  0  0  0
  188.7930  177.7820  147.3840 C   0  0  0  0  0  3  0  0  0  0  0  0
  187.4620  177.8460  146.7610 C   0  0  0  0  0  0  0  0  0  0  0  0
  183.6250  178.0880  140.4490 C   0  0  1  0  0  3  0  0  0  0  0  0
  183.2250  176.7840  140.1410 O   0  0  0  0  0  1  0  0  0  0  0  0
  182.5180  179.0660  140.0760 C   0  0  0  0  0  2  0  0  0  0  0  0
  181.8620  180.9010  138.4170 C   0  0  2  0  0  3  0  0  0  0  0  0
  182.7620  179.7020  138.7050 C   0  0  2  0  0  3  0  0  0  0  0  0
  180.8920  181.0920  139.4250 O   0  0  0  0  0  0  0  0  0  0  0  0
  180.2220  179.2120  138.1450 C   0  0  2  0  0  3  0  0  0  0  0  0
  179.7780  180.3050  139.0840 C   0  0  0  0  0  2  0  0  0  0  0  0
  180.2010  177.9120  138.7900 N   0  0  0  0  0  1  0  0  0  0  0  0
  181.6130  179.5930  137.6890 C   0  0  1  0  0  3  0  0  0  0  0  0
  191.0820  177.2970  147.4360 O   0  0  0  0  0  0  0  0  0  0  0  0
  191.9260  176.1540  147.4820 C   0  0  0  0  0  2  0  0  0  0  0  0
  192.9570  177.4540  149.3410 O   0  0  0  0  0  1  0  0  0  0  0  0
  193.4000  175.2160  149.1030 O   0  0  0  0  0  0  0  0  0  0  0  0
  192.8130  176.2440  148.6740 C   0  0  0  0  0  0  0  0  0  0  0  0
  189.0700  178.9400  139.1390 C   0  0  0  0  0  2  0  0  0  0  0  0
  188.4320  179.2880  137.8830 N   0  0  0  0  0  2  0  0  0  0  0  0
  189.2970  178.8010  136.8230 C   0  0  0  0  0  2  0  0  0  0  0  0
  190.2020  176.6000  136.1580 C   0  0  1  0  0  3  0  0  0  0  0  0
  189.2900  177.0650  135.0420 C   0  0  0  0  0  2  0  0  0  0  0  0
  188.9330  177.3650  136.4860 C   0  0  2  0  0  3  0  0  0  0  0  0
  189.9870  175.2210  136.3920 O   0  0  0  0  0  0  0  0  0  0  0  0
  191.6680  173.6280  136.7770 N   0  0  0  0  0  0  0  0  0  0  0  0
  190.8390  174.5160  137.2390 C   0  0  0  0  0  3  0  0  0  0  0  0
  191.7710  173.3020  135.3590 C   0  0  0  0  0  2  0  0  0  0  0  0
  192.2680  171.8760  135.1810 C   0  0  0  0  0  1  0  0  0  0  0  0
  1 22  2  0  0  0  0
  1 34  1  0  0  0  0
  2 12  1  0  0  0  0
  3 14  1  0  0  0  0
  3  7  1  0  0  0  0
  4 19  2  0  0  0  0
  5 21  1  0  0  0  0
  6  1  1  0  0  0  0
  7 13  1  0  0  0  0
  8  2  1  0  0  0  0
  9 10  1  0  0  0  0
 10 18  2  0  0  0  0
 11 24  1  6  0  0  0
 11 10  1  0  0  0  0
 11  5  1  0  0  0  0
 12  4  2  0  0  0  0
 13 16  1  0  0  0  0
 14 19  1  6  0  0  0
 14 23  1  0  0  0  0
 15 39  1  1  0  0  0
 15  8  1  0  0  0  0
 15 20  1  0  0  0  0
 17  7  2  0  0  0  0
 18  3  2  0  0  0  0
 19  6  1  0  0  0  0
 20  9  1  6  0  0  0
 20 12  1  0  0  0  0
 21 17  2  0  0  0  0
 23 22  1  0  0  0  0
 23 16  2  0  0  0  0
 24 25  1  1  0  0  0
 26 24  1  0  0  0  0
 27 28  1  0  0  0  0
 27 29  1  1  0  0  0
 28 26  1  1  0  0  0
 30 32  1  1  0  0  0
 30 31  1  0  0  0  0
 31 29  1  0  0  0  0
 33 30  1  0  0  0  0
 33 27  1  0  0  0  0
 33 28  1  0  0  0  0
 34 35  1  0  0  0  0
 35 38  1  0  0  0  0
 38 37  2  0  0  0  0
 38 36  1  0  0  0  0
 40 39  1  0  0  0  0
 41 40  1  0  0  0  0
 42 45  1  0  0  0  0
 42 44  1  0  0  0  0
 43 42  1  0  0  0  0
 43 44  1  0  0  0  0
 44 41  1  0  0  0  0
 45 47  1  0  0  0  0
 46 47  2  0  0  0  0
 48 46  1  0  0  0  0
 49 48  1  0  0  0  0
M  END
>  <MODEL>
3

>  <REMARK>
 VINA RESULT:      -7.9      1.757      2.313
  Name = 
  13 active torsions:
  status: ('A' for Active; 'I' for Inactive)
    1  A    between atoms: C_1  and  O_9
    2  A    between atoms: C_2  and  O_15
    3  A    between atoms: C_3  and  N_29
    4  A    between atoms: C_5  and  C_22
    5  A    between atoms: C_5  and  C_38
    6  A    between atoms: C_6  and  N_17
    7  A    between atoms: C_6  and  C_33
    8  A    between atoms: O_9  and  C_49
    9  A    between atoms: O_15  and  C_31
   10  A    between atoms: N_17  and  C_32
   11  A    between atoms: C_25  and  C_38
   12  A    between atoms: C_31  and  C_34
   13  A    between atoms: C_32  and  C_36
                            x       y       z     vdW  Elec       q    Type
                         _______ _______ _______ _____ _____    ______ ____

>  <TORSDO>
F 13

$$$$
=
 OpenBabel10222418293D

 49 56  0  0  1  0  0  0  0  0999 V2000
  189.7210  177.2940  146.6230 C   0  0  0  0  0  0  0  0  0  0  0  0
  189.4020  176.4880  141.0870 O   0  0  0  0  0  0  0  0  0  0  0  0
  186.0740  178.1920  144.4950 C   0  0  0  0  0  0  0  0  0  0  0  0
  188.5270  177.2350  143.1410 C   0  0  0  0  0  0  0  0  0  0  0  0
  183.3030  179.4610  142.3630 C   0  0  0  0  0  2  0  0  0  0  0  0
  189.6650  176.7790  145.2050 C   0  0  0  0  0  2  0  0  0  0  0  0
  184.9510  178.7030  145.3150 C   0  0  0  0  0  0  0  0  0  0  0  0
  189.3880  176.7970  139.7460 N   0  0  0  0  0  2  0  0  0  0  0  0
  186.3720  177.8730  140.9220 O   0  0  0  0  0  0  0  0  0  0  0  0
  185.4670  178.1040  141.9690 C   0  0  0  0  0  0  0  0  0  0  0  0
  183.9640  178.2130  141.7200 C   0  0  2  0  0  3  0  0  0  0  0  0
  188.5390  177.2420  141.8350 C   0  0  0  0  0  0  0  0  0  0  0  0
  184.9390  178.3820  146.7730 C   0  0  0  0  0  2  0  0  0  0  0  0
  187.1300  177.3400  145.1710 C   0  0  1  0  0  3  0  0  0  0  0  0
  188.3820  177.8660  139.6010 C   0  0  1  0  0  3  0  0  0  0  0  0
  186.3090  178.2810  147.2870 N   0  0  0  0  0  0  0  0  0  0  0  0
  183.8490  179.0460  144.6890 C   0  0  0  0  0  0  0  0  0  0  0  0
  185.8650  178.1260  143.2050 C   0  0  0  0  0  0  0  0  0  0  0  0
  188.4670  177.2710  144.4510 C   0  0  0  0  0  0  0  0  0  0  0  0
  187.7740  178.1690  140.9740 C   0  0  1  0  0  3  0  0  0  0  0  0
  182.9120  179.2970  143.8150 C   0  0  0  0  0  3  0  0  0  0  0  0
  188.6290  177.7340  147.2530 C   0  0  0  0  0  3  0  0  0  0  0  0
  187.3080  177.7930  146.6090 C   0  0  0  0  0  0  0  0  0  0  0  0
  183.5760  178.1410  140.2380 C   0  0  1  0  0  3  0  0  0  0  0  0
  184.7170  178.1470  139.4290 O   0  0  0  0  0  1  0  0  0  0  0  0
  182.7200  176.9240  139.9100 C   0  0  0  0  0  2  0  0  0  0  0  0
  182.3730  176.6260  137.3910 C   0  0  2  0  0  3  0  0  0  0  0  0
  183.1850  176.2350  138.6240 C   0  0  2  0  0  3  0  0  0  0  0  0
  181.2690  177.4430  137.7190 O   0  0  0  0  0  0  0  0  0  0  0  0
  180.7430  175.2360  138.4050 C   0  0  2  0  0  3  0  0  0  0  0  0
  180.1960  176.5890  138.0270 C   0  0  0  0  0  2  0  0  0  0  0  0
  180.5880  174.9750  139.8250 N   0  0  0  0  0  1  0  0  0  0  0  0
  182.1960  175.2420  137.9890 C   0  0  1  0  0  3  0  0  0  0  0  0
  190.9250  177.2880  147.3310 O   0  0  0  0  0  0  0  0  0  0  0  0
  191.7880  176.1580  147.3630 C   0  0  0  0  0  2  0  0  0  0  0  0
  192.7740  177.4830  149.2280 O   0  0  0  0  0  1  0  0  0  0  0  0
  193.6030  175.4070  148.7120 O   0  0  0  0  0  0  0  0  0  0  0  0
  192.7830  176.3270  148.4570 C   0  0  0  0  0  0  0  0  0  0  0  0
  189.0270  179.1230  139.0490 C   0  0  0  0  0  2  0  0  0  0  0  0
  188.5470  179.3830  137.7030 N   0  0  0  0  0  2  0  0  0  0  0  0
  189.2870  178.5040  136.8160 C   0  0  0  0  0  2  0  0  0  0  0  0
  188.7700  176.1560  136.2460 C   0  0  1  0  0  3  0  0  0  0  0  0
  189.0430  176.8830  134.9450 C   0  0  0  0  0  2  0  0  0  0  0  0
  188.3210  177.5950  136.0740 C   0  0  2  0  0  3  0  0  0  0  0  0
  187.6560  175.2990  136.0760 O   0  0  0  0  0  0  0  0  0  0  0  0
  185.8490  174.3870  137.2650 N   0  0  0  0  0  0  0  0  0  0  0  0
  186.5460  175.4240  136.9080 C   0  0  0  0  0  3  0  0  0  0  0  0
  186.1660  173.0320  136.8310 C   0  0  0  0  0  2  0  0  0  0  0  0
  184.8910  172.2190  136.6690 C   0  0  0  0  0  1  0  0  0  0  0  0
  1 22  2  0  0  0  0
  1 34  1  0  0  0  0
  2 12  1  0  0  0  0
  3 14  1  0  0  0  0
  3  7  1  0  0  0  0
  4 19  2  0  0  0  0
  5 21  1  0  0  0  0
  6  1  1  0  0  0  0
  7 13  1  0  0  0  0
  8  2  1  0  0  0  0
  9 10  1  0  0  0  0
 10 18  2  0  0  0  0
 11 24  1  6  0  0  0
 11 10  1  0  0  0  0
 11  5  1  0  0  0  0
 12  4  2  0  0  0  0
 13 16  1  0  0  0  0
 14 19  1  6  0  0  0
 14 23  1  0  0  0  0
 15 39  1  1  0  0  0
 15  8  1  0  0  0  0
 15 20  1  0  0  0  0
 17  7  2  0  0  0  0
 18  3  2  0  0  0  0
 19  6  1  0  0  0  0
 20  9  1  6  0  0  0
 20 12  1  0  0  0  0
 21 17  2  0  0  0  0
 23 22  1  0  0  0  0
 23 16  2  0  0  0  0
 24 25  1  6  0  0  0
 26 24  1  0  0  0  0
 27 29  1  1  0  0  0
 27 33  1  0  0  0  0
 27 28  1  0  0  0  0
 28 26  1  1  0  0  0
 29 31  1  0  0  0  0
 30 32  1  1  0  0  0
 31 30  1  0  0  0  0
 33 30  1  0  0  0  0
 33 28  1  0  0  0  0
 34 35  1  0  0  0  0
 35 38  1  0  0  0  0
 38 37  2  0  0  0  0
 38 36  1  0  0  0  0
 40 39  1  0  0  0  0
 41 40  1  0  0  0  0
 43 44  1  0  0  0  0
 43 42  1  0  0  0  0
 44 42  1  0  0  0  0
 44 41  1  0  0  0  0
 45 42  1  0  0  0  0
 45 47  1  0  0  0  0
 47 46  2  0  0  0  0
 48 46  1  0  0  0  0
 49 48  1  0  0  0  0
M  END
>  <MODEL>
4

>  <REMARK>
 VINA RESULT:      -7.7      1.582      1.808
  Name = 
  13 active torsions:
  status: ('A' for Active; 'I' for Inactive)
    1  A    between atoms: C_1  and  O_9
    2  A    between atoms: C_2  and  O_15
    3  A    between atoms: C_3  and  N_29
    4  A    between atoms: C_5  and  C_22
    5  A    between atoms: C_5  and  C_38
    6  A    between atoms: C_6  and  N_17
    7  A    between atoms: C_6  and  C_33
    8  A    between atoms: O_9  and  C_49
    9  A    between atoms: O_15  and  C_31
   10  A    between atoms: N_17  and  C_32
   11  A    between atoms: C_25  and  C_38
   12  A    between atoms: C_31  and  C_34
   13  A    between atoms: C_32  and  C_36
                            x       y       z     vdW  Elec       q    Type
                         _______ _______ _______ _____ _____    ______ ____

>  <TORSDO>
F 13

$$$$
=
 OpenBabel10222418293D

 49 56  0  0  1  0  0  0  0  0999 V2000
  193.1800  174.4660  135.9190 C   0  0  0  0  0  0  0  0  0  0  0  0
  189.6530  178.5310  137.4810 O   0  0  0  0  0  0  0  0  0  0  0  0
  188.9430  173.6870  136.2020 C   0  0  0  0  0  0  0  0  0  0  0  0
  190.1430  176.3020  136.9000 C   0  0  0  0  0  0  0  0  0  0  0  0
  185.3840  173.1170  137.1200 C   0  0  0  0  0  2  0  0  0  0  0  0
  192.3130  175.6920  136.0740 C   0  0  0  0  0  2  0  0  0  0  0  0
  188.5090  172.3140  135.8580 C   0  0  0  0  0  0  0  0  0  0  0  0
  188.8230  179.2620  138.3000 N   0  0  0  0  0  2  0  0  0  0  0  0
  187.0590  176.4360  137.5650 O   0  0  0  0  0  0  0  0  0  0  0  0
  186.9490  175.1680  136.9750 C   0  0  0  0  0  0  0  0  0  0  0  0
  185.5940  174.5670  136.6090 C   0  0  2  0  0  3  0  0  0  0  0  0
  189.3710  177.1920  137.4650 C   0  0  0  0  0  0  0  0  0  0  0  0
  189.3890  171.4970  134.9700 C   0  0  0  0  0  2  0  0  0  0  0  0
  190.2370  174.2040  135.6060 C   0  0  1  0  0  3  0  0  0  0  0  0
  187.8750  178.2850  138.8680 C   0  0  1  0  0  3  0  0  0  0  0  0
  190.7970  171.8510  135.1790 N   0  0  0  0  0  0  0  0  0  0  0  0
  187.2350  172.0270  135.9950 C   0  0  0  0  0  0  0  0  0  0  0  0
  188.0070  174.5030  136.6170 C   0  0  0  0  0  0  0  0  0  0  0  0
  190.8780  175.3640  136.3530 C   0  0  0  0  0  0  0  0  0  0  0  0
  188.1940  176.8950  138.3100 C   0  0  1  0  0  3  0  0  0  0  0  0
  185.9500  172.0380  136.2240 C   0  0  0  0  0  3  0  0  0  0  0  0
  192.6600  173.2760  135.6080 C   0  0  0  0  0  3  0  0  0  0  0  0
  191.2160  173.0580  135.4370 C   0  0  0  0  0  0  0  0  0  0  0  0
  184.4010  175.4320  137.0330 C   0  0  1  0  0  3  0  0  0  0  0  0
  184.1970  176.4720  136.1220 O   0  0  0  0  0  1  0  0  0  0  0  0
  183.1160  174.6280  137.1920 C   0  0  0  0  0  2  0  0  0  0  0  0
  180.7270  175.5310  137.0220 C   0  0  2  0  0  3  0  0  0  0  0  0
  182.0040  175.1500  136.2780 C   0  0  2  0  0  3  0  0  0  0  0  0
  180.7890  175.1920  138.3920 O   0  0  0  0  0  0  0  0  0  0  0  0
  180.4850  173.1780  137.1790 C   0  0  2  0  0  3  0  0  0  0  0  0
  180.3410  173.8660  138.5130 C   0  0  0  0  0  2  0  0  0  0  0  0
  181.5550  172.1970  137.1970 N   0  0  0  0  0  1  0  0  0  0  0  0
  180.7440  174.2750  136.1700 C   0  0  1  0  0  3  0  0  0  0  0  0
  194.5660  174.5560  136.0620 O   0  0  0  0  0  0  0  0  0  0  0  0
  195.3260  173.5910  136.7770 C   0  0  0  0  0  2  0  0  0  0  0  0
  195.1560  175.2500  138.6280 O   0  0  0  0  0  0  0  0  0  0  0  0
  195.4100  173.0170  139.0890 O   0  0  0  0  0  1  0  0  0  0  0  0
  195.3160  173.9290  138.2270 C   0  0  0  0  0  0  0  0  0  0  0  0
  187.9920  178.2580  140.3800 C   0  0  0  0  0  2  0  0  0  0  0  0
  186.7520  178.7070  140.9880 N   0  0  0  0  0  2  0  0  0  0  0  0
  186.7650  178.2430  142.3640 C   0  0  0  0  0  2  0  0  0  0  0  0
  188.0740  176.3880  143.3400 C   0  0  1  0  0  3  0  0  0  0  0  0
  188.2700  177.5940  144.2350 C   0  0  0  0  0  2  0  0  0  0  0  0
  188.1630  177.7750  142.7320 C   0  0  2  0  0  3  0  0  0  0  0  0
  189.3140  175.7260  143.1710 O   0  0  0  0  0  0  0  0  0  0  0  0
  191.5520  176.4340  143.2180 N   0  0  0  0  0  0  0  0  0  0  0  0
  190.3970  176.4040  142.6200 C   0  0  0  0  0  3  0  0  0  0  0  0
  191.8000  175.7710  144.4920 C   0  0  0  0  0  2  0  0  0  0  0  0
  191.6280  176.7550  145.6390 C   0  0  0  0  0  1  0  0  0  0  0  0
  1 34  1  0  0  0  0
  1  6  1  0  0  0  0
  2  8  1  0  0  0  0
  3 18  2  0  0  0  0
  4 12  2  0  0  0  0
  6 19  1  0  0  0  0
  7 17  2  0  0  0  0
  7  3  1  0  0  0  0
  8 15  1  0  0  0  0
  9 20  1  0  0  0  0
 10  9  1  0  0  0  0
 11 10  1  0  0  0  0
 11 24  1  1  0  0  0
 11  5  1  0  0  0  0
 12  2  1  0  0  0  0
 13 16  1  0  0  0  0
 13  7  1  0  0  0  0
 14 23  1  1  0  0  0
 14  3  1  0  0  0  0
 14 19  1  0  0  0  0
 15 39  1  1  0  0  0
 16 23  2  0  0  0  0
 17 21  2  0  0  0  0
 18 10  2  0  0  0  0
 19  4  2  0  0  0  0
 20 12  1  6  0  0  0
 20 15  1  0  0  0  0
 21  5  1  0  0  0  0
 22  1  2  0  0  0  0
 23 22  1  0  0  0  0
 24 25  1  6  0  0  0
 24 26  1  0  0  0  0
 27 29  1  1  0  0  0
 28 27  1  0  0  0  0
 28 26  1  1  0  0  0
 29 31  1  0  0  0  0
 30 32  1  1  0  0  0
 30 31  1  0  0  0  0
 33 28  1  0  0  0  0
 33 27  1  0  0  0  0
 33 30  1  0  0  0  0
 34 35  1  0  0  0  0
 35 38  1  0  0  0  0
 38 36  2  0  0  0  0
 38 37  1  0  0  0  0
 39 40  1  0  0  0  0
 40 41  1  0  0  0  0
 41 44  1  0  0  0  0
 42 43  1  0  0  0  0
 44 42  1  0  0  0  0
 44 43  1  0  0  0  0
 45 42  1  0  0  0  0
 46 48  1  0  0  0  0
 47 45  1  0  0  0  0
 47 46  2  0  0  0  0
 48 49  1  0  0  0  0
M  END
>  <MODEL>
5

>  <REMARK>
 VINA RESULT:      -7.1      3.774      8.422
  Name = 
  13 active torsions:
  status: ('A' for Active; 'I' for Inactive)
    1  A    between atoms: C_1  and  O_9
    2  A    between atoms: C_2  and  O_15
    3  A    between atoms: C_3  and  N_29
    4  A    between atoms: C_5  and  C_22
    5  A    between atoms: C_5  and  C_38
    6  A    between atoms: C_6  and  N_17
    7  A    between atoms: C_6  and  C_33
    8  A    between atoms: O_9  and  C_49
    9  A    between atoms: O_15  and  C_31
   10  A    between atoms: N_17  and  C_32
   11  A    between atoms: C_25  and  C_38
   12  A    between atoms: C_31  and  C_34
   13  A    between atoms: C_32  and  C_36
                            x       y       z     vdW  Elec       q    Type
                         _______ _______ _______ _____ _____    ______ ____

>  <TORSDO>
F 13

$$$$
=
 OpenBabel10222418293D

 49 56  0  0  1  0  0  0  0  0999 V2000
  193.5720  175.7810  137.6400 C   0  0  0  0  0  0  0  0  0  0  0  0
  190.6360  178.1250  141.7980 O   0  0  0  0  0  0  0  0  0  0  0  0
  189.3570  176.5800  137.1530 C   0  0  0  0  0  0  0  0  0  0  0  0
  190.8130  177.1280  139.6720 C   0  0  0  0  0  0  0  0  0  0  0  0
  185.6440  176.7910  137.2190 C   0  0  0  0  0  2  0  0  0  0  0  0
  192.9600  176.6570  138.7070 C   0  0  0  0  0  2  0  0  0  0  0  0
  188.7720  176.2080  135.8450 C   0  0  0  0  0  0  0  0  0  0  0  0
  189.7740  178.2110  142.8680 N   0  0  0  0  0  2  0  0  0  0  0  0
  187.7570  177.7640  140.1520 O   0  0  0  0  0  0  0  0  0  0  0  0
  187.5650  177.5250  138.7830 C   0  0  0  0  0  0  0  0  0  0  0  0
  186.2750  177.9230  138.0720 C   0  0  2  0  0  3  0  0  0  0  0  0
  190.1080  177.4750  140.7160 C   0  0  0  0  0  0  0  0  0  0  0  0
  189.6830  176.1080  134.6660 C   0  0  0  0  0  2  0  0  0  0  0  0
  190.8420  176.8760  137.2190 C   0  0  1  0  0  3  0  0  0  0  0  0
  188.5290  177.5570  142.4210 C   0  0  1  0  0  3  0  0  0  0  0  0
  191.0170  175.6700  135.0860 N   0  0  0  0  0  0  0  0  0  0  0  0
  187.4790  176.3800  135.6870 C   0  0  0  0  0  0  0  0  0  0  0  0
  188.5260  177.0530  138.0470 C   0  0  0  0  0  0  0  0  0  0  0  0
  191.4680  176.7540  138.6000 C   0  0  0  0  0  0  0  0  0  0  0  0
  188.7070  177.0770  140.9770 C   0  0  1  0  0  3  0  0  0  0  0  0
  186.2110  176.6560  135.8230 C   0  0  0  0  0  3  0  0  0  0  0  0
  192.9320  175.5170  136.4980 C   0  0  0  0  0  3  0  0  0  0  0  0
  191.5800  176.0170  136.2090 C   0  0  0  0  0  0  0  0  0  0  0  0
  185.2080  178.5050  139.0080 C   0  0  1  0  0  3  0  0  0  0  0  0
  185.0800  179.8840  138.8140 O   0  0  0  0  0  1  0  0  0  0  0  0
  183.8490  177.8350  138.8440 C   0  0  0  0  0  2  0  0  0  0  0  0
  181.4150  178.4840  139.2970 C   0  0  2  0  0  3  0  0  0  0  0  0
  182.7340  178.8610  138.6270 C   0  0  2  0  0  3  0  0  0  0  0  0
  181.4590  177.1920  139.8660 O   0  0  0  0  0  0  0  0  0  0  0  0
  181.3140  176.9230  137.5150 C   0  0  2  0  0  3  0  0  0  0  0  0
  181.0900  176.2820  138.8610 C   0  0  0  0  0  2  0  0  0  0  0  0
  182.4410  176.3280  136.8200 N   0  0  0  0  0  1  0  0  0  0  0  0
  181.5340  178.3950  137.7860 C   0  0  1  0  0  3  0  0  0  0  0  0
  194.8520  175.2490  137.8100 O   0  0  0  0  0  0  0  0  0  0  0  0
  195.5470  174.5810  136.7660 C   0  0  0  0  0  2  0  0  0  0  0  0
  197.5190  175.2490  138.1340 O   0  0  0  0  0  1  0  0  0  0  0  0
  197.7000  173.5760  136.5750 O   0  0  0  0  0  0  0  0  0  0  0  0
  196.9830  174.4450  137.1360 C   0  0  0  0  0  0  0  0  0  0  0  0
  188.2120  176.3690  143.3090 C   0  0  0  0  0  2  0  0  0  0  0  0
  187.4640  176.8000  144.4760 N   0  0  0  0  0  2  0  0  0  0  0  0
  186.7450  178.0030  144.0930 C   0  0  0  0  0  2  0  0  0  0  0  0
  184.5350  179.1070  144.0330 C   0  0  1  0  0  3  0  0  0  0  0  0
  184.9610  179.0350  145.4840 C   0  0  0  0  0  2  0  0  0  0  0  0
  185.2960  177.8970  144.5390 C   0  0  2  0  0  3  0  0  0  0  0  0
  183.1610  178.7840  143.9330 O   0  0  0  0  0  0  0  0  0  0  0  0
  181.2720  179.3480  142.6570 N   0  0  0  0  0  0  0  0  0  0  0  0
  182.4990  178.9210  142.7150 C   0  0  0  0  0  3  0  0  0  0  0  0
  180.5030  179.7110  143.8410 C   0  0  0  0  0  2  0  0  0  0  0  0
  179.6460  178.5380  144.2910 C   0  0  0  0  0  1  0  0  0  0  0  0
  1 34  1  0  0  0  0
  1  6  1  0  0  0  0
  2  8  1  0  0  0  0
  3 14  1  0  0  0  0
  3 18  2  0  0  0  0
  4 12  2  0  0  0  0
  5 11  1  0  0  0  0
  7  3  1  0  0  0  0
 10  9  1  0  0  0  0
 11 10  1  0  0  0  0
 11 24  1  1  0  0  0
 12 20  1  0  0  0  0
 12  2  1  0  0  0  0
 13 16  1  0  0  0  0
 13  7  1  0  0  0  0
 14 23  1  6  0  0  0
 14 19  1  0  0  0  0
 15  8  1  0  0  0  0
 15 39  1  1  0  0  0
 16 23  2  0  0  0  0
 17 21  2  0  0  0  0
 17  7  2  0  0  0  0
 18 10  2  0  0  0  0
 19  6  1  0  0  0  0
 19  4  2  0  0  0  0
 20  9  1  6  0  0  0
 20 15  1  0  0  0  0
 21  5  1  0  0  0  0
 22  1  2  0  0  0  0
 23 22  1  0  0  0  0
 24 25  1  6  0  0  0
 26 24  1  0  0  0  0
 27 29  1  1  0  0  0
 28 26  1  1  0  0  0
 28 27  1  0  0  0  0
 30 32  1  1  0  0  0
 30 33  1  0  0  0  0
 30 31  1  0  0  0  0
 31 29  1  0  0  0  0
 33 28  1  0  0  0  0
 33 27  1  0  0  0  0
 35 38  1  0  0  0  0
 35 34  1  0  0  0  0
 37 38  2  0  0  0  0
 38 36  1  0  0  0  0
 39 40  1  0  0  0  0
 41 40  1  0  0  0  0
 41 44  1  0  0  0  0
 42 44  1  0  0  0  0
 42 43  1  0  0  0  0
 44 43  1  0  0  0  0
 45 42  1  0  0  0  0
 46 47  2  0  0  0  0
 46 48  1  0  0  0  0
 47 45  1  0  0  0  0
 48 49  1  0  0  0  0
M  END
>  <MODEL>
6

>  <REMARK>
 VINA RESULT:      -7.0      3.564      7.717
  Name = 
  13 active torsions:
  status: ('A' for Active; 'I' for Inactive)
    1  A    between atoms: C_1  and  O_9
    2  A    between atoms: C_2  and  O_15
    3  A    between atoms: C_3  and  N_29
    4  A    between atoms: C_5  and  C_22
    5  A    between atoms: C_5  and  C_38
    6  A    between atoms: C_6  and  N_17
    7  A    between atoms: C_6  and  C_33
    8  A    between atoms: O_9  and  C_49
    9  A    between atoms: O_15  and  C_31
   10  A    between atoms: N_17  and  C_32
   11  A    between atoms: C_25  and  C_38
   12  A    between atoms: C_31  and  C_34
   13  A    between atoms: C_32  and  C_36
                            x       y       z     vdW  Elec       q    Type
                         _______ _______ _______ _____ _____    ______ ____

>  <TORSDO>
F 13

$$$$
=
 OpenBabel10222418293D

 49 56  0  0  1  0  0  0  0  0999 V2000
  193.0710  175.8530  137.1960 C   0  0  0  0  0  0  0  0  0  0  0  0
  190.6010  178.3280  141.5740 O   0  0  0  0  0  0  0  0  0  0  0  0
  188.8430  176.7210  137.1110 C   0  0  0  0  0  0  0  0  0  0  0  0
  190.5500  177.2890  139.4630 C   0  0  0  0  0  0  0  0  0  0  0  0
  185.1590  177.0000  137.5390 C   0  0  0  0  0  2  0  0  0  0  0  0
  192.5820  176.7600  138.2990 C   0  0  0  0  0  2  0  0  0  0  0  0
  188.1250  176.3350  135.8750 C   0  0  0  0  0  0  0  0  0  0  0  0
  189.8510  178.4500  142.7230 N   0  0  0  0  0  2  0  0  0  0  0  0
  187.5680  177.9900  140.2290 O   0  0  0  0  0  0  0  0  0  0  0  0
  187.2370  177.7280  138.8910 C   0  0  0  0  0  0  0  0  0  0  0  0
  185.8890  178.1370  138.3030 C   0  0  2  0  0  3  0  0  0  0  0  0
  189.9580  177.6680  140.5640 C   0  0  0  0  0  0  0  0  0  0  0  0
  188.9130  176.1970  134.6140 C   0  0  0  0  0  2  0  0  0  0  0  0
  190.3320  176.9900  137.0240 C   0  0  1  0  0  3  0  0  0  0  0  0
  188.5580  177.8100  142.4140 C   0  0  1  0  0  3  0  0  0  0  0  0
  190.2750  175.7410  134.9090 N   0  0  0  0  0  0  0  0  0  0  0  0
  186.8260  176.5280  135.8420 C   0  0  0  0  0  0  0  0  0  0  0  0
  188.1120  177.2250  138.0730 C   0  0  0  0  0  0  0  0  0  0  0  0
  191.0900  176.8830  138.3380 C   0  0  0  0  0  0  0  0  0  0  0  0
  188.5840  177.3010  140.9700 C   0  0  1  0  0  3  0  0  0  0  0  0
  185.5820  176.8290  136.0970 C   0  0  0  0  0  3  0  0  0  0  0  0
  192.3180  175.5800  136.1280 C   0  0  0  0  0  3  0  0  0  0  0  0
  190.9520  176.0990  135.9640 C   0  0  0  0  0  0  0  0  0  0  0  0
  184.9300  178.7550  139.3280 C   0  0  1  0  0  3  0  0  0  0  0  0
  184.7880  180.1280  139.1040 O   0  0  0  0  0  1  0  0  0  0  0  0
  183.5590  178.0900  139.3300 C   0  0  0  0  0  2  0  0  0  0  0  0
  181.2860  178.4280  140.4580 C   0  0  2  0  0  3  0  0  0  0  0  0
  182.4520  179.0760  139.7150 C   0  0  2  0  0  3  0  0  0  0  0  0
  181.4090  177.0230  140.5160 O   0  0  0  0  0  0  0  0  0  0  0  0
  180.7830  177.5860  138.3000 C   0  0  2  0  0  3  0  0  0  0  0  0
  180.8180  176.5050  139.3500 C   0  0  0  0  0  2  0  0  0  0  0  0
  181.7280  177.3230  137.2300 N   0  0  0  0  0  1  0  0  0  0  0  0
  181.0940  178.8780  139.0210 C   0  0  1  0  0  3  0  0  0  0  0  0
  194.3530  175.3010  137.2490 O   0  0  0  0  0  0  0  0  0  0  0  0
  194.7950  174.4970  138.3340 C   0  0  0  0  0  2  0  0  0  0  0  0
  196.7050  173.9480  136.8320 O   0  0  0  0  0  0  0  0  0  0  0  0
  196.0010  172.4420  138.4130 O   0  0  0  0  0  1  0  0  0  0  0  0
  195.8520  173.5630  137.8580 C   0  0  0  0  0  0  0  0  0  0  0  0
  188.3110  176.6450  143.3530 C   0  0  0  0  0  2  0  0  0  0  0  0
  189.5520  176.2410  143.9880 N   0  0  0  0  0  2  0  0  0  0  0  0
  189.6020  176.9090  145.2770 C   0  0  0  0  0  2  0  0  0  0  0  0
  188.0840  178.3800  146.5540 C   0  0  1  0  0  3  0  0  0  0  0  0
  188.2420  177.1010  147.3500 C   0  0  0  0  0  2  0  0  0  0  0  0
  188.1960  177.0500  145.8340 C   0  0  2  0  0  3  0  0  0  0  0  0
  186.7260  178.7810  146.5810 O   0  0  0  0  0  0  0  0  0  0  0  0
  184.8970  178.1430  145.2550 N   0  0  0  0  0  0  0  0  0  0  0  0
  185.7260  177.8820  146.2220 C   0  0  0  0  0  3  0  0  0  0  0  0
  184.9460  179.3790  144.4830 C   0  0  0  0  0  2  0  0  0  0  0  0
  184.7860  179.0790  143.0000 C   0  0  0  0  0  1  0  0  0  0  0  0
  1 34  1  0  0  0  0
  1  6  1  0  0  0  0
  2  8  1  0  0  0  0
  3 18  2  0  0  0  0
  4 12  2  0  0  0  0
  5 11  1  0  0  0  0
  6 19  1  0  0  0  0
  7  3  1  0  0  0  0
 10  9  1  0  0  0  0
 11 10  1  0  0  0  0
 11 24  1  1  0  0  0
 12 20  1  0  0  0  0
 12  2  1  0  0  0  0
 13 16  1  0  0  0  0
 13  7  1  0  0  0  0
 14 23  1  6  0  0  0
 14  3  1  0  0  0  0
 14 19  1  0  0  0  0
 15  8  1  0  0  0  0
 15 39  1  1  0  0  0
 16 23  2  0  0  0  0
 17  7  2  0  0  0  0
 17 21  2  0  0  0  0
 18 10  2  0  0  0  0
 19  4  2  0  0  0  0
 20  9  1  6  0  0  0
 20 15  1  0  0  0  0
 21  5  1  0  0  0  0
 22  1  2  0  0  0  0
 23 22  1  0  0  0  0
 24 25  1  6  0  0  0
 24 26  1  0  0  0  0
 27 29  1  6  0  0  0
 28 26  1  6  0  0  0
 28 27  1  0  0  0  0
 30 32  1  6  0  0  0
 30 33  1  0  0  0  0
 30 31  1  0  0  0  0
 31 29  1  0  0  0  0
 33 28  1  0  0  0  0
 33 27  1  0  0  0  0
 34 35  1  0  0  0  0
 36 38  2  0  0  0  0
 38 35  1  0  0  0  0
 38 37  1  0  0  0  0
 39 40  1  0  0  0  0
 40 41  1  0  0  0  0
 41 44  1  0  0  0  0
 42 45  1  0  0  0  0
 42 43  1  0  0  0  0
 44 42  1  0  0  0  0
 44 43  1  0  0  0  0
 46 47  2  0  0  0  0
 47 45  1  0  0  0  0
 48 46  1  0  0  0  0
 49 48  1  0  0  0  0
M  END
>  <MODEL>
7

>  <REMARK>
 VINA RESULT:      -6.8      3.360      7.730
  Name = 
  13 active torsions:
  status: ('A' for Active; 'I' for Inactive)
    1  A    between atoms: C_1  and  O_9
    2  A    between atoms: C_2  and  O_15
    3  A    between atoms: C_3  and  N_29
    4  A    between atoms: C_5  and  C_22
    5  A    between atoms: C_5  and  C_38
    6  A    between atoms: C_6  and  N_17
    7  A    between atoms: C_6  and  C_33
    8  A    between atoms: O_9  and  C_49
    9  A    between atoms: O_15  and  C_31
   10  A    between atoms: N_17  and  C_32
   11  A    between atoms: C_25  and  C_38
   12  A    between atoms: C_31  and  C_34
   13  A    between atoms: C_32  and  C_36
                            x       y       z     vdW  Elec       q    Type
                         _______ _______ _______ _____ _____    ______ ____

>  <TORSDO>
F 13

$$$$
=
 OpenBabel10222418293D

 49 56  0  0  1  0  0  0  0  0999 V2000
  189.5730  177.4640  145.3380 C   0  0  0  0  0  0  0  0  0  0  0  0
  185.1090  179.3690  142.5390 O   0  0  0  0  0  0  0  0  0  0  0  0
  189.5920  177.5810  141.0230 C   0  0  0  0  0  0  0  0  0  0  0  0
  187.2450  178.3850  142.6390 C   0  0  0  0  0  0  0  0  0  0  0  0
  189.1180  177.2030  137.3530 C   0  0  0  0  0  2  0  0  0  0  0  0
  188.4420  178.2460  144.7150 C   0  0  0  0  0  2  0  0  0  0  0  0
  190.8300  177.1040  140.3640 C   0  0  0  0  0  0  0  0  0  0  0  0
  183.9500  179.3320  141.7960 N   0  0  0  0  0  2  0  0  0  0  0  0
  186.4300  178.5360  139.5920 O   0  0  0  0  0  0  0  0  0  0  0  0
  187.7710  178.2520  139.2920 C   0  0  0  0  0  0  0  0  0  0  0  0
  188.3340  178.4320  137.8850 C   0  0  2  0  0  3  0  0  0  0  0  0
  186.1290  178.6300  142.0060 C   0  0  0  0  0  0  0  0  0  0  0  0
  192.1010  177.1340  141.1460 C   0  0  0  0  0  2  0  0  0  0  0  0
  189.6880  178.1080  142.4410 C   0  0  1  0  0  3  0  0  0  0  0  0
  184.2610  178.4830  140.6300 C   0  0  1  0  0  3  0  0  0  0  0  0
  191.8320  176.9170  142.5710 N   0  0  0  0  0  0  0  0  0  0  0  0
  190.8440  177.0670  139.0520 C   0  0  0  0  0  0  0  0  0  0  0  0
  188.6100  177.9280  140.2290 C   0  0  0  0  0  0  0  0  0  0  0  0
  188.3850  178.1050  143.2250 C   0  0  0  0  0  0  0  0  0  0  0  0
  185.7170  178.0190  140.7230 C   0  0  1  0  0  3  0  0  0  0  0  0
  190.5690  177.1410  137.7780 C   0  0  0  0  0  3  0  0  0  0  0  0
  190.6390  177.0870  144.6280 C   0  0  0  0  0  3  0  0  0  0  0  0
  190.7760  177.3630  143.1910 C   0  0  0  0  0  0  0  0  0  0  0  0
  187.2840  178.8500  136.8480 C   0  0  1  0  0  3  0  0  0  0  0  0
  187.5400  180.1420  136.3810 O   0  0  0  0  0  1  0  0  0  0  0  0
  187.1990  177.8850  135.6720 C   0  0  0  0  0  2  0  0  0  0  0  0
  184.9310  176.7900  136.1280 C   0  0  2  0  0  3  0  0  0  0  0  0
  185.7540  177.6850  135.2060 C   0  0  2  0  0  3  0  0  0  0  0  0
  185.7170  176.2180  137.1530 O   0  0  0  0  0  0  0  0  0  0  0  0
  186.2490  175.0860  135.1400 C   0  0  2  0  0  3  0  0  0  0  0  0
  186.2560  175.0240  136.6460 C   0  0  0  0  0  2  0  0  0  0  0  0
  187.5910  175.2280  134.6040 N   0  0  0  0  0  1  0  0  0  0  0  0
  185.3690  176.2600  134.7750 C   0  0  1  0  0  3  0  0  0  0  0  0
  189.5470  177.1430  146.6980 O   0  0  0  0  0  0  0  0  0  0  0  0
  188.3470  176.8100  147.3820 C   0  0  0  0  0  2  0  0  0  0  0  0
  188.6350  178.5210  149.1690 O   0  0  0  0  0  1  0  0  0  0  0  0
  186.7790  178.5500  147.8210 O   0  0  0  0  0  0  0  0  0  0  0  0
  187.8640  177.9960  148.1390 C   0  0  0  0  0  0  0  0  0  0  0  0
  183.3480  177.2720  140.6040 C   0  0  0  0  0  2  0  0  0  0  0  0
  182.4020  177.3800  139.5080 N   0  0  0  0  0  2  0  0  0  0  0  0
  181.2120  178.0190  140.0430 C   0  0  0  0  0  2  0  0  0  0  0  0
  181.6870  180.1910  138.9650 C   0  0  1  0  0  3  0  0  0  0  0  0
  180.4110  180.3570  139.7630 C   0  0  0  0  0  2  0  0  0  0  0  0
  180.6940  179.0470  139.0510 C   0  0  2  0  0  3  0  0  0  0  0  0
  181.5430  180.8380  137.7150 O   0  0  0  0  0  0  0  0  0  0  0  0
  180.1820  182.6520  137.1070 N   0  0  0  0  0  0  0  0  0  0  0  0
  180.3140  181.3820  137.3480 C   0  0  0  0  0  3  0  0  0  0  0  0
  181.2910  183.5950  137.1990 C   0  0  0  0  0  2  0  0  0  0  0  0
  180.7700  185.0240  137.1740 C   0  0  0  0  0  1  0  0  0  0  0  0
  1 34  1  0  0  0  0
  4 19  2  0  0  0  0
  5 21  1  0  0  0  0
  5 11  1  0  0  0  0
  6  1  1  0  0  0  0
  7  3  1  0  0  0  0
  7 13  1  0  0  0  0
  8  2  1  0  0  0  0
 10  9  1  0  0  0  0
 10 18  2  0  0  0  0
 11 24  1  6  0  0  0
 11 10  1  0  0  0  0
 12  2  1  0  0  0  0
 12  4  2  0  0  0  0
 13 16  1  0  0  0  0
 14  3  1  6  0  0  0
 14 23  1  0  0  0  0
 14 19  1  0  0  0  0
 15 39  1  1  0  0  0
 15 20  1  0  0  0  0
 15  8  1  0  0  0  0
 16 23  2  0  0  0  0
 17  7  2  0  0  0  0
 18  3  2  0  0  0  0
 19  6  1  0  0  0  0
 20  9  1  6  0  0  0
 20 12  1  0  0  0  0
 21 17  2  0  0  0  0
 22  1  2  0  0  0  0
 23 22  1  0  0  0  0
 24 25  1  6  0  0  0
 26 24  1  0  0  0  0
 27 29  1  1  0  0  0
 28 26  1  1  0  0  0
 28 27  1  0  0  0  0
 30 32  1  1  0  0  0
 30 31  1  0  0  0  0
 31 29  1  0  0  0  0
 33 30  1  0  0  0  0
 33 28  1  0  0  0  0
 33 27  1  0  0  0  0
 34 35  1  0  0  0  0
 35 38  1  0  0  0  0
 37 38  2  0  0  0  0
 38 36  1  0  0  0  0
 40 41  1  0  0  0  0
 40 39  1  0  0  0  0
 42 44  1  0  0  0  0
 42 43  1  0  0  0  0
 44 43  1  0  0  0  0
 44 41  1  0  0  0  0
 45 42  1  0  0  0  0
 46 48  1  0  0  0  0
 46 47  2  0  0  0  0
 47 45  1  0  0  0  0
 49 48  1  0  0  0  0
M  END
>  <MODEL>
8

>  <REMARK>
 VINA RESULT:      -6.8      2.475      6.598
  Name = 
  13 active torsions:
  status: ('A' for Active; 'I' for Inactive)
    1  A    between atoms: C_1  and  O_9
    2  A    between atoms: C_2  and  O_15
    3  A    between atoms: C_3  and  N_29
    4  A    between atoms: C_5  and  C_22
    5  A    between atoms: C_5  and  C_38
    6  A    between atoms: C_6  and  N_17
    7  A    between atoms: C_6  and  C_33
    8  A    between atoms: O_9  and  C_49
    9  A    between atoms: O_15  and  C_31
   10  A    between atoms: N_17  and  C_32
   11  A    between atoms: C_25  and  C_38
   12  A    between atoms: C_31  and  C_34
   13  A    between atoms: C_32  and  C_36
                            x       y       z     vdW  Elec       q    Type
                         _______ _______ _______ _____ _____    ______ ____

>  <TORSDO>
F 13

$$$$
=
 OpenBabel10222418293D

 49 56  0  0  1  0  0  0  0  0999 V2000
  190.0930  177.3700  139.1380 C   0  0  0  0  0  0  0  0  0  0  0  0
  185.0380  179.7670  138.8070 O   0  0  0  0  0  0  0  0  0  0  0  0
  186.8300  175.3190  137.1920 C   0  0  0  0  0  0  0  0  0  0  0  0
  186.5180  177.9630  138.4880 C   0  0  0  0  0  0  0  0  0  0  0  0
  183.7420  173.5300  136.1440 C   0  0  0  0  0  2  0  0  0  0  0  0
  188.8740  178.2200  138.8680 C   0  0  0  0  0  2  0  0  0  0  0  0
  187.1430  173.9850  136.6320 C   0  0  0  0  0  0  0  0  0  0  0  0
  183.7200  180.0260  139.1090 N   0  0  0  0  0  2  0  0  0  0  0  0
  183.6730  177.0240  137.4870 O   0  0  0  0  0  0  0  0  0  0  0  0
  184.3230  175.9370  136.8840 C   0  0  0  0  0  0  0  0  0  0  0  0
  183.6210  175.0510  135.8590 C   0  0  2  0  0  3  0  0  0  0  0  0
  185.3070  178.4410  138.6060 C   0  0  0  0  0  0  0  0  0  0  0  0
  188.5640  173.6770  136.2930 C   0  0  0  0  0  2  0  0  0  0  0  0
  187.9620  176.3140  137.3580 C   0  0  1  0  0  3  0  0  0  0  0  0
  183.0480  178.7130  139.0820 C   0  0  1  0  0  3  0  0  0  0  0  0
  189.4720  174.3820  137.2030 N   0  0  0  0  0  0  0  0  0  0  0  0
  186.1570  173.3080  136.0890 C   0  0  0  0  0  0  0  0  0  0  0  0
  185.5850  175.7110  137.0970 C   0  0  0  0  0  0  0  0  0  0  0  0
  187.7080  177.4260  138.3640 C   0  0  0  0  0  0  0  0  0  0  0  0
  184.0730  177.6330  138.7220 C   0  0  1  0  0  3  0  0  0  0  0  0
  185.0100  172.8860  135.6300 C   0  0  0  0  0  3  0  0  0  0  0  0
  190.2530  176.1740  138.5680 C   0  0  0  0  0  3  0  0  0  0  0  0
  189.2490  175.5760  137.6760 C   0  0  0  0  0  0  0  0  0  0  0  0
  182.1450  175.4080  135.6410 C   0  0  1  0  0  3  0  0  0  0  0  0
  181.5920  174.6210  134.6270 O   0  0  0  0  0  1  0  0  0  0  0  0
  181.3110  175.2740  136.9090 C   0  0  0  0  0  2  0  0  0  0  0  0
  178.9450  175.4620  137.8680 C   0  0  2  0  0  3  0  0  0  0  0  0
  179.8120  175.3700  136.6140 C   0  0  2  0  0  3  0  0  0  0  0  0
  179.7010  175.3010  139.0490 O   0  0  0  0  0  0  0  0  0  0  0  0
  179.4990  173.1630  138.0430 C   0  0  2  0  0  3  0  0  0  0  0  0
  179.7640  173.9230  139.3190 C   0  0  0  0  0  2  0  0  0  0  0  0
  180.7010  172.5210  137.5450 N   0  0  0  0  0  1  0  0  0  0  0  0
  178.9520  174.1750  137.0620 C   0  0  1  0  0  3  0  0  0  0  0  0
  191.1110  177.8380  139.9720 O   0  0  0  0  0  0  0  0  0  0  0  0
  191.2820  177.3740  141.3050 C   0  0  0  0  0  2  0  0  0  0  0  0
  189.3670  178.5600  142.3680 O   0  0  0  0  0  1  0  0  0  0  0  0
  189.3720  176.2710  142.2080 O   0  0  0  0  0  0  0  0  0  0  0  0
  189.9650  177.3620  141.9970 C   0  0  0  0  0  0  0  0  0  0  0  0
  182.4480  178.4020  140.4400 C   0  0  0  0  0  2  0  0  0  0  0  0
  183.4380  177.7670  141.2920 N   0  0  0  0  0  2  0  0  0  0  0  0
  183.4840  178.5330  142.5260 C   0  0  0  0  0  2  0  0  0  0  0  0
  184.9860  179.2010  144.3700 C   0  0  1  0  0  3  0  0  0  0  0  0
  185.8260  179.1300  143.1120 C   0  0  0  0  0  2  0  0  0  0  0  0
  184.7060  178.1300  143.3330 C   0  0  2  0  0  3  0  0  0  0  0  0
  185.7070  178.6290  145.4460 O   0  0  0  0  0  0  0  0  0  0  0  0
  187.6310  177.4740  146.1380 N   0  0  0  0  0  0  0  0  0  0  0  0
  186.8050  177.8110  145.1920 C   0  0  0  0  0  3  0  0  0  0  0  0
  187.4770  177.9190  147.5180 C   0  0  0  0  0  2  0  0  0  0  0  0
  188.8390  178.0820  148.1730 C   0  0  0  0  0  1  0  0  0  0  0  0
  1 34  1  0  0  0  0
  2  8  1  0  0  0  0
  4 12  2  0  0  0  0
  6  1  1  0  0  0  0
  7  3  1  0  0  0  0
 10 18  2  0  0  0  0
 10  9  1  0  0  0  0
 11 24  1  1  0  0  0
 11  5  1  0  0  0  0
 11 10  1  0  0  0  0
 12 20  1  0  0  0  0
 12  2  1  0  0  0  0
 13  7  1  0  0  0  0
 13 16  1  0  0  0  0
 14  3  1  1  0  0  0
 14 23  1  0  0  0  0
 14 19  1  0  0  0  0
 15  8  1  0  0  0  0
 15 39  1  1  0  0  0
 16 23  2  0  0  0  0
 17  7  2  0  0  0  0
 18  3  2  0  0  0  0
 19  4  2  0  0  0  0
 19  6  1  0  0  0  0
 20  9  1  6  0  0  0
 20 15  1  0  0  0  0
 21 17  2  0  0  0  0
 21  5  1  0  0  0  0
 22  1  2  0  0  0  0
 23 22  1  0  0  0  0
 24 25  1  6  0  0  0
 24 26  1  0  0  0  0
 27 29  1  1  0  0  0
 28 26  1  1  0  0  0
 28 33  1  0  0  0  0
 28 27  1  0  0  0  0
 29 31  1  0  0  0  0
 30 32  1  6  0  0  0
 30 31  1  0  0  0  0
 33 27  1  0  0  0  0
 33 30  1  0  0  0  0
 34 35  1  0  0  0  0
 35 38  1  0  0  0  0
 38 37  2  0  0  0  0
 38 36  1  0  0  0  0
 39 40  1  0  0  0  0
 40 41  1  0  0  0  0
 41 44  1  0  0  0  0
 42 45  1  0  0  0  0
 43 44  1  0  0  0  0
 43 42  1  0  0  0  0
 44 42  1  0  0  0  0
 46 48  1  0  0  0  0
 47 45  1  0  0  0  0
 47 46  2  0  0  0  0
 48 49  1  0  0  0  0
M  END
>  <MODEL>
9

>  <REMARK>
 VINA RESULT:      -6.7      2.749      7.684
  Name = 
  13 active torsions:
  status: ('A' for Active; 'I' for Inactive)
    1  A    between atoms: C_1  and  O_9
    2  A    between atoms: C_2  and  O_15
    3  A    between atoms: C_3  and  N_29
    4  A    between atoms: C_5  and  C_22
    5  A    between atoms: C_5  and  C_38
    6  A    between atoms: C_6  and  N_17
    7  A    between atoms: C_6  and  C_33
    8  A    between atoms: O_9  and  C_49
    9  A    between atoms: O_15  and  C_31
   10  A    between atoms: N_17  and  C_32
   11  A    between atoms: C_25  and  C_38
   12  A    between atoms: C_31  and  C_34
   13  A    between atoms: C_32  and  C_36
                            x       y       z     vdW  Elec       q    Type
                         _______ _______ _______ _____ _____    ______ ____

>  <TORSDO>
F 13

$$$$
