=
 OpenBabel10222421253D

 40 46  0  0  1  0  0  0  0  0999 V2000
  186.8240  177.4990  144.5040 C   0  0  0  0  0  2  0  0  0  0  0  0
  185.1880  177.9050  142.7010 C   0  0  1  0  0  3  0  0  0  0  0  0
  186.3420  178.1320  141.7590 C   0  0  0  0  0  3  0  0  0  0  0  0
  187.9900  177.9730  143.6280 C   0  0  2  0  0  3  0  0  0  0  0  0
  187.6290  178.0600  142.1510 C   0  0  0  0  0  0  0  0  0  0  0  0
  185.5560  178.2510  144.1380 C   0  0  0  0  0  2  0  0  0  0  0  0
  190.9860  177.9600  140.7410 C   0  0  0  0  0  2  0  0  0  0  0  0
  188.0090  177.1360  136.9350 C   0  0  0  0  0  2  0  0  0  0  0  0
  190.9940  176.2320  138.8510 C   0  0  1  0  0  3  0  0  0  0  0  0
  191.8260  177.0240  139.8710 C   0  0  0  0  0  2  0  0  0  0  0  0
  189.1680  176.2960  137.1790 N   0  0  0  0  0  2  0  0  0  0  0  0
  189.7250  177.3250  141.1290 N   0  0  1  0  0  0  0  0  0  0  0  0
  188.0310  178.2430  137.9700 C   0  0  0  0  0  2  0  0  0  0  0  0
  190.0320  177.1090  138.0210 C   0  0  1  0  0  3  0  0  0  0  0  0
  189.1950  178.0240  138.8120 N   0  0  2  0  0  0  0  0  0  0  0  0
  188.6960  178.3810  141.1380 C   0  0  1  0  0  3  0  0  0  0  0  0
  188.7010  177.3930  140.0510 C   0  0  2  0  0  3  0  0  0  0  0  0
  191.8890  175.4060  137.9730 C   0  0  0  0  0  3  0  0  0  0  0  0
  193.2200  175.4960  138.0340 C   0  0  0  0  0  3  0  0  0  0  0  0
  194.0740  174.6690  137.1350 C   0  0  0  0  0  2  0  0  0  0  0  0
  195.3880  175.1430  137.1600 O   0  0  0  0  0  0  0  0  0  0  0  0
  196.8120  174.8850  139.3570 O   0  0  0  0  0  1  0  0  0  0  0  0
  197.4820  173.3610  137.3450 O   0  0  0  0  0  0  0  0  0  0  0  0
  196.2290  174.1020  138.2020 P   0  0  0  0  0  0  0  0  0  0  0  0
  195.1840  172.9110  138.7990 O   0  0  0  0  0  1  0  0  0  0  0  0
  183.8500  179.0080  141.0910 O   0  0  0  0  0  0  0  0  0  0  0  0
  182.9230  179.0130  143.2480 C   0  0  0  0  0  1  0  0  0  0  0  0
  183.9800  178.6670  142.2560 C   0  0  0  0  0  0  0  0  0  0  0  0
  189.0950  177.1380  143.8300 O   0  0  0  0  0  0  0  0  0  0  0  0
  189.8180  177.7280  144.8770 C   0  0  2  0  0  3  0  0  0  0  0  0
  191.0550  178.4240  144.3400 C   0  0  0  0  0  1  0  0  0  0  0  0
  192.1670  175.4560  146.4570 C   0  0  0  0  0  2  0  0  0  0  0  0
  192.8630  176.7190  148.4090 O   0  0  0  0  0  0  0  0  0  0  0  0
  189.5080  176.9280  147.2540 C   0  0  0  0  0  0  0  0  0  0  0  0
  188.2590  176.9220  147.4230 O   0  0  0  0  0  0  0  0  0  0  0  0
  192.1520  175.6050  147.9610 C   0  0  1  0  0  3  0  0  0  0  0  0
  191.6430  176.7920  146.2400 N   0  0  2  0  0  0  0  0  0  0  0  0
  191.6840  177.0090  147.6890 C   0  0  2  0  0  0  0  0  0  0  0  0
  190.4070  177.0870  148.2840 O   0  0  0  0  0  0  0  0  0  0  0  0
  190.2000  176.6970  145.9430 C   0  0  2  0  0  3  0  0  0  0  0  0
  2 28  1  6  0  0  0
  2  6  1  0  0  0  0
  3  5  2  0  0  0  0
  3  2  1  0  0  0  0
  4 29  1  6  0  0  0
  4  1  1  0  0  0  0
  5  4  1  0  0  0  0
  6  1  1  0  0  0  0
  8 11  1  0  0  0  0
  8 13  1  0  0  0  0
  9 18  1  6  0  0  0
  9 10  1  0  0  0  0
 10  7  1  0  0  0  0
 12  7  1  6  0  0  0
 12 16  1  0  0  0  0
 14 11  1  1  0  0  0
 14 15  1  0  0  0  0
 14  9  1  0  0  0  0
 15 13  1  6  0  0  0
 15 17  1  0  0  0  0
 16  5  1  1  0  0  0
 17 12  1  0  0  0  0
 17 16  1  0  0  0  0
 18 19  2  0  0  0  0
 20 21  1  0  0  0  0
 20 19  1  0  0  0  0
 21 24  1  0  0  0  0
 23 24  2  0  0  0  0
 24 25  1  0  0  0  0
 24 22  1  0  0  0  0
 26 28  2  0  0  0  0
 28 27  1  0  0  0  0
 29 30  1  0  0  0  0
 30 40  1  0  0  0  0
 31 30  1  0  0  0  0
 32 36  1  0  0  0  0
 34 35  2  0  0  0  0
 34 39  1  0  0  0  0
 36 33  1  0  0  0  0
 37 32  1  0  0  0  0
 37 38  1  0  0  0  0
 38 36  1  0  0  0  0
 38 39  1  0  0  0  0
 38 33  1  0  0  0  0
 40 37  1  0  0  0  0
 40 34  1  0  0  0  0
M  END
>  <MODEL>
1

>  <REMARK>
 VINA RESULT:      -8.7      0.000      0.000
  Name = 
  9 active torsions:
  status: ('A' for Active; 'I' for Inactive)
    1  A    between atoms: C_1  and  C_14
    2  A    between atoms: C_1  and  O_25
    3  A    between atoms: O_5  and  C_7
    4  A    between atoms: O_5  and  C_27
    5  A    between atoms: C_7  and  C_39
    6  A    between atoms: C_11  and  C_24
    7  A    between atoms: P_17  and  O_25
    8  A    between atoms: C_22  and  C_38
    9  A    between atoms: C_31  and  C_37
                            x       y       z     vdW  Elec       q    Type
                         _______ _______ _______ _____ _____    ______ ____

>  <TORSDO>
F 9

$$$$
=
 OpenBabel10222421253D

 40 46  0  0  1  0  0  0  0  0999 V2000
  185.0860  178.1000  142.8130 C   0  0  0  0  0  2  0  0  0  0  0  0
  184.3870  178.5270  140.4840 C   0  0  1  0  0  3  0  0  0  0  0  0
  185.8430  178.5690  140.0980 C   0  0  0  0  0  3  0  0  0  0  0  0
  186.5550  178.3920  142.4840 C   0  0  2  0  0  3  0  0  0  0  0  0
  186.8410  178.4020  140.9890 C   0  0  0  0  0  0  0  0  0  0  0  0
  184.1760  178.9430  141.9350 C   0  0  0  0  0  2  0  0  0  0  0  0
  190.3770  177.5490  140.8160 C   0  0  0  0  0  2  0  0  0  0  0  0
  188.9990  178.1100  136.1460 C   0  0  0  0  0  2  0  0  0  0  0  0
  190.7480  176.1550  138.7000 C   0  0  1  0  0  3  0  0  0  0  0  0
  191.2690  176.5380  140.0940 C   0  0  0  0  0  2  0  0  0  0  0  0
  189.7670  176.9520  136.5690 N   0  0  0  0  0  2  0  0  0  0  0  0
  188.9600  177.2490  140.5980 N   0  0  1  0  0  0  0  0  0  0  0  0
  188.8550  179.0170  137.3500 C   0  0  0  0  0  2  0  0  0  0  0  0
  190.3900  177.3700  137.8160 C   0  0  1  0  0  3  0  0  0  0  0  0
  189.5270  178.3700  138.4630 N   0  0  2  0  0  0  0  0  0  0  0  0
  188.2570  178.5410  140.4990 C   0  0  1  0  0  3  0  0  0  0  0  0
  188.4720  177.7450  139.2830 C   0  0  2  0  0  3  0  0  0  0  0  0
  191.7150  175.2350  138.0130 C   0  0  0  0  0  3  0  0  0  0  0  0
  193.0270  175.4780  137.9880 C   0  0  0  0  0  3  0  0  0  0  0  0
  193.9540  174.5470  137.2830 C   0  0  0  0  0  2  0  0  0  0  0  0
  195.2420  175.0900  137.2560 O   0  0  0  0  0  0  0  0  0  0  0  0
  196.7640  174.8750  139.3900 O   0  0  0  0  0  1  0  0  0  0  0  0
  197.4430  173.4320  137.3210 O   0  0  0  0  0  0  0  0  0  0  0  0
  196.1830  174.0810  138.2420 P   0  0  0  0  0  0  0  0  0  0  0  0
  195.2350  172.8180  138.8530 O   0  0  0  0  0  1  0  0  0  0  0  0
  184.0430  180.3570  139.0250 O   0  0  0  0  0  0  0  0  0  0  0  0
  182.1510  178.9910  139.2850 C   0  0  0  0  0  1  0  0  0  0  0  0
  183.5660  179.3670  139.5590 C   0  0  0  0  0  0  0  0  0  0  0  0
  187.3730  177.4710  143.1490 O   0  0  0  0  0  0  0  0  0  0  0  0
  187.9470  178.1850  144.2100 C   0  0  2  0  0  3  0  0  0  0  0  0
  189.4490  178.3000  144.0210 C   0  0  0  0  0  1  0  0  0  0  0  0
  188.9040  176.5260  147.2940 C   0  0  0  0  0  2  0  0  0  0  0  0
  188.7800  178.3360  148.9070 O   0  0  0  0  0  0  0  0  0  0  0  0
  186.4380  178.1620  146.2380 C   0  0  0  0  0  0  0  0  0  0  0  0
  185.2720  178.2040  145.7620 O   0  0  0  0  0  0  0  0  0  0  0  0
  188.2050  177.1350  148.4880 C   0  0  1  0  0  3  0  0  0  0  0  0
  188.7520  177.7260  146.4920 N   0  0  2  0  0  0  0  0  0  0  0  0
  188.1370  178.3830  147.6500 C   0  0  2  0  0  0  0  0  0  0  0  0
  186.7590  178.6370  147.4890 O   0  0  0  0  0  0  0  0  0  0  0  0
  187.6220  177.5380  145.5600 C   0  0  2  0  0  3  0  0  0  0  0  0
  2 28  1  6  0  0  0
  2  6  1  0  0  0  0
  3  2  1  0  0  0  0
  3  5  2  0  0  0  0
  4  1  1  0  0  0  0
  4 29  1  1  0  0  0
  5  4  1  0  0  0  0
  6  1  1  0  0  0  0
  8 11  1  0  0  0  0
  8 13  1  0  0  0  0
  9 18  1  6  0  0  0
  9 10  1  0  0  0  0
 10  7  1  0  0  0  0
 12  7  1  6  0  0  0
 14 11  1  6  0  0  0
 14 15  1  0  0  0  0
 14  9  1  0  0  0  0
 15 13  1  6  0  0  0
 15 17  1  0  0  0  0
 16 12  1  0  0  0  0
 16  5  1  1  0  0  0
 17 16  1  0  0  0  0
 17 12  1  0  0  0  0
 19 18  2  0  0  0  0
 20 19  1  0  0  0  0
 21 20  1  0  0  0  0
 21 24  1  0  0  0  0
 23 24  2  0  0  0  0
 24 25  1  0  0  0  0
 24 22  1  0  0  0  0
 26 28  2  0  0  0  0
 27 28  1  0  0  0  0
 29 30  1  0  0  0  0
 30 40  1  0  0  0  0
 31 30  1  0  0  0  0
 32 36  1  0  0  0  0
 34 39  1  0  0  0  0
 35 34  2  0  0  0  0
 36 33  1  0  0  0  0
 37 32  1  0  0  0  0
 37 38  1  0  0  0  0
 38 36  1  0  0  0  0
 38 33  1  0  0  0  0
 39 38  1  0  0  0  0
 40 34  1  0  0  0  0
 40 37  1  0  0  0  0
M  END
>  <MODEL>
2

>  <REMARK>
 VINA RESULT:      -8.6      1.638      2.246
  Name = 
  9 active torsions:
  status: ('A' for Active; 'I' for Inactive)
    1  A    between atoms: C_1  and  C_14
    2  A    between atoms: C_1  and  O_25
    3  A    between atoms: O_5  and  C_7
    4  A    between atoms: O_5  and  C_27
    5  A    between atoms: C_7  and  C_39
    6  A    between atoms: C_11  and  C_24
    7  A    between atoms: P_17  and  O_25
    8  A    between atoms: C_22  and  C_38
    9  A    between atoms: C_31  and  C_37
                            x       y       z     vdW  Elec       q    Type
                         _______ _______ _______ _____ _____    ______ ____

>  <TORSDO>
F 9

$$$$
=
 OpenBabel10222421253D

 40 46  0  0  1  0  0  0  0  0999 V2000
  188.8400  176.9320  146.7390 C   0  0  0  0  0  2  0  0  0  0  0  0
  191.2780  176.6640  147.0160 C   0  0  1  0  0  3  0  0  0  0  0  0
  191.4600  177.2790  145.6530 C   0  0  0  0  0  3  0  0  0  0  0  0
  188.9940  177.3200  145.2640 C   0  0  2  0  0  3  0  0  0  0  0  0
  190.4250  177.6810  144.8890 C   0  0  0  0  0  0  0  0  0  0  0  0
  189.9330  175.9570  147.1400 C   0  0  0  0  0  2  0  0  0  0  0  0
  192.2050  177.8150  141.7140 C   0  0  0  0  0  2  0  0  0  0  0  0
  187.4670  178.1500  140.5040 C   0  0  0  0  0  2  0  0  0  0  0  0
  190.7590  176.6470  139.9520 C   0  0  1  0  0  3  0  0  0  0  0  0
  192.1670  177.1070  140.3590 C   0  0  0  0  0  2  0  0  0  0  0  0
  188.3540  177.2270  139.8190 N   0  0  0  0  0  2  0  0  0  0  0  0
  191.3210  177.1540  142.6760 N   0  0  1  0  0  0  0  0  0  0  0  0
  188.3110  178.9420  141.4810 C   0  0  0  0  0  2  0  0  0  0  0  0
  189.6870  177.7520  140.0740 C   0  0  1  0  0  3  0  0  0  0  0  0
  189.6770  178.4610  141.3630 N   0  0  2  0  0  0  0  0  0  0  0  0
  190.7270  178.2120  143.5130 C   0  0  1  0  0  3  0  0  0  0  0  0
  189.8960  177.5470  142.5000 C   0  0  2  0  0  3  0  0  0  0  0  0
  190.7800  176.0450  138.5770 C   0  0  0  0  0  3  0  0  0  0  0  0
  191.7250  176.3520  137.6850 C   0  0  0  0  0  3  0  0  0  0  0  0
  191.7040  175.7430  136.3240 C   0  0  0  0  0  2  0  0  0  0  0  0
  192.5690  174.6460  136.2820 O   0  0  0  0  0  0  0  0  0  0  0  0
  193.6890  176.3940  134.6680 O   0  0  0  0  0  1  0  0  0  0  0  0
  194.6840  173.9790  134.6440 O   0  0  0  0  0  0  0  0  0  0  0  0
  193.9960  175.2180  135.5660 P   0  0  0  0  0  0  0  0  0  0  0  0
  195.0950  175.6940  136.7630 O   0  0  0  0  0  1  0  0  0  0  0  0
  192.7810  174.9060  146.5210 O   0  0  0  0  0  0  0  0  0  0  0  0
  193.0770  175.8230  148.6620 C   0  0  0  0  0  1  0  0  0  0  0  0
  192.4050  175.7340  147.3360 C   0  0  0  0  0  0  0  0  0  0  0  0
  188.1140  178.3640  144.9610 O   0  0  0  0  0  0  0  0  0  0  0  0
  186.8370  177.7840  144.9610 C   0  0  2  0  0  3  0  0  0  0  0  0
  186.7250  176.7500  143.8550 C   0  0  0  0  0  1  0  0  0  0  0  0
  184.2030  179.4600  143.1090 C   0  0  0  0  0  2  0  0  0  0  0  0
  182.2000  178.5050  144.0950 O   0  0  0  0  0  0  0  0  0  0  0  0
  185.0510  179.1480  146.1180 C   0  0  0  0  0  0  0  0  0  0  0  0
  185.6190  179.5960  147.1500 O   0  0  0  0  0  0  0  0  0  0  0  0
  182.9710  179.6610  143.9620 C   0  0  1  0  0  3  0  0  0  0  0  0
  184.6790  178.3540  143.9190 N   0  0  2  0  0  0  0  0  0  0  0  0
  183.4620  178.4630  144.7280 C   0  0  2  0  0  0  0  0  0  0  0  0
  183.6940  178.9380  146.0360 O   0  0  0  0  0  0  0  0  0  0  0  0
  185.7410  178.8440  144.8210 C   0  0  2  0  0  3  0  0  0  0  0  0
  1  6  1  0  0  0  0
  2  6  1  0  0  0  0
  2 28  1  6  0  0  0
  3  2  1  0  0  0  0
  4 29  1  1  0  0  0
  4  1  1  0  0  0  0
  5  4  1  0  0  0  0
  5  3  2  0  0  0  0
  8 13  1  0  0  0  0
  9 18  1  6  0  0  0
  9 14  1  0  0  0  0
  9 10  1  0  0  0  0
 10  7  1  0  0  0  0
 11  8  1  0  0  0  0
 12  7  1  6  0  0  0
 12 16  1  0  0  0  0
 14 11  1  1  0  0  0
 14 15  1  0  0  0  0
 15 13  1  1  0  0  0
 15 17  1  0  0  0  0
 16  5  1  1  0  0  0
 17 12  1  0  0  0  0
 17 16  1  0  0  0  0
 19 18  2  0  0  0  0
 20 19  1  0  0  0  0
 21 20  1  0  0  0  0
 22 24  1  0  0  0  0
 23 24  2  0  0  0  0
 24 21  1  0  0  0  0
 24 25  1  0  0  0  0
 26 28  2  0  0  0  0
 28 27  1  0  0  0  0
 29 30  1  0  0  0  0
 31 30  1  0  0  0  0
 32 37  1  0  0  0  0
 32 36  1  0  0  0  0
 33 38  1  0  0  0  0
 34 35  2  0  0  0  0
 36 33  1  0  0  0  0
 36 38  1  0  0  0  0
 37 38  1  0  0  0  0
 37 40  1  0  0  0  0
 38 39  1  0  0  0  0
 39 34  1  0  0  0  0
 40 30  1  0  0  0  0
 40 34  1  0  0  0  0
M  END
>  <MODEL>
3

>  <REMARK>
 VINA RESULT:      -8.2      2.136      5.782
  Name = 
  9 active torsions:
  status: ('A' for Active; 'I' for Inactive)
    1  A    between atoms: C_1  and  C_14
    2  A    between atoms: C_1  and  O_25
    3  A    between atoms: O_5  and  C_7
    4  A    between atoms: O_5  and  C_27
    5  A    between atoms: C_7  and  C_39
    6  A    between atoms: C_11  and  C_24
    7  A    between atoms: P_17  and  O_25
    8  A    between atoms: C_22  and  C_38
    9  A    between atoms: C_31  and  C_37
                            x       y       z     vdW  Elec       q    Type
                         _______ _______ _______ _____ _____    ______ ____

>  <TORSDO>
F 9

$$$$
=
 OpenBabel10222421253D

 40 46  0  0  1  0  0  0  0  0999 V2000
  190.8990  175.0870  135.9480 C   0  0  0  0  0  2  0  0  0  0  0  0
  192.8140  174.6380  137.4390 C   0  0  1  0  0  3  0  0  0  0  0  0
  192.2470  175.6460  138.4050 C   0  0  0  0  0  3  0  0  0  0  0  0
  190.4520  176.2860  136.7930 C   0  0  2  0  0  3  0  0  0  0  0  0
  191.1090  176.3270  138.1660 C   0  0  0  0  0  0  0  0  0  0  0  0
  192.4100  174.9440  136.0020 C   0  0  0  0  0  2  0  0  0  0  0  0
  188.7320  178.5060  139.8580 C   0  0  0  0  0  2  0  0  0  0  0  0
  191.3780  176.5050  143.4660 C   0  0  0  0  0  2  0  0  0  0  0  0
  188.1100  177.4110  142.0870 C   0  0  1  0  0  3  0  0  0  0  0  0
  187.7100  178.4110  140.9920 C   0  0  0  0  0  2  0  0  0  0  0  0
  189.9280  176.5410  143.5280 N   0  0  0  0  0  2  0  0  0  0  0  0
  189.2590  177.1840  139.5140 N   0  0  1  0  0  0  0  0  0  0  0  0
  191.7920  177.2460  142.2110 C   0  0  0  0  0  2  0  0  0  0  0  0
  189.5530  177.5990  142.6030 C   0  0  1  0  0  3  0  0  0  0  0  0
  190.5760  177.6900  141.5500 N   0  0  2  0  0  0  0  0  0  0  0  0
  190.6810  177.3640  139.1690 C   0  0  1  0  0  3  0  0  0  0  0  0
  190.3270  176.7390  140.4510 C   0  0  2  0  0  3  0  0  0  0  0  0
  187.1130  177.4350  143.2090 C   0  0  0  0  0  3  0  0  0  0  0  0
  186.0550  178.2500  143.1980 C   0  0  0  0  0  3  0  0  0  0  0  0
  185.0950  178.2550  144.3380 C   0  0  0  0  0  2  0  0  0  0  0  0
  185.3070  179.3850  145.1330 O   0  0  0  0  0  0  0  0  0  0  0  0
  184.4180  178.0840  147.2390 O   0  0  0  0  0  1  0  0  0  0  0  0
  186.0240  180.0920  147.6990 O   0  0  0  0  0  1  0  0  0  0  0  0
  185.6340  178.7940  146.6880 P   0  0  0  0  0  0  0  0  0  0  0  0
  186.9410  177.7190  146.6380 O   0  0  0  0  0  0  0  0  0  0  0  0
  195.0230  175.4150  137.1000 O   0  0  0  0  0  0  0  0  0  0  0  0
  194.9080  173.3950  138.2910 C   0  0  0  0  0  1  0  0  0  0  0  0
  194.3020  174.5500  137.5730 C   0  0  0  0  0  0  0  0  0  0  0  0
  189.0560  176.2860  136.9010 O   0  0  0  0  0  0  0  0  0  0  0  0
  188.5850  176.5900  135.6160 C   0  0  2  0  0  3  0  0  0  0  0  0
  189.4980  177.5980  134.9420 C   0  0  0  0  0  1  0  0  0  0  0  0
  185.0030  176.1710  135.2130 C   0  0  0  0  0  2  0  0  0  0  0  0
  184.2560  175.9310  137.5100 O   0  0  0  0  0  0  0  0  0  0  0  0
  186.9270  178.1420  136.7250 C   0  0  0  0  0  0  0  0  0  0  0  0
  187.5300  179.2450  136.7980 O   0  0  0  0  0  0  0  0  0  0  0  0
  184.2430  176.7540  136.3830 C   0  0  1  0  0  3  0  0  0  0  0  0
  186.2210  176.0060  135.9830 N   0  0  2  0  0  0  0  0  0  0  0  0
  185.5030  176.4950  137.1640 C   0  0  2  0  0  0  0  0  0  0  0  0
  185.9290  177.7680  137.5970 O   0  0  0  0  0  0  0  0  0  0  0  0
  187.1450  177.1110  135.6570 C   0  0  2  0  0  3  0  0  0  0  0  0
  1  6  1  0  0  0  0
  1  4  1  0  0  0  0
  2 28  1  6  0  0  0
  2  3  1  0  0  0  0
  4 29  1  1  0  0  0
  4  5  1  0  0  0  0
  5  3  2  0  0  0  0
  6  2  1  0  0  0  0
  7 10  1  0  0  0  0
  8 11  1  0  0  0  0
  9 14  1  0  0  0  0
  9 18  1  1  0  0  0
 10  9  1  0  0  0  0
 12  7  1  1  0  0  0
 12 17  1  0  0  0  0
 13  8  1  0  0  0  0
 14 11  1  1  0  0  0
 15 13  1  1  0  0  0
 15 14  1  0  0  0  0
 16  5  1  6  0  0  0
 16 12  1  0  0  0  0
 16 17  1  0  0  0  0
 17 15  1  0  0  0  0
 19 18  2  0  0  0  0
 19 20  1  0  0  0  0
 20 21  1  0  0  0  0
 21 24  1  0  0  0  0
 24 22  1  0  0  0  0
 24 23  1  0  0  0  0
 25 24  2  0  0  0  0
 26 28  2  0  0  0  0
 28 27  1  0  0  0  0
 30 40  1  0  0  0  0
 30 29  1  0  0  0  0
 31 30  1  0  0  0  0
 32 37  1  0  0  0  0
 32 36  1  0  0  0  0
 34 35  2  0  0  0  0
 34 39  1  0  0  0  0
 36 38  1  0  0  0  0
 36 33  1  0  0  0  0
 37 38  1  0  0  0  0
 38 33  1  0  0  0  0
 38 39  1  0  0  0  0
 40 37  1  0  0  0  0
 40 34  1  0  0  0  0
M  END
>  <MODEL>
4

>  <REMARK>
 VINA RESULT:      -7.9      3.457     10.103
  Name = 
  9 active torsions:
  status: ('A' for Active; 'I' for Inactive)
    1  A    between atoms: C_1  and  C_14
    2  A    between atoms: C_1  and  O_25
    3  A    between atoms: O_5  and  C_7
    4  A    between atoms: O_5  and  C_27
    5  A    between atoms: C_7  and  C_39
    6  A    between atoms: C_11  and  C_24
    7  A    between atoms: P_17  and  O_25
    8  A    between atoms: C_22  and  C_38
    9  A    between atoms: C_31  and  C_37
                            x       y       z     vdW  Elec       q    Type
                         _______ _______ _______ _____ _____    ______ ____

>  <TORSDO>
F 9

$$$$
=
 OpenBabel10222421253D

 40 46  0  0  1  0  0  0  0  0999 V2000
  188.5590  176.9070  144.2800 C   0  0  0  0  0  2  0  0  0  0  0  0
  187.0130  177.5300  146.1000 C   0  0  1  0  0  3  0  0  0  0  0  0
  186.1120  178.1560  145.0670 C   0  0  0  0  0  3  0  0  0  0  0  0
  187.7880  177.7530  143.2600 C   0  0  2  0  0  3  0  0  0  0  0  0
  186.4070  178.1690  143.7520 C   0  0  0  0  0  0  0  0  0  0  0  0
  188.4710  177.5400  145.6580 C   0  0  0  0  0  2  0  0  0  0  0  0
  184.8460  178.9030  140.5450 C   0  0  0  0  0  2  0  0  0  0  0  0
  181.1290  178.7450  143.7350 C   0  0  0  0  0  2  0  0  0  0  0  0
  182.5520  177.7650  140.5080 C   0  0  1  0  0  3  0  0  0  0  0  0
  183.7060  178.3570  139.6840 C   0  0  0  0  0  2  0  0  0  0  0  0
  181.0650  178.0330  142.4710 N   0  0  0  0  0  2  0  0  0  0  0  0
  185.1090  178.0240  141.6860 N   0  0  1  0  0  0  0  0  0  0  0  0
  182.4280  179.5240  143.7460 C   0  0  0  0  0  2  0  0  0  0  0  0
  182.0530  178.6970  141.6340 C   0  0  1  0  0  3  0  0  0  0  0  0
  183.1120  179.2440  142.4960 N   0  0  2  0  0  0  0  0  0  0  0  0
  185.4680  178.8910  142.8230 C   0  0  1  0  0  3  0  0  0  0  0  0
  184.1500  178.2430  142.8030 C   0  0  2  0  0  3  0  0  0  0  0  0
  181.4310  177.3340  139.6070 C   0  0  0  0  0  3  0  0  0  0  0  0
  181.1080  176.0490  139.4460 C   0  0  0  0  0  3  0  0  0  0  0  0
  179.9960  175.6600  138.5310 C   0  0  0  0  0  2  0  0  0  0  0  0
  179.9960  174.2750  138.3470 O   0  0  0  0  0  0  0  0  0  0  0  0
  182.2700  173.5940  137.2140 O   0  0  0  0  0  1  0  0  0  0  0  0
  180.8690  175.4370  136.0040 O   0  0  0  0  0  1  0  0  0  0  0  0
  180.8490  174.0070  136.9050 P   0  0  0  0  0  0  0  0  0  0  0  0
  180.0920  172.7920  136.0010 O   0  0  0  0  0  0  0  0  0  0  0  0
  185.9060  178.9500  147.6350 O   0  0  0  0  0  0  0  0  0  0  0  0
  187.8450  177.9520  148.5050 C   0  0  0  0  0  1  0  0  0  0  0  0
  186.8480  178.2010  147.4270 C   0  0  0  0  0  0  0  0  0  0  0  0
  187.7040  177.0610  142.0470 O   0  0  0  0  0  0  0  0  0  0  0  0
  188.8270  177.4670  141.3110 C   0  0  2  0  0  3  0  0  0  0  0  0
  189.1290  178.9320  141.5700 C   0  0  0  0  0  1  0  0  0  0  0  0
  187.1580  178.0450  138.1400 C   0  0  0  0  0  2  0  0  0  0  0  0
  188.7280  179.5010  136.9950 O   0  0  0  0  0  0  0  0  0  0  0  0
  189.9200  176.8990  139.1040 C   0  0  0  0  0  0  0  0  0  0  0  0
  190.6700  175.9210  139.3680 O   0  0  0  0  0  0  0  0  0  0  0  0
  188.1540  178.2290  137.0170 C   0  0  1  0  0  3  0  0  0  0  0  0
  188.1160  178.4310  139.1590 N   0  0  2  0  0  0  0  0  0  0  0  0
  189.0910  178.6960  138.0970 C   0  0  2  0  0  0  0  0  0  0  0  0
  190.1610  177.7770  138.0720 O   0  0  0  0  0  0  0  0  0  0  0  0
  188.6350  177.2130  139.8130 C   0  0  2  0  0  3  0  0  0  0  0  0
  1  6  1  0  0  0  0
  2 28  1  1  0  0  0
  3  2  1  0  0  0  0
  4 29  1  6  0  0  0
  4  5  1  0  0  0  0
  4  1  1  0  0  0  0
  5  3  2  0  0  0  0
  6  2  1  0  0  0  0
  8 13  1  0  0  0  0
  9 18  1  6  0  0  0
  9 14  1  0  0  0  0
 10  9  1  0  0  0  0
 10  7  1  0  0  0  0
 11  8  1  0  0  0  0
 12  7  1  6  0  0  0
 12 17  1  0  0  0  0
 12 16  1  0  0  0  0
 14 11  1  1  0  0  0
 14 15  1  0  0  0  0
 15 17  1  0  0  0  0
 15 13  1  1  0  0  0
 16  5  1  1  0  0  0
 17 16  1  0  0  0  0
 19 18  2  0  0  0  0
 20 19  1  0  0  0  0
 21 20  1  0  0  0  0
 23 24  1  0  0  0  0
 24 22  1  0  0  0  0
 24 21  1  0  0  0  0
 25 24  2  0  0  0  0
 28 26  2  0  0  0  0
 28 27  1  0  0  0  0
 30 31  1  0  0  0  0
 30 29  1  0  0  0  0
 32 37  1  0  0  0  0
 33 36  1  0  0  0  0
 33 38  1  0  0  0  0
 34 35  2  0  0  0  0
 34 40  1  0  0  0  0
 36 38  1  0  0  0  0
 36 32  1  0  0  0  0
 37 40  1  0  0  0  0
 38 37  1  0  0  0  0
 39 38  1  0  0  0  0
 39 34  1  0  0  0  0
 40 30  1  0  0  0  0
M  END
>  <MODEL>
5

>  <REMARK>
 VINA RESULT:      -7.9      4.616      9.187
  Name = 
  9 active torsions:
  status: ('A' for Active; 'I' for Inactive)
    1  A    between atoms: C_1  and  C_14
    2  A    between atoms: C_1  and  O_25
    3  A    between atoms: O_5  and  C_7
    4  A    between atoms: O_5  and  C_27
    5  A    between atoms: C_7  and  C_39
    6  A    between atoms: C_11  and  C_24
    7  A    between atoms: P_17  and  O_25
    8  A    between atoms: C_22  and  C_38
    9  A    between atoms: C_31  and  C_37
                            x       y       z     vdW  Elec       q    Type
                         _______ _______ _______ _____ _____    ______ ____

>  <TORSDO>
F 9

$$$$
=
 OpenBabel10222421253D

 40 46  0  0  1  0  0  0  0  0999 V2000
  190.7430  175.9200  143.6660 C   0  0  0  0  0  2  0  0  0  0  0  0
  190.0190  176.5910  145.9280 C   0  0  1  0  0  3  0  0  0  0  0  0
  188.9800  177.4750  145.2880 C   0  0  0  0  0  3  0  0  0  0  0  0
  189.8720  176.9950  143.0070 C   0  0  2  0  0  3  0  0  0  0  0  0
  188.8340  177.5840  143.9530 C   0  0  0  0  0  0  0  0  0  0  0  0
  191.2300  176.3990  145.0220 C   0  0  0  0  0  2  0  0  0  0  0  0
  186.6230  179.0240  141.4430 C   0  0  0  0  0  2  0  0  0  0  0  0
  183.8970  178.7700  145.5090 C   0  0  0  0  0  2  0  0  0  0  0  0
  184.2490  178.1860  141.9120 C   0  0  1  0  0  3  0  0  0  0  0  0
  185.2250  178.7680  140.8780 C   0  0  0  0  0  2  0  0  0  0  0  0
  183.3920  178.2930  144.2340 N   0  0  0  0  0  2  0  0  0  0  0  0
  187.0330  177.9410  142.3390 N   0  0  1  0  0  0  0  0  0  0  0  0
  185.2610  179.3780  145.2520 C   0  0  0  0  0  2  0  0  0  0  0  0
  184.2170  178.9670  143.2440 C   0  0  1  0  0  3  0  0  0  0  0  0
  185.5390  179.2340  143.8330 N   0  0  2  0  0  0  0  0  0  0  0  0
  187.8110  178.5570  143.4300 C   0  0  1  0  0  3  0  0  0  0  0  0
  186.4480  178.0810  143.7010 C   0  0  2  0  0  3  0  0  0  0  0  0
  182.8770  178.0460  141.3180 C   0  0  0  0  0  3  0  0  0  0  0  0
  182.3340  179.0010  140.5590 C   0  0  0  0  0  3  0  0  0  0  0  0
  180.9630  178.8310  139.9990 C   0  0  0  0  0  2  0  0  0  0  0  0
  180.9650  179.1460  138.6370 O   0  0  0  0  0  0  0  0  0  0  0  0
  179.7470  181.1820  139.7710 O   0  0  0  0  0  1  0  0  0  0  0  0
  179.5950  181.0330  137.1680 O   0  0  0  0  0  0  0  0  0  0  0  0
  180.5400  180.7850  138.5470 P   0  0  0  0  0  0  0  0  0  0  0  0
  181.9340  181.7410  138.4430 O   0  0  0  0  0  1  0  0  0  0  0  0
  191.5640  176.9700  147.6790 O   0  0  0  0  0  0  0  0  0  0  0  0
  189.4330  177.8650  148.0930 C   0  0  0  0  0  1  0  0  0  0  0  0
  190.4260  177.1280  147.2630 C   0  0  0  0  0  0  0  0  0  0  0  0
  189.2670  176.4680  141.8600 O   0  0  0  0  0  0  0  0  0  0  0  0
  190.2330  176.5780  140.8490 C   0  0  2  0  0  3  0  0  0  0  0  0
  191.0030  177.8780  140.9900 C   0  0  0  0  0  1  0  0  0  0  0  0
  187.7740  177.5330  138.3560 C   0  0  0  0  0  2  0  0  0  0  0  0
  189.0560  179.0030  136.9120 O   0  0  0  0  0  0  0  0  0  0  0  0
  190.6000  176.1590  138.3830 C   0  0  0  0  0  0  0  0  0  0  0  0
  191.3160  175.1230  138.3440 O   0  0  0  0  0  0  0  0  0  0  0  0
  188.4170  177.7670  137.0080 C   0  0  1  0  0  3  0  0  0  0  0  0
  189.0100  177.7720  139.0760 N   0  0  2  0  0  0  0  0  0  0  0  0
  189.6580  178.0820  137.7970 C   0  0  2  0  0  0  0  0  0  0  0  0
  190.6010  177.1150  137.3930 O   0  0  0  0  0  0  0  0  0  0  0  0
  189.6010  176.4740  139.4580 C   0  0  2  0  0  3  0  0  0  0  0  0
  1  6  1  0  0  0  0
  2 28  1  1  0  0  0
  3  2  1  0  0  0  0
  4 29  1  6  0  0  0
  4  1  1  0  0  0  0
  4  5  1  0  0  0  0
  5  3  2  0  0  0  0
  6  2  1  0  0  0  0
  9 18  1  6  0  0  0
  9 14  1  0  0  0  0
 10  7  1  0  0  0  0
 10  9  1  0  0  0  0
 11  8  1  0  0  0  0
 12  7  1  6  0  0  0
 12 16  1  0  0  0  0
 12 17  1  0  0  0  0
 13  8  1  0  0  0  0
 14 15  1  0  0  0  0
 14 11  1  1  0  0  0
 15 13  1  1  0  0  0
 16 17  1  0  0  0  0
 16  5  1  1  0  0  0
 17 15  1  0  0  0  0
 19 18  2  0  0  0  0
 20 19  1  0  0  0  0
 21 20  1  0  0  0  0
 23 24  2  0  0  0  0
 24 21  1  0  0  0  0
 24 22  1  0  0  0  0
 25 24  1  0  0  0  0
 28 26  2  0  0  0  0
 28 27  1  0  0  0  0
 30 31  1  0  0  0  0
 30 29  1  0  0  0  0
 32 37  1  0  0  0  0
 33 36  1  0  0  0  0
 33 38  1  0  0  0  0
 34 40  1  0  0  0  0
 35 34  2  0  0  0  0
 36 38  1  0  0  0  0
 36 32  1  0  0  0  0
 37 40  1  0  0  0  0
 38 37  1  0  0  0  0
 39 38  1  0  0  0  0
 39 34  1  0  0  0  0
 40 30  1  0  0  0  0
M  END
>  <MODEL>
6

>  <REMARK>
 VINA RESULT:      -7.9      3.962      9.615
  Name = 
  9 active torsions:
  status: ('A' for Active; 'I' for Inactive)
    1  A    between atoms: C_1  and  C_14
    2  A    between atoms: C_1  and  O_25
    3  A    between atoms: O_5  and  C_7
    4  A    between atoms: O_5  and  C_27
    5  A    between atoms: C_7  and  C_39
    6  A    between atoms: C_11  and  C_24
    7  A    between atoms: P_17  and  O_25
    8  A    between atoms: C_22  and  C_38
    9  A    between atoms: C_31  and  C_37
                            x       y       z     vdW  Elec       q    Type
                         _______ _______ _______ _____ _____    ______ ____

>  <TORSDO>
F 9

$$$$
=
 OpenBabel10222421253D

 40 46  0  0  1  0  0  0  0  0999 V2000
  186.1580  177.9740  142.8760 C   0  0  0  0  0  2  0  0  0  0  0  0
  185.0690  178.4110  140.7040 C   0  0  1  0  0  3  0  0  0  0  0  0
  186.4330  178.3970  140.0630 C   0  0  0  0  0  3  0  0  0  0  0  0
  187.5530  178.2090  142.2860 C   0  0  2  0  0  3  0  0  0  0  0  0
  187.5670  178.1990  140.7630 C   0  0  0  0  0  0  0  0  0  0  0  0
  185.1360  178.8430  142.1630 C   0  0  0  0  0  2  0  0  0  0  0  0
  191.0060  177.2610  140.0180 C   0  0  0  0  0  2  0  0  0  0  0  0
  188.8350  177.6250  135.6390 C   0  0  0  0  0  2  0  0  0  0  0  0
  190.9800  175.7580  137.9450 C   0  0  1  0  0  3  0  0  0  0  0  0
  191.7430  176.1970  139.2040 C   0  0  0  0  0  2  0  0  0  0  0  0
  189.6510  176.4730  135.9800 N   0  0  0  0  0  2  0  0  0  0  0  0
  189.5690  176.9820  140.0680 N   0  0  1  0  0  0  0  0  0  0  0  0
  188.9170  178.5930  136.8010 C   0  0  0  0  0  2  0  0  0  0  0  0
  190.4890  176.9360  137.0750 C   0  0  1  0  0  3  0  0  0  0  0  0
  189.7670  177.9860  137.8120 N   0  0  2  0  0  0  0  0  0  0  0  0
  188.8770  178.2830  140.0260 C   0  0  1  0  0  3  0  0  0  0  0  0
  188.8640  177.4250  138.8340 C   0  0  2  0  0  3  0  0  0  0  0  0
  191.7990  174.7850  137.1470 C   0  0  0  0  0  3  0  0  0  0  0  0
  193.0680  174.5080  137.4560 C   0  0  0  0  0  3  0  0  0  0  0  0
  193.8520  173.5450  136.6310 C   0  0  0  0  0  2  0  0  0  0  0  0
  194.6880  172.7860  137.4540 O   0  0  0  0  0  0  0  0  0  0  0  0
  194.6470  171.6070  135.1030 O   0  0  0  0  0  0  0  0  0  0  0  0
  194.5560  170.0450  137.1940 O   0  0  0  0  0  1  0  0  0  0  0  0
  195.1750  171.4620  136.5120 P   0  0  0  0  0  0  0  0  0  0  0  0
  196.8650  171.3670  136.4750 O   0  0  0  0  0  1  0  0  0  0  0  0
  184.5450  180.1470  139.1850 O   0  0  0  0  0  0  0  0  0  0  0  0
  182.6560  179.0670  140.0680 C   0  0  0  0  0  1  0  0  0  0  0  0
  184.1250  179.2750  139.9290 C   0  0  0  0  0  0  0  0  0  0  0  0
  188.4450  177.2630  142.8050 O   0  0  0  0  0  0  0  0  0  0  0  0
  189.0980  177.9120  143.8630 C   0  0  2  0  0  3  0  0  0  0  0  0
  190.3220  178.6530  143.3550 C   0  0  0  0  0  1  0  0  0  0  0  0
  191.4930  175.8150  145.6060 C   0  0  0  0  0  2  0  0  0  0  0  0
  192.0170  177.1550  147.5610 O   0  0  0  0  0  0  0  0  0  0  0  0
  188.7170  177.1420  146.2400 C   0  0  0  0  0  0  0  0  0  0  0  0
  187.4640  177.0660  146.3480 O   0  0  0  0  0  0  0  0  0  0  0  0
  191.3950  175.9920  147.1040 C   0  0  1  0  0  3  0  0  0  0  0  0
  190.9040  177.1120  145.3340 N   0  0  2  0  0  0  0  0  0  0  0  0
  190.8600  177.3600  146.7780 C   0  0  2  0  0  0  0  0  0  0  0  0
  189.5530  177.3740  147.3080 O   0  0  0  0  0  0  0  0  0  0  0  0
  189.4860  176.9260  144.9690 C   0  0  2  0  0  3  0  0  0  0  0  0
  2 28  1  6  0  0  0
  2  6  1  0  0  0  0
  3  2  1  0  0  0  0
  3  5  2  0  0  0  0
  4 29  1  1  0  0  0
  4  1  1  0  0  0  0
  5  4  1  0  0  0  0
  6  1  1  0  0  0  0
  8 11  1  0  0  0  0
  8 13  1  0  0  0  0
  9 18  1  6  0  0  0
  9 10  1  0  0  0  0
 10  7  1  0  0  0  0
 12  7  1  6  0  0  0
 14 11  1  6  0  0  0
 14 15  1  0  0  0  0
 14  9  1  0  0  0  0
 15 13  1  6  0  0  0
 15 17  1  0  0  0  0
 16 12  1  0  0  0  0
 16  5  1  1  0  0  0
 17 16  1  0  0  0  0
 17 12  1  0  0  0  0
 18 19  2  0  0  0  0
 20 21  1  0  0  0  0
 20 19  1  0  0  0  0
 22 24  2  0  0  0  0
 24 23  1  0  0  0  0
 24 21  1  0  0  0  0
 25 24  1  0  0  0  0
 26 28  2  0  0  0  0
 28 27  1  0  0  0  0
 29 30  1  0  0  0  0
 30 40  1  0  0  0  0
 31 30  1  0  0  0  0
 32 36  1  0  0  0  0
 34 35  2  0  0  0  0
 34 39  1  0  0  0  0
 36 33  1  0  0  0  0
 37 32  1  0  0  0  0
 37 38  1  0  0  0  0
 38 36  1  0  0  0  0
 38 39  1  0  0  0  0
 38 33  1  0  0  0  0
 40 37  1  0  0  0  0
 40 34  1  0  0  0  0
M  END
>  <MODEL>
7

>  <REMARK>
 VINA RESULT:      -7.7      1.649      2.002
  Name = 
  9 active torsions:
  status: ('A' for Active; 'I' for Inactive)
    1  A    between atoms: C_1  and  C_14
    2  A    between atoms: C_1  and  O_25
    3  A    between atoms: O_5  and  C_7
    4  A    between atoms: O_5  and  C_27
    5  A    between atoms: C_7  and  C_39
    6  A    between atoms: C_11  and  C_24
    7  A    between atoms: P_17  and  O_25
    8  A    between atoms: C_22  and  C_38
    9  A    between atoms: C_31  and  C_37
                            x       y       z     vdW  Elec       q    Type
                         _______ _______ _______ _____ _____    ______ ____

>  <TORSDO>
F 9

$$$$
=
 OpenBabel10222421253D

 40 46  0  0  1  0  0  0  0  0999 V2000
  190.6870  176.0100  143.6300 C   0  0  0  0  0  2  0  0  0  0  0  0
  189.9800  176.6300  145.9120 C   0  0  1  0  0  3  0  0  0  0  0  0
  188.9200  177.5090  145.3010 C   0  0  0  0  0  3  0  0  0  0  0  0
  189.7900  177.0830  143.0010 C   0  0  2  0  0  3  0  0  0  0  0  0
  188.7560  177.6390  143.9700 C   0  0  0  0  0  0  0  0  0  0  0  0
  191.1830  176.4730  144.9890 C   0  0  0  0  0  2  0  0  0  0  0  0
  186.4790  179.0770  141.5180 C   0  0  0  0  0  2  0  0  0  0  0  0
  183.8370  178.7520  145.6340 C   0  0  0  0  0  2  0  0  0  0  0  0
  184.1250  178.2060  142.0260 C   0  0  1  0  0  3  0  0  0  0  0  0
  185.0730  178.8100  140.9790 C   0  0  0  0  0  2  0  0  0  0  0  0
  183.3120  178.2810  144.3650 N   0  0  0  0  0  2  0  0  0  0  0  0
  186.9190  177.9900  142.3960 N   0  0  1  0  0  0  0  0  0  0  0  0
  185.1880  179.3790  145.3560 C   0  0  0  0  0  2  0  0  0  0  0  0
  184.1100  178.9740  143.3660 C   0  0  1  0  0  3  0  0  0  0  0  0
  185.4400  179.2510  143.9310 N   0  0  2  0  0  0  0  0  0  0  0  0
  187.7110  178.6050  143.4770 C   0  0  1  0  0  3  0  0  0  0  0  0
  186.3600  178.1100  143.7700 C   0  0  2  0  0  3  0  0  0  0  0  0
  182.7430  178.0570  141.4580 C   0  0  0  0  0  3  0  0  0  0  0  0
  182.5320  177.6000  140.2210 C   0  0  0  0  0  3  0  0  0  0  0  0
  181.1450  177.4790  139.6890 C   0  0  0  0  0  2  0  0  0  0  0  0
  180.5320  176.3380  140.2150 O   0  0  0  0  0  0  0  0  0  0  0  0
  181.5810  174.8540  138.3140 O   0  0  0  0  0  1  0  0  0  0  0  0
  179.4030  176.1610  137.7070 O   0  0  0  0  0  0  0  0  0  0  0  0
  180.2620  175.3140  138.8910 P   0  0  0  0  0  0  0  0  0  0  0  0
  179.3570  173.9670  139.3740 O   0  0  0  0  0  1  0  0  0  0  0  0
  191.5360  176.9870  147.6590 O   0  0  0  0  0  0  0  0  0  0  0  0
  189.4070  177.8750  148.0980 C   0  0  0  0  0  1  0  0  0  0  0  0
  190.3960  177.1500  147.2520 C   0  0  0  0  0  0  0  0  0  0  0  0
  189.1800  176.5670  141.8520 O   0  0  0  0  0  0  0  0  0  0  0  0
  190.1610  176.6310  140.8510 C   0  0  2  0  0  3  0  0  0  0  0  0
  191.0370  177.8550  141.0460 C   0  0  0  0  0  1  0  0  0  0  0  0
  187.6160  177.6470  138.4710 C   0  0  0  0  0  2  0  0  0  0  0  0
  188.7570  179.3820  137.2140 O   0  0  0  0  0  0  0  0  0  0  0  0
  190.5520  176.5340  138.3560 C   0  0  0  0  0  0  0  0  0  0  0  0
  191.3570  175.5770  138.2020 O   0  0  0  0  0  0  0  0  0  0  0  0
  188.2290  178.0910  137.1620 C   0  0  1  0  0  3  0  0  0  0  0  0
  188.8290  177.9100  139.2210 N   0  0  2  0  0  0  0  0  0  0  0  0
  189.4410  178.4210  137.9910 C   0  0  2  0  0  0  0  0  0  0  0  0
  190.4640  177.5940  137.4830 O   0  0  0  0  0  0  0  0  0  0  0  0
  189.5340  176.6330  139.4540 C   0  0  2  0  0  3  0  0  0  0  0  0
  1  6  1  0  0  0  0
  2 28  1  1  0  0  0
  3  2  1  0  0  0  0
  4 29  1  6  0  0  0
  4  1  1  0  0  0  0
  4  5  1  0  0  0  0
  5  3  2  0  0  0  0
  6  2  1  0  0  0  0
  9 18  1  6  0  0  0
  9 14  1  0  0  0  0
 10  7  1  0  0  0  0
 10  9  1  0  0  0  0
 11  8  1  0  0  0  0
 12  7  1  6  0  0  0
 12 16  1  0  0  0  0
 12 17  1  0  0  0  0
 13  8  1  0  0  0  0
 14 15  1  0  0  0  0
 14 11  1  1  0  0  0
 15 13  1  1  0  0  0
 16 17  1  0  0  0  0
 16  5  1  1  0  0  0
 17 15  1  0  0  0  0
 19 18  2  0  0  0  0
 20 21  1  0  0  0  0
 20 19  1  0  0  0  0
 22 24  1  0  0  0  0
 23 24  2  0  0  0  0
 24 25  1  0  0  0  0
 24 21  1  0  0  0  0
 28 26  2  0  0  0  0
 28 27  1  0  0  0  0
 30 31  1  0  0  0  0
 30 29  1  0  0  0  0
 32 37  1  0  0  0  0
 33 38  1  0  0  0  0
 34 40  1  0  0  0  0
 35 34  2  0  0  0  0
 36 33  1  0  0  0  0
 36 38  1  0  0  0  0
 36 32  1  0  0  0  0
 37 40  1  0  0  0  0
 38 37  1  0  0  0  0
 39 38  1  0  0  0  0
 39 34  1  0  0  0  0
 40 30  1  0  0  0  0
M  END
>  <MODEL>
8

>  <REMARK>
 VINA RESULT:      -7.7      4.013      9.365
  Name = 
  9 active torsions:
  status: ('A' for Active; 'I' for Inactive)
    1  A    between atoms: C_1  and  C_14
    2  A    between atoms: C_1  and  O_25
    3  A    between atoms: O_5  and  C_7
    4  A    between atoms: O_5  and  C_27
    5  A    between atoms: C_7  and  C_39
    6  A    between atoms: C_11  and  C_24
    7  A    between atoms: P_17  and  O_25
    8  A    between atoms: C_22  and  C_38
    9  A    between atoms: C_31  and  C_37
                            x       y       z     vdW  Elec       q    Type
                         _______ _______ _______ _____ _____    ______ ____

>  <TORSDO>
F 9

$$$$
=
 OpenBabel10222421253D

 40 46  0  0  1  0  0  0  0  0999 V2000
  189.7260  176.6770  135.5920 C   0  0  0  0  0  2  0  0  0  0  0  0
  191.2580  175.3150  136.9670 C   0  0  1  0  0  3  0  0  0  0  0  0
  190.8470  176.1340  138.1630 C   0  0  0  0  0  3  0  0  0  0  0  0
  189.4930  177.6700  136.7350 C   0  0  2  0  0  3  0  0  0  0  0  0
  189.9590  177.1440  138.0870 C   0  0  0  0  0  0  0  0  0  0  0  0
  191.1330  176.1070  135.6720 C   0  0  0  0  0  2  0  0  0  0  0  0
  187.8520  178.6670  140.6370 C   0  0  0  0  0  2  0  0  0  0  0  0
  191.4900  176.5330  143.1340 C   0  0  0  0  0  2  0  0  0  0  0  0
  187.9090  177.1600  142.7070 C   0  0  1  0  0  3  0  0  0  0  0  0
  187.1530  178.2500  141.9320 C   0  0  0  0  0  2  0  0  0  0  0  0
  190.1030  176.3490  143.5220 N   0  0  0  0  0  2  0  0  0  0  0  0
  188.4140  177.5050  139.9470 N   0  0  1  0  0  0  0  0  0  0  0  0
  191.5070  177.5120  141.9780 C   0  0  0  0  0  2  0  0  0  0  0  0
  189.4070  177.4730  142.9160 C   0  0  1  0  0  3  0  0  0  0  0  0
  190.1280  177.8730  141.6970 N   0  0  2  0  0  0  0  0  0  0  0  0
  189.6830  177.9400  139.3350 C   0  0  1  0  0  3  0  0  0  0  0  0
  189.7180  177.0790  140.5240 C   0  0  2  0  0  3  0  0  0  0  0  0
  187.2180  176.8660  144.0070 C   0  0  0  0  0  3  0  0  0  0  0  0
  187.1000  177.7840  144.9690 C   0  0  0  0  0  3  0  0  0  0  0  0
  186.4180  177.4490  146.2520 C   0  0  0  0  0  2  0  0  0  0  0  0
  186.8320  178.3310  147.2540 O   0  0  0  0  0  0  0  0  0  0  0  0
  188.6120  178.2550  149.1890 O   0  0  0  0  0  1  0  0  0  0  0  0
  189.5410  178.2520  146.7480 O   0  0  0  0  0  0  0  0  0  0  0  0
  188.3230  177.7340  147.7990 P   0  0  0  0  0  0  0  0  0  0  0  0
  188.2960  176.0420  147.8260 O   0  0  0  0  0  1  0  0  0  0  0  0
  193.5500  175.5060  137.5250 O   0  0  0  0  0  0  0  0  0  0  0  0
  192.9240  173.3500  136.8360 C   0  0  0  0  0  1  0  0  0  0  0  0
  192.6450  174.7810  137.1390 C   0  0  0  0  0  0  0  0  0  0  0  0
  188.1420  178.0310  136.7720 O   0  0  0  0  0  0  0  0  0  0  0  0
  187.4750  177.0470  136.0280 C   0  0  2  0  0  3  0  0  0  0  0  0
  186.7180  177.6780  134.8740 C   0  0  0  0  0  1  0  0  0  0  0  0
  184.2520  176.4240  137.5750 C   0  0  0  0  0  2  0  0  0  0  0  0
  183.3290  174.6890  136.1500 O   0  0  0  0  0  0  0  0  0  0  0  0
  186.8130  174.7520  136.8550 C   0  0  0  0  0  0  0  0  0  0  0  0
  187.9010  174.2140  137.1910 O   0  0  0  0  0  0  0  0  0  0  0  0
  183.8340  174.9800  137.4180 C   0  0  1  0  0  3  0  0  0  0  0  0
  185.1410  176.3740  136.4300 N   0  0  2  0  0  0  0  0  0  0  0  0
  184.7070  174.9940  136.1940 C   0  0  2  0  0  0  0  0  0  0  0  0
  185.7100  174.0350  136.4510 O   0  0  0  0  0  0  0  0  0  0  0  0
  186.5290  176.2250  136.9080 C   0  0  2  0  0  3  0  0  0  0  0  0
  1  6  1  0  0  0  0
  1  4  1  0  0  0  0
  2 28  1  1  0  0  0
  2  3  1  0  0  0  0
  4 29  1  1  0  0  0
  4  5  1  0  0  0  0
  5  3  2  0  0  0  0
  6  2  1  0  0  0  0
  7 10  1  0  0  0  0
  8 11  1  0  0  0  0
  9 14  1  0  0  0  0
  9 18  1  1  0  0  0
 10  9  1  0  0  0  0
 12 17  1  0  0  0  0
 12  7  1  1  0  0  0
 13  8  1  0  0  0  0
 14 11  1  6  0  0  0
 15 13  1  1  0  0  0
 15 14  1  0  0  0  0
 16  5  1  6  0  0  0
 16 12  1  0  0  0  0
 16 17  1  0  0  0  0
 17 15  1  0  0  0  0
 18 19  2  0  0  0  0
 19 20  1  0  0  0  0
 20 21  1  0  0  0  0
 21 24  1  0  0  0  0
 23 24  2  0  0  0  0
 24 25  1  0  0  0  0
 24 22  1  0  0  0  0
 27 28  1  0  0  0  0
 28 26  2  0  0  0  0
 30 29  1  0  0  0  0
 30 40  1  0  0  0  0
 31 30  1  0  0  0  0
 33 38  1  0  0  0  0
 33 36  1  0  0  0  0
 34 40  1  0  0  0  0
 34 35  2  0  0  0  0
 36 32  1  0  0  0  0
 37 40  1  0  0  0  0
 37 32  1  0  0  0  0
 38 37  1  0  0  0  0
 38 39  1  0  0  0  0
 38 36  1  0  0  0  0
 39 34  1  0  0  0  0
M  END
>  <MODEL>
9

>  <REMARK>
 VINA RESULT:      -7.6      3.564      9.742
  Name = 
  9 active torsions:
  status: ('A' for Active; 'I' for Inactive)
    1  A    between atoms: C_1  and  C_14
    2  A    between atoms: C_1  and  O_25
    3  A    between atoms: O_5  and  C_7
    4  A    between atoms: O_5  and  C_27
    5  A    between atoms: C_7  and  C_39
    6  A    between atoms: C_11  and  C_24
    7  A    between atoms: P_17  and  O_25
    8  A    between atoms: C_22  and  C_38
    9  A    between atoms: C_31  and  C_37
                            x       y       z     vdW  Elec       q    Type
                         _______ _______ _______ _____ _____    ______ ____

>  <TORSDO>
F 9

$$$$
