=
 OpenBabel10222419553D

 37 39  0  0  1  0  0  0  0  0999 V2000
  185.9520  178.7570  138.2450 N   0  0  0  0  0  2  0  0  0  0  0  0
  187.3080  178.3390  138.3930 C   0  0  0  0  0  0  0  0  0  0  0  0
  188.0880  177.9200  137.1740 C   0  0  0  0  0  2  0  0  0  0  0  0
  189.2640  177.9190  139.7540 C   0  0  2  0  0  3  0  0  0  0  0  0
  187.8610  178.3060  139.5730 N   0  0  0  0  0  0  0  0  0  0  0  0
  189.1190  176.8800  137.5330 C   0  0  0  0  0  0  0  0  0  0  0  0
  189.6570  176.8570  138.7620 C   0  0  0  0  0  3  0  0  0  0  0  0
  189.5260  177.4660  141.1530 C   0  0  0  0  0  0  0  0  0  0  0  0
  190.5160  176.6800  143.2850 C   0  0  0  0  0  0  0  0  0  0  0  0
  189.1290  176.6270  143.2870 C   0  0  0  0  0  3  0  0  0  0  0  0
  191.0590  177.2480  141.8020 S   0  0  0  0  0  0  0  0  0  0  0  0
  188.5680  177.0680  142.0800 C   0  0  0  0  0  3  0  0  0  0  0  0
  191.4030  176.2110  144.3900 C   0  0  0  0  0  2  0  0  0  0  0  0
  191.5120  177.2620  145.4900 C   0  0  0  0  0  2  0  0  0  0  0  0
  191.1330  176.0250  147.4590 O   0  0  0  0  0  0  0  0  0  0  0  0
  190.7120  176.8780  146.6970 C   0  0  0  0  0  0  0  0  0  0  0  0
  188.3490  176.2590  147.7220 O   0  0  0  0  0  1  0  0  0  0  0  0
  189.4960  178.3890  148.5660 O   0  0  0  0  0  1  0  0  0  0  0  0
  189.0870  177.6730  147.0400 P   0  0  0  0  0  0  0  0  0  0  0  0
  189.4930  175.8430  136.5250 C   0  0  0  0  0  2  0  0  0  0  0  0
  189.5570  174.4690  137.1660 C   0  0  0  0  0  2  0  0  0  0  0  0
  190.9250  173.8690  136.9240 C   0  0  0  0  0  2  0  0  0  0  0  0
  193.0880  174.0400  137.3190 C   0  0  0  0  0  1  0  0  0  0  0  0
  191.8400  174.4040  137.8280 O   0  0  0  0  0  0  0  0  0  0  0  0
  185.1800  179.0510  139.3190 O   0  0  0  0  0  0  0  0  0  0  0  0
  183.9360  178.4830  139.0370 C   0  0  0  0  0  2  0  0  0  0  0  0
  183.4460  177.7070  140.2420 C   0  0  0  0  0  2  0  0  0  0  0  0
  183.0510  178.6120  141.2660 O   0  0  0  0  0  0  0  0  0  0  0  0
  183.4730  179.0380  144.9180 C   0  0  0  0  0  3  0  0  0  0  0  0
  184.8100  178.6640  145.0880 C   0  0  0  0  0  0  0  0  0  0  0  0
  185.5720  178.2850  143.9800 C   0  0  0  0  0  3  0  0  0  0  0  0
  182.8860  179.0310  143.6410 C   0  0  0  0  0  0  0  0  0  0  0  0
  185.4230  178.6930  146.4410 C   0  0  0  0  0  1  0  0  0  0  0  0
  183.6500  178.6390  142.5300 C   0  0  0  0  0  0  0  0  0  0  0  0
  184.9960  178.2720  142.7060 C   0  0  0  0  0  3  0  0  0  0  0  0
  181.5490  179.4050  143.4530 O   0  0  0  0  0  0  0  0  0  0  0  0
  180.4590  178.5520  143.7760 C   0  0  0  0  0  1  0  0  0  0  0  0
  1  2  1  0  0  0  0
  1 25  1  0  0  0  0
  2  5  2  0  0  0  0
  3  6  1  0  0  0  0
  3  2  1  0  0  0  0
  4  8  1  1  0  0  0
  5  4  1  0  0  0  0
  6  7  2  0  0  0  0
  7  4  1  0  0  0  0
  8 11  1  0  0  0  0
  8 12  2  0  0  0  0
  9 10  2  0  0  0  0
  9 13  1  0  0  0  0
 11  9  1  0  0  0  0
 12 10  1  0  0  0  0
 13 14  1  0  0  0  0
 14 16  1  0  0  0  0
 16 19  1  0  0  0  0
 16 15  2  0  0  0  0
 19 17  1  0  0  0  0
 19 18  1  0  0  0  0
 20 21  1  0  0  0  0
 20  6  1  0  0  0  0
 22 21  1  0  0  0  0
 22 24  1  0  0  0  0
 23 24  1  0  0  0  0
 26 25  1  0  0  0  0
 26 27  1  0  0  0  0
 27 28  1  0  0  0  0
 28 34  1  0  0  0  0
 29 30  1  0  0  0  0
 30 33  1  0  0  0  0
 31 30  2  0  0  0  0
 32 29  2  0  0  0  0
 34 35  2  0  0  0  0
 34 32  1  0  0  0  0
 35 31  1  0  0  0  0
 36 32  1  0  0  0  0
 36 37  1  0  0  0  0
M  END
>  <MODEL>
1

>  <REMARK>
 VINA RESULT:      -7.9      0.000      0.000
  Name = 
  15 active torsions:
  status: ('A' for Active; 'I' for Inactive)
    1  A    between atoms: N_1  and  O_21
    2  A    between atoms: C_3  and  C_23
    3  A    between atoms: C_3  and  O_37
    4  A    between atoms: C_6  and  C_19
    5  A    between atoms: O_7  and  C_22
    6  A    between atoms: O_7  and  C_31
    7  A    between atoms: C_10  and  C_24
    8  A    between atoms: C_13  and  C_23
    9  A    between atoms: C_13  and  C_32
   10  A    between atoms: C_17  and  O_20
   11  A    between atoms: P_18  and  C_33
   12  A    between atoms: O_21  and  C_35
   13  A    between atoms: C_22  and  C_35
   14  A    between atoms: C_24  and  C_30
   15  A    between atoms: C_30  and  C_33
                            x       y       z     vdW  Elec       q    Type
                         _______ _______ _______ _____ _____    ______ ____

>  <TORSDO>
F 15

$$$$
=
 OpenBabel10222419553D

 37 39  0  0  1  0  0  0  0  0999 V2000
  184.2010  179.1220  145.2720 N   0  0  0  0  0  2  0  0  0  0  0  0
  185.3890  178.3390  145.1640 C   0  0  0  0  0  0  0  0  0  0  0  0
  186.0590  177.8360  146.4160 C   0  0  0  0  0  2  0  0  0  0  0  0
  187.0950  177.2410  143.8460 C   0  0  2  0  0  3  0  0  0  0  0  0
  185.8990  178.0760  143.9930 N   0  0  0  0  0  0  0  0  0  0  0  0
  187.5480  177.7140  146.2140 C   0  0  0  0  0  0  0  0  0  0  0  0
  188.0450  177.4620  144.9930 C   0  0  0  0  0  3  0  0  0  0  0  0
  187.7730  177.4890  142.5380 C   0  0  0  0  0  0  0  0  0  0  0  0
  189.3350  177.6010  140.6170 C   0  0  0  0  0  0  0  0  0  0  0  0
  188.2450  178.4490  140.4710 C   0  0  0  0  0  3  0  0  0  0  0  0
  189.2310  176.7920  142.0830 S   0  0  0  0  0  0  0  0  0  0  0  0
  187.3630  178.3890  141.5590 C   0  0  0  0  0  3  0  0  0  0  0  0
  190.4830  177.4940  139.6680 C   0  0  0  0  0  2  0  0  0  0  0  0
  189.9950  177.2560  138.2430 C   0  0  0  0  0  2  0  0  0  0  0  0
  190.9120  175.1020  138.5130 O   0  0  0  0  0  0  0  0  0  0  0  0
  190.2810  175.8560  137.7920 C   0  0  0  0  0  0  0  0  0  0  0  0
  189.6630  173.5800  136.5850 O   0  0  0  0  0  1  0  0  0  0  0  0
  188.0010  175.5200  136.3980 O   0  0  0  0  0  1  0  0  0  0  0  0
  189.6980  175.2590  136.1510 P   0  0  0  0  0  0  0  0  0  0  0  0
  188.4640  177.9330  147.3730 C   0  0  0  0  0  2  0  0  0  0  0  0
  189.3240  176.7070  147.6160 C   0  0  0  0  0  2  0  0  0  0  0  0
  190.7840  177.0930  147.5120 C   0  0  0  0  0  2  0  0  0  0  0  0
  191.5460  176.7430  145.4730 C   0  0  0  0  0  1  0  0  0  0  0  0
  191.4640  176.1570  146.7380 O   0  0  0  0  0  0  0  0  0  0  0  0
  183.6180  179.6780  144.1840 O   0  0  0  0  0  0  0  0  0  0  0  0
  182.4650  178.9210  143.9640 C   0  0  0  0  0  2  0  0  0  0  0  0
  181.8210  179.3410  142.6600 C   0  0  0  0  0  2  0  0  0  0  0  0
  181.8060  178.2410  141.7570 O   0  0  0  0  0  0  0  0  0  0  0  0
  183.3860  176.9840  138.6550 C   0  0  0  0  0  3  0  0  0  0  0  0
  184.4350  177.8930  138.4910 C   0  0  0  0  0  0  0  0  0  0  0  0
  184.6230  178.9160  139.4240 C   0  0  0  0  0  3  0  0  0  0  0  0
  182.5120  177.0930  139.7510 C   0  0  0  0  0  0  0  0  0  0  0  0
  185.3620  177.7570  137.3380 C   0  0  0  0  0  1  0  0  0  0  0  0
  182.6950  178.1280  140.6830 C   0  0  0  0  0  0  0  0  0  0  0  0
  183.7570  179.0340  140.5160 C   0  0  0  0  0  3  0  0  0  0  0  0
  181.4580  176.1880  139.9320 O   0  0  0  0  0  0  0  0  0  0  0  0
  181.1010  175.2170  138.9570 C   0  0  0  0  0  1  0  0  0  0  0  0
  2  1  1  0  0  0  0
  2  3  1  0  0  0  0
  4  8  1  6  0  0  0
  4  5  1  0  0  0  0
  4  7  1  0  0  0  0
  5  2  2  0  0  0  0
  6  3  1  0  0  0  0
  6 20  1  0  0  0  0
  7  6  2  0  0  0  0
  9 11  1  0  0  0  0
 10  9  2  0  0  0  0
 10 12  1  0  0  0  0
 11  8  1  0  0  0  0
 12  8  2  0  0  0  0
 13  9  1  0  0  0  0
 14 13  1  0  0  0  0
 16 14  1  0  0  0  0
 16 15  2  0  0  0  0
 19 18  1  0  0  0  0
 19 17  1  0  0  0  0
 19 16  1  0  0  0  0
 20 21  1  0  0  0  0
 22 21  1  0  0  0  0
 23 24  1  0  0  0  0
 24 22  1  0  0  0  0
 25  1  1  0  0  0  0
 26 25  1  0  0  0  0
 27 26  1  0  0  0  0
 28 27  1  0  0  0  0
 29 32  1  0  0  0  0
 30 29  2  0  0  0  0
 30 31  1  0  0  0  0
 31 35  2  0  0  0  0
 32 36  1  0  0  0  0
 32 34  2  0  0  0  0
 33 30  1  0  0  0  0
 34 28  1  0  0  0  0
 35 34  1  0  0  0  0
 37 36  1  0  0  0  0
M  END
>  <MODEL>
2

>  <REMARK>
 VINA RESULT:      -7.3      2.892      7.193
  Name = 
  15 active torsions:
  status: ('A' for Active; 'I' for Inactive)
    1  A    between atoms: N_1  and  O_21
    2  A    between atoms: C_3  and  C_23
    3  A    between atoms: C_3  and  O_37
    4  A    between atoms: C_6  and  C_19
    5  A    between atoms: O_7  and  C_22
    6  A    between atoms: O_7  and  C_31
    7  A    between atoms: C_10  and  C_24
    8  A    between atoms: C_13  and  C_23
    9  A    between atoms: C_13  and  C_32
   10  A    between atoms: C_17  and  O_20
   11  A    between atoms: P_18  and  C_33
   12  A    between atoms: O_21  and  C_35
   13  A    between atoms: C_22  and  C_35
   14  A    between atoms: C_24  and  C_30
   15  A    between atoms: C_30  and  C_33
                            x       y       z     vdW  Elec       q    Type
                         _______ _______ _______ _____ _____    ______ ____

>  <TORSDO>
F 15

$$$$
=
 OpenBabel10222419553D

 37 39  0  0  1  0  0  0  0  0999 V2000
  184.2850  179.1690  145.2920 N   0  0  0  0  0  2  0  0  0  0  0  0
  185.4540  178.3600  145.1790 C   0  0  0  0  0  0  0  0  0  0  0  0
  186.1080  177.8290  146.4280 C   0  0  0  0  0  2  0  0  0  0  0  0
  187.1380  177.2340  143.8550 C   0  0  2  0  0  3  0  0  0  0  0  0
  185.9610  178.0960  144.0070 N   0  0  0  0  0  0  0  0  0  0  0  0
  187.5950  177.6740  146.2280 C   0  0  0  0  0  0  0  0  0  0  0  0
  188.0890  177.4220  145.0070 C   0  0  0  0  0  3  0  0  0  0  0  0
  187.8250  177.4800  142.5510 C   0  0  0  0  0  0  0  0  0  0  0  0
  189.4020  177.5870  140.6410 C   0  0  0  0  0  0  0  0  0  0  0  0
  188.3120  178.4340  140.4860 C   0  0  0  0  0  3  0  0  0  0  0  0
  189.2870  176.7810  142.1080 S   0  0  0  0  0  0  0  0  0  0  0  0
  187.4220  178.3770  141.5670 C   0  0  0  0  0  3  0  0  0  0  0  0
  190.5560  177.4780  139.7010 C   0  0  0  0  0  2  0  0  0  0  0  0
  190.0780  177.2820  138.2660 C   0  0  0  0  0  2  0  0  0  0  0  0
  190.8750  175.0650  138.2780 O   0  0  0  0  0  0  0  0  0  0  0  0
  190.0010  175.8300  137.9070 C   0  0  0  0  0  0  0  0  0  0  0  0
  187.4150  176.2720  137.5390 O   0  0  0  0  0  1  0  0  0  0  0  0
  188.9060  176.1090  135.4620 O   0  0  0  0  0  1  0  0  0  0  0  0
  188.6040  175.1830  136.8970 P   0  0  0  0  0  0  0  0  0  0  0  0
  188.5130  177.8600  147.3920 C   0  0  0  0  0  2  0  0  0  0  0  0
  189.5080  176.7180  147.4790 C   0  0  0  0  0  2  0  0  0  0  0  0
  190.8990  177.2830  147.6710 C   0  0  0  0  0  2  0  0  0  0  0  0
  192.3230  175.6560  147.2370 C   0  0  0  0  0  1  0  0  0  0  0  0
  191.7450  176.7970  146.6770 O   0  0  0  0  0  0  0  0  0  0  0  0
  183.7170  179.7490  144.2070 O   0  0  0  0  0  0  0  0  0  0  0  0
  182.9700  178.7350  143.6040 C   0  0  0  0  0  2  0  0  0  0  0  0
  181.5650  179.2320  143.3340 C   0  0  0  0  0  2  0  0  0  0  0  0
  181.0860  178.6750  142.1150 O   0  0  0  0  0  0  0  0  0  0  0  0
  181.8790  179.8380  138.6920 C   0  0  0  0  0  3  0  0  0  0  0  0
  180.8940  180.8110  138.4960 C   0  0  0  0  0  0  0  0  0  0  0  0
  179.9760  181.0880  139.5110 C   0  0  0  0  0  3  0  0  0  0  0  0
  181.9510  179.1300  139.9050 C   0  0  0  0  0  0  0  0  0  0  0  0
  180.8400  181.5640  137.2160 C   0  0  0  0  0  1  0  0  0  0  0  0
  181.0210  179.4010  140.9210 C   0  0  0  0  0  0  0  0  0  0  0  0
  180.0380  180.3860  140.7200 C   0  0  0  0  0  3  0  0  0  0  0  0
  182.9330  178.1550  140.1190 O   0  0  0  0  0  0  0  0  0  0  0  0
  182.8390  176.8390  139.5890 C   0  0  0  0  0  1  0  0  0  0  0  0
  2  1  1  0  0  0  0
  2  3  1  0  0  0  0
  4  8  1  6  0  0  0
  4  5  1  0  0  0  0
  4  7  1  0  0  0  0
  5  2  2  0  0  0  0
  6  3  1  0  0  0  0
  6 20  1  0  0  0  0
  7  6  2  0  0  0  0
  9 11  1  0  0  0  0
 10  9  2  0  0  0  0
 10 12  1  0  0  0  0
 11  8  1  0  0  0  0
 12  8  2  0  0  0  0
 13  9  1  0  0  0  0
 14 13  1  0  0  0  0
 16 14  1  0  0  0  0
 16 15  2  0  0  0  0
 18 19  1  0  0  0  0
 19 17  1  0  0  0  0
 19 16  1  0  0  0  0
 20 21  1  0  0  0  0
 21 22  1  0  0  0  0
 24 23  1  0  0  0  0
 24 22  1  0  0  0  0
 25  1  1  0  0  0  0
 26 25  1  0  0  0  0
 27 26  1  0  0  0  0
 28 27  1  0  0  0  0
 29 32  1  0  0  0  0
 30 29  2  0  0  0  0
 30 31  1  0  0  0  0
 31 35  2  0  0  0  0
 32 36  1  0  0  0  0
 32 34  2  0  0  0  0
 33 30  1  0  0  0  0
 34 28  1  0  0  0  0
 35 34  1  0  0  0  0
 37 36  1  0  0  0  0
M  END
>  <MODEL>
3

>  <REMARK>
 VINA RESULT:      -7.2      3.138      7.382
  Name = 
  15 active torsions:
  status: ('A' for Active; 'I' for Inactive)
    1  A    between atoms: N_1  and  O_21
    2  A    between atoms: C_3  and  C_23
    3  A    between atoms: C_3  and  O_37
    4  A    between atoms: C_6  and  C_19
    5  A    between atoms: O_7  and  C_22
    6  A    between atoms: O_7  and  C_31
    7  A    between atoms: C_10  and  C_24
    8  A    between atoms: C_13  and  C_23
    9  A    between atoms: C_13  and  C_32
   10  A    between atoms: C_17  and  O_20
   11  A    between atoms: P_18  and  C_33
   12  A    between atoms: O_21  and  C_35
   13  A    between atoms: C_22  and  C_35
   14  A    between atoms: C_24  and  C_30
   15  A    between atoms: C_30  and  C_33
                            x       y       z     vdW  Elec       q    Type
                         _______ _______ _______ _____ _____    ______ ____

>  <TORSDO>
F 15

$$$$
=
 OpenBabel10222419553D

 37 39  0  0  1  0  0  0  0  0999 V2000
  184.4110  179.3080  140.1070 N   0  0  0  0  0  2  0  0  0  0  0  0
  184.7830  178.6970  138.8720 C   0  0  0  0  0  0  0  0  0  0  0  0
  183.7100  178.1610  137.9600 C   0  0  0  0  0  2  0  0  0  0  0  0
  186.4540  178.0040  137.2650 C   0  0  2  0  0  3  0  0  0  0  0  0
  186.0410  178.5900  138.5440 N   0  0  0  0  0  0  0  0  0  0  0  0
  184.2210  176.9840  137.1690 C   0  0  0  0  0  0  0  0  0  0  0  0
  185.5240  176.8900  136.8630 C   0  0  0  0  0  3  0  0  0  0  0  0
  187.8680  177.5240  137.3190 C   0  0  0  0  0  0  0  0  0  0  0  0
  190.1700  176.8800  137.9750 C   0  0  0  0  0  0  0  0  0  0  0  0
  189.9890  176.8940  136.5980 C   0  0  0  0  0  3  0  0  0  0  0  0
  188.7460  177.3360  138.7380 S   0  0  0  0  0  0  0  0  0  0  0  0
  188.6880  177.2610  136.2260 C   0  0  0  0  0  3  0  0  0  0  0  0
  191.4580  176.6040  138.6770 C   0  0  0  0  0  2  0  0  0  0  0  0
  192.1700  175.4030  138.0630 C   0  0  0  0  0  2  0  0  0  0  0  0
  193.8560  176.8670  137.3110 O   0  0  0  0  0  0  0  0  0  0  0  0
  193.5790  175.7380  137.6790 C   0  0  0  0  0  0  0  0  0  0  0  0
  196.0320  175.3360  136.7640 O   0  0  0  0  0  1  0  0  0  0  0  0
  195.6070  174.9330  139.2580 O   0  0  0  0  0  1  0  0  0  0  0  0
  194.9020  174.4600  137.7450 P   0  0  0  0  0  0  0  0  0  0  0  0
  183.2730  175.8970  136.7790 C   0  0  0  0  0  2  0  0  0  0  0  0
  184.0280  174.6760  136.2890 C   0  0  0  0  0  2  0  0  0  0  0  0
  183.8600  173.5520  137.2900 C   0  0  0  0  0  2  0  0  0  0  0  0
  183.0280  171.5250  137.0510 C   0  0  0  0  0  1  0  0  0  0  0  0
  184.1030  172.3300  136.6690 O   0  0  0  0  0  0  0  0  0  0  0  0
  185.3410  179.7170  141.0030 O   0  0  0  0  0  0  0  0  0  0  0  0
  185.3490  178.7300  141.9920 C   0  0  0  0  0  2  0  0  0  0  0  0
  186.7780  178.3410  142.3090 C   0  0  0  0  0  2  0  0  0  0  0  0
  186.7850  177.2790  143.2570 O   0  0  0  0  0  0  0  0  0  0  0  0
  188.9720  177.3930  146.2400 C   0  0  0  0  0  3  0  0  0  0  0  0
  188.0730  177.8130  147.2260 C   0  0  0  0  0  0  0  0  0  0  0  0
  186.7350  178.0420  146.8960 C   0  0  0  0  0  3  0  0  0  0  0  0
  188.5410  177.2050  144.9160 C   0  0  0  0  0  0  0  0  0  0  0  0
  188.5370  177.9920  148.6260 C   0  0  0  0  0  1  0  0  0  0  0  0
  187.1980  177.4460  144.5830 C   0  0  0  0  0  0  0  0  0  0  0  0
  186.2980  177.8600  145.5800 C   0  0  0  0  0  3  0  0  0  0  0  0
  189.4280  176.7820  143.9170 O   0  0  0  0  0  0  0  0  0  0  0  0
  190.3800  177.6500  143.3160 C   0  0  0  0  0  1  0  0  0  0  0  0
  1 25  1  0  0  0  0
  2  1  1  0  0  0  0
  3  2  1  0  0  0  0
  4  8  1  1  0  0  0
  4  5  1  0  0  0  0
  5  2  2  0  0  0  0
  6  3  1  0  0  0  0
  7  6  2  0  0  0  0
  7  4  1  0  0  0  0
  8 11  1  0  0  0  0
  9 13  1  0  0  0  0
  9 11  1  0  0  0  0
 10  9  2  0  0  0  0
 12 10  1  0  0  0  0
 12  8  2  0  0  0  0
 14 13  1  0  0  0  0
 15 16  2  0  0  0  0
 16 19  1  0  0  0  0
 16 14  1  0  0  0  0
 17 19  1  0  0  0  0
 19 18  1  0  0  0  0
 20  6  1  0  0  0  0
 21 20  1  0  0  0  0
 21 22  1  0  0  0  0
 24 23  1  0  0  0  0
 24 22  1  0  0  0  0
 25 26  1  0  0  0  0
 26 27  1  0  0  0  0
 27 28  1  0  0  0  0
 28 34  1  0  0  0  0
 29 30  1  0  0  0  0
 30 33  1  0  0  0  0
 31 30  2  0  0  0  0
 32 29  2  0  0  0  0
 34 32  1  0  0  0  0
 34 35  2  0  0  0  0
 35 31  1  0  0  0  0
 36 32  1  0  0  0  0
 37 36  1  0  0  0  0
M  END
>  <MODEL>
4

>  <REMARK>
 VINA RESULT:      -7.2      3.560      6.635
  Name = 
  15 active torsions:
  status: ('A' for Active; 'I' for Inactive)
    1  A    between atoms: N_1  and  O_21
    2  A    between atoms: C_3  and  C_23
    3  A    between atoms: C_3  and  O_37
    4  A    between atoms: C_6  and  C_19
    5  A    between atoms: O_7  and  C_22
    6  A    between atoms: O_7  and  C_31
    7  A    between atoms: C_10  and  C_24
    8  A    between atoms: C_13  and  C_23
    9  A    between atoms: C_13  and  C_32
   10  A    between atoms: C_17  and  O_20
   11  A    between atoms: P_18  and  C_33
   12  A    between atoms: O_21  and  C_35
   13  A    between atoms: C_22  and  C_35
   14  A    between atoms: C_24  and  C_30
   15  A    between atoms: C_30  and  C_33
                            x       y       z     vdW  Elec       q    Type
                         _______ _______ _______ _____ _____    ______ ____

>  <TORSDO>
F 15

$$$$
=
 OpenBabel10222419553D

 37 39  0  0  1  0  0  0  0  0999 V2000
  184.2280  179.0950  145.3900 N   0  0  0  0  0  2  0  0  0  0  0  0
  185.4130  178.3130  145.2460 C   0  0  0  0  0  0  0  0  0  0  0  0
  186.1080  177.7940  146.4780 C   0  0  0  0  0  2  0  0  0  0  0  0
  187.0900  177.2310  143.8790 C   0  0  2  0  0  3  0  0  0  0  0  0
  185.8970  178.0650  144.0620 N   0  0  0  0  0  0  0  0  0  0  0  0
  187.5930  177.6740  146.2420 C   0  0  0  0  0  0  0  0  0  0  0  0
  188.0640  177.4370  145.0080 C   0  0  0  0  0  3  0  0  0  0  0  0
  187.7400  177.4960  142.5600 C   0  0  0  0  0  0  0  0  0  0  0  0
  189.2660  177.6430  140.6120 C   0  0  0  0  0  0  0  0  0  0  0  0
  188.1590  178.4710  140.4890 C   0  0  0  0  0  3  0  0  0  0  0  0
  189.2020  176.8260  142.0770 S   0  0  0  0  0  0  0  0  0  0  0  0
  187.2960  178.3910  141.5920 C   0  0  0  0  0  3  0  0  0  0  0  0
  190.3990  177.5590  139.6430 C   0  0  0  0  0  2  0  0  0  0  0  0
  189.8870  177.4370  138.2110 C   0  0  0  0  0  2  0  0  0  0  0  0
  190.5630  175.1840  138.3470 O   0  0  0  0  0  0  0  0  0  0  0  0
  189.9090  176.0160  137.7400 C   0  0  0  0  0  0  0  0  0  0  0  0
  187.7460  174.6260  137.1040 O   0  0  0  0  0  1  0  0  0  0  0  0
  188.0210  176.9490  136.0620 O   0  0  0  0  0  1  0  0  0  0  0  0
  188.9670  175.5060  136.2430 P   0  0  0  0  0  0  0  0  0  0  0  0
  188.5340  177.8780  147.3840 C   0  0  0  0  0  2  0  0  0  0  0  0
  189.5500  176.7530  147.4500 C   0  0  0  0  0  2  0  0  0  0  0  0
  190.9260  177.3380  147.6830 C   0  0  0  0  0  2  0  0  0  0  0  0
  192.2840  175.6710  147.1940 C   0  0  0  0  0  1  0  0  0  0  0  0
  191.8030  176.8850  146.7010 O   0  0  0  0  0  0  0  0  0  0  0  0
  183.6220  179.6650  144.3210 O   0  0  0  0  0  0  0  0  0  0  0  0
  182.7040  178.7120  143.8740 C   0  0  0  0  0  2  0  0  0  0  0  0
  181.4050  179.3940  143.4980 C   0  0  0  0  0  2  0  0  0  0  0  0
  181.3270  179.5270  142.0830 O   0  0  0  0  0  0  0  0  0  0  0  0
  182.3340  177.0340  139.5400 C   0  0  0  0  0  3  0  0  0  0  0  0
  181.2060  176.2080  139.5010 C   0  0  0  0  0  0  0  0  0  0  0  0
  180.1060  176.4930  140.3120 C   0  0  0  0  0  3  0  0  0  0  0  0
  182.3720  178.1490  140.3960 C   0  0  0  0  0  0  0  0  0  0  0  0
  181.1720  175.0420  138.5810 C   0  0  0  0  0  1  0  0  0  0  0  0
  181.2690  178.4290  141.2190 C   0  0  0  0  0  0  0  0  0  0  0  0
  180.1360  177.5990  141.1680 C   0  0  0  0  0  3  0  0  0  0  0  0
  183.4930  178.9890  140.4450 O   0  0  0  0  0  0  0  0  0  0  0  0
  184.3800  179.1520  139.3460 C   0  0  0  0  0  1  0  0  0  0  0  0
  2  1  1  0  0  0  0
  2  3  1  0  0  0  0
  4  8  1  6  0  0  0
  4  5  1  0  0  0  0
  4  7  1  0  0  0  0
  5  2  2  0  0  0  0
  6  3  1  0  0  0  0
  6 20  1  0  0  0  0
  7  6  2  0  0  0  0
  9 11  1  0  0  0  0
 10  9  2  0  0  0  0
 10 12  1  0  0  0  0
 11  8  1  0  0  0  0
 12  8  2  0  0  0  0
 13  9  1  0  0  0  0
 14 13  1  0  0  0  0
 16 14  1  0  0  0  0
 16 15  2  0  0  0  0
 18 19  1  0  0  0  0
 19 17  1  0  0  0  0
 19 16  1  0  0  0  0
 20 21  1  0  0  0  0
 21 22  1  0  0  0  0
 24 23  1  0  0  0  0
 24 22  1  0  0  0  0
 25  1  1  0  0  0  0
 26 25  1  0  0  0  0
 27 26  1  0  0  0  0
 28 27  1  0  0  0  0
 29 32  1  0  0  0  0
 30 29  2  0  0  0  0
 30 31  1  0  0  0  0
 31 35  2  0  0  0  0
 32 36  1  0  0  0  0
 32 34  2  0  0  0  0
 33 30  1  0  0  0  0
 34 28  1  0  0  0  0
 35 34  1  0  0  0  0
 37 36  1  0  0  0  0
M  END
>  <MODEL>
5

>  <REMARK>
 VINA RESULT:      -7.1      3.054      7.317
  Name = 
  15 active torsions:
  status: ('A' for Active; 'I' for Inactive)
    1  A    between atoms: N_1  and  O_21
    2  A    between atoms: C_3  and  C_23
    3  A    between atoms: C_3  and  O_37
    4  A    between atoms: C_6  and  C_19
    5  A    between atoms: O_7  and  C_22
    6  A    between atoms: O_7  and  C_31
    7  A    between atoms: C_10  and  C_24
    8  A    between atoms: C_13  and  C_23
    9  A    between atoms: C_13  and  C_32
   10  A    between atoms: C_17  and  O_20
   11  A    between atoms: P_18  and  C_33
   12  A    between atoms: O_21  and  C_35
   13  A    between atoms: C_22  and  C_35
   14  A    between atoms: C_24  and  C_30
   15  A    between atoms: C_30  and  C_33
                            x       y       z     vdW  Elec       q    Type
                         _______ _______ _______ _____ _____    ______ ____

>  <TORSDO>
F 15

$$$$
=
 OpenBabel10222419553D

 37 39  0  0  1  0  0  0  0  0999 V2000
  189.5730  177.1440  141.1110 N   0  0  0  0  0  2  0  0  0  0  0  0
  189.5990  177.0650  139.6860 C   0  0  0  0  0  0  0  0  0  0  0  0
  188.4160  177.5620  138.8970 C   0  0  0  0  0  2  0  0  0  0  0  0
  190.7060  176.4950  137.6120 C   0  0  2  0  0  3  0  0  0  0  0  0
  190.6310  176.5530  139.0750 N   0  0  0  0  0  0  0  0  0  0  0  0
  188.2670  176.7860  137.6130 C   0  0  0  0  0  0  0  0  0  0  0  0
  189.3440  176.2530  137.0170 C   0  0  0  0  0  3  0  0  0  0  0  0
  191.6770  175.4530  137.1600 C   0  0  0  0  0  0  0  0  0  0  0  0
  193.6410  174.1890  136.3290 C   0  0  0  0  0  0  0  0  0  0  0  0
  192.4910  173.4140  136.3890 C   0  0  0  0  0  3  0  0  0  0  0  0
  193.2960  175.7530  136.8280 S   0  0  0  0  0  0  0  0  0  0  0  0
  191.3790  174.1290  136.8550 C   0  0  0  0  0  3  0  0  0  0  0  0
  194.9650  173.7380  135.8060 C   0  0  0  0  0  2  0  0  0  0  0  0
  195.7850  174.9190  135.2990 C   0  0  0  0  0  2  0  0  0  0  0  0
  197.5420  176.2790  136.0850 O   0  0  0  0  0  0  0  0  0  0  0  0
  196.9090  175.2480  136.2340 C   0  0  0  0  0  0  0  0  0  0  0  0
  198.8320  174.9140  138.0250 O   0  0  0  0  0  1  0  0  0  0  0  0
  196.4070  174.8490  138.8500 O   0  0  0  0  0  1  0  0  0  0  0  0
  197.3570  174.1030  137.6040 P   0  0  0  0  0  0  0  0  0  0  0  0
  186.9030  176.5690  137.0440 C   0  0  0  0  0  2  0  0  0  0  0  0
  186.1930  177.8920  136.8300 C   0  0  0  0  0  2  0  0  0  0  0  0
  185.0330  177.9980  137.7970 C   0  0  0  0  0  2  0  0  0  0  0  0
  184.9580  178.6230  139.9100 C   0  0  0  0  0  1  0  0  0  0  0  0
  185.2090  179.1040  138.6240 O   0  0  0  0  0  0  0  0  0  0  0  0
  190.5680  176.6230  141.8680 O   0  0  0  0  0  0  0  0  0  0  0  0
  191.4720  177.6720  142.0480 C   0  0  0  0  0  2  0  0  0  0  0  0
  191.6770  177.9180  143.5290 C   0  0  0  0  0  2  0  0  0  0  0  0
  191.0560  176.8790  144.2770 O   0  0  0  0  0  0  0  0  0  0  0  0
  189.7300  177.3990  147.6930 C   0  0  0  0  0  3  0  0  0  0  0  0
  188.3830  177.6650  147.4300 C   0  0  0  0  0  0  0  0  0  0  0  0
  187.9150  177.6550  146.1130 C   0  0  0  0  0  3  0  0  0  0  0  0
  190.6230  177.1270  146.6420 C   0  0  0  0  0  0  0  0  0  0  0  0
  187.4460  177.9340  148.5510 C   0  0  0  0  0  1  0  0  0  0  0  0
  190.1540  177.1280  145.3180 C   0  0  0  0  0  0  0  0  0  0  0  0
  188.7970  177.3880  145.0610 C   0  0  0  0  0  3  0  0  0  0  0  0
  191.9750  176.8560  146.8890 O   0  0  0  0  0  0  0  0  0  0  0  0
  192.4270  175.6160  147.4170 C   0  0  0  0  0  1  0  0  0  0  0  0
  1 25  1  0  0  0  0
  2  1  1  0  0  0  0
  3  2  1  0  0  0  0
  4  8  1  1  0  0  0
  4  5  1  0  0  0  0
  5  2  2  0  0  0  0
  6  3  1  0  0  0  0
  7  4  1  0  0  0  0
  7  6  2  0  0  0  0
  9 10  2  0  0  0  0
  9 11  1  0  0  0  0
 10 12  1  0  0  0  0
 11  8  1  0  0  0  0
 12  8  2  0  0  0  0
 13  9  1  0  0  0  0
 14 13  1  0  0  0  0
 14 16  1  0  0  0  0
 15 16  2  0  0  0  0
 16 19  1  0  0  0  0
 19 17  1  0  0  0  0
 19 18  1  0  0  0  0
 20  6  1  0  0  0  0
 21 20  1  0  0  0  0
 21 22  1  0  0  0  0
 22 24  1  0  0  0  0
 24 23  1  0  0  0  0
 25 26  1  0  0  0  0
 26 27  1  0  0  0  0
 27 28  1  0  0  0  0
 28 34  1  0  0  0  0
 30 29  1  0  0  0  0
 30 33  1  0  0  0  0
 31 30  2  0  0  0  0
 32 36  1  0  0  0  0
 32 29  2  0  0  0  0
 34 32  1  0  0  0  0
 35 34  2  0  0  0  0
 35 31  1  0  0  0  0
 36 37  1  0  0  0  0
M  END
>  <MODEL>
6

>  <REMARK>
 VINA RESULT:      -6.9      3.644      8.050
  Name = 
  15 active torsions:
  status: ('A' for Active; 'I' for Inactive)
    1  A    between atoms: N_1  and  O_21
    2  A    between atoms: C_3  and  C_23
    3  A    between atoms: C_3  and  O_37
    4  A    between atoms: C_6  and  C_19
    5  A    between atoms: O_7  and  C_22
    6  A    between atoms: O_7  and  C_31
    7  A    between atoms: C_10  and  C_24
    8  A    between atoms: C_13  and  C_23
    9  A    between atoms: C_13  and  C_32
   10  A    between atoms: C_17  and  O_20
   11  A    between atoms: P_18  and  C_33
   12  A    between atoms: O_21  and  C_35
   13  A    between atoms: C_22  and  C_35
   14  A    between atoms: C_24  and  C_30
   15  A    between atoms: C_30  and  C_33
                            x       y       z     vdW  Elec       q    Type
                         _______ _______ _______ _____ _____    ______ ____

>  <TORSDO>
F 15

$$$$
=
 OpenBabel10222419553D

 37 39  0  0  1  0  0  0  0  0999 V2000
  189.6710  177.0060  141.5590 N   0  0  0  0  0  2  0  0  0  0  0  0
  190.0050  177.2600  140.1960 C   0  0  0  0  0  0  0  0  0  0  0  0
  189.1950  178.2600  139.4110 C   0  0  0  0  0  2  0  0  0  0  0  0
  191.3840  176.8890  138.2420 C   0  0  2  0  0  3  0  0  0  0  0  0
  190.9910  176.6220  139.6300 N   0  0  0  0  0  0  0  0  0  0  0  0
  189.1590  177.8890  137.9500 C   0  0  0  0  0  0  0  0  0  0  0  0
  190.1790  177.2140  137.4000 C   0  0  0  0  0  3  0  0  0  0  0  0
  192.1460  175.7420  137.6630 C   0  0  0  0  0  0  0  0  0  0  0  0
  193.8040  174.2550  136.5750 C   0  0  0  0  0  0  0  0  0  0  0  0
  192.5840  173.6300  136.7910 C   0  0  0  0  0  3  0  0  0  0  0  0
  193.7300  175.8420  137.1150 S   0  0  0  0  0  0  0  0  0  0  0  0
  191.6440  174.4710  137.4040 C   0  0  0  0  0  3  0  0  0  0  0  0
  194.9770  173.6500  135.8780 C   0  0  0  0  0  2  0  0  0  0  0  0
  195.7090  172.6680  136.7870 C   0  0  0  0  0  2  0  0  0  0  0  0
  195.8320  173.4620  139.0020 O   0  0  0  0  0  0  0  0  0  0  0  0
  196.3890  173.3730  137.9210 C   0  0  0  0  0  0  0  0  0  0  0  0
  198.3910  173.3370  136.1870 O   0  0  0  0  0  1  0  0  0  0  0  0
  197.5490  175.6190  136.9910 O   0  0  0  0  0  1  0  0  0  0  0  0
  198.0570  174.1190  137.6990 P   0  0  0  0  0  0  0  0  0  0  0  0
  187.9520  178.2310  137.1380 C   0  0  0  0  0  2  0  0  0  0  0  0
  186.7340  177.4830  137.6460 C   0  0  0  0  0  2  0  0  0  0  0  0
  186.1800  176.6190  136.5340 C   0  0  0  0  0  2  0  0  0  0  0  0
  186.9010  174.5720  136.9190 C   0  0  0  0  0  1  0  0  0  0  0  0
  187.1420  175.6980  136.1300 O   0  0  0  0  0  0  0  0  0  0  0  0
  190.3060  176.0480  142.2770 O   0  0  0  0  0  0  0  0  0  0  0  0
  191.0660  176.7450  143.2190 C   0  0  0  0  0  2  0  0  0  0  0  0
  190.1690  177.6790  144.0050 C   0  0  0  0  0  2  0  0  0  0  0  0
  189.1440  176.9310  144.6490 O   0  0  0  0  0  0  0  0  0  0  0  0
  186.0970  178.2470  146.2850 C   0  0  0  0  0  3  0  0  0  0  0  0
  185.2490  178.4260  145.1870 C   0  0  0  0  0  0  0  0  0  0  0  0
  185.6910  178.0930  143.9040 C   0  0  0  0  0  3  0  0  0  0  0  0
  187.3950  177.7390  146.1080 C   0  0  0  0  0  0  0  0  0  0  0  0
  183.8730  178.9480  145.3890 C   0  0  0  0  0  1  0  0  0  0  0  0
  187.8420  177.4140  144.8170 C   0  0  0  0  0  0  0  0  0  0  0  0
  186.9820  177.5890  143.7190 C   0  0  0  0  0  3  0  0  0  0  0  0
  188.2560  177.5500  147.1970 O   0  0  0  0  0  0  0  0  0  0  0  0
  187.9690  178.0450  148.4990 C   0  0  0  0  0  1  0  0  0  0  0  0
  1 25  1  0  0  0  0
  2  1  1  0  0  0  0
  3  2  1  0  0  0  0
  4  8  1  6  0  0  0
  4  5  1  0  0  0  0
  5  2  2  0  0  0  0
  6  3  1  0  0  0  0
  7  6  2  0  0  0  0
  7  4  1  0  0  0  0
  9 10  2  0  0  0  0
  9 11  1  0  0  0  0
 10 12  1  0  0  0  0
 11  8  1  0  0  0  0
 12  8  2  0  0  0  0
 13  9  1  0  0  0  0
 13 14  1  0  0  0  0
 14 16  1  0  0  0  0
 16 15  2  0  0  0  0
 17 19  1  0  0  0  0
 18 19  1  0  0  0  0
 19 16  1  0  0  0  0
 20 21  1  0  0  0  0
 20  6  1  0  0  0  0
 22 21  1  0  0  0  0
 24 22  1  0  0  0  0
 24 23  1  0  0  0  0
 25 26  1  0  0  0  0
 26 27  1  0  0  0  0
 27 28  1  0  0  0  0
 28 34  1  0  0  0  0
 30 33  1  0  0  0  0
 30 29  2  0  0  0  0
 31 30  1  0  0  0  0
 32 29  1  0  0  0  0
 32 36  1  0  0  0  0
 34 32  2  0  0  0  0
 35 31  2  0  0  0  0
 35 34  1  0  0  0  0
 36 37  1  0  0  0  0
M  END
>  <MODEL>
7

>  <REMARK>
 VINA RESULT:      -6.9      3.738      7.172
  Name = 
  15 active torsions:
  status: ('A' for Active; 'I' for Inactive)
    1  A    between atoms: N_1  and  O_21
    2  A    between atoms: C_3  and  C_23
    3  A    between atoms: C_3  and  O_37
    4  A    between atoms: C_6  and  C_19
    5  A    between atoms: O_7  and  C_22
    6  A    between atoms: O_7  and  C_31
    7  A    between atoms: C_10  and  C_24
    8  A    between atoms: C_13  and  C_23
    9  A    between atoms: C_13  and  C_32
   10  A    between atoms: C_17  and  O_20
   11  A    between atoms: P_18  and  C_33
   12  A    between atoms: O_21  and  C_35
   13  A    between atoms: C_22  and  C_35
   14  A    between atoms: C_24  and  C_30
   15  A    between atoms: C_30  and  C_33
                            x       y       z     vdW  Elec       q    Type
                         _______ _______ _______ _____ _____    ______ ____

>  <TORSDO>
F 15

$$$$
=
 OpenBabel10222419553D

 37 39  0  0  1  0  0  0  0  0999 V2000
  188.0820  178.5950  141.0440 N   0  0  0  0  0  2  0  0  0  0  0  0
  186.6870  178.8400  140.8740 C   0  0  0  0  0  0  0  0  0  0  0  0
  185.8780  179.3450  142.0400 C   0  0  0  0  0  2  0  0  0  0  0  0
  184.6920  178.8940  139.5060 C   0  0  2  0  0  3  0  0  0  0  0  0
  186.1150  178.6140  139.7240 N   0  0  0  0  0  0  0  0  0  0  0  0
  184.4530  178.8630  141.9510 C   0  0  0  0  0  0  0  0  0  0  0  0
  183.8960  178.6200  140.7540 C   0  0  0  0  0  3  0  0  0  0  0  0
  184.1560  178.1130  138.3500 C   0  0  0  0  0  0  0  0  0  0  0  0
  183.8110  176.5940  136.4220 C   0  0  0  0  0  0  0  0  0  0  0  0
  182.7710  177.4990  136.5840 C   0  0  0  0  0  3  0  0  0  0  0  0
  184.9800  176.8590  137.5960 S   0  0  0  0  0  0  0  0  0  0  0  0
  182.9670  178.3610  137.6730 C   0  0  0  0  0  3  0  0  0  0  0  0
  183.9310  175.6010  135.3140 C   0  0  0  0  0  2  0  0  0  0  0  0
  182.7310  174.6600  135.2890 C   0  0  0  0  0  2  0  0  0  0  0  0
  181.9740  173.6450  137.2760 O   0  0  0  0  0  0  0  0  0  0  0  0
  182.8080  173.6440  136.3860 C   0  0  0  0  0  0  0  0  0  0  0  0
  184.9190  173.0000  137.8510 O   0  0  0  0  0  1  0  0  0  0  0  0
  183.2860  171.1290  137.2240 O   0  0  0  0  0  1  0  0  0  0  0  0
  184.1580  172.3920  136.4160 P   0  0  0  0  0  0  0  0  0  0  0  0
  183.6870  178.6060  143.2070 C   0  0  0  0  0  2  0  0  0  0  0  0
  182.3760  179.3700  143.2030 C   0  0  0  0  0  2  0  0  0  0  0  0
  181.3540  178.6100  144.0220 C   0  0  0  0  0  2  0  0  0  0  0  0
  180.2820  179.4610  142.2930 C   0  0  0  0  0  1  0  0  0  0  0  0
  180.1590  178.5150  143.3130 O   0  0  0  0  0  0  0  0  0  0  0  0
  188.8310  178.0500  140.0550 O   0  0  0  0  0  0  0  0  0  0  0  0
  189.6080  177.0760  140.6860 C   0  0  0  0  0  2  0  0  0  0  0  0
  190.0070  177.5570  142.0650 C   0  0  0  0  0  2  0  0  0  0  0  0
  189.5820  176.6150  143.0430 O   0  0  0  0  0  0  0  0  0  0  0  0
  189.4580  177.3800  146.6620 C   0  0  0  0  0  3  0  0  0  0  0  0
  188.1270  177.7810  146.8140 C   0  0  0  0  0  0  0  0  0  0  0  0
  187.2690  177.7810  145.7120 C   0  0  0  0  0  3  0  0  0  0  0  0
  189.9430  176.9810  145.4040 C   0  0  0  0  0  0  0  0  0  0  0  0
  187.6220  178.1850  148.1520 C   0  0  0  0  0  1  0  0  0  0  0  0
  189.0830  176.9910  144.2950 C   0  0  0  0  0  0  0  0  0  0  0  0
  187.7440  177.3880  144.4570 C   0  0  0  0  0  3  0  0  0  0  0  0
  191.2730  176.5730  145.2350 O   0  0  0  0  0  0  0  0  0  0  0  0
  192.0420  176.0010  146.2850 C   0  0  0  0  0  1  0  0  0  0  0  0
  2  1  1  0  0  0  0
  2  3  1  0  0  0  0
  4  8  1  6  0  0  0
  4  5  1  0  0  0  0
  4  7  1  0  0  0  0
  5  2  2  0  0  0  0
  6  3  1  0  0  0  0
  6 20  1  0  0  0  0
  7  6  2  0  0  0  0
  9 10  2  0  0  0  0
  9 11  1  0  0  0  0
 10 12  1  0  0  0  0
 11  8  1  0  0  0  0
 12  8  2  0  0  0  0
 13  9  1  0  0  0  0
 14 13  1  0  0  0  0
 14 16  1  0  0  0  0
 16 19  1  0  0  0  0
 16 15  2  0  0  0  0
 19 18  1  0  0  0  0
 19 17  1  0  0  0  0
 21 20  1  0  0  0  0
 21 22  1  0  0  0  0
 23 24  1  0  0  0  0
 24 22  1  0  0  0  0
 25 26  1  0  0  0  0
 25  1  1  0  0  0  0
 26 27  1  0  0  0  0
 27 28  1  0  0  0  0
 28 34  1  0  0  0  0
 29 30  1  0  0  0  0
 30 33  1  0  0  0  0
 31 30  2  0  0  0  0
 32 29  2  0  0  0  0
 34 35  2  0  0  0  0
 34 32  1  0  0  0  0
 35 31  1  0  0  0  0
 36 32  1  0  0  0  0
 36 37  1  0  0  0  0
M  END
>  <MODEL>
8

>  <REMARK>
 VINA RESULT:      -6.8      3.951      9.043
  Name = 
  15 active torsions:
  status: ('A' for Active; 'I' for Inactive)
    1  A    between atoms: N_1  and  O_21
    2  A    between atoms: C_3  and  C_23
    3  A    between atoms: C_3  and  O_37
    4  A    between atoms: C_6  and  C_19
    5  A    between atoms: O_7  and  C_22
    6  A    between atoms: O_7  and  C_31
    7  A    between atoms: C_10  and  C_24
    8  A    between atoms: C_13  and  C_23
    9  A    between atoms: C_13  and  C_32
   10  A    between atoms: C_17  and  O_20
   11  A    between atoms: P_18  and  C_33
   12  A    between atoms: O_21  and  C_35
   13  A    between atoms: C_22  and  C_35
   14  A    between atoms: C_24  and  C_30
   15  A    between atoms: C_30  and  C_33
                            x       y       z     vdW  Elec       q    Type
                         _______ _______ _______ _____ _____    ______ ____

>  <TORSDO>
F 15

$$$$
=
 OpenBabel10222419553D

 37 39  0  0  1  0  0  0  0  0999 V2000
  184.9950  179.2230  145.3500 N   0  0  0  0  0  2  0  0  0  0  0  0
  186.1120  178.3520  145.1750 C   0  0  0  0  0  0  0  0  0  0  0  0
  186.7840  177.7600  146.3860 C   0  0  0  0  0  2  0  0  0  0  0  0
  187.6760  177.1620  143.7630 C   0  0  2  0  0  3  0  0  0  0  0  0
  186.5560  178.0850  143.9780 N   0  0  0  0  0  0  0  0  0  0  0  0
  188.2500  177.5280  146.1230 C   0  0  0  0  0  0  0  0  0  0  0  0
  188.6810  177.2730  144.8780 C   0  0  0  0  0  3  0  0  0  0  0  0
  188.3230  177.3950  142.4370 C   0  0  0  0  0  0  0  0  0  0  0  0
  188.8950  178.0630  140.1190 C   0  0  0  0  0  0  0  0  0  0  0  0
  189.7840  177.1350  140.6440 C   0  0  0  0  0  3  0  0  0  0  0  0
  187.7010  178.4040  141.2470 S   0  0  0  0  0  0  0  0  0  0  0  0
  189.4590  176.7540  141.9540 C   0  0  0  0  0  3  0  0  0  0  0  0
  188.9270  178.6030  138.7280 C   0  0  0  0  0  2  0  0  0  0  0  0
  189.6030  177.6240  137.7740 C   0  0  0  0  0  2  0  0  0  0  0  0
  189.0400  177.4590  135.4920 O   0  0  0  0  0  0  0  0  0  0  0  0
  188.6970  177.2450  136.6430 C   0  0  0  0  0  0  0  0  0  0  0  0
  186.1350  177.9120  136.7110 O   0  0  0  0  0  1  0  0  0  0  0  0
  186.7900  175.8230  135.3800 O   0  0  0  0  0  1  0  0  0  0  0  0
  187.0610  176.4680  136.9680 P   0  0  0  0  0  0  0  0  0  0  0  0
  189.2230  177.6390  147.2520 C   0  0  0  0  0  2  0  0  0  0  0  0
  190.0710  176.3850  147.3550 C   0  0  0  0  0  2  0  0  0  0  0  0
  191.4500  176.6690  146.7990 C   0  0  0  0  0  2  0  0  0  0  0  0
  192.8090  175.7890  148.2950 C   0  0  0  0  0  1  0  0  0  0  0  0
  192.2820  175.5750  147.0200 O   0  0  0  0  0  0  0  0  0  0  0  0
  184.4190  179.8560  144.3000 O   0  0  0  0  0  0  0  0  0  0  0  0
  183.2340  179.1560  144.0620 C   0  0  0  0  0  2  0  0  0  0  0  0
  183.3130  178.4660  142.7160 C   0  0  0  0  0  2  0  0  0  0  0  0
  182.1980  178.8450  141.9170 O   0  0  0  0  0  0  0  0  0  0  0  0
  181.0880  179.0810  138.3940 C   0  0  0  0  0  3  0  0  0  0  0  0
  182.0570  178.3080  137.7460 C   0  0  0  0  0  0  0  0  0  0  0  0
  183.0700  177.6970  138.4880 C   0  0  0  0  0  3  0  0  0  0  0  0
  181.1280  179.2540  139.7890 C   0  0  0  0  0  0  0  0  0  0  0  0
  181.9930  178.1200  136.2740 C   0  0  0  0  0  1  0  0  0  0  0  0
  182.1530  178.6480  140.5330 C   0  0  0  0  0  0  0  0  0  0  0  0
  183.1200  177.8660  139.8760 C   0  0  0  0  0  3  0  0  0  0  0  0
  180.1640  180.0220  140.4540 O   0  0  0  0  0  0  0  0  0  0  0  0
  179.7110  181.2790  139.9670 C   0  0  0  0  0  1  0  0  0  0  0  0
  2  1  1  0  0  0  0
  2  3  1  0  0  0  0
  4  8  1  6  0  0  0
  4  5  1  0  0  0  0
  4  7  1  0  0  0  0
  5  2  2  0  0  0  0
  6  3  1  0  0  0  0
  6 20  1  0  0  0  0
  7  6  2  0  0  0  0
  9 10  2  0  0  0  0
  9 11  1  0  0  0  0
 10 12  1  0  0  0  0
 11  8  1  0  0  0  0
 12  8  2  0  0  0  0
 13  9  1  0  0  0  0
 14 13  1  0  0  0  0
 15 16  2  0  0  0  0
 16 19  1  0  0  0  0
 16 14  1  0  0  0  0
 17 19  1  0  0  0  0
 18 19  1  0  0  0  0
 20 21  1  0  0  0  0
 22 24  1  0  0  0  0
 22 21  1  0  0  0  0
 24 23  1  0  0  0  0
 25  1  1  0  0  0  0
 26 25  1  0  0  0  0
 27 26  1  0  0  0  0
 28 27  1  0  0  0  0
 29 32  1  0  0  0  0
 30 29  2  0  0  0  0
 30 31  1  0  0  0  0
 31 35  2  0  0  0  0
 32 36  1  0  0  0  0
 32 34  2  0  0  0  0
 33 30  1  0  0  0  0
 34 28  1  0  0  0  0
 35 34  1  0  0  0  0
 37 36  1  0  0  0  0
M  END
>  <MODEL>
9

>  <REMARK>
 VINA RESULT:      -6.8      3.134      7.530
  Name = 
  15 active torsions:
  status: ('A' for Active; 'I' for Inactive)
    1  A    between atoms: N_1  and  O_21
    2  A    between atoms: C_3  and  C_23
    3  A    between atoms: C_3  and  O_37
    4  A    between atoms: C_6  and  C_19
    5  A    between atoms: O_7  and  C_22
    6  A    between atoms: O_7  and  C_31
    7  A    between atoms: C_10  and  C_24
    8  A    between atoms: C_13  and  C_23
    9  A    between atoms: C_13  and  C_32
   10  A    between atoms: C_17  and  O_20
   11  A    between atoms: P_18  and  C_33
   12  A    between atoms: O_21  and  C_35
   13  A    between atoms: C_22  and  C_35
   14  A    between atoms: C_24  and  C_30
   15  A    between atoms: C_30  and  C_33
                            x       y       z     vdW  Elec       q    Type
                         _______ _______ _______ _____ _____    ______ ____

>  <TORSDO>
F 15

$$$$
