=
 OpenBabel10222421203D

 45 50  0  0  1  0  0  0  0  0999 V2000
  189.7770  177.8360  140.2210 C   0  0  0  0  0  0  0  0  0  0  0  0
  191.3780  177.4560  140.5630 S   0  0  0  0  0  0  0  0  0  0  0  0
  189.0590  177.9600  141.3210 N   0  0  0  0  0  0  0  0  0  0  0  0
  188.9910  178.0020  139.1010 C   0  0  0  0  0  0  0  0  0  0  0  0
  189.6920  177.7680  142.4710 N   0  0  0  0  0  0  0  0  0  0  0  0
  186.4780  178.4170  138.7720 C   0  0  0  0  0  1  0  0  0  0  0  0
  187.7010  178.2280  139.6050 C   0  0  0  0  0  0  0  0  0  0  0  0
  187.7720  178.2010  141.0100 C   0  0  0  0  0  0  0  0  0  0  0  0
  191.0050  177.4930  142.2360 C   0  0  0  0  0  0  0  0  0  0  0  0
  184.4860  179.2330  142.5900 C   0  0  0  0  0  3  0  0  0  0  0  0
  184.5880  178.6590  143.8610 C   0  0  0  0  0  0  0  0  0  0  0  0
  186.7650  177.7730  143.2710 C   0  0  0  0  0  3  0  0  0  0  0  0
  185.5230  179.0810  141.6670 C   0  0  0  0  0  3  0  0  0  0  0  0
  183.4800  178.8430  144.8380 C   0  0  0  0  0  1  0  0  0  0  0  0
  185.7310  177.9250  144.2020 C   0  0  0  0  0  0  0  0  0  0  0  0
  185.8530  177.3670  145.4320 F   0  0  0  0  0  0  0  0  0  0  0  0
  186.6730  178.3490  141.9960 C   0  0  0  0  0  0  0  0  0  0  0  0
  191.9410  175.6920  143.6570 C   0  0  0  0  0  2  0  0  0  0  0  0
  191.4840  175.6360  145.0380 N   0  0  0  0  0  0  0  0  0  0  0  0
  191.6020  177.8530  144.5450 N   0  0  0  0  0  2  0  0  0  0  0  0
  191.9900  177.1850  143.3150 C   0  0  2  0  0  3  0  0  0  0  0  0
  191.3110  176.8310  145.4780 C   0  0  0  0  0  0  0  0  0  0  0  0
  190.7150  177.1710  147.1350 S   0  0  0  0  0  0  0  0  0  0  0  0
  188.1190  177.7450  147.8470 C   0  0  0  0  0  1  0  0  0  0  0  0
  189.0000  177.5450  146.6270 C   0  0  0  0  0  0  0  0  0  0  0  0
  188.4970  176.5190  145.8520 F   0  0  0  0  0  0  0  0  0  0  0  0
  188.9980  178.7070  145.8840 F   0  0  0  0  0  0  0  0  0  0  0  0
  189.3630  177.7930  137.6640 C   0  0  0  0  0  2  0  0  0  0  0  0
  189.7460  176.3770  137.3760 C   0  0  0  0  0  0  0  0  0  0  0  0
  191.0840  176.0180  137.1390 C   0  0  0  0  0  0  0  0  0  0  0  0
  188.7460  175.3990  137.3460 C   0  0  0  0  0  3  0  0  0  0  0  0
  189.0700  174.0690  137.0730 C   0  0  0  0  0  3  0  0  0  0  0  0
  190.3980  173.7120  136.8340 C   0  0  0  0  0  3  0  0  0  0  0  0
  191.4120  174.6810  136.8680 C   0  0  0  0  0  0  0  0  0  0  0  0
  192.0600  176.9640  137.1610 F   0  0  0  0  0  0  0  0  0  0  0  0
  192.7780  174.3260  136.6090 N   0  0  0  0  0  2  0  0  0  0  0  0
  193.9890  172.2630  136.1370 C   0  0  2  0  0  3  0  0  0  0  0  0
  196.2770  171.3510  136.9440 C   0  0  0  0  0  1  0  0  0  0  0  0
  195.4270  175.0880  137.6030 O   0  0  0  0  0  0  0  0  0  0  0  0
  196.1560  173.2830  135.3430 C   0  0  0  0  0  1  0  0  0  0  0  0
  193.4370  173.1840  137.2270 C   0  0  1  0  0  3  0  0  0  0  0  0
  195.3740  173.1300  139.1850 O   0  0  0  0  0  0  0  0  0  0  0  0
  193.6330  170.9420  136.4220 O   0  0  0  0  0  1  0  0  0  0  0  0
  195.4630  172.5510  136.4770 C   0  0  0  0  0  0  0  0  0  0  0  0
  195.0500  173.6440  137.8110 S   0  0  0  0  0  0  0  0  0  0  0  0
  1  2  1  0  0  0  0
  1  3  1  0  0  0  0
  2  9  1  0  0  0  0
  3  5  1  0  0  0  0
  4  7  1  0  0  0  0
  4  1  2  0  0  0  0
  6  7  1  0  0  0  0
  7  8  2  0  0  0  0
  8  3  1  0  0  0  0
  8 17  1  0  0  0  0
  9  5  2  0  0  0  0
 10 11  1  0  0  0  0
 11 15  2  0  0  0  0
 11 14  1  0  0  0  0
 12 15  1  0  0  0  0
 13 17  1  0  0  0  0
 13 10  2  0  0  0  0
 15 16  1  0  0  0  0
 17 12  2  0  0  0  0
 18 19  1  0  0  0  0
 19 22  2  0  0  0  0
 20 22  1  0  0  0  0
 21  9  1  6  0  0  0
 21 18  1  0  0  0  0
 21 20  1  0  0  0  0
 22 23  1  0  0  0  0
 25 23  1  0  0  0  0
 25 24  1  0  0  0  0
 26 25  1  0  0  0  0
 27 25  1  0  0  0  0
 28  4  1  0  0  0  0
 29 28  1  0  0  0  0
 30 35  1  0  0  0  0
 30 29  2  0  0  0  0
 31 29  1  0  0  0  0
 32 31  2  0  0  0  0
 33 34  2  0  0  0  0
 33 32  1  0  0  0  0
 34 30  1  0  0  0  0
 36 34  1  0  0  0  0
 37 43  1  1  0  0  0
 37 44  1  0  0  0  0
 37 41  1  0  0  0  0
 39 45  2  0  0  0  0
 40 44  1  0  0  0  0
 41 36  1  6  0  0  0
 41 45  1  0  0  0  0
 44 38  1  0  0  0  0
 44 45  1  0  0  0  0
 45 42  2  0  0  0  0
M  END
>  <MODEL>
1

>  <REMARK>
 VINA RESULT:      -9.7      0.000      0.000
  Name = 
  8 active torsions:
  status: ('A' for Active; 'I' for Inactive)
    1  A    between atoms: C_6  and  C_32
    2  A    between atoms: C_9  and  N_18
    3  A    between atoms: C_15  and  S_16
    4  A    between atoms: S_16  and  C_36
    5  A    between atoms: C_17  and  C_32
    6  A    between atoms: N_18  and  C_37
    7  A    between atoms: C_28  and  C_34
    8  A    between atoms: C_31  and  C_40
                            x       y       z     vdW  Elec       q    Type
                         _______ _______ _______ _____ _____    ______ ____

>  <TORSDO>
F 8

$$$$
=
 OpenBabel10222421203D

 45 50  0  0  1  0  0  0  0  0999 V2000
  184.4490  178.7400  141.0380 C   0  0  0  0  0  0  0  0  0  0  0  0
  185.0610  178.7550  139.4730 S   0  0  0  0  0  0  0  0  0  0  0  0
  185.4090  178.6370  141.9380 N   0  0  0  0  0  0  0  0  0  0  0  0
  183.2100  178.7540  141.6430 C   0  0  0  0  0  0  0  0  0  0  0  0
  186.6510  178.5580  141.4770 N   0  0  0  0  0  0  0  0  0  0  0  0
  182.4540  178.5470  144.0880 C   0  0  0  0  0  1  0  0  0  0  0  0
  183.4850  178.6310  143.0130 C   0  0  0  0  0  0  0  0  0  0  0  0
  184.8820  178.5630  143.1720 C   0  0  0  0  0  0  0  0  0  0  0  0
  186.6450  178.6270  140.1170 C   0  0  0  0  0  0  0  0  0  0  0  0
  185.9690  178.8540  146.7910 C   0  0  0  0  0  3  0  0  0  0  0  0
  187.1460  178.0980  146.7970 C   0  0  0  0  0  0  0  0  0  0  0  0
  186.8420  177.6330  144.4380 C   0  0  0  0  0  3  0  0  0  0  0  0
  185.2370  179.0020  145.6110 C   0  0  0  0  0  3  0  0  0  0  0  0
  187.9230  177.9620  148.0590 C   0  0  0  0  0  1  0  0  0  0  0  0
  187.5820  177.4840  145.6160 C   0  0  0  0  0  0  0  0  0  0  0  0
  188.7250  176.7530  145.5980 F   0  0  0  0  0  0  0  0  0  0  0  0
  185.6630  178.3930  144.4230 C   0  0  0  0  0  0  0  0  0  0  0  0
  188.0000  177.1170  138.6950 C   0  0  0  0  0  2  0  0  0  0  0  0
  189.2120  176.5680  139.2830 N   0  0  0  0  0  0  0  0  0  0  0  0
  189.0570  178.6790  140.1150 N   0  0  0  0  0  2  0  0  0  0  0  0
  187.8780  178.5280  139.2800 C   0  0  2  0  0  3  0  0  0  0  0  0
  189.7510  177.4490  140.0480 C   0  0  0  0  0  0  0  0  0  0  0  0
  191.2480  177.1280  140.9820 S   0  0  0  0  0  0  0  0  0  0  0  0
  191.3170  176.2640  143.5940 C   0  0  0  0  0  1  0  0  0  0  0  0
  190.4120  176.9660  142.5980 C   0  0  0  0  0  0  0  0  0  0  0  0
  189.2350  176.2570  142.4570 F   0  0  0  0  0  0  0  0  0  0  0  0
  190.1180  178.2250  143.0770 F   0  0  0  0  0  0  0  0  0  0  0  0
  181.8590  178.7040  140.9960 C   0  0  0  0  0  2  0  0  0  0  0  0
  181.9300  178.2910  139.5610 C   0  0  0  0  0  0  0  0  0  0  0  0
  182.1990  176.9600  139.1980 C   0  0  0  0  0  0  0  0  0  0  0  0
  181.7210  179.2560  138.5690 C   0  0  0  0  0  3  0  0  0  0  0  0
  181.7880  178.9040  137.2200 C   0  0  0  0  0  3  0  0  0  0  0  0
  182.0590  177.5830  136.8580 C   0  0  0  0  0  3  0  0  0  0  0  0
  182.2630  176.6050  137.8420 C   0  0  0  0  0  0  0  0  0  0  0  0
  182.4090  176.0190  140.1560 F   0  0  0  0  0  0  0  0  0  0  0  0
  182.5570  175.2480  137.4810 N   0  0  0  0  0  2  0  0  0  0  0  0
  184.7180  175.0410  136.3690 C   0  0  2  0  0  3  0  0  0  0  0  0
  185.8530  173.0880  135.0980 C   0  0  0  0  0  1  0  0  0  0  0  0
  182.6830  172.3320  137.2190 O   0  0  0  0  0  0  0  0  0  0  0  0
  185.5660  173.0020  137.5920 C   0  0  0  0  0  1  0  0  0  0  0  0
  183.2020  174.8770  136.2290 C   0  0  1  0  0  3  0  0  0  0  0  0
  182.9190  172.5860  134.7250 O   0  0  0  0  0  0  0  0  0  0  0  0
  185.2140  175.7330  135.2610 O   0  0  0  0  0  1  0  0  0  0  0  0
  185.0060  173.5300  136.2850 C   0  0  0  0  0  0  0  0  0  0  0  0
  183.2950  173.1090  136.0830 S   0  0  0  0  0  0  0  0  0  0  0  0
  1  4  2  0  0  0  0
  1  3  1  0  0  0  0
  2  9  1  0  0  0  0
  2  1  1  0  0  0  0
  3  8  1  0  0  0  0
  4  7  1  0  0  0  0
  5  3  1  0  0  0  0
  7  8  2  0  0  0  0
  7  6  1  0  0  0  0
  8 17  1  0  0  0  0
  9  5  2  0  0  0  0
 10 11  1  0  0  0  0
 11 14  1  0  0  0  0
 12 15  1  0  0  0  0
 13 10  2  0  0  0  0
 15 11  2  0  0  0  0
 16 15  1  0  0  0  0
 17 12  2  0  0  0  0
 17 13  1  0  0  0  0
 18 21  1  0  0  0  0
 18 19  1  0  0  0  0
 19 22  2  0  0  0  0
 21 20  1  0  0  0  0
 21  9  1  1  0  0  0
 22 20  1  0  0  0  0
 22 23  1  0  0  0  0
 23 25  1  0  0  0  0
 25 27  1  0  0  0  0
 25 24  1  0  0  0  0
 26 25  1  0  0  0  0
 28  4  1  0  0  0  0
 29 28  1  0  0  0  0
 30 29  1  0  0  0  0
 30 35  1  0  0  0  0
 31 29  2  0  0  0  0
 32 31  1  0  0  0  0
 33 32  2  0  0  0  0
 33 34  1  0  0  0  0
 34 30  2  0  0  0  0
 36 34  1  0  0  0  0
 37 43  1  6  0  0  0
 38 44  1  0  0  0  0
 41 37  1  0  0  0  0
 41 36  1  1  0  0  0
 42 45  2  0  0  0  0
 44 37  1  0  0  0  0
 44 40  1  0  0  0  0
 45 41  1  0  0  0  0
 45 44  1  0  0  0  0
 45 39  2  0  0  0  0
M  END
>  <MODEL>
2

>  <REMARK>
 VINA RESULT:      -9.3      4.716      7.471
  Name = 
  8 active torsions:
  status: ('A' for Active; 'I' for Inactive)
    1  A    between atoms: C_6  and  C_32
    2  A    between atoms: C_9  and  N_18
    3  A    between atoms: C_15  and  S_16
    4  A    between atoms: S_16  and  C_36
    5  A    between atoms: C_17  and  C_32
    6  A    between atoms: N_18  and  C_37
    7  A    between atoms: C_28  and  C_34
    8  A    between atoms: C_31  and  C_40
                            x       y       z     vdW  Elec       q    Type
                         _______ _______ _______ _____ _____    ______ ____

>  <TORSDO>
F 8

$$$$
=
 OpenBabel10222421203D

 45 50  0  0  1  0  0  0  0  0999 V2000
  188.1850  178.0220  140.6430 C   0  0  0  0  0  0  0  0  0  0  0  0
  186.5770  178.4810  140.4710 S   0  0  0  0  0  0  0  0  0  0  0  0
  188.4560  177.6450  141.8780 N   0  0  0  0  0  0  0  0  0  0  0  0
  189.3170  177.9810  139.8580 C   0  0  0  0  0  0  0  0  0  0  0  0
  187.4560  177.6930  142.7490 N   0  0  0  0  0  0  0  0  0  0  0  0
  191.7700  177.4030  140.3530 C   0  0  0  0  0  1  0  0  0  0  0  0
  190.3340  177.5560  140.7270 C   0  0  0  0  0  0  0  0  0  0  0  0
  189.7620  177.3470  141.9960 C   0  0  0  0  0  0  0  0  0  0  0  0
  186.3220  178.1220  142.1290 C   0  0  0  0  0  0  0  0  0  0  0  0
  190.9740  177.3570  145.5860 C   0  0  0  0  0  3  0  0  0  0  0  0
  191.7090  176.1680  145.6430 C   0  0  0  0  0  0  0  0  0  0  0  0
  191.1650  175.7380  143.3210 C   0  0  0  0  0  3  0  0  0  0  0  0
  190.3430  177.7350  144.3990 C   0  0  0  0  0  3  0  0  0  0  0  0
  192.3870  175.7860  146.9110 C   0  0  0  0  0  1  0  0  0  0  0  0
  191.8030  175.3550  144.5060 C   0  0  0  0  0  0  0  0  0  0  0  0
  192.5170  174.2020  144.5370 F   0  0  0  0  0  0  0  0  0  0  0  0
  190.4300  176.9310  143.2540 C   0  0  0  0  0  0  0  0  0  0  0  0
  184.7940  179.8220  143.0850 C   0  0  0  0  0  2  0  0  0  0  0  0
  184.7890  179.9640  144.5330 N   0  0  0  0  0  0  0  0  0  0  0  0
  185.0810  177.7400  144.1610 N   0  0  0  0  0  2  0  0  0  0  0  0
  185.0220  178.3270  142.8330 C   0  0  2  0  0  3  0  0  0  0  0  0
  184.9500  178.8100  145.0750 C   0  0  0  0  0  0  0  0  0  0  0  0
  185.0350  178.5840  146.8520 S   0  0  0  0  0  0  0  0  0  0  0  0
  187.4210  178.3900  148.2100 C   0  0  0  0  0  1  0  0  0  0  0  0
  186.7830  178.0540  146.8750 C   0  0  0  0  0  0  0  0  0  0  0  0
  187.4820  178.6710  145.8560 F   0  0  0  0  0  0  0  0  0  0  0  0
  186.8380  176.6890  146.6880 F   0  0  0  0  0  0  0  0  0  0  0  0
  189.4920  178.4680  138.4510 C   0  0  0  0  0  2  0  0  0  0  0  0
  189.2140  177.4020  137.4420 C   0  0  0  0  0  0  0  0  0  0  0  0
  187.9700  177.3170  136.7940 C   0  0  0  0  0  0  0  0  0  0  0  0
  190.2210  176.4760  137.1410 C   0  0  0  0  0  3  0  0  0  0  0  0
  189.9900  175.4650  136.2080 C   0  0  0  0  0  3  0  0  0  0  0  0
  188.7530  175.3770  135.5670 C   0  0  0  0  0  3  0  0  0  0  0  0
  187.7380  176.3020  135.8530 C   0  0  0  0  0  0  0  0  0  0  0  0
  186.9860  178.2090  137.0850 F   0  0  0  0  0  0  0  0  0  0  0  0
  186.4580  176.2130  135.2110 N   0  0  0  0  0  2  0  0  0  0  0  0
  185.3510  175.1290  137.0940 C   0  0  2  0  0  3  0  0  0  0  0  0
  182.8530  174.8080  137.7080 C   0  0  0  0  0  1  0  0  0  0  0  0
  183.7660  177.3220  134.8860 O   0  0  0  0  0  0  0  0  0  0  0  0
  183.9320  177.0730  137.8540 C   0  0  0  0  0  1  0  0  0  0  0  0
  185.4530  175.2220  135.5700 C   0  0  1  0  0  3  0  0  0  0  0  0
  182.8460  174.9860  134.7130 O   0  0  0  0  0  0  0  0  0  0  0  0
  185.3690  173.7850  137.4790 O   0  0  0  0  0  1  0  0  0  0  0  0
  183.9330  175.7280  137.1520 C   0  0  0  0  0  0  0  0  0  0  0  0
  183.8220  175.9040  135.3910 S   0  0  0  0  0  0  0  0  0  0  0  0
  1  3  1  0  0  0  0
  2  1  1  0  0  0  0
  2  9  1  0  0  0  0
  3  8  1  0  0  0  0
  3  5  1  0  0  0  0
  4  1  2  0  0  0  0
  4  7  1  0  0  0  0
  6  7  1  0  0  0  0
  7  8  2  0  0  0  0
  8 17  1  0  0  0  0
  9  5  2  0  0  0  0
 10 11  1  0  0  0  0
 11 14  1  0  0  0  0
 12 15  1  0  0  0  0
 13 10  2  0  0  0  0
 15 16  1  0  0  0  0
 15 11  2  0  0  0  0
 17 12  2  0  0  0  0
 17 13  1  0  0  0  0
 18 19  1  0  0  0  0
 19 22  2  0  0  0  0
 20 22  1  0  0  0  0
 21  9  1  1  0  0  0
 21 18  1  0  0  0  0
 21 20  1  0  0  0  0
 22 23  1  0  0  0  0
 23 25  1  0  0  0  0
 25 24  1  0  0  0  0
 26 25  1  0  0  0  0
 27 25  1  0  0  0  0
 28  4  1  0  0  0  0
 29 28  1  0  0  0  0
 30 35  1  0  0  0  0
 30 29  2  0  0  0  0
 31 29  1  0  0  0  0
 32 31  2  0  0  0  0
 33 34  2  0  0  0  0
 33 32  1  0  0  0  0
 34 30  1  0  0  0  0
 36 34  1  0  0  0  0
 37 44  1  0  0  0  0
 37 43  1  6  0  0  0
 39 45  2  0  0  0  0
 41 36  1  1  0  0  0
 41 37  1  0  0  0  0
 42 45  2  0  0  0  0
 44 38  1  0  0  0  0
 44 40  1  0  0  0  0
 45 41  1  0  0  0  0
 45 44  1  0  0  0  0
M  END
>  <MODEL>
3

>  <REMARK>
 VINA RESULT:      -9.2      4.210      6.878
  Name = 
  8 active torsions:
  status: ('A' for Active; 'I' for Inactive)
    1  A    between atoms: C_6  and  C_32
    2  A    between atoms: C_9  and  N_18
    3  A    between atoms: C_15  and  S_16
    4  A    between atoms: S_16  and  C_36
    5  A    between atoms: C_17  and  C_32
    6  A    between atoms: N_18  and  C_37
    7  A    between atoms: C_28  and  C_34
    8  A    between atoms: C_31  and  C_40
                            x       y       z     vdW  Elec       q    Type
                         _______ _______ _______ _____ _____    ______ ____

>  <TORSDO>
F 8

$$$$
=
 OpenBabel10222421203D

 45 50  0  0  1  0  0  0  0  0999 V2000
  188.1160  177.6330  139.0930 C   0  0  0  0  0  0  0  0  0  0  0  0
  187.8410  178.3150  140.6040 S   0  0  0  0  0  0  0  0  0  0  0  0
  189.2530  176.9660  139.0570 N   0  0  0  0  0  0  0  0  0  0  0  0
  187.5010  177.6230  137.8590 C   0  0  0  0  0  0  0  0  0  0  0  0
  189.9690  176.9470  140.1740 N   0  0  0  0  0  0  0  0  0  0  0  0
  188.1710  176.6500  135.5790 C   0  0  0  0  0  1  0  0  0  0  0  0
  188.3750  176.8960  137.0360 C   0  0  0  0  0  0  0  0  0  0  0  0
  189.4710  176.4890  137.8180 C   0  0  0  0  0  0  0  0  0  0  0  0
  189.3200  177.6390  141.1510 C   0  0  0  0  0  0  0  0  0  0  0  0
  191.7370  173.6170  136.8280 C   0  0  0  0  0  3  0  0  0  0  0  0
  192.9560  174.2720  136.6260 C   0  0  0  0  0  0  0  0  0  0  0  0
  191.9010  176.3790  137.1910 C   0  0  0  0  0  3  0  0  0  0  0  0
  190.6080  174.3420  137.2140 C   0  0  0  0  0  3  0  0  0  0  0  0
  194.1540  173.4840  136.2280 C   0  0  0  0  0  1  0  0  0  0  0  0
  193.0380  175.6590  136.8070 C   0  0  0  0  0  0  0  0  0  0  0  0
  194.2130  176.3120  136.6250 F   0  0  0  0  0  0  0  0  0  0  0  0
  190.6760  175.7290  137.3990 C   0  0  0  0  0  0  0  0  0  0  0  0
  190.2770  176.5000  143.1320 C   0  0  0  0  0  2  0  0  0  0  0  0
  189.4000  176.3280  144.2810 N   0  0  0  0  0  0  0  0  0  0  0  0
  188.8330  178.3480  143.4040 N   0  0  0  0  0  2  0  0  0  0  0  0
  189.8730  177.8460  142.5220 C   0  0  2  0  0  3  0  0  0  0  0  0
  188.6330  177.3530  144.3890 C   0  0  0  0  0  0  0  0  0  0  0  0
  187.3850  177.4920  145.6690 S   0  0  0  0  0  0  0  0  0  0  0  0
  187.9390  178.2430  148.2580 C   0  0  0  0  0  1  0  0  0  0  0  0
  188.5690  177.5620  147.0580 C   0  0  0  0  0  0  0  0  0  0  0  0
  189.7090  178.2460  146.6790 F   0  0  0  0  0  0  0  0  0  0  0  0
  188.9200  176.2760  147.4110 F   0  0  0  0  0  0  0  0  0  0  0  0
  186.2840  178.3780  137.4190 C   0  0  0  0  0  2  0  0  0  0  0  0
  185.0230  177.7990  137.9750 C   0  0  0  0  0  0  0  0  0  0  0  0
  184.2200  178.5250  138.8720 C   0  0  0  0  0  0  0  0  0  0  0  0
  184.6440  176.5090  137.5880 C   0  0  0  0  0  3  0  0  0  0  0  0
  183.4760  175.9370  138.0950 C   0  0  0  0  0  3  0  0  0  0  0  0
  182.6800  176.6550  138.9880 C   0  0  0  0  0  3  0  0  0  0  0  0
  183.0440  177.9520  139.3790 C   0  0  0  0  0  0  0  0  0  0  0  0
  184.5850  179.7770  139.2570 F   0  0  0  0  0  0  0  0  0  0  0  0
  182.2410  178.6930  140.3080 N   0  0  0  0  0  2  0  0  0  0  0  0
  181.5640  179.1610  142.6040 C   0  0  2  0  0  3  0  0  0  0  0  0
  179.3360  178.8040  143.8800 C   0  0  0  0  0  1  0  0  0  0  0  0
  179.3350  178.4660  140.0060 O   0  0  0  0  0  0  0  0  0  0  0  0
  179.5330  180.5740  142.1070 C   0  0  0  0  0  1  0  0  0  0  0  0
  181.6500  178.1030  141.5010 C   0  0  1  0  0  3  0  0  0  0  0  0
  179.3120  176.6710  141.7710 O   0  0  0  0  0  0  0  0  0  0  0  0
  182.0550  178.6260  143.7980 O   0  0  0  0  0  1  0  0  0  0  0  0
  180.0250  179.2220  142.5870 C   0  0  0  0  0  0  0  0  0  0  0  0
  179.8860  177.9850  141.3230 S   0  0  0  0  0  0  0  0  0  0  0  0
  1  2  1  0  0  0  0
  2  9  1  0  0  0  0
  3  1  1  0  0  0  0
  3  5  1  0  0  0  0
  4  1  2  0  0  0  0
  5  9  2  0  0  0  0
  6  7  1  0  0  0  0
  7  8  2  0  0  0  0
  7  4  1  0  0  0  0
  8  3  1  0  0  0  0
 10 13  1  0  0  0  0
 11 15  1  0  0  0  0
 11 10  2  0  0  0  0
 12 17  1  0  0  0  0
 13 17  2  0  0  0  0
 14 11  1  0  0  0  0
 15 12  2  0  0  0  0
 16 15  1  0  0  0  0
 17  8  1  0  0  0  0
 18 19  1  0  0  0  0
 19 22  2  0  0  0  0
 20 22  1  0  0  0  0
 21  9  1  6  0  0  0
 21 18  1  0  0  0  0
 21 20  1  0  0  0  0
 22 23  1  0  0  0  0
 23 25  1  0  0  0  0
 25 27  1  0  0  0  0
 25 24  1  0  0  0  0
 26 25  1  0  0  0  0
 28  4  1  0  0  0  0
 28 29  1  0  0  0  0
 29 30  1  0  0  0  0
 30 35  1  0  0  0  0
 30 34  2  0  0  0  0
 31 29  2  0  0  0  0
 31 32  1  0  0  0  0
 32 33  2  0  0  0  0
 33 34  1  0  0  0  0
 34 36  1  0  0  0  0
 37 43  1  1  0  0  0
 39 45  2  0  0  0  0
 40 44  1  0  0  0  0
 41 36  1  6  0  0  0
 41 37  1  0  0  0  0
 44 37  1  0  0  0  0
 44 38  1  0  0  0  0
 45 41  1  0  0  0  0
 45 42  2  0  0  0  0
 45 44  1  0  0  0  0
M  END
>  <MODEL>
4

>  <REMARK>
 VINA RESULT:      -8.9      5.216      9.596
  Name = 
  8 active torsions:
  status: ('A' for Active; 'I' for Inactive)
    1  A    between atoms: C_6  and  C_32
    2  A    between atoms: C_9  and  N_18
    3  A    between atoms: C_15  and  S_16
    4  A    between atoms: S_16  and  C_36
    5  A    between atoms: C_17  and  C_32
    6  A    between atoms: N_18  and  C_37
    7  A    between atoms: C_28  and  C_34
    8  A    between atoms: C_31  and  C_40
                            x       y       z     vdW  Elec       q    Type
                         _______ _______ _______ _____ _____    ______ ____

>  <TORSDO>
F 8

$$$$
=
 OpenBabel10222421203D

 45 50  0  0  1  0  0  0  0  0999 V2000
  188.2280  178.0750  140.2050 C   0  0  0  0  0  0  0  0  0  0  0  0
  186.9620  178.4960  139.1840 S   0  0  0  0  0  0  0  0  0  0  0  0
  187.8510  178.0560  141.4690 N   0  0  0  0  0  0  0  0  0  0  0  0
  189.5730  177.7920  140.0900 C   0  0  0  0  0  0  0  0  0  0  0  0
  186.5860  178.3670  141.7180 N   0  0  0  0  0  0  0  0  0  0  0  0
  191.4180  177.3310  141.8150 C   0  0  0  0  0  1  0  0  0  0  0  0
  190.0090  177.6110  141.4110 C   0  0  0  0  0  0  0  0  0  0  0  0
  188.9010  177.7790  142.2620 C   0  0  0  0  0  0  0  0  0  0  0  0
  185.9340  178.6250  140.5510 C   0  0  0  0  0  0  0  0  0  0  0  0
  190.0020  177.8200  145.8880 C   0  0  0  0  0  3  0  0  0  0  0  0
  188.7930  177.5980  146.5560 C   0  0  0  0  0  0  0  0  0  0  0  0
  187.6480  177.5060  144.4220 C   0  0  0  0  0  3  0  0  0  0  0  0
  190.0310  177.8780  144.4930 C   0  0  0  0  0  3  0  0  0  0  0  0
  188.7800  177.5240  148.0420 C   0  0  0  0  0  1  0  0  0  0  0  0
  187.6110  177.4420  145.8190 C   0  0  0  0  0  0  0  0  0  0  0  0
  186.4290  177.2190  146.4470 F   0  0  0  0  0  0  0  0  0  0  0  0
  188.8570  177.7230  143.7450 C   0  0  0  0  0  0  0  0  0  0  0  0
  183.6050  177.9400  141.0440 C   0  0  0  0  0  2  0  0  0  0  0  0
  182.7940  177.5010  139.9180 N   0  0  0  0  0  0  0  0  0  0  0  0
  184.0950  179.1730  139.0900 N   0  0  0  0  0  2  0  0  0  0  0  0
  184.5030  179.0460  140.4790 C   0  0  2  0  0  3  0  0  0  0  0  0
  183.0950  178.1950  138.8790 C   0  0  0  0  0  0  0  0  0  0  0  0
  182.3290  177.9200  137.2810 S   0  0  0  0  0  0  0  0  0  0  0  0
  183.2020  176.1740  135.3410 C   0  0  0  0  0  1  0  0  0  0  0  0
  183.6240  176.7900  136.6620 C   0  0  0  0  0  0  0  0  0  0  0  0
  183.8680  175.7920  137.5850 F   0  0  0  0  0  0  0  0  0  0  0  0
  184.7860  177.5070  136.4660 F   0  0  0  0  0  0  0  0  0  0  0  0
  190.4360  177.8580  138.8660 C   0  0  0  0  0  2  0  0  0  0  0  0
  190.6770  176.5100  138.2660 C   0  0  0  0  0  0  0  0  0  0  0  0
  191.9660  175.9520  138.2230 C   0  0  0  0  0  0  0  0  0  0  0  0
  189.5920  175.7990  137.7430 C   0  0  0  0  0  3  0  0  0  0  0  0
  189.7850  174.5410  137.1700 C   0  0  0  0  0  3  0  0  0  0  0  0
  191.0660  173.9870  137.1230 C   0  0  0  0  0  3  0  0  0  0  0  0
  192.1620  174.6860  137.6510 C   0  0  0  0  0  0  0  0  0  0  0  0
  193.0260  176.6400  138.7250 F   0  0  0  0  0  0  0  0  0  0  0  0
  193.4840  174.1330  137.5940 N   0  0  0  0  0  2  0  0  0  0  0  0
  195.5720  174.1880  138.8530 C   0  0  2  0  0  3  0  0  0  0  0  0
  198.0420  174.5060  138.1330 C   0  0  0  0  0  1  0  0  0  0  0  0
  195.3810  173.8020  135.3860 O   0  0  0  0  0  0  0  0  0  0  0  0
  196.8090  172.3850  137.5900 C   0  0  0  0  0  1  0  0  0  0  0  0
  194.6880  174.9150  137.8370 C   0  0  1  0  0  3  0  0  0  0  0  0
  196.4810  175.9720  136.0320 O   0  0  0  0  0  0  0  0  0  0  0  0
  195.9920  175.0910  139.8330 O   0  0  0  0  0  1  0  0  0  0  0  0
  196.6870  173.8780  137.8350 C   0  0  0  0  0  0  0  0  0  0  0  0
  195.8450  174.6960  136.5060 S   0  0  0  0  0  0  0  0  0  0  0  0
  1  3  1  0  0  0  0
  2  1  1  0  0  0  0
  2  9  1  0  0  0  0
  3  5  1  0  0  0  0
  3  8  1  0  0  0  0
  4  1  2  0  0  0  0
  4  7  1  0  0  0  0
  7  6  1  0  0  0  0
  7  8  2  0  0  0  0
  8 17  1  0  0  0  0
  9  5  2  0  0  0  0
 10 11  1  0  0  0  0
 11 14  1  0  0  0  0
 12 15  1  0  0  0  0
 13 10  2  0  0  0  0
 15 16  1  0  0  0  0
 15 11  2  0  0  0  0
 17 12  2  0  0  0  0
 17 13  1  0  0  0  0
 19 18  1  0  0  0  0
 20 21  1  0  0  0  0
 21  9  1  6  0  0  0
 21 18  1  0  0  0  0
 22 20  1  0  0  0  0
 22 19  2  0  0  0  0
 23 22  1  0  0  0  0
 24 25  1  0  0  0  0
 25 23  1  0  0  0  0
 25 26  1  0  0  0  0
 27 25  1  0  0  0  0
 28  4  1  0  0  0  0
 29 28  1  0  0  0  0
 30 29  1  0  0  0  0
 30 35  1  0  0  0  0
 31 29  2  0  0  0  0
 32 31  1  0  0  0  0
 33 32  2  0  0  0  0
 33 34  1  0  0  0  0
 34 30  2  0  0  0  0
 36 34  1  0  0  0  0
 37 43  1  1  0  0  0
 39 45  2  0  0  0  0
 40 44  1  0  0  0  0
 41 36  1  6  0  0  0
 41 37  1  0  0  0  0
 42 45  2  0  0  0  0
 44 38  1  0  0  0  0
 44 37  1  0  0  0  0
 45 44  1  0  0  0  0
 45 41  1  0  0  0  0
M  END
>  <MODEL>
5

>  <REMARK>
 VINA RESULT:      -8.9      3.227      5.827
  Name = 
  8 active torsions:
  status: ('A' for Active; 'I' for Inactive)
    1  A    between atoms: C_6  and  C_32
    2  A    between atoms: C_9  and  N_18
    3  A    between atoms: C_15  and  S_16
    4  A    between atoms: S_16  and  C_36
    5  A    between atoms: C_17  and  C_32
    6  A    between atoms: N_18  and  C_37
    7  A    between atoms: C_28  and  C_34
    8  A    between atoms: C_31  and  C_40
                            x       y       z     vdW  Elec       q    Type
                         _______ _______ _______ _____ _____    ______ ____

>  <TORSDO>
F 8

$$$$
=
 OpenBabel10222421203D

 45 50  0  0  1  0  0  0  0  0999 V2000
  188.7370  177.6860  140.5090 C   0  0  0  0  0  0  0  0  0  0  0  0
  187.1940  178.1120  139.9950 S   0  0  0  0  0  0  0  0  0  0  0  0
  188.7840  177.5060  141.8150 N   0  0  0  0  0  0  0  0  0  0  0  0
  189.9840  177.5220  139.9450 C   0  0  0  0  0  0  0  0  0  0  0  0
  187.6530  177.6900  142.4840 N   0  0  0  0  0  0  0  0  0  0  0  0
  192.3000  177.0270  140.9360 C   0  0  0  0  0  1  0  0  0  0  0  0
  190.8270  177.2370  141.0300 C   0  0  0  0  0  0  0  0  0  0  0  0
  190.0430  177.2290  142.1990 C   0  0  0  0  0  0  0  0  0  0  0  0
  186.6530  178.0170  141.6200 C   0  0  0  0  0  0  0  0  0  0  0  0
  191.9190  175.8970  145.2100 C   0  0  0  0  0  3  0  0  0  0  0  0
  191.2970  176.5810  146.2590 C   0  0  0  0  0  0  0  0  0  0  0  0
  189.8610  177.7000  144.6600 C   0  0  0  0  0  3  0  0  0  0  0  0
  191.5090  176.1120  143.8930 C   0  0  0  0  0  3  0  0  0  0  0  0
  191.7360  176.3310  147.6590 C   0  0  0  0  0  1  0  0  0  0  0  0
  190.2650  177.4880  145.9820 C   0  0  0  0  0  0  0  0  0  0  0  0
  189.6420  178.1550  146.9860 F   0  0  0  0  0  0  0  0  0  0  0  0
  190.4770  177.0150  143.6020 C   0  0  0  0  0  0  0  0  0  0  0  0
  185.1090  179.8390  142.2800 C   0  0  0  0  0  2  0  0  0  0  0  0
  184.8220  179.9780  143.7000 N   0  0  0  0  0  0  0  0  0  0  0  0
  184.9980  177.7380  143.3520 N   0  0  0  0  0  2  0  0  0  0  0  0
  185.2590  178.3310  142.0520 C   0  0  2  0  0  3  0  0  0  0  0  0
  184.7740  178.8140  144.2420 C   0  0  0  0  0  0  0  0  0  0  0  0
  184.4780  178.5780  145.9950 S   0  0  0  0  0  0  0  0  0  0  0  0
  186.5490  178.7740  147.7960 C   0  0  0  0  0  1  0  0  0  0  0  0
  186.2200  178.2300  146.4180 C   0  0  0  0  0  0  0  0  0  0  0  0
  187.0620  178.7960  145.4810 F   0  0  0  0  0  0  0  0  0  0  0  0
  186.4150  176.8640  146.4220 F   0  0  0  0  0  0  0  0  0  0  0  0
  190.4070  177.7830  138.5310 C   0  0  0  0  0  2  0  0  0  0  0  0
  190.7260  176.5240  137.7910 C   0  0  0  0  0  0  0  0  0  0  0  0
  192.0400  176.2270  137.3900 C   0  0  0  0  0  0  0  0  0  0  0  0
  189.6900  175.6300  137.4990 C   0  0  0  0  0  3  0  0  0  0  0  0
  189.9550  174.4490  136.8040 C   0  0  0  0  0  3  0  0  0  0  0  0
  191.2580  174.1550  136.4020 C   0  0  0  0  0  3  0  0  0  0  0  0
  192.3080  175.0390  136.6940 C   0  0  0  0  0  0  0  0  0  0  0  0
  193.0510  177.0940  137.6660 F   0  0  0  0  0  0  0  0  0  0  0  0
  193.6490  174.7530  136.2720 N   0  0  0  0  0  2  0  0  0  0  0  0
  195.5780  173.3640  135.7250 C   0  0  2  0  0  3  0  0  0  0  0  0
  197.5120  172.4100  137.1620 C   0  0  0  0  0  1  0  0  0  0  0  0
  195.2400  175.1660  138.6980 O   0  0  0  0  0  0  0  0  0  0  0  0
  197.3850  174.8660  136.6470 C   0  0  0  0  0  1  0  0  0  0  0  0
  194.3550  173.5310  136.6310 C   0  0  1  0  0  3  0  0  0  0  0  0
  195.2370  172.6800  139.0980 O   0  0  0  0  0  0  0  0  0  0  0  0
  195.6160  172.0560  135.2360 O   0  0  0  0  0  1  0  0  0  0  0  0
  196.5950  173.5880  136.8600 C   0  0  0  0  0  0  0  0  0  0  0  0
  195.3350  173.7910  138.0910 S   0  0  0  0  0  0  0  0  0  0  0  0
  1  3  1  0  0  0  0
  2  1  1  0  0  0  0
  2  9  1  0  0  0  0
  3  8  1  0  0  0  0
  3  5  1  0  0  0  0
  4  1  2  0  0  0  0
  4  7  1  0  0  0  0
  6  7  1  0  0  0  0
  7  8  2  0  0  0  0
  8 17  1  0  0  0  0
  9  5  2  0  0  0  0
 10 11  1  0  0  0  0
 11 14  1  0  0  0  0
 12 15  1  0  0  0  0
 13 10  2  0  0  0  0
 15 11  2  0  0  0  0
 15 16  1  0  0  0  0
 17 13  1  0  0  0  0
 17 12  2  0  0  0  0
 18 19  1  0  0  0  0
 19 22  2  0  0  0  0
 20 22  1  0  0  0  0
 21  9  1  1  0  0  0
 21 18  1  0  0  0  0
 21 20  1  0  0  0  0
 22 23  1  0  0  0  0
 23 25  1  0  0  0  0
 25 27  1  0  0  0  0
 25 24  1  0  0  0  0
 26 25  1  0  0  0  0
 28  4  1  0  0  0  0
 29 28  1  0  0  0  0
 30 35  1  0  0  0  0
 30 29  2  0  0  0  0
 31 29  1  0  0  0  0
 32 31  2  0  0  0  0
 33 34  2  0  0  0  0
 33 32  1  0  0  0  0
 34 30  1  0  0  0  0
 36 34  1  0  0  0  0
 37 43  1  1  0  0  0
 37 41  1  0  0  0  0
 37 44  1  0  0  0  0
 40 44  1  0  0  0  0
 41 36  1  6  0  0  0
 41 45  1  0  0  0  0
 44 38  1  0  0  0  0
 44 45  1  0  0  0  0
 45 39  2  0  0  0  0
 45 42  2  0  0  0  0
M  END
>  <MODEL>
6

>  <REMARK>
 VINA RESULT:      -8.9      2.017      4.261
  Name = 
  8 active torsions:
  status: ('A' for Active; 'I' for Inactive)
    1  A    between atoms: C_6  and  C_32
    2  A    between atoms: C_9  and  N_18
    3  A    between atoms: C_15  and  S_16
    4  A    between atoms: S_16  and  C_36
    5  A    between atoms: C_17  and  C_32
    6  A    between atoms: N_18  and  C_37
    7  A    between atoms: C_28  and  C_34
    8  A    between atoms: C_31  and  C_40
                            x       y       z     vdW  Elec       q    Type
                         _______ _______ _______ _____ _____    ______ ____

>  <TORSDO>
F 8

$$$$
=
 OpenBabel10222421203D

 45 50  0  0  1  0  0  0  0  0999 V2000
  186.6600  178.2720  139.2570 C   0  0  0  0  0  0  0  0  0  0  0  0
  185.6460  178.3810  137.9210 S   0  0  0  0  0  0  0  0  0  0  0  0
  185.9800  178.2540  140.3870 N   0  0  0  0  0  0  0  0  0  0  0  0
  188.0170  178.2480  139.5010 C   0  0  0  0  0  0  0  0  0  0  0  0
  184.6590  178.3280  140.2890 N   0  0  0  0  0  0  0  0  0  0  0  0
  189.4070  178.2530  141.6600 C   0  0  0  0  0  1  0  0  0  0  0  0
  188.1240  178.2320  140.9000 C   0  0  0  0  0  0  0  0  0  0  0  0
  186.8220  178.2310  141.4350 C   0  0  0  0  0  0  0  0  0  0  0  0
  184.2950  178.3880  138.9780 C   0  0  0  0  0  0  0  0  0  0  0  0
  186.7360  177.5260  145.1580 C   0  0  0  0  0  3  0  0  0  0  0  0
  185.6220  178.2670  145.5630 C   0  0  0  0  0  0  0  0  0  0  0  0
  185.2940  178.9980  143.2760 C   0  0  0  0  0  3  0  0  0  0  0  0
  187.1220  177.5180  143.8160 C   0  0  0  0  0  3  0  0  0  0  0  0
  185.2150  178.2540  146.9940 C   0  0  0  0  0  1  0  0  0  0  0  0
  184.8990  179.0080  144.6180 C   0  0  0  0  0  0  0  0  0  0  0  0
  183.8110  179.7270  144.9890 F   0  0  0  0  0  0  0  0  0  0  0  0
  186.4080  178.2530  142.8600 C   0  0  0  0  0  0  0  0  0  0  0  0
  182.3860  179.9500  138.7500 C   0  0  0  0  0  2  0  0  0  0  0  0
  181.3110  179.8240  139.7230 N   0  0  0  0  0  0  0  0  0  0  0  0
  182.0140  177.6950  139.3430 N   0  0  0  0  0  2  0  0  0  0  0  0
  182.8810  178.5180  138.5180 C   0  0  2  0  0  3  0  0  0  0  0  0
  181.1460  178.5840  140.0180 C   0  0  0  0  0  0  0  0  0  0  0  0
  179.9310  178.0320  141.2160 S   0  0  0  0  0  0  0  0  0  0  0  0
  180.1990  178.2550  143.9460 C   0  0  0  0  0  1  0  0  0  0  0  0
  180.7190  178.8450  142.6490 C   0  0  0  0  0  0  0  0  0  0  0  0
  180.4710  180.2040  142.6220 F   0  0  0  0  0  0  0  0  0  0  0  0
  182.0820  178.6410  142.5840 F   0  0  0  0  0  0  0  0  0  0  0  0
  189.1410  178.4100  138.5220 C   0  0  0  0  0  2  0  0  0  0  0  0
  189.6800  177.0970  138.0530 C   0  0  0  0  0  0  0  0  0  0  0  0
  191.0270  176.7490  138.2520 C   0  0  0  0  0  0  0  0  0  0  0  0
  188.8170  176.2050  137.4060 C   0  0  0  0  0  3  0  0  0  0  0  0
  189.2920  174.9740  136.9500 C   0  0  0  0  0  3  0  0  0  0  0  0
  190.6300  174.6280  137.1440 C   0  0  0  0  0  3  0  0  0  0  0  0
  191.5040  175.5100  137.7970 C   0  0  0  0  0  0  0  0  0  0  0  0
  191.8710  177.6130  138.8750 F   0  0  0  0  0  0  0  0  0  0  0  0
  192.8840  175.1710  137.9880 N   0  0  0  0  0  2  0  0  0  0  0  0
  193.9170  174.0400  136.0900 C   0  0  2  0  0  3  0  0  0  0  0  0
  196.1430  172.7410  135.8250 C   0  0  0  0  0  1  0  0  0  0  0  0
  195.6080  174.8790  139.0280 O   0  0  0  0  0  0  0  0  0  0  0  0
  196.1390  175.2370  136.1150 C   0  0  0  0  0  1  0  0  0  0  0  0
  193.4650  173.9110  137.5460 C   0  0  1  0  0  3  0  0  0  0  0  0
  195.4380  172.3870  138.7190 O   0  0  0  0  0  0  0  0  0  0  0  0
  193.4640  172.9350  135.3640 O   0  0  0  0  0  1  0  0  0  0  0  0
  195.4170  173.9390  136.4240 C   0  0  0  0  0  0  0  0  0  0  0  0
  195.1240  173.7460  138.1620 S   0  0  0  0  0  0  0  0  0  0  0  0
  1  4  2  0  0  0  0
  1  3  1  0  0  0  0
  2  9  1  0  0  0  0
  2  1  1  0  0  0  0
  3  8  1  0  0  0  0
  4  7  1  0  0  0  0
  5  3  1  0  0  0  0
  7  8  2  0  0  0  0
  7  6  1  0  0  0  0
  8 17  1  0  0  0  0
  9  5  2  0  0  0  0
 10 11  1  0  0  0  0
 11 14  1  0  0  0  0
 12 15  1  0  0  0  0
 13 10  2  0  0  0  0
 15 16  1  0  0  0  0
 15 11  2  0  0  0  0
 17 12  2  0  0  0  0
 17 13  1  0  0  0  0
 18 19  1  0  0  0  0
 19 22  2  0  0  0  0
 20 22  1  0  0  0  0
 21 18  1  0  0  0  0
 21  9  1  1  0  0  0
 21 20  1  0  0  0  0
 22 23  1  0  0  0  0
 23 25  1  0  0  0  0
 25 24  1  0  0  0  0
 26 25  1  0  0  0  0
 27 25  1  0  0  0  0
 28  4  1  0  0  0  0
 29 30  1  0  0  0  0
 29 28  1  0  0  0  0
 30 35  1  0  0  0  0
 31 29  2  0  0  0  0
 32 33  2  0  0  0  0
 32 31  1  0  0  0  0
 33 34  1  0  0  0  0
 34 36  1  0  0  0  0
 34 30  2  0  0  0  0
 37 43  1  6  0  0  0
 37 44  1  0  0  0  0
 37 41  1  0  0  0  0
 38 44  1  0  0  0  0
 40 44  1  0  0  0  0
 41 36  1  1  0  0  0
 41 45  1  0  0  0  0
 44 45  1  0  0  0  0
 45 42  2  0  0  0  0
 45 39  2  0  0  0  0
M  END
>  <MODEL>
7

>  <REMARK>
 VINA RESULT:      -8.7      3.430      5.512
  Name = 
  8 active torsions:
  status: ('A' for Active; 'I' for Inactive)
    1  A    between atoms: C_6  and  C_32
    2  A    between atoms: C_9  and  N_18
    3  A    between atoms: C_15  and  S_16
    4  A    between atoms: S_16  and  C_36
    5  A    between atoms: C_17  and  C_32
    6  A    between atoms: N_18  and  C_37
    7  A    between atoms: C_28  and  C_34
    8  A    between atoms: C_31  and  C_40
                            x       y       z     vdW  Elec       q    Type
                         _______ _______ _______ _____ _____    ______ ____

>  <TORSDO>
F 8

$$$$
=
 OpenBabel10222421203D

 45 50  0  0  1  0  0  0  0  0999 V2000
  184.8780  177.6930  137.9660 C   0  0  0  0  0  0  0  0  0  0  0  0
  184.1440  178.7810  139.0160 S   0  0  0  0  0  0  0  0  0  0  0  0
  184.1730  176.5850  137.8380 N   0  0  0  0  0  0  0  0  0  0  0  0
  186.0470  177.6170  137.2390 C   0  0  0  0  0  0  0  0  0  0  0  0
  183.0460  176.5120  138.5360 N   0  0  0  0  0  0  0  0  0  0  0  0
  187.0960  175.7660  135.8020 C   0  0  0  0  0  1  0  0  0  0  0  0
  186.0160  176.3430  136.6530 C   0  0  0  0  0  0  0  0  0  0  0  0
  184.8190  175.7130  137.0440 C   0  0  0  0  0  0  0  0  0  0  0  0
  182.8630  177.6630  139.2400 C   0  0  0  0  0  0  0  0  0  0  0  0
  184.5970  171.9340  136.8870 C   0  0  0  0  0  3  0  0  0  0  0  0
  183.4650  171.7480  136.0870 C   0  0  0  0  0  0  0  0  0  0  0  0
  183.2050  174.1510  135.9190 C   0  0  0  0  0  3  0  0  0  0  0  0
  185.0320  173.2240  137.1950 C   0  0  0  0  0  3  0  0  0  0  0  0
  183.0220  170.3660  135.7550 C   0  0  0  0  0  1  0  0  0  0  0  0
  182.7650  172.8610  135.6030 C   0  0  0  0  0  0  0  0  0  0  0  0
  181.6700  172.7020  134.8190 F   0  0  0  0  0  0  0  0  0  0  0  0
  184.3420  174.3470  136.7170 C   0  0  0  0  0  0  0  0  0  0  0  0
  181.3530  179.3830  140.1890 C   0  0  0  0  0  2  0  0  0  0  0  0
  181.6140  179.8080  141.5560 N   0  0  0  0  0  0  0  0  0  0  0  0
  182.1000  177.5870  141.5270 N   0  0  0  0  0  2  0  0  0  0  0  0
  181.7110  177.8930  140.1610 C   0  0  2  0  0  3  0  0  0  0  0  0
  182.0200  178.8020  142.2450 C   0  0  0  0  0  0  0  0  0  0  0  0
  182.4790  178.9400  143.9730 S   0  0  0  0  0  0  0  0  0  0  0  0
  185.0220  178.6130  144.9720 C   0  0  0  0  0  1  0  0  0  0  0  0
  184.2810  178.8900  143.6780 C   0  0  0  0  0  0  0  0  0  0  0  0
  184.7100  180.0890  143.1420 F   0  0  0  0  0  0  0  0  0  0  0  0
  184.5580  177.8790  142.7820 F   0  0  0  0  0  0  0  0  0  0  0  0
  187.1980  178.5770  137.2240 C   0  0  0  0  0  2  0  0  0  0  0  0
  188.3360  178.1140  138.0750 C   0  0  0  0  0  0  0  0  0  0  0  0
  188.2880  178.2190  139.4760 C   0  0  0  0  0  0  0  0  0  0  0  0
  189.4640  177.5660  137.4550 C   0  0  0  0  0  3  0  0  0  0  0  0
  190.5460  177.1310  138.2220 C   0  0  0  0  0  3  0  0  0  0  0  0
  190.5020  177.2370  139.6130 C   0  0  0  0  0  3  0  0  0  0  0  0
  189.3740  177.7780  140.2480 C   0  0  0  0  0  0  0  0  0  0  0  0
  187.1970  178.7550  140.0850 F   0  0  0  0  0  0  0  0  0  0  0  0
  189.3240  177.9050  141.6760 N   0  0  0  0  0  2  0  0  0  0  0  0
  190.4140  178.5150  143.7710 C   0  0  2  0  0  3  0  0  0  0  0  0
  191.1550  177.1240  145.8290 C   0  0  0  0  0  1  0  0  0  0  0  0
  188.8000  175.4680  143.2150 O   0  0  0  0  0  0  0  0  0  0  0  0
  188.7200  177.5350  145.3650 C   0  0  0  0  0  1  0  0  0  0  0  0
  190.4520  177.6000  142.5450 C   0  0  1  0  0  3  0  0  0  0  0  0
  191.2770  175.1720  143.5540 O   0  0  0  0  0  0  0  0  0  0  0  0
  191.6840  179.0590  143.9830 O   0  0  0  0  0  1  0  0  0  0  0  0
  190.1010  177.3740  144.7580 C   0  0  0  0  0  0  0  0  0  0  0  0
  190.1230  176.1320  143.4910 S   0  0  0  0  0  0  0  0  0  0  0  0
  1  2  1  0  0  0  0
  2  9  1  0  0  0  0
  3  1  1  0  0  0  0
  3  5  1  0  0  0  0
  4  1  2  0  0  0  0
  5  9  2  0  0  0  0
  6  7  1  0  0  0  0
  7  8  2  0  0  0  0
  7  4  1  0  0  0  0
  8  3  1  0  0  0  0
 10 13  1  0  0  0  0
 11 10  2  0  0  0  0
 12 17  1  0  0  0  0
 14 11  1  0  0  0  0
 15 12  2  0  0  0  0
 15 11  1  0  0  0  0
 16 15  1  0  0  0  0
 17  8  1  0  0  0  0
 17 13  2  0  0  0  0
 18 19  1  0  0  0  0
 19 22  2  0  0  0  0
 20 22  1  0  0  0  0
 21  9  1  6  0  0  0
 21 18  1  0  0  0  0
 21 20  1  0  0  0  0
 22 23  1  0  0  0  0
 25 23  1  0  0  0  0
 25 24  1  0  0  0  0
 26 25  1  0  0  0  0
 27 25  1  0  0  0  0
 28  4  1  0  0  0  0
 28 29  1  0  0  0  0
 29 30  1  0  0  0  0
 30 35  1  0  0  0  0
 30 34  2  0  0  0  0
 31 29  2  0  0  0  0
 31 32  1  0  0  0  0
 32 33  2  0  0  0  0
 33 34  1  0  0  0  0
 34 36  1  0  0  0  0
 37 43  1  1  0  0  0
 37 44  1  0  0  0  0
 39 45  2  0  0  0  0
 41 36  1  6  0  0  0
 41 45  1  0  0  0  0
 41 37  1  0  0  0  0
 44 40  1  0  0  0  0
 44 38  1  0  0  0  0
 45 42  2  0  0  0  0
 45 44  1  0  0  0  0
M  END
>  <MODEL>
8

>  <REMARK>
 VINA RESULT:      -8.6      4.799      8.150
  Name = 
  8 active torsions:
  status: ('A' for Active; 'I' for Inactive)
    1  A    between atoms: C_6  and  C_32
    2  A    between atoms: C_9  and  N_18
    3  A    between atoms: C_15  and  S_16
    4  A    between atoms: S_16  and  C_36
    5  A    between atoms: C_17  and  C_32
    6  A    between atoms: N_18  and  C_37
    7  A    between atoms: C_28  and  C_34
    8  A    between atoms: C_31  and  C_40
                            x       y       z     vdW  Elec       q    Type
                         _______ _______ _______ _____ _____    ______ ____

>  <TORSDO>
F 8

$$$$
=
 OpenBabel10222421203D

 45 50  0  0  1  0  0  0  0  0999 V2000
  189.4620  177.5450  138.4300 C   0  0  0  0  0  0  0  0  0  0  0  0
  189.0100  178.2380  139.8930 S   0  0  0  0  0  0  0  0  0  0  0  0
  190.4650  176.7000  138.5790 N   0  0  0  0  0  0  0  0  0  0  0  0
  189.1050  177.6550  137.1030 C   0  0  0  0  0  0  0  0  0  0  0  0
  190.9370  176.5460  139.8090 N   0  0  0  0  0  0  0  0  0  0  0  0
  190.0440  176.6220  134.9480 C   0  0  0  0  0  1  0  0  0  0  0  0
  189.9960  176.8080  136.4270 C   0  0  0  0  0  0  0  0  0  0  0  0
  190.8410  176.2130  137.3830 C   0  0  0  0  0  0  0  0  0  0  0  0
  190.2280  177.3190  140.6770 C   0  0  0  0  0  0  0  0  0  0  0  0
  192.7730  173.0380  136.6410 C   0  0  0  0  0  3  0  0  0  0  0  0
  194.0960  173.4740  136.7670 C   0  0  0  0  0  0  0  0  0  0  0  0
  193.2990  175.7030  137.2840 C   0  0  0  0  0  3  0  0  0  0  0  0
  191.7190  173.9330  136.8410 C   0  0  0  0  0  3  0  0  0  0  0  0
  195.2080  172.5050  136.5650 C   0  0  0  0  0  1  0  0  0  0  0  0
  194.3600  174.8120  137.0880 C   0  0  0  0  0  0  0  0  0  0  0  0
  195.6360  175.2520  137.2230 F   0  0  0  0  0  0  0  0  0  0  0  0
  191.9690  175.2740  137.1640 C   0  0  0  0  0  0  0  0  0  0  0  0
  190.5560  176.0090  142.7540 C   0  0  0  0  0  2  0  0  0  0  0  0
  189.4550  175.9940  143.7050 N   0  0  0  0  0  0  0  0  0  0  0  0
  189.4450  178.0910  142.8230 N   0  0  0  0  0  2  0  0  0  0  0  0
  190.5290  177.4110  142.1370 C   0  0  2  0  0  3  0  0  0  0  0  0
  188.8790  177.1430  143.7080 C   0  0  0  0  0  0  0  0  0  0  0  0
  187.4500  177.5020  144.7300 S   0  0  0  0  0  0  0  0  0  0  0  0
  187.5100  178.2370  147.3820 C   0  0  0  0  0  1  0  0  0  0  0  0
  188.3880  177.6540  146.2910 C   0  0  0  0  0  0  0  0  0  0  0  0
  189.4960  178.4570  146.1050 F   0  0  0  0  0  0  0  0  0  0  0  0
  188.8080  176.4000  146.6820 F   0  0  0  0  0  0  0  0  0  0  0  0
  188.1320  178.6070  136.4780 C   0  0  0  0  0  2  0  0  0  0  0  0
  186.7690  178.0110  136.3280 C   0  0  0  0  0  0  0  0  0  0  0  0
  185.8840  177.9330  137.4170 C   0  0  0  0  0  0  0  0  0  0  0  0
  186.3780  177.5250  135.0750 C   0  0  0  0  0  3  0  0  0  0  0  0
  185.1150  176.9560  134.9050 C   0  0  0  0  0  3  0  0  0  0  0  0
  184.2360  176.8760  135.9860 C   0  0  0  0  0  3  0  0  0  0  0  0
  184.6120  177.3650  137.2450 C   0  0  0  0  0  0  0  0  0  0  0  0
  186.2590  178.3990  138.6380 F   0  0  0  0  0  0  0  0  0  0  0  0
  183.7220  177.2730  138.3660 N   0  0  0  0  0  2  0  0  0  0  0  0
  181.6410  177.4480  139.6260 C   0  0  2  0  0  3  0  0  0  0  0  0
  180.3920  179.4630  140.6740 C   0  0  0  0  0  1  0  0  0  0  0  0
  184.0540  179.9680  139.4690 O   0  0  0  0  0  0  0  0  0  0  0  0
  182.5450  178.6280  141.6660 C   0  0  0  0  0  1  0  0  0  0  0  0
  182.4390  177.9610  138.4250 C   0  0  1  0  0  3  0  0  0  0  0  0
  181.8970  180.6610  138.3720 O   0  0  0  0  0  0  0  0  0  0  0  0
  180.3350  177.1550  139.2240 O   0  0  0  0  0  1  0  0  0  0  0  0
  181.7250  178.7780  140.3980 C   0  0  0  0  0  0  0  0  0  0  0  0
  182.6420  179.5870  139.1130 S   0  0  0  0  0  0  0  0  0  0  0  0
  1  3  1  0  0  0  0
  1  2  1  0  0  0  0
  2  9  1  0  0  0  0
  3  5  1  0  0  0  0
  4  1  2  0  0  0  0
  5  9  2  0  0  0  0
  6  7  1  0  0  0  0
  7  4  1  0  0  0  0
  7  8  2  0  0  0  0
  8  3  1  0  0  0  0
 10 11  2  0  0  0  0
 10 13  1  0  0  0  0
 11 15  1  0  0  0  0
 13 17  2  0  0  0  0
 14 11  1  0  0  0  0
 15 16  1  0  0  0  0
 15 12  2  0  0  0  0
 17 12  1  0  0  0  0
 17  8  1  0  0  0  0
 18 19  1  0  0  0  0
 19 22  2  0  0  0  0
 20 22  1  0  0  0  0
 21  9  1  6  0  0  0
 21 18  1  0  0  0  0
 21 20  1  0  0  0  0
 22 23  1  0  0  0  0
 23 25  1  0  0  0  0
 25 27  1  0  0  0  0
 25 24  1  0  0  0  0
 26 25  1  0  0  0  0
 28  4  1  0  0  0  0
 29 28  1  0  0  0  0
 29 30  1  0  0  0  0
 30 35  1  0  0  0  0
 31 29  2  0  0  0  0
 32 31  1  0  0  0  0
 32 33  2  0  0  0  0
 33 34  1  0  0  0  0
 34 30  2  0  0  0  0
 34 36  1  0  0  0  0
 37 43  1  6  0  0  0
 37 44  1  0  0  0  0
 41 36  1  1  0  0  0
 41 45  1  0  0  0  0
 41 37  1  0  0  0  0
 42 45  2  0  0  0  0
 44 38  1  0  0  0  0
 44 40  1  0  0  0  0
 45 39  2  0  0  0  0
 45 44  1  0  0  0  0
M  END
>  <MODEL>
9

>  <REMARK>
 VINA RESULT:      -8.6      4.689      8.896
  Name = 
  8 active torsions:
  status: ('A' for Active; 'I' for Inactive)
    1  A    between atoms: C_6  and  C_32
    2  A    between atoms: C_9  and  N_18
    3  A    between atoms: C_15  and  S_16
    4  A    between atoms: S_16  and  C_36
    5  A    between atoms: C_17  and  C_32
    6  A    between atoms: N_18  and  C_37
    7  A    between atoms: C_28  and  C_34
    8  A    between atoms: C_31  and  C_40
                            x       y       z     vdW  Elec       q    Type
                         _______ _______ _______ _____ _____    ______ ____

>  <TORSDO>
F 8

$$$$
