=
 OpenBabel10222419173D

 35 39  0  0  1  0  0  0  0  0999 V2000
  188.1000  177.2720  142.8780 C   0  0  1  0  0  3  0  0  0  0  0  0
  187.0040  177.6380  146.8140 C   0  0  0  0  0  3  0  0  0  0  0  0
  187.1300  178.0530  142.4070 C   0  0  0  0  0  0  0  0  0  0  0  0
  186.0830  178.1440  143.4300 C   0  0  0  0  0  0  0  0  0  0  0  0
  188.8000  177.1010  145.2070 C   0  0  0  0  0  0  0  0  0  0  0  0
  186.0520  177.6750  145.8700 C   0  0  0  0  0  3  0  0  0  0  0  0
  190.3250  176.5490  143.3970 O   0  0  0  0  0  0  0  0  0  0  0  0
  187.2740  178.9570  141.2290 C   0  0  0  0  0  1  0  0  0  0  0  0
  188.4480  177.4330  146.4790 C   0  0  0  0  0  0  0  0  0  0  0  0
  190.2210  177.1500  144.6780 C   0  0  0  0  0  2  0  0  0  0  0  0
  189.5480  177.2800  142.4610 C   0  0  1  0  0  3  0  0  0  0  0  0
  187.7360  176.7210  144.2080 C   0  0  1  0  0  3  0  0  0  0  0  0
  186.4660  177.4400  144.4850 C   0  0  2  0  0  3  0  0  0  0  0  0
  189.4380  177.6840  147.5560 C   0  0  0  0  0  0  0  0  0  0  0  0
  189.1790  178.5280  148.4550 O   0  0  0  0  0  0  0  0  0  0  0  0
  190.6640  176.9600  147.6280 N   0  0  0  0  0  1  0  0  0  0  0  0
  185.0150  179.0980  143.4630 N   0  0  0  0  0  2  0  0  0  0  0  0
  183.8610  178.9630  142.6750 N   0  0  0  0  0  2  0  0  0  0  0  0
  179.1800  179.2500  143.7060 C   0  0  0  0  0  3  0  0  0  0  0  0
  181.1250  179.7860  142.4550 N   0  0  0  0  0  0  0  0  0  0  0  0
  182.8290  178.5050  143.5130 N   0  0  0  0  0  2  0  0  0  0  0  0
  181.4820  178.9600  143.3720 C   0  0  0  0  0  0  0  0  0  0  0  0
  179.7070  180.0770  142.5380 C   0  0  0  0  0  3  0  0  0  0  0  0
  180.3930  178.5170  144.2640 C   0  0  0  0  0  2  0  0  0  0  0  0
  189.6940  176.6430  141.0880 C   0  0  0  0  0  2  0  0  0  0  0  0
  190.8360  177.2960  140.3310 C   0  0  0  0  0  2  0  0  0  0  0  0
  190.5060  177.3720  138.8500 C   0  0  2  0  0  3  0  0  0  0  0  0
  189.1000  178.1680  137.3290 C   0  0  0  0  0  1  0  0  0  0  0  0
  189.5790  178.3940  138.6240 O   0  0  0  0  0  0  0  0  0  0  0  0
  189.9170  176.0390  138.4120 C   0  0  0  0  0  2  0  0  0  0  0  0
  191.4150  173.4970  136.6700 C   0  0  0  0  0  2  0  0  0  0  0  0
  190.4090  174.0210  137.4950 O   0  0  0  0  0  0  0  0  0  0  0  0
  192.2670  174.6480  136.2190 C   0  0  0  0  0  2  0  0  0  0  0  0
  191.8830  175.7140  137.1900 C   0  0  0  0  0  2  0  0  0  0  0  0
  190.9780  175.0820  138.1350 N   0  0  0  0  0  0  0  0  0  0  0  0
  1  3  1  1  0  0  0
  1 12  1  0  0  0  0
  3  4  2  0  0  0  0
  4 17  1  0  0  0  0
  4 13  1  0  0  0  0
  5  9  2  0  0  0  0
  6  2  2  0  0  0  0
  7 10  1  0  0  0  0
  8  3  1  0  0  0  0
  9  2  1  0  0  0  0
  9 14  1  0  0  0  0
 10  5  1  0  0  0  0
 11 25  1  6  0  0  0
 11  1  1  0  0  0  0
 11  7  1  0  0  0  0
 12 13  1  0  0  0  0
 12  5  1  1  0  0  0
 13  6  1  1  0  0  0
 14 16  1  0  0  0  0
 14 15  2  0  0  0  0
 18 17  1  0  0  0  0
 18 21  1  0  0  0  0
 19 24  1  0  0  0  0
 20 23  1  0  0  0  0
 20 22  2  0  0  0  0
 22 21  1  0  0  0  0
 22 24  1  0  0  0  0
 23 19  2  0  0  0  0
 26 25  1  0  0  0  0
 27 30  1  1  0  0  0
 27 26  1  0  0  0  0
 28 29  1  0  0  0  0
 29 27  1  0  0  0  0
 31 32  1  0  0  0  0
 32 35  1  0  0  0  0
 33 31  1  0  0  0  0
 33 34  1  0  0  0  0
 34 35  1  0  0  0  0
 35 30  1  0  0  0  0
M  END
>  <MODEL>
1

>  <REMARK>
 VINA RESULT:      -8.7      0.000      0.000
  Name = 
  10 active torsions:
  status: ('A' for Active; 'I' for Inactive)
    1  A    between atoms: C_1  and  C_26
    2  A    between atoms: C_5  and  C_25
    3  A    between atoms: C_5  and  C_29
    4  A    between atoms: N_6  and  C_11
    5  A    between atoms: N_6  and  N_19
    6  A    between atoms: C_9  and  C_29
    7  A    between atoms: C_9  and  N_30
    8  A    between atoms: O_16  and  C_29
    9  A    between atoms: N_18  and  N_19
   10  A    between atoms: C_25  and  C_31
                            x       y       z     vdW  Elec       q    Type
                         _______ _______ _______ _____ _____    ______ ____

>  <TORSDO>
F 10

$$$$
=
 OpenBabel10222419173D

 35 39  0  0  1  0  0  0  0  0999 V2000
  188.0450  177.2390  142.9950 C   0  0  1  0  0  3  0  0  0  0  0  0
  187.0420  177.6790  146.9480 C   0  0  0  0  0  3  0  0  0  0  0  0
  187.0710  178.0200  142.5330 C   0  0  0  0  0  0  0  0  0  0  0  0
  186.0490  178.1370  143.5780 C   0  0  0  0  0  0  0  0  0  0  0  0
  188.7970  177.1000  145.3100 C   0  0  0  0  0  0  0  0  0  0  0  0
  186.0700  177.7080  146.0250 C   0  0  0  0  0  3  0  0  0  0  0  0
  190.2760  176.5060  143.4750 O   0  0  0  0  0  0  0  0  0  0  0  0
  187.1950  178.9030  141.3370 C   0  0  0  0  0  1  0  0  0  0  0  0
  188.4770  177.4560  146.5840 C   0  0  0  0  0  0  0  0  0  0  0  0
  190.2060  177.1280  144.7480 C   0  0  0  0  0  2  0  0  0  0  0  0
  189.4830  177.2280  142.5450 C   0  0  1  0  0  3  0  0  0  0  0  0
  187.7070  176.7130  144.3420 C   0  0  1  0  0  3  0  0  0  0  0  0
  186.4500  177.4470  144.6360 C   0  0  2  0  0  3  0  0  0  0  0  0
  189.4930  177.7170  147.6340 C   0  0  0  0  0  0  0  0  0  0  0  0
  189.2490  178.5540  148.5430 O   0  0  0  0  0  0  0  0  0  0  0  0
  190.7300  177.0090  147.6690 N   0  0  0  0  0  1  0  0  0  0  0  0
  184.9900  179.1000  143.6190 N   0  0  0  0  0  2  0  0  0  0  0  0
  183.8390  178.9890  142.8220 N   0  0  0  0  0  2  0  0  0  0  0  0
  179.0600  179.0480  143.2820 C   0  0  0  0  0  3  0  0  0  0  0  0
  181.0910  179.3370  142.0880 N   0  0  0  0  0  0  0  0  0  0  0  0
  182.7540  178.7350  143.6810 N   0  0  0  0  0  2  0  0  0  0  0  0
  181.4010  178.9420  143.2710 C   0  0  0  0  0  0  0  0  0  0  0  0
  179.6550  179.4640  141.9400 C   0  0  0  0  0  3  0  0  0  0  0  0
  180.2520  178.7160  144.1690 C   0  0  0  0  0  2  0  0  0  0  0  0
  189.5920  176.5670  141.1800 C   0  0  0  0  0  2  0  0  0  0  0  0
  190.4960  177.3870  140.2760 C   0  0  0  0  0  2  0  0  0  0  0  0
  190.5740  176.7510  138.8990 C   0  0  2  0  0  3  0  0  0  0  0  0
  191.8720  176.0460  137.2430 C   0  0  0  0  0  1  0  0  0  0  0  0
  191.9040  176.7230  138.4660 O   0  0  0  0  0  0  0  0  0  0  0  0
  189.7380  177.5750  137.9320 C   0  0  0  0  0  2  0  0  0  0  0  0
  186.3990  178.2130  137.5010 C   0  0  0  0  0  2  0  0  0  0  0  0
  187.7110  178.5940  137.8140 O   0  0  0  0  0  0  0  0  0  0  0  0
  186.4500  176.7970  137.0050 C   0  0  0  0  0  2  0  0  0  0  0  0
  187.7960  176.3550  137.4760 C   0  0  0  0  0  2  0  0  0  0  0  0
  188.3240  177.4590  138.2600 N   0  0  0  0  0  0  0  0  0  0  0  0
  1  3  1  1  0  0  0
  1 12  1  0  0  0  0
  3  4  2  0  0  0  0
  4 17  1  0  0  0  0
  4 13  1  0  0  0  0
  5  9  2  0  0  0  0
  6  2  2  0  0  0  0
  7 10  1  0  0  0  0
  8  3  1  0  0  0  0
  9  2  1  0  0  0  0
  9 14  1  0  0  0  0
 10  5  1  0  0  0  0
 11 25  1  6  0  0  0
 11  1  1  0  0  0  0
 11  7  1  0  0  0  0
 12 13  1  0  0  0  0
 12  5  1  1  0  0  0
 13  6  1  1  0  0  0
 14 16  1  0  0  0  0
 14 15  2  0  0  0  0
 18 17  1  0  0  0  0
 18 21  1  0  0  0  0
 19 24  1  0  0  0  0
 20 22  2  0  0  0  0
 22 21  1  0  0  0  0
 22 24  1  0  0  0  0
 23 20  1  0  0  0  0
 23 19  2  0  0  0  0
 26 25  1  0  0  0  0
 27 30  1  6  0  0  0
 27 26  1  0  0  0  0
 28 29  1  0  0  0  0
 29 27  1  0  0  0  0
 30 35  1  0  0  0  0
 31 32  1  0  0  0  0
 32 35  1  0  0  0  0
 33 34  1  0  0  0  0
 33 31  1  0  0  0  0
 34 35  1  0  0  0  0
M  END
>  <MODEL>
2

>  <REMARK>
 VINA RESULT:      -8.6      1.195      2.209
  Name = 
  10 active torsions:
  status: ('A' for Active; 'I' for Inactive)
    1  A    between atoms: C_1  and  C_26
    2  A    between atoms: C_5  and  C_25
    3  A    between atoms: C_5  and  C_29
    4  A    between atoms: N_6  and  C_11
    5  A    between atoms: N_6  and  N_19
    6  A    between atoms: C_9  and  C_29
    7  A    between atoms: C_9  and  N_30
    8  A    between atoms: O_16  and  C_29
    9  A    between atoms: N_18  and  N_19
   10  A    between atoms: C_25  and  C_31
                            x       y       z     vdW  Elec       q    Type
                         _______ _______ _______ _____ _____    ______ ____

>  <TORSDO>
F 10

$$$$
=
 OpenBabel10222419173D

 35 39  0  0  1  0  0  0  0  0999 V2000
  188.2880  177.1530  142.8400 C   0  0  1  0  0  3  0  0  0  0  0  0
  186.9990  177.7510  146.6880 C   0  0  0  0  0  3  0  0  0  0  0  0
  187.3790  177.9490  142.2800 C   0  0  0  0  0  0  0  0  0  0  0  0
  186.2840  178.1320  143.2380 C   0  0  0  0  0  0  0  0  0  0  0  0
  188.8530  177.0650  145.2090 C   0  0  0  0  0  0  0  0  0  0  0  0
  186.1020  177.7820  145.6910 C   0  0  0  0  0  3  0  0  0  0  0  0
  190.4490  176.3650  143.5140 O   0  0  0  0  0  0  0  0  0  0  0  0
  187.6250  178.7890  141.0710 C   0  0  0  0  0  1  0  0  0  0  0  0
  188.4490  177.4710  146.4430 C   0  0  0  0  0  0  0  0  0  0  0  0
  190.3020  177.0300  144.7580 C   0  0  0  0  0  2  0  0  0  0  0  0
  189.7550  177.0820  142.5030 C   0  0  1  0  0  3  0  0  0  0  0  0
  187.8290  176.6820  144.1710 C   0  0  1  0  0  3  0  0  0  0  0  0
  186.5790  177.4640  144.3440 C   0  0  2  0  0  3  0  0  0  0  0  0
  189.3890  177.7340  147.5610 C   0  0  0  0  0  0  0  0  0  0  0  0
  189.0750  178.5590  148.4590 O   0  0  0  0  0  0  0  0  0  0  0  0
  190.6300  177.0390  147.6720 N   0  0  0  0  0  1  0  0  0  0  0  0
  185.2580  179.1300  143.1680 N   0  0  0  0  0  2  0  0  0  0  0  0
  183.9040  178.8050  142.9860 N   0  0  0  0  0  2  0  0  0  0  0  0
  183.4230  178.3930  138.2270 C   0  0  0  0  0  3  0  0  0  0  0  0
  183.6230  179.6140  140.2520 N   0  0  0  0  0  0  0  0  0  0  0  0
  183.8260  177.9120  141.9030 N   0  0  0  0  0  2  0  0  0  0  0  0
  183.6680  178.3670  140.5570 C   0  0  0  0  0  0  0  0  0  0  0  0
  183.4600  179.7960  138.8230 C   0  0  0  0  0  3  0  0  0  0  0  0
  183.5490  177.4450  139.4120 C   0  0  0  0  0  2  0  0  0  0  0  0
  189.9460  176.3730  141.1720 C   0  0  0  0  0  2  0  0  0  0  0  0
  190.9520  177.1290  140.3210 C   0  0  0  0  0  2  0  0  0  0  0  0
  190.7300  176.8200  138.8500 C   0  0  2  0  0  3  0  0  0  0  0  0
  192.0670  175.4030  137.7880 C   0  0  0  0  0  1  0  0  0  0  0  0
  191.9620  176.7370  138.1930 O   0  0  0  0  0  0  0  0  0  0  0  0
  189.8970  177.9360  138.2380 C   0  0  0  0  0  2  0  0  0  0  0  0
  186.8210  176.7340  137.3240 C   0  0  0  0  0  2  0  0  0  0  0  0
  188.0280  176.6610  138.0330 O   0  0  0  0  0  0  0  0  0  0  0  0
  186.7720  178.0810  136.6620 C   0  0  0  0  0  2  0  0  0  0  0  0
  188.1990  178.5130  136.7390 C   0  0  0  0  0  2  0  0  0  0  0  0
  188.9230  177.3880  137.3040 N   0  0  0  0  0  0  0  0  0  0  0  0
  1  3  1  1  0  0  0
  1 12  1  0  0  0  0
  3  4  2  0  0  0  0
  4 13  1  0  0  0  0
  5  9  2  0  0  0  0
  6  2  2  0  0  0  0
  7 10  1  0  0  0  0
  8  3  1  0  0  0  0
  9  2  1  0  0  0  0
  9 14  1  0  0  0  0
 10  5  1  0  0  0  0
 11 25  1  6  0  0  0
 11  1  1  0  0  0  0
 11  7  1  0  0  0  0
 12 13  1  0  0  0  0
 12  5  1  1  0  0  0
 13  6  1  1  0  0  0
 14 16  1  0  0  0  0
 14 15  2  0  0  0  0
 17  4  1  0  0  0  0
 18 17  1  0  0  0  0
 19 23  2  0  0  0  0
 19 24  1  0  0  0  0
 20 22  2  0  0  0  0
 21 18  1  0  0  0  0
 22 21  1  0  0  0  0
 23 20  1  0  0  0  0
 24 22  1  0  0  0  0
 26 25  1  0  0  0  0
 27 30  1  6  0  0  0
 27 26  1  0  0  0  0
 28 29  1  0  0  0  0
 29 27  1  0  0  0  0
 31 32  1  0  0  0  0
 33 34  1  0  0  0  0
 33 31  1  0  0  0  0
 34 35  1  0  0  0  0
 35 32  1  0  0  0  0
 35 30  1  0  0  0  0
M  END
>  <MODEL>
3

>  <REMARK>
 VINA RESULT:      -8.6      2.006      2.873
  Name = 
  10 active torsions:
  status: ('A' for Active; 'I' for Inactive)
    1  A    between atoms: C_1  and  C_26
    2  A    between atoms: C_5  and  C_25
    3  A    between atoms: C_5  and  C_29
    4  A    between atoms: N_6  and  C_11
    5  A    between atoms: N_6  and  N_19
    6  A    between atoms: C_9  and  C_29
    7  A    between atoms: C_9  and  N_30
    8  A    between atoms: O_16  and  C_29
    9  A    between atoms: N_18  and  N_19
   10  A    between atoms: C_25  and  C_31
                            x       y       z     vdW  Elec       q    Type
                         _______ _______ _______ _____ _____    ______ ____

>  <TORSDO>
F 10

$$$$
=
 OpenBabel10222419173D

 35 39  0  0  1  0  0  0  0  0999 V2000
  189.5090  177.8590  140.5590 C   0  0  1  0  0  3  0  0  0  0  0  0
  188.1780  177.4140  136.7050 C   0  0  0  0  0  3  0  0  0  0  0  0
  188.2970  178.0000  141.0930 C   0  0  0  0  0  0  0  0  0  0  0  0
  187.3690  178.3700  140.0190 C   0  0  0  0  0  0  0  0  0  0  0  0
  190.0040  177.0280  138.3220 C   0  0  0  0  0  0  0  0  0  0  0  0
  187.4860  178.1990  137.5430 C   0  0  0  0  0  3  0  0  0  0  0  0
  191.6440  176.8690  140.1080 O   0  0  0  0  0  0  0  0  0  0  0  0
  187.9070  177.4990  142.4430 C   0  0  0  0  0  1  0  0  0  0  0  0
  189.4400  176.7240  137.1210 C   0  0  0  0  0  0  0  0  0  0  0  0
  191.0980  176.2070  138.9790 C   0  0  0  0  0  2  0  0  0  0  0  0
  190.6420  177.0270  141.1020 C   0  0  1  0  0  3  0  0  0  0  0  0
  189.4940  178.2050  139.1150 C   0  0  1  0  0  3  0  0  0  0  0  0
  188.0430  178.4160  138.8800 C   0  0  2  0  0  3  0  0  0  0  0  0
  189.9690  175.6720  136.2180 C   0  0  0  0  0  0  0  0  0  0  0  0
  190.8860  175.9540  135.4020 O   0  0  0  0  0  0  0  0  0  0  0  0
  189.4930  174.3290  136.2770 N   0  0  0  0  0  1  0  0  0  0  0  0
  185.9390  178.3330  140.0890 N   0  0  0  0  0  2  0  0  0  0  0  0
  185.1800  179.4110  140.5750 N   0  0  0  0  0  2  0  0  0  0  0  0
  183.4700  178.9980  145.0420 C   0  0  0  0  0  3  0  0  0  0  0  0
  183.3220  178.8370  142.6790 N   0  0  0  0  0  0  0  0  0  0  0  0
  185.4710  179.5480  141.9440 N   0  0  0  0  0  2  0  0  0  0  0  0
  184.5010  179.2650  142.9550 C   0  0  0  0  0  0  0  0  0  0  0  0
  182.5460  178.6310  143.8860 C   0  0  0  0  0  3  0  0  0  0  0  0
  184.7760  179.4370  144.3950 C   0  0  0  0  0  2  0  0  0  0  0  0
  191.2500  177.7100  142.3160 C   0  0  0  0  0  2  0  0  0  0  0  0
  191.3310  176.7330  143.4750 C   0  0  0  0  0  2  0  0  0  0  0  0
  190.9940  177.4380  144.7790 C   0  0  2  0  0  3  0  0  0  0  0  0
  192.0610  175.9430  146.0240 C   0  0  0  0  0  1  0  0  0  0  0  0
  192.0550  177.2980  145.6790 O   0  0  0  0  0  0  0  0  0  0  0  0
  189.7390  176.8090  145.3640 C   0  0  0  0  0  2  0  0  0  0  0  0
  187.0000  177.9610  147.0700 C   0  0  0  0  0  2  0  0  0  0  0  0
  187.6520  177.5200  145.9090 O   0  0  0  0  0  0  0  0  0  0  0  0
  187.9460  177.7610  148.2180 C   0  0  0  0  0  2  0  0  0  0  0  0
  189.2500  177.5830  147.5140 C   0  0  0  0  0  2  0  0  0  0  0  0
  188.9730  177.8000  146.1050 N   0  0  0  0  0  0  0  0  0  0  0  0
  1  3  1  6  0  0  0
  1 11  1  0  0  0  0
  2  9  1  0  0  0  0
  2  6  2  0  0  0  0
  3  8  1  0  0  0  0
  4 17  1  0  0  0  0
  4  3  2  0  0  0  0
  5 10  1  0  0  0  0
  7 11  1  0  0  0  0
  9  5  2  0  0  0  0
 10  7  1  0  0  0  0
 11 25  1  1  0  0  0
 12  5  1  6  0  0  0
 12  1  1  0  0  0  0
 13  6  1  6  0  0  0
 13 12  1  0  0  0  0
 13  4  1  0  0  0  0
 14 16  1  0  0  0  0
 14  9  1  0  0  0  0
 15 14  2  0  0  0  0
 17 18  1  0  0  0  0
 18 21  1  0  0  0  0
 20 22  2  0  0  0  0
 20 23  1  0  0  0  0
 21 22  1  0  0  0  0
 22 24  1  0  0  0  0
 23 19  2  0  0  0  0
 24 19  1  0  0  0  0
 25 26  1  0  0  0  0
 27 26  1  6  0  0  0
 27 30  1  0  0  0  0
 27 29  1  0  0  0  0
 29 28  1  0  0  0  0
 30 35  1  0  0  0  0
 31 33  1  0  0  0  0
 32 35  1  0  0  0  0
 32 31  1  0  0  0  0
 34 33  1  0  0  0  0
 35 34  1  0  0  0  0
M  END
>  <MODEL>
4

>  <REMARK>
 VINA RESULT:      -8.5      1.972      7.277
  Name = 
  10 active torsions:
  status: ('A' for Active; 'I' for Inactive)
    1  A    between atoms: C_1  and  C_26
    2  A    between atoms: C_5  and  C_25
    3  A    between atoms: C_5  and  C_29
    4  A    between atoms: N_6  and  C_11
    5  A    between atoms: N_6  and  N_19
    6  A    between atoms: C_9  and  C_29
    7  A    between atoms: C_9  and  N_30
    8  A    between atoms: O_16  and  C_29
    9  A    between atoms: N_18  and  N_19
   10  A    between atoms: C_25  and  C_31
                            x       y       z     vdW  Elec       q    Type
                         _______ _______ _______ _____ _____    ______ ____

>  <TORSDO>
F 10

$$$$
=
 OpenBabel10222419173D

 35 39  0  0  1  0  0  0  0  0999 V2000
  188.1110  177.2590  142.8490 C   0  0  1  0  0  3  0  0  0  0  0  0
  186.9860  177.6990  146.7690 C   0  0  0  0  0  3  0  0  0  0  0  0
  187.1620  178.0530  142.3580 C   0  0  0  0  0  0  0  0  0  0  0  0
  186.1070  178.1790  143.3700 C   0  0  0  0  0  0  0  0  0  0  0  0
  188.7850  177.1040  145.1860 C   0  0  0  0  0  0  0  0  0  0  0  0
  186.0440  177.7430  145.8150 C   0  0  0  0  0  3  0  0  0  0  0  0
  190.3160  176.4980  143.3980 O   0  0  0  0  0  0  0  0  0  0  0  0
  187.3350  178.9390  141.1700 C   0  0  0  0  0  1  0  0  0  0  0  0
  188.4290  177.4600  146.4510 C   0  0  0  0  0  0  0  0  0  0  0  0
  190.2120  177.1180  144.6700 C   0  0  0  0  0  2  0  0  0  0  0  0
  189.5630  177.2330  142.4450 C   0  0  1  0  0  3  0  0  0  0  0  0
  187.7230  176.7330  144.1820 C   0  0  1  0  0  3  0  0  0  0  0  0
  186.4660  177.4810  144.4370 C   0  0  2  0  0  3  0  0  0  0  0  0
  189.4130  177.7060  147.5340 C   0  0  0  0  0  0  0  0  0  0  0  0
  189.1560  178.5540  148.4290 O   0  0  0  0  0  0  0  0  0  0  0  0
  190.6320  176.9710  147.6150 N   0  0  0  0  0  1  0  0  0  0  0  0
  185.0590  179.1550  143.3800 N   0  0  0  0  0  2  0  0  0  0  0  0
  183.7370  178.8430  143.0240 N   0  0  0  0  0  2  0  0  0  0  0  0
  183.5810  178.3950  138.2460 C   0  0  0  0  0  3  0  0  0  0  0  0
  183.5660  179.6290  140.2740 N   0  0  0  0  0  0  0  0  0  0  0  0
  183.7910  177.9460  141.9420 N   0  0  0  0  0  2  0  0  0  0  0  0
  183.6840  178.3890  140.5880 C   0  0  0  0  0  0  0  0  0  0  0  0
  183.4780  179.7980  138.8370 C   0  0  0  0  0  3  0  0  0  0  0  0
  183.7030  177.4600  139.4410 C   0  0  0  0  0  2  0  0  0  0  0  0
  189.7080  176.5740  141.0830 C   0  0  0  0  0  2  0  0  0  0  0  0
  190.9150  177.1430  140.3570 C   0  0  0  0  0  2  0  0  0  0  0  0
  190.6040  177.3140  138.8800 C   0  0  2  0  0  3  0  0  0  0  0  0
  188.8650  177.8970  137.6320 C   0  0  0  0  0  1  0  0  0  0  0  0
  189.6470  178.3200  138.7110 O   0  0  0  0  0  0  0  0  0  0  0  0
  190.0660  175.9980  138.3390 C   0  0  0  0  0  2  0  0  0  0  0  0
  191.6190  173.4650  136.6330 C   0  0  0  0  0  2  0  0  0  0  0  0
  190.6180  173.9720  137.4730 O   0  0  0  0  0  0  0  0  0  0  0  0
  192.4040  174.6350  136.1150 C   0  0  0  0  0  2  0  0  0  0  0  0
  192.0040  175.7170  137.0630 C   0  0  0  0  0  2  0  0  0  0  0  0
  191.1590  175.0790  138.0580 N   0  0  0  0  0  0  0  0  0  0  0  0
  1  3  1  1  0  0  0
  1 12  1  0  0  0  0
  3  4  2  0  0  0  0
  4 17  1  0  0  0  0
  4 13  1  0  0  0  0
  5  9  2  0  0  0  0
  6  2  2  0  0  0  0
  7 10  1  0  0  0  0
  8  3  1  0  0  0  0
  9  2  1  0  0  0  0
  9 14  1  0  0  0  0
 10  5  1  0  0  0  0
 11 25  1  6  0  0  0
 11  1  1  0  0  0  0
 11  7  1  0  0  0  0
 12 13  1  0  0  0  0
 12  5  1  1  0  0  0
 13  6  1  1  0  0  0
 14 16  1  0  0  0  0
 14 15  2  0  0  0  0
 18 17  1  0  0  0  0
 19 23  2  0  0  0  0
 19 24  1  0  0  0  0
 20 22  2  0  0  0  0
 21 18  1  0  0  0  0
 22 21  1  0  0  0  0
 23 20  1  0  0  0  0
 24 22  1  0  0  0  0
 26 25  1  0  0  0  0
 27 30  1  1  0  0  0
 27 26  1  0  0  0  0
 28 29  1  0  0  0  0
 29 27  1  0  0  0  0
 31 32  1  0  0  0  0
 32 35  1  0  0  0  0
 33 31  1  0  0  0  0
 33 34  1  0  0  0  0
 34 35  1  0  0  0  0
 35 30  1  0  0  0  0
M  END
>  <MODEL>
5

>  <REMARK>
 VINA RESULT:      -8.5      1.694      2.010
  Name = 
  10 active torsions:
  status: ('A' for Active; 'I' for Inactive)
    1  A    between atoms: C_1  and  C_26
    2  A    between atoms: C_5  and  C_25
    3  A    between atoms: C_5  and  C_29
    4  A    between atoms: N_6  and  C_11
    5  A    between atoms: N_6  and  N_19
    6  A    between atoms: C_9  and  C_29
    7  A    between atoms: C_9  and  N_30
    8  A    between atoms: O_16  and  C_29
    9  A    between atoms: N_18  and  N_19
   10  A    between atoms: C_25  and  C_31
                            x       y       z     vdW  Elec       q    Type
                         _______ _______ _______ _____ _____    ______ ____

>  <TORSDO>
F 10

$$$$
=
 OpenBabel10222419173D

 35 39  0  0  1  0  0  0  0  0999 V2000
  186.2570  178.5970  142.5130 C   0  0  1  0  0  3  0  0  0  0  0  0
  182.2050  178.9790  143.0270 C   0  0  0  0  0  3  0  0  0  0  0  0
  186.4730  177.9940  143.6810 C   0  0  0  0  0  0  0  0  0  0  0  0
  185.3230  178.2630  144.5500 C   0  0  0  0  0  0  0  0  0  0  0  0
  184.0910  178.9040  141.4360 C   0  0  0  0  0  0  0  0  0  0  0  0
  183.0030  179.0320  144.1040 C   0  0  0  0  0  3  0  0  0  0  0  0
  186.1450  178.8760  140.1360 O   0  0  0  0  0  0  0  0  0  0  0  0
  187.5040  176.9400  143.9060 C   0  0  0  0  0  1  0  0  0  0  0  0
  182.7490  178.8200  141.6420 C   0  0  0  0  0  0  0  0  0  0  0  0
  184.7830  178.4790  140.1540 C   0  0  0  0  0  2  0  0  0  0  0  0
  186.8490  178.2200  141.1800 C   0  0  1  0  0  3  0  0  0  0  0  0
  184.9940  179.3780  142.5470 C   0  0  1  0  0  3  0  0  0  0  0  0
  184.4490  178.9940  143.8750 C   0  0  2  0  0  3  0  0  0  0  0  0
  181.7800  178.4960  140.5650 C   0  0  0  0  0  0  0  0  0  0  0  0
  181.2420  179.4270  139.9100 O   0  0  0  0  0  0  0  0  0  0  0  0
  181.4720  177.1470  140.2200 N   0  0  0  0  0  1  0  0  0  0  0  0
  185.0070  177.5780  145.7670 N   0  0  0  0  0  2  0  0  0  0  0  0
  184.8120  178.2530  146.9830 N   0  0  0  0  0  2  0  0  0  0  0  0
  189.4670  177.8730  148.0940 C   0  0  0  0  0  3  0  0  0  0  0  0
  187.3290  177.0030  147.5410 N   0  0  0  0  0  0  0  0  0  0  0  0
  185.9960  178.9560  147.2700 N   0  0  0  0  0  2  0  0  0  0  0  0
  187.2230  178.2830  147.5590 C   0  0  0  0  0  0  0  0  0  0  0  0
  188.6780  176.5870  147.8680 C   0  0  0  0  0  3  0  0  0  0  0  0
  188.4670  179.0030  147.8960 C   0  0  0  0  0  2  0  0  0  0  0  0
  188.3110  178.6330  141.1280 C   0  0  0  0  0  2  0  0  0  0  0  0
  189.0380  177.8350  140.0610 C   0  0  0  0  0  2  0  0  0  0  0  0
  190.4610  177.5410  140.5050 C   0  0  2  0  0  3  0  0  0  0  0  0
  190.3260  177.0570  138.3440 C   0  0  0  0  0  1  0  0  0  0  0  0
  191.1790  176.9710  139.4490 O   0  0  0  0  0  0  0  0  0  0  0  0
  190.4170  176.5710  141.6760 C   0  0  0  0  0  2  0  0  0  0  0  0
  191.6800  178.4060  144.2800 C   0  0  0  0  0  2  0  0  0  0  0  0
  191.2570  178.2520  142.9520 O   0  0  0  0  0  0  0  0  0  0  0  0
  191.3390  177.1380  145.0080 C   0  0  0  0  0  2  0  0  0  0  0  0
  191.1000  176.1910  143.8790 C   0  0  0  0  0  2  0  0  0  0  0  0
  191.4210  176.9280  142.6690 N   0  0  0  0  0  0  0  0  0  0  0  0
  1 12  1  0  0  0  0
  1  3  1  1  0  0  0
  2  6  2  0  0  0  0
  3  8  1  0  0  0  0
  3  4  2  0  0  0  0
  4 17  1  0  0  0  0
  5  9  2  0  0  0  0
  7 10  1  0  0  0  0
  7 11  1  0  0  0  0
  9  2  1  0  0  0  0
 10  5  1  0  0  0  0
 11 25  1  1  0  0  0
 11  1  1  0  0  0  0
 12  5  1  6  0  0  0
 12 13  1  0  0  0  0
 13  6  1  6  0  0  0
 13  4  1  0  0  0  0
 14  9  1  0  0  0  0
 15 14  2  0  0  0  0
 16 14  1  0  0  0  0
 17 18  1  0  0  0  0
 18 21  1  0  0  0  0
 20 22  2  0  0  0  0
 20 23  1  0  0  0  0
 21 22  1  0  0  0  0
 22 24  1  0  0  0  0
 23 19  2  0  0  0  0
 24 19  1  0  0  0  0
 26 25  1  0  0  0  0
 27 26  1  6  0  0  0
 27 30  1  0  0  0  0
 28 29  1  0  0  0  0
 29 27  1  0  0  0  0
 30 35  1  0  0  0  0
 31 33  1  0  0  0  0
 32 31  1  0  0  0  0
 34 33  1  0  0  0  0
 35 32  1  0  0  0  0
 35 34  1  0  0  0  0
M  END
>  <MODEL>
6

>  <REMARK>
 VINA RESULT:      -8.4      2.630      6.533
  Name = 
  10 active torsions:
  status: ('A' for Active; 'I' for Inactive)
    1  A    between atoms: C_1  and  C_26
    2  A    between atoms: C_5  and  C_25
    3  A    between atoms: C_5  and  C_29
    4  A    between atoms: N_6  and  C_11
    5  A    between atoms: N_6  and  N_19
    6  A    between atoms: C_9  and  C_29
    7  A    between atoms: C_9  and  N_30
    8  A    between atoms: O_16  and  C_29
    9  A    between atoms: N_18  and  N_19
   10  A    between atoms: C_25  and  C_31
                            x       y       z     vdW  Elec       q    Type
                         _______ _______ _______ _____ _____    ______ ____

>  <TORSDO>
F 10

$$$$
=
 OpenBabel10222419173D

 35 39  0  0  1  0  0  0  0  0999 V2000
  186.3730  178.5630  142.5590 C   0  0  1  0  0  3  0  0  0  0  0  0
  182.9180  179.0490  144.7150 C   0  0  0  0  0  3  0  0  0  0  0  0
  187.0090  177.8680  143.5010 C   0  0  0  0  0  0  0  0  0  0  0  0
  186.3340  178.1130  144.7790 C   0  0  0  0  0  0  0  0  0  0  0  0
  183.9810  179.0240  142.4870 C   0  0  0  0  0  0  0  0  0  0  0  0
  184.0870  178.9940  145.3690 C   0  0  0  0  0  3  0  0  0  0  0  0
  185.3170  179.0190  140.4570 O   0  0  0  0  0  0  0  0  0  0  0  0
  187.9740  176.7630  143.2260 C   0  0  0  0  0  1  0  0  0  0  0  0
  182.8370  178.9730  143.2220 C   0  0  0  0  0  0  0  0  0  0  0  0
  184.0600  178.6710  141.0130 C   0  0  0  0  0  2  0  0  0  0  0  0
  186.3440  178.2640  141.0820 C   0  0  1  0  0  3  0  0  0  0  0  0
  185.2860  179.3820  143.1510 C   0  0  1  0  0  3  0  0  0  0  0  0
  185.3080  178.9220  144.5630 C   0  0  2  0  0  3  0  0  0  0  0  0
  181.4950  178.7640  142.6250 C   0  0  0  0  0  0  0  0  0  0  0  0
  181.3130  179.0010  141.4010 O   0  0  0  0  0  0  0  0  0  0  0  0
  180.4060  178.2550  143.3930 N   0  0  0  0  0  1  0  0  0  0  0  0
  186.5000  177.3510  145.9810 N   0  0  0  0  0  2  0  0  0  0  0  0
  187.1230  177.8750  147.1250 N   0  0  0  0  0  2  0  0  0  0  0  0
  191.6720  176.7130  146.1200 C   0  0  0  0  0  3  0  0  0  0  0  0
  189.6900  177.9920  145.8570 N   0  0  0  0  0  0  0  0  0  0  0  0
  188.2000  177.0290  147.4440 N   0  0  0  0  0  2  0  0  0  0  0  0
  189.4570  177.1170  146.7680 C   0  0  0  0  0  0  0  0  0  0  0  0
  191.0380  177.8610  145.3410 C   0  0  0  0  0  3  0  0  0  0  0  0
  190.5870  176.2150  147.0640 C   0  0  0  0  0  2  0  0  0  0  0  0
  187.6800  178.6270  140.4550 C   0  0  0  0  0  2  0  0  0  0  0  0
  187.7230  178.1520  139.0140 C   0  0  0  0  0  2  0  0  0  0  0  0
  189.1600  177.9000  138.5880 C   0  0  2  0  0  3  0  0  0  0  0  0
  188.0620  178.6300  136.8040 C   0  0  0  0  0  1  0  0  0  0  0  0
  189.3450  178.3300  137.2700 O   0  0  0  0  0  0  0  0  0  0  0  0
  189.4430  176.4080  138.6850 C   0  0  0  0  0  2  0  0  0  0  0  0
  192.6910  177.1320  139.5000 C   0  0  0  0  0  2  0  0  0  0  0  0
  191.6850  176.7580  138.5980 O   0  0  0  0  0  0  0  0  0  0  0  0
  192.0200  177.5030  140.7900 C   0  0  0  0  0  2  0  0  0  0  0  0
  190.6650  176.9000  140.6160 C   0  0  0  0  0  2  0  0  0  0  0  0
  190.7130  176.1760  139.3580 N   0  0  0  0  0  0  0  0  0  0  0  0
  1 12  1  0  0  0  0
  1  3  1  1  0  0  0
  2  6  2  0  0  0  0
  3  4  2  0  0  0  0
  4 17  1  0  0  0  0
  5  9  2  0  0  0  0
  7 10  1  0  0  0  0
  7 11  1  0  0  0  0
  8  3  1  0  0  0  0
  9  2  1  0  0  0  0
 10  5  1  0  0  0  0
 11 25  1  6  0  0  0
 11  1  1  0  0  0  0
 12  5  1  6  0  0  0
 12 13  1  0  0  0  0
 13  4  1  0  0  0  0
 13  6  1  6  0  0  0
 14  9  1  0  0  0  0
 14 16  1  0  0  0  0
 15 14  2  0  0  0  0
 17 18  1  0  0  0  0
 18 21  1  0  0  0  0
 19 24  1  0  0  0  0
 20 22  2  0  0  0  0
 22 24  1  0  0  0  0
 22 21  1  0  0  0  0
 23 20  1  0  0  0  0
 23 19  2  0  0  0  0
 26 25  1  0  0  0  0
 27 30  1  6  0  0  0
 27 26  1  0  0  0  0
 28 29  1  0  0  0  0
 29 27  1  0  0  0  0
 30 35  1  0  0  0  0
 31 33  1  0  0  0  0
 32 35  1  0  0  0  0
 32 31  1  0  0  0  0
 34 33  1  0  0  0  0
 35 34  1  0  0  0  0
M  END
>  <MODEL>
7

>  <REMARK>
 VINA RESULT:      -8.3      2.633      6.242
  Name = 
  10 active torsions:
  status: ('A' for Active; 'I' for Inactive)
    1  A    between atoms: C_1  and  C_26
    2  A    between atoms: C_5  and  C_25
    3  A    between atoms: C_5  and  C_29
    4  A    between atoms: N_6  and  C_11
    5  A    between atoms: N_6  and  N_19
    6  A    between atoms: C_9  and  C_29
    7  A    between atoms: C_9  and  N_30
    8  A    between atoms: O_16  and  C_29
    9  A    between atoms: N_18  and  N_19
   10  A    between atoms: C_25  and  C_31
                            x       y       z     vdW  Elec       q    Type
                         _______ _______ _______ _____ _____    ______ ____

>  <TORSDO>
F 10

$$$$
=
 OpenBabel10222419173D

 35 39  0  0  1  0  0  0  0  0999 V2000
  187.0930  178.3020  141.7430 C   0  0  1  0  0  3  0  0  0  0  0  0
  183.2660  178.7880  143.1380 C   0  0  0  0  0  3  0  0  0  0  0  0
  187.5400  177.6730  142.8280 C   0  0  0  0  0  0  0  0  0  0  0  0
  186.6180  177.9580  143.9320 C   0  0  0  0  0  0  0  0  0  0  0  0
  184.7550  178.6890  141.1710 C   0  0  0  0  0  0  0  0  0  0  0  0
  184.2810  178.8000  144.0130 C   0  0  0  0  0  3  0  0  0  0  0  0
  186.4720  178.6270  139.4510 O   0  0  0  0  0  0  0  0  0  0  0  0
  188.5620  176.5850  142.8100 C   0  0  0  0  0  1  0  0  0  0  0  0
  183.4880  178.6390  141.6650 C   0  0  0  0  0  0  0  0  0  0  0  0
  185.1360  178.2680  139.7630 C   0  0  0  0  0  2  0  0  0  0  0  0
  187.3660  177.9320  140.3080 C   0  0  1  0  0  3  0  0  0  0  0  0
  185.8930  179.1170  142.0620 C   0  0  1  0  0  3  0  0  0  0  0  0
  185.6400  178.7250  143.4730 C   0  0  2  0  0  3  0  0  0  0  0  0
  182.2980  178.3610  140.8230 C   0  0  0  0  0  0  0  0  0  0  0  0
  181.9690  177.1700  140.5810 O   0  0  0  0  0  0  0  0  0  0  0  0
  181.4830  179.4140  140.3130 N   0  0  0  0  0  1  0  0  0  0  0  0
  186.5530  177.2600  145.1810 N   0  0  0  0  0  2  0  0  0  0  0  0
  186.8610  177.8760  146.4050 N   0  0  0  0  0  2  0  0  0  0  0  0
  191.5280  176.7530  146.4710 C   0  0  0  0  0  3  0  0  0  0  0  0
  189.6300  177.9330  145.6720 N   0  0  0  0  0  0  0  0  0  0  0  0
  187.8580  177.1040  147.0270 N   0  0  0  0  0  2  0  0  0  0  0  0
  189.2240  177.1560  146.6120 C   0  0  0  0  0  0  0  0  0  0  0  0
  191.0560  177.7880  145.4550 C   0  0  0  0  0  3  0  0  0  0  0  0
  190.2780  176.3280  147.2290 C   0  0  0  0  0  2  0  0  0  0  0  0
  188.7940  178.3050  139.9420 C   0  0  0  0  0  2  0  0  0  0  0  0
  188.8860  178.6130  138.4580 C   0  0  0  0  0  2  0  0  0  0  0  0
  189.7970  177.6090  137.7710 C   0  0  2  0  0  3  0  0  0  0  0  0
  188.0620  177.3080  136.4210 C   0  0  0  0  0  1  0  0  0  0  0  0
  189.4470  177.5010  136.4210 O   0  0  0  0  0  0  0  0  0  0  0  0
  189.6370  176.2590  138.4520 C   0  0  0  0  0  2  0  0  0  0  0  0
  192.4550  174.5040  137.6050 C   0  0  0  0  0  2  0  0  0  0  0  0
  191.0780  174.6120  137.8460 O   0  0  0  0  0  0  0  0  0  0  0  0
  193.0270  175.8920  137.6510 C   0  0  0  0  0  2  0  0  0  0  0  0
  191.9390  176.6500  138.3360 C   0  0  0  0  0  2  0  0  0  0  0  0
  190.9400  175.6610  138.7060 N   0  0  0  0  0  0  0  0  0  0  0  0
  1 12  1  0  0  0  0
  1  3  1  1  0  0  0
  2  6  2  0  0  0  0
  3  4  2  0  0  0  0
  4 17  1  0  0  0  0
  5  9  2  0  0  0  0
  7 10  1  0  0  0  0
  7 11  1  0  0  0  0
  8  3  1  0  0  0  0
  9  2  1  0  0  0  0
 10  5  1  0  0  0  0
 11 25  1  6  0  0  0
 11  1  1  0  0  0  0
 12  5  1  6  0  0  0
 12 13  1  0  0  0  0
 13  4  1  0  0  0  0
 13  6  1  6  0  0  0
 14  9  1  0  0  0  0
 15 14  2  0  0  0  0
 16 14  1  0  0  0  0
 17 18  1  0  0  0  0
 18 21  1  0  0  0  0
 19 24  1  0  0  0  0
 20 22  2  0  0  0  0
 22 21  1  0  0  0  0
 22 24  1  0  0  0  0
 23 20  1  0  0  0  0
 23 19  2  0  0  0  0
 26 25  1  0  0  0  0
 27 30  1  1  0  0  0
 27 26  1  0  0  0  0
 28 29  1  0  0  0  0
 29 27  1  0  0  0  0
 30 35  1  0  0  0  0
 31 33  1  0  0  0  0
 31 32  1  0  0  0  0
 32 35  1  0  0  0  0
 33 34  1  0  0  0  0
 34 35  1  0  0  0  0
M  END
>  <MODEL>
8

>  <REMARK>
 VINA RESULT:      -8.2      2.715      6.076
  Name = 
  10 active torsions:
  status: ('A' for Active; 'I' for Inactive)
    1  A    between atoms: C_1  and  C_26
    2  A    between atoms: C_5  and  C_25
    3  A    between atoms: C_5  and  C_29
    4  A    between atoms: N_6  and  C_11
    5  A    between atoms: N_6  and  N_19
    6  A    between atoms: C_9  and  C_29
    7  A    between atoms: C_9  and  N_30
    8  A    between atoms: O_16  and  C_29
    9  A    between atoms: N_18  and  N_19
   10  A    between atoms: C_25  and  C_31
                            x       y       z     vdW  Elec       q    Type
                         _______ _______ _______ _____ _____    ______ ____

>  <TORSDO>
F 10

$$$$
=
 OpenBabel10222419173D

 35 39  0  0  1  0  0  0  0  0999 V2000
  184.6140  178.2760  142.5620 C   0  0  1  0  0  3  0  0  0  0  0  0
  181.1090  178.8590  140.5130 C   0  0  0  0  0  3  0  0  0  0  0  0
  185.4060  178.6820  141.5710 C   0  0  0  0  0  0  0  0  0  0  0  0
  184.6390  178.6180  140.3230 C   0  0  0  0  0  0  0  0  0  0  0  0
  182.2070  178.6290  142.7130 C   0  0  0  0  0  0  0  0  0  0  0  0
  182.2060  178.4990  139.8320 C   0  0  0  0  0  3  0  0  0  0  0  0
  183.5490  178.2810  144.7090 O   0  0  0  0  0  0  0  0  0  0  0  0
  186.6880  179.4190  141.7650 C   0  0  0  0  0  1  0  0  0  0  0  0
  181.1150  179.0210  142.0020 C   0  0  0  0  0  0  0  0  0  0  0  0
  182.4540  178.9990  144.1630 C   0  0  0  0  0  2  0  0  0  0  0  0
  184.7410  178.6300  144.0210 C   0  0  1  0  0  3  0  0  0  0  0  0
  183.2970  177.8340  142.0390 C   0  0  1  0  0  3  0  0  0  0  0  0
  183.4130  178.2010  140.6050 C   0  0  2  0  0  3  0  0  0  0  0  0
  179.9390  179.6850  142.6170 C   0  0  0  0  0  0  0  0  0  0  0  0
  179.7750  180.9250  142.4700 O   0  0  0  0  0  0  0  0  0  0  0  0
  178.9580  178.9440  143.3400 N   0  0  0  0  0  1  0  0  0  0  0  0
  184.9980  179.2310  139.0790 N   0  0  0  0  0  2  0  0  0  0  0  0
  185.6850  178.5390  138.0690 N   0  0  0  0  0  2  0  0  0  0  0  0
  189.9370  176.3240  137.8020 C   0  0  0  0  0  3  0  0  0  0  0  0
  187.6000  176.5050  137.4310 N   0  0  0  0  0  0  0  0  0  0  0  0
  187.0590  178.6300  138.3550 N   0  0  0  0  0  2  0  0  0  0  0  0
  187.9710  177.5780  138.0310 C   0  0  0  0  0  0  0  0  0  0  0  0
  188.7210  175.6090  137.2240 C   0  0  0  0  0  3  0  0  0  0  0  0
  189.4090  177.6410  138.3550 C   0  0  0  0  0  2  0  0  0  0  0  0
  185.9090  177.8760  144.6370 C   0  0  0  0  0  2  0  0  0  0  0  0
  186.2490  178.4630  145.9950 C   0  0  0  0  0  2  0  0  0  0  0  0
  187.3900  177.6870  146.6300 C   0  0  2  0  0  3  0  0  0  0  0  0
  188.1880  177.8830  148.6910 C   0  0  0  0  0  1  0  0  0  0  0  0
  188.1370  178.5340  147.4540 O   0  0  0  0  0  0  0  0  0  0  0  0
  188.2780  177.1340  145.5250 C   0  0  0  0  0  2  0  0  0  0  0  0
  191.6650  177.4360  145.1040 C   0  0  0  0  0  2  0  0  0  0  0  0
  190.5290  176.9830  145.7890 O   0  0  0  0  0  0  0  0  0  0  0  0
  191.1960  178.0540  143.8190 C   0  0  0  0  0  2  0  0  0  0  0  0
  189.7410  178.2560  144.0880 C   0  0  0  0  0  2  0  0  0  0  0  0
  189.5370  177.8640  145.4720 N   0  0  0  0  0  0  0  0  0  0  0  0
  1  3  1  6  0  0  0
  1 11  1  0  0  0  0
  2  9  1  0  0  0  0
  3  8  1  0  0  0  0
  4 13  1  0  0  0  0
  4  3  2  0  0  0  0
  5 10  1  0  0  0  0
  6  2  2  0  0  0  0
  9 14  1  0  0  0  0
  9  5  2  0  0  0  0
 10  7  1  0  0  0  0
 11 25  1  1  0  0  0
 11  7  1  0  0  0  0
 12  1  1  0  0  0  0
 12  5  1  1  0  0  0
 13  6  1  1  0  0  0
 13 12  1  0  0  0  0
 14 16  1  0  0  0  0
 15 14  2  0  0  0  0
 17  4  1  0  0  0  0
 18 21  1  0  0  0  0
 18 17  1  0  0  0  0
 19 24  1  0  0  0  0
 20 22  2  0  0  0  0
 22 24  1  0  0  0  0
 22 21  1  0  0  0  0
 23 20  1  0  0  0  0
 23 19  2  0  0  0  0
 25 26  1  0  0  0  0
 26 27  1  0  0  0  0
 27 30  1  6  0  0  0
 27 29  1  0  0  0  0
 29 28  1  0  0  0  0
 31 32  1  0  0  0  0
 33 34  1  0  0  0  0
 33 31  1  0  0  0  0
 34 35  1  0  0  0  0
 35 30  1  0  0  0  0
 35 32  1  0  0  0  0
M  END
>  <MODEL>
9

>  <REMARK>
 VINA RESULT:      -8.2      3.140      8.118
  Name = 
  10 active torsions:
  status: ('A' for Active; 'I' for Inactive)
    1  A    between atoms: C_1  and  C_26
    2  A    between atoms: C_5  and  C_25
    3  A    between atoms: C_5  and  C_29
    4  A    between atoms: N_6  and  C_11
    5  A    between atoms: N_6  and  N_19
    6  A    between atoms: C_9  and  C_29
    7  A    between atoms: C_9  and  N_30
    8  A    between atoms: O_16  and  C_29
    9  A    between atoms: N_18  and  N_19
   10  A    between atoms: C_25  and  C_31
                            x       y       z     vdW  Elec       q    Type
                         _______ _______ _______ _____ _____    ______ ____

>  <TORSDO>
F 10

$$$$
