=
 OpenBabel10222415543D

 70 75  0  0  1  0  0  0  0  0999 V2000
  188.2920  178.8820  140.2800 C   0  0  2  0  0  3  0  0  0  0  0  0
  189.3320  176.2360  140.9280 S   0  0  0  0  0  0  0  0  0  0  0  0
  189.2220  178.0140  141.1010 C   0  0  1  0  0  3  0  0  0  0  0  0
  191.0230  177.5610  142.5710 C   0  0  1  0  0  3  0  0  0  0  0  0
  190.9770  176.3090  141.7060 C   0  0  0  0  0  2  0  0  0  0  0  0
  190.1190  178.5550  141.9200 C   0  0  0  0  0  2  0  0  0  0  0  0
  191.1620  177.7250  145.0890 C   0  0  0  0  0  0  0  0  0  0  0  0
  190.5510  177.2370  143.9000 N   0  0  0  0  0  2  0  0  0  0  0  0
  192.0720  178.6000  145.0330 O   0  0  0  0  0  0  0  0  0  0  0  0
  191.6390  176.1120  146.9590 C   0  0  0  0  0  1  0  0  0  0  0  0
  190.7090  177.1770  146.4080 C   0  0  2  0  0  3  0  0  0  0  0  0
  189.2230  176.7910  146.4020 C   0  0  0  0  0  2  0  0  0  0  0  0
  188.2260  177.8680  146.8810 C   0  0  2  0  0  3  0  0  0  0  0  0
  188.4170  178.3890  148.1750 O   0  0  0  0  0  1  0  0  0  0  0  0
  185.8810  178.7790  147.1460 C   0  0  0  0  0  1  0  0  0  0  0  0
  186.7690  177.8170  146.3830 C   0  0  1  0  0  3  0  0  0  0  0  0
  186.5190  178.0020  144.8570 C   0  0  1  0  0  3  0  0  0  0  0  0
  187.1750  176.9140  143.9900 C   0  0  0  0  0  1  0  0  0  0  0  0
  185.1270  178.0290  144.6230 O   0  0  0  0  0  0  0  0  0  0  0  0
  185.2640  180.1700  143.7560 O   0  0  0  0  0  1  0  0  0  0  0  0
  184.9040  178.8480  143.4890 C   0  0  2  0  0  3  0  0  0  0  0  0
  183.4270  178.7810  143.0920 C   0  0  0  0  0  2  0  0  0  0  0  0
  182.9970  179.2520  145.5150 O   0  0  0  0  0  1  0  0  0  0  0  0
  181.3140  178.5080  144.1410 O   0  0  0  0  0  0  0  0  0  0  0  0
  182.5300  178.8170  144.2830 C   0  0  0  0  0  0  0  0  0  0  0  0
  185.8580  179.0040  139.8820 C   0  0  0  0  0  3  0  0  0  0  0  0
  186.9460  178.3210  140.0860 N   0  0  0  0  0  0  0  0  0  0  0  0
  180.5820  174.9980  139.4050 C   0  0  0  0  0  0  0  0  0  0  0  0
  181.5990  174.8700  138.3460 C   0  0  0  0  0  0  0  0  0  0  0  0
  181.3780  177.3210  139.7870 C   0  0  2  0  0  3  0  0  0  0  0  0
  183.3310  175.1400  136.1530 C   0  0  0  0  0  3  0  0  0  0  0  0
  184.5490  177.3710  137.3760 S   0  0  0  0  0  0  0  0  0  0  0  0
  184.4960  178.4320  139.9640 C   0  0  0  0  0  2  0  0  0  0  0  0
  182.6670  175.7680  138.3750 C   0  0  0  0  0  0  0  0  0  0  0  0
  182.3060  174.1720  136.1350 C   0  0  0  0  0  3  0  0  0  0  0  0
  181.4380  174.0310  137.2330 C   0  0  0  0  0  3  0  0  0  0  0  0
  182.7830  176.7840  139.4600 C   0  0  1  0  0  3  0  0  0  0  0  0
  179.8290  174.0420  139.7070 O   0  0  0  0  0  0  0  0  0  0  0  0
  183.8440  177.7400  139.0110 C   0  0  2  0  0  3  0  0  0  0  0  0
  180.5590  176.1910  140.1720 O   0  0  0  0  0  0  0  0  0  0  0  0
  183.5070  175.9300  137.2890 C   0  0  0  0  0  0  0  0  0  0  0  0
  180.8240  177.9300  138.6480 O   0  0  0  0  0  0  0  0  0  0  0  0
  180.3060  179.1590  139.0640 C   0  0  1  0  0  3  0  0  0  0  0  0
  180.9950  179.5450  140.3710 C   0  0  0  0  0  2  0  0  0  0  0  0
  179.9740  180.0630  141.3810 C   0  0  0  0  0  2  0  0  0  0  0  0
  178.9360  178.9920  141.6470 C   0  0  0  0  0  1  0  0  0  0  0  0
  180.5500  180.1180  138.0800 O   0  0  0  0  0  0  0  0  0  0  0  0
  180.8490  181.3090  138.7560 C   0  0  0  0  0  2  0  0  0  0  0  0
  180.2210  182.9290  137.1020 O   0  0  0  0  0  1  0  0  0  0  0  0
  179.8650  182.3880  138.3410 C   0  0  0  0  0  2  0  0  0  0  0  0
  188.8790  179.1630  138.9540 N   0  0  0  0  0  2  0  0  0  0  0  0
  189.6970  177.3090  137.7550 O   0  0  0  0  0  0  0  0  0  0  0  0
  188.4020  177.5570  135.7790 C   0  0  0  0  0  2  0  0  0  0  0  0
  188.5520  178.0620  138.0400 C   0  0  2  0  0  3  0  0  0  0  0  0
  189.6930  177.0730  136.3700 C   0  0  2  0  0  3  0  0  0  0  0  0
  187.9940  178.6050  136.7450 C   0  0  0  0  0  2  0  0  0  0  0  0
  189.9570  175.6000  136.1240 C   0  0  0  0  0  2  0  0  0  0  0  0
  191.3610  175.3090  135.9990 N   0  0  0  0  0  0  0  0  0  0  0  0
  191.9260  174.3680  136.6720 C   0  0  0  0  0  3  0  0  0  0  0  0
  195.7350  172.6520  137.6870 C   0  0  2  0  0  3  0  0  0  0  0  0
  195.0160  172.2140  136.4090 C   0  0  2  0  0  3  0  0  0  0  0  0
  194.0120  175.9030  137.9160 O   0  0  0  0  0  0  0  0  0  0  0  0
  193.5500  172.5700  136.4640 C   0  0  0  0  0  2  0  0  0  0  0  0
  193.3810  174.0840  136.4850 C   0  0  2  0  0  3  0  0  0  0  0  0
  195.3180  173.9850  138.1630 N   0  0  0  0  0  0  0  0  0  0  0  0
  195.8950  174.4970  139.3980 C   0  0  0  0  0  1  0  0  0  0  0  0
  194.2230  174.7090  137.5640 C   0  0  0  0  0  0  0  0  0  0  0  0
  195.1560  170.8300  136.2290 O   0  0  0  0  0  1  0  0  0  0  0  0
  197.5710  173.4740  136.3790 O   0  0  0  0  0  1  0  0  0  0  0  0
  197.2400  172.6200  137.4400 C   0  0  0  0  0  2  0  0  0  0  0  0
  1 51  1  6  0  0  0
  2  3  1  0  0  0  0
  2  5  1  0  0  0  0
  3  1  1  6  0  0  0
  3  6  1  0  0  0  0
  4  8  1  1  0  0  0
  5  4  1  0  0  0  0
  6  4  1  0  0  0  0
  7 11  1  0  0  0  0
  8  7  1  0  0  0  0
  9  7  2  0  0  0  0
 11 10  1  6  0  0  0
 12 11  1  0  0  0  0
 12 13  1  0  0  0  0
 13 14  1  1  0  0  0
 16 13  1  0  0  0  0
 16 15  1  1  0  0  0
 17 18  1  6  0  0  0
 17 16  1  0  0  0  0
 19 17  1  0  0  0  0
 21 20  1  1  0  0  0
 21 19  1  0  0  0  0
 22 21  1  0  0  0  0
 22 25  1  0  0  0  0
 24 25  2  0  0  0  0
 25 23  1  0  0  0  0
 26 33  1  0  0  0  0
 26 27  2  0  0  0  0
 27  1  1  0  0  0  0
 28 38  2  0  0  0  0
 28 40  1  0  0  0  0
 29 34  1  0  0  0  0
 29 28  1  0  0  0  0
 30 42  1  6  0  0  0
 30 40  1  0  0  0  0
 31 41  1  0  0  0  0
 32 39  1  0  0  0  0
 35 31  2  0  0  0  0
 35 36  1  0  0  0  0
 36 29  2  0  0  0  0
 37 34  1  6  0  0  0
 37 30  1  0  0  0  0
 39 37  1  0  0  0  0
 39 33  1  1  0  0  0
 41 32  1  0  0  0  0
 41 34  2  0  0  0  0
 42 43  1  0  0  0  0
 43 44  1  1  0  0  0
 44 45  1  0  0  0  0
 45 46  1  0  0  0  0
 47 48  1  0  0  0  0
 47 43  1  0  0  0  0
 49 50  1  0  0  0  0
 50 48  1  0  0  0  0
 52 54  1  0  0  0  0
 53 55  1  0  0  0  0
 53 56  1  0  0  0  0
 54 51  1  1  0  0  0
 55 57  1  1  0  0  0
 55 52  1  0  0  0  0
 56 54  1  0  0  0  0
 58 57  1  0  0  0  0
 58 59  2  0  0  0  0
 60 70  1  6  0  0  0
 60 65  1  0  0  0  0
 61 68  1  1  0  0  0
 61 63  1  0  0  0  0
 61 60  1  0  0  0  0
 63 64  1  0  0  0  0
 64 59  1  1  0  0  0
 64 67  1  0  0  0  0
 65 66  1  0  0  0  0
 67 62  2  0  0  0  0
 67 65  1  0  0  0  0
 69 70  1  0  0  0  0
M  END
>  <MODEL>
1

>  <REMARK>
 VINA RESULT:      -6.5      0.000      0.000
  Name = 
  26 active torsions:
  status: ('A' for Active; 'I' for Inactive)
    1  A    between atoms: C_1  and  C_28
    2  A    between atoms: C_1  and  C_69
    3  A    between atoms: C_2  and  O_10
    4  A    between atoms: C_2  and  C_39
    5  A    between atoms: C_2  and  O_59
    6  A    between atoms: N_4  and  C_18
    7  A    between atoms: C_6  and  C_39
    8  A    between atoms: O_10  and  C_29
    9  A    between atoms: C_11  and  C_29
   10  A    between atoms: C_12  and  O_24
   11  A    between atoms: C_12  and  C_28
   12  A    between atoms: C_13  and  C_67
   13  A    between atoms: C_15  and  C_35
   14  A    between atoms: N_16  and  C_44
   15  A    between atoms: N_16  and  C_54
   16  A    between atoms: C_17  and  C_26
   17  A    between atoms: C_18  and  C_47
   18  A    between atoms: C_20  and  O_59
   19  A    between atoms: O_24  and  C_65
   20  A    between atoms: C_26  and  C_69
   21  A    between atoms: N_30  and  C_54
   22  A    between atoms: C_31  and  C_54
   23  A    between atoms: C_37  and  N_55
   24  A    between atoms: C_38  and  C_49
   25  A    between atoms: C_38  and  C_65
   26  A    between atoms: C_48  and  C_64
                            x       y       z     vdW  Elec       q    Type
                         _______ _______ _______ _____ _____    ______ ____

>  <TORSDO>
F 26

$$$$
=
 OpenBabel10222415543D

 70 75  0  0  1  0  0  0  0  0999 V2000
  188.1950  178.8870  140.2320 C   0  0  2  0  0  3  0  0  0  0  0  0
  189.1980  176.2490  140.9640 S   0  0  0  0  0  0  0  0  0  0  0  0
  189.0480  178.0230  141.1380 C   0  0  1  0  0  3  0  0  0  0  0  0
  190.6950  177.5810  142.7810 C   0  0  1  0  0  3  0  0  0  0  0  0
  190.7540  176.3350  141.9070 C   0  0  0  0  0  2  0  0  0  0  0  0
  189.8500  178.5680  142.0480 C   0  0  0  0  0  2  0  0  0  0  0  0
  190.2200  178.0430  145.2190 C   0  0  0  0  0  0  0  0  0  0  0  0
  190.0940  177.2390  144.0530 N   0  0  0  0  0  2  0  0  0  0  0  0
  190.7490  179.1890  145.1580 O   0  0  0  0  0  0  0  0  0  0  0  0
  190.6810  176.5260  147.1710 C   0  0  0  0  0  1  0  0  0  0  0  0
  189.7180  177.5020  146.5240 C   0  0  2  0  0  3  0  0  0  0  0  0
  188.2670  177.0080  146.4320 C   0  0  0  0  0  2  0  0  0  0  0  0
  187.1610  178.0610  146.6630 C   0  0  2  0  0  3  0  0  0  0  0  0
  187.2060  178.7830  147.8710 O   0  0  0  0  0  1  0  0  0  0  0  0
  184.6650  178.1940  147.0530 C   0  0  0  0  0  1  0  0  0  0  0  0
  185.7590  177.8180  146.0740 C   0  0  1  0  0  3  0  0  0  0  0  0
  185.4360  178.4530  144.6890 C   0  0  1  0  0  3  0  0  0  0  0  0
  186.2430  177.8430  143.5300 C   0  0  0  0  0  1  0  0  0  0  0  0
  184.0530  178.3180  144.4360 O   0  0  0  0  0  0  0  0  0  0  0  0
  183.4040  180.4930  143.9910 O   0  0  0  0  0  1  0  0  0  0  0  0
  183.7140  179.2540  143.4290 C   0  0  2  0  0  3  0  0  0  0  0  0
  182.5170  178.7320  142.6290 C   0  0  0  0  0  2  0  0  0  0  0  0
  180.5560  180.2670  142.8980 O   0  0  0  0  0  0  0  0  0  0  0  0
  180.6960  178.3130  144.0950 O   0  0  0  0  0  1  0  0  0  0  0  0
  181.2200  179.1060  143.2630 C   0  0  0  0  0  0  0  0  0  0  0  0
  185.7620  178.9890  139.8200 C   0  0  0  0  0  3  0  0  0  0  0  0
  186.8740  178.3210  139.9160 N   0  0  0  0  0  0  0  0  0  0  0  0
  180.7300  174.7540  138.8980 C   0  0  0  0  0  0  0  0  0  0  0  0
  181.8590  174.6450  137.9560 C   0  0  0  0  0  0  0  0  0  0  0  0
  181.3880  177.1160  139.2980 C   0  0  2  0  0  3  0  0  0  0  0  0
  183.8040  174.9370  135.9530 C   0  0  0  0  0  3  0  0  0  0  0  0
  184.7950  177.2450  137.2360 S   0  0  0  0  0  0  0  0  0  0  0  0
  184.4230  178.3620  139.7730 C   0  0  0  0  0  2  0  0  0  0  0  0
  182.8810  175.5880  138.0730 C   0  0  0  0  0  0  0  0  0  0  0  0
  182.8250  173.9260  135.8520 C   0  0  0  0  0  3  0  0  0  0  0  0
  181.8520  173.7740  136.8560 C   0  0  0  0  0  3  0  0  0  0  0  0
  182.8400  176.6320  139.1360 C   0  0  1  0  0  3  0  0  0  0  0  0
  179.9880  173.7740  139.1440 O   0  0  0  0  0  0  0  0  0  0  0  0
  183.9050  177.6210  138.7760 C   0  0  2  0  0  3  0  0  0  0  0  0
  180.5780  175.9630  139.6250 O   0  0  0  0  0  0  0  0  0  0  0  0
  183.8260  175.7600  137.0790 C   0  0  0  0  0  0  0  0  0  0  0  0
  180.9360  177.6750  138.0890 O   0  0  0  0  0  0  0  0  0  0  0  0
  179.8110  178.4440  138.4020 C   0  0  1  0  0  3  0  0  0  0  0  0
  180.2640  179.6120  139.2740 C   0  0  0  0  0  2  0  0  0  0  0  0
  180.0690  180.9350  138.5390 C   0  0  0  0  0  2  0  0  0  0  0  0
  181.4150  181.4790  138.1060 C   0  0  0  0  0  1  0  0  0  0  0  0
  179.2320  178.9110  137.2210 O   0  0  0  0  0  0  0  0  0  0  0  0
  179.9080  178.2750  136.1710 C   0  0  0  0  0  2  0  0  0  0  0  0
  179.1870  176.0600  135.6000 O   0  0  0  0  0  1  0  0  0  0  0  0
  178.9330  177.4180  135.3850 C   0  0  0  0  0  2  0  0  0  0  0  0
  188.9010  179.1660  138.9660 N   0  0  0  0  0  2  0  0  0  0  0  0
  190.0800  177.3910  137.9640 O   0  0  0  0  0  0  0  0  0  0  0  0
  188.9590  177.3510  135.8690 C   0  0  0  0  0  2  0  0  0  0  0  0
  188.8190  177.9850  138.0970 C   0  0  2  0  0  3  0  0  0  0  0  0
  190.2420  177.0880  136.6010 C   0  0  2  0  0  3  0  0  0  0  0  0
  188.3190  178.3770  136.7270 C   0  0  0  0  0  2  0  0  0  0  0  0
  190.7290  175.6570  136.4740 C   0  0  0  0  0  2  0  0  0  0  0  0
  192.1180  175.5190  136.8230 N   0  0  0  0  0  0  0  0  0  0  0  0
  192.8290  174.5250  136.4170 C   0  0  0  0  0  3  0  0  0  0  0  0
  197.0440  174.2190  135.6300 C   0  0  2  0  0  3  0  0  0  0  0  0
  196.4810  175.4790  136.2880 C   0  0  2  0  0  3  0  0  0  0  0  0
  194.2560  172.0450  136.6750 O   0  0  0  0  0  0  0  0  0  0  0  0
  194.9900  175.5840  136.0690 C   0  0  0  0  0  2  0  0  0  0  0  0
  194.2770  174.4420  136.7800 C   0  0  2  0  0  3  0  0  0  0  0  0
  196.1880  173.0320  135.8130 N   0  0  0  0  0  0  0  0  0  0  0  0
  196.5900  171.7770  135.1920 C   0  0  0  0  0  1  0  0  0  0  0  0
  194.8770  173.1120  136.4110 C   0  0  0  0  0  0  0  0  0  0  0  0
  197.1120  176.6170  135.7680 O   0  0  0  0  0  1  0  0  0  0  0  0
  198.5850  174.5700  137.4350 O   0  0  0  0  0  1  0  0  0  0  0  0
  198.4420  173.9580  136.1820 C   0  0  0  0  0  2  0  0  0  0  0  0
  1 51  1  6  0  0  0
  2  3  1  0  0  0  0
  2  5  1  0  0  0  0
  3  1  1  6  0  0  0
  3  6  1  0  0  0  0
  4  8  1  1  0  0  0
  5  4  1  0  0  0  0
  6  4  1  0  0  0  0
  7 11  1  0  0  0  0
  8  7  1  0  0  0  0
  9  7  2  0  0  0  0
 11 10  1  6  0  0  0
 12 11  1  0  0  0  0
 12 13  1  0  0  0  0
 13 14  1  1  0  0  0
 16 13  1  0  0  0  0
 16 15  1  1  0  0  0
 17 18  1  6  0  0  0
 17 16  1  0  0  0  0
 19 17  1  0  0  0  0
 21 20  1  1  0  0  0
 21 19  1  0  0  0  0
 22 25  1  0  0  0  0
 22 21  1  0  0  0  0
 23 25  2  0  0  0  0
 25 24  1  0  0  0  0
 26 27  2  0  0  0  0
 27  1  1  0  0  0  0
 28 38  2  0  0  0  0
 28 40  1  0  0  0  0
 29 34  1  0  0  0  0
 29 28  1  0  0  0  0
 30 42  1  6  0  0  0
 30 40  1  0  0  0  0
 31 41  1  0  0  0  0
 32 39  1  0  0  0  0
 33 26  1  0  0  0  0
 35 31  2  0  0  0  0
 35 36  1  0  0  0  0
 36 29  2  0  0  0  0
 37 34  1  6  0  0  0
 37 30  1  0  0  0  0
 39 37  1  0  0  0  0
 39 33  1  1  0  0  0
 41 32  1  0  0  0  0
 41 34  2  0  0  0  0
 42 43  1  0  0  0  0
 43 44  1  1  0  0  0
 45 44  1  0  0  0  0
 46 45  1  0  0  0  0
 47 43  1  0  0  0  0
 48 47  1  0  0  0  0
 50 49  1  0  0  0  0
 50 48  1  0  0  0  0
 52 54  1  0  0  0  0
 53 55  1  0  0  0  0
 53 56  1  0  0  0  0
 54 51  1  1  0  0  0
 55 57  1  1  0  0  0
 55 52  1  0  0  0  0
 56 54  1  0  0  0  0
 57 58  1  0  0  0  0
 59 58  2  0  0  0  0
 60 65  1  0  0  0  0
 60 70  1  1  0  0  0
 60 61  1  0  0  0  0
 61 68  1  6  0  0  0
 63 61  1  0  0  0  0
 63 64  1  0  0  0  0
 64 59  1  6  0  0  0
 65 67  1  0  0  0  0
 66 65  1  0  0  0  0
 67 62  2  0  0  0  0
 67 64  1  0  0  0  0
 70 69  1  0  0  0  0
M  END
>  <MODEL>
2

>  <REMARK>
 VINA RESULT:      -6.1      1.404      2.150
  Name = 
  26 active torsions:
  status: ('A' for Active; 'I' for Inactive)
    1  A    between atoms: C_1  and  C_28
    2  A    between atoms: C_1  and  C_69
    3  A    between atoms: C_2  and  O_10
    4  A    between atoms: C_2  and  C_39
    5  A    between atoms: C_2  and  O_59
    6  A    between atoms: N_4  and  C_18
    7  A    between atoms: C_6  and  C_39
    8  A    between atoms: O_10  and  C_29
    9  A    between atoms: C_11  and  C_29
   10  A    between atoms: C_12  and  O_24
   11  A    between atoms: C_12  and  C_28
   12  A    between atoms: C_13  and  C_67
   13  A    between atoms: C_15  and  C_35
   14  A    between atoms: N_16  and  C_44
   15  A    between atoms: N_16  and  C_54
   16  A    between atoms: C_17  and  C_26
   17  A    between atoms: C_18  and  C_47
   18  A    between atoms: C_20  and  O_59
   19  A    between atoms: O_24  and  C_65
   20  A    between atoms: C_26  and  C_69
   21  A    between atoms: N_30  and  C_54
   22  A    between atoms: C_31  and  C_54
   23  A    between atoms: C_37  and  N_55
   24  A    between atoms: C_38  and  C_49
   25  A    between atoms: C_38  and  C_65
   26  A    between atoms: C_48  and  C_64
                            x       y       z     vdW  Elec       q    Type
                         _______ _______ _______ _____ _____    ______ ____

>  <TORSDO>
F 26

$$$$
=
 OpenBabel10222415543D

 70 75  0  0  1  0  0  0  0  0999 V2000
  184.5250  177.0920  136.1520 C   0  0  2  0  0  3  0  0  0  0  0  0
  184.0030  174.6110  134.7130 S   0  0  0  0  0  0  0  0  0  0  0  0
  184.0830  175.6440  136.1710 C   0  0  1  0  0  3  0  0  0  0  0  0
  183.5250  173.5660  137.1620 C   0  0  1  0  0  3  0  0  0  0  0  0
  184.0670  173.1510  135.8000 C   0  0  0  0  0  2  0  0  0  0  0  0
  183.8500  175.0140  137.3190 C   0  0  0  0  0  2  0  0  0  0  0  0
  181.4870  172.0730  137.1320 C   0  0  0  0  0  0  0  0  0  0  0  0
  182.0930  173.3590  137.1840 N   0  0  0  0  0  2  0  0  0  0  0  0
  182.1890  171.0260  137.2130 O   0  0  0  0  0  0  0  0  0  0  0  0
  179.5610  171.9230  135.5210 C   0  0  0  0  0  1  0  0  0  0  0  0
  179.9990  171.9850  136.9720 C   0  0  2  0  0  3  0  0  0  0  0  0
  179.2570  173.0250  137.8230 C   0  0  0  0  0  2  0  0  0  0  0  0
  179.1080  174.4370  137.2170 C   0  0  2  0  0  3  0  0  0  0  0  0
  179.4390  174.5890  135.8570 O   0  0  0  0  0  1  0  0  0  0  0  0
  180.3040  175.3560  139.2480 C   0  0  0  0  0  1  0  0  0  0  0  0
  179.3500  175.6670  138.1120 C   0  0  1  0  0  3  0  0  0  0  0  0
  179.8030  176.9870  137.4200 C   0  0  1  0  0  3  0  0  0  0  0  0
  178.9310  177.3800  136.2150 C   0  0  0  0  0  1  0  0  0  0  0  0
  179.7990  178.0280  138.3750 O   0  0  0  0  0  0  0  0  0  0  0  0
  180.8460  179.1110  136.6190 O   0  0  0  0  0  1  0  0  0  0  0  0
  179.9390  179.2480  137.6710 C   0  0  2  0  0  3  0  0  0  0  0  0
  180.4190  180.3400  138.6320 C   0  0  0  0  0  2  0  0  0  0  0  0
  180.5740  181.9390  136.7100 O   0  0  0  0  0  0  0  0  0  0  0  0
  182.0810  182.0260  138.4400 O   0  0  0  0  0  1  0  0  0  0  0  0
  181.0820  181.4630  137.9090 C   0  0  0  0  0  0  0  0  0  0  0  0
  186.9740  177.3010  135.9060 C   0  0  0  0  0  3  0  0  0  0  0  0
  185.8960  177.3180  136.6350 N   0  0  0  0  0  0  0  0  0  0  0  0
  193.3640  175.8740  137.0180 C   0  0  0  0  0  0  0  0  0  0  0  0
  192.5400  174.7900  136.4540 C   0  0  0  0  0  0  0  0  0  0  0  0
  191.2850  176.8750  137.9410 C   0  0  2  0  0  3  0  0  0  0  0  0
  190.7350  172.7110  135.9080 C   0  0  0  0  0  3  0  0  0  0  0  0
  188.5680  174.4770  136.2840 S   0  0  0  0  0  0  0  0  0  0  0  0
  188.3450  177.2600  136.4590 C   0  0  0  0  0  2  0  0  0  0  0  0
  191.1750  175.0390  136.3020 C   0  0  0  0  0  0  0  0  0  0  0  0
  192.1190  172.4510  135.9800 C   0  0  0  0  0  3  0  0  0  0  0  0
  193.0270  173.4910  136.2490 C   0  0  0  0  0  3  0  0  0  0  0  0
  190.5940  176.3640  136.6630 C   0  0  1  0  0  3  0  0  0  0  0  0
  194.6030  175.9160  136.8340 O   0  0  0  0  0  0  0  0  0  0  0  0
  189.1100  176.1720  136.6630 C   0  0  2  0  0  3  0  0  0  0  0  0
  192.7050  176.9490  137.6680 O   0  0  0  0  0  0  0  0  0  0  0  0
  190.2740  174.0180  136.0640 C   0  0  0  0  0  0  0  0  0  0  0  0
  191.0610  175.9740  138.9960 O   0  0  0  0  0  0  0  0  0  0  0  0
  190.5980  176.7310  140.0760 C   0  0  1  0  0  3  0  0  0  0  0  0
  191.7960  177.0890  140.9520 C   0  0  0  0  0  2  0  0  0  0  0  0
  191.4590  176.8850  142.4260 C   0  0  0  0  0  2  0  0  0  0  0  0
  191.4450  178.2250  143.1330 C   0  0  0  0  0  1  0  0  0  0  0  0
  189.9810  177.8870  139.5950 O   0  0  0  0  0  0  0  0  0  0  0  0
  188.6720  177.8730  140.0930 C   0  0  0  0  0  2  0  0  0  0  0  0
  187.1980  179.3970  141.2140 O   0  0  0  0  0  1  0  0  0  0  0  0
  188.5200  178.9480  141.1530 C   0  0  0  0  0  2  0  0  0  0  0  0
  183.6040  177.9270  136.9490 N   0  0  0  0  0  2  0  0  0  0  0  0
  182.9120  177.6760  139.1850 O   0  0  0  0  0  0  0  0  0  0  0  0
  184.3500  179.2780  140.1900 C   0  0  0  0  0  2  0  0  0  0  0  0
  184.0190  177.8940  138.3570 C   0  0  2  0  0  3  0  0  0  0  0  0
  183.0260  178.5770  140.2590 C   0  0  2  0  0  3  0  0  0  0  0  0
  184.6650  179.2030  138.7430 C   0  0  0  0  0  2  0  0  0  0  0  0
  182.8070  177.8210  141.5560 C   0  0  0  0  0  2  0  0  0  0  0  0
  183.7160  178.2390  142.5910 N   0  0  0  0  0  0  0  0  0  0  0  0
  184.9290  177.8120  142.6480 C   0  0  0  0  0  3  0  0  0  0  0  0
  187.0080  177.5950  146.4050 C   0  0  2  0  0  3  0  0  0  0  0  0
  187.7980  177.6060  145.0950 C   0  0  2  0  0  3  0  0  0  0  0  0
  184.0200  179.2210  144.9810 O   0  0  0  0  0  0  0  0  0  0  0  0
  186.9140  177.2350  143.9270 C   0  0  0  0  0  2  0  0  0  0  0  0
  185.8440  178.2990  143.7240 C   0  0  2  0  0  3  0  0  0  0  0  0
  185.6630  178.1910  146.2800 N   0  0  0  0  0  0  0  0  0  0  0  0
  184.7920  178.1990  147.4470 C   0  0  0  0  0  1  0  0  0  0  0  0
  185.1100  178.5830  145.0070 C   0  0  0  0  0  0  0  0  0  0  0  0
  188.8710  176.7070  145.1740 O   0  0  0  0  0  1  0  0  0  0  0  0
  188.0350  177.4800  148.5700 O   0  0  0  0  0  1  0  0  0  0  0  0
  187.8170  178.3250  147.4730 C   0  0  0  0  0  2  0  0  0  0  0  0
  1 27  1  1  0  0  0
  1 51  1  0  0  0  0
  2  5  1  0  0  0  0
  2  3  1  0  0  0  0
  3  1  1  1  0  0  0
  3  6  1  0  0  0  0
  4  8  1  6  0  0  0
  4  6  1  0  0  0  0
  5  4  1  0  0  0  0
  7  8  1  0  0  0  0
  7  9  2  0  0  0  0
 11 10  1  6  0  0  0
 11  7  1  0  0  0  0
 11 12  1  0  0  0  0
 13 14  1  6  0  0  0
 13 12  1  0  0  0  0
 13 16  1  0  0  0  0
 16 15  1  1  0  0  0
 17 18  1  6  0  0  0
 17 16  1  0  0  0  0
 17 19  1  0  0  0  0
 21 20  1  6  0  0  0
 21 19  1  0  0  0  0
 21 22  1  0  0  0  0
 23 25  2  0  0  0  0
 25 24  1  0  0  0  0
 25 22  1  0  0  0  0
 26 33  1  0  0  0  0
 26 27  2  0  0  0  0
 28 40  1  0  0  0  0
 29 28  1  0  0  0  0
 30 42  1  1  0  0  0
 31 35  2  0  0  0  0
 31 41  1  0  0  0  0
 32 39  1  0  0  0  0
 34 29  1  0  0  0  0
 35 36  1  0  0  0  0
 36 29  2  0  0  0  0
 37 34  1  1  0  0  0
 37 30  1  0  0  0  0
 38 28  2  0  0  0  0
 39 33  1  6  0  0  0
 39 37  1  0  0  0  0
 40 30  1  0  0  0  0
 41 32  1  0  0  0  0
 41 34  2  0  0  0  0
 42 43  1  0  0  0  0
 43 44  1  1  0  0  0
 44 45  1  0  0  0  0
 45 46  1  0  0  0  0
 47 43  1  0  0  0  0
 47 48  1  0  0  0  0
 48 50  1  0  0  0  0
 50 49  1  0  0  0  0
 52 55  1  0  0  0  0
 53 55  1  0  0  0  0
 54 51  1  6  0  0  0
 54 56  1  0  0  0  0
 54 52  1  0  0  0  0
 55 57  1  1  0  0  0
 56 53  1  0  0  0  0
 57 58  1  0  0  0  0
 58 59  2  0  0  0  0
 60 70  1  1  0  0  0
 61 68  1  1  0  0  0
 61 60  1  0  0  0  0
 62 67  2  0  0  0  0
 63 61  1  0  0  0  0
 64 59  1  6  0  0  0
 64 63  1  0  0  0  0
 64 67  1  0  0  0  0
 65 60  1  0  0  0  0
 65 66  1  0  0  0  0
 67 65  1  0  0  0  0
 70 69  1  0  0  0  0
M  END
>  <MODEL>
3

>  <REMARK>
 VINA RESULT:      -4.7      2.741     10.551
  Name = 
  26 active torsions:
  status: ('A' for Active; 'I' for Inactive)
    1  A    between atoms: C_1  and  C_28
    2  A    between atoms: C_1  and  C_69
    3  A    between atoms: C_2  and  O_10
    4  A    between atoms: C_2  and  C_39
    5  A    between atoms: C_2  and  O_59
    6  A    between atoms: N_4  and  C_18
    7  A    between atoms: C_6  and  C_39
    8  A    between atoms: O_10  and  C_29
    9  A    between atoms: C_11  and  C_29
   10  A    between atoms: C_12  and  O_24
   11  A    between atoms: C_12  and  C_28
   12  A    between atoms: C_13  and  C_67
   13  A    between atoms: C_15  and  C_35
   14  A    between atoms: N_16  and  C_44
   15  A    between atoms: N_16  and  C_54
   16  A    between atoms: C_17  and  C_26
   17  A    between atoms: C_18  and  C_47
   18  A    between atoms: C_20  and  O_59
   19  A    between atoms: O_24  and  C_65
   20  A    between atoms: C_26  and  C_69
   21  A    between atoms: N_30  and  C_54
   22  A    between atoms: C_31  and  C_54
   23  A    between atoms: C_37  and  N_55
   24  A    between atoms: C_38  and  C_49
   25  A    between atoms: C_38  and  C_65
   26  A    between atoms: C_48  and  C_64
                            x       y       z     vdW  Elec       q    Type
                         _______ _______ _______ _____ _____    ______ ____

>  <TORSDO>
F 26

$$$$
=
 OpenBabel10222415543D

 70 75  0  0  1  0  0  0  0  0999 V2000
  185.2200  178.6880  143.3940 C   0  0  2  0  0  3  0  0  0  0  0  0
  182.3760  178.7090  144.0350 S   0  0  0  0  0  0  0  0  0  0  0  0
  183.7810  178.7780  142.9300 C   0  0  1  0  0  3  0  0  0  0  0  0
  182.0250  179.2040  141.3990 C   0  0  1  0  0  3  0  0  0  0  0  0
  181.3790  179.5160  142.7430 C   0  0  0  0  0  2  0  0  0  0  0  0
  183.4860  179.0490  141.6620 C   0  0  0  0  0  2  0  0  0  0  0  0
  181.0370  177.8160  139.5330 C   0  0  0  0  0  0  0  0  0  0  0  0
  181.4670  177.9740  140.8800 N   0  0  0  0  0  2  0  0  0  0  0  0
  181.2650  178.7150  138.6750 O   0  0  0  0  0  0  0  0  0  0  0  0
  179.5150  175.9670  140.3020 C   0  0  0  0  0  1  0  0  0  0  0  0
  180.3040  176.5660  139.1530 C   0  0  2  0  0  3  0  0  0  0  0  0
  181.1980  175.5700  138.4000 C   0  0  0  0  0  2  0  0  0  0  0  0
  180.6220  174.9660  137.1010 C   0  0  2  0  0  3  0  0  0  0  0  0
  179.6400  175.7160  136.4270 O   0  0  0  0  0  1  0  0  0  0  0  0
  179.3430  172.8860  137.7590 C   0  0  0  0  0  1  0  0  0  0  0  0
  180.5130  173.4360  136.9680 C   0  0  1  0  0  3  0  0  0  0  0  0
  180.4760  172.8350  135.5310 C   0  0  1  0  0  3  0  0  0  0  0  0
  179.1260  173.0280  134.8180 C   0  0  0  0  0  1  0  0  0  0  0  0
  181.5100  173.4180  134.7650 O   0  0  0  0  0  0  0  0  0  0  0  0
  183.5520  174.3480  135.3280 O   0  0  0  0  0  1  0  0  0  0  0  0
  182.7180  173.2390  135.4820 C   0  0  2  0  0  3  0  0  0  0  0  0
  183.4290  171.9800  134.9800 C   0  0  0  0  0  2  0  0  0  0  0  0
  183.9090  169.6320  135.7110 O   0  0  0  0  0  0  0  0  0  0  0  0
  183.1230  171.1930  137.1990 O   0  0  0  0  0  1  0  0  0  0  0  0
  183.4560  170.9070  136.0150 C   0  0  0  0  0  0  0  0  0  0  0  0
  187.2110  178.7620  141.9350 C   0  0  0  0  0  3  0  0  0  0  0  0
  186.1540  178.1560  142.3890 N   0  0  0  0  0  0  0  0  0  0  0  0
  189.2320  177.7080  135.6970 C   0  0  0  0  0  0  0  0  0  0  0  0
  187.7780  177.8340  135.9020 C   0  0  0  0  0  0  0  0  0  0  0  0
  189.4310  177.0100  138.0740 C   0  0  2  0  0  3  0  0  0  0  0  0
  185.0580  177.5550  136.5390 C   0  0  0  0  0  3  0  0  0  0  0  0
  185.6850  177.6130  139.2880 S   0  0  0  0  0  0  0  0  0  0  0  0
  187.9670  178.3240  140.7410 C   0  0  0  0  0  2  0  0  0  0  0  0
  187.3270  177.9600  137.2170 C   0  0  0  0  0  0  0  0  0  0  0  0
  185.4840  177.5020  135.1950 C   0  0  0  0  0  3  0  0  0  0  0  0
  186.8450  177.6460  134.8710 C   0  0  0  0  0  3  0  0  0  0  0  0
  188.2890  178.0030  138.3540 C   0  0  1  0  0  3  0  0  0  0  0  0
  189.7630  177.9820  134.5950 O   0  0  0  0  0  0  0  0  0  0  0  0
  187.4640  177.8360  139.5920 C   0  0  2  0  0  3  0  0  0  0  0  0
  190.0420  177.3910  136.8190 O   0  0  0  0  0  0  0  0  0  0  0  0
  185.9950  177.7950  137.5450 C   0  0  0  0  0  0  0  0  0  0  0  0
  188.9120  175.7080  137.9610 O   0  0  0  0  0  0  0  0  0  0  0  0
  189.8250  174.9800  137.1920 C   0  0  1  0  0  3  0  0  0  0  0  0
  191.0760  174.7470  138.0360 C   0  0  0  0  0  2  0  0  0  0  0  0
  192.3230  175.1830  137.2730 C   0  0  0  0  0  2  0  0  0  0  0  0
  193.1640  173.9680  136.9370 C   0  0  0  0  0  1  0  0  0  0  0  0
  189.2480  173.7630  136.8250 O   0  0  0  0  0  0  0  0  0  0  0  0
  188.3190  174.0540  135.8170 C   0  0  0  0  0  2  0  0  0  0  0  0
  187.1200  172.5540  137.2540 O   0  0  0  0  0  1  0  0  0  0  0  0
  186.9930  173.3920  136.1430 C   0  0  0  0  0  2  0  0  0  0  0  0
  185.3220  177.8600  144.6130 N   0  0  0  0  0  2  0  0  0  0  0  0
  186.9060  177.7550  146.3510 O   0  0  0  0  0  0  0  0  0  0  0  0
  185.8870  179.2820  147.8600 C   0  0  0  0  0  2  0  0  0  0  0  0
  186.0500  178.6080  145.6450 C   0  0  2  0  0  3  0  0  0  0  0  0
  186.7540  178.0660  147.7140 C   0  0  2  0  0  3  0  0  0  0  0  0
  185.0800  179.2370  146.6180 C   0  0  0  0  0  2  0  0  0  0  0  0
  188.1290  178.2250  148.3350 C   0  0  0  0  0  2  0  0  0  0  0  0
  189.1560  178.4270  147.3460 N   0  0  0  0  0  0  0  0  0  0  0  0
  189.8770  177.4570  146.9030 C   0  0  0  0  0  3  0  0  0  0  0  0
  191.4860  177.4320  142.9160 C   0  0  2  0  0  3  0  0  0  0  0  0
  191.2170  178.7620  143.6220 C   0  0  2  0  0  3  0  0  0  0  0  0
  191.7660  175.4760  146.0290 O   0  0  0  0  0  0  0  0  0  0  0  0
  190.2650  178.5770  144.7800 C   0  0  0  0  0  2  0  0  0  0  0  0
  190.9100  177.7110  145.8530 C   0  0  2  0  0  3  0  0  0  0  0  0
  191.6700  176.3030  143.8490 N   0  0  0  0  0  0  0  0  0  0  0  0
  191.8870  174.9720  143.3000 C   0  0  0  0  0  1  0  0  0  0  0  0
  191.4480  176.4330  145.2680 C   0  0  0  0  0  0  0  0  0  0  0  0
  190.6790  179.6860  142.7160 O   0  0  0  0  0  1  0  0  0  0  0  0
  192.4000  177.2060  140.7090 O   0  0  0  0  0  1  0  0  0  0  0  0
  192.7110  177.5890  142.0210 C   0  0  0  0  0  2  0  0  0  0  0  0
  1 27  1  6  0  0  0
  1 51  1  0  0  0  0
  3  1  1  1  0  0  0
  3  2  1  0  0  0  0
  4  8  1  1  0  0  0
  4  6  1  0  0  0  0
  4  5  1  0  0  0  0
  5  2  1  0  0  0  0
  6  3  1  0  0  0  0
  7  8  1  0  0  0  0
  9  7  2  0  0  0  0
 11  7  1  0  0  0  0
 11 10  1  1  0  0  0
 12 11  1  0  0  0  0
 13 14  1  1  0  0  0
 13 12  1  0  0  0  0
 16 13  1  0  0  0  0
 16 15  1  6  0  0  0
 17 18  1  6  0  0  0
 17 16  1  0  0  0  0
 19 21  1  0  0  0  0
 19 17  1  0  0  0  0
 21 20  1  6  0  0  0
 22 21  1  0  0  0  0
 22 25  1  0  0  0  0
 23 25  2  0  0  0  0
 25 24  1  0  0  0  0
 26 27  2  0  0  0  0
 28 29  1  0  0  0  0
 28 40  1  0  0  0  0
 29 34  1  0  0  0  0
 30 42  1  6  0  0  0
 30 37  1  0  0  0  0
 31 41  1  0  0  0  0
 32 39  1  0  0  0  0
 33 26  1  0  0  0  0
 34 41  2  0  0  0  0
 35 31  2  0  0  0  0
 36 35  1  0  0  0  0
 36 29  2  0  0  0  0
 37 34  1  6  0  0  0
 37 39  1  0  0  0  0
 38 28  2  0  0  0  0
 39 33  1  1  0  0  0
 40 30  1  0  0  0  0
 41 32  1  0  0  0  0
 43 42  1  0  0  0  0
 43 44  1  1  0  0  0
 45 44  1  0  0  0  0
 46 45  1  0  0  0  0
 47 43  1  0  0  0  0
 48 50  1  0  0  0  0
 48 47  1  0  0  0  0
 50 49  1  0  0  0  0
 52 55  1  0  0  0  0
 54 51  1  6  0  0  0
 54 52  1  0  0  0  0
 54 56  1  0  0  0  0
 55 53  1  0  0  0  0
 55 57  1  6  0  0  0
 56 53  1  0  0  0  0
 58 57  1  0  0  0  0
 59 58  2  0  0  0  0
 60 70  1  1  0  0  0
 60 61  1  0  0  0  0
 60 65  1  0  0  0  0
 61 68  1  6  0  0  0
 61 63  1  0  0  0  0
 63 64  1  0  0  0  0
 64 59  1  1  0  0  0
 65 67  1  0  0  0  0
 66 65  1  0  0  0  0
 67 64  1  0  0  0  0
 67 62  2  0  0  0  0
 69 70  1  0  0  0  0
M  END
>  <MODEL>
4

>  <REMARK>
 VINA RESULT:      -4.4      2.911      9.959
  Name = 
  26 active torsions:
  status: ('A' for Active; 'I' for Inactive)
    1  A    between atoms: C_1  and  C_28
    2  A    between atoms: C_1  and  C_69
    3  A    between atoms: C_2  and  O_10
    4  A    between atoms: C_2  and  C_39
    5  A    between atoms: C_2  and  O_59
    6  A    between atoms: N_4  and  C_18
    7  A    between atoms: C_6  and  C_39
    8  A    between atoms: O_10  and  C_29
    9  A    between atoms: C_11  and  C_29
   10  A    between atoms: C_12  and  O_24
   11  A    between atoms: C_12  and  C_28
   12  A    between atoms: C_13  and  C_67
   13  A    between atoms: C_15  and  C_35
   14  A    between atoms: N_16  and  C_44
   15  A    between atoms: N_16  and  C_54
   16  A    between atoms: C_17  and  C_26
   17  A    between atoms: C_18  and  C_47
   18  A    between atoms: C_20  and  O_59
   19  A    between atoms: O_24  and  C_65
   20  A    between atoms: C_26  and  C_69
   21  A    between atoms: N_30  and  C_54
   22  A    between atoms: C_31  and  C_54
   23  A    between atoms: C_37  and  N_55
   24  A    between atoms: C_38  and  C_49
   25  A    between atoms: C_38  and  C_65
   26  A    between atoms: C_48  and  C_64
                            x       y       z     vdW  Elec       q    Type
                         _______ _______ _______ _____ _____    ______ ____

>  <TORSDO>
F 26

$$$$
=
 OpenBabel10222415543D

 70 75  0  0  1  0  0  0  0  0999 V2000
  189.5350  176.3260  138.3620 C   0  0  2  0  0  3  0  0  0  0  0  0
  189.9780  176.5670  141.2340 S   0  0  0  0  0  0  0  0  0  0  0  0
  189.1820  176.9740  139.6850 C   0  0  1  0  0  3  0  0  0  0  0  0
  188.1770  178.5810  141.1050 C   0  0  1  0  0  3  0  0  0  0  0  0
  189.4150  178.1690  141.8910 C   0  0  0  0  0  2  0  0  0  0  0  0
  188.3320  177.9950  139.7410 C   0  0  0  0  0  2  0  0  0  0  0  0
  185.9450  178.8580  142.2560 C   0  0  0  0  0  0  0  0  0  0  0  0
  187.0020  178.0460  141.7590 N   0  0  0  0  0  2  0  0  0  0  0  0
  185.9150  180.0970  142.0120 O   0  0  0  0  0  0  0  0  0  0  0  0
  183.4800  178.4270  142.5110 C   0  0  0  0  0  1  0  0  0  0  0  0
  184.8700  178.2160  143.0800 C   0  0  2  0  0  3  0  0  0  0  0  0
  185.0080  178.5390  144.5750 C   0  0  0  0  0  2  0  0  0  0  0  0
  186.2910  178.0430  145.2760 C   0  0  2  0  0  3  0  0  0  0  0  0
  186.7280  176.7410  144.9650 O   0  0  0  0  0  1  0  0  0  0  0  0
  185.5830  178.0610  147.7040 C   0  0  0  0  0  1  0  0  0  0  0  0
  186.6100  178.5400  146.6980 C   0  0  1  0  0  3  0  0  0  0  0  0
  188.0360  178.2590  147.2610 C   0  0  1  0  0  3  0  0  0  0  0  0
  188.1650  178.5290  148.7700 C   0  0  0  0  0  1  0  0  0  0  0  0
  188.3810  176.9190  146.9810 O   0  0  0  0  0  0  0  0  0  0  0  0
  190.3220  176.9390  148.2390 O   0  0  0  0  0  1  0  0  0  0  0  0
  189.7950  176.8440  146.9510 C   0  0  2  0  0  3  0  0  0  0  0  0
  190.3480  177.9740  146.0770 C   0  0  0  0  0  2  0  0  0  0  0  0
  191.5040  177.9760  143.8550 O   0  0  0  0  0  0  0  0  0  0  0  0
  192.2730  176.6750  145.5830 O   0  0  0  0  0  1  0  0  0  0  0  0
  191.4110  177.4900  145.1500 C   0  0  0  0  0  0  0  0  0  0  0  0
  187.5160  176.3820  136.9420 C   0  0  0  0  0  3  0  0  0  0  0  0
  188.3940  175.7320  137.6480 N   0  0  0  0  0  0  0  0  0  0  0  0
  181.1480  175.4480  135.3030 C   0  0  0  0  0  0  0  0  0  0  0  0
  181.4070  176.3720  136.4220 C   0  0  0  0  0  0  0  0  0  0  0  0
  183.3310  174.3650  135.7890 C   0  0  2  0  0  3  0  0  0  0  0  0
  182.0380  177.6500  138.8400 C   0  0  0  0  0  3  0  0  0  0  0  0
  184.7280  176.8440  138.5770 S   0  0  0  0  0  0  0  0  0  0  0  0
  186.2410  175.7990  136.4690 C   0  0  0  0  0  2  0  0  0  0  0  0
  182.7310  176.5080  136.8430 C   0  0  0  0  0  0  0  0  0  0  0  0
  180.7020  177.5920  138.3940 C   0  0  0  0  0  3  0  0  0  0  0  0
  180.3820  176.9560  137.1810 C   0  0  0  0  0  3  0  0  0  0  0  0
  183.8310  175.7730  136.1570 C   0  0  1  0  0  3  0  0  0  0  0  0
  180.1110  175.5420  134.6050 O   0  0  0  0  0  0  0  0  0  0  0  0
  185.0290  175.9140  137.0440 C   0  0  2  0  0  3  0  0  0  0  0  0
  182.1640  174.5230  134.9480 O   0  0  0  0  0  0  0  0  0  0  0  0
  183.0500  177.1090  138.0470 C   0  0  0  0  0  0  0  0  0  0  0  0
  182.9720  173.6670  136.9560 O   0  0  0  0  0  0  0  0  0  0  0  0
  183.7040  172.4760  136.9500 C   0  0  1  0  0  3  0  0  0  0  0  0
  182.7200  171.3160  136.8150 C   0  0  0  0  0  2  0  0  0  0  0  0
  182.0870  171.3120  135.4260 C   0  0  0  0  0  2  0  0  0  0  0  0
  182.5270  170.0740  134.6720 C   0  0  0  0  0  1  0  0  0  0  0  0
  184.5950  172.4900  135.8750 O   0  0  0  0  0  0  0  0  0  0  0  0
  185.8640  172.2310  136.4110 C   0  0  0  0  0  2  0  0  0  0  0  0
  186.8140  170.9790  134.5990 O   0  0  0  0  0  1  0  0  0  0  0  0
  186.3570  170.8840  135.9170 C   0  0  0  0  0  2  0  0  0  0  0  0
  190.5620  175.2820  138.5540 N   0  0  0  0  0  2  0  0  0  0  0  0
  192.6920  176.0290  137.8830 O   0  0  0  0  0  0  0  0  0  0  0  0
  192.1600  176.6930  135.6650 C   0  0  0  0  0  2  0  0  0  0  0  0
  191.5380  175.3590  137.4600 C   0  0  2  0  0  3  0  0  0  0  0  0
  193.0390  176.9260  136.8590 C   0  0  2  0  0  3  0  0  0  0  0  0
  190.9490  176.1020  136.2840 C   0  0  0  0  0  2  0  0  0  0  0  0
  194.5180  176.7770  136.5590 C   0  0  0  0  0  2  0  0  0  0  0  0
  194.9050  175.4020  136.3860 N   0  0  0  0  0  0  0  0  0  0  0  0
  195.4880  174.9860  135.3160 C   0  0  0  0  0  3  0  0  0  0  0  0
  196.7320  171.1400  136.7820 C   0  0  2  0  0  3  0  0  0  0  0  0
  195.3830  171.2880  136.0760 C   0  0  2  0  0  3  0  0  0  0  0  0
  198.2290  174.1290  135.2250 O   0  0  0  0  0  0  0  0  0  0  0  0
  194.9420  172.7320  136.0490 C   0  0  0  0  0  2  0  0  0  0  0  0
  195.8990  173.5540  135.1960 C   0  0  2  0  0  3  0  0  0  0  0  0
  197.6970  172.1980  136.4240 N   0  0  0  0  0  0  0  0  0  0  0  0
  199.0040  172.1970  137.0650 C   0  0  0  0  0  1  0  0  0  0  0  0
  197.3270  173.3380  135.6200 C   0  0  0  0  0  0  0  0  0  0  0  0
  194.4130  170.5140  136.7280 O   0  0  0  0  0  1  0  0  0  0  0  0
  197.5490  169.6540  135.0840 O   0  0  0  0  0  1  0  0  0  0  0  0
  197.3080  169.7650  136.4600 C   0  0  0  0  0  2  0  0  0  0  0  0
  1 27  1  1  0  0  0
  1 51  1  0  0  0  0
  2  5  1  0  0  0  0
  3  1  1  6  0  0  0
  3  6  1  0  0  0  0
  3  2  1  0  0  0  0
  4  8  1  1  0  0  0
  4  5  1  0  0  0  0
  6  4  1  0  0  0  0
  7 11  1  0  0  0  0
  8  7  1  0  0  0  0
  9  7  2  0  0  0  0
 11 10  1  6  0  0  0
 11 12  1  0  0  0  0
 12 13  1  0  0  0  0
 13 14  1  1  0  0  0
 13 16  1  0  0  0  0
 16 17  1  0  0  0  0
 16 15  1  1  0  0  0
 17 18  1  1  0  0  0
 19 17  1  0  0  0  0
 21 19  1  0  0  0  0
 21 20  1  1  0  0  0
 22 21  1  0  0  0  0
 23 25  2  0  0  0  0
 25 24  1  0  0  0  0
 25 22  1  0  0  0  0
 26 27  2  0  0  0  0
 28 29  1  0  0  0  0
 29 34  2  0  0  0  0
 29 36  1  0  0  0  0
 30 37  1  0  0  0  0
 30 42  1  1  0  0  0
 33 26  1  0  0  0  0
 34 41  1  0  0  0  0
 35 31  1  0  0  0  0
 36 35  2  0  0  0  0
 37 34  1  1  0  0  0
 37 39  1  0  0  0  0
 38 28  2  0  0  0  0
 39 33  1  6  0  0  0
 39 32  1  0  0  0  0
 40 28  1  0  0  0  0
 40 30  1  0  0  0  0
 41 32  1  0  0  0  0
 41 31  2  0  0  0  0
 43 44  1  6  0  0  0
 43 42  1  0  0  0  0
 45 44  1  0  0  0  0
 46 45  1  0  0  0  0
 47 48  1  0  0  0  0
 47 43  1  0  0  0  0
 49 50  1  0  0  0  0
 50 48  1  0  0  0  0
 53 56  1  0  0  0  0
 53 55  1  0  0  0  0
 54 52  1  0  0  0  0
 54 51  1  1  0  0  0
 55 57  1  6  0  0  0
 55 52  1  0  0  0  0
 56 54  1  0  0  0  0
 58 57  1  0  0  0  0
 59 58  2  0  0  0  0
 60 70  1  6  0  0  0
 61 68  1  1  0  0  0
 61 60  1  0  0  0  0
 62 67  2  0  0  0  0
 63 61  1  0  0  0  0
 64 59  1  1  0  0  0
 64 67  1  0  0  0  0
 64 63  1  0  0  0  0
 65 60  1  0  0  0  0
 65 66  1  0  0  0  0
 67 65  1  0  0  0  0
 69 70  1  0  0  0  0
M  END
>  <MODEL>
5

>  <REMARK>
 VINA RESULT:      -3.9      2.628      5.741
  Name = 
  26 active torsions:
  status: ('A' for Active; 'I' for Inactive)
    1  A    between atoms: C_1  and  C_28
    2  A    between atoms: C_1  and  C_69
    3  A    between atoms: C_2  and  O_10
    4  A    between atoms: C_2  and  C_39
    5  A    between atoms: C_2  and  O_59
    6  A    between atoms: N_4  and  C_18
    7  A    between atoms: C_6  and  C_39
    8  A    between atoms: O_10  and  C_29
    9  A    between atoms: C_11  and  C_29
   10  A    between atoms: C_12  and  O_24
   11  A    between atoms: C_12  and  C_28
   12  A    between atoms: C_13  and  C_67
   13  A    between atoms: C_15  and  C_35
   14  A    between atoms: N_16  and  C_44
   15  A    between atoms: N_16  and  C_54
   16  A    between atoms: C_17  and  C_26
   17  A    between atoms: C_18  and  C_47
   18  A    between atoms: C_20  and  O_59
   19  A    between atoms: O_24  and  C_65
   20  A    between atoms: C_26  and  C_69
   21  A    between atoms: N_30  and  C_54
   22  A    between atoms: C_31  and  C_54
   23  A    between atoms: C_37  and  N_55
   24  A    between atoms: C_38  and  C_49
   25  A    between atoms: C_38  and  C_65
   26  A    between atoms: C_48  and  C_64
                            x       y       z     vdW  Elec       q    Type
                         _______ _______ _______ _____ _____    ______ ____

>  <TORSDO>
F 26

$$$$
