=
 OpenBabel10222415543D

 29 32  0  0  1  0  0  0  0  0999 V2000
  189.1850  176.9740  143.5690 C   0  0  0  0  0  3  0  0  0  0  0  0
  185.8200  178.4910  143.1930 C   0  0  0  0  0  0  0  0  0  0  0  0
  183.5190  178.9080  142.4670 N   0  0  0  0  0  0  0  0  0  0  0  0
  187.9130  177.4550  143.9030 C   0  0  0  0  0  0  0  0  0  0  0  0
  185.3550  178.4340  144.5170 C   0  0  0  0  0  0  0  0  0  0  0  0
  187.4350  177.4070  145.2280 C   0  0  0  0  0  0  0  0  0  0  0  0
  186.1600  177.8990  145.5240 C   0  0  0  0  0  3  0  0  0  0  0  0
  183.0600  178.8570  143.6840 C   0  0  0  0  0  0  0  0  0  0  0  0
  187.5950  178.0540  141.5710 C   0  0  0  0  0  3  0  0  0  0  0  0
  187.1030  178.0050  142.8810 C   0  0  0  0  0  0  0  0  0  0  0  0
  184.9340  179.1270  142.1550 C   0  0  0  0  0  2  0  0  0  0  0  0
  184.0020  178.9810  144.8590 C   0  0  0  0  0  2  0  0  0  0  0  0
  189.6310  177.0350  142.2860 N   0  0  0  0  0  0  0  0  0  0  0  0
  188.8730  177.5570  141.2840 C   0  0  0  0  0  0  0  0  0  0  0  0
  189.2770  176.4720  138.1250 N   0  0  0  0  0  2  0  0  0  0  0  0
  189.8790  176.4890  139.3510 O   0  0  0  0  0  0  0  0  0  0  0  0
  189.0900  177.8670  137.7260 C   0  0  2  0  0  3  0  0  0  0  0  0
  189.3950  177.6050  139.9490 N   0  0  0  0  0  0  0  0  0  0  0  0
  189.0190  178.6250  139.0090 C   0  0  0  0  0  2  0  0  0  0  0  0
  186.7890  178.6490  137.8160 N   0  0  0  0  0  1  0  0  0  0  0  0
  187.7850  178.0210  136.9660 C   0  0  0  0  0  2  0  0  0  0  0  0
  181.6880  178.6880  143.8800 O   0  0  0  0  0  0  0  0  0  0  0  0
  180.7190  179.3350  143.0680 C   0  0  0  0  0  1  0  0  0  0  0  0
  188.2480  176.8220  146.3380 C   0  0  0  0  0  2  0  0  0  0  0  0
  189.3510  177.7870  146.7430 C   0  0  0  0  0  2  0  0  0  0  0  0
  190.4240  177.0640  147.5400 C   0  0  0  0  0  2  0  0  0  0  0  0
  191.8510  177.3760  145.6560 O   0  0  0  0  0  0  0  0  0  0  0  0
  191.5640  176.6750  146.6620 C   0  0  0  0  0  0  0  0  0  0  0  0
  192.2900  175.5240  146.9340 O   0  0  0  0  0  1  0  0  0  0  0  0
  1  4  1  0  0  0  0
  2  5  1  0  0  0  0
  3  8  2  0  0  0  0
  4  6  2  0  0  0  0
  5 12  1  0  0  0  0
  5  7  2  0  0  0  0
  6  7  1  0  0  0  0
  6 24  1  0  0  0  0
  8 22  1  0  0  0  0
  8 12  1  0  0  0  0
  9 10  1  0  0  0  0
 10  2  2  0  0  0  0
 10  4  1  0  0  0  0
 11  3  1  0  0  0  0
 11  2  1  0  0  0  0
 13  1  2  0  0  0  0
 14  9  2  0  0  0  0
 14 13  1  0  0  0  0
 15 16  1  0  0  0  0
 16 18  1  0  0  0  0
 17 21  1  1  0  0  0
 17 15  1  0  0  0  0
 17 19  1  0  0  0  0
 18 14  1  0  0  0  0
 19 18  1  0  0  0  0
 21 20  1  0  0  0  0
 23 22  1  0  0  0  0
 24 25  1  0  0  0  0
 25 26  1  0  0  0  0
 27 28  2  0  0  0  0
 28 29  1  0  0  0  0
 28 26  1  0  0  0  0
M  END
>  <MODEL>
1

>  <REMARK>
 VINA RESULT:      -9.1      0.000      0.000
  Name = 
  7 active torsions:
  status: ('A' for Active; 'I' for Inactive)
    1  A    between atoms: C_2  and  C_16
    2  A    between atoms: C_2  and  C_17
    3  A    between atoms: O_6  and  C_13
    4  A    between atoms: C_11  and  C_24
    5  A    between atoms: C_15  and  C_18
    6  A    between atoms: C_17  and  C_24
    7  A    between atoms: N_23  and  C_27
                            x       y       z     vdW  Elec       q    Type
                         _______ _______ _______ _____ _____    ______ ____

>  <TORSDO>
F 7

$$$$
=
 OpenBabel10222415543D

 29 32  0  0  1  0  0  0  0  0999 V2000
  186.4100  178.6480  140.8500 C   0  0  0  0  0  3  0  0  0  0  0  0
  188.1030  177.4530  143.9280 C   0  0  0  0  0  0  0  0  0  0  0  0
  189.6820  177.2410  145.7880 N   0  0  0  0  0  0  0  0  0  0  0  0
  186.6120  178.3000  142.1920 C   0  0  0  0  0  0  0  0  0  0  0  0
  187.0680  177.5870  144.8680 C   0  0  0  0  0  0  0  0  0  0  0  0
  185.5800  178.4260  143.1450 C   0  0  0  0  0  0  0  0  0  0  0  0
  185.8180  178.0680  144.4750 C   0  0  0  0  0  3  0  0  0  0  0  0
  188.7430  177.3670  146.6810 C   0  0  0  0  0  0  0  0  0  0  0  0
  188.8890  177.6770  141.6250 C   0  0  0  0  0  3  0  0  0  0  0  0
  187.8780  177.8050  142.5850 C   0  0  0  0  0  0  0  0  0  0  0  0
  189.4160  176.8800  144.3930 C   0  0  0  0  0  2  0  0  0  0  0  0
  187.2940  177.1820  146.2940 C   0  0  0  0  0  2  0  0  0  0  0  0
  187.4160  178.5120  139.9450 N   0  0  0  0  0  0  0  0  0  0  0  0
  188.6430  178.0400  140.2950 C   0  0  0  0  0  0  0  0  0  0  0  0
  191.2860  176.5840  138.8070 N   0  0  0  0  0  2  0  0  0  0  0  0
  190.9400  177.6060  139.6440 O   0  0  0  0  0  0  0  0  0  0  0  0
  190.5770  176.8100  137.5480 C   0  0  2  0  0  3  0  0  0  0  0  0
  189.6650  177.9090  139.2990 N   0  0  0  0  0  0  0  0  0  0  0  0
  189.3700  177.6020  137.9260 C   0  0  0  0  0  2  0  0  0  0  0  0
  190.6280  174.3890  137.7700 N   0  0  0  0  0  1  0  0  0  0  0  0
  190.1510  175.4840  136.9450 C   0  0  0  0  0  2  0  0  0  0  0  0
  189.1000  177.6720  147.9950 O   0  0  0  0  0  0  0  0  0  0  0  0
  188.1570  178.1280  148.9530 C   0  0  0  0  0  1  0  0  0  0  0  0
  184.2310  178.9580  142.7810 C   0  0  0  0  0  2  0  0  0  0  0  0
  183.4700  179.3550  144.0350 C   0  0  0  0  0  2  0  0  0  0  0  0
  182.1020  178.6930  144.0590 C   0  0  0  0  0  2  0  0  0  0  0  0
  180.7080  180.2810  142.9550 O   0  0  0  0  0  1  0  0  0  0  0  0
  181.2700  179.1550  142.9120 C   0  0  0  0  0  0  0  0  0  0  0  0
  181.0890  178.3330  141.8080 O   0  0  0  0  0  0  0  0  0  0  0  0
  1  4  1  0  0  0  0
  2 11  1  0  0  0  0
  2  5  1  0  0  0  0
  3  8  2  0  0  0  0
  4 10  1  0  0  0  0
  4  6  2  0  0  0  0
  5 12  1  0  0  0  0
  6  7  1  0  0  0  0
  7  5  2  0  0  0  0
  8 22  1  0  0  0  0
  9 10  1  0  0  0  0
 10  2  2  0  0  0  0
 11  3  1  0  0  0  0
 12  8  1  0  0  0  0
 13 14  1  0  0  0  0
 13  1  2  0  0  0  0
 14  9  2  0  0  0  0
 15 16  1  0  0  0  0
 17 21  1  1  0  0  0
 17 19  1  0  0  0  0
 17 15  1  0  0  0  0
 18 16  1  0  0  0  0
 18 14  1  0  0  0  0
 19 18  1  0  0  0  0
 21 20  1  0  0  0  0
 22 23  1  0  0  0  0
 24  6  1  0  0  0  0
 24 25  1  0  0  0  0
 25 26  1  0  0  0  0
 28 27  1  0  0  0  0
 28 26  1  0  0  0  0
 29 28  2  0  0  0  0
M  END
>  <MODEL>
2

>  <REMARK>
 VINA RESULT:      -9.0      1.887      5.907
  Name = 
  7 active torsions:
  status: ('A' for Active; 'I' for Inactive)
    1  A    between atoms: C_2  and  C_16
    2  A    between atoms: C_2  and  C_17
    3  A    between atoms: O_6  and  C_13
    4  A    between atoms: C_11  and  C_24
    5  A    between atoms: C_15  and  C_18
    6  A    between atoms: C_17  and  C_24
    7  A    between atoms: N_23  and  C_27
                            x       y       z     vdW  Elec       q    Type
                         _______ _______ _______ _____ _____    ______ ____

>  <TORSDO>
F 7

$$$$
=
 OpenBabel10222415543D

 29 32  0  0  1  0  0  0  0  0999 V2000
  184.7680  178.4810  145.8010 C   0  0  0  0  0  3  0  0  0  0  0  0
  186.1900  178.1480  142.3890 C   0  0  0  0  0  0  0  0  0  0  0  0
  186.8990  178.6510  140.1010 N   0  0  0  0  0  0  0  0  0  0  0  0
  185.6970  178.2520  144.7770 C   0  0  0  0  0  0  0  0  0  0  0  0
  187.5180  177.8050  142.6890 C   0  0  0  0  0  0  0  0  0  0  0  0
  187.0330  177.9030  145.0640 C   0  0  0  0  0  0  0  0  0  0  0  0
  187.9310  177.6820  144.0160 C   0  0  0  0  0  3  0  0  0  0  0  0
  188.1400  178.3430  140.3510 C   0  0  0  0  0  0  0  0  0  0  0  0
  183.9410  178.7080  143.1640 C   0  0  0  0  0  3  0  0  0  0  0  0
  185.2720  178.3700  143.4330 C   0  0  0  0  0  0  0  0  0  0  0  0
  185.7820  178.2160  140.9410 C   0  0  0  0  0  2  0  0  0  0  0  0
  188.4900  177.5350  141.5800 C   0  0  0  0  0  2  0  0  0  0  0  0
  183.4830  178.8100  145.5030 N   0  0  0  0  0  0  0  0  0  0  0  0
  183.0470  178.9310  144.2200 C   0  0  0  0  0  0  0  0  0  0  0  0
  180.4830  180.0670  142.3620 N   0  0  0  0  0  2  0  0  0  0  0  0
  181.3550  180.4350  143.3460 O   0  0  0  0  0  0  0  0  0  0  0  0
  179.7350  178.9160  142.8680 C   0  0  2  0  0  3  0  0  0  0  0  0
  181.6790  179.2720  143.9630 N   0  0  0  0  0  0  0  0  0  0  0  0
  180.6410  178.2820  143.8700 C   0  0  0  0  0  2  0  0  0  0  0  0
  180.6500  177.7560  140.9370 N   0  0  0  0  0  1  0  0  0  0  0  0
  179.4550  177.9400  141.7400 C   0  0  0  0  0  2  0  0  0  0  0  0
  189.1320  178.7690  139.4670 O   0  0  0  0  0  0  0  0  0  0  0  0
  189.0220  178.5970  138.0610 C   0  0  0  0  0  1  0  0  0  0  0  0
  187.5320  177.7820  146.4680 C   0  0  0  0  0  2  0  0  0  0  0  0
  189.0420  177.9540  146.5030 C   0  0  0  0  0  2  0  0  0  0  0  0
  189.6930  176.7910  147.2330 C   0  0  0  0  0  2  0  0  0  0  0  0
  191.5550  176.5480  145.7640 O   0  0  0  0  0  0  0  0  0  0  0  0
  191.1540  176.7350  146.9430 C   0  0  0  0  0  0  0  0  0  0  0  0
  192.0730  176.8570  147.9750 O   0  0  0  0  0  1  0  0  0  0  0  0
  2  5  2  0  0  0  0
  2 10  1  0  0  0  0
  3  8  2  0  0  0  0
  3 11  1  0  0  0  0
  4  6  1  0  0  0  0
  4  1  2  0  0  0  0
  5  7  1  0  0  0  0
  6 24  1  0  0  0  0
  7  6  2  0  0  0  0
  8 12  1  0  0  0  0
  9 10  2  0  0  0  0
  9 14  1  0  0  0  0
 10  4  1  0  0  0  0
 11  2  1  0  0  0  0
 12  5  1  0  0  0  0
 13  1  1  0  0  0  0
 14 13  2  0  0  0  0
 15 17  1  0  0  0  0
 15 16  1  0  0  0  0
 16 18  1  0  0  0  0
 17 21  1  6  0  0  0
 17 19  1  0  0  0  0
 18 14  1  0  0  0  0
 19 18  1  0  0  0  0
 20 21  1  0  0  0  0
 22  8  1  0  0  0  0
 23 22  1  0  0  0  0
 24 25  1  0  0  0  0
 25 26  1  0  0  0  0
 27 28  2  0  0  0  0
 28 26  1  0  0  0  0
 28 29  1  0  0  0  0
M  END
>  <MODEL>
3

>  <REMARK>
 VINA RESULT:      -8.7      1.644      6.075
  Name = 
  7 active torsions:
  status: ('A' for Active; 'I' for Inactive)
    1  A    between atoms: C_2  and  C_16
    2  A    between atoms: C_2  and  C_17
    3  A    between atoms: O_6  and  C_13
    4  A    between atoms: C_11  and  C_24
    5  A    between atoms: C_15  and  C_18
    6  A    between atoms: C_17  and  C_24
    7  A    between atoms: N_23  and  C_27
                            x       y       z     vdW  Elec       q    Type
                         _______ _______ _______ _____ _____    ______ ____

>  <TORSDO>
F 7

$$$$
=
 OpenBabel10222415543D

 29 32  0  0  1  0  0  0  0  0999 V2000
  187.0140  178.0030  142.4410 C   0  0  0  0  0  3  0  0  0  0  0  0
  189.7730  176.9830  144.7030 C   0  0  0  0  0  0  0  0  0  0  0  0
  191.8830  176.9650  145.9450 N   0  0  0  0  0  0  0  0  0  0  0  0
  187.6900  177.6350  143.6120 C   0  0  0  0  0  0  0  0  0  0  0  0
  189.0910  176.8930  145.9270 C   0  0  0  0  0  0  0  0  0  0  0  0
  187.0170  177.5380  144.8470 C   0  0  0  0  0  0  0  0  0  0  0  0
  187.7240  177.1670  145.9940 C   0  0  0  0  0  3  0  0  0  0  0  0
  191.2770  176.8850  147.0950 C   0  0  0  0  0  0  0  0  0  0  0  0
  189.7250  177.4420  142.3030 C   0  0  0  0  0  3  0  0  0  0  0  0
  189.0740  177.3500  143.5390 C   0  0  0  0  0  0  0  0  0  0  0  0
  191.2350  176.6260  144.6750 C   0  0  0  0  0  2  0  0  0  0  0  0
  189.8260  176.4690  147.1640 C   0  0  0  0  0  2  0  0  0  0  0  0
  187.6790  178.0840  141.2580 N   0  0  0  0  0  0  0  0  0  0  0  0
  189.0100  177.8170  141.1590 C   0  0  0  0  0  0  0  0  0  0  0  0
  190.2490  176.6180  138.2710 N   0  0  0  0  0  2  0  0  0  0  0  0
  190.6150  177.0190  139.5240 O   0  0  0  0  0  0  0  0  0  0  0  0
  189.6030  177.7630  137.6310 C   0  0  2  0  0  3  0  0  0  0  0  0
  189.6600  177.9110  139.8850 N   0  0  0  0  0  0  0  0  0  0  0  0
  189.0630  178.5760  138.7600 C   0  0  0  0  0  2  0  0  0  0  0  0
  187.8240  176.1310  137.3420 N   0  0  0  0  0  1  0  0  0  0  0  0
  188.4620  177.2910  136.7480 C   0  0  0  0  0  2  0  0  0  0  0  0
  191.9910  177.1880  148.2550 O   0  0  0  0  0  0  0  0  0  0  0  0
  192.9240  176.2850  148.8310 C   0  0  0  0  0  1  0  0  0  0  0  0
  185.5590  177.8440  144.9770 C   0  0  0  0  0  2  0  0  0  0  0  0
  185.3580  179.3260  145.2490 C   0  0  0  0  0  2  0  0  0  0  0  0
  184.5750  179.9730  144.1180 C   0  0  0  0  0  2  0  0  0  0  0  0
  183.4910  178.6280  142.4740 O   0  0  0  0  0  0  0  0  0  0  0  0
  183.4800  179.0740  143.6510 C   0  0  0  0  0  0  0  0  0  0  0  0
  182.4320  178.7550  144.5030 O   0  0  0  0  0  1  0  0  0  0  0  0
  1  4  1  0  0  0  0
  2  5  1  0  0  0  0
  3  8  2  0  0  0  0
  4  6  2  0  0  0  0
  5  7  2  0  0  0  0
  5 12  1  0  0  0  0
  6 24  1  0  0  0  0
  6  7  1  0  0  0  0
  8 12  1  0  0  0  0
  8 22  1  0  0  0  0
  9 10  1  0  0  0  0
 10  4  1  0  0  0  0
 10  2  2  0  0  0  0
 11  2  1  0  0  0  0
 11  3  1  0  0  0  0
 13  1  2  0  0  0  0
 14 13  1  0  0  0  0
 14  9  2  0  0  0  0
 15 16  1  0  0  0  0
 16 18  1  0  0  0  0
 17 21  1  6  0  0  0
 17 15  1  0  0  0  0
 17 19  1  0  0  0  0
 18 14  1  0  0  0  0
 19 18  1  0  0  0  0
 21 20  1  0  0  0  0
 22 23  1  0  0  0  0
 24 25  1  0  0  0  0
 26 25  1  0  0  0  0
 27 28  2  0  0  0  0
 28 26  1  0  0  0  0
 28 29  1  0  0  0  0
M  END
>  <MODEL>
4

>  <REMARK>
 VINA RESULT:      -8.4      1.575      5.938
  Name = 
  7 active torsions:
  status: ('A' for Active; 'I' for Inactive)
    1  A    between atoms: C_2  and  C_16
    2  A    between atoms: C_2  and  C_17
    3  A    between atoms: O_6  and  C_13
    4  A    between atoms: C_11  and  C_24
    5  A    between atoms: C_15  and  C_18
    6  A    between atoms: C_17  and  C_24
    7  A    between atoms: N_23  and  C_27
                            x       y       z     vdW  Elec       q    Type
                         _______ _______ _______ _____ _____    ______ ____

>  <TORSDO>
F 7

$$$$
=
 OpenBabel10222415543D

 29 32  0  0  1  0  0  0  0  0999 V2000
  185.6160  178.2320  145.5450 C   0  0  0  0  0  3  0  0  0  0  0  0
  187.8240  177.4540  142.6670 C   0  0  0  0  0  0  0  0  0  0  0  0
  189.1570  177.6760  140.6250 N   0  0  0  0  0  0  0  0  0  0  0  0
  186.7450  177.8230  144.8240 C   0  0  0  0  0  0  0  0  0  0  0  0
  188.9810  177.0150  143.3330 C   0  0  0  0  0  0  0  0  0  0  0  0
  187.9110  177.3760  145.4800 C   0  0  0  0  0  0  0  0  0  0  0  0
  189.0180  176.9750  144.7270 C   0  0  0  0  0  3  0  0  0  0  0  0
  190.2450  177.2750  141.2170 C   0  0  0  0  0  0  0  0  0  0  0  0
  185.5320  178.2940  142.7750 C   0  0  0  0  0  3  0  0  0  0  0  0
  186.7000  177.8560  143.4110 C   0  0  0  0  0  0  0  0  0  0  0  0
  187.8160  177.4270  141.1620 C   0  0  0  0  0  2  0  0  0  0  0  0
  190.1690  176.5540  142.5430 C   0  0  0  0  0  2  0  0  0  0  0  0
  184.4980  178.6520  144.8950 N   0  0  0  0  0  0  0  0  0  0  0  0
  184.4270  178.6960  143.5360 C   0  0  0  0  0  0  0  0  0  0  0  0
  181.7420  178.3900  141.5340 N   0  0  0  0  0  2  0  0  0  0  0  0
  183.0030  178.9110  141.5830 O   0  0  0  0  0  0  0  0  0  0  0  0
  180.9830  179.0120  142.6190 C   0  0  2  0  0  3  0  0  0  0  0  0
  183.2220  179.1410  142.9010 N   0  0  0  0  0  0  0  0  0  0  0  0
  182.0100  179.3910  143.6340 C   0  0  0  0  0  2  0  0  0  0  0  0
  179.0700  178.6890  144.0850 N   0  0  0  0  0  1  0  0  0  0  0  0
  180.0160  178.0080  143.2190 C   0  0  0  0  0  2  0  0  0  0  0  0
  191.4750  177.5220  140.6060 O   0  0  0  0  0  0  0  0  0  0  0  0
  191.8150  176.9840  139.3360 C   0  0  0  0  0  1  0  0  0  0  0  0
  188.0110  177.3380  146.9710 C   0  0  0  0  0  2  0  0  0  0  0  0
  189.4330  177.6500  147.4080 C   0  0  0  0  0  2  0  0  0  0  0  0
  190.2200  176.3660  147.6150 C   0  0  0  0  0  2  0  0  0  0  0  0
  191.9700  177.0200  146.1340 O   0  0  0  0  0  0  0  0  0  0  0  0
  191.6550  176.5620  147.2640 C   0  0  0  0  0  0  0  0  0  0  0  0
  192.6470  176.2110  148.1690 O   0  0  0  0  0  1  0  0  0  0  0  0
  2  5  2  0  0  0  0
  2 10  1  0  0  0  0
  3 11  1  0  0  0  0
  3  8  2  0  0  0  0
  4  6  1  0  0  0  0
  4  1  2  0  0  0  0
  5  7  1  0  0  0  0
  6 24  1  0  0  0  0
  7  6  2  0  0  0  0
  8 12  1  0  0  0  0
  9 10  2  0  0  0  0
  9 14  1  0  0  0  0
 10  4  1  0  0  0  0
 11  2  1  0  0  0  0
 12  5  1  0  0  0  0
 13  1  1  0  0  0  0
 14 13  2  0  0  0  0
 15 16  1  0  0  0  0
 15 17  1  0  0  0  0
 16 18  1  0  0  0  0
 17 21  1  1  0  0  0
 17 19  1  0  0  0  0
 18 14  1  0  0  0  0
 18 19  1  0  0  0  0
 21 20  1  0  0  0  0
 22  8  1  0  0  0  0
 23 22  1  0  0  0  0
 24 25  1  0  0  0  0
 25 26  1  0  0  0  0
 27 28  2  0  0  0  0
 28 26  1  0  0  0  0
 28 29  1  0  0  0  0
M  END
>  <MODEL>
5

>  <REMARK>
 VINA RESULT:      -8.3      1.769      6.085
  Name = 
  7 active torsions:
  status: ('A' for Active; 'I' for Inactive)
    1  A    between atoms: C_2  and  C_16
    2  A    between atoms: C_2  and  C_17
    3  A    between atoms: O_6  and  C_13
    4  A    between atoms: C_11  and  C_24
    5  A    between atoms: C_15  and  C_18
    6  A    between atoms: C_17  and  C_24
    7  A    between atoms: N_23  and  C_27
                            x       y       z     vdW  Elec       q    Type
                         _______ _______ _______ _____ _____    ______ ____

>  <TORSDO>
F 7

$$$$
=
 OpenBabel10222415543D

 29 32  0  0  1  0  0  0  0  0999 V2000
  186.8590  178.5720  140.6910 C   0  0  0  0  0  3  0  0  0  0  0  0
  188.3100  177.3150  143.8660 C   0  0  0  0  0  0  0  0  0  0  0  0
  189.8050  176.9870  145.7770 N   0  0  0  0  0  0  0  0  0  0  0  0
  186.9830  178.2650  142.0520 C   0  0  0  0  0  0  0  0  0  0  0  0
  187.2800  177.6270  144.7690 C   0  0  0  0  0  0  0  0  0  0  0  0
  185.9560  178.5700  142.9690 C   0  0  0  0  0  0  0  0  0  0  0  0
  186.1140  178.2480  144.3190 C   0  0  0  0  0  3  0  0  0  0  0  0
  188.8710  177.2760  146.6370 C   0  0  0  0  0  0  0  0  0  0  0  0
  189.1700  177.3230  141.5790 C   0  0  0  0  0  3  0  0  0  0  0  0
  188.1630  177.6280  142.5030 C   0  0  0  0  0  0  0  0  0  0  0  0
  189.5250  176.5970  144.3930 C   0  0  0  0  0  2  0  0  0  0  0  0
  187.4190  177.2640  146.2170 C   0  0  0  0  0  2  0  0  0  0  0  0
  187.8580  178.2630  139.8220 N   0  0  0  0  0  0  0  0  0  0  0  0
  189.0040  177.6520  140.2270 C   0  0  0  0  0  0  0  0  0  0  0  0
  190.9160  175.6090  138.3610 N   0  0  0  0  0  2  0  0  0  0  0  0
  190.9250  176.3580  139.5020 O   0  0  0  0  0  0  0  0  0  0  0  0
  190.6450  176.5260  137.2540 C   0  0  2  0  0  3  0  0  0  0  0  0
  190.0220  177.3420  139.2670 N   0  0  0  0  0  0  0  0  0  0  0  0
  189.8880  177.6540  137.8700 C   0  0  0  0  0  2  0  0  0  0  0  0
  188.6430  176.6770  135.8810 N   0  0  0  0  0  1  0  0  0  0  0  0
  189.7840  175.8410  136.2090 C   0  0  0  0  0  2  0  0  0  0  0  0
  189.2350  177.5940  147.9460 O   0  0  0  0  0  0  0  0  0  0  0  0
  188.3500  178.2460  148.8450 C   0  0  0  0  0  1  0  0  0  0  0  0
  184.6970  179.2560  142.5420 C   0  0  0  0  0  2  0  0  0  0  0  0
  183.7180  178.2420  141.9720 C   0  0  0  0  0  2  0  0  0  0  0  0
  182.8650  178.8790  140.8870 C   0  0  0  0  0  2  0  0  0  0  0  0
  183.7520  177.8910  138.9070 O   0  0  0  0  0  0  0  0  0  0  0  0
  183.6070  178.9350  139.5960 C   0  0  0  0  0  0  0  0  0  0  0  0
  184.1650  180.1310  139.1660 O   0  0  0  0  0  1  0  0  0  0  0  0
  1  4  1  0  0  0  0
  2 11  1  0  0  0  0
  2  5  1  0  0  0  0
  3  8  2  0  0  0  0
  4 10  1  0  0  0  0
  4  6  2  0  0  0  0
  5 12  1  0  0  0  0
  6  7  1  0  0  0  0
  7  5  2  0  0  0  0
  8 22  1  0  0  0  0
  9 10  1  0  0  0  0
 10  2  2  0  0  0  0
 11  3  1  0  0  0  0
 12  8  1  0  0  0  0
 13 14  1  0  0  0  0
 13  1  2  0  0  0  0
 14  9  2  0  0  0  0
 15 16  1  0  0  0  0
 17 21  1  6  0  0  0
 17 19  1  0  0  0  0
 17 15  1  0  0  0  0
 18 16  1  0  0  0  0
 18 14  1  0  0  0  0
 19 18  1  0  0  0  0
 20 21  1  0  0  0  0
 22 23  1  0  0  0  0
 24  6  1  0  0  0  0
 25 24  1  0  0  0  0
 26 25  1  0  0  0  0
 27 28  2  0  0  0  0
 28 26  1  0  0  0  0
 29 28  1  0  0  0  0
M  END
>  <MODEL>
6

>  <REMARK>
 VINA RESULT:      -8.2      2.249      5.810
  Name = 
  7 active torsions:
  status: ('A' for Active; 'I' for Inactive)
    1  A    between atoms: C_2  and  C_16
    2  A    between atoms: C_2  and  C_17
    3  A    between atoms: O_6  and  C_13
    4  A    between atoms: C_11  and  C_24
    5  A    between atoms: C_15  and  C_18
    6  A    between atoms: C_17  and  C_24
    7  A    between atoms: N_23  and  C_27
                            x       y       z     vdW  Elec       q    Type
                         _______ _______ _______ _____ _____    ______ ____

>  <TORSDO>
F 7

$$$$
=
 OpenBabel10222415543D

 29 32  0  0  1  0  0  0  0  0999 V2000
  189.7130  177.0930  141.8890 C   0  0  0  0  0  3  0  0  0  0  0  0
  186.3020  178.5530  141.9390 C   0  0  0  0  0  0  0  0  0  0  0  0
  183.9340  178.9600  141.4690 N   0  0  0  0  0  0  0  0  0  0  0  0
  188.4720  177.5250  142.3740 C   0  0  0  0  0  0  0  0  0  0  0  0
  185.9720  178.4070  143.2960 C   0  0  0  0  0  0  0  0  0  0  0  0
  188.1290  177.3880  143.7350 C   0  0  0  0  0  0  0  0  0  0  0  0
  186.8820  177.8310  144.1840 C   0  0  0  0  0  3  0  0  0  0  0  0
  183.5980  178.8260  142.7210 C   0  0  0  0  0  0  0  0  0  0  0  0
  187.9140  178.2540  140.1270 C   0  0  0  0  0  3  0  0  0  0  0  0
  187.5560  178.1160  141.4730 C   0  0  0  0  0  0  0  0  0  0  0  0
  185.3070  179.2290  141.0340 C   0  0  0  0  0  2  0  0  0  0  0  0
  184.6510  178.9010  143.8030 C   0  0  0  0  0  2  0  0  0  0  0  0
  190.0270  177.2410  140.5740 N   0  0  0  0  0  0  0  0  0  0  0  0
  189.1650  177.8040  139.6850 C   0  0  0  0  0  0  0  0  0  0  0  0
  190.0100  176.6890  136.6250 N   0  0  0  0  0  2  0  0  0  0  0  0
  190.5390  177.1790  137.7850 O   0  0  0  0  0  0  0  0  0  0  0  0
  189.1010  177.7130  136.1090 C   0  0  2  0  0  3  0  0  0  0  0  0
  189.5500  177.9430  138.3110 N   0  0  0  0  0  0  0  0  0  0  0  0
  188.6690  178.4820  137.3120 C   0  0  0  0  0  2  0  0  0  0  0  0
  187.1410  178.0480  134.7090 N   0  0  0  0  0  1  0  0  0  0  0  0
  187.8970  177.0600  135.4570 C   0  0  0  0  0  2  0  0  0  0  0  0
  182.2560  178.6140  143.0400 O   0  0  0  0  0  0  0  0  0  0  0  0
  181.2090  178.8340  142.1060 C   0  0  0  0  0  1  0  0  0  0  0  0
  189.0590  176.7560  144.7220 C   0  0  0  0  0  2  0  0  0  0  0  0
  189.3920  177.7420  145.8310 C   0  0  0  0  0  2  0  0  0  0  0  0
  189.2030  177.0940  147.1930 C   0  0  0  0  0  2  0  0  0  0  0  0
  188.3060  177.9720  149.2200 O   0  0  0  0  0  1  0  0  0  0  0  0
  188.1600  177.8120  147.9790 C   0  0  0  0  0  0  0  0  0  0  0  0
  187.0120  178.2760  147.3520 O   0  0  0  0  0  0  0  0  0  0  0  0
  1  4  1  0  0  0  0
  2  5  1  0  0  0  0
  3  8  2  0  0  0  0
  4  6  2  0  0  0  0
  5 12  1  0  0  0  0
  5  7  2  0  0  0  0
  6  7  1  0  0  0  0
  6 24  1  0  0  0  0
  8 22  1  0  0  0  0
  8 12  1  0  0  0  0
  9 10  1  0  0  0  0
 10  2  2  0  0  0  0
 10  4  1  0  0  0  0
 11  3  1  0  0  0  0
 11  2  1  0  0  0  0
 13  1  2  0  0  0  0
 14  9  2  0  0  0  0
 14 13  1  0  0  0  0
 15 16  1  0  0  0  0
 16 18  1  0  0  0  0
 17 21  1  1  0  0  0
 17 15  1  0  0  0  0
 17 19  1  0  0  0  0
 18 14  1  0  0  0  0
 19 18  1  0  0  0  0
 20 21  1  0  0  0  0
 23 22  1  0  0  0  0
 24 25  1  0  0  0  0
 25 26  1  0  0  0  0
 26 28  1  0  0  0  0
 28 27  1  0  0  0  0
 29 28  2  0  0  0  0
M  END
>  <MODEL>
7

>  <REMARK>
 VINA RESULT:      -8.1      1.870      2.214
  Name = 
  7 active torsions:
  status: ('A' for Active; 'I' for Inactive)
    1  A    between atoms: C_2  and  C_16
    2  A    between atoms: C_2  and  C_17
    3  A    between atoms: O_6  and  C_13
    4  A    between atoms: C_11  and  C_24
    5  A    between atoms: C_15  and  C_18
    6  A    between atoms: C_17  and  C_24
    7  A    between atoms: N_23  and  C_27
                            x       y       z     vdW  Elec       q    Type
                         _______ _______ _______ _____ _____    ______ ____

>  <TORSDO>
F 7

$$$$
=
 OpenBabel10222415543D

 29 32  0  0  1  0  0  0  0  0999 V2000
  188.2370  177.5270  143.7240 C   0  0  0  0  0  3  0  0  0  0  0  0
  185.0820  178.5920  142.0860 C   0  0  0  0  0  0  0  0  0  0  0  0
  183.1360  178.6660  140.6020 N   0  0  0  0  0  0  0  0  0  0  0  0
  186.8910  177.8800  143.5610 C   0  0  0  0  0  0  0  0  0  0  0  0
  184.2040  178.5940  143.1820 C   0  0  0  0  0  0  0  0  0  0  0  0
  185.9990  177.8890  144.6530 C   0  0  0  0  0  0  0  0  0  0  0  0
  184.6630  178.2480  144.4530 C   0  0  0  0  0  3  0  0  0  0  0  0
  182.2980  178.6650  141.5990 C   0  0  0  0  0  0  0  0  0  0  0  0
  187.3310  178.2330  141.2000 C   0  0  0  0  0  3  0  0  0  0  0  0
  186.4310  178.2390  142.2720 C   0  0  0  0  0  0  0  0  0  0  0  0
  184.5490  179.0250  140.7460 C   0  0  0  0  0  2  0  0  0  0  0  0
  182.7730  179.0020  142.9940 C   0  0  0  0  0  2  0  0  0  0  0  0
  189.0830  177.5310  142.6590 N   0  0  0  0  0  0  0  0  0  0  0  0
  188.6680  177.8700  141.4080 C   0  0  0  0  0  0  0  0  0  0  0  0
  190.5930  176.4440  139.0470 N   0  0  0  0  0  2  0  0  0  0  0  0
  190.6380  176.9880  140.2990 O   0  0  0  0  0  0  0  0  0  0  0  0
  190.0950  177.4870  138.1500 C   0  0  2  0  0  3  0  0  0  0  0  0
  189.6040  177.8650  140.3230 N   0  0  0  0  0  0  0  0  0  0  0  0
  189.2810  178.3830  139.0210 C   0  0  0  0  0  2  0  0  0  0  0  0
  188.2050  176.0260  137.6920 N   0  0  0  0  0  1  0  0  0  0  0  0
  189.2120  176.8730  137.0790 C   0  0  0  0  0  2  0  0  0  0  0  0
  180.9610  178.3510  141.3550 O   0  0  0  0  0  0  0  0  0  0  0  0
  179.8990  178.8800  142.1360 C   0  0  0  0  0  1  0  0  0  0  0  0
  186.4360  177.5040  146.0310 C   0  0  0  0  0  2  0  0  0  0  0  0
  186.0630  178.5950  147.0210 C   0  0  0  0  0  2  0  0  0  0  0  0
  187.3050  179.1270  147.7180 C   0  0  0  0  0  2  0  0  0  0  0  0
  187.9290  177.2230  149.0100 O   0  0  0  0  0  1  0  0  0  0  0  0
  188.2280  178.0130  148.0770 C   0  0  0  0  0  0  0  0  0  0  0  0
  189.4330  177.8640  147.4040 O   0  0  0  0  0  0  0  0  0  0  0  0
  2 10  2  0  0  0  0
  2  5  1  0  0  0  0
  3 11  1  0  0  0  0
  3  8  2  0  0  0  0
  4  1  1  0  0  0  0
  4  6  2  0  0  0  0
  5  7  2  0  0  0  0
  6 24  1  0  0  0  0
  7  6  1  0  0  0  0
  8 12  1  0  0  0  0
  9 14  2  0  0  0  0
  9 10  1  0  0  0  0
 10  4  1  0  0  0  0
 11  2  1  0  0  0  0
 12  5  1  0  0  0  0
 13  1  2  0  0  0  0
 14 13  1  0  0  0  0
 15 16  1  0  0  0  0
 16 18  1  0  0  0  0
 17 21  1  6  0  0  0
 17 19  1  0  0  0  0
 17 15  1  0  0  0  0
 18 14  1  0  0  0  0
 19 18  1  0  0  0  0
 21 20  1  0  0  0  0
 22  8  1  0  0  0  0
 22 23  1  0  0  0  0
 24 25  1  0  0  0  0
 25 26  1  0  0  0  0
 26 28  1  0  0  0  0
 28 27  1  0  0  0  0
 29 28  2  0  0  0  0
M  END
>  <MODEL>
8

>  <REMARK>
 VINA RESULT:      -7.9      1.757      2.222
  Name = 
  7 active torsions:
  status: ('A' for Active; 'I' for Inactive)
    1  A    between atoms: C_2  and  C_16
    2  A    between atoms: C_2  and  C_17
    3  A    between atoms: O_6  and  C_13
    4  A    between atoms: C_11  and  C_24
    5  A    between atoms: C_15  and  C_18
    6  A    between atoms: C_17  and  C_24
    7  A    between atoms: N_23  and  C_27
                            x       y       z     vdW  Elec       q    Type
                         _______ _______ _______ _____ _____    ______ ____

>  <TORSDO>
F 7

$$$$
=
 OpenBabel10222415543D

 29 32  0  0  1  0  0  0  0  0999 V2000
  185.6740  178.4980  140.8630 C   0  0  0  0  0  3  0  0  0  0  0  0
  186.9440  178.1200  144.3290 C   0  0  0  0  0  0  0  0  0  0  0  0
  187.3320  177.2600  146.5890 N   0  0  0  0  0  0  0  0  0  0  0  0
  186.5710  178.3440  141.9280 C   0  0  0  0  0  0  0  0  0  0  0  0
  188.3260  178.0360  144.0960 C   0  0  0  0  0  0  0  0  0  0  0  0
  187.9610  178.2610  141.7090 C   0  0  0  0  0  0  0  0  0  0  0  0
  188.8260  178.1080  142.7960 C   0  0  0  0  0  3  0  0  0  0  0  0
  188.6180  177.1680  146.3990 C   0  0  0  0  0  0  0  0  0  0  0  0
  184.6780  178.3720  143.4480 C   0  0  0  0  0  3  0  0  0  0  0  0
  186.0600  178.2790  143.2460 C   0  0  0  0  0  0  0  0  0  0  0  0
  186.4590  178.0900  145.7550 C   0  0  0  0  0  2  0  0  0  0  0  0
  189.2730  177.9000  145.2510 C   0  0  0  0  0  2  0  0  0  0  0  0
  184.3370  178.5830  141.0960 N   0  0  0  0  0  0  0  0  0  0  0  0
  183.8180  178.5230  142.3530 C   0  0  0  0  0  0  0  0  0  0  0  0
  180.9400  180.1230  143.0410 N   0  0  0  0  0  2  0  0  0  0  0  0
  181.8870  179.3090  143.5940 O   0  0  0  0  0  0  0  0  0  0  0  0
  180.3810  179.4050  141.8960 C   0  0  2  0  0  3  0  0  0  0  0  0
  182.4010  178.6260  142.5430 N   0  0  0  0  0  0  0  0  0  0  0  0
  181.4640  178.4750  141.4630 C   0  0  0  0  0  2  0  0  0  0  0  0
  179.2640  181.4780  141.2880 N   0  0  0  0  0  1  0  0  0  0  0  0
  180.0620  180.3780  140.7760 C   0  0  0  0  0  2  0  0  0  0  0  0
  189.3720  176.3850  147.2740 O   0  0  0  0  0  0  0  0  0  0  0  0
  190.7880  176.4700  147.3410 C   0  0  0  0  0  1  0  0  0  0  0  0
  188.5460  178.3090  140.3330 C   0  0  0  0  0  2  0  0  0  0  0  0
  189.4300  177.0940  140.0990 C   0  0  0  0  0  2  0  0  0  0  0  0
  190.7500  177.5100  139.4690 C   0  0  0  0  0  2  0  0  0  0  0  0
  190.7840  175.2550  138.6970 O   0  0  0  0  0  1  0  0  0  0  0  0
  191.3660  176.3710  138.7320 C   0  0  0  0  0  0  0  0  0  0  0  0
  192.5970  176.5300  138.1090 O   0  0  0  0  0  0  0  0  0  0  0  0
  1 13  2  0  0  0  0
  1  4  1  0  0  0  0
  2 11  1  0  0  0  0
  4 10  1  0  0  0  0
  5  2  1  0  0  0  0
  5 12  1  0  0  0  0
  6  4  2  0  0  0  0
  6  7  1  0  0  0  0
  7  5  2  0  0  0  0
  8  3  2  0  0  0  0
  8 22  1  0  0  0  0
 10  9  1  0  0  0  0
 10  2  2  0  0  0  0
 11  3  1  0  0  0  0
 12  8  1  0  0  0  0
 13 14  1  0  0  0  0
 14 18  1  0  0  0  0
 14  9  2  0  0  0  0
 15 16  1  0  0  0  0
 17 21  1  6  0  0  0
 17 15  1  0  0  0  0
 18 16  1  0  0  0  0
 19 17  1  0  0  0  0
 19 18  1  0  0  0  0
 21 20  1  0  0  0  0
 22 23  1  0  0  0  0
 24  6  1  0  0  0  0
 25 24  1  0  0  0  0
 26 25  1  0  0  0  0
 27 28  1  0  0  0  0
 28 26  1  0  0  0  0
 29 28  2  0  0  0  0
M  END
>  <MODEL>
9

>  <REMARK>
 VINA RESULT:      -7.7      2.423      6.896
  Name = 
  7 active torsions:
  status: ('A' for Active; 'I' for Inactive)
    1  A    between atoms: C_2  and  C_16
    2  A    between atoms: C_2  and  C_17
    3  A    between atoms: O_6  and  C_13
    4  A    between atoms: C_11  and  C_24
    5  A    between atoms: C_15  and  C_18
    6  A    between atoms: C_17  and  C_24
    7  A    between atoms: N_23  and  C_27
                            x       y       z     vdW  Elec       q    Type
                         _______ _______ _______ _____ _____    ______ ____

>  <TORSDO>
F 7

$$$$
