=
 OpenBabel10222417553D

 33 39  0  0  1  0  0  0  0  0999 V2000
  190.6860  176.7540  137.2420 C   0  0  0  0  0  0  0  0  0  0  0  0
  189.3530  178.2430  142.7950 C   0  0  1  0  0  3  0  0  0  0  0  0
  190.4900  177.3890  146.0310 N   0  0  0  0  0  0  0  0  0  0  0  0
  188.5570  177.5150  138.1900 C   0  0  0  0  0  3  0  0  0  0  0  0
  191.9040  176.8330  139.2170 C   0  0  0  0  0  3  0  0  0  0  0  0
  192.0690  176.4890  137.7600 C   0  0  0  0  0  3  0  0  0  0  0  0
  190.6480  177.2100  139.3990 C   0  0  0  0  0  0  0  0  0  0  0  0
  188.0010  177.7040  144.8220 N   0  0  0  0  0  0  0  0  0  0  0  0
  189.1040  177.2440  143.9400 C   0  0  2  0  0  3  0  0  0  0  0  0
  191.7440  177.2340  143.9500 C   0  0  0  0  0  2  0  0  0  0  0  0
  190.0250  177.6250  140.5760 C   0  0  0  0  0  0  0  0  0  0  0  0
  186.5850  178.2640  139.3970 O   0  0  0  0  0  1  0  0  0  0  0  0
  189.4240  177.4390  146.7390 C   0  0  0  0  0  0  0  0  0  0  0  0
  190.4830  177.7300  141.9460 C   0  0  0  0  0  0  0  0  0  0  0  0
  187.1870  177.8490  147.1550 C   0  0  0  0  0  2  0  0  0  0  0  0
  189.3490  178.0840  148.0570 C   0  0  0  0  0  2  0  0  0  0  0  0
  191.5790  177.1880  142.4620 C   0  0  0  0  0  3  0  0  0  0  0  0
  188.2180  178.3110  141.8650 N   0  0  0  0  0  2  0  0  0  0  0  0
  190.4410  176.8610  144.6870 C   0  0  1  0  0  3  0  0  0  0  0  0
  187.9300  178.1270  148.3910 N   0  0  0  0  0  2  0  0  0  0  0  0
  188.1060  177.1290  146.1730 C   0  0  1  0  0  3  0  0  0  0  0  0
  189.9180  177.1660  138.2300 C   0  0  1  0  0  3  0  0  0  0  0  0
  187.9310  177.9210  139.3880 C   0  0  0  0  0  0  0  0  0  0  0  0
  188.6930  177.9670  140.5680 C   0  0  0  0  0  0  0  0  0  0  0  0
  190.2550  176.5960  135.9250 O   0  0  0  0  0  0  0  0  0  0  0  0
  189.9220  175.3210  135.4020 C   0  0  0  0  0  1  0  0  0  0  0  0
  186.7680  177.1850  144.2330 C   0  0  0  0  0  2  0  0  0  0  0  0
  183.6090  179.2960  144.7930 C   0  0  0  0  0  2  0  0  0  0  0  0
  185.7640  178.3050  143.9950 C   0  0  2  0  0  3  0  0  0  0  0  0
  184.6850  178.2510  145.0710 C   0  0  0  0  0  2  0  0  0  0  0  0
  184.1560  179.2530  142.4070 N   0  0  0  0  0  2  0  0  0  0  0  0
  183.0710  179.1100  143.3760 C   0  0  0  0  0  2  0  0  0  0  0  0
  185.1160  178.1710  142.6170 C   0  0  0  0  0  2  0  0  0  0  0  0
  1  6  2  0  0  0  0
  1 22  1  0  0  0  0
  2 18  1  6  0  0  0
  2  9  1  0  0  0  0
  3 13  2  0  0  0  0
  4 23  2  0  0  0  0
  5  7  2  0  0  0  0
  6  5  1  0  0  0  0
  7 11  1  0  0  0  0
  8 21  1  0  0  0  0
  9 19  1  0  0  0  0
  9  8  1  1  0  0  0
 11 14  1  0  0  0  0
 13 16  1  0  0  0  0
 14 17  2  0  0  0  0
 14  2  1  0  0  0  0
 15 20  1  0  0  0  0
 16 20  1  0  0  0  0
 17 10  1  0  0  0  0
 19 10  1  6  0  0  0
 19  3  1  0  0  0  0
 21 13  1  0  0  0  0
 21 15  1  1  0  0  0
 22  4  1  1  0  0  0
 22  7  1  0  0  0  0
 23 12  1  0  0  0  0
 23 24  1  0  0  0  0
 24 11  2  0  0  0  0
 24 18  1  0  0  0  0
 25  1  1  0  0  0  0
 26 25  1  0  0  0  0
 27  8  1  0  0  0  0
 28 30  1  0  0  0  0
 29 27  1  1  0  0  0
 29 30  1  0  0  0  0
 31 33  1  0  0  0  0
 31 32  1  0  0  0  0
 32 28  1  0  0  0  0
 33 29  1  0  0  0  0
M  END
>  <MODEL>
1

>  <REMARK>
 VINA RESULT:     -10.2      0.000      0.000
  Name = 
  3 active torsions:
  status: ('A' for Active; 'I' for Inactive)
    1  A    between atoms: C_1  and  O_13
    2  A    between atoms: C_3  and  C_7
    3  A    between atoms: C_7  and  N_11
                            x       y       z     vdW  Elec       q    Type
                         _______ _______ _______ _____ _____    ______ ____

>  <TORSDO>
F 3

$$$$
=
 OpenBabel10222417553D

 33 39  0  0  1  0  0  0  0  0999 V2000
  189.1300  176.9850  146.2140 C   0  0  0  0  0  0  0  0  0  0  0  0
  184.8280  179.0520  142.7420 C   0  0  1  0  0  3  0  0  0  0  0  0
  181.3220  179.4450  142.9490 N   0  0  0  0  0  0  0  0  0  0  0  0
  188.9960  177.0630  143.7670 C   0  0  0  0  0  3  0  0  0  0  0  0
  187.0660  177.9630  146.6290 C   0  0  0  0  0  3  0  0  0  0  0  0
  188.2510  177.3920  147.3600 C   0  0  0  0  0  2  0  0  0  0  0  0
  187.3090  177.8610  145.3310 C   0  0  0  0  0  0  0  0  0  0  0  0
  183.1020  178.5050  141.0250 N   0  0  0  0  0  0  0  0  0  0  0  0
  183.5090  178.3170  142.4400 C   0  0  2  0  0  3  0  0  0  0  0  0
  182.8930  179.3210  144.8040 C   0  0  0  0  0  2  0  0  0  0  0  0
  186.5080  178.2580  144.2610 C   0  0  0  0  0  0  0  0  0  0  0  0
  188.5840  177.2510  141.3790 O   0  0  0  0  0  1  0  0  0  0  0  0
  180.9320  179.2400  141.7460 C   0  0  0  0  0  0  0  0  0  0  0  0
  185.1810  178.8340  144.1880 C   0  0  0  0  0  0  0  0  0  0  0  0
  181.1960  178.8450  139.4830 C   0  0  0  0  0  2  0  0  0  0  0  0
  179.9510  180.0850  141.0500 C   0  0  0  0  0  2  0  0  0  0  0  0
  184.2800  178.8840  145.1610 C   0  0  0  0  0  3  0  0  0  0  0  0
  185.9630  178.4700  142.0120 N   0  0  0  0  0  2  0  0  0  0  0  0
  182.3930  178.6520  143.5060 C   0  0  1  0  0  3  0  0  0  0  0  0
  179.9840  179.6550  139.6560 N   0  0  0  0  0  2  0  0  0  0  0  0
  181.6520  178.3310  140.8450 C   0  0  1  0  0  3  0  0  0  0  0  0
  188.5330  177.2810  145.0770 C   0  0  0  0  0  0  0  0  0  0  0  0
  188.1730  177.4560  142.6900 C   0  0  0  0  0  0  0  0  0  0  0  0
  186.9310  178.0530  142.9690 C   0  0  0  0  0  0  0  0  0  0  0  0
  190.3850  176.3830  146.3100 O   0  0  0  0  0  0  0  0  0  0  0  0
  191.3080  176.7520  147.3210 C   0  0  0  0  0  1  0  0  0  0  0  0
  183.7550  177.4360  140.2710 C   0  0  0  0  0  2  0  0  0  0  0  0
  184.4740  177.3400  136.4990 C   0  0  0  0  0  2  0  0  0  0  0  0
  184.2380  177.9390  138.9180 C   0  0  2  0  0  3  0  0  0  0  0  0
  183.9050  176.9070  137.8470 C   0  0  0  0  0  2  0  0  0  0  0  0
  186.1920  178.6680  137.6300 N   0  0  0  0  0  2  0  0  0  0  0  0
  185.9690  177.6150  136.6410 C   0  0  0  0  0  2  0  0  0  0  0  0
  185.7470  178.1850  138.9350 C   0  0  0  0  0  2  0  0  0  0  0  0
  1 25  1  0  0  0  0
  1  6  1  0  0  0  0
  2 18  1  6  0  0  0
  2 14  1  0  0  0  0
  3 19  1  0  0  0  0
  4 22  1  0  0  0  0
  5  6  1  0  0  0  0
  7  5  2  0  0  0  0
  9  8  1  6  0  0  0
  9  2  1  0  0  0  0
  9 19  1  0  0  0  0
 10 17  1  0  0  0  0
 11  7  1  0  0  0  0
 12 23  1  0  0  0  0
 13  3  2  0  0  0  0
 14 11  1  0  0  0  0
 14 17  2  0  0  0  0
 15 20  1  0  0  0  0
 16 13  1  0  0  0  0
 18 24  1  0  0  0  0
 19 10  1  1  0  0  0
 20 16  1  0  0  0  0
 21 15  1  6  0  0  0
 21  8  1  0  0  0  0
 21 13  1  0  0  0  0
 22  7  1  0  0  0  0
 22  1  2  0  0  0  0
 23 24  1  0  0  0  0
 23  4  2  0  0  0  0
 24 11  2  0  0  0  0
 25 26  1  0  0  0  0
 27  8  1  0  0  0  0
 28 32  1  0  0  0  0
 28 30  1  0  0  0  0
 29 33  1  0  0  0  0
 29 27  1  1  0  0  0
 30 29  1  0  0  0  0
 31 33  1  0  0  0  0
 32 31  1  0  0  0  0
M  END
>  <MODEL>
2

>  <REMARK>
 VINA RESULT:      -9.9      3.282      7.754
  Name = 
  3 active torsions:
  status: ('A' for Active; 'I' for Inactive)
    1  A    between atoms: C_1  and  O_13
    2  A    between atoms: C_3  and  C_7
    3  A    between atoms: C_7  and  N_11
                            x       y       z     vdW  Elec       q    Type
                         _______ _______ _______ _____ _____    ______ ____

>  <TORSDO>
F 3

$$$$
=
 OpenBabel10222417553D

 33 39  0  0  1  0  0  0  0  0999 V2000
  187.8150  177.4420  146.1720 C   0  0  0  0  0  0  0  0  0  0  0  0
  184.3200  179.1090  141.7190 C   0  0  1  0  0  3  0  0  0  0  0  0
  180.8440  179.2390  141.0860 N   0  0  0  0  0  0  0  0  0  0  0  0
  188.2560  177.4630  143.7600 C   0  0  0  0  0  3  0  0  0  0  0  0
  185.6490  178.2690  146.0580 C   0  0  0  0  0  3  0  0  0  0  0  0
  186.6660  177.8030  147.0660 C   0  0  0  0  0  2  0  0  0  0  0  0
  186.1970  178.1610  144.8570 C   0  0  0  0  0  0  0  0  0  0  0  0
  183.0890  178.3990  139.6670 N   0  0  0  0  0  0  0  0  0  0  0  0
  183.1630  178.2700  141.1440 C   0  0  2  0  0  3  0  0  0  0  0  0
  181.9390  179.2700  143.2610 C   0  0  0  0  0  2  0  0  0  0  0  0
  185.6460  178.4750  143.6160 C   0  0  0  0  0  0  0  0  0  0  0  0
  188.4060  177.5720  141.3370 O   0  0  0  0  0  1  0  0  0  0  0  0
  180.7650  178.9820  139.8340 C   0  0  0  0  0  0  0  0  0  0  0  0
  184.3360  178.9470  143.2140 C   0  0  0  0  0  0  0  0  0  0  0  0
  181.5800  178.5640  137.7110 C   0  0  0  0  0  2  0  0  0  0  0  0
  179.9190  179.7360  138.8980 C   0  0  0  0  0  2  0  0  0  0  0  0
  183.2300  178.9460  143.9470 C   0  0  0  0  0  3  0  0  0  0  0  0
  185.6320  178.6010  141.2960 N   0  0  0  0  0  2  0  0  0  0  0  0
  181.8070  178.5400  141.9070 C   0  0  1  0  0  3  0  0  0  0  0  0
  180.3090  179.2830  137.5670 N   0  0  0  0  0  2  0  0  0  0  0  0
  181.7370  178.1120  139.1600 C   0  0  1  0  0  3  0  0  0  0  0  0
  187.4840  177.6700  144.9180 C   0  0  0  0  0  0  0  0  0  0  0  0
  187.6850  177.7710  142.5070 C   0  0  0  0  0  0  0  0  0  0  0  0
  186.3740  178.2770  142.4670 C   0  0  0  0  0  0  0  0  0  0  0  0
  189.0510  176.9390  146.5800 O   0  0  0  0  0  0  0  0  0  0  0  0
  189.7040  177.4300  147.7400 C   0  0  0  0  0  1  0  0  0  0  0  0
  183.9740  177.3680  139.1260 C   0  0  0  0  0  2  0  0  0  0  0  0
  185.5900  177.2820  135.6440 C   0  0  0  0  0  2  0  0  0  0  0  0
  184.7420  177.8880  137.9190 C   0  0  2  0  0  3  0  0  0  0  0  0
  184.7360  176.8280  136.8240 C   0  0  0  0  0  2  0  0  0  0  0  0
  186.9060  178.7210  137.1250 N   0  0  0  0  0  2  0  0  0  0  0  0
  186.9890  177.6470  136.1370 C   0  0  0  0  0  2  0  0  0  0  0  0
  186.1850  178.2240  138.2950 C   0  0  0  0  0  2  0  0  0  0  0  0
  1 25  1  0  0  0  0
  1  6  1  0  0  0  0
  2 18  1  6  0  0  0
  2 14  1  0  0  0  0
  3 19  1  0  0  0  0
  4 22  1  0  0  0  0
  5  6  1  0  0  0  0
  7 22  1  0  0  0  0
  7  5  2  0  0  0  0
  9  8  1  6  0  0  0
  9  2  1  0  0  0  0
  9 19  1  0  0  0  0
 10 17  1  0  0  0  0
 11  7  1  0  0  0  0
 12 23  1  0  0  0  0
 13  3  2  0  0  0  0
 14 11  1  0  0  0  0
 14 17  2  0  0  0  0
 16 13  1  0  0  0  0
 18 24  1  0  0  0  0
 19 10  1  1  0  0  0
 20 15  1  0  0  0  0
 20 16  1  0  0  0  0
 21 15  1  6  0  0  0
 21  8  1  0  0  0  0
 21 13  1  0  0  0  0
 22  1  2  0  0  0  0
 23  4  2  0  0  0  0
 24 23  1  0  0  0  0
 24 11  2  0  0  0  0
 25 26  1  0  0  0  0
 27  8  1  0  0  0  0
 28 32  1  0  0  0  0
 28 30  1  0  0  0  0
 29 33  1  0  0  0  0
 29 27  1  1  0  0  0
 30 29  1  0  0  0  0
 31 33  1  0  0  0  0
 32 31  1  0  0  0  0
M  END
>  <MODEL>
3

>  <REMARK>
 VINA RESULT:      -9.7      3.355      8.447
  Name = 
  3 active torsions:
  status: ('A' for Active; 'I' for Inactive)
    1  A    between atoms: C_1  and  O_13
    2  A    between atoms: C_3  and  C_7
    3  A    between atoms: C_7  and  N_11
                            x       y       z     vdW  Elec       q    Type
                         _______ _______ _______ _____ _____    ______ ____

>  <TORSDO>
F 3

$$$$
=
 OpenBabel10222417553D

 33 39  0  0  1  0  0  0  0  0999 V2000
  187.3630  177.6990  135.7660 C   0  0  0  0  0  0  0  0  0  0  0  0
  188.9850  178.2530  141.4130 C   0  0  1  0  0  3  0  0  0  0  0  0
  191.4770  176.8930  143.5190 N   0  0  0  0  0  0  0  0  0  0  0  0
  186.0160  178.2760  137.7310 C   0  0  0  0  0  3  0  0  0  0  0  0
  189.3850  177.4660  136.8840 C   0  0  0  0  0  3  0  0  0  0  0  0
  188.8020  177.3640  135.4990 C   0  0  0  0  0  3  0  0  0  0  0  0
  188.4030  177.7970  137.7080 C   0  0  0  0  0  0  0  0  0  0  0  0
  188.7430  177.3790  143.7380 N   0  0  0  0  0  0  0  0  0  0  0  0
  189.2470  177.0790  142.3750 C   0  0  2  0  0  3  0  0  0  0  0  0
  191.5570  177.0900  141.0940 C   0  0  0  0  0  2  0  0  0  0  0  0
  188.4560  178.0100  139.0850 C   0  0  0  0  0  0  0  0  0  0  0  0
  184.9310  178.8010  139.8410 O   0  0  0  0  0  1  0  0  0  0  0  0
  190.8910  176.8180  144.6560 C   0  0  0  0  0  0  0  0  0  0  0  0
  189.5250  177.8950  140.0560 C   0  0  0  0  0  0  0  0  0  0  0  0
  189.1680  177.1350  146.1650 C   0  0  0  0  0  2  0  0  0  0  0  0
  191.5080  177.2400  145.9220 C   0  0  0  0  0  2  0  0  0  0  0  0
  190.6920  177.2860  139.8870 C   0  0  0  0  0  3  0  0  0  0  0  0
  187.5500  178.4610  141.1760 N   0  0  0  0  0  2  0  0  0  0  0  0
  190.7480  176.5910  142.3090 C   0  0  1  0  0  3  0  0  0  0  0  0
  190.4320  177.2160  146.9070 N   0  0  0  0  0  2  0  0  0  0  0  0
  189.4450  176.5930  144.7660 C   0  0  1  0  0  3  0  0  0  0  0  0
  187.1990  177.9370  137.0510 C   0  0  1  0  0  3  0  0  0  0  0  0
  186.0770  178.4760  139.1270 C   0  0  0  0  0  0  0  0  0  0  0  0
  187.3150  178.3360  139.7780 C   0  0  0  0  0  0  0  0  0  0  0  0
  186.3400  177.7530  134.8190 O   0  0  0  0  0  0  0  0  0  0  0  0
  185.4800  176.6480  134.5940 C   0  0  0  0  0  1  0  0  0  0  0  0
  187.3450  176.9520  143.7570 C   0  0  0  0  0  2  0  0  0  0  0  0
  184.9950  178.9050  146.0840 C   0  0  0  0  0  2  0  0  0  0  0  0
  186.4340  178.0860  144.2070 C   0  0  2  0  0  3  0  0  0  0  0  0
  185.9940  177.8380  145.6450 C   0  0  0  0  0  2  0  0  0  0  0  0
  184.3410  179.2770  143.7540 N   0  0  0  0  0  2  0  0  0  0  0  0
  183.8380  178.9600  145.0890 C   0  0  0  0  0  2  0  0  0  0  0  0
  185.2030  178.1850  143.3070 C   0  0  0  0  0  2  0  0  0  0  0  0
  1 22  1  0  0  0  0
  2 14  1  6  0  0  0
  2  9  1  0  0  0  0
  3 13  2  0  0  0  0
  4 23  2  0  0  0  0
  5  7  2  0  0  0  0
  6  1  2  0  0  0  0
  6  5  1  0  0  0  0
  7 11  1  0  0  0  0
  8 27  1  0  0  0  0
  8 21  1  0  0  0  0
  9  8  1  1  0  0  0
 11 24  2  0  0  0  0
 11 14  1  0  0  0  0
 13 21  1  0  0  0  0
 13 16  1  0  0  0  0
 15 20  1  0  0  0  0
 16 20  1  0  0  0  0
 17 14  2  0  0  0  0
 17 10  1  0  0  0  0
 18  2  1  0  0  0  0
 19 10  1  6  0  0  0
 19  9  1  0  0  0  0
 19  3  1  0  0  0  0
 21 15  1  1  0  0  0
 22  7  1  0  0  0  0
 22  4  1  1  0  0  0
 23 24  1  0  0  0  0
 23 12  1  0  0  0  0
 24 18  1  0  0  0  0
 25  1  1  0  0  0  0
 26 25  1  0  0  0  0
 29 27  1  6  0  0  0
 29 30  1  0  0  0  0
 30 28  1  0  0  0  0
 31 32  1  0  0  0  0
 32 28  1  0  0  0  0
 33 31  1  0  0  0  0
 33 29  1  0  0  0  0
M  END
>  <MODEL>
4

>  <REMARK>
 VINA RESULT:      -9.7      1.764      2.533
  Name = 
  3 active torsions:
  status: ('A' for Active; 'I' for Inactive)
    1  A    between atoms: C_1  and  O_13
    2  A    between atoms: C_3  and  C_7
    3  A    between atoms: C_7  and  N_11
                            x       y       z     vdW  Elec       q    Type
                         _______ _______ _______ _____ _____    ______ ____

>  <TORSDO>
F 3

$$$$
=
 OpenBabel10222417553D

 33 39  0  0  1  0  0  0  0  0999 V2000
  187.4380  177.5030  146.4300 C   0  0  0  0  0  0  0  0  0  0  0  0
  188.4240  178.3980  140.6810 C   0  0  1  0  0  3  0  0  0  0  0  0
  186.5000  178.4350  137.7160 N   0  0  0  0  0  0  0  0  0  0  0  0
  189.4660  177.1060  145.1100 C   0  0  0  0  0  3  0  0  0  0  0  0
  186.1340  178.3090  144.6860 C   0  0  0  0  0  3  0  0  0  0  0  0
  186.0550  178.0190  146.1620 C   0  0  0  0  0  2  0  0  0  0  0  0
  187.3550  177.9930  144.2810 C   0  0  0  0  0  0  0  0  0  0  0  0
  188.9500  177.3520  138.4760 N   0  0  0  0  0  0  0  0  0  0  0  0
  187.9300  177.4790  139.5480 C   0  0  2  0  0  3  0  0  0  0  0  0
  185.7060  178.8340  139.9820 C   0  0  0  0  0  2  0  0  0  0  0  0
  187.9020  178.0920  143.0020 C   0  0  0  0  0  0  0  0  0  0  0  0
  191.3130  176.7970  143.5610 O   0  0  0  0  0  1  0  0  0  0  0  0
  187.3060  177.9670  136.8370 C   0  0  0  0  0  0  0  0  0  0  0  0
  187.3480  178.4950  141.7260 C   0  0  0  0  0  0  0  0  0  0  0  0
  189.3290  177.1860  136.0360 C   0  0  0  0  0  2  0  0  0  0  0  0
  187.4880  178.5540  135.5020 C   0  0  0  0  0  2  0  0  0  0  0  0
  186.0630  178.6270  141.4220 C   0  0  0  0  0  3  0  0  0  0  0  0
  189.5640  177.8180  141.4030 N   0  0  0  0  0  2  0  0  0  0  0  0
  186.4870  177.8830  139.0510 C   0  0  1  0  0  3  0  0  0  0  0  0
  188.6490  177.8770  134.9330 N   0  0  0  0  0  2  0  0  0  0  0  0
  188.3450  176.9900  137.1840 C   0  0  1  0  0  3  0  0  0  0  0  0
  188.1350  177.5130  145.3120 C   0  0  0  0  0  0  0  0  0  0  0  0
  190.0060  177.1980  143.8090 C   0  0  0  0  0  0  0  0  0  0  0  0
  189.1980  177.6960  142.7730 C   0  0  0  0  0  0  0  0  0  0  0  0
  187.9330  177.0710  147.6610 O   0  0  0  0  0  0  0  0  0  0  0  0
  188.3480  177.9920  148.6560 C   0  0  0  0  0  1  0  0  0  0  0  0
  189.8140  176.2390  138.8690 C   0  0  0  0  0  2  0  0  0  0  0  0
  192.8820  174.9540  136.9510 C   0  0  0  0  0  2  0  0  0  0  0  0
  191.1540  176.3090  138.1510 C   0  0  2  0  0  3  0  0  0  0  0  0
  191.4940  174.9360  137.5830 C   0  0  0  0  0  2  0  0  0  0  0  0
  193.5390  176.8150  138.4010 N   0  0  0  0  0  2  0  0  0  0  0  0
  193.9000  175.4660  137.9690 C   0  0  0  0  0  2  0  0  0  0  0  0
  192.2610  176.7530  139.1070 C   0  0  0  0  0  2  0  0  0  0  0  0
  1 25  1  0  0  0  0
  2 18  1  1  0  0  0
  2 14  1  0  0  0  0
  3 19  1  0  0  0  0
  4 22  1  0  0  0  0
  5  6  1  0  0  0  0
  6  1  1  0  0  0  0
  7  5  2  0  0  0  0
  7 22  1  0  0  0  0
  8 27  1  0  0  0  0
  9  8  1  6  0  0  0
  9  2  1  0  0  0  0
 10 17  1  0  0  0  0
 11  7  1  0  0  0  0
 12 23  1  0  0  0  0
 13 21  1  0  0  0  0
 13  3  2  0  0  0  0
 14 11  1  0  0  0  0
 16 13  1  0  0  0  0
 17 14  2  0  0  0  0
 18 24  1  0  0  0  0
 19  9  1  0  0  0  0
 19 10  1  1  0  0  0
 20 16  1  0  0  0  0
 20 15  1  0  0  0  0
 21 15  1  6  0  0  0
 21  8  1  0  0  0  0
 22  1  2  0  0  0  0
 23  4  2  0  0  0  0
 24 11  2  0  0  0  0
 24 23  1  0  0  0  0
 25 26  1  0  0  0  0
 28 30  1  0  0  0  0
 28 32  1  0  0  0  0
 29 27  1  1  0  0  0
 29 33  1  0  0  0  0
 30 29  1  0  0  0  0
 31 33  1  0  0  0  0
 32 31  1  0  0  0  0
M  END
>  <MODEL>
5

>  <REMARK>
 VINA RESULT:      -9.1      3.000      8.700
  Name = 
  3 active torsions:
  status: ('A' for Active; 'I' for Inactive)
    1  A    between atoms: C_1  and  O_13
    2  A    between atoms: C_3  and  C_7
    3  A    between atoms: C_7  and  N_11
                            x       y       z     vdW  Elec       q    Type
                         _______ _______ _______ _____ _____    ______ ____

>  <TORSDO>
F 3

$$$$
=
 OpenBabel10222417553D

 33 39  0  0  1  0  0  0  0  0999 V2000
  181.2450  179.5250  142.2790 C   0  0  0  0  0  0  0  0  0  0  0  0
  186.4810  177.4110  143.9950 C   0  0  1  0  0  3  0  0  0  0  0  0
  188.5020  177.5840  146.8900 N   0  0  0  0  0  0  0  0  0  0  0  0
  183.2140  178.9450  140.9380 C   0  0  0  0  0  3  0  0  0  0  0  0
  182.1510  178.9680  144.3430 C   0  0  0  0  0  3  0  0  0  0  0  0
  180.8820  179.5040  143.7350 C   0  0  0  0  0  2  0  0  0  0  0  0
  183.0080  178.7540  143.3570 C   0  0  0  0  0  0  0  0  0  0  0  0
  188.9370  177.8220  144.1500 N   0  0  0  0  0  0  0  0  0  0  0  0
  187.6020  178.2470  144.6390 C   0  0  2  0  0  3  0  0  0  0  0  0
  186.0880  177.8720  146.7700 C   0  0  0  0  0  2  0  0  0  0  0  0
  184.3100  178.2580  143.4260 C   0  0  0  0  0  0  0  0  0  0  0  0
  185.3040  178.3140  139.8710 O   0  0  0  0  0  1  0  0  0  0  0  0
  189.6920  177.5810  146.4170 C   0  0  0  0  0  0  0  0  0  0  0  0
  185.1580  177.8780  144.5360 C   0  0  0  0  0  0  0  0  0  0  0  0
  191.3040  177.4410  144.7660 C   0  0  0  0  0  2  0  0  0  0  0  0
  190.7840  176.7580  146.9580 C   0  0  0  0  0  2  0  0  0  0  0  0
  184.9710  178.1690  145.8170 C   0  0  0  0  0  3  0  0  0  0  0  0
  186.3740  177.6510  142.5490 N   0  0  0  0  0  2  0  0  0  0  0  0
  187.4560  178.3130  146.2100 C   0  0  1  0  0  3  0  0  0  0  0  0
  191.8730  176.8710  145.9940 N   0  0  0  0  0  2  0  0  0  0  0  0
  190.0040  178.1620  145.1060 C   0  0  1  0  0  3  0  0  0  0  0  0
  182.4770  179.0830  142.1280 C   0  0  0  0  0  0  0  0  0  0  0  0
  184.5350  178.4550  141.0190 C   0  0  0  0  0  0  0  0  0  0  0  0
  185.0570  178.1180  142.2800 C   0  0  0  0  0  0  0  0  0  0  0  0
  180.4260  179.9440  141.2310 O   0  0  0  0  0  0  0  0  0  0  0  0
  179.3170  180.8000  141.4540 C   0  0  0  0  0  1  0  0  0  0  0  0
  189.1900  178.5990  142.9370 C   0  0  0  0  0  2  0  0  0  0  0  0
  190.9820  176.6930  140.1260 C   0  0  0  0  0  2  0  0  0  0  0  0
  189.3360  177.6870  141.7260 C   0  0  2  0  0  3  0  0  0  0  0  0
  190.8150  177.5150  141.4000 C   0  0  0  0  0  2  0  0  0  0  0  0
  188.7620  177.3860  139.3630 N   0  0  0  0  0  2  0  0  0  0  0  0
  190.1760  177.3300  138.9970 C   0  0  0  0  0  2  0  0  0  0  0  0
  188.6120  178.2740  140.5140 C   0  0  0  0  0  2  0  0  0  0  0  0
  1  6  1  0  0  0  0
  2 18  1  6  0  0  0
  2 14  1  0  0  0  0
  2  9  1  0  0  0  0
  4 23  2  0  0  0  0
  4 22  1  0  0  0  0
  6  5  1  0  0  0  0
  7 11  1  0  0  0  0
  7  5  2  0  0  0  0
  8 21  1  0  0  0  0
  9  8  1  1  0  0  0
  9 19  1  0  0  0  0
 11 14  1  0  0  0  0
 12 23  1  0  0  0  0
 13  3  2  0  0  0  0
 13 16  1  0  0  0  0
 14 17  2  0  0  0  0
 15 20  1  0  0  0  0
 17 10  1  0  0  0  0
 19 10  1  6  0  0  0
 19  3  1  0  0  0  0
 20 16  1  0  0  0  0
 21 15  1  6  0  0  0
 21 13  1  0  0  0  0
 22  1  2  0  0  0  0
 22  7  1  0  0  0  0
 23 24  1  0  0  0  0
 24 18  1  0  0  0  0
 24 11  2  0  0  0  0
 25 26  1  0  0  0  0
 25  1  1  0  0  0  0
 27  8  1  0  0  0  0
 28 30  1  0  0  0  0
 29 27  1  1  0  0  0
 30 29  1  0  0  0  0
 31 33  1  0  0  0  0
 32 31  1  0  0  0  0
 32 28  1  0  0  0  0
 33 29  1  0  0  0  0
M  END
>  <MODEL>
6

>  <REMARK>
 VINA RESULT:      -8.9      1.936      6.759
  Name = 
  3 active torsions:
  status: ('A' for Active; 'I' for Inactive)
    1  A    between atoms: C_1  and  O_13
    2  A    between atoms: C_3  and  C_7
    3  A    between atoms: C_7  and  N_11
                            x       y       z     vdW  Elec       q    Type
                         _______ _______ _______ _____ _____    ______ ____

>  <TORSDO>
F 3

$$$$
=
 OpenBabel10222417553D

 33 39  0  0  1  0  0  0  0  0999 V2000
  189.2530  176.7250  143.0560 C   0  0  0  0  0  0  0  0  0  0  0  0
  184.3410  179.4680  141.2740 C   0  0  1  0  0  3  0  0  0  0  0  0
  180.9240  179.4690  142.1760 N   0  0  0  0  0  0  0  0  0  0  0  0
  188.6710  177.6130  140.8460 C   0  0  0  0  0  3  0  0  0  0  0  0
  187.2780  177.3270  144.1180 C   0  0  0  0  0  3  0  0  0  0  0  0
  188.5910  176.6450  144.4000 C   0  0  0  0  0  2  0  0  0  0  0  0
  187.2820  177.6900  142.8440 C   0  0  0  0  0  0  0  0  0  0  0  0
  182.3430  179.3880  139.7810 N   0  0  0  0  0  0  0  0  0  0  0  0
  183.0060  178.7690  140.9560 C   0  0  2  0  0  3  0  0  0  0  0  0
  182.8110  178.8600  143.5880 C   0  0  0  0  0  2  0  0  0  0  0  0
  186.2890  178.3550  142.1250 C   0  0  0  0  0  0  0  0  0  0  0  0
  187.8250  178.5600  138.7740 O   0  0  0  0  0  1  0  0  0  0  0  0
  180.3250  179.6500  141.0580 C   0  0  0  0  0  0  0  0  0  0  0  0
  184.9580  178.8070  142.4750 C   0  0  0  0  0  0  0  0  0  0  0  0
  180.1790  180.0660  138.7880 C   0  0  0  0  0  2  0  0  0  0  0  0
  179.2140  180.5930  140.8700 C   0  0  0  0  0  2  0  0  0  0  0  0
  184.2500  178.4480  143.5380 C   0  0  0  0  0  3  0  0  0  0  0  0
  185.3360  179.2660  140.2120 N   0  0  0  0  0  2  0  0  0  0  0  0
  182.0970  178.6290  142.2400 C   0  0  1  0  0  3  0  0  0  0  0  0
  179.0010  180.6640  139.4280 N   0  0  0  0  0  2  0  0  0  0  0  0
  180.8880  179.1630  139.7930 C   0  0  1  0  0  3  0  0  0  0  0  0
  188.4520  177.3350  142.2070 C   0  0  0  0  0  0  0  0  0  0  0  0
  187.6560  178.2750  140.1230 C   0  0  0  0  0  0  0  0  0  0  0  0
  186.4730  178.6350  140.7910 C   0  0  0  0  0  0  0  0  0  0  0  0
  190.5180  176.2360  142.7300 O   0  0  0  0  0  0  0  0  0  0  0  0
  191.4530  175.8730  143.7320 C   0  0  0  0  0  1  0  0  0  0  0  0
  182.8720  178.6970  138.6060 C   0  0  0  0  0  2  0  0  0  0  0  0
  183.6360  174.9620  138.1400 C   0  0  0  0  0  2  0  0  0  0  0  0
  182.6600  177.1930  138.7180 C   0  0  2  0  0  3  0  0  0  0  0  0
  183.8700  176.4700  138.1380 C   0  0  0  0  0  2  0  0  0  0  0  0
  181.2140  175.3190  138.0820 N   0  0  0  0  0  2  0  0  0  0  0  0
  182.3290  174.6480  137.4160 C   0  0  0  0  0  2  0  0  0  0  0  0
  181.4010  176.7630  137.9640 C   0  0  0  0  0  2  0  0  0  0  0  0
  1  6  1  0  0  0  0
  2 18  1  6  0  0  0
  2 14  1  0  0  0  0
  3 19  1  0  0  0  0
  4 22  1  0  0  0  0
  5  6  1  0  0  0  0
  7  5  2  0  0  0  0
  8 21  1  0  0  0  0
  9  8  1  6  0  0  0
  9  2  1  0  0  0  0
  9 19  1  0  0  0  0
 11 14  1  0  0  0  0
 11  7  1  0  0  0  0
 12 23  1  0  0  0  0
 13  3  2  0  0  0  0
 14 17  2  0  0  0  0
 15 20  1  0  0  0  0
 16 13  1  0  0  0  0
 17 10  1  0  0  0  0
 18 24  1  0  0  0  0
 19 10  1  1  0  0  0
 20 16  1  0  0  0  0
 21 15  1  6  0  0  0
 21 13  1  0  0  0  0
 22  7  1  0  0  0  0
 22  1  2  0  0  0  0
 23 24  1  0  0  0  0
 23  4  2  0  0  0  0
 24 11  2  0  0  0  0
 25  1  1  0  0  0  0
 25 26  1  0  0  0  0
 27  8  1  0  0  0  0
 29 27  1  6  0  0  0
 30 28  1  0  0  0  0
 30 29  1  0  0  0  0
 32 31  1  0  0  0  0
 32 28  1  0  0  0  0
 33 31  1  0  0  0  0
 33 29  1  0  0  0  0
M  END
>  <MODEL>
7

>  <REMARK>
 VINA RESULT:      -8.9      3.614      7.481
  Name = 
  3 active torsions:
  status: ('A' for Active; 'I' for Inactive)
    1  A    between atoms: C_1  and  O_13
    2  A    between atoms: C_3  and  C_7
    3  A    between atoms: C_7  and  N_11
                            x       y       z     vdW  Elec       q    Type
                         _______ _______ _______ _____ _____    ______ ____

>  <TORSDO>
F 3

$$$$
=
 OpenBabel10222417553D

 33 39  0  0  1  0  0  0  0  0999 V2000
  189.4990  176.9890  145.0670 C   0  0  0  0  0  0  0  0  0  0  0  0
  184.8020  179.3160  142.3550 C   0  0  1  0  0  3  0  0  0  0  0  0
  181.3010  179.3440  142.8440 N   0  0  0  0  0  0  0  0  0  0  0  0
  189.1740  177.5440  142.7010 C   0  0  0  0  0  3  0  0  0  0  0  0
  187.4030  177.6750  145.7960 C   0  0  0  0  0  3  0  0  0  0  0  0
  188.6810  177.0770  146.3230 C   0  0  0  0  0  2  0  0  0  0  0  0
  187.5550  177.8580  144.4930 C   0  0  0  0  0  0  0  0  0  0  0  0
  182.9970  178.9720  140.6660 N   0  0  0  0  0  0  0  0  0  0  0  0
  183.5230  178.5420  141.9860 C   0  0  2  0  0  3  0  0  0  0  0  0
  183.0130  178.9910  144.5380 C   0  0  0  0  0  2  0  0  0  0  0  0
  186.6470  178.3880  143.5760 C   0  0  0  0  0  0  0  0  0  0  0  0
  188.5690  178.1700  140.4320 O   0  0  0  0  0  1  0  0  0  0  0  0
  180.8390  179.3500  141.6490 C   0  0  0  0  0  0  0  0  0  0  0  0
  185.2790  178.8450  143.7020 C   0  0  0  0  0  0  0  0  0  0  0  0
  180.9590  179.4430  139.3420 C   0  0  0  0  0  2  0  0  0  0  0  0
  179.7460  180.2260  141.2020 C   0  0  0  0  0  2  0  0  0  0  0  0
  184.4530  178.6180  144.7150 C   0  0  0  0  0  3  0  0  0  0  0  0
  185.9190  178.9970  141.4560 N   0  0  0  0  0  2  0  0  0  0  0  0
  182.4690  178.5550  143.1620 C   0  0  1  0  0  3  0  0  0  0  0  0
  179.7060  180.0900  139.7500 N   0  0  0  0  0  2  0  0  0  0  0  0
  181.5540  178.7090  140.5400 C   0  0  1  0  0  3  0  0  0  0  0  0
  188.7970  177.4520  144.0530 C   0  0  0  0  0  0  0  0  0  0  0  0
  188.2440  178.0700  141.7790 C   0  0  0  0  0  0  0  0  0  0  0  0
  186.9850  178.4850  142.2470 C   0  0  0  0  0  0  0  0  0  0  0  0
  190.7990  176.4950  144.9630 O   0  0  0  0  0  0  0  0  0  0  0  0
  191.6680  176.4540  146.0840 C   0  0  0  0  0  1  0  0  0  0  0  0
  183.6700  178.1390  139.6710 C   0  0  0  0  0  2  0  0  0  0  0  0
  181.7850  175.0180  138.4660 C   0  0  0  0  0  2  0  0  0  0  0  0
  182.6640  177.3270  138.8690 C   0  0  2  0  0  3  0  0  0  0  0  0
  182.7080  175.8740  139.3280 C   0  0  0  0  0  2  0  0  0  0  0  0
  182.0000  176.6120  136.6200 N   0  0  0  0  0  2  0  0  0  0  0  0
  182.1430  175.2060  136.9940 C   0  0  0  0  0  2  0  0  0  0  0  0
  182.9750  177.3970  137.3740 C   0  0  0  0  0  2  0  0  0  0  0  0
  1  6  1  0  0  0  0
  2 18  1  6  0  0  0
  2 14  1  0  0  0  0
  3 19  1  0  0  0  0
  4 22  1  0  0  0  0
  5  6  1  0  0  0  0
  7  5  2  0  0  0  0
  9  8  1  6  0  0  0
  9  2  1  0  0  0  0
  9 19  1  0  0  0  0
 10 17  1  0  0  0  0
 11 14  1  0  0  0  0
 11  7  1  0  0  0  0
 12 23  1  0  0  0  0
 13  3  2  0  0  0  0
 14 17  2  0  0  0  0
 15 20  1  0  0  0  0
 16 13  1  0  0  0  0
 18 24  1  0  0  0  0
 19 10  1  1  0  0  0
 20 16  1  0  0  0  0
 21 15  1  6  0  0  0
 21  8  1  0  0  0  0
 21 13  1  0  0  0  0
 22  7  1  0  0  0  0
 22  1  2  0  0  0  0
 23 24  1  0  0  0  0
 23  4  2  0  0  0  0
 24 11  2  0  0  0  0
 25  1  1  0  0  0  0
 25 26  1  0  0  0  0
 27  8  1  0  0  0  0
 28 30  1  0  0  0  0
 29 30  1  0  0  0  0
 29 27  1  1  0  0  0
 31 32  1  0  0  0  0
 31 33  1  0  0  0  0
 32 28  1  0  0  0  0
 33 29  1  0  0  0  0
M  END
>  <MODEL>
8

>  <REMARK>
 VINA RESULT:      -8.8      3.439      7.521
  Name = 
  3 active torsions:
  status: ('A' for Active; 'I' for Inactive)
    1  A    between atoms: C_1  and  O_13
    2  A    between atoms: C_3  and  C_7
    3  A    between atoms: C_7  and  N_11
                            x       y       z     vdW  Elec       q    Type
                         _______ _______ _______ _____ _____    ______ ____

>  <TORSDO>
F 3

$$$$
=
 OpenBabel10222417553D

 33 39  0  0  1  0  0  0  0  0999 V2000
  190.1130  177.0660  141.5380 C   0  0  0  0  0  0  0  0  0  0  0  0
  184.6600  179.3170  141.6830 C   0  0  1  0  0  3  0  0  0  0  0  0
  181.8420  179.0990  143.8060 N   0  0  0  0  0  0  0  0  0  0  0  0
  188.6680  177.7860  139.6930 C   0  0  0  0  0  3  0  0  0  0  0  0
  188.6310  177.5670  143.2540 C   0  0  0  0  0  3  0  0  0  0  0  0
  190.0110  177.0060  143.0340 C   0  0  0  0  0  2  0  0  0  0  0  0
  188.1250  177.8610  142.0660 C   0  0  0  0  0  0  0  0  0  0  0  0
  182.2650  179.0020  141.0550 N   0  0  0  0  0  0  0  0  0  0  0  0
  183.3740  178.5000  141.9060 C   0  0  2  0  0  3  0  0  0  0  0  0
  184.1680  178.7160  144.4150 C   0  0  0  0  0  2  0  0  0  0  0  0
  186.8780  178.4070  141.7600 C   0  0  0  0  0  0  0  0  0  0  0  0
  187.0260  178.5520  138.0740 O   0  0  0  0  0  1  0  0  0  0  0  0
  180.8560  179.1720  142.9920 C   0  0  0  0  0  0  0  0  0  0  0  0
  185.7390  178.7710  142.5770 C   0  0  0  0  0  0  0  0  0  0  0  0
  179.8340  179.4540  140.9370 C   0  0  0  0  0  2  0  0  0  0  0  0
  179.6720  180.0150  143.2180 C   0  0  0  0  0  2  0  0  0  0  0  0
  185.5150  178.4150  143.8350 C   0  0  0  0  0  3  0  0  0  0  0  0
  185.2000  179.1370  140.3290 N   0  0  0  0  0  2  0  0  0  0  0  0
  183.0270  178.3580  143.4400 C   0  0  1  0  0  3  0  0  0  0  0  0
  178.9310  179.9910  141.9620 N   0  0  0  0  0  2  0  0  0  0  0  0
  180.9480  178.6640  141.6180 C   0  0  1  0  0  3  0  0  0  0  0  0
  189.0000  177.5650  141.0420 C   0  0  0  0  0  0  0  0  0  0  0  0
  187.4000  178.3270  139.3930 C   0  0  0  0  0  0  0  0  0  0  0  0
  186.5240  178.6290  140.4500 C   0  0  0  0  0  0  0  0  0  0  0  0
  191.2040  176.6600  140.7700 O   0  0  0  0  0  0  0  0  0  0  0  0
  192.3290  177.5020  140.5780 C   0  0  0  0  0  1  0  0  0  0  0  0
  182.3790  178.2920  139.7820 C   0  0  0  0  0  2  0  0  0  0  0  0
  181.9030  181.6450  137.9710 C   0  0  0  0  0  2  0  0  0  0  0  0
  182.3190  179.2610  138.6100 C   0  0  2  0  0  3  0  0  0  0  0  0
  182.0730  180.6710  139.1340 C   0  0  0  0  0  2  0  0  0  0  0  0
  181.1580  179.8150  136.5240 N   0  0  0  0  0  2  0  0  0  0  0  0
  180.8050  181.1380  137.0380 C   0  0  0  0  0  2  0  0  0  0  0  0
  181.2000  178.8760  137.6420 C   0  0  0  0  0  2  0  0  0  0  0  0
  1  6  1  0  0  0  0
  2 18  1  6  0  0  0
  2  9  1  0  0  0  0
  2 14  1  0  0  0  0
  4 22  1  0  0  0  0
  6  5  1  0  0  0  0
  7  5  2  0  0  0  0
  8 21  1  0  0  0  0
  9  8  1  6  0  0  0
  9 19  1  0  0  0  0
 11  7  1  0  0  0  0
 11 14  1  0  0  0  0
 12 23  1  0  0  0  0
 13 16  1  0  0  0  0
 13  3  2  0  0  0  0
 14 17  2  0  0  0  0
 15 20  1  0  0  0  0
 17 10  1  0  0  0  0
 18 24  1  0  0  0  0
 19  3  1  0  0  0  0
 19 10  1  1  0  0  0
 20 16  1  0  0  0  0
 21 15  1  6  0  0  0
 21 13  1  0  0  0  0
 22  1  2  0  0  0  0
 22  7  1  0  0  0  0
 23  4  2  0  0  0  0
 23 24  1  0  0  0  0
 24 11  2  0  0  0  0
 25  1  1  0  0  0  0
 26 25  1  0  0  0  0
 27  8  1  0  0  0  0
 28 30  1  0  0  0  0
 29 30  1  0  0  0  0
 29 27  1  1  0  0  0
 31 32  1  0  0  0  0
 31 33  1  0  0  0  0
 32 28  1  0  0  0  0
 33 29  1  0  0  0  0
M  END
>  <MODEL>
9

>  <REMARK>
 VINA RESULT:      -8.2      3.322      6.513
  Name = 
  3 active torsions:
  status: ('A' for Active; 'I' for Inactive)
    1  A    between atoms: C_1  and  O_13
    2  A    between atoms: C_3  and  C_7
    3  A    between atoms: C_7  and  N_11
                            x       y       z     vdW  Elec       q    Type
                         _______ _______ _______ _____ _____    ______ ____

>  <TORSDO>
F 3

$$$$
