=
 OpenBabel10222415593D

 62 68  0  0  1  0  0  0  0  0999 V2000
  188.0360  176.2100  136.4070 C   0  0  1  0  0  3  0  0  0  0  0  0
  188.3270  174.0890  134.9050 C   0  0  2  0  0  3  0  0  0  0  0  0
  187.4140  172.6300  136.7830 N   0  0  0  0  0  2  0  0  0  0  0  0
  188.6740  175.8810  134.7240 S   0  0  0  0  0  0  0  0  0  0  0  0
  187.7910  174.9320  137.0580 N   0  0  0  0  0  0  0  0  0  0  0  0
  187.9030  173.8820  136.3200 C   0  0  0  0  0  0  0  0  0  0  0  0
  186.0210  172.2950  136.5060 C   0  0  0  0  0  2  0  0  0  0  0  0
  183.5910  176.1130  137.1840 N   0  0  0  0  0  0  0  0  0  0  0  0
  184.1530  175.0510  137.8810 N   0  0  0  0  0  0  0  0  0  0  0  0
  184.4290  174.1000  137.0620 C   0  0  0  0  0  0  0  0  0  0  0  0
  183.4110  175.7880  135.7800 C   0  0  0  0  0  3  0  0  0  0  0  0
  185.1650  172.9440  137.4720 N   0  0  0  0  0  2  0  0  0  0  0  0
  184.1240  174.4390  135.6340 C   0  0  0  0  0  3  0  0  0  0  0  0
  183.2610  177.3740  137.8110 C   0  0  0  0  0  2  0  0  0  0  0  0
  181.8020  177.7670  137.6140 C   0  0  1  0  0  3  0  0  0  0  0  0
  181.1550  177.0750  136.5730 O   0  0  0  0  0  1  0  0  0  0  0  0
  180.0470  178.7050  139.0240 O   0  0  0  0  0  0  0  0  0  0  0  0
  181.0020  177.6750  138.9070 C   0  0  2  0  0  3  0  0  0  0  0  0
  180.9540  178.1530  141.1790 C   0  0  1  0  0  3  0  0  0  0  0  0
  179.9210  178.9970  140.4080 C   0  0  1  0  0  3  0  0  0  0  0  0
  181.9090  177.7080  140.1150 C   0  0  0  0  0  2  0  0  0  0  0  0
  180.3680  181.2230  139.2860 C   0  0  0  0  0  1  0  0  0  0  0  0
  180.0640  180.5200  140.6080 C   0  0  0  0  0  2  0  0  0  0  0  0
  181.6600  178.8250  142.3570 C   0  0  0  0  0  2  0  0  0  0  0  0
  183.6760  178.6280  143.2490 C   0  0  0  0  0  1  0  0  0  0  0  0
  183.0090  179.0090  142.0870 O   0  0  0  0  0  0  0  0  0  0  0  0
  188.9570  177.1400  137.2220 C   0  0  1  0  0  3  0  0  0  0  0  0
  187.2860  177.7870  138.9940 N   0  0  0  0  0  2  0  0  0  0  0  0
  188.1960  179.3940  137.5640 O   0  0  0  0  0  0  0  0  0  0  0  0
  188.1580  178.1880  137.9290 C   0  0  0  0  0  0  0  0  0  0  0  0
  186.4100  178.6620  139.7350 C   0  0  0  0  0  2  0  0  0  0  0  0
  186.7850  178.7590  141.2010 C   0  0  0  0  0  2  0  0  0  0  0  0
  188.0780  177.9980  141.3740 C   0  0  0  0  0  2  0  0  0  0  0  0
  189.2430  178.8700  141.8380 C   0  0  0  0  0  2  0  0  0  0  0  0
  186.9610  177.7800  144.8190 C   0  0  0  0  0  2  0  0  0  0  0  0
  189.7320  176.6620  145.1500 C   0  0  2  0  0  3  0  0  0  0  0  0
  190.8120  179.1790  143.7390 C   0  0  0  0  0  3  0  0  0  0  0  0
  187.7740  177.9350  146.1550 C   0  0  0  0  0  2  0  0  0  0  0  0
  191.4640  175.6370  143.6700 O   0  0  0  0  0  1  0  0  0  0  0  0
  187.0980  176.3760  144.1690 C   0  0  0  0  0  2  0  0  0  0  0  0
  189.5370  177.0770  143.6670 C   0  0  2  0  0  0  0  0  0  0  0  0
  191.7420  178.0650  144.1690 C   0  0  0  0  0  3  0  0  0  0  0  0
  189.3100  177.8350  146.0360 C   0  0  0  0  0  2  0  0  0  0  0  0
  188.3360  176.2130  143.2380 C   0  0  0  0  0  2  0  0  0  0  0  0
  190.9090  176.7960  144.2100 C   0  0  1  0  0  0  0  0  0  0  0  0
  189.4940  178.5720  143.3150 C   0  0  2  0  0  3  0  0  0  0  0  0
  189.8410  176.3750  138.2260 C   0  0  0  0  0  2  0  0  0  0  0  0
  190.8620  177.2940  138.9060 C   0  0  0  0  0  2  0  0  0  0  0  0
  191.2160  176.7770  140.2210 N   0  0  0  0  0  2  0  0  0  0  0  0
  192.4740  177.3790  140.6120 C   0  0  0  0  0  1  0  0  0  0  0  0
  189.5710  173.2630  134.5950 C   0  0  0  0  0  2  0  0  0  0  0  0
  190.7290  173.6900  135.3870 N   0  0  0  0  0  2  0  0  0  0  0  0
  191.8520  171.6420  135.3120 O   0  0  0  0  0  0  0  0  0  0  0  0
  191.8300  172.8330  135.7290 C   0  0  0  0  0  0  0  0  0  0  0  0
  196.4290  172.3290  137.7570 C   0  0  0  0  0  1  0  0  0  0  0  0
  195.0000  174.3210  138.1930 C   0  0  0  0  0  3  0  0  0  0  0  0
  193.8600  175.0860  137.9680 C   0  0  0  0  0  3  0  0  0  0  0  0
  192.9500  173.3180  136.5740 C   0  0  0  0  0  0  0  0  0  0  0  0
  195.1570  173.0770  137.5690 C   0  0  0  0  0  0  0  0  0  0  0  0
  194.1380  172.5740  136.7470 C   0  0  0  0  0  0  0  0  0  0  0  0
  194.3320  171.4120  136.0610 F   0  0  0  0  0  0  0  0  0  0  0  0
  192.8480  174.5930  137.1500 C   0  0  0  0  0  3  0  0  0  0  0  0
  1  5  1  0  0  0  0
  1 27  1  1  0  0  0
  2 51  1  1  0  0  0
  2  6  1  0  0  0  0
  4  2  1  0  0  0  0
  4  1  1  0  0  0  0
  6  3  1  0  0  0  0
  6  5  2  0  0  0  0
  7  3  1  0  0  0  0
  7 12  1  0  0  0  0
  8 14  1  0  0  0  0
  8  9  1  0  0  0  0
 10 12  1  0  0  0  0
 10  9  2  0  0  0  0
 11  8  1  0  0  0  0
 13 11  2  0  0  0  0
 13 10  1  0  0  0  0
 15 16  1  6  0  0  0
 15 14  1  0  0  0  0
 17 20  1  0  0  0  0
 18 15  1  6  0  0  0
 18 17  1  0  0  0  0
 18 21  1  0  0  0  0
 19 24  1  1  0  0  0
 20 23  1  6  0  0  0
 20 19  1  0  0  0  0
 21 19  1  0  0  0  0
 22 23  1  0  0  0  0
 26 24  1  0  0  0  0
 26 25  1  0  0  0  0
 27 30  1  0  0  0  0
 27 47  1  1  0  0  0
 28 31  1  0  0  0  0
 29 30  2  0  0  0  0
 30 28  1  0  0  0  0
 31 32  1  0  0  0  0
 32 33  1  0  0  0  0
 33 34  1  0  0  0  0
 35 38  1  0  0  0  0
 36 43  1  1  0  0  0
 37 42  2  0  0  0  0
 40 35  1  0  0  0  0
 41 44  1  6  0  0  0
 41 45  1  0  0  0  0
 41 36  1  0  0  0  0
 42 45  1  0  0  0  0
 43 38  1  0  0  0  0
 44 40  1  0  0  0  0
 45 39  1  6  0  0  0
 45 36  1  0  0  0  0
 46 34  1  6  0  0  0
 46 41  1  0  0  0  0
 46 37  1  0  0  0  0
 47 48  1  0  0  0  0
 48 49  1  0  0  0  0
 49 50  1  0  0  0  0
 51 52  1  0  0  0  0
 52 54  1  0  0  0  0
 53 54  2  0  0  0  0
 54 58  1  0  0  0  0
 57 56  1  0  0  0  0
 58 60  2  0  0  0  0
 58 62  1  0  0  0  0
 59 55  1  0  0  0  0
 59 56  2  0  0  0  0
 60 59  1  0  0  0  0
 61 60  1  0  0  0  0
 62 57  2  0  0  0  0
M  END
>  <MODEL>
1

>  <REMARK>
 VINA RESULT:      -6.8      0.000      0.000
  Name = 
  21 active torsions:
  status: ('A' for Active; 'I' for Inactive)
    1  A    between atoms: N_1  and  C_54
    2  A    between atoms: C_3  and  C_60
    3  A    between atoms: C_3  and  C_62
    4  A    between atoms: C_5  and  C_18
    5  A    between atoms: C_5  and  C_20
    6  A    between atoms: C_6  and  C_44
    7  A    between atoms: C_6  and  C_60
    8  A    between atoms: C_7  and  C_47
    9  A    between atoms: C_8  and  C_54
   10  A    between atoms: N_11  and  C_20
   11  A    between atoms: C_14  and  C_38
   12  A    between atoms: N_15  and  C_44
   13  A    between atoms: C_19  and  N_24
   14  A    between atoms: C_19  and  N_55
   15  A    between atoms: N_21  and  C_46
   16  A    between atoms: O_26  and  C_31
   17  A    between atoms: C_30  and  C_53
   18  A    between atoms: C_31  and  C_36
   19  A    between atoms: C_39  and  C_46
   20  A    between atoms: C_39  and  C_47
   21  A    between atoms: C_47  and  C_49
                            x       y       z     vdW  Elec       q    Type
                         _______ _______ _______ _____ _____    ______ ____

>  <TORSDO>
F 21

$$$$
=
 OpenBabel10222415593D

 62 68  0  0  1  0  0  0  0  0999 V2000
  189.0570  174.4310  137.1630 C   0  0  1  0  0  3  0  0  0  0  0  0
  191.5540  175.2040  137.0770 C   0  0  2  0  0  3  0  0  0  0  0  0
  190.9250  177.3760  138.2510 N   0  0  0  0  0  2  0  0  0  0  0  0
  190.6140  173.7390  136.4970 S   0  0  0  0  0  0  0  0  0  0  0  0
  189.3140  175.7960  137.5960 N   0  0  0  0  0  0  0  0  0  0  0  0
  190.5450  176.1780  137.5860 C   0  0  0  0  0  0  0  0  0  0  0  0
  191.2880  177.2910  139.6610 C   0  0  0  0  0  2  0  0  0  0  0  0
  187.8890  176.9780  142.7090 N   0  0  0  0  0  0  0  0  0  0  0  0
  188.8730  176.2070  142.1040 N   0  0  0  0  0  0  0  0  0  0  0  0
  189.3070  176.8120  141.0560 C   0  0  0  0  0  0  0  0  0  0  0  0
  187.5980  178.1700  141.9310 C   0  0  0  0  0  3  0  0  0  0  0  0
  190.4370  176.3300  140.3240 N   0  0  0  0  0  2  0  0  0  0  0  0
  188.6780  178.1560  140.8440 C   0  0  0  0  0  3  0  0  0  0  0  0
  187.2720  176.6150  143.9660 C   0  0  0  0  0  2  0  0  0  0  0  0
  187.0240  177.8160  144.8700 C   0  0  1  0  0  3  0  0  0  0  0  0
  185.9250  177.6680  145.7360 O   0  0  0  0  0  1  0  0  0  0  0  0
  189.3770  178.4510  144.7970 O   0  0  0  0  0  0  0  0  0  0  0  0
  188.2720  178.2240  145.6410 C   0  0  2  0  0  3  0  0  0  0  0  0
  190.0950  177.4910  146.8790 C   0  0  1  0  0  3  0  0  0  0  0  0
  190.5390  178.0830  145.5270 C   0  0  1  0  0  3  0  0  0  0  0  0
  188.6450  177.1810  146.6680 C   0  0  0  0  0  2  0  0  0  0  0  0
  191.8480  177.8190  143.3770 C   0  0  0  0  0  1  0  0  0  0  0  0
  191.3880  177.1320  144.6610 C   0  0  0  0  0  2  0  0  0  0  0  0
  190.8820  176.2890  147.4020 C   0  0  0  0  0  2  0  0  0  0  0  0
  192.8740  175.5770  148.0530 C   0  0  0  0  0  1  0  0  0  0  0  0
  192.0470  176.6970  148.0360 O   0  0  0  0  0  0  0  0  0  0  0  0
  187.8840  174.3220  136.1680 C   0  0  1  0  0  3  0  0  0  0  0  0
  185.4180  173.9200  136.4990 N   0  0  0  0  0  2  0  0  0  0  0  0
  187.0030  172.5250  137.4990 O   0  0  0  0  0  0  0  0  0  0  0  0
  186.7700  173.5120  136.7500 C   0  0  0  0  0  0  0  0  0  0  0  0
  184.2380  173.2840  137.0320 C   0  0  0  0  0  2  0  0  0  0  0  0
  182.9770  174.0880  136.7810 C   0  0  0  0  0  2  0  0  0  0  0  0
  183.3550  175.5460  136.8990 C   0  0  0  0  0  2  0  0  0  0  0  0
  183.4710  176.0320  138.3420 C   0  0  0  0  0  2  0  0  0  0  0  0
  180.6700  178.1690  136.6480 C   0  0  0  0  0  2  0  0  0  0  0  0
  181.4050  179.3250  139.3250 C   0  0  2  0  0  3  0  0  0  0  0  0
  184.2810  178.3220  138.8610 C   0  0  0  0  0  3  0  0  0  0  0  0
  181.0170  179.6900  136.8390 C   0  0  0  0  0  2  0  0  0  0  0  0
  181.9430  178.4400  141.5990 O   0  0  0  0  0  1  0  0  0  0  0  0
  179.7930  177.5850  137.7900 C   0  0  0  0  0  2  0  0  0  0  0  0
  181.9000  177.8550  139.2650 C   0  0  2  0  0  0  0  0  0  0  0  0
  183.8920  179.0110  140.1520 C   0  0  0  0  0  3  0  0  0  0  0  0
  181.8860  180.0450  138.0640 C   0  0  0  0  0  2  0  0  0  0  0  0
  180.5930  177.0760  139.0250 C   0  0  0  0  0  2  0  0  0  0  0  0
  182.4010  178.7900  140.3290 C   0  0  1  0  0  0  0  0  0  0  0  0
  183.1020  177.5130  138.3700 C   0  0  2  0  0  3  0  0  0  0  0  0
  187.3600  175.6970  135.7080 C   0  0  0  0  0  2  0  0  0  0  0  0
  186.8910  176.5550  136.8890 C   0  0  0  0  0  2  0  0  0  0  0  0
  186.9180  177.9670  136.5340 N   0  0  0  0  0  2  0  0  0  0  0  0
  186.8570  178.0650  135.0890 C   0  0  0  0  0  1  0  0  0  0  0  0
  192.3580  175.8170  135.9350 C   0  0  0  0  0  2  0  0  0  0  0  0
  193.6580  175.1610  135.7610 N   0  0  0  0  0  2  0  0  0  0  0  0
  194.4390  175.5740  137.9250 O   0  0  0  0  0  0  0  0  0  0  0  0
  194.6650  175.0860  136.7840 C   0  0  0  0  0  0  0  0  0  0  0  0
  197.9190  171.2470  137.2260 C   0  0  0  0  0  1  0  0  0  0  0  0
  198.4880  173.3300  135.9860 C   0  0  0  0  0  3  0  0  0  0  0  0
  198.1520  174.5690  135.4480 C   0  0  0  0  0  3  0  0  0  0  0  0
  195.9780  174.4460  136.5250 C   0  0  0  0  0  0  0  0  0  0  0  0
  197.5590  172.6100  136.7460 C   0  0  0  0  0  0  0  0  0  0  0  0
  196.2960  173.1570  137.0100 C   0  0  0  0  0  0  0  0  0  0  0  0
  195.3580  172.4160  137.6650 F   0  0  0  0  0  0  0  0  0  0  0  0
  196.8980  175.1150  135.7040 C   0  0  0  0  0  3  0  0  0  0  0  0
  1 27  1  6  0  0  0
  1  5  1  0  0  0  0
  2 51  1  6  0  0  0
  2  6  1  0  0  0  0
  3  7  1  0  0  0  0
  4  2  1  0  0  0  0
  4  1  1  0  0  0  0
  6  5  2  0  0  0  0
  6  3  1  0  0  0  0
  7 12  1  0  0  0  0
  8 14  1  0  0  0  0
  9  8  1  0  0  0  0
 10  9  2  0  0  0  0
 11  8  1  0  0  0  0
 12 10  1  0  0  0  0
 13 10  1  0  0  0  0
 13 11  2  0  0  0  0
 14 15  1  0  0  0  0
 15 16  1  1  0  0  0
 17 20  1  0  0  0  0
 17 18  1  0  0  0  0
 18 15  1  6  0  0  0
 18 21  1  0  0  0  0
 19 24  1  6  0  0  0
 20 23  1  6  0  0  0
 20 19  1  0  0  0  0
 21 19  1  0  0  0  0
 22 23  1  0  0  0  0
 24 26  1  0  0  0  0
 26 25  1  0  0  0  0
 27 47  1  1  0  0  0
 27 30  1  0  0  0  0
 28 30  1  0  0  0  0
 28 31  1  0  0  0  0
 30 29  2  0  0  0  0
 32 33  1  0  0  0  0
 32 31  1  0  0  0  0
 33 34  1  0  0  0  0
 35 38  1  0  0  0  0
 35 40  1  0  0  0  0
 36 43  1  6  0  0  0
 36 45  1  0  0  0  0
 37 42  2  0  0  0  0
 38 43  1  0  0  0  0
 40 44  1  0  0  0  0
 41 44  1  1  0  0  0
 41 36  1  0  0  0  0
 41 45  1  0  0  0  0
 42 45  1  0  0  0  0
 45 39  1  1  0  0  0
 46 34  1  1  0  0  0
 46 37  1  0  0  0  0
 46 41  1  0  0  0  0
 47 48  1  0  0  0  0
 49 48  1  0  0  0  0
 50 49  1  0  0  0  0
 52 51  1  0  0  0  0
 52 54  1  0  0  0  0
 54 53  2  0  0  0  0
 56 59  1  0  0  0  0
 57 62  1  0  0  0  0
 57 56  2  0  0  0  0
 58 54  1  0  0  0  0
 58 60  1  0  0  0  0
 59 60  2  0  0  0  0
 59 55  1  0  0  0  0
 60 61  1  0  0  0  0
 62 58  2  0  0  0  0
M  END
>  <MODEL>
2

>  <REMARK>
 VINA RESULT:      -6.6      2.286      7.694
  Name = 
  21 active torsions:
  status: ('A' for Active; 'I' for Inactive)
    1  A    between atoms: N_1  and  C_54
    2  A    between atoms: C_3  and  C_60
    3  A    between atoms: C_3  and  C_62
    4  A    between atoms: C_5  and  C_18
    5  A    between atoms: C_5  and  C_20
    6  A    between atoms: C_6  and  C_44
    7  A    between atoms: C_6  and  C_60
    8  A    between atoms: C_7  and  C_47
    9  A    between atoms: C_8  and  C_54
   10  A    between atoms: N_11  and  C_20
   11  A    between atoms: C_14  and  C_38
   12  A    between atoms: N_15  and  C_44
   13  A    between atoms: C_19  and  N_24
   14  A    between atoms: C_19  and  N_55
   15  A    between atoms: N_21  and  C_46
   16  A    between atoms: O_26  and  C_31
   17  A    between atoms: C_30  and  C_53
   18  A    between atoms: C_31  and  C_36
   19  A    between atoms: C_39  and  C_46
   20  A    between atoms: C_39  and  C_47
   21  A    between atoms: C_47  and  C_49
                            x       y       z     vdW  Elec       q    Type
                         _______ _______ _______ _____ _____    ______ ____

>  <TORSDO>
F 21

$$$$
=
 OpenBabel10222415593D

 62 68  0  0  1  0  0  0  0  0999 V2000
  186.6840  179.2690  141.0080 C   0  0  1  0  0  3  0  0  0  0  0  0
  188.9960  178.1690  140.4760 C   0  0  2  0  0  3  0  0  0  0  0  0
  188.0800  177.3080  138.2600 N   0  0  0  0  0  2  0  0  0  0  0  0
  188.2890  179.1230  141.8740 S   0  0  0  0  0  0  0  0  0  0  0  0
  186.7280  178.4270  139.8220 N   0  0  0  0  0  0  0  0  0  0  0  0
  187.8700  177.9030  139.5340 C   0  0  0  0  0  0  0  0  0  0  0  0
  188.5480  178.1620  137.1740 C   0  0  0  0  0  2  0  0  0  0  0  0
  190.4300  174.3670  135.4420 N   0  0  0  0  0  0  0  0  0  0  0  0
  189.8610  175.5700  135.0450 N   0  0  0  0  0  0  0  0  0  0  0  0
  189.2000  176.0750  136.0240 C   0  0  0  0  0  0  0  0  0  0  0  0
  190.0320  174.0150  136.7940 C   0  0  0  0  0  3  0  0  0  0  0  0
  188.6430  177.3910  135.9560 N   0  0  0  0  0  2  0  0  0  0  0  0
  189.2890  175.2630  137.2810 C   0  0  0  0  0  3  0  0  0  0  0  0
  191.3180  173.6020  134.5940 C   0  0  0  0  0  2  0  0  0  0  0  0
  192.3890  172.8570  135.3810 C   0  0  1  0  0  3  0  0  0  0  0  0
  192.2680  171.4560  135.3360 O   0  0  0  0  0  1  0  0  0  0  0  0
  194.7000  172.2140  134.9390 O   0  0  0  0  0  0  0  0  0  0  0  0
  193.7960  173.2940  134.9930 C   0  0  2  0  0  3  0  0  0  0  0  0
  195.8050  174.1950  135.7320 C   0  0  1  0  0  3  0  0  0  0  0  0
  195.9720  172.7200  135.3170 C   0  0  1  0  0  3  0  0  0  0  0  0
  194.3300  174.3330  135.9500 C   0  0  0  0  0  2  0  0  0  0  0  0
  198.0360  171.5140  136.1530 C   0  0  0  0  0  1  0  0  0  0  0  0
  196.5600  171.8110  136.4150 C   0  0  0  0  0  2  0  0  0  0  0  0
  196.6240  174.6760  136.9300 C   0  0  0  0  0  2  0  0  0  0  0  0
  196.6490  174.3910  139.1250 C   0  0  0  0  0  1  0  0  0  0  0  0
  195.8310  174.7740  138.0650 O   0  0  0  0  0  0  0  0  0  0  0  0
  185.4830  178.9630  141.9250 C   0  0  1  0  0  3  0  0  0  0  0  0
  184.2600  179.2170  139.7360 N   0  0  0  0  0  2  0  0  0  0  0  0
  183.1170  178.6180  141.6830 O   0  0  0  0  0  0  0  0  0  0  0  0
  184.2170  178.8930  141.1330 C   0  0  0  0  0  0  0  0  0  0  0  0
  183.1230  179.2530  138.8490 C   0  0  0  0  0  2  0  0  0  0  0  0
  182.9320  177.9540  138.0910 C   0  0  0  0  0  2  0  0  0  0  0  0
  181.9730  177.1120  138.8990 C   0  0  0  0  0  2  0  0  0  0  0  0
  181.8240  175.6850  138.3780 C   0  0  0  0  0  2  0  0  0  0  0  0
  185.3710  176.0130  136.7690 C   0  0  0  0  0  2  0  0  0  0  0  0
  183.6290  174.2030  135.1180 C   0  0  2  0  0  3  0  0  0  0  0  0
  181.2090  175.9030  135.9810 C   0  0  0  0  0  3  0  0  0  0  0  0
  185.2020  176.1970  135.2170 C   0  0  0  0  0  2  0  0  0  0  0  0
  181.9520  172.4040  135.5560 O   0  0  0  0  0  1  0  0  0  0  0  0
  185.5040  174.5290  137.2060 C   0  0  0  0  0  2  0  0  0  0  0  0
  183.0140  174.3270  136.5380 C   0  0  2  0  0  0  0  0  0  0  0  0
  181.0330  174.6790  135.1080 C   0  0  0  0  0  3  0  0  0  0  0  0
  183.9170  175.6110  134.5950 C   0  0  0  0  0  2  0  0  0  0  0  0
  184.1470  173.7990  137.4360 C   0  0  0  0  0  2  0  0  0  0  0  0
  182.2090  173.7650  135.4000 C   0  0  1  0  0  0  0  0  0  0  0  0
  182.3470  175.6510  136.9430 C   0  0  2  0  0  3  0  0  0  0  0  0
  185.6710  177.6710  142.7450 C   0  0  0  0  0  2  0  0  0  0  0  0
  185.7010  177.9500  144.2520 C   0  0  0  0  0  2  0  0  0  0  0  0
  184.5750  178.7910  144.6360 N   0  0  0  0  0  2  0  0  0  0  0  0
  184.4930  178.7930  146.0820 C   0  0  0  0  0  1  0  0  0  0  0  0
  189.6010  176.8570  140.9670 C   0  0  0  0  0  2  0  0  0  0  0  0
  190.1150  176.9650  142.3360 N   0  0  0  0  0  2  0  0  0  0  0  0
  188.4020  175.7370  143.3450 O   0  0  0  0  0  0  0  0  0  0  0  0
  189.4660  176.4000  143.4860 C   0  0  0  0  0  0  0  0  0  0  0  0
  189.0690  177.8950  148.2960 C   0  0  0  0  0  1  0  0  0  0  0  0
  191.1600  176.8950  147.3870 C   0  0  0  0  0  3  0  0  0  0  0  0
  191.8830  176.2710  146.3750 C   0  0  0  0  0  3  0  0  0  0  0  0
  190.0190  176.5850  144.8510 C   0  0  0  0  0  0  0  0  0  0  0  0
  189.8440  177.3170  147.1640 C   0  0  0  0  0  0  0  0  0  0  0  0
  189.2620  177.1540  145.8990 C   0  0  0  0  0  0  0  0  0  0  0  0
  187.9510  177.4730  145.7100 F   0  0  0  0  0  0  0  0  0  0  0  0
  191.3090  176.1030  145.1190 C   0  0  0  0  0  3  0  0  0  0  0  0
  1  4  1  0  0  0  0
  1 27  1  1  0  0  0
  2 51  1  1  0  0  0
  2  4  1  0  0  0  0
  3  6  1  0  0  0  0
  5  1  1  0  0  0  0
  6  5  2  0  0  0  0
  6  2  1  0  0  0  0
  7  3  1  0  0  0  0
  8 11  1  0  0  0  0
  9  8  1  0  0  0  0
  9 10  2  0  0  0  0
 10 13  1  0  0  0  0
 11 13  2  0  0  0  0
 12 10  1  0  0  0  0
 12  7  1  0  0  0  0
 14 15  1  0  0  0  0
 14  8  1  0  0  0  0
 15 16  1  6  0  0  0
 17 18  1  0  0  0  0
 17 20  1  0  0  0  0
 18 15  1  1  0  0  0
 18 21  1  0  0  0  0
 19 21  1  0  0  0  0
 19 24  1  1  0  0  0
 20 19  1  0  0  0  0
 20 23  1  1  0  0  0
 22 23  1  0  0  0  0
 24 26  1  0  0  0  0
 26 25  1  0  0  0  0
 27 47  1  6  0  0  0
 28 30  1  0  0  0  0
 30 29  2  0  0  0  0
 30 27  1  0  0  0  0
 31 28  1  0  0  0  0
 32 31  1  0  0  0  0
 32 33  1  0  0  0  0
 34 33  1  0  0  0  0
 35 40  1  0  0  0  0
 36 43  1  6  0  0  0
 36 45  1  0  0  0  0
 36 41  1  0  0  0  0
 37 46  1  0  0  0  0
 38 35  1  0  0  0  0
 40 44  1  0  0  0  0
 41 46  1  0  0  0  0
 41 44  1  1  0  0  0
 42 45  1  0  0  0  0
 42 37  2  0  0  0  0
 43 38  1  0  0  0  0
 45 39  1  1  0  0  0
 45 41  1  0  0  0  0
 46 34  1  1  0  0  0
 47 48  1  0  0  0  0
 48 49  1  0  0  0  0
 49 50  1  0  0  0  0
 51 52  1  0  0  0  0
 52 54  1  0  0  0  0
 53 54  2  0  0  0  0
 54 58  1  0  0  0  0
 57 56  2  0  0  0  0
 58 62  2  0  0  0  0
 58 60  1  0  0  0  0
 59 56  1  0  0  0  0
 59 55  1  0  0  0  0
 60 59  2  0  0  0  0
 61 60  1  0  0  0  0
 62 57  1  0  0  0  0
M  END
>  <MODEL>
3

>  <REMARK>
 VINA RESULT:      -6.0      3.076     10.540
  Name = 
  21 active torsions:
  status: ('A' for Active; 'I' for Inactive)
    1  A    between atoms: N_1  and  C_54
    2  A    between atoms: C_3  and  C_60
    3  A    between atoms: C_3  and  C_62
    4  A    between atoms: C_5  and  C_18
    5  A    between atoms: C_5  and  C_20
    6  A    between atoms: C_6  and  C_44
    7  A    between atoms: C_6  and  C_60
    8  A    between atoms: C_7  and  C_47
    9  A    between atoms: C_8  and  C_54
   10  A    between atoms: N_11  and  C_20
   11  A    between atoms: C_14  and  C_38
   12  A    between atoms: N_15  and  C_44
   13  A    between atoms: C_19  and  N_24
   14  A    between atoms: C_19  and  N_55
   15  A    between atoms: N_21  and  C_46
   16  A    between atoms: O_26  and  C_31
   17  A    between atoms: C_30  and  C_53
   18  A    between atoms: C_31  and  C_36
   19  A    between atoms: C_39  and  C_46
   20  A    between atoms: C_39  and  C_47
   21  A    between atoms: C_47  and  C_49
                            x       y       z     vdW  Elec       q    Type
                         _______ _______ _______ _____ _____    ______ ____

>  <TORSDO>
F 21

$$$$
=
 OpenBabel10222415593D

 62 68  0  0  1  0  0  0  0  0999 V2000
  189.0900  175.1140  137.6450 C   0  0  1  0  0  3  0  0  0  0  0  0
  191.6840  175.3910  137.8250 C   0  0  2  0  0  3  0  0  0  0  0  0
  191.3650  177.5010  139.2160 N   0  0  0  0  0  2  0  0  0  0  0  0
  190.5450  174.2100  137.0040 S   0  0  0  0  0  0  0  0  0  0  0  0
  189.5550  176.3470  138.2630 N   0  0  0  0  0  0  0  0  0  0  0  0
  190.8310  176.4800  138.3830 C   0  0  0  0  0  0  0  0  0  0  0  0
  191.5780  177.1920  140.6260 C   0  0  0  0  0  2  0  0  0  0  0  0
  187.9190  177.1300  143.3740 N   0  0  0  0  0  0  0  0  0  0  0  0
  188.8080  176.2730  142.7380 N   0  0  0  0  0  0  0  0  0  0  0  0
  189.4290  176.9110  141.8110 C   0  0  0  0  0  0  0  0  0  0  0  0
  187.9030  178.4390  142.7430 C   0  0  0  0  0  3  0  0  0  0  0  0
  190.5220  176.3270  141.0980 N   0  0  0  0  0  2  0  0  0  0  0  0
  189.0570  178.3620  141.7380 C   0  0  0  0  0  3  0  0  0  0  0  0
  187.1410  176.7360  144.5280 C   0  0  0  0  0  2  0  0  0  0  0  0
  187.1240  177.8000  145.6190 C   0  0  1  0  0  3  0  0  0  0  0  0
  186.0490  177.6830  146.5210 O   0  0  0  0  0  1  0  0  0  0  0  0
  189.4250  178.6060  145.6470 O   0  0  0  0  0  0  0  0  0  0  0  0
  188.4500  177.8820  146.3630 C   0  0  2  0  0  3  0  0  0  0  0  0
  190.4440  176.8040  146.8670 C   0  0  1  0  0  3  0  0  0  0  0  0
  190.6850  178.0330  145.9700 C   0  0  1  0  0  3  0  0  0  0  0  0
  188.9900  176.5050  146.6720 C   0  0  0  0  0  2  0  0  0  0  0  0
  191.7010  179.0090  143.8660 C   0  0  0  0  0  1  0  0  0  0  0  0
  191.4410  177.7310  144.6600 C   0  0  0  0  0  2  0  0  0  0  0  0
  191.3320  175.5830  146.6240 C   0  0  0  0  0  2  0  0  0  0  0  0
  192.4310  176.1910  148.4470 C   0  0  0  0  0  1  0  0  0  0  0  0
  192.6100  175.7910  147.1240 O   0  0  0  0  0  0  0  0  0  0  0  0
  188.0110  175.3450  136.5670 C   0  0  1  0  0  3  0  0  0  0  0  0
  186.1420  173.8290  137.3140 N   0  0  0  0  0  2  0  0  0  0  0  0
  187.4330  173.3030  135.4390 O   0  0  0  0  0  0  0  0  0  0  0  0
  187.1860  174.1140  136.3720 C   0  0  0  0  0  0  0  0  0  0  0  0
  185.2980  172.6590  137.3000 C   0  0  0  0  0  2  0  0  0  0  0  0
  183.8400  172.9880  137.5550 C   0  0  0  0  0  2  0  0  0  0  0  0
  183.3390  173.7320  136.3390 C   0  0  0  0  0  2  0  0  0  0  0  0
  183.5440  175.2430  136.4200 C   0  0  0  0  0  2  0  0  0  0  0  0
  180.3550  174.5160  138.5620 C   0  0  0  0  0  2  0  0  0  0  0  0
  180.6100  177.4620  138.0170 C   0  0  2  0  0  3  0  0  0  0  0  0
  181.9090  176.7520  135.3150 C   0  0  0  0  0  3  0  0  0  0  0  0
  179.1650  175.3710  137.9930 C   0  0  0  0  0  2  0  0  0  0  0  0
  182.4580  179.1430  137.9540 O   0  0  0  0  0  1  0  0  0  0  0  0
  181.1630  175.2410  139.6730 C   0  0  0  0  0  2  0  0  0  0  0  0
  181.9880  176.7900  137.7740 C   0  0  2  0  0  0  0  0  0  0  0  0
  181.7590  178.1930  135.7560 C   0  0  0  0  0  3  0  0  0  0  0  0
  179.5480  176.6700  137.2530 C   0  0  0  0  0  2  0  0  0  0  0  0
  182.2990  176.1670  139.1470 C   0  0  0  0  0  2  0  0  0  0  0  0
  181.7140  178.1790  137.2730 C   0  0  1  0  0  0  0  0  0  0  0  0
  182.1690  175.8980  136.5350 C   0  0  2  0  0  3  0  0  0  0  0  0
  187.1040  176.5520  136.8790 C   0  0  0  0  0  2  0  0  0  0  0  0
  187.5660  177.8190  136.1500 C   0  0  0  0  0  2  0  0  0  0  0  0
  187.1900  179.0060  136.9050 N   0  0  0  0  0  2  0  0  0  0  0  0
  186.3370  178.5870  137.9990 C   0  0  0  0  0  1  0  0  0  0  0  0
  192.6870  175.9580  136.8260 C   0  0  0  0  0  2  0  0  0  0  0  0
  193.8990  175.1370  136.7320 N   0  0  0  0  0  2  0  0  0  0  0  0
  195.2230  176.7610  135.6990 O   0  0  0  0  0  0  0  0  0  0  0  0
  195.1300  175.5840  136.1440 C   0  0  0  0  0  0  0  0  0  0  0  0
  197.2160  171.0160  135.5900 C   0  0  0  0  0  1  0  0  0  0  0  0
  198.5890  173.0750  135.8680 C   0  0  0  0  0  3  0  0  0  0  0  0
  198.7230  174.4570  135.9690 C   0  0  0  0  0  3  0  0  0  0  0  0
  196.3060  174.6840  136.0420 C   0  0  0  0  0  0  0  0  0  0  0  0
  197.3210  172.4870  135.7930 C   0  0  0  0  0  0  0  0  0  0  0  0
  196.1730  173.2890  135.8680 C   0  0  0  0  0  0  0  0  0  0  0  0
  194.9420  172.7290  135.6960 F   0  0  0  0  0  0  0  0  0  0  0  0
  197.5870  175.2570  136.0390 C   0  0  0  0  0  3  0  0  0  0  0  0
  1 27  1  6  0  0  0
  1  5  1  0  0  0  0
  2 51  1  6  0  0  0
  2  6  1  0  0  0  0
  3  7  1  0  0  0  0
  4  1  1  0  0  0  0
  4  2  1  0  0  0  0
  5  6  2  0  0  0  0
  6  3  1  0  0  0  0
  7 12  1  0  0  0  0
  8 14  1  0  0  0  0
  9  8  1  0  0  0  0
 10  9  2  0  0  0  0
 11  8  1  0  0  0  0
 12 10  1  0  0  0  0
 13 10  1  0  0  0  0
 13 11  2  0  0  0  0
 14 15  1  0  0  0  0
 15 16  1  1  0  0  0
 17 20  1  0  0  0  0
 17 18  1  0  0  0  0
 18 15  1  6  0  0  0
 18 21  1  0  0  0  0
 19 24  1  6  0  0  0
 20 23  1  6  0  0  0
 20 19  1  0  0  0  0
 21 19  1  0  0  0  0
 22 23  1  0  0  0  0
 24 26  1  0  0  0  0
 26 25  1  0  0  0  0
 27 47  1  1  0  0  0
 29 30  2  0  0  0  0
 30 27  1  0  0  0  0
 30 28  1  0  0  0  0
 31 28  1  0  0  0  0
 31 32  1  0  0  0  0
 33 34  1  0  0  0  0
 33 32  1  0  0  0  0
 35 40  1  0  0  0  0
 36 43  1  6  0  0  0
 37 42  2  0  0  0  0
 37 46  1  0  0  0  0
 38 35  1  0  0  0  0
 41 36  1  0  0  0  0
 41 44  1  1  0  0  0
 42 45  1  0  0  0  0
 43 38  1  0  0  0  0
 44 40  1  0  0  0  0
 45 41  1  0  0  0  0
 45 39  1  1  0  0  0
 45 36  1  0  0  0  0
 46 34  1  6  0  0  0
 46 41  1  0  0  0  0
 48 47  1  0  0  0  0
 48 49  1  0  0  0  0
 49 50  1  0  0  0  0
 52 51  1  0  0  0  0
 53 54  2  0  0  0  0
 54 52  1  0  0  0  0
 55 59  1  0  0  0  0
 56 57  1  0  0  0  0
 57 62  2  0  0  0  0
 58 54  1  0  0  0  0
 59 60  1  0  0  0  0
 59 56  2  0  0  0  0
 60 58  2  0  0  0  0
 61 60  1  0  0  0  0
 62 58  1  0  0  0  0
M  END
>  <MODEL>
4

>  <REMARK>
 VINA RESULT:      -5.9      2.463      8.208
  Name = 
  21 active torsions:
  status: ('A' for Active; 'I' for Inactive)
    1  A    between atoms: N_1  and  C_54
    2  A    between atoms: C_3  and  C_60
    3  A    between atoms: C_3  and  C_62
    4  A    between atoms: C_5  and  C_18
    5  A    between atoms: C_5  and  C_20
    6  A    between atoms: C_6  and  C_44
    7  A    between atoms: C_6  and  C_60
    8  A    between atoms: C_7  and  C_47
    9  A    between atoms: C_8  and  C_54
   10  A    between atoms: N_11  and  C_20
   11  A    between atoms: C_14  and  C_38
   12  A    between atoms: N_15  and  C_44
   13  A    between atoms: C_19  and  N_24
   14  A    between atoms: C_19  and  N_55
   15  A    between atoms: N_21  and  C_46
   16  A    between atoms: O_26  and  C_31
   17  A    between atoms: C_30  and  C_53
   18  A    between atoms: C_31  and  C_36
   19  A    between atoms: C_39  and  C_46
   20  A    between atoms: C_39  and  C_47
   21  A    between atoms: C_47  and  C_49
                            x       y       z     vdW  Elec       q    Type
                         _______ _______ _______ _____ _____    ______ ____

>  <TORSDO>
F 21

$$$$
=
 OpenBabel10222415593D

 62 68  0  0  1  0  0  0  0  0999 V2000
  189.4410  175.0870  137.4160 C   0  0  1  0  0  3  0  0  0  0  0  0
  191.8510  175.4760  138.3560 C   0  0  2  0  0  3  0  0  0  0  0  0
  191.0190  177.5010  139.6600 N   0  0  0  0  0  2  0  0  0  0  0  0
  191.0710  174.2840  137.2010 S   0  0  0  0  0  0  0  0  0  0  0  0
  189.6350  176.3090  138.1820 N   0  0  0  0  0  0  0  0  0  0  0  0
  190.8110  176.4970  138.6750 C   0  0  0  0  0  0  0  0  0  0  0  0
  190.8320  177.1350  141.0600 C   0  0  0  0  0  2  0  0  0  0  0  0
  187.9950  177.2680  144.6480 N   0  0  0  0  0  0  0  0  0  0  0  0
  187.9990  177.0190  143.2820 N   0  0  0  0  0  0  0  0  0  0  0  0
  189.0790  177.4850  142.7650 C   0  0  0  0  0  0  0  0  0  0  0  0
  189.1550  178.0450  145.0480 C   0  0  0  0  0  3  0  0  0  0  0  0
  189.4320  177.2310  141.4030 N   0  0  0  0  0  2  0  0  0  0  0  0
  190.0090  178.0870  143.7760 C   0  0  0  0  0  3  0  0  0  0  0  0
  186.9580  176.7780  145.5310 C   0  0  0  0  0  2  0  0  0  0  0  0
  186.1320  177.8990  146.1490 C   0  0  1  0  0  3  0  0  0  0  0  0
  186.8060  178.6280  147.1470 O   0  0  0  0  0  1  0  0  0  0  0  0
  184.2630  179.2960  145.4380 O   0  0  0  0  0  0  0  0  0  0  0  0
  185.5490  178.8320  145.0960 C   0  0  2  0  0  3  0  0  0  0  0  0
  184.4370  178.9840  143.0620 C   0  0  1  0  0  3  0  0  0  0  0  0
  183.5500  179.4750  144.2230 C   0  0  1  0  0  3  0  0  0  0  0  0
  185.4830  178.1590  143.7440 C   0  0  0  0  0  2  0  0  0  0  0  0
  181.2320  179.2160  143.2380 C   0  0  0  0  0  1  0  0  0  0  0  0
  182.1900  178.7570  144.3360 C   0  0  0  0  0  2  0  0  0  0  0  0
  183.7410  178.2290  141.9280 C   0  0  0  0  0  2  0  0  0  0  0  0
  183.5600  178.0490  139.7300 C   0  0  0  0  0  1  0  0  0  0  0  0
  183.7610  178.9700  140.7550 O   0  0  0  0  0  0  0  0  0  0  0  0
  188.7100  175.3190  136.0790 C   0  0  1  0  0  3  0  0  0  0  0  0
  186.8510  174.0550  134.9390 N   0  0  0  0  0  2  0  0  0  0  0  0
  186.6000  174.8390  137.1260 O   0  0  0  0  0  0  0  0  0  0  0  0
  187.3420  174.7180  136.1130 C   0  0  0  0  0  0  0  0  0  0  0  0
  185.5380  173.4760  134.7910 C   0  0  0  0  0  2  0  0  0  0  0  0
  185.3710  172.1950  135.5850 C   0  0  0  0  0  2  0  0  0  0  0  0
  183.9330  172.1480  136.0440 C   0  0  0  0  0  2  0  0  0  0  0  0
  183.5750  173.2430  137.0450 C   0  0  0  0  0  2  0  0  0  0  0  0
  180.5670  171.9530  134.9080 C   0  0  0  0  0  2  0  0  0  0  0  0
  179.6090  173.8360  137.0470 C   0  0  2  0  0  3  0  0  0  0  0  0
  182.2800  175.3470  136.7790 C   0  0  0  0  0  3  0  0  0  0  0  0
  179.6180  173.1660  134.5950 C   0  0  0  0  0  2  0  0  0  0  0  0
  180.1250  174.2620  139.4540 O   0  0  0  0  0  1  0  0  0  0  0  0
  180.2000  171.2010  136.2170 C   0  0  0  0  0  2  0  0  0  0  0  0
  181.0270  173.3320  137.4270 C   0  0  2  0  0  0  0  0  0  0  0  0
  181.2480  175.7610  137.8060 C   0  0  0  0  0  3  0  0  0  0  0  0
  179.6480  174.3350  135.6020 C   0  0  0  0  0  2  0  0  0  0  0  0
  180.8250  171.8070  137.5080 C   0  0  0  0  0  2  0  0  0  0  0  0
  180.4270  174.5230  138.1180 C   0  0  1  0  0  0  0  0  0  0  0  0
  182.2350  173.8440  136.6260 C   0  0  2  0  0  3  0  0  0  0  0  0
  188.6290  176.8090  135.6920 C   0  0  0  0  0  2  0  0  0  0  0  0
  187.2440  177.4000  135.9800 C   0  0  0  0  0  2  0  0  0  0  0  0
  187.3550  178.8130  136.3180 N   0  0  0  0  0  2  0  0  0  0  0  0
  188.6580  179.0280  136.9150 C   0  0  0  0  0  1  0  0  0  0  0  0
  193.0660  176.1360  137.7120 C   0  0  0  0  0  2  0  0  0  0  0  0
  194.2540  175.2780  137.7650 N   0  0  0  0  0  2  0  0  0  0  0  0
  195.2510  176.1100  135.8220 O   0  0  0  0  0  0  0  0  0  0  0  0
  195.3040  175.2960  136.7840 C   0  0  0  0  0  0  0  0  0  0  0  0
  197.7820  171.1130  135.4130 C   0  0  0  0  0  1  0  0  0  0  0  0
  198.6770  172.6800  137.1280 C   0  0  0  0  0  3  0  0  0  0  0  0
  198.6280  173.8710  137.8470 C   0  0  0  0  0  3  0  0  0  0  0  0
  196.4580  174.3680  136.8760 C   0  0  0  0  0  0  0  0  0  0  0  0
  197.6520  172.3470  136.2350 C   0  0  0  0  0  0  0  0  0  0  0  0
  196.5430  173.1930  136.0950 C   0  0  0  0  0  0  0  0  0  0  0  0
  195.5960  172.9200  135.1540 F   0  0  0  0  0  0  0  0  0  0  0  0
  197.5320  174.7170  137.7090 C   0  0  0  0  0  3  0  0  0  0  0  0
  1 27  1  6  0  0  0
  1  5  1  0  0  0  0
  2 51  1  6  0  0  0
  2  6  1  0  0  0  0
  3  7  1  0  0  0  0
  4  1  1  0  0  0  0
  4  2  1  0  0  0  0
  5  6  2  0  0  0  0
  6  3  1  0  0  0  0
  7 12  1  0  0  0  0
  8 11  1  0  0  0  0
  8 14  1  0  0  0  0
  9  8  1  0  0  0  0
 10  9  2  0  0  0  0
 10 13  1  0  0  0  0
 12 10  1  0  0  0  0
 13 11  2  0  0  0  0
 14 15  1  0  0  0  0
 15 16  1  1  0  0  0
 18 17  1  0  0  0  0
 18 15  1  1  0  0  0
 19 24  1  6  0  0  0
 19 21  1  0  0  0  0
 19 20  1  0  0  0  0
 20 23  1  1  0  0  0
 20 17  1  0  0  0  0
 21 18  1  0  0  0  0
 22 23  1  0  0  0  0
 25 26  1  0  0  0  0
 26 24  1  0  0  0  0
 27 47  1  1  0  0  0
 27 30  1  0  0  0  0
 28 30  1  0  0  0  0
 30 29  2  0  0  0  0
 31 28  1  0  0  0  0
 31 32  1  0  0  0  0
 32 33  1  0  0  0  0
 33 34  1  0  0  0  0
 35 40  1  0  0  0  0
 36 43  1  6  0  0  0
 36 41  1  0  0  0  0
 36 45  1  0  0  0  0
 37 42  2  0  0  0  0
 38 35  1  0  0  0  0
 38 43  1  0  0  0  0
 40 44  1  0  0  0  0
 41 44  1  1  0  0  0
 41 45  1  0  0  0  0
 42 45  1  0  0  0  0
 45 39  1  1  0  0  0
 46 37  1  0  0  0  0
 46 34  1  1  0  0  0
 46 41  1  0  0  0  0
 47 48  1  0  0  0  0
 48 49  1  0  0  0  0
 49 50  1  0  0  0  0
 51 52  1  0  0  0  0
 53 54  2  0  0  0  0
 54 58  1  0  0  0  0
 54 52  1  0  0  0  0
 55 59  1  0  0  0  0
 56 57  1  0  0  0  0
 58 62  1  0  0  0  0
 59 56  2  0  0  0  0
 60 59  1  0  0  0  0
 60 58  2  0  0  0  0
 61 60  1  0  0  0  0
 62 57  2  0  0  0  0
M  END
>  <MODEL>
5

>  <REMARK>
 VINA RESULT:      -5.8      2.829      7.799
  Name = 
  21 active torsions:
  status: ('A' for Active; 'I' for Inactive)
    1  A    between atoms: N_1  and  C_54
    2  A    between atoms: C_3  and  C_60
    3  A    between atoms: C_3  and  C_62
    4  A    between atoms: C_5  and  C_18
    5  A    between atoms: C_5  and  C_20
    6  A    between atoms: C_6  and  C_44
    7  A    between atoms: C_6  and  C_60
    8  A    between atoms: C_7  and  C_47
    9  A    between atoms: C_8  and  C_54
   10  A    between atoms: N_11  and  C_20
   11  A    between atoms: C_14  and  C_38
   12  A    between atoms: N_15  and  C_44
   13  A    between atoms: C_19  and  N_24
   14  A    between atoms: C_19  and  N_55
   15  A    between atoms: N_21  and  C_46
   16  A    between atoms: O_26  and  C_31
   17  A    between atoms: C_30  and  C_53
   18  A    between atoms: C_31  and  C_36
   19  A    between atoms: C_39  and  C_46
   20  A    between atoms: C_39  and  C_47
   21  A    between atoms: C_47  and  C_49
                            x       y       z     vdW  Elec       q    Type
                         _______ _______ _______ _____ _____    ______ ____

>  <TORSDO>
F 21

$$$$
=
 OpenBabel10222415593D

 62 68  0  0  1  0  0  0  0  0999 V2000
  181.9170  177.8240  141.1690 C   0  0  1  0  0  3  0  0  0  0  0  0
  184.3610  178.3310  141.9470 C   0  0  2  0  0  3  0  0  0  0  0  0
  183.4790  180.0500  143.6080 N   0  0  0  0  0  2  0  0  0  0  0  0
  183.5840  177.2380  140.6960 S   0  0  0  0  0  0  0  0  0  0  0  0
  182.0700  178.9380  142.0910 N   0  0  0  0  0  0  0  0  0  0  0  0
  183.2670  179.1790  142.5040 C   0  0  0  0  0  0  0  0  0  0  0  0
  183.4670  179.4710  144.9480 C   0  0  0  0  0  2  0  0  0  0  0  0
  187.3540  177.4410  146.2570 N   0  0  0  0  0  0  0  0  0  0  0  0
  186.2850  177.2700  145.3860 N   0  0  0  0  0  0  0  0  0  0  0  0
  185.3180  178.0400  145.7390 C   0  0  0  0  0  0  0  0  0  0  0  0
  187.0190  178.3570  147.3330 C   0  0  0  0  0  3  0  0  0  0  0  0
  184.1490  178.1980  144.9320 N   0  0  0  0  0  2  0  0  0  0  0  0
  185.6510  178.9080  146.9160 C   0  0  0  0  0  3  0  0  0  0  0  0
  188.6300  176.7850  146.0680 C   0  0  0  0  0  2  0  0  0  0  0  0
  189.8120  177.7190  146.2960 C   0  0  1  0  0  3  0  0  0  0  0  0
  190.8450  177.1620  147.0730 O   0  0  0  0  0  1  0  0  0  0  0  0
  189.3690  178.3940  143.9950 O   0  0  0  0  0  0  0  0  0  0  0  0
  190.3580  178.2850  144.9920 C   0  0  2  0  0  3  0  0  0  0  0  0
  191.4880  177.8210  143.0160 C   0  0  1  0  0  3  0  0  0  0  0  0
  190.0150  178.1860  142.7470 C   0  0  1  0  0  3  0  0  0  0  0  0
  191.4960  177.4420  144.4650 C   0  0  0  0  0  2  0  0  0  0  0  0
  188.3400  176.2910  142.8760 C   0  0  0  0  0  1  0  0  0  0  0  0
  189.2290  177.1230  141.9530 C   0  0  0  0  0  2  0  0  0  0  0  0
  192.1110  176.7470  142.1250 C   0  0  0  0  0  2  0  0  0  0  0  0
  193.3180  177.0100  140.2890 C   0  0  0  0  0  1  0  0  0  0  0  0
  192.0200  177.1000  140.7860 O   0  0  0  0  0  0  0  0  0  0  0  0
  181.0370  178.1630  139.9490 C   0  0  1  0  0  3  0  0  0  0  0  0
  181.1630  176.3880  138.1640 N   0  0  0  0  0  2  0  0  0  0  0  0
  179.4500  176.3680  139.7520 O   0  0  0  0  0  0  0  0  0  0  0  0
  180.5000  176.9160  139.3210 C   0  0  0  0  0  0  0  0  0  0  0  0
  180.7410  175.2320  137.4110 C   0  0  0  0  0  2  0  0  0  0  0  0
  180.1990  175.5940  136.0410 C   0  0  0  0  0  2  0  0  0  0  0  0
  181.2840  175.2710  135.0410 C   0  0  0  0  0  2  0  0  0  0  0  0
  182.6380  174.9760  135.6830 C   0  0  0  0  0  2  0  0  0  0  0  0
  185.9580  172.9120  135.6870 C   0  0  0  0  0  2  0  0  0  0  0  0
  183.6400  171.1800  136.5030 C   0  0  2  0  0  3  0  0  0  0  0  0
  181.8520  172.8620  134.6410 C   0  0  0  0  0  3  0  0  0  0  0  0
  185.6800  171.5140  135.0240 C   0  0  0  0  0  2  0  0  0  0  0  0
  181.6070  171.4250  137.9350 O   0  0  0  0  0  1  0  0  0  0  0  0
  185.7440  172.9210  137.2260 C   0  0  0  0  0  2  0  0  0  0  0  0
  183.2310  172.6690  136.6680 C   0  0  2  0  0  0  0  0  0  0  0  0
  181.2710  171.7470  135.4850 C   0  0  0  0  0  3  0  0  0  0  0  0
  184.2280  170.9960  135.1030 C   0  0  0  0  0  2  0  0  0  0  0  0
  184.2760  173.1880  137.6730 C   0  0  0  0  0  2  0  0  0  0  0  0
  182.1930  171.5830  136.6800 C   0  0  1  0  0  0  0  0  0  0  0  0
  182.9790  173.5120  135.4090 C   0  0  2  0  0  3  0  0  0  0  0  0
  179.8830  179.1260  140.2930 C   0  0  0  0  0  2  0  0  0  0  0  0
  180.2920  180.5930  140.1180 C   0  0  0  0  0  2  0  0  0  0  0  0
  179.3080  181.3020  139.3110 N   0  0  0  0  0  2  0  0  0  0  0  0
  179.9870  182.3900  138.6360 C   0  0  0  0  0  1  0  0  0  0  0  0
  185.4390  179.2030  141.3090 C   0  0  0  0  0  2  0  0  0  0  0  0
  186.1440  178.5070  140.2280 N   0  0  0  0  0  2  0  0  0  0  0  0
  184.7130  179.1940  138.5130 O   0  0  0  0  0  0  0  0  0  0  0  0
  185.7260  178.5230  138.8540 C   0  0  0  0  0  0  0  0  0  0  0  0
  189.9880  177.1080  136.5410 C   0  0  0  0  0  1  0  0  0  0  0  0
  187.7530  176.2820  135.8200 C   0  0  0  0  0  3  0  0  0  0  0  0
  186.3750  176.1690  135.9820 C   0  0  0  0  0  3  0  0  0  0  0  0
  186.4620  177.7590  137.8160 C   0  0  0  0  0  0  0  0  0  0  0  0
  188.5070  177.0840  136.6850 C   0  0  0  0  0  0  0  0  0  0  0  0
  187.8680  177.8170  137.6950 C   0  0  0  0  0  0  0  0  0  0  0  0
  188.6110  178.5180  138.5970 F   0  0  0  0  0  0  0  0  0  0  0  0
  185.7370  176.8920  136.9850 C   0  0  0  0  0  3  0  0  0  0  0  0
  1 27  1  6  0  0  0
  1  5  1  0  0  0  0
  2 51  1  6  0  0  0
  2  6  1  0  0  0  0
  3  7  1  0  0  0  0
  4  1  1  0  0  0  0
  4  2  1  0  0  0  0
  5  6  2  0  0  0  0
  6  3  1  0  0  0  0
  8 11  1  0  0  0  0
  9 10  2  0  0  0  0
  9  8  1  0  0  0  0
 10 13  1  0  0  0  0
 12  7  1  0  0  0  0
 12 10  1  0  0  0  0
 13 11  2  0  0  0  0
 14  8  1  0  0  0  0
 14 15  1  0  0  0  0
 15 16  1  6  0  0  0
 17 18  1  0  0  0  0
 18 15  1  1  0  0  0
 19 24  1  6  0  0  0
 19 21  1  0  0  0  0
 20 23  1  1  0  0  0
 20 19  1  0  0  0  0
 20 17  1  0  0  0  0
 21 18  1  0  0  0  0
 23 22  1  0  0  0  0
 25 26  1  0  0  0  0
 26 24  1  0  0  0  0
 27 47  1  1  0  0  0
 28 30  1  0  0  0  0
 30 29  2  0  0  0  0
 30 27  1  0  0  0  0
 31 28  1  0  0  0  0
 32 31  1  0  0  0  0
 33 34  1  0  0  0  0
 33 32  1  0  0  0  0
 35 40  1  0  0  0  0
 36 43  1  6  0  0  0
 36 41  1  0  0  0  0
 36 45  1  0  0  0  0
 37 46  1  0  0  0  0
 37 42  2  0  0  0  0
 38 43  1  0  0  0  0
 38 35  1  0  0  0  0
 40 44  1  0  0  0  0
 41 45  1  0  0  0  0
 41 44  1  1  0  0  0
 42 45  1  0  0  0  0
 45 39  1  1  0  0  0
 46 34  1  1  0  0  0
 46 41  1  0  0  0  0
 48 47  1  0  0  0  0
 49 48  1  0  0  0  0
 50 49  1  0  0  0  0
 52 51  1  0  0  0  0
 53 54  2  0  0  0  0
 54 52  1  0  0  0  0
 55 59  1  0  0  0  0
 56 57  2  0  0  0  0
 56 59  1  0  0  0  0
 57 62  1  0  0  0  0
 58 54  1  0  0  0  0
 59 60  2  0  0  0  0
 60 58  1  0  0  0  0
 60 61  1  0  0  0  0
 62 58  2  0  0  0  0
M  END
>  <MODEL>
6

>  <REMARK>
 VINA RESULT:      -5.8      3.506     10.266
  Name = 
  21 active torsions:
  status: ('A' for Active; 'I' for Inactive)
    1  A    between atoms: N_1  and  C_54
    2  A    between atoms: C_3  and  C_60
    3  A    between atoms: C_3  and  C_62
    4  A    between atoms: C_5  and  C_18
    5  A    between atoms: C_5  and  C_20
    6  A    between atoms: C_6  and  C_44
    7  A    between atoms: C_6  and  C_60
    8  A    between atoms: C_7  and  C_47
    9  A    between atoms: C_8  and  C_54
   10  A    between atoms: N_11  and  C_20
   11  A    between atoms: C_14  and  C_38
   12  A    between atoms: N_15  and  C_44
   13  A    between atoms: C_19  and  N_24
   14  A    between atoms: C_19  and  N_55
   15  A    between atoms: N_21  and  C_46
   16  A    between atoms: O_26  and  C_31
   17  A    between atoms: C_30  and  C_53
   18  A    between atoms: C_31  and  C_36
   19  A    between atoms: C_39  and  C_46
   20  A    between atoms: C_39  and  C_47
   21  A    between atoms: C_47  and  C_49
                            x       y       z     vdW  Elec       q    Type
                         _______ _______ _______ _____ _____    ______ ____

>  <TORSDO>
F 21

$$$$
=
 OpenBabel10222415593D

 62 68  0  0  1  0  0  0  0  0999 V2000
  189.3270  176.3210  138.3540 C   0  0  1  0  0  3  0  0  0  0  0  0
  191.8830  176.0410  138.8340 C   0  0  2  0  0  3  0  0  0  0  0  0
  191.7580  177.8800  140.5930 N   0  0  0  0  0  2  0  0  0  0  0  0
  190.6740  175.2800  137.6830 S   0  0  0  0  0  0  0  0  0  0  0  0
  189.9160  177.3020  139.2540 N   0  0  0  0  0  0  0  0  0  0  0  0
  191.1680  177.1560  139.5210 C   0  0  0  0  0  0  0  0  0  0  0  0
  191.7240  177.2810  141.9230 C   0  0  0  0  0  2  0  0  0  0  0  0
  189.5720  176.9300  145.9460 N   0  0  0  0  0  0  0  0  0  0  0  0
  189.3450  177.3020  144.6270 N   0  0  0  0  0  0  0  0  0  0  0  0
  190.4700  177.5020  144.0400 C   0  0  0  0  0  0  0  0  0  0  0  0
  190.9870  176.9670  146.2710 C   0  0  0  0  0  3  0  0  0  0  0  0
  190.5510  177.7380  142.6320 N   0  0  0  0  0  2  0  0  0  0  0  0
  191.6550  177.2220  144.9150 C   0  0  0  0  0  3  0  0  0  0  0  0
  188.5070  176.5400  146.8450 C   0  0  0  0  0  2  0  0  0  0  0  0
  187.7470  177.7320  147.4110 C   0  0  1  0  0  3  0  0  0  0  0  0
  188.4820  178.4990  148.3340 O   0  0  0  0  0  1  0  0  0  0  0  0
  185.8590  179.0570  146.6160 O   0  0  0  0  0  0  0  0  0  0  0  0
  187.1630  178.6150  146.3150 C   0  0  2  0  0  3  0  0  0  0  0  0
  186.0900  178.6710  144.2560 C   0  0  1  0  0  3  0  0  0  0  0  0
  185.1670  179.1780  145.3820 C   0  0  1  0  0  3  0  0  0  0  0  0
  187.1420  177.8960  144.9860 C   0  0  0  0  0  2  0  0  0  0  0  0
  182.7310  179.1400  144.6940 C   0  0  0  0  0  1  0  0  0  0  0  0
  183.8230  178.4300  145.4910 C   0  0  0  0  0  2  0  0  0  0  0  0
  185.4370  177.8630  143.1340 C   0  0  0  0  0  2  0  0  0  0  0  0
  186.8060  178.6090  141.5640 C   0  0  0  0  0  1  0  0  0  0  0  0
  185.4650  178.5640  141.9370 O   0  0  0  0  0  0  0  0  0  0  0  0
  188.4580  176.9550  137.2500 C   0  0  1  0  0  3  0  0  0  0  0  0
  186.0630  177.5580  137.7500 N   0  0  0  0  0  2  0  0  0  0  0  0
  187.8080  178.9900  138.3520 O   0  0  0  0  0  0  0  0  0  0  0  0
  187.4550  177.8930  137.8400 C   0  0  0  0  0  0  0  0  0  0  0  0
  184.9710  178.3780  138.2150 C   0  0  0  0  0  2  0  0  0  0  0  0
  184.0650  177.6480  139.1860 C   0  0  0  0  0  2  0  0  0  0  0  0
  183.0010  178.6300  139.6170 C   0  0  0  0  0  2  0  0  0  0  0  0
  182.9260  179.8750  138.7360 C   0  0  0  0  0  2  0  0  0  0  0  0
  180.9600  180.5180  135.4190 C   0  0  0  0  0  2  0  0  0  0  0  0
  179.2270  179.0730  137.4070 C   0  0  2  0  0  3  0  0  0  0  0  0
  180.7220  180.5670  139.6490 C   0  0  0  0  0  3  0  0  0  0  0  0
  179.5110  181.0080  135.7820 C   0  0  0  0  0  2  0  0  0  0  0  0
  179.5180  177.2230  139.0610 O   0  0  0  0  0  1  0  0  0  0  0  0
  181.0740  178.9760  135.2700 C   0  0  0  0  0  2  0  0  0  0  0  0
  180.7130  178.9110  137.8300 C   0  0  2  0  0  0  0  0  0  0  0  0
  179.6550  179.5420  139.9690 C   0  0  0  0  0  3  0  0  0  0  0  0
  178.9610  180.5580  137.1520 C   0  0  0  0  0  2  0  0  0  0  0  0
  181.3310  178.2150  136.6040 C   0  0  0  0  0  2  0  0  0  0  0  0
  179.6020  178.5890  138.7900 C   0  0  1  0  0  0  0  0  0  0  0  0
  181.4570  180.1280  138.4040 C   0  0  2  0  0  3  0  0  0  0  0  0
  189.2940  177.6760  136.1720 C   0  0  0  0  0  2  0  0  0  0  0  0
  188.8250  177.3250  134.7560 C   0  0  0  0  0  2  0  0  0  0  0  0
  188.1770  176.0200  134.7430 N   0  0  0  0  0  2  0  0  0  0  0  0
  189.2080  175.0130  134.5940 C   0  0  0  0  0  1  0  0  0  0  0  0
  193.0930  176.5720  138.0730 C   0  0  0  0  0  2  0  0  0  0  0  0
  194.2210  175.6350  138.1060 N   0  0  0  0  0  2  0  0  0  0  0  0
  194.0420  174.9500  135.8790 O   0  0  0  0  0  0  0  0  0  0  0  0
  194.6380  174.8390  136.9850 C   0  0  0  0  0  0  0  0  0  0  0  0
  196.4710  170.1470  137.3740 C   0  0  0  0  0  1  0  0  0  0  0  0
  197.9520  172.1470  137.3230 C   0  0  0  0  0  3  0  0  0  0  0  0
  198.1630  173.5150  137.1720 C   0  0  0  0  0  3  0  0  0  0  0  0
  195.7620  173.8760  137.1010 C   0  0  0  0  0  0  0  0  0  0  0  0
  196.6540  171.6220  137.3050 C   0  0  0  0  0  0  0  0  0  0  0  0
  195.5530  172.4820  137.1830 C   0  0  0  0  0  0  0  0  0  0  0  0
  194.2980  171.9640  137.0660 F   0  0  0  0  0  0  0  0  0  0  0  0
  197.0740  174.3720  137.0460 C   0  0  0  0  0  3  0  0  0  0  0  0
  1 27  1  6  0  0  0
  1  5  1  0  0  0  0
  2 51  1  6  0  0  0
  2  6  1  0  0  0  0
  3  7  1  0  0  0  0
  4  1  1  0  0  0  0
  4  2  1  0  0  0  0
  5  6  2  0  0  0  0
  6  3  1  0  0  0  0
  7 12  1  0  0  0  0
  8 11  1  0  0  0  0
  8 14  1  0  0  0  0
  9  8  1  0  0  0  0
 10  9  2  0  0  0  0
 10 13  1  0  0  0  0
 12 10  1  0  0  0  0
 13 11  2  0  0  0  0
 14 15  1  0  0  0  0
 15 16  1  6  0  0  0
 18 17  1  0  0  0  0
 18 15  1  1  0  0  0
 19 24  1  6  0  0  0
 19 21  1  0  0  0  0
 19 20  1  0  0  0  0
 20 23  1  1  0  0  0
 20 17  1  0  0  0  0
 21 18  1  0  0  0  0
 22 23  1  0  0  0  0
 25 26  1  0  0  0  0
 26 24  1  0  0  0  0
 27 47  1  6  0  0  0
 27 30  1  0  0  0  0
 28 30  1  0  0  0  0
 28 31  1  0  0  0  0
 30 29  2  0  0  0  0
 31 32  1  0  0  0  0
 32 33  1  0  0  0  0
 34 33  1  0  0  0  0
 35 38  1  0  0  0  0
 36 43  1  1  0  0  0
 36 41  1  0  0  0  0
 36 45  1  0  0  0  0
 37 42  2  0  0  0  0
 38 43  1  0  0  0  0
 40 35  1  0  0  0  0
 40 44  1  0  0  0  0
 41 44  1  6  0  0  0
 41 46  1  0  0  0  0
 41 45  1  0  0  0  0
 45 39  1  1  0  0  0
 45 42  1  0  0  0  0
 46 34  1  1  0  0  0
 46 37  1  0  0  0  0
 48 47  1  0  0  0  0
 49 48  1  0  0  0  0
 50 49  1  0  0  0  0
 51 52  1  0  0  0  0
 53 54  2  0  0  0  0
 54 58  1  0  0  0  0
 54 52  1  0  0  0  0
 57 56  2  0  0  0  0
 58 60  1  0  0  0  0
 59 56  1  0  0  0  0
 59 55  1  0  0  0  0
 60 59  2  0  0  0  0
 61 60  1  0  0  0  0
 62 58  2  0  0  0  0
 62 57  1  0  0  0  0
M  END
>  <MODEL>
7

>  <REMARK>
 VINA RESULT:      -5.6      2.373      7.949
  Name = 
  21 active torsions:
  status: ('A' for Active; 'I' for Inactive)
    1  A    between atoms: N_1  and  C_54
    2  A    between atoms: C_3  and  C_60
    3  A    between atoms: C_3  and  C_62
    4  A    between atoms: C_5  and  C_18
    5  A    between atoms: C_5  and  C_20
    6  A    between atoms: C_6  and  C_44
    7  A    between atoms: C_6  and  C_60
    8  A    between atoms: C_7  and  C_47
    9  A    between atoms: C_8  and  C_54
   10  A    between atoms: N_11  and  C_20
   11  A    between atoms: C_14  and  C_38
   12  A    between atoms: N_15  and  C_44
   13  A    between atoms: C_19  and  N_24
   14  A    between atoms: C_19  and  N_55
   15  A    between atoms: N_21  and  C_46
   16  A    between atoms: O_26  and  C_31
   17  A    between atoms: C_30  and  C_53
   18  A    between atoms: C_31  and  C_36
   19  A    between atoms: C_39  and  C_46
   20  A    between atoms: C_39  and  C_47
   21  A    between atoms: C_47  and  C_49
                            x       y       z     vdW  Elec       q    Type
                         _______ _______ _______ _____ _____    ______ ____

>  <TORSDO>
F 21

$$$$
=
 OpenBabel10222415593D

 62 68  0  0  1  0  0  0  0  0999 V2000
  186.2570  179.3730  141.2030 C   0  0  1  0  0  3  0  0  0  0  0  0
  188.5580  178.3470  140.5000 C   0  0  2  0  0  3  0  0  0  0  0  0
  187.5700  177.6650  138.2530 N   0  0  0  0  0  2  0  0  0  0  0  0
  187.8930  179.1720  141.9970 S   0  0  0  0  0  0  0  0  0  0  0  0
  186.2660  178.6340  139.9500 N   0  0  0  0  0  0  0  0  0  0  0  0
  187.4010  178.1490  139.5790 C   0  0  0  0  0  0  0  0  0  0  0  0
  187.9930  178.6120  137.2270 C   0  0  0  0  0  2  0  0  0  0  0  0
  188.2430  174.4050  135.4430 N   0  0  0  0  0  0  0  0  0  0  0  0
  188.6000  175.7190  135.1680 N   0  0  0  0  0  0  0  0  0  0  0  0
  187.9320  176.5120  135.9280 C   0  0  0  0  0  0  0  0  0  0  0  0
  187.1780  174.3410  136.4280 C   0  0  0  0  0  3  0  0  0  0  0  0
  188.2080  177.9140  135.9810 N   0  0  0  0  0  2  0  0  0  0  0  0
  187.0390  175.7930  136.8960 C   0  0  0  0  0  3  0  0  0  0  0  0
  188.8920  173.2710  134.8210 C   0  0  0  0  0  2  0  0  0  0  0  0
  190.2210  172.9180  135.4770 C   0  0  1  0  0  3  0  0  0  0  0  0
  190.8200  171.7490  134.9720 O   0  0  0  0  0  1  0  0  0  0  0  0
  192.4860  173.7000  135.0240 O   0  0  0  0  0  0  0  0  0  0  0  0
  191.2010  174.0840  135.4560 C   0  0  2  0  0  3  0  0  0  0  0  0
  192.6410  175.4110  136.7040 C   0  0  1  0  0  3  0  0  0  0  0  0
  193.4160  174.5290  135.7060 C   0  0  1  0  0  3  0  0  0  0  0  0
  191.3130  174.7290  136.8180 C   0  0  0  0  0  2  0  0  0  0  0  0
  194.0250  172.1860  136.4510 C   0  0  0  0  0  1  0  0  0  0  0  0
  194.4970  173.6350  136.3490 C   0  0  0  0  0  2  0  0  0  0  0  0
  193.2930  175.6560  138.0660 C   0  0  0  0  0  2  0  0  0  0  0  0
  193.5180  177.1270  139.7040 C   0  0  0  0  0  1  0  0  0  0  0  0
  192.6060  176.6300  138.7760 O   0  0  0  0  0  0  0  0  0  0  0  0
  185.0920  178.9780  142.1320 C   0  0  1  0  0  3  0  0  0  0  0  0
  183.8800  178.9240  139.9240 N   0  0  0  0  0  2  0  0  0  0  0  0
  182.7250  178.6150  141.9300 O   0  0  0  0  0  0  0  0  0  0  0  0
  183.8290  178.8030  141.3520 C   0  0  0  0  0  0  0  0  0  0  0  0
  182.7470  178.8400  139.0340 C   0  0  0  0  0  2  0  0  0  0  0  0
  182.1710  177.4400  138.9540 C   0  0  0  0  0  2  0  0  0  0  0  0
  183.3260  176.4800  139.1130 C   0  0  0  0  0  2  0  0  0  0  0  0
  183.4340  175.4610  137.9810 C   0  0  0  0  0  2  0  0  0  0  0  0
  181.6140  178.0360  135.6710 C   0  0  0  0  0  2  0  0  0  0  0  0
  180.9530  175.2240  134.8390 C   0  0  2  0  0  3  0  0  0  0  0  0
  181.1980  174.3940  137.7960 C   0  0  0  0  0  3  0  0  0  0  0  0
  180.1350  177.5520  135.4490 C   0  0  0  0  0  2  0  0  0  0  0  0
  182.1870  173.0650  134.5970 O   0  0  0  0  0  1  0  0  0  0  0  0
  182.6080  177.5010  134.6040 C   0  0  0  0  0  2  0  0  0  0  0  0
  182.2350  175.1950  135.7150 C   0  0  2  0  0  0  0  0  0  0  0  0
  180.9110  173.3700  136.7180 C   0  0  0  0  0  3  0  0  0  0  0  0
  179.8860  176.0350  135.5770 C   0  0  0  0  0  2  0  0  0  0  0  0
  183.1980  176.0950  134.9180 C   0  0  0  0  0  2  0  0  0  0  0  0
  181.4760  173.9320  135.4260 C   0  0  1  0  0  0  0  0  0  0  0  0
  182.1070  175.4570  137.2240 C   0  0  2  0  0  3  0  0  0  0  0  0
  185.3900  177.7100  142.9580 C   0  0  0  0  0  2  0  0  0  0  0  0
  185.4340  178.0040  144.4620 C   0  0  0  0  0  2  0  0  0  0  0  0
  184.7950  179.2810  144.7490 N   0  0  0  0  0  2  0  0  0  0  0  0
  183.4550  179.0100  145.2280 C   0  0  0  0  0  1  0  0  0  0  0  0
  189.1900  177.0050  140.8580 C   0  0  0  0  0  2  0  0  0  0  0  0
  189.3590  176.8430  142.3050 N   0  0  0  0  0  2  0  0  0  0  0  0
  191.4240  177.9280  142.4400 O   0  0  0  0  0  0  0  0  0  0  0  0
  190.5030  177.3080  143.0390 C   0  0  0  0  0  0  0  0  0  0  0  0
  188.8770  177.8020  147.7970 C   0  0  0  0  0  1  0  0  0  0  0  0
  190.9650  176.5700  147.2320 C   0  0  0  0  0  3  0  0  0  0  0  0
  191.8600  176.0270  146.3140 C   0  0  0  0  0  3  0  0  0  0  0  0
  190.6300  177.0700  144.4990 C   0  0  0  0  0  0  0  0  0  0  0  0
  189.8640  177.3160  146.7950 C   0  0  0  0  0  0  0  0  0  0  0  0
  189.6840  177.5610  145.4260 C   0  0  0  0  0  0  0  0  0  0  0  0
  188.5610  178.2010  144.9940 F   0  0  0  0  0  0  0  0  0  0  0  0
  191.6830  176.2630  144.9550 C   0  0  0  0  0  3  0  0  0  0  0  0
  1  4  1  0  0  0  0
  1 27  1  1  0  0  0
  2 51  1  1  0  0  0
  2  4  1  0  0  0  0
  3  6  1  0  0  0  0
  5  1  1  0  0  0  0
  6  5  2  0  0  0  0
  6  2  1  0  0  0  0
  7  3  1  0  0  0  0
  8 11  1  0  0  0  0
  9  8  1  0  0  0  0
  9 10  2  0  0  0  0
 10 12  1  0  0  0  0
 10 13  1  0  0  0  0
 11 13  2  0  0  0  0
 12  7  1  0  0  0  0
 14  8  1  0  0  0  0
 14 15  1  0  0  0  0
 15 16  1  6  0  0  0
 17 18  1  0  0  0  0
 17 20  1  0  0  0  0
 18 15  1  1  0  0  0
 18 21  1  0  0  0  0
 19 21  1  0  0  0  0
 19 24  1  1  0  0  0
 20 23  1  1  0  0  0
 20 19  1  0  0  0  0
 23 22  1  0  0  0  0
 24 26  1  0  0  0  0
 26 25  1  0  0  0  0
 27 47  1  6  0  0  0
 28 30  1  0  0  0  0
 30 29  2  0  0  0  0
 30 27  1  0  0  0  0
 31 28  1  0  0  0  0
 32 31  1  0  0  0  0
 32 33  1  0  0  0  0
 34 33  1  0  0  0  0
 36 45  1  0  0  0  0
 36 43  1  1  0  0  0
 36 41  1  0  0  0  0
 38 43  1  0  0  0  0
 38 35  1  0  0  0  0
 40 44  1  0  0  0  0
 40 35  1  0  0  0  0
 41 44  1  6  0  0  0
 41 46  1  0  0  0  0
 42 37  2  0  0  0  0
 45 39  1  6  0  0  0
 45 41  1  0  0  0  0
 45 42  1  0  0  0  0
 46 37  1  0  0  0  0
 46 34  1  1  0  0  0
 47 48  1  0  0  0  0
 48 49  1  0  0  0  0
 49 50  1  0  0  0  0
 51 52  1  0  0  0  0
 52 54  1  0  0  0  0
 53 54  2  0  0  0  0
 54 58  1  0  0  0  0
 57 56  2  0  0  0  0
 58 62  2  0  0  0  0
 58 60  1  0  0  0  0
 59 56  1  0  0  0  0
 59 55  1  0  0  0  0
 60 59  2  0  0  0  0
 61 60  1  0  0  0  0
 62 57  1  0  0  0  0
M  END
>  <MODEL>
8

>  <REMARK>
 VINA RESULT:      -5.6      2.895      9.835
  Name = 
  21 active torsions:
  status: ('A' for Active; 'I' for Inactive)
    1  A    between atoms: N_1  and  C_54
    2  A    between atoms: C_3  and  C_60
    3  A    between atoms: C_3  and  C_62
    4  A    between atoms: C_5  and  C_18
    5  A    between atoms: C_5  and  C_20
    6  A    between atoms: C_6  and  C_44
    7  A    between atoms: C_6  and  C_60
    8  A    between atoms: C_7  and  C_47
    9  A    between atoms: C_8  and  C_54
   10  A    between atoms: N_11  and  C_20
   11  A    between atoms: C_14  and  C_38
   12  A    between atoms: N_15  and  C_44
   13  A    between atoms: C_19  and  N_24
   14  A    between atoms: C_19  and  N_55
   15  A    between atoms: N_21  and  C_46
   16  A    between atoms: O_26  and  C_31
   17  A    between atoms: C_30  and  C_53
   18  A    between atoms: C_31  and  C_36
   19  A    between atoms: C_39  and  C_46
   20  A    between atoms: C_39  and  C_47
   21  A    between atoms: C_47  and  C_49
                            x       y       z     vdW  Elec       q    Type
                         _______ _______ _______ _____ _____    ______ ____

>  <TORSDO>
F 21

$$$$
=
 OpenBabel10222415593D

 62 68  0  0  1  0  0  0  0  0999 V2000
  189.2580  176.3670  138.2980 C   0  0  1  0  0  3  0  0  0  0  0  0
  191.8040  176.0450  138.8040 C   0  0  2  0  0  3  0  0  0  0  0  0
  191.6570  177.7810  140.6630 N   0  0  0  0  0  2  0  0  0  0  0  0
  190.6110  175.3590  137.5910 S   0  0  0  0  0  0  0  0  0  0  0  0
  189.8360  177.2910  139.2630 N   0  0  0  0  0  0  0  0  0  0  0  0
  191.0830  177.1230  139.5410 C   0  0  0  0  0  0  0  0  0  0  0  0
  191.5990  177.1070  141.9560 C   0  0  0  0  0  2  0  0  0  0  0  0
  189.6580  177.1290  146.1000 N   0  0  0  0  0  0  0  0  0  0  0  0
  189.3310  177.2150  144.7530 N   0  0  0  0  0  0  0  0  0  0  0  0
  190.3870  177.4920  144.0730 C   0  0  0  0  0  0  0  0  0  0  0  0
  191.0530  177.4620  146.3280 C   0  0  0  0  0  3  0  0  0  0  0  0
  190.3840  177.4810  142.6430 N   0  0  0  0  0  2  0  0  0  0  0  0
  191.6260  177.5770  144.9120 C   0  0  0  0  0  3  0  0  0  0  0  0
  188.7040  176.7340  147.1140 C   0  0  0  0  0  2  0  0  0  0  0  0
  187.5930  177.7580  147.3090 C   0  0  1  0  0  3  0  0  0  0  0  0
  188.0220  179.0970  147.2260 O   0  0  0  0  0  1  0  0  0  0  0  0
  186.8060  177.3150  145.0440 O   0  0  0  0  0  0  0  0  0  0  0  0
  186.4100  177.5090  146.3820 C   0  0  2  0  0  3  0  0  0  0  0  0
  184.7040  178.4740  145.1370 C   0  0  1  0  0  3  0  0  0  0  0  0
  185.7640  177.8270  144.2260 C   0  0  1  0  0  3  0  0  0  0  0  0
  185.4200  178.6490  146.4400 C   0  0  0  0  0  2  0  0  0  0  0  0
  187.2110  178.0150  142.1560 C   0  0  0  0  0  1  0  0  0  0  0  0
  186.3780  178.7820  143.1820 C   0  0  0  0  0  2  0  0  0  0  0  0
  184.0610  179.7700  144.6430 C   0  0  0  0  0  2  0  0  0  0  0  0
  182.2860  178.6570  143.9290 C   0  0  0  0  0  1  0  0  0  0  0  0
  183.2830  179.5390  143.5170 O   0  0  0  0  0  0  0  0  0  0  0  0
  188.4110  177.0680  137.2180 C   0  0  1  0  0  3  0  0  0  0  0  0
  186.0610  177.9130  137.5540 N   0  0  0  0  0  2  0  0  0  0  0  0
  187.8760  178.9950  138.5510 O   0  0  0  0  0  0  0  0  0  0  0  0
  187.4610  178.0400  137.8390 C   0  0  0  0  0  0  0  0  0  0  0  0
  185.0250  178.8000  138.0260 C   0  0  0  0  0  2  0  0  0  0  0  0
  184.6400  178.5330  139.4680 C   0  0  0  0  0  2  0  0  0  0  0  0
  183.1320  178.5820  139.5360 C   0  0  0  0  0  2  0  0  0  0  0  0
  182.4650  178.7680  138.1750 C   0  0  0  0  0  2  0  0  0  0  0  0
  180.5960  176.5730  135.5360 C   0  0  0  0  0  2  0  0  0  0  0  0
  180.0540  175.5670  138.3160 C   0  0  2  0  0  3  0  0  0  0  0  0
  180.2740  178.4750  139.3080 C   0  0  0  0  0  3  0  0  0  0  0  0
  179.1400  176.2930  136.0580 C   0  0  0  0  0  2  0  0  0  0  0  0
  181.3710  175.2260  140.4130 O   0  0  0  0  0  1  0  0  0  0  0  0
  181.6290  175.4980  135.9720 C   0  0  0  0  0  2  0  0  0  0  0  0
  181.3190  176.4650  138.3500 C   0  0  2  0  0  0  0  0  0  0  0  0
  180.0450  177.3350  140.2770 C   0  0  0  0  0  3  0  0  0  0  0  0
  178.9440  176.3270  137.5890 C   0  0  0  0  0  2  0  0  0  0  0  0
  182.2640  175.7420  137.3730 C   0  0  0  0  0  2  0  0  0  0  0  0
  180.6130  176.0890  139.6210 C   0  0  1  0  0  0  0  0  0  0  0  0
  181.1540  177.9840  138.1830 C   0  0  2  0  0  3  0  0  0  0  0  0
  189.2700  177.7710  136.1480 C   0  0  0  0  0  2  0  0  0  0  0  0
  189.0020  177.2170  134.7440 C   0  0  0  0  0  2  0  0  0  0  0  0
  188.9980  175.7600  134.7650 N   0  0  0  0  0  2  0  0  0  0  0  0
  187.6290  175.3170  134.5940 C   0  0  0  0  0  1  0  0  0  0  0  0
  193.0300  176.6130  138.0950 C   0  0  0  0  0  2  0  0  0  0  0  0
  194.1240  175.6410  138.0200 N   0  0  0  0  0  2  0  0  0  0  0  0
  193.6690  174.9180  135.8440 O   0  0  0  0  0  0  0  0  0  0  0  0
  194.3850  174.8090  136.8770 C   0  0  0  0  0  0  0  0  0  0  0  0
  199.1780  173.4490  136.0400 C   0  0  0  0  0  1  0  0  0  0  0  0
  197.4860  171.8570  136.9360 C   0  0  0  0  0  3  0  0  0  0  0  0
  196.2180  171.5620  137.4280 C   0  0  0  0  0  3  0  0  0  0  0  0
  195.4850  173.8130  136.8860 C   0  0  0  0  0  0  0  0  0  0  0  0
  197.7860  173.1430  136.4700 C   0  0  0  0  0  0  0  0  0  0  0  0
  196.7920  174.1300  136.4530 C   0  0  0  0  0  0  0  0  0  0  0  0
  197.1090  175.4060  136.0930 F   0  0  0  0  0  0  0  0  0  0  0  0
  195.2280  172.5400  137.4170 C   0  0  0  0  0  3  0  0  0  0  0  0
  1 27  1  6  0  0  0
  1  5  1  0  0  0  0
  2 51  1  6  0  0  0
  2  6  1  0  0  0  0
  3  7  1  0  0  0  0
  4  1  1  0  0  0  0
  4  2  1  0  0  0  0
  5  6  2  0  0  0  0
  6  3  1  0  0  0  0
  7 12  1  0  0  0  0
  8 11  1  0  0  0  0
  8 14  1  0  0  0  0
  9  8  1  0  0  0  0
 10  9  2  0  0  0  0
 10 13  1  0  0  0  0
 12 10  1  0  0  0  0
 13 11  2  0  0  0  0
 14 15  1  0  0  0  0
 15 16  1  6  0  0  0
 17 18  1  0  0  0  0
 18 21  1  0  0  0  0
 18 15  1  1  0  0  0
 19 24  1  6  0  0  0
 19 21  1  0  0  0  0
 20 23  1  6  0  0  0
 20 17  1  0  0  0  0
 20 19  1  0  0  0  0
 22 23  1  0  0  0  0
 26 25  1  0  0  0  0
 26 24  1  0  0  0  0
 27 47  1  6  0  0  0
 27 30  1  0  0  0  0
 28 30  1  0  0  0  0
 28 31  1  0  0  0  0
 30 29  2  0  0  0  0
 31 32  1  0  0  0  0
 32 33  1  0  0  0  0
 34 33  1  0  0  0  0
 35 40  1  0  0  0  0
 35 38  1  0  0  0  0
 36 43  1  6  0  0  0
 36 41  1  0  0  0  0
 36 45  1  0  0  0  0
 37 42  2  0  0  0  0
 38 43  1  0  0  0  0
 40 44  1  0  0  0  0
 41 44  1  6  0  0  0
 41 45  1  0  0  0  0
 45 42  1  0  0  0  0
 45 39  1  1  0  0  0
 46 34  1  1  0  0  0
 46 41  1  0  0  0  0
 46 37  1  0  0  0  0
 48 49  1  0  0  0  0
 48 47  1  0  0  0  0
 50 49  1  0  0  0  0
 52 51  1  0  0  0  0
 53 54  2  0  0  0  0
 54 58  1  0  0  0  0
 54 52  1  0  0  0  0
 55 59  1  0  0  0  0
 56 57  1  0  0  0  0
 58 62  1  0  0  0  0
 59 56  2  0  0  0  0
 60 59  1  0  0  0  0
 60 58  2  0  0  0  0
 61 60  1  0  0  0  0
 62 57  2  0  0  0  0
M  END
>  <MODEL>
9

>  <REMARK>
 VINA RESULT:      -5.5      2.447      7.731
  Name = 
  21 active torsions:
  status: ('A' for Active; 'I' for Inactive)
    1  A    between atoms: N_1  and  C_54
    2  A    between atoms: C_3  and  C_60
    3  A    between atoms: C_3  and  C_62
    4  A    between atoms: C_5  and  C_18
    5  A    between atoms: C_5  and  C_20
    6  A    between atoms: C_6  and  C_44
    7  A    between atoms: C_6  and  C_60
    8  A    between atoms: C_7  and  C_47
    9  A    between atoms: C_8  and  C_54
   10  A    between atoms: N_11  and  C_20
   11  A    between atoms: C_14  and  C_38
   12  A    between atoms: N_15  and  C_44
   13  A    between atoms: C_19  and  N_24
   14  A    between atoms: C_19  and  N_55
   15  A    between atoms: N_21  and  C_46
   16  A    between atoms: O_26  and  C_31
   17  A    between atoms: C_30  and  C_53
   18  A    between atoms: C_31  and  C_36
   19  A    between atoms: C_39  and  C_46
   20  A    between atoms: C_39  and  C_47
   21  A    between atoms: C_47  and  C_49
                            x       y       z     vdW  Elec       q    Type
                         _______ _______ _______ _____ _____    ______ ____

>  <TORSDO>
F 21

$$$$
