=
 OpenBabel10222419573D

 36 42  0  0  1  0  0  0  0  0999 V2000
  190.1250  177.7800  140.8510 C   0  0  0  0  0  2  0  0  0  0  0  0
  184.0470  179.6360  144.0690 C   0  0  1  0  0  3  0  0  0  0  0  0
  182.3310  178.0370  139.7850 S   0  0  0  0  0  0  0  0  0  0  0  0
  189.2450  178.3250  139.7650 C   0  0  1  0  0  3  0  0  0  0  0  0
  183.8120  178.5060  144.9850 N   0  0  0  0  0  2  0  0  0  0  0  0
  186.1500  178.9990  140.3280 N   0  0  0  0  0  2  0  0  0  0  0  0
  184.5390  178.0740  138.1110 N   0  0  0  0  0  2  0  0  0  0  0  0
  188.3870  177.8500  135.1420 C   0  0  0  0  0  1  0  0  0  0  0  0
  189.5840  177.7710  138.4600 N   0  0  0  0  0  2  0  0  0  0  0  0
  187.1370  178.0880  142.4000 C   0  0  0  0  0  0  0  0  0  0  0  0
  188.8690  178.5670  137.4650 C   0  0  0  0  0  2  0  0  0  0  0  0
  188.9540  177.1650  141.6040 C   0  0  1  0  0  3  0  0  0  0  0  0
  185.9710  178.3230  143.3410 C   0  0  1  0  0  3  0  0  0  0  0  0
  184.7010  178.9170  140.3970 C   0  0  2  0  0  3  0  0  0  0  0  0
  182.6490  178.6020  141.5220 C   0  0  0  0  0  2  0  0  0  0  0  0
  184.1510  178.5000  141.7200 C   0  0  2  0  0  3  0  0  0  0  0  0
  184.9320  179.4370  145.2310 C   0  0  1  0  0  3  0  0  0  0  0  0
  187.0880  178.2190  141.0600 C   0  0  2  0  0  3  0  0  0  0  0  0
  186.5400  178.0780  136.7440 C   0  0  0  0  0  3  0  0  0  0  0  0
  187.9780  177.6840  136.5910 C   0  0  1  0  0  3  0  0  0  0  0  0
  188.3950  177.4100  142.7770 C   0  0  0  0  0  3  0  0  0  0  0  0
  185.8820  177.6770  137.8210 C   0  0  0  0  0  3  0  0  0  0  0  0
  184.1220  177.8720  139.4920 C   0  0  1  0  0  3  0  0  0  0  0  0
  186.2630  178.8470  144.7260 C   0  0  1  0  0  3  0  0  0  0  0  0
  188.1820  177.4900  140.3790 C   0  0  1  0  0  3  0  0  0  0  0  0
  184.8670  179.2310  142.8440 C   0  0  1  0  0  3  0  0  0  0  0  0
  186.0770  176.7370  145.8520 O   0  0  0  0  0  0  0  0  0  0  0  0
  186.7670  177.7720  145.6380 C   0  0  0  0  0  0  0  0  0  0  0  0
  188.0380  177.9370  146.2700 N   0  0  0  0  0  2  0  0  0  0  0  0
  188.5890  176.9550  147.1930 C   0  0  0  0  0  2  0  0  0  0  0  0
  189.7390  177.5140  147.8900 N   0  0  0  0  0  2  0  0  0  0  0  0
  192.3310  177.0570  148.2120 O   0  0  0  0  0  0  0  0  0  0  0  0
  190.9320  175.2060  147.4260 O   0  0  0  0  0  0  0  0  0  0  0  0
  191.1610  176.6890  147.3430 S   0  0  0  0  0  0  0  0  0  0  0  0
  190.8130  176.3020  144.8010 F   0  0  0  0  0  0  0  0  0  0  0  0
  191.5170  177.1290  145.6550 C   0  0  0  0  0  2  0  0  0  0  0  0
  2  5  1  1  0  0  0
  2 17  1  0  0  0  0
  3 15  1  0  0  0  0
  4 25  1  0  0  0  0
  4  1  1  1  0  0  0
  9  4  1  0  0  0  0
 10 21  2  0  0  0  0
 11  9  1  0  0  0  0
 12  1  1  6  0  0  0
 12 21  1  0  0  0  0
 13 10  1  6  0  0  0
 13 24  1  0  0  0  0
 14  6  1  1  0  0  0
 14 16  1  0  0  0  0
 16 15  1  6  0  0  0
 16 26  1  0  0  0  0
 17  5  1  1  0  0  0
 18  6  1  1  0  0  0
 18 10  1  0  0  0  0
 19 22  2  0  0  0  0
 20  8  1  6  0  0  0
 20 19  1  0  0  0  0
 20 11  1  0  0  0  0
 22  7  1  0  0  0  0
 23  7  1  6  0  0  0
 23  3  1  0  0  0  0
 23 14  1  0  0  0  0
 24 17  1  0  0  0  0
 24 28  1  1  0  0  0
 25 18  1  0  0  0  0
 25 12  1  0  0  0  0
 26 13  1  0  0  0  0
 26  2  1  0  0  0  0
 28 27  2  0  0  0  0
 28 29  1  0  0  0  0
 29 30  1  0  0  0  0
 30 31  1  0  0  0  0
 34 33  2  0  0  0  0
 34 31  1  0  0  0  0
 34 32  2  0  0  0  0
 35 36  1  0  0  0  0
 36 34  1  0  0  0  0
M  END
>  <MODEL>
1

>  <REMARK>
 VINA RESULT:      -9.0      0.000      0.000
  Name = 
  5 active torsions:
  status: ('A' for Active; 'I' for Inactive)
    1  A    between atoms: C_3  and  N_24
    2  A    between atoms: C_3  and  N_26
    3  A    between atoms: C_15  and  C_33
    4  A    between atoms: N_26  and  S_36
    5  A    between atoms: C_31  and  S_36
                            x       y       z     vdW  Elec       q    Type
                         _______ _______ _______ _____ _____    ______ ____

>  <TORSDO>
F 5

$$$$
=
 OpenBabel10222419573D

 36 42  0  0  1  0  0  0  0  0999 V2000
  183.2150  179.0350  140.7560 C   0  0  0  0  0  2  0  0  0  0  0  0
  189.6470  178.4170  137.7570 C   0  0  1  0  0  3  0  0  0  0  0  0
  190.5130  176.4260  142.1330 S   0  0  0  0  0  0  0  0  0  0  0  0
  184.2000  179.2480  141.8670 C   0  0  1  0  0  3  0  0  0  0  0  0
  189.4760  177.2520  136.8700 N   0  0  0  0  0  2  0  0  0  0  0  0
  187.3410  178.7140  141.4200 N   0  0  0  0  0  2  0  0  0  0  0  0
  188.4230  177.3270  143.7150 N   0  0  0  0  0  0  0  0  0  0  0  0
  184.6740  178.6300  146.5290 C   0  0  0  0  0  1  0  0  0  0  0  0
  183.6390  178.8980  143.1660 N   0  0  0  0  0  2  0  0  0  0  0  0
  186.1530  178.1710  139.3240 C   0  0  0  0  0  0  0  0  0  0  0  0
  184.5650  179.4030  144.1770 C   0  0  0  0  0  2  0  0  0  0  0  0
  184.0980  178.0080  140.0610 C   0  0  1  0  0  3  0  0  0  0  0  0
  187.3520  177.9300  138.4280 C   0  0  1  0  0  3  0  0  0  0  0  0
  188.6580  178.1000  141.4110 C   0  0  2  0  0  3  0  0  0  0  0  0
  190.4820  177.0160  140.3760 C   0  0  0  0  0  2  0  0  0  0  0  0
  189.0560  177.4700  140.1180 C   0  0  2  0  0  3  0  0  0  0  0  0
  188.7890  178.5240  136.5640 C   0  0  1  0  0  3  0  0  0  0  0  0
  186.2040  178.3140  140.6630 C   0  0  2  0  0  3  0  0  0  0  0  0
  186.5240  178.1100  145.0000 C   0  0  0  0  0  2  0  0  0  0  0  0
  185.0380  178.2800  145.1010 C   0  0  1  0  0  3  0  0  0  0  0  0
  184.7460  177.9940  138.9080 C   0  0  0  0  0  3  0  0  0  0  0  0
  187.0200  177.4630  143.9570 C   0  0  0  0  0  3  0  0  0  0  0  0
  188.7800  176.9430  142.3550 C   0  0  1  0  0  3  0  0  0  0  0  0
  187.3190  178.4830  137.0230 C   0  0  1  0  0  3  0  0  0  0  0  0
  184.8970  178.0620  141.3110 C   0  0  1  0  0  3  0  0  0  0  0  0
  188.6980  178.3800  138.9550 C   0  0  1  0  0  3  0  0  0  0  0  0
  185.9210  178.1550  135.1020 O   0  0  0  0  0  0  0  0  0  0  0  0
  186.4820  177.6430  136.1100 C   0  0  0  0  0  0  0  0  0  0  0  0
  186.3200  176.2530  136.4000 N   0  0  0  0  0  2  0  0  0  0  0  0
  185.4990  175.3710  135.5810 C   0  0  0  0  0  2  0  0  0  0  0  0
  185.8360  173.9810  135.8530 N   0  0  0  0  0  2  0  0  0  0  0  0
  184.0150  172.1260  136.3820 O   0  0  0  0  0  0  0  0  0  0  0  0
  185.3650  172.9680  138.2440 O   0  0  0  0  0  0  0  0  0  0  0  0
  184.6700  173.3470  136.9670 S   0  0  0  0  0  0  0  0  0  0  0  0
  183.4580  174.8880  138.6660 F   0  0  0  0  0  0  0  0  0  0  0  0
  183.4280  174.5710  137.3210 C   0  0  0  0  0  2  0  0  0  0  0  0
  2  5  1  6  0  0  0
  2 26  1  0  0  0  0
  4  1  1  6  0  0  0
  4  9  1  0  0  0  0
  7 22  2  0  0  0  0
  9 11  1  0  0  0  0
 11 20  1  0  0  0  0
 12 21  1  6  0  0  0
 12  1  1  0  0  0  0
 12 25  1  0  0  0  0
 13 26  1  0  0  0  0
 13 10  1  1  0  0  0
 14  6  1  6  0  0  0
 14 23  1  0  0  0  0
 15  3  1  0  0  0  0
 16 15  1  1  0  0  0
 16 14  1  0  0  0  0
 17  5  1  6  0  0  0
 17 24  1  0  0  0  0
 17  2  1  0  0  0  0
 18 10  1  6  0  0  0
 18 25  1  0  0  0  0
 18  6  1  0  0  0  0
 19 20  1  0  0  0  0
 20  8  1  1  0  0  0
 21 10  2  0  0  0  0
 22 19  1  0  0  0  0
 23  3  1  1  0  0  0
 23  7  1  0  0  0  0
 24 28  1  6  0  0  0
 24 13  1  0  0  0  0
 25  4  1  0  0  0  0
 26 16  1  0  0  0  0
 27 28  2  0  0  0  0
 28 29  1  0  0  0  0
 30 31  1  0  0  0  0
 30 29  1  0  0  0  0
 31 34  1  0  0  0  0
 32 34  2  0  0  0  0
 34 36  1  0  0  0  0
 34 33  2  0  0  0  0
 36 35  1  0  0  0  0
M  END
>  <MODEL>
2

>  <REMARK>
 VINA RESULT:      -7.8      4.126      8.566
  Name = 
  5 active torsions:
  status: ('A' for Active; 'I' for Inactive)
    1  A    between atoms: C_3  and  N_24
    2  A    between atoms: C_3  and  N_26
    3  A    between atoms: C_15  and  C_33
    4  A    between atoms: N_26  and  S_36
    5  A    between atoms: C_31  and  S_36
                            x       y       z     vdW  Elec       q    Type
                         _______ _______ _______ _____ _____    ______ ____

>  <TORSDO>
F 5

$$$$
=
 OpenBabel10222419573D

 36 42  0  0  1  0  0  0  0  0999 V2000
  190.3350  176.3790  141.7340 C   0  0  0  0  0  2  0  0  0  0  0  0
  183.5590  178.0830  143.1240 C   0  0  1  0  0  3  0  0  0  0  0  0
  185.6810  179.3780  147.3290 S   0  0  0  0  0  0  0  0  0  0  0  0
  190.1330  176.0720  143.1890 C   0  0  1  0  0  3  0  0  0  0  0  0
  183.3970  179.3600  142.4060 N   0  0  0  0  0  2  0  0  0  0  0  0
  187.4400  176.9610  144.7070 N   0  0  0  0  0  2  0  0  0  0  0  0
  188.1040  178.0350  147.3090 N   0  0  0  0  0  2  0  0  0  0  0  0
  192.4940  175.9360  147.2800 C   0  0  0  0  0  1  0  0  0  0  0  0
  191.3810  176.1450  143.9390 N   0  0  0  0  0  2  0  0  0  0  0  0
  187.3060  177.7390  142.3670 C   0  0  0  0  0  0  0  0  0  0  0  0
  191.1180  175.5640  145.2530 C   0  0  0  0  0  2  0  0  0  0  0  0
  189.4070  177.5850  141.7760 C   0  0  1  0  0  3  0  0  0  0  0  0
  185.8740  178.2370  142.3650 C   0  0  1  0  0  3  0  0  0  0  0  0
  186.4790  177.6860  145.5220 C   0  0  2  0  0  3  0  0  0  0  0  0
  184.6100  179.0930  145.8430 C   0  0  0  0  0  2  0  0  0  0  0  0
  185.5350  178.5590  144.7640 C   0  0  2  0  0  3  0  0  0  0  0  0
  183.5580  178.1010  141.6500 C   0  0  1  0  0  3  0  0  0  0  0  0
  187.9970  177.3770  143.4660 C   0  0  2  0  0  3  0  0  0  0  0  0
  190.2280  176.8740  147.1700 C   0  0  0  0  0  3  0  0  0  0  0  0
  191.4530  176.5540  146.3700 C   0  0  1  0  0  3  0  0  0  0  0  0
  188.2350  177.8530  141.2240 C   0  0  0  0  0  3  0  0  0  0  0  0
  189.3500  177.7310  146.6730 C   0  0  0  0  0  3  0  0  0  0  0  0
  187.1150  178.6730  146.4520 C   0  0  1  0  0  3  0  0  0  0  0  0
  185.0110  177.9290  141.1650 C   0  0  1  0  0  3  0  0  0  0  0  0
  189.4610  177.3950  143.2470 C   0  0  1  0  0  3  0  0  0  0  0  0
  185.0090  177.8300  143.5390 C   0  0  1  0  0  3  0  0  0  0  0  0
  184.9300  180.0320  140.0160 O   0  0  0  0  0  0  0  0  0  0  0  0
  185.3140  178.8300  140.0100 C   0  0  0  0  0  0  0  0  0  0  0  0
  186.0370  178.3080  138.8930 N   0  0  0  0  0  2  0  0  0  0  0  0
  186.3470  179.1070  137.7160 C   0  0  0  0  0  2  0  0  0  0  0  0
  186.9500  178.2690  136.6890 N   0  0  0  0  0  2  0  0  0  0  0  0
  189.3490  178.2480  135.5590 O   0  0  0  0  0  0  0  0  0  0  0  0
  189.0560  179.5780  137.5940 O   0  0  0  0  0  0  0  0  0  0  0  0
  188.6700  178.3040  136.8990 S   0  0  0  0  0  0  0  0  0  0  0  0
  190.3960  177.2190  138.5020 F   0  0  0  0  0  0  0  0  0  0  0  0
  189.1970  176.9200  137.8860 C   0  0  0  0  0  2  0  0  0  0  0  0
  1 12  1  0  0  0  0
  2  5  1  1  0  0  0
  2 26  1  0  0  0  0
  4  1  1  6  0  0  0
  4 25  1  0  0  0  0
  4  9  1  0  0  0  0
  9 11  1  0  0  0  0
 11 20  1  0  0  0  0
 12 21  1  6  0  0  0
 12 25  1  0  0  0  0
 13 10  1  6  0  0  0
 13 26  1  0  0  0  0
 14  6  1  6  0  0  0
 14 23  1  0  0  0  0
 15  3  1  0  0  0  0
 16 14  1  0  0  0  0
 16 15  1  1  0  0  0
 17  5  1  1  0  0  0
 17  2  1  0  0  0  0
 18 10  1  6  0  0  0
 18  6  1  0  0  0  0
 20 19  1  0  0  0  0
 20  8  1  1  0  0  0
 21 10  2  0  0  0  0
 22 19  2  0  0  0  0
 22  7  1  0  0  0  0
 23  7  1  1  0  0  0
 23  3  1  0  0  0  0
 24 28  1  6  0  0  0
 24 17  1  0  0  0  0
 24 13  1  0  0  0  0
 25 18  1  0  0  0  0
 26 16  1  0  0  0  0
 28 27  2  0  0  0  0
 29 28  1  0  0  0  0
 30 29  1  0  0  0  0
 31 34  1  0  0  0  0
 31 30  1  0  0  0  0
 32 34  2  0  0  0  0
 34 33  2  0  0  0  0
 34 36  1  0  0  0  0
 36 35  1  0  0  0  0
M  END
>  <MODEL>
3

>  <REMARK>
 VINA RESULT:      -7.4      3.682      7.247
  Name = 
  5 active torsions:
  status: ('A' for Active; 'I' for Inactive)
    1  A    between atoms: C_3  and  N_24
    2  A    between atoms: C_3  and  N_26
    3  A    between atoms: C_15  and  C_33
    4  A    between atoms: N_26  and  S_36
    5  A    between atoms: C_31  and  S_36
                            x       y       z     vdW  Elec       q    Type
                         _______ _______ _______ _____ _____    ______ ____

>  <TORSDO>
F 5

$$$$
=
 OpenBabel10222419573D

 36 42  0  0  1  0  0  0  0  0999 V2000
  186.9810  177.6030  138.6210 C   0  0  0  0  0  2  0  0  0  0  0  0
  187.0150  177.0930  145.7270 C   0  0  1  0  0  3  0  0  0  0  0  0
  191.7390  178.0010  144.8800 S   0  0  0  0  0  0  0  0  0  0  0  0
  188.2890  176.9560  138.9720 C   0  0  1  0  0  3  0  0  0  0  0  0
  186.4760  178.4000  146.1440 N   0  0  0  0  0  2  0  0  0  0  0  0
  189.2630  176.7500  142.0320 N   0  0  0  0  0  2  0  0  0  0  0  0
  192.0770  177.3940  142.1970 N   0  0  0  0  0  2  0  0  0  0  0  0
  192.7460  176.6070  137.4420 C   0  0  0  0  0  1  0  0  0  0  0  0
  189.3070  177.2030  137.9590 N   0  0  0  0  0  2  0  0  0  0  0  0
  187.0970  177.9350  141.9840 C   0  0  0  0  0  0  0  0  0  0  0  0
  190.4250  176.3110  138.2590 C   0  0  0  0  0  2  0  0  0  0  0  0
  186.9870  178.4790  139.8660 C   0  0  1  0  0  3  0  0  0  0  0  0
  186.8390  178.0180  143.4750 C   0  0  1  0  0  3  0  0  0  0  0  0
  189.9330  177.0030  143.2960 C   0  0  2  0  0  3  0  0  0  0  0  0
  190.0220  177.7560  145.5320 C   0  0  0  0  0  2  0  0  0  0  0  0
  189.1170  177.7290  144.3130 C   0  0  2  0  0  3  0  0  0  0  0  0
  185.6000  177.4180  145.4740 C   0  0  1  0  0  3  0  0  0  0  0  0
  188.2590  177.5500  141.4190 C   0  0  2  0  0  3  0  0  0  0  0  0
  192.2590  176.9030  139.8300 C   0  0  0  0  0  3  0  0  0  0  0  0
  191.7230  177.0980  138.4450 C   0  0  1  0  0  3  0  0  0  0  0  0
  186.2270  178.5310  140.9480 C   0  0  0  0  0  3  0  0  0  0  0  0
  191.7070  177.5770  140.8270 C   0  0  0  0  0  3  0  0  0  0  0  0
  191.1210  177.9070  143.1680 C   0  0  1  0  0  3  0  0  0  0  0  0
  185.4420  177.7470  143.9770 C   0  0  1  0  0  3  0  0  0  0  0  0
  188.3860  178.0070  140.0170 C   0  0  1  0  0  3  0  0  0  0  0  0
  187.7100  177.1580  144.3660 C   0  0  1  0  0  3  0  0  0  0  0  0
  185.0010  180.0880  143.6970 O   0  0  0  0  0  0  0  0  0  0  0  0
  184.5330  178.9180  143.7670 C   0  0  0  0  0  0  0  0  0  0  0  0
  183.1260  178.6930  143.6550 N   0  0  0  0  0  2  0  0  0  0  0  0
  182.1700  179.7770  143.4790 C   0  0  0  0  0  2  0  0  0  0  0  0
  181.4560  179.6150  142.2210 N   0  0  0  0  0  2  0  0  0  0  0  0
  179.0080  180.6240  142.3730 O   0  0  0  0  0  0  0  0  0  0  0  0
  179.2420  178.2950  141.6520 O   0  0  0  0  0  0  0  0  0  0  0  0
  179.7810  179.3500  142.5760 S   0  0  0  0  0  0  0  0  0  0  0  0
  179.9330  177.4690  144.3560 F   0  0  0  0  0  0  0  0  0  0  0  0
  179.5880  178.8030  144.2590 C   0  0  0  0  0  2  0  0  0  0  0  0
  2  5  1  1  0  0  0
  3 15  1  0  0  0  0
  4  1  1  6  0  0  0
  4 25  1  0  0  0  0
  9 11  1  0  0  0  0
  9  4  1  0  0  0  0
 11 20  1  0  0  0  0
 12  1  1  6  0  0  0
 12 25  1  0  0  0  0
 12 21  1  0  0  0  0
 13 10  1  6  0  0  0
 13 24  1  0  0  0  0
 13 26  1  0  0  0  0
 14  6  1  6  0  0  0
 14 16  1  0  0  0  0
 16 26  1  0  0  0  0
 16 15  1  1  0  0  0
 17  2  1  0  0  0  0
 17  5  1  1  0  0  0
 18 10  1  6  0  0  0
 18  6  1  0  0  0  0
 19 22  2  0  0  0  0
 20  8  1  6  0  0  0
 20 19  1  0  0  0  0
 21 10  2  0  0  0  0
 22  7  1  0  0  0  0
 23  7  1  6  0  0  0
 23 14  1  0  0  0  0
 23  3  1  0  0  0  0
 24 28  1  1  0  0  0
 24 17  1  0  0  0  0
 25 18  1  0  0  0  0
 26  2  1  0  0  0  0
 27 28  2  0  0  0  0
 29 28  1  0  0  0  0
 30 29  1  0  0  0  0
 31 34  1  0  0  0  0
 31 30  1  0  0  0  0
 32 34  2  0  0  0  0
 33 34  2  0  0  0  0
 34 36  1  0  0  0  0
 36 35  1  0  0  0  0
M  END
>  <MODEL>
4

>  <REMARK>
 VINA RESULT:      -7.4      3.554      6.861
  Name = 
  5 active torsions:
  status: ('A' for Active; 'I' for Inactive)
    1  A    between atoms: C_3  and  N_24
    2  A    between atoms: C_3  and  N_26
    3  A    between atoms: C_15  and  C_33
    4  A    between atoms: N_26  and  S_36
    5  A    between atoms: C_31  and  S_36
                            x       y       z     vdW  Elec       q    Type
                         _______ _______ _______ _____ _____    ______ ____

>  <TORSDO>
F 5

$$$$
=
 OpenBabel10222419573D

 36 42  0  0  1  0  0  0  0  0999 V2000
  183.4590  179.0490  143.6290 C   0  0  0  0  0  2  0  0  0  0  0  0
  188.0670  178.5600  138.2190 C   0  0  1  0  0  3  0  0  0  0  0  0
  190.6210  176.3690  141.7590 S   0  0  0  0  0  0  0  0  0  0  0  0
  184.8190  179.2090  144.2430 C   0  0  1  0  0  3  0  0  0  0  0  0
  187.5210  177.4380  137.4340 N   0  0  0  0  0  2  0  0  0  0  0  0
  187.4840  178.6920  142.5160 N   0  0  0  0  0  2  0  0  0  0  0  0
  189.3880  177.1990  144.0990 N   0  0  0  0  0  0  0  0  0  0  0  0
  187.1610  178.3760  148.2620 C   0  0  0  0  0  1  0  0  0  0  0  0
  184.8370  178.8010  145.6420 N   0  0  0  0  0  2  0  0  0  0  0  0
  185.5260  178.2470  141.0770 C   0  0  0  0  0  0  0  0  0  0  0  0
  186.1080  179.2570  146.1990 C   0  0  0  0  0  2  0  0  0  0  0  0
  183.9560  178.0540  142.5900 C   0  0  1  0  0  3  0  0  0  0  0  0
  186.2430  178.0470  139.7570 C   0  0  1  0  0  3  0  0  0  0  0  0
  188.6670  178.0770  141.9390 C   0  0  2  0  0  3  0  0  0  0  0  0
  189.8790  177.0390  140.1980 C   0  0  0  0  0  2  0  0  0  0  0  0
  188.4840  177.5070  140.5720 C   0  0  2  0  0  3  0  0  0  0  0  0
  186.7950  178.7230  137.4920 C   0  0  1  0  0  3  0  0  0  0  0  0
  186.1280  178.3290  142.2800 C   0  0  2  0  0  3  0  0  0  0  0  0
  188.2040  177.9250  146.0850 C   0  0  0  0  0  2  0  0  0  0  0  0
  186.8970  178.0920  146.7980 C   0  0  1  0  0  3  0  0  0  0  0  0
  184.0700  178.0920  141.2730 C   0  0  0  0  0  3  0  0  0  0  0  0
  188.2130  177.3250  144.9050 C   0  0  0  0  0  3  0  0  0  0  0  0
  189.1440  176.8780  142.6990 C   0  0  1  0  0  3  0  0  0  0  0  0
  185.6450  178.6630  138.5160 C   0  0  1  0  0  3  0  0  0  0  0  0
  185.2000  178.0490  143.4000 C   0  0  1  0  0  3  0  0  0  0  0  0
  187.6960  178.4690  139.6990 C   0  0  1  0  0  3  0  0  0  0  0  0
  184.6480  176.6720  137.6250 O   0  0  0  0  0  0  0  0  0  0  0  0
  184.4890  177.8670  137.9960 C   0  0  0  0  0  0  0  0  0  0  0  0
  183.2020  178.4840  137.9170 N   0  0  0  0  0  2  0  0  0  0  0  0
  182.0320  177.7920  137.3950 C   0  0  0  0  0  2  0  0  0  0  0  0
  181.0970  177.5090  138.4750 N   0  0  0  0  0  2  0  0  0  0  0  0
  181.4920  175.0260  137.6310 O   0  0  0  0  0  0  0  0  0  0  0  0
  182.3510  175.6320  139.8420 O   0  0  0  0  0  0  0  0  0  0  0  0
  181.2200  175.8270  138.8740 S   0  0  0  0  0  0  0  0  0  0  0  0
  179.9970  174.5500  140.7720 F   0  0  0  0  0  0  0  0  0  0  0  0
  179.7080  175.2600  139.6220 C   0  0  0  0  0  2  0  0  0  0  0  0
  2  5  1  6  0  0  0
  2 26  1  0  0  0  0
  4  1  1  6  0  0  0
  4  9  1  0  0  0  0
  7 22  2  0  0  0  0
  9 11  1  0  0  0  0
 10 21  2  0  0  0  0
 11 20  1  0  0  0  0
 12 21  1  6  0  0  0
 12 25  1  0  0  0  0
 12  1  1  0  0  0  0
 13 10  1  1  0  0  0
 14  6  1  1  0  0  0
 14 23  1  0  0  0  0
 15  3  1  0  0  0  0
 16 15  1  6  0  0  0
 16 14  1  0  0  0  0
 17  5  1  6  0  0  0
 17  2  1  0  0  0  0
 17 24  1  0  0  0  0
 18 10  1  1  0  0  0
 18  6  1  0  0  0  0
 18 25  1  0  0  0  0
 19 20  1  0  0  0  0
 20  8  1  1  0  0  0
 22 19  1  0  0  0  0
 23  3  1  6  0  0  0
 23  7  1  0  0  0  0
 24 28  1  6  0  0  0
 24 13  1  0  0  0  0
 25  4  1  0  0  0  0
 26 13  1  0  0  0  0
 26 16  1  0  0  0  0
 27 28  2  0  0  0  0
 29 28  1  0  0  0  0
 30 29  1  0  0  0  0
 30 31  1  0  0  0  0
 31 34  1  0  0  0  0
 32 34  2  0  0  0  0
 34 36  1  0  0  0  0
 34 33  2  0  0  0  0
 36 35  1  0  0  0  0
M  END
>  <MODEL>
5

>  <REMARK>
 VINA RESULT:      -7.2      4.146      8.607
  Name = 
  5 active torsions:
  status: ('A' for Active; 'I' for Inactive)
    1  A    between atoms: C_3  and  N_24
    2  A    between atoms: C_3  and  N_26
    3  A    between atoms: C_15  and  C_33
    4  A    between atoms: N_26  and  S_36
    5  A    between atoms: C_31  and  S_36
                            x       y       z     vdW  Elec       q    Type
                         _______ _______ _______ _____ _____    ______ ____

>  <TORSDO>
F 5

$$$$
=
 OpenBabel10222419573D

 36 42  0  0  1  0  0  0  0  0999 V2000
  183.5430  179.3050  143.6340 C   0  0  0  0  0  2  0  0  0  0  0  0
  188.3760  178.3580  138.4870 C   0  0  1  0  0  3  0  0  0  0  0  0
  190.5720  176.0660  142.1990 S   0  0  0  0  0  0  0  0  0  0  0  0
  184.8770  179.3790  144.3160 C   0  0  1  0  0  3  0  0  0  0  0  0
  187.7900  177.2610  137.6960 N   0  0  0  0  0  2  0  0  0  0  0  0
  187.5820  178.6290  142.7440 N   0  0  0  0  0  2  0  0  0  0  0  0
  189.2860  177.0360  144.4540 N   0  0  0  0  0  0  0  0  0  0  0  0
  186.9400  178.4670  148.4690 C   0  0  0  0  0  1  0  0  0  0  0  0
  184.7920  179.0020  145.7210 N   0  0  0  0  0  2  0  0  0  0  0  0
  185.6740  178.2960  141.2110 C   0  0  0  0  0  0  0  0  0  0  0  0
  186.0630  179.3770  146.3370 C   0  0  0  0  0  2  0  0  0  0  0  0
  184.0180  178.2530  142.6410 C   0  0  1  0  0  3  0  0  0  0  0  0
  186.4420  178.0140  139.9350 C   0  0  1  0  0  3  0  0  0  0  0  0
  188.7450  177.9160  142.2420 C   0  0  2  0  0  3  0  0  0  0  0  0
  189.9650  176.7530  140.5880 C   0  0  0  0  0  2  0  0  0  0  0  0
  188.5910  177.3300  140.8780 C   0  0  2  0  0  3  0  0  0  0  0  0
  187.1590  178.5970  137.6910 C   0  0  1  0  0  3  0  0  0  0  0  0
  186.2180  178.3610  142.4430 C   0  0  2  0  0  3  0  0  0  0  0  0
  188.0580  177.8920  146.3600 C   0  0  0  0  0  2  0  0  0  0  0  0
  186.7310  178.1710  146.9980 C   0  0  1  0  0  3  0  0  0  0  0  0
  184.2020  178.2530  141.3310 C   0  0  0  0  0  3  0  0  0  0  0  0
  188.0830  177.2670  145.1930 C   0  0  0  0  0  3  0  0  0  0  0  0
  189.0920  176.7030  143.0490 C   0  0  1  0  0  3  0  0  0  0  0  0
  185.9560  178.6440  138.6520 C   0  0  1  0  0  3  0  0  0  0  0  0
  185.2150  178.1750  143.5160 C   0  0  1  0  0  3  0  0  0  0  0  0
  187.9230  178.3280  139.9470 C   0  0  1  0  0  3  0  0  0  0  0  0
  183.6510  178.4960  138.0080 O   0  0  0  0  0  0  0  0  0  0  0  0
  184.7730  177.9240  138.0860 C   0  0  0  0  0  0  0  0  0  0  0  0
  184.9290  176.5750  137.6430 N   0  0  0  0  0  2  0  0  0  0  0  0
  183.8240  175.7920  137.1070 C   0  0  0  0  0  2  0  0  0  0  0  0
  183.6450  174.5790  137.8930 N   0  0  0  0  0  2  0  0  0  0  0  0
  185.1180  173.7890  135.8340 O   0  0  0  0  0  0  0  0  0  0  0  0
  185.4230  172.6310  137.9700 O   0  0  0  0  0  0  0  0  0  0  0  0
  184.4150  173.2710  137.0590 S   0  0  0  0  0  0  0  0  0  0  0  0
  183.0510  171.1300  137.5930 F   0  0  0  0  0  0  0  0  0  0  0  0
  183.2100  172.0530  136.5770 C   0  0  0  0  0  2  0  0  0  0  0  0
  2  5  1  6  0  0  0
  2 26  1  0  0  0  0
  4  1  1  6  0  0  0
  4  9  1  0  0  0  0
  7 22  2  0  0  0  0
  9 11  1  0  0  0  0
 10 21  2  0  0  0  0
 11 20  1  0  0  0  0
 12 21  1  6  0  0  0
 12 25  1  0  0  0  0
 12  1  1  0  0  0  0
 13 26  1  0  0  0  0
 13 10  1  1  0  0  0
 14  6  1  1  0  0  0
 14 23  1  0  0  0  0
 15  3  1  0  0  0  0
 16 15  1  6  0  0  0
 16 14  1  0  0  0  0
 17  5  1  6  0  0  0
 17  2  1  0  0  0  0
 17 24  1  0  0  0  0
 18 10  1  6  0  0  0
 18  6  1  0  0  0  0
 18 25  1  0  0  0  0
 19 20  1  0  0  0  0
 20  8  1  1  0  0  0
 22 19  1  0  0  0  0
 23  3  1  6  0  0  0
 23  7  1  0  0  0  0
 24 28  1  6  0  0  0
 24 13  1  0  0  0  0
 25  4  1  0  0  0  0
 26 16  1  0  0  0  0
 27 28  2  0  0  0  0
 29 28  1  0  0  0  0
 30 29  1  0  0  0  0
 30 31  1  0  0  0  0
 32 34  2  0  0  0  0
 34 31  1  0  0  0  0
 34 33  2  0  0  0  0
 36 34  1  0  0  0  0
 36 35  1  0  0  0  0
M  END
>  <MODEL>
6

>  <REMARK>
 VINA RESULT:      -7.2      4.268      8.542
  Name = 
  5 active torsions:
  status: ('A' for Active; 'I' for Inactive)
    1  A    between atoms: C_3  and  N_24
    2  A    between atoms: C_3  and  N_26
    3  A    between atoms: C_15  and  C_33
    4  A    between atoms: N_26  and  S_36
    5  A    between atoms: C_31  and  S_36
                            x       y       z     vdW  Elec       q    Type
                         _______ _______ _______ _____ _____    ______ ____

>  <TORSDO>
F 5

$$$$
=
 OpenBabel10222419573D

 36 42  0  0  1  0  0  0  0  0999 V2000
  183.5400  179.2280  143.7440 C   0  0  0  0  0  2  0  0  0  0  0  0
  188.2710  178.4820  138.4710 C   0  0  1  0  0  3  0  0  0  0  0  0
  190.6320  176.2310  142.1070 S   0  0  0  0  0  0  0  0  0  0  0  0
  184.8880  179.3400  144.3930 C   0  0  1  0  0  3  0  0  0  0  0  0
  187.7010  177.3740  137.6840 N   0  0  0  0  0  2  0  0  0  0  0  0
  187.5750  178.6910  142.7480 N   0  0  0  0  0  2  0  0  0  0  0  0
  189.3720  177.1410  144.4010 N   0  0  0  0  0  0  0  0  0  0  0  0
  187.0820  178.4610  148.4860 C   0  0  0  0  0  1  0  0  0  0  0  0
  184.8500  178.9490  145.7970 N   0  0  0  0  0  2  0  0  0  0  0  0
  185.6420  178.3100  141.2600 C   0  0  0  0  0  0  0  0  0  0  0  0
  186.1230  179.3590  146.3840 C   0  0  0  0  0  2  0  0  0  0  0  0
  184.0240  178.2010  142.7300 C   0  0  1  0  0  3  0  0  0  0  0  0
  186.3860  178.0630  139.9630 C   0  0  1  0  0  3  0  0  0  0  0  0
  188.7480  178.0210  142.2110 C   0  0  2  0  0  3  0  0  0  0  0  0
  189.9630  176.9120  140.5170 C   0  0  0  0  0  2  0  0  0  0  0  0
  188.5790  177.4420  140.8460 C   0  0  2  0  0  3  0  0  0  0  0  0
  187.0280  178.6880  137.7070 C   0  0  1  0  0  3  0  0  0  0  0  0
  186.2130  178.3820  142.4790 C   0  0  2  0  0  3  0  0  0  0  0  0
  188.1650  177.9400  146.3450 C   0  0  0  0  0  2  0  0  0  0  0  0
  186.8460  178.1700  147.0180 C   0  0  1  0  0  3  0  0  0  0  0  0
  184.1750  178.2180  141.4160 C   0  0  0  0  0  3  0  0  0  0  0  0
  188.1810  177.3260  145.1720 C   0  0  0  0  0  3  0  0  0  0  0  0
  189.1530  176.8130  142.9990 C   0  0  1  0  0  3  0  0  0  0  0  0
  185.8480  178.6880  138.6980 C   0  0  1  0  0  3  0  0  0  0  0  0
  185.2440  178.1550  143.5740 C   0  0  1  0  0  3  0  0  0  0  0  0
  187.8560  178.4250  139.9410 C   0  0  1  0  0  3  0  0  0  0  0  0
  184.7850  176.7190  137.8370 O   0  0  0  0  0  0  0  0  0  0  0  0
  184.6750  177.9350  138.1550 C   0  0  0  0  0  0  0  0  0  0  0  0
  183.4290  178.6150  137.9930 N   0  0  0  0  0  2  0  0  0  0  0  0
  182.2460  177.9660  137.4430 C   0  0  0  0  0  2  0  0  0  0  0  0
  181.4130  178.9430  136.7580 N   0  0  0  0  0  2  0  0  0  0  0  0
  179.0560  179.7840  137.6370 O   0  0  0  0  0  0  0  0  0  0  0  0
  180.7610  179.2180  139.3010 O   0  0  0  0  0  0  0  0  0  0  0  0
  180.5250  179.8330  137.9510 S   0  0  0  0  0  0  0  0  0  0  0  0
  182.3380  181.6010  138.5160 F   0  0  0  0  0  0  0  0  0  0  0  0
  181.0660  181.5290  137.9820 C   0  0  0  0  0  2  0  0  0  0  0  0
  2  5  1  6  0  0  0
  2 26  1  0  0  0  0
  4  1  1  6  0  0  0
  4  9  1  0  0  0  0
  7 22  2  0  0  0  0
  9 11  1  0  0  0  0
 10 21  2  0  0  0  0
 11 20  1  0  0  0  0
 12 21  1  6  0  0  0
 12 25  1  0  0  0  0
 12  1  1  0  0  0  0
 13 10  1  1  0  0  0
 14  6  1  1  0  0  0
 14 23  1  0  0  0  0
 15  3  1  0  0  0  0
 16 15  1  6  0  0  0
 16 14  1  0  0  0  0
 17  5  1  6  0  0  0
 17  2  1  0  0  0  0
 17 24  1  0  0  0  0
 18 10  1  1  0  0  0
 18  6  1  0  0  0  0
 18 25  1  0  0  0  0
 19 20  1  0  0  0  0
 20  8  1  1  0  0  0
 22 19  1  0  0  0  0
 23  3  1  6  0  0  0
 23  7  1  0  0  0  0
 24 28  1  6  0  0  0
 24 13  1  0  0  0  0
 25  4  1  0  0  0  0
 26 13  1  0  0  0  0
 26 16  1  0  0  0  0
 27 28  2  0  0  0  0
 29 28  1  0  0  0  0
 30 29  1  0  0  0  0
 31 30  1  0  0  0  0
 31 34  1  0  0  0  0
 32 34  2  0  0  0  0
 34 36  1  0  0  0  0
 34 33  2  0  0  0  0
 36 35  1  0  0  0  0
M  END
>  <MODEL>
7

>  <REMARK>
 VINA RESULT:      -7.1      4.170      8.945
  Name = 
  5 active torsions:
  status: ('A' for Active; 'I' for Inactive)
    1  A    between atoms: C_3  and  N_24
    2  A    between atoms: C_3  and  N_26
    3  A    between atoms: C_15  and  C_33
    4  A    between atoms: N_26  and  S_36
    5  A    between atoms: C_31  and  S_36
                            x       y       z     vdW  Elec       q    Type
                         _______ _______ _______ _____ _____    ______ ____

>  <TORSDO>
F 5

$$$$
=
 OpenBabel10222419573D

 36 42  0  0  1  0  0  0  0  0999 V2000
  191.9540  177.2780  141.9410 C   0  0  0  0  0  2  0  0  0  0  0  0
  185.2230  179.2030  140.6220 C   0  0  1  0  0  3  0  0  0  0  0  0
  186.2030  176.5980  136.6090 S   0  0  0  0  0  0  0  0  0  0  0  0
  191.8820  177.5030  140.4590 C   0  0  1  0  0  3  0  0  0  0  0  0
  184.4530  178.2720  141.4660 N   0  0  0  0  0  2  0  0  0  0  0  0
  189.0600  177.9950  138.9960 N   0  0  0  0  0  2  0  0  0  0  0  0
  188.9710  176.4860  136.5300 N   0  0  0  0  0  0  0  0  0  0  0  0
  193.8110  176.0000  136.4150 C   0  0  0  0  0  1  0  0  0  0  0  0
  192.8820  176.7220  139.7410 N   0  0  0  0  0  2  0  0  0  0  0  0
  188.6360  177.6290  141.4010 C   0  0  0  0  0  0  0  0  0  0  0  0
  192.9060  177.2250  138.3690 C   0  0  0  0  0  2  0  0  0  0  0  0
  190.5360  176.7290  142.0080 C   0  0  1  0  0  3  0  0  0  0  0  0
  187.1540  177.9480  141.4310 C   0  0  1  0  0  3  0  0  0  0  0  0
  187.8310  177.7970  138.2440 C   0  0  2  0  0  3  0  0  0  0  0  0
  185.4930  177.5390  138.0400 C   0  0  0  0  0  2  0  0  0  0  0  0
  186.6030  177.6170  139.0730 C   0  0  2  0  0  3  0  0  0  0  0  0
  185.2710  179.3320  142.0900 C   0  0  1  0  0  3  0  0  0  0  0  0
  189.3700  177.4730  140.2820 C   0  0  2  0  0  3  0  0  0  0  0  0
  191.3920  176.3870  136.5830 C   0  0  0  0  0  2  0  0  0  0  0  0
  192.6370  176.1020  137.3660 C   0  0  1  0  0  3  0  0  0  0  0  0
  189.4160  177.1620  142.5650 C   0  0  0  0  0  3  0  0  0  0  0  0
  190.2180  176.1610  137.1520 C   0  0  0  0  0  3  0  0  0  0  0  0
  187.8280  176.5390  137.4310 C   0  0  1  0  0  3  0  0  0  0  0  0
  186.6220  178.7730  142.5780 C   0  0  1  0  0  3  0  0  0  0  0  0
  190.6220  176.7210  140.5260 C   0  0  1  0  0  3  0  0  0  0  0  0
  186.5780  178.6280  140.2070 C   0  0  1  0  0  3  0  0  0  0  0  0
  186.4500  176.7010  143.7740 O   0  0  0  0  0  0  0  0  0  0  0  0
  186.4610  177.9620  143.8250 C   0  0  0  0  0  0  0  0  0  0  0  0
  186.3110  178.6360  145.0770 N   0  0  0  0  0  2  0  0  0  0  0  0
  186.1190  177.9250  146.3330 C   0  0  0  0  0  2  0  0  0  0  0  0
  186.7950  178.6280  147.4130 N   0  0  0  0  0  2  0  0  0  0  0  0
  189.0260  178.5240  148.8440 O   0  0  0  0  0  0  0  0  0  0  0  0
  188.0480  176.4070  148.0940 O   0  0  0  0  0  0  0  0  0  0  0  0
  188.3070  177.8370  147.7150 S   0  0  0  0  0  0  0  0  0  0  0  0
  189.1190  176.7310  145.5140 F   0  0  0  0  0  0  0  0  0  0  0  0
  189.3250  177.8780  146.2560 C   0  0  0  0  0  2  0  0  0  0  0  0
  2  5  1  1  0  0  0
  2 17  1  0  0  0  0
  3 23  1  0  0  0  0
  3 15  1  0  0  0  0
  4 25  1  0  0  0  0
  4  1  1  1  0  0  0
  7 22  2  0  0  0  0
  9  4  1  0  0  0  0
 10 21  2  0  0  0  0
 11  9  1  0  0  0  0
 12  1  1  1  0  0  0
 12 21  1  0  0  0  0
 13 10  1  6  0  0  0
 13 24  1  0  0  0  0
 14  6  1  1  0  0  0
 14 16  1  0  0  0  0
 16 15  1  6  0  0  0
 16 26  1  0  0  0  0
 17  5  1  1  0  0  0
 17 24  1  0  0  0  0
 18  6  1  1  0  0  0
 18 25  1  0  0  0  0
 18 10  1  0  0  0  0
 19 22  1  0  0  0  0
 19 20  1  0  0  0  0
 20  8  1  6  0  0  0
 20 11  1  0  0  0  0
 23  7  1  6  0  0  0
 23 14  1  0  0  0  0
 24 28  1  1  0  0  0
 25 12  1  0  0  0  0
 26  2  1  0  0  0  0
 26 13  1  0  0  0  0
 27 28  2  0  0  0  0
 28 29  1  0  0  0  0
 29 30  1  0  0  0  0
 30 31  1  0  0  0  0
 31 34  1  0  0  0  0
 34 33  2  0  0  0  0
 34 32  2  0  0  0  0
 35 36  1  0  0  0  0
 36 34  1  0  0  0  0
M  END
>  <MODEL>
8

>  <REMARK>
 VINA RESULT:      -7.0      2.442      3.482
  Name = 
  5 active torsions:
  status: ('A' for Active; 'I' for Inactive)
    1  A    between atoms: C_3  and  N_24
    2  A    between atoms: C_3  and  N_26
    3  A    between atoms: C_15  and  C_33
    4  A    between atoms: N_26  and  S_36
    5  A    between atoms: C_31  and  S_36
                            x       y       z     vdW  Elec       q    Type
                         _______ _______ _______ _____ _____    ______ ____

>  <TORSDO>
F 5

$$$$
=
 OpenBabel10222419573D

 36 42  0  0  1  0  0  0  0  0999 V2000
  186.1660  178.2320  145.7980 C   0  0  0  0  0  2  0  0  0  0  0  0
  186.5460  179.0610  138.7330 C   0  0  1  0  0  3  0  0  0  0  0  0
  190.4240  176.1920  139.4990 S   0  0  0  0  0  0  0  0  0  0  0  0
  187.6310  178.2820  145.4760 C   0  0  1  0  0  3  0  0  0  0  0  0
  185.5120  178.1300  138.2450 N   0  0  0  0  0  2  0  0  0  0  0  0
  188.6580  178.2200  142.4280 N   0  0  0  0  0  2  0  0  0  0  0  0
  190.9380  176.4540  142.2100 N   0  0  0  0  0  0  0  0  0  0  0  0
  191.7870  176.6260  146.9980 C   0  0  0  0  0  1  0  0  0  0  0  0
  188.4300  177.5720  146.4680 N   0  0  0  0  0  2  0  0  0  0  0  0
  186.1930  178.0640  142.4220 C   0  0  0  0  0  0  0  0  0  0  0  0
  189.8260  177.9210  146.2130 C   0  0  0  0  0  2  0  0  0  0  0  0
  185.8240  177.5040  144.5050 C   0  0  1  0  0  3  0  0  0  0  0  0
  185.9530  178.1780  140.9290 C   0  0  1  0  0  3  0  0  0  0  0  0
  189.1820  177.7750  141.1470 C   0  0  2  0  0  3  0  0  0  0  0  0
  188.9850  177.1770  138.8720 C   0  0  0  0  0  2  0  0  0  0  0  0
  188.1540  177.5190  140.0960 C   0  0  2  0  0  3  0  0  0  0  0  0
  185.1220  179.3530  138.9750 C   0  0  1  0  0  3  0  0  0  0  0  0
  187.3980  177.8890  143.0000 C   0  0  2  0  0  3  0  0  0  0  0  0
  191.2660  176.6940  144.6000 C   0  0  0  0  0  2  0  0  0  0  0  0
  190.6720  176.6690  145.9750 C   0  0  1  0  0  3  0  0  0  0  0  0
  185.1340  177.8380  143.4270 C   0  0  0  0  0  3  0  0  0  0  0  0
  190.4990  176.3720  143.5690 C   0  0  0  0  0  3  0  0  0  0  0  0
  189.8720  176.4470  141.2170 C   0  0  1  0  0  3  0  0  0  0  0  0
  184.8110  179.0420  140.4520 C   0  0  1  0  0  3  0  0  0  0  0  0
  187.2940  177.3470  144.3740 C   0  0  1  0  0  3  0  0  0  0  0  0
  187.1220  178.6350  140.0830 C   0  0  1  0  0  3  0  0  0  0  0  0
  183.4310  177.1250  140.8680 O   0  0  0  0  0  0  0  0  0  0  0  0
  183.4880  178.3570  140.6010 C   0  0  0  0  0  0  0  0  0  0  0  0
  182.2900  179.1170  140.4270 N   0  0  0  0  0  2  0  0  0  0  0  0
  180.9640  178.5230  140.5250 C   0  0  0  0  0  2  0  0  0  0  0  0
  180.0540  179.4430  141.1930 N   0  0  0  0  0  2  0  0  0  0  0  0
  178.9890  179.8840  143.5810 O   0  0  0  0  0  0  0  0  0  0  0  0
  179.6810  177.5980  143.0430 O   0  0  0  0  0  0  0  0  0  0  0  0
  180.0250  179.0510  142.8800 S   0  0  0  0  0  0  0  0  0  0  0  0
  182.0140  178.2530  144.3430 F   0  0  0  0  0  0  0  0  0  0  0  0
  181.6200  179.3560  143.6090 C   0  0  0  0  0  2  0  0  0  0  0  0
  2  5  1  6  0  0  0
  2 17  1  0  0  0  0
  2 26  1  0  0  0  0
  4  1  1  1  0  0  0
  4  9  1  0  0  0  0
  6 18  1  0  0  0  0
  7 22  2  0  0  0  0
 10 21  2  0  0  0  0
 11  9  1  0  0  0  0
 12 21  1  6  0  0  0
 12  1  1  0  0  0  0
 13 10  1  1  0  0  0
 14 23  1  0  0  0  0
 14  6  1  1  0  0  0
 15  3  1  0  0  0  0
 16 15  1  6  0  0  0
 16 14  1  0  0  0  0
 17  5  1  6  0  0  0
 17 24  1  0  0  0  0
 18 10  1  1  0  0  0
 18 25  1  0  0  0  0
 19 20  1  0  0  0  0
 20 11  1  0  0  0  0
 20  8  1  1  0  0  0
 22 19  1  0  0  0  0
 23  3  1  6  0  0  0
 23  7  1  0  0  0  0
 24 28  1  6  0  0  0
 24 13  1  0  0  0  0
 25 12  1  0  0  0  0
 25  4  1  0  0  0  0
 26 16  1  0  0  0  0
 26 13  1  0  0  0  0
 28 27  2  0  0  0  0
 29 30  1  0  0  0  0
 29 28  1  0  0  0  0
 30 31  1  0  0  0  0
 31 34  1  0  0  0  0
 34 33  2  0  0  0  0
 34 32  2  0  0  0  0
 34 36  1  0  0  0  0
 36 35  1  0  0  0  0
M  END
>  <MODEL>
9

>  <REMARK>
 VINA RESULT:      -6.9      3.878      7.773
  Name = 
  5 active torsions:
  status: ('A' for Active; 'I' for Inactive)
    1  A    between atoms: C_3  and  N_24
    2  A    between atoms: C_3  and  N_26
    3  A    between atoms: C_15  and  C_33
    4  A    between atoms: N_26  and  S_36
    5  A    between atoms: C_31  and  S_36
                            x       y       z     vdW  Elec       q    Type
                         _______ _______ _______ _____ _____    ______ ____

>  <TORSDO>
F 5

$$$$
