=
 OpenBabel10222416093D

 26 27  0  0  1  0  0  0  0  0999 V2000
  191.9080  176.7380  139.0510 C   0  0  0  0  0  0  0  0  0  0  0  0
  190.1070  176.8500  137.3010 C   0  0  0  0  0  0  0  0  0  0  0  0
  187.4980  178.2520  139.5920 C   0  0  0  0  0  3  0  0  0  0  0  0
  191.4700  176.3200  137.6650 C   0  0  2  0  0  3  0  0  0  0  0  0
  187.8120  177.8150  138.1910 C   0  0  0  0  0  3  0  0  0  0  0  0
  193.1300  176.6580  139.3500 O   0  0  0  0  0  0  0  0  0  0  0  0
  191.3390  177.3880  141.4000 C   0  0  0  0  0  0  0  0  0  0  0  0
  188.5350  178.0490  140.3990 C   0  0  0  0  0  2  0  0  0  0  0  0
  189.6000  177.4610  139.6020 C   0  0  0  0  0  0  0  0  0  0  0  0
  192.3450  178.1050  141.6500 O   0  0  0  0  0  0  0  0  0  0  0  0
  190.9420  177.1710  140.0350 N   0  0  0  0  0  0  0  0  0  0  0  0
  189.2090  177.3330  138.3530 C   0  0  0  0  0  0  0  0  0  0  0  0
  189.7350  176.8560  136.0980 O   0  0  0  0  0  0  0  0  0  0  0  0
  190.5030  174.1330  137.8430 O   0  0  0  0  0  0  0  0  0  0  0  0
  191.5060  174.8300  137.5300 C   0  0  0  0  0  0  0  0  0  0  0  0
  192.6830  174.1960  137.0450 N   0  0  0  0  0  1  0  0  0  0  0  0
  190.6070  176.7630  142.5130 C   0  0  0  0  0  0  0  0  0  0  0  0
  190.2370  177.5440  143.6500 N   0  0  0  0  0  2  0  0  0  0  0  0
  190.3220  175.5350  142.4740 O   0  0  0  0  0  0  0  0  0  0  0  0
  189.5460  176.9740  144.7230 N   0  0  0  0  0  0  0  0  0  0  0  0
  189.4270  177.6210  145.8340 C   0  0  0  0  0  3  0  0  0  0  0  0
  188.6940  177.0210  146.9860 C   0  0  0  0  0  2  0  0  0  0  0  0
  187.6440  177.9550  147.4920 C   0  0  0  0  0  0  0  0  0  0  0  0
  187.7650  178.4710  148.5900 O   0  0  0  0  0  0  0  0  0  0  0  0
  186.4270  178.2240  146.6700 C   0  0  0  0  0  2  0  0  0  0  0  0
  185.7050  179.2820  147.2240 O   0  0  0  0  0  1  0  0  0  0  0  0
  1  6  2  0  0  0  0
  1 11  1  0  0  0  0
  2  4  1  0  0  0  0
  2 12  1  0  0  0  0
  3  8  1  0  0  0  0
  4 15  1  1  0  0  0
  4  1  1  0  0  0  0
  5 12  1  0  0  0  0
  5  3  2  0  0  0  0
  7 10  2  0  0  0  0
  7 17  1  0  0  0  0
  9 11  1  0  0  0  0
  9  8  1  0  0  0  0
 11  7  1  0  0  0  0
 12  9  2  0  0  0  0
 13  2  2  0  0  0  0
 15 14  2  0  0  0  0
 16 15  1  0  0  0  0
 17 18  1  0  0  0  0
 18 20  1  0  0  0  0
 19 17  2  0  0  0  0
 20 21  2  0  0  0  0
 21 22  1  0  0  0  0
 22 23  1  0  0  0  0
 23 24  2  0  0  0  0
 25 26  1  0  0  0  0
 25 23  1  0  0  0  0
M  END
>  <MODEL>
1

>  <REMARK>
 VINA RESULT:      -6.9      0.000      0.000
  Name = 
  6 active torsions:
  status: ('A' for Active; 'I' for Inactive)
    1  A    between atoms: C_4  and  C_5
    2  A    between atoms: C_5  and  C_22
    3  A    between atoms: C_6  and  C_17
    4  A    between atoms: C_8  and  C_14
    5  A    between atoms: N_9  and  N_11
    6  A    between atoms: C_19  and  C_22
                            x       y       z     vdW  Elec       q    Type
                         _______ _______ _______ _____ _____    ______ ____

>  <TORSDO>
F 6

$$$$
=
 OpenBabel10222416093D

 26 27  0  0  1  0  0  0  0  0999 V2000
  191.7980  176.3280  138.3430 C   0  0  0  0  0  0  0  0  0  0  0  0
  190.0370  176.3180  136.5490 C   0  0  0  0  0  0  0  0  0  0  0  0
  187.4790  178.1520  138.5780 C   0  0  0  0  0  3  0  0  0  0  0  0
  191.3590  175.7620  137.0100 C   0  0  2  0  0  3  0  0  0  0  0  0
  187.7900  177.5210  137.2530 C   0  0  0  0  0  3  0  0  0  0  0  0
  193.0080  176.2170  138.6790 O   0  0  0  0  0  0  0  0  0  0  0  0
  191.2300  177.3070  140.5750 C   0  0  0  0  0  0  0  0  0  0  0  0
  188.4890  177.9940  139.4290 C   0  0  0  0  0  2  0  0  0  0  0  0
  189.5290  177.2480  138.7410 C   0  0  0  0  0  0  0  0  0  0  0  0
  192.2740  177.9910  140.7550 O   0  0  0  0  0  0  0  0  0  0  0  0
  190.8440  176.9390  139.2390 N   0  0  0  0  0  0  0  0  0  0  0  0
  189.1530  176.9840  137.5090 C   0  0  0  0  0  0  0  0  0  0  0  0
  189.6860  176.1910  135.3460 O   0  0  0  0  0  0  0  0  0  0  0  0
  190.3190  173.6790  137.5830 O   0  0  0  0  0  0  0  0  0  0  0  0
  191.3080  174.2670  137.0680 C   0  0  0  0  0  0  0  0  0  0  0  0
  192.3840  173.5050  136.5360 N   0  0  0  0  0  1  0  0  0  0  0  0
  190.4430  176.8740  141.7400 C   0  0  0  0  0  0  0  0  0  0  0  0
  189.8080  177.8460  142.5710 N   0  0  0  0  0  2  0  0  0  0  0  0
  190.3450  175.6480  142.0180 O   0  0  0  0  0  0  0  0  0  0  0  0
  189.0580  177.4610  143.6870 N   0  0  0  0  0  0  0  0  0  0  0  0
  189.3380  177.9440  144.8520 C   0  0  0  0  0  3  0  0  0  0  0  0
  188.5470  177.5380  146.0500 C   0  0  0  0  0  2  0  0  0  0  0  0
  189.4360  177.3600  147.2360 C   0  0  0  0  0  0  0  0  0  0  0  0
  190.3490  176.5520  147.1980 O   0  0  0  0  0  0  0  0  0  0  0  0
  189.1800  178.1400  148.4830 C   0  0  0  0  0  2  0  0  0  0  0  0
  187.8860  177.8890  148.9420 O   0  0  0  0  0  1  0  0  0  0  0  0
  1  6  2  0  0  0  0
  1 11  1  0  0  0  0
  2  4  1  0  0  0  0
  2 12  1  0  0  0  0
  3  8  1  0  0  0  0
  4 15  1  1  0  0  0
  4  1  1  0  0  0  0
  5 12  1  0  0  0  0
  5  3  2  0  0  0  0
  7 10  2  0  0  0  0
  7 17  1  0  0  0  0
  9 11  1  0  0  0  0
  9  8  1  0  0  0  0
 11  7  1  0  0  0  0
 12  9  2  0  0  0  0
 13  2  2  0  0  0  0
 15 14  2  0  0  0  0
 16 15  1  0  0  0  0
 17 19  2  0  0  0  0
 17 18  1  0  0  0  0
 18 20  1  0  0  0  0
 20 21  2  0  0  0  0
 21 22  1  0  0  0  0
 22 23  1  0  0  0  0
 23 25  1  0  0  0  0
 24 23  2  0  0  0  0
 25 26  1  0  0  0  0
M  END
>  <MODEL>
2

>  <REMARK>
 VINA RESULT:      -6.7      1.160      1.454
  Name = 
  6 active torsions:
  status: ('A' for Active; 'I' for Inactive)
    1  A    between atoms: C_4  and  C_5
    2  A    between atoms: C_5  and  C_22
    3  A    between atoms: C_6  and  C_17
    4  A    between atoms: C_8  and  C_14
    5  A    between atoms: N_9  and  N_11
    6  A    between atoms: C_19  and  C_22
                            x       y       z     vdW  Elec       q    Type
                         _______ _______ _______ _____ _____    ______ ____

>  <TORSDO>
F 6

$$$$
=
 OpenBabel10222416093D

 26 27  0  0  1  0  0  0  0  0999 V2000
  184.8800  178.6430  140.2510 C   0  0  0  0  0  0  0  0  0  0  0  0
  182.5180  178.6270  141.1100 C   0  0  0  0  0  0  0  0  0  0  0  0
  183.4690  178.9610  144.7170 C   0  0  0  0  0  3  0  0  0  0  0  0
  183.4250  178.3780  139.9330 C   0  0  2  0  0  3  0  0  0  0  0  0
  182.3360  178.8570  143.7380 C   0  0  0  0  0  3  0  0  0  0  0  0
  185.6890  178.8030  139.2980 O   0  0  0  0  0  0  0  0  0  0  0  0
  186.7570  178.7290  141.9050 C   0  0  0  0  0  0  0  0  0  0  0  0
  184.6430  178.8730  144.0980 C   0  0  0  0  0  2  0  0  0  0  0  0
  184.3780  178.6970  142.6800 C   0  0  0  0  0  0  0  0  0  0  0  0
  187.4650  179.6090  141.3450 O   0  0  0  0  0  0  0  0  0  0  0  0
  185.3490  178.6620  141.6170 N   0  0  0  0  0  0  0  0  0  0  0  0
  183.0810  178.6970  142.4610 C   0  0  0  0  0  0  0  0  0  0  0  0
  181.2770  178.7510  140.9330 O   0  0  0  0  0  0  0  0  0  0  0  0
  182.7490  176.0880  140.1520 O   0  0  0  0  0  0  0  0  0  0  0  0
  183.2470  176.9840  139.4180 C   0  0  0  0  0  0  0  0  0  0  0  0
  183.6430  176.6690  138.0890 N   0  0  0  0  0  1  0  0  0  0  0  0
  187.3920  177.7680  142.8200 C   0  0  0  0  0  0  0  0  0  0  0  0
  187.5950  178.1170  144.1900 N   0  0  0  0  0  2  0  0  0  0  0  0
  187.7770  176.6450  142.3940 O   0  0  0  0  0  0  0  0  0  0  0  0
  188.2020  177.2240  145.0790 N   0  0  0  0  0  0  0  0  0  0  0  0
  189.2110  177.6040  145.7900 C   0  0  0  0  0  3  0  0  0  0  0  0
  189.8670  176.6600  146.7390 C   0  0  0  0  0  2  0  0  0  0  0  0
  191.3310  176.5600  146.4620 C   0  0  0  0  0  0  0  0  0  0  0  0
  191.7990  177.0830  145.4640 O   0  0  0  0  0  0  0  0  0  0  0  0
  192.2130  175.7830  147.3820 C   0  0  0  0  0  2  0  0  0  0  0  0
  192.6620  176.6070  148.4150 O   0  0  0  0  0  1  0  0  0  0  0  0
  1 11  1  0  0  0  0
  2 12  1  0  0  0  0
  4 15  1  1  0  0  0
  4  1  1  0  0  0  0
  4  2  1  0  0  0  0
  5  3  2  0  0  0  0
  6  1  2  0  0  0  0
  7 17  1  0  0  0  0
  8  3  1  0  0  0  0
  9  8  1  0  0  0  0
 10  7  2  0  0  0  0
 11  7  1  0  0  0  0
 11  9  1  0  0  0  0
 12  9  2  0  0  0  0
 12  5  1  0  0  0  0
 13  2  2  0  0  0  0
 15 14  2  0  0  0  0
 16 15  1  0  0  0  0
 17 18  1  0  0  0  0
 18 20  1  0  0  0  0
 19 17  2  0  0  0  0
 20 21  2  0  0  0  0
 21 22  1  0  0  0  0
 23 22  1  0  0  0  0
 23 25  1  0  0  0  0
 24 23  2  0  0  0  0
 25 26  1  0  0  0  0
M  END
>  <MODEL>
3

>  <REMARK>
 VINA RESULT:      -6.5      4.771      6.454
  Name = 
  6 active torsions:
  status: ('A' for Active; 'I' for Inactive)
    1  A    between atoms: C_4  and  C_5
    2  A    between atoms: C_5  and  C_22
    3  A    between atoms: C_6  and  C_17
    4  A    between atoms: C_8  and  C_14
    5  A    between atoms: N_9  and  N_11
    6  A    between atoms: C_19  and  C_22
                            x       y       z     vdW  Elec       q    Type
                         _______ _______ _______ _____ _____    ______ ____

>  <TORSDO>
F 6

$$$$
=
 OpenBabel10222416093D

 26 27  0  0  1  0  0  0  0  0999 V2000
  181.9450  179.4910  140.4850 C   0  0  0  0  0  0  0  0  0  0  0  0
  181.8510  178.8330  142.9090 C   0  0  0  0  0  0  0  0  0  0  0  0
  185.5480  178.3670  143.2760 C   0  0  0  0  0  3  0  0  0  0  0  0
  181.0690  179.0670  141.6430 C   0  0  2  0  0  3  0  0  0  0  0  0
  184.2190  178.3270  143.9710 C   0  0  0  0  0  2  0  0  0  0  0  0
  181.4050  180.0370  139.4850 O   0  0  0  0  0  0  0  0  0  0  0  0
  184.1610  179.4670  139.3210 C   0  0  0  0  0  0  0  0  0  0  0  0
  185.4030  178.6530  141.9850 C   0  0  0  0  0  3  0  0  0  0  0  0
  183.9800  178.8140  141.7300 C   0  0  0  0  0  0  0  0  0  0  0  0
  184.0750  180.5740  138.7240 O   0  0  0  0  0  0  0  0  0  0  0  0
  183.3660  179.2310  140.4970 N   0  0  0  0  0  0  0  0  0  0  0  0
  183.3020  178.6430  142.8430 C   0  0  0  0  0  0  0  0  0  0  0  0
  181.2530  178.7790  144.0170 O   0  0  0  0  0  0  0  0  0  0  0  0
  179.1310  177.6600  141.7730 O   0  0  0  0  0  0  0  0  0  0  0  0
  180.2770  177.8490  141.2820 C   0  0  0  0  0  0  0  0  0  0  0  0
  180.8230  176.8970  140.3780 N   0  0  0  0  0  1  0  0  0  0  0  0
  185.0520  178.4270  138.7850 C   0  0  0  0  0  0  0  0  0  0  0  0
  186.4590  178.6620  138.7150 N   0  0  0  0  0  2  0  0  0  0  0  0
  184.5750  177.3360  138.3690 O   0  0  0  0  0  0  0  0  0  0  0  0
  187.3270  177.6920  138.2050 N   0  0  0  0  0  0  0  0  0  0  0  0
  188.5960  177.9250  138.1470 C   0  0  0  0  0  3  0  0  0  0  0  0
  189.5310  176.8990  137.6020 C   0  0  0  0  0  2  0  0  0  0  0  0
  190.3900  176.3350  138.6860 C   0  0  0  0  0  0  0  0  0  0  0  0
  190.8920  175.2310  138.5540 O   0  0  0  0  0  0  0  0  0  0  0  0
  190.5990  177.1050  139.9480 C   0  0  0  0  0  2  0  0  0  0  0  0
  190.3080  176.2990  141.0490 O   0  0  0  0  0  1  0  0  0  0  0  0
  1 11  1  0  0  0  0
  1  4  1  0  0  0  0
  2 13  2  0  0  0  0
  3  5  1  0  0  0  0
  4 15  1  6  0  0  0
  4  2  1  0  0  0  0
  6  1  2  0  0  0  0
  7 11  1  0  0  0  0
  8  3  2  0  0  0  0
  9  8  1  0  0  0  0
  9 12  2  0  0  0  0
 10  7  2  0  0  0  0
 11  9  1  0  0  0  0
 12  2  1  0  0  0  0
 12  5  1  0  0  0  0
 15 14  2  0  0  0  0
 16 15  1  0  0  0  0
 17  7  1  0  0  0  0
 18 17  1  0  0  0  0
 19 17  2  0  0  0  0
 20 18  1  0  0  0  0
 21 20  2  0  0  0  0
 22 21  1  0  0  0  0
 22 23  1  0  0  0  0
 23 25  1  0  0  0  0
 24 23  2  0  0  0  0
 25 26  1  0  0  0  0
M  END
>  <MODEL>
4

>  <REMARK>
 VINA RESULT:      -6.4      5.336      9.096
  Name = 
  6 active torsions:
  status: ('A' for Active; 'I' for Inactive)
    1  A    between atoms: C_4  and  C_5
    2  A    between atoms: C_5  and  C_22
    3  A    between atoms: C_6  and  C_17
    4  A    between atoms: C_8  and  C_14
    5  A    between atoms: N_9  and  N_11
    6  A    between atoms: C_19  and  C_22
                            x       y       z     vdW  Elec       q    Type
                         _______ _______ _______ _____ _____    ______ ____

>  <TORSDO>
F 6

$$$$
=
 OpenBabel10222416093D

 26 27  0  0  1  0  0  0  0  0999 V2000
  189.8770  176.4640  143.8930 C   0  0  0  0  0  0  0  0  0  0  0  0
  191.0800  177.1500  145.9900 C   0  0  0  0  0  0  0  0  0  0  0  0
  187.9700  177.9520  147.9160 C   0  0  0  0  0  3  0  0  0  0  0  0
  191.2030  176.8260  144.5240 C   0  0  2  0  0  3  0  0  0  0  0  0
  189.4690  177.8840  147.9540 C   0  0  0  0  0  2  0  0  0  0  0  0
  189.8780  175.8550  142.7880 O   0  0  0  0  0  0  0  0  0  0  0  0
  187.3830  176.6660  143.8200 C   0  0  0  0  0  0  0  0  0  0  0  0
  187.5090  177.6320  146.7100 C   0  0  0  0  0  3  0  0  0  0  0  0
  188.6570  177.3410  145.8660 C   0  0  0  0  0  0  0  0  0  0  0  0
  187.1150  175.5470  143.3070 O   0  0  0  0  0  0  0  0  0  0  0  0
  188.6310  176.8500  144.5130 N   0  0  0  0  0  0  0  0  0  0  0  0
  189.7680  177.4690  146.5570 C   0  0  0  0  0  0  0  0  0  0  0  0
  192.1080  177.1690  146.7180 O   0  0  0  0  0  0  0  0  0  0  0  0
  192.4210  177.7670  142.6850 O   0  0  0  0  0  0  0  0  0  0  0  0
  191.8410  177.9620  143.7870 C   0  0  0  0  0  0  0  0  0  0  0  0
  191.7910  179.2740  144.3350 N   0  0  0  0  0  1  0  0  0  0  0  0
  186.4260  177.7740  143.6740 C   0  0  0  0  0  0  0  0  0  0  0  0
  185.2950  177.8560  144.5410 N   0  0  0  0  0  2  0  0  0  0  0  0
  186.5900  178.6390  142.7710 O   0  0  0  0  0  0  0  0  0  0  0  0
  184.3660  178.8950  144.4200 N   0  0  0  0  0  0  0  0  0  0  0  0
  183.1490  178.6370  144.0780 C   0  0  0  0  0  3  0  0  0  0  0  0
  182.1510  179.7380  143.9420 C   0  0  0  0  0  2  0  0  0  0  0  0
  181.0010  179.3100  143.0900 C   0  0  0  0  0  0  0  0  0  0  0  0
  181.1220  179.2750  141.8770 O   0  0  0  0  0  0  0  0  0  0  0  0
  179.6930  178.9670  143.7220 C   0  0  0  0  0  2  0  0  0  0  0  0
  179.7210  177.6520  144.1860 O   0  0  0  0  0  1  0  0  0  0  0  0
  1 11  1  0  0  0  0
  1  4  1  0  0  0  0
  2 12  1  0  0  0  0
  2 13  2  0  0  0  0
  3  5  1  0  0  0  0
  4 15  1  6  0  0  0
  4  2  1  0  0  0  0
  6  1  2  0  0  0  0
  7 11  1  0  0  0  0
  8  3  2  0  0  0  0
  9 12  2  0  0  0  0
  9  8  1  0  0  0  0
 10  7  2  0  0  0  0
 11  9  1  0  0  0  0
 12  5  1  0  0  0  0
 14 15  2  0  0  0  0
 15 16  1  0  0  0  0
 17  7  1  0  0  0  0
 17 18  1  0  0  0  0
 19 17  2  0  0  0  0
 20 18  1  0  0  0  0
 21 20  2  0  0  0  0
 22 21  1  0  0  0  0
 23 25  1  0  0  0  0
 23 22  1  0  0  0  0
 24 23  2  0  0  0  0
 25 26  1  0  0  0  0
M  END
>  <MODEL>
5

>  <REMARK>
 VINA RESULT:      -6.1      4.487      7.133
  Name = 
  6 active torsions:
  status: ('A' for Active; 'I' for Inactive)
    1  A    between atoms: C_4  and  C_5
    2  A    between atoms: C_5  and  C_22
    3  A    between atoms: C_6  and  C_17
    4  A    between atoms: C_8  and  C_14
    5  A    between atoms: N_9  and  N_11
    6  A    between atoms: C_19  and  C_22
                            x       y       z     vdW  Elec       q    Type
                         _______ _______ _______ _____ _____    ______ ____

>  <TORSDO>
F 6

$$$$
=
 OpenBabel10222416093D

 26 27  0  0  1  0  0  0  0  0999 V2000
  187.3240  177.4920  136.6560 C   0  0  0  0  0  0  0  0  0  0  0  0
  184.8380  177.1730  136.4500 C   0  0  0  0  0  0  0  0  0  0  0  0
  184.0340  178.6170  139.8100 C   0  0  0  0  0  3  0  0  0  0  0  0
  186.1960  176.8400  135.8870 C   0  0  2  0  0  3  0  0  0  0  0  0
  183.4760  178.0200  138.5520 C   0  0  0  0  0  3  0  0  0  0  0  0
  188.4570  177.5790  136.1120 O   0  0  0  0  0  0  0  0  0  0  0  0
  188.2410  178.4100  138.7960 C   0  0  0  0  0  0  0  0  0  0  0  0
  185.3630  178.6360  139.7800 C   0  0  0  0  0  2  0  0  0  0  0  0
  185.7810  178.0510  138.5160 C   0  0  0  0  0  0  0  0  0  0  0  0
  189.0460  179.2520  138.3140 O   0  0  0  0  0  0  0  0  0  0  0  0
  187.1250  177.9620  138.0080 N   0  0  0  0  0  0  0  0  0  0  0  0
  184.7260  177.7080  137.8100 C   0  0  0  0  0  0  0  0  0  0  0  0
  183.8040  176.9700  135.7610 O   0  0  0  0  0  0  0  0  0  0  0  0
  186.4840  174.7650  134.7210 O   0  0  0  0  0  0  0  0  0  0  0  0
  186.3900  175.3570  135.8290 C   0  0  0  0  0  0  0  0  0  0  0  0
  186.4700  174.6100  137.0370 N   0  0  0  0  0  1  0  0  0  0  0  0
  188.4790  177.8790  140.1480 C   0  0  0  0  0  0  0  0  0  0  0  0
  188.0580  178.6260  141.2900 N   0  0  0  0  0  2  0  0  0  0  0  0
  189.0700  176.7760  140.3010 O   0  0  0  0  0  0  0  0  0  0  0  0
  188.2770  178.1470  142.5860 N   0  0  0  0  0  0  0  0  0  0  0  0
  187.2750  177.8090  143.3270 C   0  0  0  0  0  3  0  0  0  0  0  0
  187.4970  177.2990  144.7120 C   0  0  0  0  0  2  0  0  0  0  0  0
  186.5800  177.9750  145.6780 C   0  0  0  0  0  0  0  0  0  0  0  0
  186.7780  177.8740  146.8780 O   0  0  0  0  0  0  0  0  0  0  0  0
  185.3980  178.7370  145.1770 C   0  0  0  0  0  2  0  0  0  0  0  0
  184.5220  179.0000  146.2300 O   0  0  0  0  0  1  0  0  0  0  0  0
  1 11  1  0  0  0  0
  2 12  1  0  0  0  0
  4 15  1  1  0  0  0
  4  2  1  0  0  0  0
  4  1  1  0  0  0  0
  5  3  2  0  0  0  0
  6  1  2  0  0  0  0
  7 17  1  0  0  0  0
  8  3  1  0  0  0  0
  9  8  1  0  0  0  0
 10  7  2  0  0  0  0
 11  9  1  0  0  0  0
 11  7  1  0  0  0  0
 12  9  2  0  0  0  0
 12  5  1  0  0  0  0
 13  2  2  0  0  0  0
 14 15  2  0  0  0  0
 15 16  1  0  0  0  0
 17 19  2  0  0  0  0
 17 18  1  0  0  0  0
 18 20  1  0  0  0  0
 20 21  2  0  0  0  0
 21 22  1  0  0  0  0
 22 23  1  0  0  0  0
 23 24  2  0  0  0  0
 25 23  1  0  0  0  0
 25 26  1  0  0  0  0
M  END
>  <MODEL>
6

>  <REMARK>
 VINA RESULT:      -5.9      3.145      4.203
  Name = 
  6 active torsions:
  status: ('A' for Active; 'I' for Inactive)
    1  A    between atoms: C_4  and  C_5
    2  A    between atoms: C_5  and  C_22
    3  A    between atoms: C_6  and  C_17
    4  A    between atoms: C_8  and  C_14
    5  A    between atoms: N_9  and  N_11
    6  A    between atoms: C_19  and  C_22
                            x       y       z     vdW  Elec       q    Type
                         _______ _______ _______ _____ _____    ______ ____

>  <TORSDO>
F 6

$$$$
=
 OpenBabel10222416093D

 26 27  0  0  1  0  0  0  0  0999 V2000
  185.6520  178.0010  137.6040 C   0  0  0  0  0  0  0  0  0  0  0  0
  184.6630  175.9160  136.6070 C   0  0  0  0  0  0  0  0  0  0  0  0
  181.8460  175.6730  139.0620 C   0  0  0  0  0  3  0  0  0  0  0  0
  185.8490  176.8450  136.6480 C   0  0  2  0  0  3  0  0  0  0  0  0
  182.4910  175.0650  137.8510 C   0  0  0  0  0  3  0  0  0  0  0  0
  186.3950  179.0130  137.4900 O   0  0  0  0  0  0  0  0  0  0  0  0
  184.6130  178.9500  139.6730 C   0  0  0  0  0  0  0  0  0  0  0  0
  182.5440  176.7160  139.5000 C   0  0  0  0  0  2  0  0  0  0  0  0
  183.6960  176.8700  138.6270 C   0  0  0  0  0  0  0  0  0  0  0  0
  184.5870  180.1640  139.3350 O   0  0  0  0  0  0  0  0  0  0  0  0
  184.6690  177.9310  138.6600 N   0  0  0  0  0  0  0  0  0  0  0  0
  183.6730  175.9520  137.6860 C   0  0  0  0  0  0  0  0  0  0  0  0
  184.5380  175.0960  135.6590 O   0  0  0  0  0  0  0  0  0  0  0  0
  187.0290  174.9270  137.4700 O   0  0  0  0  0  0  0  0  0  0  0  0
  187.0950  176.0900  136.9890 C   0  0  0  0  0  0  0  0  0  0  0  0
  188.3650  176.6910  136.7670 N   0  0  0  0  0  1  0  0  0  0  0  0
  184.6170  178.6010  141.1020 C   0  0  0  0  0  0  0  0  0  0  0  0
  183.4400  178.8010  141.8870 N   0  0  0  0  0  2  0  0  0  0  0  0
  185.6620  178.1440  141.6410 O   0  0  0  0  0  0  0  0  0  0  0  0
  183.4190  178.4830  143.2480 N   0  0  0  0  0  0  0  0  0  0  0  0
  184.0190  179.2450  144.1000 C   0  0  0  0  0  3  0  0  0  0  0  0
  184.0040  178.9140  145.5550 C   0  0  0  0  0  2  0  0  0  0  0  0
  185.3950  178.8310  146.0940 C   0  0  0  0  0  0  0  0  0  0  0  0
  185.6970  179.4520  147.0990 O   0  0  0  0  0  0  0  0  0  0  0  0
  186.4250  178.0220  145.3780 C   0  0  0  0  0  2  0  0  0  0  0  0
  187.5980  177.9750  146.1310 O   0  0  0  0  0  1  0  0  0  0  0  0
  1 11  1  0  0  0  0
  2  4  1  0  0  0  0
  2 12  1  0  0  0  0
  3  8  1  0  0  0  0
  4 15  1  1  0  0  0
  4  1  1  0  0  0  0
  5  3  2  0  0  0  0
  6  1  2  0  0  0  0
  7 17  1  0  0  0  0
  9 11  1  0  0  0  0
  9  8  1  0  0  0  0
 10  7  2  0  0  0  0
 11  7  1  0  0  0  0
 12  5  1  0  0  0  0
 12  9  2  0  0  0  0
 13  2  2  0  0  0  0
 15 14  2  0  0  0  0
 16 15  1  0  0  0  0
 17 19  2  0  0  0  0
 17 18  1  0  0  0  0
 18 20  1  0  0  0  0
 20 21  2  0  0  0  0
 21 22  1  0  0  0  0
 22 23  1  0  0  0  0
 23 24  2  0  0  0  0
 25 23  1  0  0  0  0
 25 26  1  0  0  0  0
M  END
>  <MODEL>
7

>  <REMARK>
 VINA RESULT:      -5.8      4.436      5.700
  Name = 
  6 active torsions:
  status: ('A' for Active; 'I' for Inactive)
    1  A    between atoms: C_4  and  C_5
    2  A    between atoms: C_5  and  C_22
    3  A    between atoms: C_6  and  C_17
    4  A    between atoms: C_8  and  C_14
    5  A    between atoms: N_9  and  N_11
    6  A    between atoms: C_19  and  C_22
                            x       y       z     vdW  Elec       q    Type
                         _______ _______ _______ _____ _____    ______ ____

>  <TORSDO>
F 6

$$$$
=
 OpenBabel10222416093D

 26 27  0  0  1  0  0  0  0  0999 V2000
  185.8220  178.2020  137.4040 C   0  0  0  0  0  0  0  0  0  0  0  0
  185.0500  175.9930  136.4850 C   0  0  0  0  0  0  0  0  0  0  0  0
  182.3150  175.5210  138.9990 C   0  0  0  0  0  3  0  0  0  0  0  0
  186.1280  177.0460  136.4780 C   0  0  2  0  0  3  0  0  0  0  0  0
  183.0040  174.9500  137.7940 C   0  0  0  0  0  3  0  0  0  0  0  0
  186.4490  179.2850  137.2480 O   0  0  0  0  0  0  0  0  0  0  0  0
  184.7190  179.0950  139.4650 C   0  0  0  0  0  0  0  0  0  0  0  0
  182.9030  176.6460  139.3950 C   0  0  0  0  0  2  0  0  0  0  0  0
  184.0170  176.8970  138.4960 C   0  0  0  0  0  0  0  0  0  0  0  0
  184.5550  180.2880  139.0930 O   0  0  0  0  0  0  0  0  0  0  0  0
  184.8690  178.0580  138.4800 N   0  0  0  0  0  0  0  0  0  0  0  0
  184.0790  175.9540  137.5820 C   0  0  0  0  0  0  0  0  0  0  0  0
  185.0010  175.1370  135.5630 O   0  0  0  0  0  0  0  0  0  0  0  0
  187.8330  176.3520  138.0150 O   0  0  0  0  0  0  0  0  0  0  0  0
  187.4550  176.4410  136.8160 C   0  0  0  0  0  0  0  0  0  0  0  0
  188.2960  175.9610  135.7740 N   0  0  0  0  0  1  0  0  0  0  0  0
  184.7830  178.7910  140.9040 C   0  0  0  0  0  0  0  0  0  0  0  0
  186.0460  178.5470  141.5230 N   0  0  0  0  0  2  0  0  0  0  0  0
  183.7250  178.7260  141.5860 O   0  0  0  0  0  0  0  0  0  0  0  0
  186.1350  178.2500  142.8870 N   0  0  0  0  0  0  0  0  0  0  0  0
  187.1820  177.6560  143.3530 C   0  0  0  0  0  3  0  0  0  0  0  0
  187.2860  177.3320  144.8060 C   0  0  0  0  0  2  0  0  0  0  0  0
  188.6570  177.6280  145.3190 C   0  0  0  0  0  0  0  0  0  0  0  0
  189.4480  178.2440  144.6240 O   0  0  0  0  0  0  0  0  0  0  0  0
  189.0720  177.1320  146.6640 C   0  0  0  0  0  2  0  0  0  0  0  0
  190.4520  176.9270  146.6880 O   0  0  0  0  0  1  0  0  0  0  0  0
  1 11  1  0  0  0  0
  2 12  1  0  0  0  0
  3  8  1  0  0  0  0
  4  2  1  0  0  0  0
  4 15  1  1  0  0  0
  4  1  1  0  0  0  0
  5  3  2  0  0  0  0
  6  1  2  0  0  0  0
  7 17  1  0  0  0  0
  9  8  1  0  0  0  0
 10  7  2  0  0  0  0
 11  9  1  0  0  0  0
 11  7  1  0  0  0  0
 12  5  1  0  0  0  0
 12  9  2  0  0  0  0
 13  2  2  0  0  0  0
 15 14  2  0  0  0  0
 16 15  1  0  0  0  0
 17 18  1  0  0  0  0
 17 19  2  0  0  0  0
 18 20  1  0  0  0  0
 20 21  2  0  0  0  0
 21 22  1  0  0  0  0
 22 23  1  0  0  0  0
 23 25  1  0  0  0  0
 24 23  2  0  0  0  0
 25 26  1  0  0  0  0
M  END
>  <MODEL>
8

>  <REMARK>
 VINA RESULT:      -5.8      4.164      5.461
  Name = 
  6 active torsions:
  status: ('A' for Active; 'I' for Inactive)
    1  A    between atoms: C_4  and  C_5
    2  A    between atoms: C_5  and  C_22
    3  A    between atoms: C_6  and  C_17
    4  A    between atoms: C_8  and  C_14
    5  A    between atoms: N_9  and  N_11
    6  A    between atoms: C_19  and  C_22
                            x       y       z     vdW  Elec       q    Type
                         _______ _______ _______ _____ _____    ______ ____

>  <TORSDO>
F 6

$$$$
=
 OpenBabel10222416093D

 26 27  0  0  1  0  0  0  0  0999 V2000
  186.6490  178.0460  137.5250 C   0  0  0  0  0  0  0  0  0  0  0  0
  184.2240  177.9580  138.1810 C   0  0  0  0  0  0  0  0  0  0  0  0
  184.8150  178.8300  141.7740 C   0  0  0  0  0  3  0  0  0  0  0  0
  185.2500  177.6300  137.1270 C   0  0  2  0  0  3  0  0  0  0  0  0
  183.7870  178.5120  140.7290 C   0  0  0  0  0  3  0  0  0  0  0  0
  187.5300  178.1440  136.6280 O   0  0  0  0  0  0  0  0  0  0  0  0
  188.3560  178.4910  139.3000 C   0  0  0  0  0  0  0  0  0  0  0  0
  186.0440  178.7530  141.2720 C   0  0  0  0  0  2  0  0  0  0  0  0
  185.9230  178.3750  139.8740 C   0  0  0  0  0  0  0  0  0  0  0  0
  189.0530  179.3430  138.6870 O   0  0  0  0  0  0  0  0  0  0  0  0
  186.9880  178.2780  138.9100 N   0  0  0  0  0  0  0  0  0  0  0  0
  184.6550  178.2460  139.5510 C   0  0  0  0  0  0  0  0  0  0  0  0
  182.9990  177.9620  137.8870 O   0  0  0  0  0  0  0  0  0  0  0  0
  184.7280  175.3400  137.6080 O   0  0  0  0  0  0  0  0  0  0  0  0
  185.2120  176.1720  136.7940 C   0  0  0  0  0  0  0  0  0  0  0  0
  185.7250  175.7210  135.5460 N   0  0  0  0  0  1  0  0  0  0  0  0
  188.9660  177.7090  140.3870 C   0  0  0  0  0  0  0  0  0  0  0  0
  189.1120  178.2860  141.6850 N   0  0  0  0  0  2  0  0  0  0  0  0
  189.3800  176.5370  140.1700 O   0  0  0  0  0  0  0  0  0  0  0  0
  189.6930  177.5670  142.7330 N   0  0  0  0  0  0  0  0  0  0  0  0
  189.4290  177.8800  143.9580 C   0  0  0  0  0  3  0  0  0  0  0  0
  190.0460  177.1210  145.0840 C   0  0  0  0  0  2  0  0  0  0  0  0
  189.2290  177.2580  146.3260 C   0  0  0  0  0  0  0  0  0  0  0  0
  189.6880  176.9050  147.4000 O   0  0  0  0  0  0  0  0  0  0  0  0
  187.8350  177.7870  146.2470 C   0  0  0  0  0  2  0  0  0  0  0  0
  187.3070  177.9240  147.5320 O   0  0  0  0  0  1  0  0  0  0  0  0
  1 11  1  0  0  0  0
  2 12  1  0  0  0  0
  4 15  1  1  0  0  0
  4  1  1  0  0  0  0
  4  2  1  0  0  0  0
  5  3  2  0  0  0  0
  6  1  2  0  0  0  0
  7 17  1  0  0  0  0
  8  3  1  0  0  0  0
  9  8  1  0  0  0  0
 10  7  2  0  0  0  0
 11  7  1  0  0  0  0
 11  9  1  0  0  0  0
 12  9  2  0  0  0  0
 12  5  1  0  0  0  0
 13  2  2  0  0  0  0
 15 14  2  0  0  0  0
 16 15  1  0  0  0  0
 17 18  1  0  0  0  0
 18 20  1  0  0  0  0
 19 17  2  0  0  0  0
 20 21  2  0  0  0  0
 21 22  1  0  0  0  0
 22 23  1  0  0  0  0
 23 24  2  0  0  0  0
 25 23  1  0  0  0  0
 25 26  1  0  0  0  0
M  END
>  <MODEL>
9

>  <REMARK>
 VINA RESULT:      -5.7      3.255      4.459
  Name = 
  6 active torsions:
  status: ('A' for Active; 'I' for Inactive)
    1  A    between atoms: C_4  and  C_5
    2  A    between atoms: C_5  and  C_22
    3  A    between atoms: C_6  and  C_17
    4  A    between atoms: C_8  and  C_14
    5  A    between atoms: N_9  and  N_11
    6  A    between atoms: C_19  and  C_22
                            x       y       z     vdW  Elec       q    Type
                         _______ _______ _______ _____ _____    ______ ____

>  <TORSDO>
F 6

$$$$
