=
 OpenBabel10222419303D

 42 45  0  0  1  0  0  0  0  0999 V2000
  180.9830  177.3710  138.7190 C   0  0  0  0  0  2  0  0  0  0  0  0
  180.1610  178.3000  141.3210 C   0  0  0  0  0  3  0  0  0  0  0  0
  182.8940  179.2560  144.3380 O   0  0  0  0  0  1  0  0  0  0  0  0
  179.7200  178.5800  142.6120 C   0  0  0  0  0  3  0  0  0  0  0  0
  181.5320  178.3090  141.0150 C   0  0  0  0  0  0  0  0  0  0  0  0
  183.9370  178.6340  141.7320 C   0  0  0  0  0  0  0  0  0  0  0  0
  184.8080  178.0560  142.7140 N   0  0  0  0  0  2  0  0  0  0  0  0
  184.4690  180.6080  138.8460 O   0  0  0  0  0  0  0  0  0  0  0  0
  182.0090  178.9220  143.3210 C   0  0  0  0  0  0  0  0  0  0  0  0
  182.4580  179.3780  139.0270 C   0  0  0  0  0  2  0  0  0  0  0  0
  182.0070  178.0580  139.6160 C   0  0  2  0  0  3  0  0  0  0  0  0
  183.8260  179.7550  139.5110 C   0  0  0  0  0  0  0  0  0  0  0  0
  184.4630  179.1530  140.6530 N   0  0  0  0  0  0  0  0  0  0  0  0
  182.4730  178.6400  142.0150 C   0  0  0  0  0  0  0  0  0  0  0  0
  180.6430  178.8870  143.6090 C   0  0  0  0  0  3  0  0  0  0  0  0
  186.2540  177.9610  142.5530 C   0  0  0  0  0  2  0  0  0  0  0  0
  186.9200  177.7820  143.8750 C   0  0  0  0  0  0  0  0  0  0  0  0
  186.1770  177.9170  145.0530 C   0  0  0  0  0  3  0  0  0  0  0  0
  188.9060  177.3120  145.1830 C   0  0  0  0  0  3  0  0  0  0  0  0
  188.1630  177.4490  146.3590 C   0  0  0  0  0  3  0  0  0  0  0  0
  188.2840  177.4760  143.9410 C   0  0  0  0  0  3  0  0  0  0  0  0
  186.7990  177.7500  146.2950 C   0  0  0  0  0  3  0  0  0  0  0  0
  180.4240  173.6150  138.3910 N   0  0  0  0  0  1  0  0  0  0  0  0
  180.1970  175.0200  138.3370 C   0  0  0  0  0  0  0  0  0  0  0  0
  181.2590  175.9420  138.6340 N   0  0  0  0  0  0  0  0  0  0  0  0
  179.0500  175.4460  138.0360 O   0  0  0  0  0  0  0  0  0  0  0  0
  182.6010  175.4700  138.9630 C   0  0  0  0  0  2  0  0  0  0  0  0
  182.8980  176.0770  136.6210 N   0  0  0  0  0  0  0  0  0  0  0  0
  183.3960  173.8510  137.2410 C   0  0  0  0  0  2  0  0  0  0  0  0
  183.4380  175.2790  137.7040 C   0  0  2  0  0  3  0  0  0  0  0  0
  183.4020  173.8880  135.7940 N   0  0  0  0  0  2  0  0  0  0  0  0
  183.0130  175.2450  135.4240 C   0  0  1  0  0  3  0  0  0  0  0  0
  181.6840  175.2180  134.6890 C   0  0  0  0  0  2  0  0  0  0  0  0
  180.8670  176.2520  135.1510 O   0  0  0  0  0  1  0  0  0  0  0  0
  183.7960  177.2120  136.4530 C   0  0  0  0  0  2  0  0  0  0  0  0
  185.0920  176.9780  137.2120 C   0  0  0  0  0  2  0  0  0  0  0  0
  186.4660  176.7040  136.0510 S   0  0  0  0  0  0  0  0  0  0  0  0
  187.1240  178.3830  136.3110 C   0  0  0  0  0  2  0  0  0  0  0  0
  188.3900  178.3780  138.5110 C   0  0  0  0  0  0  0  0  0  0  0  0
  188.3960  178.6360  139.7420 O   0  0  0  0  0  0  0  0  0  0  0  0
  189.6020  177.7710  137.8900 C   0  0  0  0  0  1  0  0  0  0  0  0
  187.2200  178.6640  137.7360 N   0  0  0  0  0  2  0  0  0  0  0  0
  2  4  1  0  0  0  0
  4 15  2  0  0  0  0
  5  2  2  0  0  0  0
  5 14  1  0  0  0  0
  6 14  1  0  0  0  0
  6  7  1  0  0  0  0
  8 12  2  0  0  0  0
  9 15  1  0  0  0  0
  9  3  1  0  0  0  0
 10 12  1  0  0  0  0
 10 11  1  0  0  0  0
 11  1  1  6  0  0  0
 11  5  1  0  0  0  0
 12 13  1  0  0  0  0
 13  6  2  0  0  0  0
 14  9  2  0  0  0  0
 16  7  1  0  0  0  0
 16 17  1  0  0  0  0
 17 21  2  0  0  0  0
 17 18  1  0  0  0  0
 18 22  2  0  0  0  0
 19 20  2  0  0  0  0
 21 19  1  0  0  0  0
 22 20  1  0  0  0  0
 24 23  1  0  0  0  0
 24 25  1  0  0  0  0
 25  1  1  0  0  0  0
 25 27  1  0  0  0  0
 26 24  2  0  0  0  0
 28 30  1  0  0  0  0
 29 30  1  0  0  0  0
 30 27  1  1  0  0  0
 31 29  1  0  0  0  0
 32 33  1  1  0  0  0
 32 31  1  0  0  0  0
 32 28  1  0  0  0  0
 33 34  1  0  0  0  0
 35 28  1  0  0  0  0
 35 36  1  0  0  0  0
 37 38  1  0  0  0  0
 37 36  1  0  0  0  0
 38 42  1  0  0  0  0
 39 40  2  0  0  0  0
 41 39  1  0  0  0  0
 42 39  1  0  0  0  0
M  END
>  <MODEL>
1

>  <REMARK>
 VINA RESULT:      -7.6      0.000      0.000
  Name = 
  12 active torsions:
  status: ('A' for Active; 'I' for Inactive)
    1  A    between atoms: C_1  and  C_39
    2  A    between atoms: N_6  and  C_19
    3  A    between atoms: N_6  and  C_37
    4  A    between atoms: C_10  and  C_40
    5  A    between atoms: C_12  and  N_21
    6  A    between atoms: C_12  and  C_24
    7  A    between atoms: S_13  and  C_24
    8  A    between atoms: S_13  and  C_25
    9  A    between atoms: C_19  and  C_33
   10  A    between atoms: C_25  and  N_42
   11  A    between atoms: N_26  and  C_39
   12  A    between atoms: C_28  and  C_37
                            x       y       z     vdW  Elec       q    Type
                         _______ _______ _______ _____ _____    ______ ____

>  <TORSDO>
F 12

$$$$
=
 OpenBabel10222419303D

 42 45  0  0  1  0  0  0  0  0999 V2000
  181.0670  177.0620  139.1310 C   0  0  0  0  0  2  0  0  0  0  0  0
  180.3290  178.1640  141.6900 C   0  0  0  0  0  3  0  0  0  0  0  0
  183.1570  179.3330  144.5400 O   0  0  0  0  0  1  0  0  0  0  0  0
  179.9300  178.5310  142.9730 C   0  0  0  0  0  3  0  0  0  0  0  0
  181.6890  178.1560  141.3380 C   0  0  0  0  0  0  0  0  0  0  0  0
  184.1140  178.5370  141.9480 C   0  0  0  0  0  0  0  0  0  0  0  0
  185.0220  178.0300  142.9370 N   0  0  0  0  0  2  0  0  0  0  0  0
  184.5380  180.3100  138.9180 O   0  0  0  0  0  0  0  0  0  0  0  0
  182.2400  178.9270  143.5780 C   0  0  0  0  0  0  0  0  0  0  0  0
  182.5410  179.0890  139.2510 C   0  0  0  0  0  2  0  0  0  0  0  0
  182.1180  177.8120  139.9440 C   0  0  2  0  0  3  0  0  0  0  0  0
  183.9230  179.5030  139.6620 C   0  0  0  0  0  0  0  0  0  0  0  0
  184.6010  178.9820  140.8200 N   0  0  0  0  0  0  0  0  0  0  0  0
  182.6610  178.5580  142.2800 C   0  0  0  0  0  0  0  0  0  0  0  0
  180.8850  178.9080  143.9140 C   0  0  0  0  0  3  0  0  0  0  0  0
  186.4620  177.9280  142.7350 C   0  0  0  0  0  2  0  0  0  0  0  0
  187.1640  177.7370  144.0360 C   0  0  0  0  0  0  0  0  0  0  0  0
  188.5210  177.3970  144.0510 C   0  0  0  0  0  3  0  0  0  0  0  0
  187.1330  177.7160  146.4590 C   0  0  0  0  0  3  0  0  0  0  0  0
  188.4880  177.3740  146.4730 C   0  0  0  0  0  3  0  0  0  0  0  0
  186.4710  177.9000  145.2410 C   0  0  0  0  0  3  0  0  0  0  0  0
  189.1830  177.2160  145.2700 C   0  0  0  0  0  3  0  0  0  0  0  0
  181.3600  173.6030  137.5570 N   0  0  0  0  0  1  0  0  0  0  0  0
  180.8010  174.8250  138.0280 C   0  0  0  0  0  0  0  0  0  0  0  0
  181.6520  175.8750  138.5170 N   0  0  0  0  0  0  0  0  0  0  0  0
  179.5490  174.9710  138.0200 O   0  0  0  0  0  0  0  0  0  0  0  0
  183.1050  175.7350  138.5130 C   0  0  0  0  0  2  0  0  0  0  0  0
  185.0990  175.7860  137.1110 N   0  0  0  0  0  0  0  0  0  0  0  0
  183.1910  176.9460  136.3360 C   0  0  0  0  0  2  0  0  0  0  0  0
  183.6500  175.7320  137.0900 C   0  0  2  0  0  3  0  0  0  0  0  0
  184.2900  177.3360  135.4770 N   0  0  0  0  0  2  0  0  0  0  0  0
  185.4760  176.6780  136.0160 C   0  0  1  0  0  3  0  0  0  0  0  0
  186.4590  177.7200  136.5190 C   0  0  0  0  0  2  0  0  0  0  0  0
  186.5500  177.6530  137.9100 O   0  0  0  0  0  1  0  0  0  0  0  0
  185.5700  174.4510  136.7700 C   0  0  0  0  0  2  0  0  0  0  0  0
  187.0430  174.3060  137.1160 C   0  0  0  0  0  2  0  0  0  0  0  0
  188.0450  174.2140  135.6000 S   0  0  0  0  0  0  0  0  0  0  0  0
  189.5640  174.6990  136.4810 C   0  0  0  0  0  2  0  0  0  0  0  0
  190.2230  176.1790  138.4350 C   0  0  0  0  0  0  0  0  0  0  0  0
  189.8630  176.8930  139.4050 O   0  0  0  0  0  0  0  0  0  0  0  0
  191.6790  175.9940  138.1710 C   0  0  0  0  0  1  0  0  0  0  0  0
  189.2330  175.5530  137.6120 N   0  0  0  0  0  2  0  0  0  0  0  0
  2  4  1  0  0  0  0
  4 15  2  0  0  0  0
  5  2  2  0  0  0  0
  5 14  1  0  0  0  0
  6 14  1  0  0  0  0
  6  7  1  0  0  0  0
  8 12  2  0  0  0  0
  9 15  1  0  0  0  0
  9  3  1  0  0  0  0
 10 12  1  0  0  0  0
 10 11  1  0  0  0  0
 11  1  1  6  0  0  0
 11  5  1  0  0  0  0
 12 13  1  0  0  0  0
 13  6  2  0  0  0  0
 14  9  2  0  0  0  0
 16  7  1  0  0  0  0
 16 17  1  0  0  0  0
 17 18  2  0  0  0  0
 17 21  1  0  0  0  0
 18 22  1  0  0  0  0
 19 20  1  0  0  0  0
 21 19  2  0  0  0  0
 22 20  2  0  0  0  0
 23 24  1  0  0  0  0
 24 25  1  0  0  0  0
 25  1  1  0  0  0  0
 26 24  2  0  0  0  0
 27 25  1  0  0  0  0
 29 30  1  0  0  0  0
 30 28  1  0  0  0  0
 30 27  1  1  0  0  0
 31 32  1  0  0  0  0
 31 29  1  0  0  0  0
 32 33  1  1  0  0  0
 32 28  1  0  0  0  0
 33 34  1  0  0  0  0
 35 28  1  0  0  0  0
 35 36  1  0  0  0  0
 37 38  1  0  0  0  0
 37 36  1  0  0  0  0
 38 42  1  0  0  0  0
 39 40  2  0  0  0  0
 41 39  1  0  0  0  0
 42 39  1  0  0  0  0
M  END
>  <MODEL>
2

>  <REMARK>
 VINA RESULT:      -7.4      1.495      2.321
  Name = 
  12 active torsions:
  status: ('A' for Active; 'I' for Inactive)
    1  A    between atoms: C_1  and  C_39
    2  A    between atoms: N_6  and  C_19
    3  A    between atoms: N_6  and  C_37
    4  A    between atoms: C_10  and  C_40
    5  A    between atoms: C_12  and  N_21
    6  A    between atoms: C_12  and  C_24
    7  A    between atoms: S_13  and  C_24
    8  A    between atoms: S_13  and  C_25
    9  A    between atoms: C_19  and  C_33
   10  A    between atoms: C_25  and  N_42
   11  A    between atoms: N_26  and  C_39
   12  A    between atoms: C_28  and  C_37
                            x       y       z     vdW  Elec       q    Type
                         _______ _______ _______ _____ _____    ______ ____

>  <TORSDO>
F 12

$$$$
=
 OpenBabel10222419303D

 42 45  0  0  1  0  0  0  0  0999 V2000
  181.1840  176.9470  139.1730 C   0  0  0  0  0  2  0  0  0  0  0  0
  180.4130  178.1590  141.6720 C   0  0  0  0  0  3  0  0  0  0  0  0
  183.2030  179.3950  144.5320 O   0  0  0  0  0  1  0  0  0  0  0  0
  179.9960  178.5820  142.9320 C   0  0  0  0  0  3  0  0  0  0  0  0
  181.7790  178.1170  141.3480 C   0  0  0  0  0  0  0  0  0  0  0  0
  184.1980  178.4840  141.9930 C   0  0  0  0  0  0  0  0  0  0  0  0
  185.0780  178.0030  143.0190 N   0  0  0  0  0  2  0  0  0  0  0  0
  184.7100  180.1320  138.9060 O   0  0  0  0  0  0  0  0  0  0  0  0
  182.2980  178.9660  143.5680 C   0  0  0  0  0  0  0  0  0  0  0  0
  182.6870  178.9550  139.2450 C   0  0  0  0  0  2  0  0  0  0  0  0
  182.2300  177.7130  139.9780 C   0  0  2  0  0  3  0  0  0  0  0  0
  184.0670  179.3640  139.6670 C   0  0  0  0  0  0  0  0  0  0  0  0
  184.7140  178.8780  140.8580 N   0  0  0  0  0  0  0  0  0  0  0  0
  182.7390  178.5400  142.2940 C   0  0  0  0  0  0  0  0  0  0  0  0
  180.9370  178.9810  143.8770 C   0  0  0  0  0  3  0  0  0  0  0  0
  186.5200  177.8710  142.8500 C   0  0  0  0  0  2  0  0  0  0  0  0
  187.1930  177.7170  144.1710 C   0  0  0  0  0  0  0  0  0  0  0  0
  186.4540  177.8630  145.3500 C   0  0  0  0  0  3  0  0  0  0  0  0
  189.1890  177.2860  145.4760 C   0  0  0  0  0  3  0  0  0  0  0  0
  188.4500  177.4320  146.6540 C   0  0  0  0  0  3  0  0  0  0  0  0
  188.5610  177.4250  144.2350 C   0  0  0  0  0  3  0  0  0  0  0  0
  187.0830  177.7200  146.5910 C   0  0  0  0  0  3  0  0  0  0  0  0
  180.4050  178.2650  135.6830 N   0  0  0  0  0  1  0  0  0  0  0  0
  180.3620  178.0850  137.0950 C   0  0  0  0  0  0  0  0  0  0  0  0
  181.3220  177.2410  137.7510 N   0  0  0  0  0  0  0  0  0  0  0  0
  179.4640  178.6670  137.7610 O   0  0  0  0  0  0  0  0  0  0  0  0
  182.3830  176.5760  137.0010 C   0  0  0  0  0  2  0  0  0  0  0  0
  183.5550  174.4680  136.6440 N   0  0  0  0  0  0  0  0  0  0  0  0
  181.2110  174.3770  136.9340 C   0  0  0  0  0  2  0  0  0  0  0  0
  182.4600  175.0960  137.3560 C   0  0  2  0  0  3  0  0  0  0  0  0
  181.6240  173.0620  136.4900 N   0  0  0  0  0  2  0  0  0  0  0  0
  183.0590  173.1550  136.2360 C   0  0  1  0  0  3  0  0  0  0  0  0
  183.3350  172.9390  134.7580 C   0  0  0  0  0  2  0  0  0  0  0  0
  184.5890  172.3470  134.5940 O   0  0  0  0  0  1  0  0  0  0  0  0
  184.6160  174.2520  137.6180 C   0  0  0  0  0  2  0  0  0  0  0  0
  185.9780  174.4120  136.9620 C   0  0  0  0  0  2  0  0  0  0  0  0
  186.0110  175.9070  135.9250 S   0  0  0  0  0  0  0  0  0  0  0  0
  186.0940  177.0060  137.3760 C   0  0  0  0  0  2  0  0  0  0  0  0
  188.1280  178.4240  137.9200 C   0  0  0  0  0  0  0  0  0  0  0  0
  188.8500  179.4130  137.6320 O   0  0  0  0  0  0  0  0  0  0  0  0
  188.4700  177.5970  139.1120 C   0  0  0  0  0  1  0  0  0  0  0  0
  186.9900  178.1200  137.1050 N   0  0  0  0  0  2  0  0  0  0  0  0
  2  4  1  0  0  0  0
  4 15  2  0  0  0  0
  5  2  2  0  0  0  0
  5 14  1  0  0  0  0
  6 14  1  0  0  0  0
  6  7  1  0  0  0  0
  8 12  2  0  0  0  0
  9 15  1  0  0  0  0
  9  3  1  0  0  0  0
 10 12  1  0  0  0  0
 10 11  1  0  0  0  0
 11  1  1  6  0  0  0
 11  5  1  0  0  0  0
 12 13  1  0  0  0  0
 13  6  2  0  0  0  0
 14  9  2  0  0  0  0
 16  7  1  0  0  0  0
 16 17  1  0  0  0  0
 17 21  2  0  0  0  0
 17 18  1  0  0  0  0
 18 22  2  0  0  0  0
 19 20  2  0  0  0  0
 21 19  1  0  0  0  0
 22 20  1  0  0  0  0
 23 24  1  0  0  0  0
 24 25  1  0  0  0  0
 24 26  2  0  0  0  0
 25  1  1  0  0  0  0
 27 25  1  0  0  0  0
 28 30  1  0  0  0  0
 28 35  1  0  0  0  0
 29 30  1  0  0  0  0
 30 27  1  6  0  0  0
 31 29  1  0  0  0  0
 32 33  1  6  0  0  0
 32 31  1  0  0  0  0
 32 28  1  0  0  0  0
 34 33  1  0  0  0  0
 36 35  1  0  0  0  0
 37 36  1  0  0  0  0
 37 38  1  0  0  0  0
 39 41  1  0  0  0  0
 40 39  2  0  0  0  0
 42 38  1  0  0  0  0
 42 39  1  0  0  0  0
M  END
>  <MODEL>
3

>  <REMARK>
 VINA RESULT:      -7.3      1.548      1.896
  Name = 
  12 active torsions:
  status: ('A' for Active; 'I' for Inactive)
    1  A    between atoms: C_1  and  C_39
    2  A    between atoms: N_6  and  C_19
    3  A    between atoms: N_6  and  C_37
    4  A    between atoms: C_10  and  C_40
    5  A    between atoms: C_12  and  N_21
    6  A    between atoms: C_12  and  C_24
    7  A    between atoms: S_13  and  C_24
    8  A    between atoms: S_13  and  C_25
    9  A    between atoms: C_19  and  C_33
   10  A    between atoms: C_25  and  N_42
   11  A    between atoms: N_26  and  C_39
   12  A    between atoms: C_28  and  C_37
                            x       y       z     vdW  Elec       q    Type
                         _______ _______ _______ _____ _____    ______ ____

>  <TORSDO>
F 12

$$$$
=
 OpenBabel10222419303D

 42 45  0  0  1  0  0  0  0  0999 V2000
  185.6540  176.2280  136.3880 C   0  0  0  0  0  2  0  0  0  0  0  0
  183.9970  177.9570  137.9930 C   0  0  0  0  0  3  0  0  0  0  0  0
  185.3660  179.7600  141.5090 O   0  0  0  0  0  1  0  0  0  0  0  0
  183.1170  178.6450  138.8240 C   0  0  0  0  0  3  0  0  0  0  0  0
  185.3550  177.8360  138.3320 C   0  0  0  0  0  0  0  0  0  0  0  0
  187.2710  178.3150  139.9130 C   0  0  0  0  0  0  0  0  0  0  0  0
  187.5580  178.0600  141.2950 N   0  0  0  0  0  2  0  0  0  0  0  0
  189.2500  179.2530  137.1360 O   0  0  0  0  0  0  0  0  0  0  0  0
  184.9350  179.1400  140.3420 C   0  0  0  0  0  0  0  0  0  0  0  0
  187.1730  178.1930  136.7460 C   0  0  0  0  0  2  0  0  0  0  0  0
  186.3150  177.1410  137.4150 C   0  0  2  0  0  3  0  0  0  0  0  0
  188.2630  178.6730  137.6570 C   0  0  0  0  0  0  0  0  0  0  0  0
  188.2700  178.4500  139.0790 N   0  0  0  0  0  0  0  0  0  0  0  0
  185.8420  178.4460  139.5090 C   0  0  0  0  0  0  0  0  0  0  0  0
  183.5860  179.2320  139.9970 C   0  0  0  0  0  3  0  0  0  0  0  0
  188.9070  177.8840  141.8200 C   0  0  0  0  0  2  0  0  0  0  0  0
  188.8780  177.7310  143.3030 C   0  0  0  0  0  0  0  0  0  0  0  0
  187.6570  177.5510  143.9610 C   0  0  0  0  0  3  0  0  0  0  0  0
  190.0370  177.6270  145.4290 C   0  0  0  0  0  3  0  0  0  0  0  0
  188.8160  177.4470  146.0860 C   0  0  0  0  0  3  0  0  0  0  0  0
  190.0690  177.7660  144.0380 C   0  0  0  0  0  3  0  0  0  0  0  0
  187.6260  177.4080  145.3520 C   0  0  0  0  0  3  0  0  0  0  0  0
  186.8590  172.6350  136.7850 N   0  0  0  0  0  1  0  0  0  0  0  0
  186.8510  174.0270  136.4840 C   0  0  0  0  0  0  0  0  0  0  0  0
  185.7160  174.8390  136.8270 N   0  0  0  0  0  0  0  0  0  0  0  0
  187.8470  174.5360  135.9040 O   0  0  0  0  0  0  0  0  0  0  0  0
  184.5620  174.2740  137.5190 C   0  0  0  0  0  2  0  0  0  0  0  0
  182.1300  174.1020  137.4850 N   0  0  0  0  0  0  0  0  0  0  0  0
  183.2950  173.4670  135.5300 C   0  0  0  0  0  2  0  0  0  0  0  0
  183.2950  174.4250  136.6860 C   0  0  2  0  0  3  0  0  0  0  0  0
  181.9240  173.0370  135.3510 N   0  0  0  0  0  2  0  0  0  0  0  0
  181.2360  173.3600  136.5980 C   0  0  1  0  0  3  0  0  0  0  0  0
  180.7790  172.0830  137.2800 C   0  0  0  0  0  2  0  0  0  0  0  0
  179.3880  172.0830  137.4000 O   0  0  0  0  0  1  0  0  0  0  0  0
  181.4810  175.3660  137.8050 C   0  0  0  0  0  2  0  0  0  0  0  0
  181.3530  175.5290  139.3110 C   0  0  0  0  0  2  0  0  0  0  0  0
  179.6040  175.6800  139.7870 S   0  0  0  0  0  0  0  0  0  0  0  0
  179.8770  177.3000  140.5740 C   0  0  0  0  0  2  0  0  0  0  0  0
  179.9080  178.1960  142.9490 C   0  0  0  0  0  0  0  0  0  0  0  0
  179.5200  178.0840  144.1400 O   0  0  0  0  0  0  0  0  0  0  0  0
  180.8330  179.3100  142.5880 C   0  0  0  0  0  1  0  0  0  0  0  0
  179.4640  177.2520  141.9690 N   0  0  0  0  0  2  0  0  0  0  0  0
  1 25  1  0  0  0  0
  2  5  2  0  0  0  0
  2  4  1  0  0  0  0
  4 15  2  0  0  0  0
  5 14  1  0  0  0  0
  6  7  1  0  0  0  0
  7 16  1  0  0  0  0
  8 12  2  0  0  0  0
  9  3  1  0  0  0  0
 10 11  1  0  0  0  0
 10 12  1  0  0  0  0
 11  1  1  6  0  0  0
 11  5  1  0  0  0  0
 12 13  1  0  0  0  0
 13  6  2  0  0  0  0
 14  6  1  0  0  0  0
 14  9  2  0  0  0  0
 15  9  1  0  0  0  0
 16 17  1  0  0  0  0
 17 18  2  0  0  0  0
 17 21  1  0  0  0  0
 18 22  1  0  0  0  0
 19 20  1  0  0  0  0
 21 19  2  0  0  0  0
 22 20  2  0  0  0  0
 24 23  1  0  0  0  0
 24 25  1  0  0  0  0
 25 27  1  0  0  0  0
 26 24  2  0  0  0  0
 28 35  1  0  0  0  0
 29 30  1  0  0  0  0
 30 28  1  0  0  0  0
 30 27  1  1  0  0  0
 31 29  1  0  0  0  0
 31 32  1  0  0  0  0
 32 33  1  1  0  0  0
 32 28  1  0  0  0  0
 33 34  1  0  0  0  0
 35 36  1  0  0  0  0
 36 37  1  0  0  0  0
 37 38  1  0  0  0  0
 38 42  1  0  0  0  0
 39 40  2  0  0  0  0
 41 39  1  0  0  0  0
 42 39  1  0  0  0  0
M  END
>  <MODEL>
4

>  <REMARK>
 VINA RESULT:      -7.3      2.520      5.234
  Name = 
  12 active torsions:
  status: ('A' for Active; 'I' for Inactive)
    1  A    between atoms: C_1  and  C_39
    2  A    between atoms: N_6  and  C_19
    3  A    between atoms: N_6  and  C_37
    4  A    between atoms: C_10  and  C_40
    5  A    between atoms: C_12  and  N_21
    6  A    between atoms: C_12  and  C_24
    7  A    between atoms: S_13  and  C_24
    8  A    between atoms: S_13  and  C_25
    9  A    between atoms: C_19  and  C_33
   10  A    between atoms: C_25  and  N_42
   11  A    between atoms: N_26  and  C_39
   12  A    between atoms: C_28  and  C_37
                            x       y       z     vdW  Elec       q    Type
                         _______ _______ _______ _____ _____    ______ ____

>  <TORSDO>
F 12

$$$$
=
 OpenBabel10222419303D

 42 45  0  0  1  0  0  0  0  0999 V2000
  190.3430  177.7600  140.2720 C   0  0  0  0  0  2  0  0  0  0  0  0
  191.5520  175.9540  138.3790 C   0  0  0  0  0  3  0  0  0  0  0  0
  189.3030  173.6530  135.7080 O   0  0  0  0  0  1  0  0  0  0  0  0
  192.1630  174.9720  137.6020 C   0  0  0  0  0  3  0  0  0  0  0  0
  190.1670  176.1710  138.2980 C   0  0  0  0  0  0  0  0  0  0  0  0
  187.9120  175.6000  137.3010 C   0  0  0  0  0  0  0  0  0  0  0  0
  187.0920  174.4270  137.2090 N   0  0  0  0  0  2  0  0  0  0  0  0
  187.3050  179.0540  136.8450 O   0  0  0  0  0  0  0  0  0  0  0  0
  190.0240  174.4210  136.6130 C   0  0  0  0  0  0  0  0  0  0  0  0
  189.1620  178.3890  138.1490 C   0  0  0  0  0  2  0  0  0  0  0  0
  189.5140  177.2600  139.0930 C   0  0  2  0  0  3  0  0  0  0  0  0
  187.9100  178.0890  137.3780 C   0  0  0  0  0  0  0  0  0  0  0  0
  187.3360  176.7730  137.2700 N   0  0  0  0  0  0  0  0  0  0  0  0
  189.3890  175.4140  137.3950 C   0  0  0  0  0  0  0  0  0  0  0  0
  191.3990  174.2070  136.7240 C   0  0  0  0  0  3  0  0  0  0  0  0
  185.6360  174.4640  137.1390 C   0  0  0  0  0  2  0  0  0  0  0  0
  185.0980  173.1570  136.6640 C   0  0  0  0  0  0  0  0  0  0  0  0
  185.7320  172.4840  135.6140 C   0  0  0  0  0  3  0  0  0  0  0  0
  183.4610  171.3770  136.8170 C   0  0  0  0  0  3  0  0  0  0  0  0
  184.0940  170.7050  135.7670 C   0  0  0  0  0  3  0  0  0  0  0  0
  183.9640  172.6010  137.2670 C   0  0  0  0  0  3  0  0  0  0  0  0
  185.2300  171.2570  135.1660 C   0  0  0  0  0  3  0  0  0  0  0  0
  190.1220  176.4170  143.8310 N   0  0  0  0  0  1  0  0  0  0  0  0
  190.6410  177.0150  142.6470 C   0  0  0  0  0  0  0  0  0  0  0  0
  189.7800  177.2830  141.5290 N   0  0  0  0  0  0  0  0  0  0  0  0
  191.8680  177.2960  142.5890 O   0  0  0  0  0  0  0  0  0  0  0  0
  188.3510  176.9870  141.5850 C   0  0  0  0  0  2  0  0  0  0  0  0
  186.4000  177.7450  142.8350 N   0  0  0  0  0  0  0  0  0  0  0  0
  187.0430  179.0100  140.9460 C   0  0  0  0  0  2  0  0  0  0  0  0
  187.5620  178.1880  142.0900 C   0  0  2  0  0  3  0  0  0  0  0  0
  185.7420  179.5010  141.3480 N   0  0  0  0  0  2  0  0  0  0  0  0
  185.3210  178.6570  142.4630 C   0  0  1  0  0  3  0  0  0  0  0  0
  184.0890  177.8620  142.0700 C   0  0  0  0  0  2  0  0  0  0  0  0
  183.1970  178.6820  141.3780 O   0  0  0  0  0  1  0  0  0  0  0  0
  186.6980  177.9700  144.2440 C   0  0  0  0  0  2  0  0  0  0  0  0
  185.7310  178.9840  144.8330 C   0  0  0  0  0  2  0  0  0  0  0  0
  185.2060  178.4670  146.4960 S   0  0  0  0  0  0  0  0  0  0  0  0
  186.7530  177.5500  146.7860 C   0  0  0  0  0  2  0  0  0  0  0  0
  188.9460  177.9080  148.0120 C   0  0  0  0  0  0  0  0  0  0  0  0
  189.6050  178.5700  148.8540 O   0  0  0  0  0  0  0  0  0  0  0  0
  189.5940  176.7500  147.3300 C   0  0  0  0  0  1  0  0  0  0  0  0
  187.5900  178.2710  147.7320 N   0  0  0  0  0  2  0  0  0  0  0  0
  1 25  1  0  0  0  0
  3  9  1  0  0  0  0
  4  2  2  0  0  0  0
  5  2  1  0  0  0  0
  5 11  1  0  0  0  0
  6 14  1  0  0  0  0
  7  6  1  0  0  0  0
  8 12  2  0  0  0  0
  9 15  2  0  0  0  0
  9 14  1  0  0  0  0
 10 11  1  0  0  0  0
 11  1  1  1  0  0  0
 12 10  1  0  0  0  0
 13  6  2  0  0  0  0
 13 12  1  0  0  0  0
 14  5  2  0  0  0  0
 15  4  1  0  0  0  0
 16  7  1  0  0  0  0
 17 16  1  0  0  0  0
 17 21  1  0  0  0  0
 18 17  2  0  0  0  0
 19 21  2  0  0  0  0
 20 19  1  0  0  0  0
 22 18  1  0  0  0  0
 22 20  2  0  0  0  0
 24 23  1  0  0  0  0
 25 27  1  0  0  0  0
 25 24  1  0  0  0  0
 26 24  2  0  0  0  0
 28 35  1  0  0  0  0
 29 31  1  0  0  0  0
 29 30  1  0  0  0  0
 30 27  1  6  0  0  0
 30 28  1  0  0  0  0
 31 32  1  0  0  0  0
 32 33  1  6  0  0  0
 32 28  1  0  0  0  0
 34 33  1  0  0  0  0
 35 36  1  0  0  0  0
 36 37  1  0  0  0  0
 37 38  1  0  0  0  0
 38 42  1  0  0  0  0
 39 40  2  0  0  0  0
 41 39  1  0  0  0  0
 42 39  1  0  0  0  0
M  END
>  <MODEL>
5

>  <REMARK>
 VINA RESULT:      -7.2      3.763      9.537
  Name = 
  12 active torsions:
  status: ('A' for Active; 'I' for Inactive)
    1  A    between atoms: C_1  and  C_39
    2  A    between atoms: N_6  and  C_19
    3  A    between atoms: N_6  and  C_37
    4  A    between atoms: C_10  and  C_40
    5  A    between atoms: C_12  and  N_21
    6  A    between atoms: C_12  and  C_24
    7  A    between atoms: S_13  and  C_24
    8  A    between atoms: S_13  and  C_25
    9  A    between atoms: C_19  and  C_33
   10  A    between atoms: C_25  and  N_42
   11  A    between atoms: N_26  and  C_39
   12  A    between atoms: C_28  and  C_37
                            x       y       z     vdW  Elec       q    Type
                         _______ _______ _______ _____ _____    ______ ____

>  <TORSDO>
F 12

$$$$
=
 OpenBabel10222419303D

 42 45  0  0  1  0  0  0  0  0999 V2000
  181.7160  176.6070  138.4550 C   0  0  0  0  0  2  0  0  0  0  0  0
  180.2670  177.8630  140.6070 C   0  0  0  0  0  3  0  0  0  0  0  0
  182.1730  179.5180  143.9410 O   0  0  0  0  0  1  0  0  0  0  0  0
  179.5250  178.3050  141.6990 C   0  0  0  0  0  3  0  0  0  0  0  0
  181.6690  177.9410  140.6160 C   0  0  0  0  0  0  0  0  0  0  0  0
  183.8220  178.5820  141.7800 C   0  0  0  0  0  0  0  0  0  0  0  0
  184.4680  178.2450  143.0160 N   0  0  0  0  0  2  0  0  0  0  0  0
  184.9180  180.1120  138.7860 O   0  0  0  0  0  0  0  0  0  0  0  0
  181.5660  178.9510  142.8270 C   0  0  0  0  0  0  0  0  0  0  0  0
  182.9810  178.7570  138.7280 C   0  0  0  0  0  2  0  0  0  0  0  0
  182.4690  177.5140  139.4230 C   0  0  2  0  0  3  0  0  0  0  0  0
  184.1790  179.3230  139.4300 C   0  0  0  0  0  0  0  0  0  0  0  0
  184.5600  178.9660  140.7720 N   0  0  0  0  0  0  0  0  0  0  0  0
  182.3340  178.5070  141.7260 C   0  0  0  0  0  0  0  0  0  0  0  0
  180.1740  178.8450  142.8070 C   0  0  0  0  0  3  0  0  0  0  0  0
  185.9140  178.2500  143.2000 C   0  0  0  0  0  2  0  0  0  0  0  0
  186.2610  178.1940  144.6490 C   0  0  0  0  0  0  0  0  0  0  0  0
  185.3820  178.7300  145.5960 C   0  0  0  0  0  3  0  0  0  0  0  0
  187.7850  177.5570  146.4220 C   0  0  0  0  0  3  0  0  0  0  0  0
  186.9070  178.0940  147.3690 C   0  0  0  0  0  3  0  0  0  0  0  0
  187.4610  177.6040  145.0630 C   0  0  0  0  0  3  0  0  0  0  0  0
  185.7060  178.6800  146.9560 C   0  0  0  0  0  3  0  0  0  0  0  0
  181.4570  178.2630  135.0320 N   0  0  0  0  0  1  0  0  0  0  0  0
  181.2630  177.9980  136.4170 C   0  0  0  0  0  0  0  0  0  0  0  0
  182.0220  176.9700  137.0760 N   0  0  0  0  0  0  0  0  0  0  0  0
  180.4090  178.6680  137.0570 O   0  0  0  0  0  0  0  0  0  0  0  0
  183.0320  176.1980  136.3590 C   0  0  0  0  0  2  0  0  0  0  0  0
  185.3920  175.7470  136.7750 N   0  0  0  0  0  0  0  0  0  0  0  0
  183.8280  174.1390  137.5160 C   0  0  0  0  0  2  0  0  0  0  0  0
  184.0570  175.6090  137.3210 C   0  0  2  0  0  3  0  0  0  0  0  0
  185.1370  173.5320  137.6440 N   0  0  0  0  0  2  0  0  0  0  0  0
  186.0840  174.5040  137.1060 C   0  0  1  0  0  3  0  0  0  0  0  0
  186.7500  173.9400  135.8630 C   0  0  0  0  0  2  0  0  0  0  0  0
  185.9060  174.0950  134.7630 O   0  0  0  0  0  1  0  0  0  0  0  0
  186.0380  176.8200  137.5190 C   0  0  0  0  0  2  0  0  0  0  0  0
  186.5710  177.8780  136.5660 C   0  0  0  0  0  2  0  0  0  0  0  0
  188.1990  178.4690  137.1200 S   0  0  0  0  0  0  0  0  0  0  0  0
  188.0330  177.6500  138.7390 C   0  0  0  0  0  2  0  0  0  0  0  0
  189.8260  177.4670  140.5270 C   0  0  0  0  0  0  0  0  0  0  0  0
  190.9690  177.0620  140.8570 O   0  0  0  0  0  0  0  0  0  0  0  0
  189.0080  178.2230  141.5190 C   0  0  0  0  0  1  0  0  0  0  0  0
  189.3370  177.2040  139.2070 N   0  0  0  0  0  2  0  0  0  0  0  0
  2  5  2  0  0  0  0
  2  4  1  0  0  0  0
  4 15  2  0  0  0  0
  5 14  1  0  0  0  0
  6  7  1  0  0  0  0
  7 16  1  0  0  0  0
  8 12  2  0  0  0  0
  9  3  1  0  0  0  0
 10 11  1  0  0  0  0
 10 12  1  0  0  0  0
 11  1  1  6  0  0  0
 11  5  1  0  0  0  0
 12 13  1  0  0  0  0
 13  6  2  0  0  0  0
 14  6  1  0  0  0  0
 14  9  2  0  0  0  0
 15  9  1  0  0  0  0
 16 17  1  0  0  0  0
 17 21  2  0  0  0  0
 17 18  1  0  0  0  0
 18 22  2  0  0  0  0
 19 20  2  0  0  0  0
 21 19  1  0  0  0  0
 22 20  1  0  0  0  0
 23 24  1  0  0  0  0
 24 26  2  0  0  0  0
 24 25  1  0  0  0  0
 25  1  1  0  0  0  0
 27 25  1  0  0  0  0
 28 32  1  0  0  0  0
 28 30  1  0  0  0  0
 28 35  1  0  0  0  0
 29 31  1  0  0  0  0
 30 27  1  6  0  0  0
 30 29  1  0  0  0  0
 32 33  1  6  0  0  0
 32 31  1  0  0  0  0
 34 33  1  0  0  0  0
 36 37  1  0  0  0  0
 36 35  1  0  0  0  0
 37 38  1  0  0  0  0
 38 42  1  0  0  0  0
 39 40  2  0  0  0  0
 39 41  1  0  0  0  0
 42 39  1  0  0  0  0
M  END
>  <MODEL>
6

>  <REMARK>
 VINA RESULT:      -6.9      1.891      2.408
  Name = 
  12 active torsions:
  status: ('A' for Active; 'I' for Inactive)
    1  A    between atoms: C_1  and  C_39
    2  A    between atoms: N_6  and  C_19
    3  A    between atoms: N_6  and  C_37
    4  A    between atoms: C_10  and  C_40
    5  A    between atoms: C_12  and  N_21
    6  A    between atoms: C_12  and  C_24
    7  A    between atoms: S_13  and  C_24
    8  A    between atoms: S_13  and  C_25
    9  A    between atoms: C_19  and  C_33
   10  A    between atoms: C_25  and  N_42
   11  A    between atoms: N_26  and  C_39
   12  A    between atoms: C_28  and  C_37
                            x       y       z     vdW  Elec       q    Type
                         _______ _______ _______ _____ _____    ______ ____

>  <TORSDO>
F 12

$$$$
=
 OpenBabel10222419303D

 42 45  0  0  1  0  0  0  0  0999 V2000
  191.4880  175.4350  136.2140 C   0  0  0  0  0  2  0  0  0  0  0  0
  189.6470  177.6330  136.5100 C   0  0  0  0  0  3  0  0  0  0  0  0
  188.3560  179.0020  140.2450 O   0  0  0  0  0  1  0  0  0  0  0  0
  188.6310  178.5810  136.6040 C   0  0  0  0  0  3  0  0  0  0  0  0
  190.2380  177.1020  137.6680 C   0  0  0  0  0  0  0  0  0  0  0  0
  190.4140  176.9960  140.1900 C   0  0  0  0  0  0  0  0  0  0  0  0
  189.5250  176.6970  141.2750 N   0  0  0  0  0  2  0  0  0  0  0  0
  193.9320  177.2010  139.8950 O   0  0  0  0  0  0  0  0  0  0  0  0
  188.7940  178.5200  139.0170 C   0  0  0  0  0  0  0  0  0  0  0  0
  192.6470  176.8340  137.9450 C   0  0  0  0  0  2  0  0  0  0  0  0
  191.3660  176.1200  137.5720 C   0  0  2  0  0  3  0  0  0  0  0  0
  192.7850  176.9710  139.4320 C   0  0  0  0  0  0  0  0  0  0  0  0
  191.6950  176.7920  140.3540 N   0  0  0  0  0  0  0  0  0  0  0  0
  189.8260  177.5570  138.9400 C   0  0  0  0  0  0  0  0  0  0  0  0
  188.2050  179.0210  137.8550 C   0  0  0  0  0  3  0  0  0  0  0  0
  189.9610  176.1210  142.5410 C   0  0  0  0  0  2  0  0  0  0  0  0
  189.1640  176.6750  143.6740 C   0  0  0  0  0  0  0  0  0  0  0  0
  187.7710  176.7460  143.5760 C   0  0  0  0  0  3  0  0  0  0  0  0
  189.0570  177.6430  145.8930 C   0  0  0  0  0  3  0  0  0  0  0  0
  187.6640  177.7150  145.7930 C   0  0  0  0  0  3  0  0  0  0  0  0
  189.8070  177.1210  144.8350 C   0  0  0  0  0  3  0  0  0  0  0  0
  187.0210  177.2650  144.6360 C   0  0  0  0  0  3  0  0  0  0  0  0
  192.4660  171.7590  135.9750 N   0  0  0  0  0  1  0  0  0  0  0  0
  192.5560  173.1800  135.9600 C   0  0  0  0  0  0  0  0  0  0  0  0
  191.4390  173.9860  136.3700 N   0  0  0  0  0  0  0  0  0  0  0  0
  193.6250  173.7230  135.5720 O   0  0  0  0  0  0  0  0  0  0  0  0
  190.2000  173.3760  136.8440 C   0  0  0  0  0  2  0  0  0  0  0  0
  187.8820  173.8220  136.2330 N   0  0  0  0  0  0  0  0  0  0  0  0
  188.9150  171.9210  135.2810 C   0  0  0  0  0  2  0  0  0  0  0  0
  189.1530  173.3310  135.7380 C   0  0  2  0  0  3  0  0  0  0  0  0
  187.5030  171.8210  134.9750 N   0  0  0  0  0  2  0  0  0  0  0  0
  186.8660  172.9550  135.6380 C   0  0  1  0  0  3  0  0  0  0  0  0
  185.9210  172.4570  136.7170 C   0  0  0  0  0  2  0  0  0  0  0  0
  186.3360  172.9290  137.9640 O   0  0  0  0  0  1  0  0  0  0  0  0
  187.7040  175.1550  135.6730 C   0  0  0  0  0  2  0  0  0  0  0  0
  186.3630  175.2550  134.9640 C   0  0  0  0  0  2  0  0  0  0  0  0
  185.5100  176.7920  135.4340 S   0  0  0  0  0  0  0  0  0  0  0  0
  185.2620  176.2240  137.1460 C   0  0  0  0  0  2  0  0  0  0  0  0
  183.6740  177.7340  138.4260 C   0  0  0  0  0  0  0  0  0  0  0  0
  182.4970  177.9810  138.7960 O   0  0  0  0  0  0  0  0  0  0  0  0
  184.7770  178.6370  138.8630 C   0  0  0  0  0  1  0  0  0  0  0  0
  183.9300  176.5900  137.6040 N   0  0  0  0  0  2  0  0  0  0  0  0
  1 25  1  0  0  0  0
  2  4  2  0  0  0  0
  2  5  1  0  0  0  0
  4 15  1  0  0  0  0
  5 14  2  0  0  0  0
  6 13  2  0  0  0  0
  6  7  1  0  0  0  0
  7 16  1  0  0  0  0
  9  3  1  0  0  0  0
 10 12  1  0  0  0  0
 11  1  1  6  0  0  0
 11  5  1  0  0  0  0
 11 10  1  0  0  0  0
 12  8  2  0  0  0  0
 12 13  1  0  0  0  0
 14  9  1  0  0  0  0
 14  6  1  0  0  0  0
 15  9  2  0  0  0  0
 16 17  1  0  0  0  0
 17 21  1  0  0  0  0
 18 17  2  0  0  0  0
 18 22  1  0  0  0  0
 20 19  1  0  0  0  0
 21 19  2  0  0  0  0
 22 20  2  0  0  0  0
 24 23  1  0  0  0  0
 24 25  1  0  0  0  0
 25 27  1  0  0  0  0
 26 24  2  0  0  0  0
 29 30  1  0  0  0  0
 30 28  1  0  0  0  0
 30 27  1  1  0  0  0
 31 29  1  0  0  0  0
 31 32  1  0  0  0  0
 32 28  1  0  0  0  0
 32 33  1  1  0  0  0
 33 34  1  0  0  0  0
 35 28  1  0  0  0  0
 36 37  1  0  0  0  0
 36 35  1  0  0  0  0
 37 38  1  0  0  0  0
 38 42  1  0  0  0  0
 39 40  2  0  0  0  0
 39 41  1  0  0  0  0
 42 39  1  0  0  0  0
M  END
>  <MODEL>
7

>  <REMARK>
 VINA RESULT:      -6.9      3.801      7.487
  Name = 
  12 active torsions:
  status: ('A' for Active; 'I' for Inactive)
    1  A    between atoms: C_1  and  C_39
    2  A    between atoms: N_6  and  C_19
    3  A    between atoms: N_6  and  C_37
    4  A    between atoms: C_10  and  C_40
    5  A    between atoms: C_12  and  N_21
    6  A    between atoms: C_12  and  C_24
    7  A    between atoms: S_13  and  C_24
    8  A    between atoms: S_13  and  C_25
    9  A    between atoms: C_19  and  C_33
   10  A    between atoms: C_25  and  N_42
   11  A    between atoms: N_26  and  C_39
   12  A    between atoms: C_28  and  C_37
                            x       y       z     vdW  Elec       q    Type
                         _______ _______ _______ _____ _____    ______ ____

>  <TORSDO>
F 12

$$$$
=
 OpenBabel10222419303D

 42 45  0  0  1  0  0  0  0  0999 V2000
  183.9590  176.1830  137.7060 C   0  0  0  0  0  2  0  0  0  0  0  0
  181.3240  176.1540  138.8740 C   0  0  0  0  0  3  0  0  0  0  0  0
  180.3900  178.2340  142.3800 O   0  0  0  0  0  1  0  0  0  0  0  0
  180.0900  175.9770  139.4950 C   0  0  0  0  0  3  0  0  0  0  0  0
  182.2860  177.0150  139.4270 C   0  0  0  0  0  0  0  0  0  0  0  0
  182.9960  178.6390  141.2330 C   0  0  0  0  0  0  0  0  0  0  0  0
  183.1350  178.6000  142.6600 N   0  0  0  0  0  2  0  0  0  0  0  0
  184.1780  180.8270  138.7190 O   0  0  0  0  0  0  0  0  0  0  0  0
  180.7320  177.5450  141.2220 C   0  0  0  0  0  0  0  0  0  0  0  0
  183.5600  178.6270  138.1130 C   0  0  0  0  0  2  0  0  0  0  0  0
  183.5940  177.2480  138.7360 C   0  0  2  0  0  3  0  0  0  0  0  0
  183.8160  179.6960  139.1330 C   0  0  0  0  0  0  0  0  0  0  0  0
  183.7320  179.4790  140.5540 N   0  0  0  0  0  0  0  0  0  0  0  0
  181.9890  177.7370  140.6050 C   0  0  0  0  0  0  0  0  0  0  0  0
  179.7970  176.6690  140.6670 C   0  0  0  0  0  3  0  0  0  0  0  0
  184.0970  179.4070  143.4010 C   0  0  0  0  0  2  0  0  0  0  0  0
  185.2780  178.5880  143.7960 C   0  0  0  0  0  0  0  0  0  0  0  0
  185.5140  178.3130  145.1470 C   0  0  0  0  0  3  0  0  0  0  0  0
  187.2590  177.3280  143.1940 C   0  0  0  0  0  3  0  0  0  0  0  0
  187.4940  177.0540  144.5450 C   0  0  0  0  0  3  0  0  0  0  0  0
  186.1500  178.0920  142.8190 C   0  0  0  0  0  3  0  0  0  0  0  0
  186.6220  177.5450  145.5210 C   0  0  0  0  0  3  0  0  0  0  0  0
  186.4940  177.2770  135.0800 N   0  0  0  0  0  1  0  0  0  0  0  0
  185.2590  177.0920  135.7640 C   0  0  0  0  0  0  0  0  0  0  0  0
  185.2340  176.5020  137.0740 N   0  0  0  0  0  0  0  0  0  0  0  0
  184.1870  177.4410  135.2010 O   0  0  0  0  0  0  0  0  0  0  0  0
  186.4660  176.1110  137.7530 C   0  0  0  0  0  2  0  0  0  0  0  0
  188.7690  176.8160  138.1310 N   0  0  0  0  0  0  0  0  0  0  0  0
  187.0540  178.1730  139.0240 C   0  0  0  0  0  2  0  0  0  0  0  0
  187.4250  177.2900  137.8680 C   0  0  2  0  0  3  0  0  0  0  0  0
  188.2970  178.6510  139.5930 N   0  0  0  0  0  2  0  0  0  0  0  0
  189.3360  177.7530  139.0980 C   0  0  1  0  0  3  0  0  0  0  0  0
  189.9490  176.9860  140.2570 C   0  0  0  0  0  2  0  0  0  0  0  0
  191.2060  177.5120  140.5590 O   0  0  0  0  0  1  0  0  0  0  0  0
  189.5130  176.9650  136.8870 C   0  0  0  0  0  2  0  0  0  0  0  0
  189.9750  175.6080  136.3810 C   0  0  0  0  0  2  0  0  0  0  0  0
  191.7090  175.6910  135.8380 S   0  0  0  0  0  0  0  0  0  0  0  0
  192.3300  175.6460  137.5500 C   0  0  0  0  0  2  0  0  0  0  0  0
  194.7510  174.8830  137.5570 C   0  0  0  0  0  0  0  0  0  0  0  0
  195.9690  175.1920  137.5890 O   0  0  0  0  0  0  0  0  0  0  0  0
  194.3670  173.4420  137.5190 C   0  0  0  0  0  1  0  0  0  0  0  0
  193.7600  175.9170  137.5680 N   0  0  0  0  0  2  0  0  0  0  0  0
  2  5  2  0  0  0  0
  2  4  1  0  0  0  0
  4 15  2  0  0  0  0
  5 14  1  0  0  0  0
  6  7  1  0  0  0  0
  7 16  1  0  0  0  0
  8 12  2  0  0  0  0
  9  3  1  0  0  0  0
 10 11  1  0  0  0  0
 10 12  1  0  0  0  0
 11  1  1  6  0  0  0
 11  5  1  0  0  0  0
 12 13  1  0  0  0  0
 13  6  2  0  0  0  0
 14  9  2  0  0  0  0
 14  6  1  0  0  0  0
 15  9  1  0  0  0  0
 16 17  1  0  0  0  0
 17 18  1  0  0  0  0
 18 22  2  0  0  0  0
 19 20  2  0  0  0  0
 20 22  1  0  0  0  0
 21 19  1  0  0  0  0
 21 17  2  0  0  0  0
 23 24  1  0  0  0  0
 24 25  1  0  0  0  0
 25  1  1  0  0  0  0
 25 27  1  0  0  0  0
 26 24  2  0  0  0  0
 28 32  1  0  0  0  0
 29 31  1  0  0  0  0
 30 27  1  1  0  0  0
 30 28  1  0  0  0  0
 30 29  1  0  0  0  0
 32 31  1  0  0  0  0
 32 33  1  1  0  0  0
 33 34  1  0  0  0  0
 35 28  1  0  0  0  0
 36 35  1  0  0  0  0
 37 36  1  0  0  0  0
 37 38  1  0  0  0  0
 38 42  1  0  0  0  0
 39 42  1  0  0  0  0
 39 40  2  0  0  0  0
 41 39  1  0  0  0  0
M  END
>  <MODEL>
8

>  <REMARK>
 VINA RESULT:      -6.7      2.924      5.095
  Name = 
  12 active torsions:
  status: ('A' for Active; 'I' for Inactive)
    1  A    between atoms: C_1  and  C_39
    2  A    between atoms: N_6  and  C_19
    3  A    between atoms: N_6  and  C_37
    4  A    between atoms: C_10  and  C_40
    5  A    between atoms: C_12  and  N_21
    6  A    between atoms: C_12  and  C_24
    7  A    between atoms: S_13  and  C_24
    8  A    between atoms: S_13  and  C_25
    9  A    between atoms: C_19  and  C_33
   10  A    between atoms: C_25  and  N_42
   11  A    between atoms: N_26  and  C_39
   12  A    between atoms: C_28  and  C_37
                            x       y       z     vdW  Elec       q    Type
                         _______ _______ _______ _____ _____    ______ ____

>  <TORSDO>
F 12

$$$$
=
 OpenBabel10222419303D

 42 45  0  0  1  0  0  0  0  0999 V2000
  182.7390  178.9760  140.6950 C   0  0  0  0  0  2  0  0  0  0  0  0
  181.4600  179.9400  138.2990 C   0  0  0  0  0  3  0  0  0  0  0  0
  180.7380  177.4890  134.9890 O   0  0  0  0  0  1  0  0  0  0  0  0
  180.9960  180.4840  137.1030 C   0  0  0  0  0  3  0  0  0  0  0  0
  181.7160  178.5630  138.4070 C   0  0  0  0  0  0  0  0  0  0  0  0
  181.7550  176.2530  137.3770 C   0  0  0  0  0  0  0  0  0  0  0  0
  182.3890  175.6370  136.2470 N   0  0  0  0  0  2  0  0  0  0  0  0
  180.1610  174.9980  140.2740 O   0  0  0  0  0  0  0  0  0  0  0  0
  180.9990  178.2830  136.0990 C   0  0  0  0  0  0  0  0  0  0  0  0
  181.0010  177.2080  140.3050 C   0  0  0  0  0  2  0  0  0  0  0  0
  182.1660  177.9670  139.7060 C   0  0  2  0  0  3  0  0  0  0  0  0
  180.8270  175.8680  139.6550 C   0  0  0  0  0  0  0  0  0  0  0  0
  181.4310  175.5060  138.3990 N   0  0  0  0  0  0  0  0  0  0  0  0
  181.4690  177.7140  137.3050 C   0  0  0  0  0  0  0  0  0  0  0  0
  180.7700  179.6560  136.0060 C   0  0  0  0  0  3  0  0  0  0  0  0
  182.7490  174.2250  136.1940 C   0  0  0  0  0  2  0  0  0  0  0  0
  184.2130  174.0460  136.4120 C   0  0  0  0  0  0  0  0  0  0  0  0
  185.1250  174.7670  135.6340 C   0  0  0  0  0  3  0  0  0  0  0  0
  186.0500  172.9940  137.5910 C   0  0  0  0  0  3  0  0  0  0  0  0
  186.9610  173.7140  136.8120 C   0  0  0  0  0  3  0  0  0  0  0  0
  184.6760  173.1610  137.3920 C   0  0  0  0  0  3  0  0  0  0  0  0
  186.5000  174.6010  135.8350 C   0  0  0  0  0  3  0  0  0  0  0  0
  186.4980  178.6170  140.1810 N   0  0  0  0  0  1  0  0  0  0  0  0
  185.1460  179.0230  139.9930 C   0  0  0  0  0  0  0  0  0  0  0  0
  184.1420  178.6840  140.9640 N   0  0  0  0  0  0  0  0  0  0  0  0
  184.8380  179.6740  138.9580 O   0  0  0  0  0  0  0  0  0  0  0  0
  184.4820  177.9520  142.1800 C   0  0  0  0  0  2  0  0  0  0  0  0
  186.1010  177.9330  144.0030 N   0  0  0  0  0  0  0  0  0  0  0  0
  184.5310  179.6990  143.9570 C   0  0  0  0  0  2  0  0  0  0  0  0
  185.3620  178.7910  143.0980 C   0  0  2  0  0  3  0  0  0  0  0  0
  185.1930  179.7680  145.2430 N   0  0  0  0  0  2  0  0  0  0  0  0
  186.0990  178.6250  145.2910 C   0  0  1  0  0  3  0  0  0  0  0  0
  185.6630  177.6680  146.3860 C   0  0  0  0  0  2  0  0  0  0  0  0
  184.6430  178.2470  147.1420 O   0  0  0  0  0  1  0  0  0  0  0  0
  187.4760  177.9060  143.5220 C   0  0  0  0  0  2  0  0  0  0  0  0
  187.8870  176.4840  143.1770 C   0  0  0  0  0  2  0  0  0  0  0  0
  189.6780  176.2680  143.4060 S   0  0  0  0  0  0  0  0  0  0  0  0
  189.7550  177.5810  144.6660 C   0  0  0  0  0  2  0  0  0  0  0  0
  190.7130  177.1190  146.9700 C   0  0  0  0  0  0  0  0  0  0  0  0
  191.7280  176.9340  147.6890 O   0  0  0  0  0  0  0  0  0  0  0  0
  189.3630  177.1080  147.6040 C   0  0  0  0  0  1  0  0  0  0  0  0
  190.8740  177.3430  145.5650 N   0  0  0  0  0  2  0  0  0  0  0  0
  1 25  1  0  0  0  0
  2  5  1  0  0  0  0
  3  9  1  0  0  0  0
  4  2  2  0  0  0  0
  5 11  1  0  0  0  0
  6 13  2  0  0  0  0
  7  6  1  0  0  0  0
  9 14  1  0  0  0  0
 11 10  1  0  0  0  0
 11  1  1  1  0  0  0
 12  8  2  0  0  0  0
 12 10  1  0  0  0  0
 13 12  1  0  0  0  0
 14  6  1  0  0  0  0
 14  5  2  0  0  0  0
 15  9  2  0  0  0  0
 15  4  1  0  0  0  0
 16  7  1  0  0  0  0
 16 17  1  0  0  0  0
 17 21  1  0  0  0  0
 18 22  1  0  0  0  0
 18 17  2  0  0  0  0
 20 19  1  0  0  0  0
 21 19  2  0  0  0  0
 22 20  2  0  0  0  0
 24 23  1  0  0  0  0
 24 25  1  0  0  0  0
 25 27  1  0  0  0  0
 26 24  2  0  0  0  0
 28 32  1  0  0  0  0
 29 31  1  0  0  0  0
 30 27  1  6  0  0  0
 30 29  1  0  0  0  0
 30 28  1  0  0  0  0
 31 32  1  0  0  0  0
 32 33  1  1  0  0  0
 33 34  1  0  0  0  0
 35 28  1  0  0  0  0
 36 37  1  0  0  0  0
 36 35  1  0  0  0  0
 37 38  1  0  0  0  0
 38 42  1  0  0  0  0
 39 41  1  0  0  0  0
 39 40  2  0  0  0  0
 42 39  1  0  0  0  0
M  END
>  <MODEL>
9

>  <REMARK>
 VINA RESULT:      -6.7      2.831      7.956
  Name = 
  12 active torsions:
  status: ('A' for Active; 'I' for Inactive)
    1  A    between atoms: C_1  and  C_39
    2  A    between atoms: N_6  and  C_19
    3  A    between atoms: N_6  and  C_37
    4  A    between atoms: C_10  and  C_40
    5  A    between atoms: C_12  and  N_21
    6  A    between atoms: C_12  and  C_24
    7  A    between atoms: S_13  and  C_24
    8  A    between atoms: S_13  and  C_25
    9  A    between atoms: C_19  and  C_33
   10  A    between atoms: C_25  and  N_42
   11  A    between atoms: N_26  and  C_39
   12  A    between atoms: C_28  and  C_37
                            x       y       z     vdW  Elec       q    Type
                         _______ _______ _______ _____ _____    ______ ____

>  <TORSDO>
F 12

$$$$
