=
 OpenBabel10222418143D

 45 50  0  0  1  0  0  0  0  0999 V2000
  183.2430  178.6880  144.0330 C   0  0  0  0  0  2  0  0  0  0  0  0
  185.4370  178.2070  142.9360 C   0  0  0  0  0  2  0  0  0  0  0  0
  184.7440  178.9890  144.0500 C   0  0  2  0  0  3  0  0  0  0  0  0
  185.0140  178.9210  139.2720 C   0  0  0  0  0  0  0  0  0  0  0  0
  183.6300  179.2480  139.1380 N   0  0  0  0  0  2  0  0  0  0  0  0
  184.8080  178.5320  141.6170 C   0  0  0  0  0  0  0  0  0  0  0  0
  182.6430  178.9570  142.6800 C   0  0  0  0  0  3  0  0  0  0  0  0
  185.5450  178.5580  140.5500 N   0  0  0  0  0  0  0  0  0  0  0  0
  185.7730  178.9750  138.2700 O   0  0  0  0  0  0  0  0  0  0  0  0
  182.6730  179.0290  140.2230 C   0  0  2  0  0  3  0  0  0  0  0  0
  183.3560  178.8430  141.5530 C   0  0  0  0  0  0  0  0  0  0  0  0
  185.3540  178.6080  145.3890 C   0  0  0  0  0  2  0  0  0  0  0  0
  189.5370  177.6440  144.7340 C   0  0  0  0  0  2  0  0  0  0  0  0
  190.5400  176.5020  144.6050 C   0  0  0  0  0  2  0  0  0  0  0  0
  189.0040  177.6650  146.0920 N   0  0  0  0  0  0  0  0  0  0  0  0
  186.7440  178.2050  145.2210 N   0  0  0  0  0  2  0  0  0  0  0  0
  187.6320  178.0090  146.3260 C   0  0  0  0  0  0  0  0  0  0  0  0
  191.9540  176.4780  147.9960 N   0  0  0  0  0  1  0  0  0  0  0  0
  192.4050  175.5650  145.4510 O   0  0  0  0  0  1  0  0  0  0  0  0
  187.2020  178.1210  147.5070 O   0  0  0  0  0  0  0  0  0  0  0  0
  190.9410  176.4500  146.9510 C   0  0  1  0  0  3  0  0  0  0  0  0
  189.9420  177.5770  147.2060 C   0  0  0  0  0  2  0  0  0  0  0  0
  191.5710  176.6170  145.6360 N   0  0  0  0  0  0  0  0  0  0  0  0
  181.7220  177.8660  139.9050 C   0  0  1  0  0  3  0  0  0  0  0  0
  180.3890  178.2590  140.0600 O   0  0  0  0  0  0  0  0  0  0  0  0
  179.8450  177.3330  140.9550 C   0  0  0  0  0  2  0  0  0  0  0  0
  178.9440  178.0400  141.9510 C   0  0  2  0  0  3  0  0  0  0  0  0
  178.9350  179.8230  141.6320 S   0  0  0  0  0  0  0  0  0  0  0  0
  178.9330  178.8530  144.0950 N   0  0  0  0  0  2  0  0  0  0  0  0
  179.4430  177.8170  143.2980 N   0  0  0  0  0  2  0  0  0  0  0  0
  179.2170  180.0950  143.3960 C   0  0  0  0  0  2  0  0  0  0  0  0
  181.9530  177.2320  138.5300 C   0  0  0  0  0  2  0  0  0  0  0  0
  185.0900  175.7820  136.0020 N   0  0  0  0  0  2  0  0  0  0  0  0
  185.4330  174.4940  136.5830 C   0  0  2  0  0  3  0  0  0  0  0  0
  182.7020  175.9890  138.6430 N   0  0  0  0  0  2  0  0  0  0  0  0
  184.4970  174.3670  137.7910 C   0  0  0  0  0  2  0  0  0  0  0  0
  184.0700  176.3900  136.7310 N   0  0  0  0  0  0  0  0  0  0  0  0
  183.7280  175.6380  137.7160 C   0  0  0  0  0  0  0  0  0  0  0  0
  186.8830  174.5130  137.0410 C   0  0  0  0  0  2  0  0  0  0  0  0
  189.1330  177.6120  135.7130 N   0  0  0  0  0  2  0  0  0  0  0  0
  187.5660  175.6780  136.5020 N   0  0  0  0  0  0  0  0  0  0  0  0
  188.9350  177.6290  137.1640 C   0  0  0  0  0  2  0  0  0  0  0  0
  188.1000  176.4290  137.6400 C   0  0  0  0  0  2  0  0  0  0  0  0
  188.6850  175.1770  135.7000 C   0  0  0  0  0  2  0  0  0  0  0  0
  189.6570  176.3050  135.3150 C   0  0  0  0  0  2  0  0  0  0  0  0
  1  3  1  0  0  0  0
  2  3  1  0  0  0  0
  3 12  1  1  0  0  0
  4  8  1  0  0  0  0
  5  4  1  0  0  0  0
  5 10  1  0  0  0  0
  6  2  1  0  0  0  0
  7  1  1  0  0  0  0
  8  6  2  0  0  0  0
  9  4  2  0  0  0  0
 10 24  1  6  0  0  0
 10 11  1  0  0  0  0
 11  6  1  0  0  0  0
 11  7  2  0  0  0  0
 13 15  1  0  0  0  0
 14 13  1  0  0  0  0
 14 23  1  0  0  0  0
 15 17  1  0  0  0  0
 15 22  1  0  0  0  0
 16 12  1  0  0  0  0
 16 17  1  0  0  0  0
 17 20  2  0  0  0  0
 19 23  1  0  0  0  0
 21 22  1  0  0  0  0
 21 18  1  1  0  0  0
 23 21  1  0  0  0  0
 24 32  1  6  0  0  0
 24 25  1  0  0  0  0
 25 26  1  0  0  0  0
 27 26  1  6  0  0  0
 27 30  1  0  0  0  0
 28 27  1  0  0  0  0
 28 31  1  0  0  0  0
 30 29  1  0  0  0  0
 31 29  1  0  0  0  0
 32 35  1  0  0  0  0
 33 34  1  0  0  0  0
 33 37  1  0  0  0  0
 34 39  1  1  0  0  0
 34 36  1  0  0  0  0
 37 38  2  0  0  0  0
 38 36  1  0  0  0  0
 38 35  1  0  0  0  0
 40 42  1  0  0  0  0
 41 39  1  0  0  0  0
 41 43  1  0  0  0  0
 42 43  1  0  0  0  0
 44 41  1  0  0  0  0
 45 44  1  0  0  0  0
 45 40  1  0  0  0  0
M  END
>  <MODEL>
1

>  <REMARK>
 VINA RESULT:      -8.3      0.000      0.000
  Name = 
  10 active torsions:
  status: ('A' for Active; 'I' for Inactive)
    1  A    between atoms: C_5  and  C_40
    2  A    between atoms: C_7  and  C_21
    3  A    between atoms: N_10  and  C_21
    4  A    between atoms: C_13  and  N_17
    5  A    between atoms: C_13  and  C_26
    6  A    between atoms: C_22  and  C_44
    7  A    between atoms: O_25  and  C_40
    8  A    between atoms: O_25  and  C_44
    9  A    between atoms: N_27  and  C_32
   10  A    between atoms: C_32  and  C_44
                            x       y       z     vdW  Elec       q    Type
                         _______ _______ _______ _____ _____    ______ ____

>  <TORSDO>
F 10

$$$$
=
 OpenBabel10222418143D

 45 50  0  0  1  0  0  0  0  0999 V2000
  189.1760  177.8750  140.0990 C   0  0  0  0  0  2  0  0  0  0  0  0
  190.9290  176.2910  139.2830 C   0  0  0  0  0  2  0  0  0  0  0  0
  190.6600  177.5060  140.1690 C   0  0  2  0  0  3  0  0  0  0  0  0
  190.7930  176.3400  135.5290 C   0  0  0  0  0  0  0  0  0  0  0  0
  189.6830  177.1890  135.2310 N   0  0  0  0  0  2  0  0  0  0  0  0
  190.4790  176.5720  137.8830 C   0  0  0  0  0  0  0  0  0  0  0  0
  188.7280  178.0870  138.6790 C   0  0  0  0  0  3  0  0  0  0  0  0
  191.1360  176.0600  136.8890 N   0  0  0  0  0  0  0  0  0  0  0  0
  191.4830  175.8570  134.5950 O   0  0  0  0  0  0  0  0  0  0  0  0
  188.7430  177.6280  136.2630 C   0  0  2  0  0  3  0  0  0  0  0  0
  189.3020  177.4500  137.6520 C   0  0  0  0  0  0  0  0  0  0  0  0
  191.0690  177.1890  141.5980 C   0  0  0  0  0  2  0  0  0  0  0  0
  187.5270  176.9980  144.1020 C   0  0  0  0  0  2  0  0  0  0  0  0
  186.4940  177.8320  144.8520 C   0  0  0  0  0  2  0  0  0  0  0  0
  188.8370  177.1880  144.7150 N   0  0  0  0  0  0  0  0  0  0  0  0
  189.9080  177.2080  142.4770 N   0  0  0  0  0  2  0  0  0  0  0  0
  190.0180  177.2250  143.9040 C   0  0  0  0  0  0  0  0  0  0  0  0
  187.8610  177.6690  148.2590 N   0  0  0  0  0  1  0  0  0  0  0  0
  185.5880  178.2960  146.8610 O   0  0  0  0  0  1  0  0  0  0  0  0
  191.1550  177.2920  144.4470 O   0  0  0  0  0  0  0  0  0  0  0  0
  187.8280  177.9030  146.8230 C   0  0  1  0  0  3  0  0  0  0  0  0
  188.9430  177.0890  146.1680 C   0  0  0  0  0  2  0  0  0  0  0  0
  186.5240  177.5090  146.2790 N   0  0  0  0  0  0  0  0  0  0  0  0
  187.3790  176.9410  136.1080 C   0  0  1  0  0  3  0  0  0  0  0  0
  187.2700  175.8530  136.9800 O   0  0  0  0  0  0  0  0  0  0  0  0
  187.4870  174.7290  136.1780 C   0  0  0  0  0  2  0  0  0  0  0  0
  186.3160  173.7700  136.3000 C   0  0  2  0  0  3  0  0  0  0  0  0
  185.0870  174.1140  135.0150 S   0  0  0  0  0  0  0  0  0  0  0  0
  184.3730  173.4550  137.4770 N   0  0  0  0  0  2  0  0  0  0  0  0
  185.6830  173.9420  137.5970 N   0  0  0  0  0  2  0  0  0  0  0  0
  183.8070  174.0720  136.2900 C   0  0  0  0  0  2  0  0  0  0  0  0
  186.1840  177.8880  136.2570 C   0  0  0  0  0  2  0  0  0  0  0  0
  184.5370  179.5160  139.8580 N   0  0  0  0  0  2  0  0  0  0  0  0
  183.5910  178.5020  140.2930 C   0  0  2  0  0  3  0  0  0  0  0  0
  185.1640  177.3150  137.1230 N   0  0  0  0  0  2  0  0  0  0  0  0
  183.6870  177.4140  139.2180 C   0  0  0  0  0  2  0  0  0  0  0  0
  185.1590  179.1270  138.6740 N   0  0  0  0  0  0  0  0  0  0  0  0
  184.7120  177.9810  138.3010 C   0  0  0  0  0  0  0  0  0  0  0  0
  182.1900  179.0920  140.3200 C   0  0  0  0  0  2  0  0  0  0  0  0
  180.4010  178.5340  143.9140 N   0  0  0  0  0  2  0  0  0  0  0  0
  181.5230  178.7510  141.5670 N   0  0  0  0  0  0  0  0  0  0  0  0
  181.8510  178.7120  144.0180 C   0  0  0  0  0  2  0  0  0  0  0  0
  182.4970  178.9460  142.6430 C   0  0  0  0  0  2  0  0  0  0  0  0
  180.4320  179.7130  141.7380 C   0  0  0  0  0  2  0  0  0  0  0  0
  179.8350  179.6470  143.1530 C   0  0  0  0  0  2  0  0  0  0  0  0
  1  3  1  0  0  0  0
  2  3  1  0  0  0  0
  3 12  1  1  0  0  0
  4  8  1  0  0  0  0
  5  4  1  0  0  0  0
  5 10  1  0  0  0  0
  6  2  1  0  0  0  0
  7  1  1  0  0  0  0
  8  6  2  0  0  0  0
  9  4  2  0  0  0  0
 10 24  1  1  0  0  0
 10 11  1  0  0  0  0
 11  6  1  0  0  0  0
 11  7  2  0  0  0  0
 12 16  1  0  0  0  0
 13 15  1  0  0  0  0
 13 14  1  0  0  0  0
 14 23  1  0  0  0  0
 15 22  1  0  0  0  0
 16 17  1  0  0  0  0
 17 20  2  0  0  0  0
 17 15  1  0  0  0  0
 21 18  1  1  0  0  0
 22 21  1  0  0  0  0
 23 21  1  0  0  0  0
 23 19  1  0  0  0  0
 24 32  1  1  0  0  0
 24 25  1  0  0  0  0
 26 25  1  0  0  0  0
 27 26  1  1  0  0  0
 27 30  1  0  0  0  0
 28 31  1  0  0  0  0
 28 27  1  0  0  0  0
 29 30  1  0  0  0  0
 31 29  1  0  0  0  0
 32 35  1  0  0  0  0
 33 34  1  0  0  0  0
 34 39  1  6  0  0  0
 35 38  1  0  0  0  0
 36 34  1  0  0  0  0
 37 33  1  0  0  0  0
 38 37  2  0  0  0  0
 38 36  1  0  0  0  0
 39 41  1  0  0  0  0
 40 42  1  0  0  0  0
 41 44  1  0  0  0  0
 41 43  1  0  0  0  0
 43 42  1  0  0  0  0
 44 45  1  0  0  0  0
 45 40  1  0  0  0  0
M  END
>  <MODEL>
2

>  <REMARK>
 VINA RESULT:      -8.2      2.769      7.287
  Name = 
  10 active torsions:
  status: ('A' for Active; 'I' for Inactive)
    1  A    between atoms: C_5  and  C_40
    2  A    between atoms: C_7  and  C_21
    3  A    between atoms: N_10  and  C_21
    4  A    between atoms: C_13  and  N_17
    5  A    between atoms: C_13  and  C_26
    6  A    between atoms: C_22  and  C_44
    7  A    between atoms: O_25  and  C_40
    8  A    between atoms: O_25  and  C_44
    9  A    between atoms: N_27  and  C_32
   10  A    between atoms: C_32  and  C_44
                            x       y       z     vdW  Elec       q    Type
                         _______ _______ _______ _____ _____    ______ ____

>  <TORSDO>
F 10

$$$$
=
 OpenBabel10222418143D

 45 50  0  0  1  0  0  0  0  0999 V2000
  186.5130  178.4590  141.9470 C   0  0  0  0  0  2  0  0  0  0  0  0
  187.2440  176.8510  143.7160 C   0  0  0  0  0  2  0  0  0  0  0  0
  186.5300  178.1750  143.4520 C   0  0  2  0  0  3  0  0  0  0  0  0
  190.9330  176.3090  143.2520 C   0  0  0  0  0  0  0  0  0  0  0  0
  191.2480  177.0490  142.0710 N   0  0  0  0  0  2  0  0  0  0  0  0
  188.6210  176.8900  143.1300 C   0  0  0  0  0  0  0  0  0  0  0  0
  187.9000  178.4260  141.3650 C   0  0  0  0  0  3  0  0  0  0  0  0
  189.5850  176.2610  143.7290 N   0  0  0  0  0  0  0  0  0  0  0  0
  191.8440  175.7200  143.8860 O   0  0  0  0  0  0  0  0  0  0  0  0
  190.2090  177.5990  141.1990 C   0  0  2  0  0  3  0  0  0  0  0  0
  188.8690  177.6640  141.8860 C   0  0  0  0  0  0  0  0  0  0  0  0
  185.1150  178.1040  144.0020 C   0  0  0  0  0  2  0  0  0  0  0  0
  182.1910  178.0520  140.7920 C   0  0  0  0  0  2  0  0  0  0  0  0
  181.7240  178.7700  139.5300 C   0  0  0  0  0  2  0  0  0  0  0  0
  181.9840  178.9220  141.9450 N   0  0  0  0  0  0  0  0  0  0  0  0
  184.1420  178.1810  142.9200 N   0  0  0  0  0  2  0  0  0  0  0  0
  182.9260  178.9290  143.0250 C   0  0  0  0  0  0  0  0  0  0  0  0
  178.9320  180.7370  140.8830 N   0  0  0  0  0  1  0  0  0  0  0  0
  180.0160  179.8430  138.5300 O   0  0  0  0  0  1  0  0  0  0  0  0
  182.6920  179.6080  144.0620 O   0  0  0  0  0  0  0  0  0  0  0  0
  180.2840  180.2140  140.7580 C   0  0  1  0  0  3  0  0  0  0  0  0
  180.6920  179.5850  142.0890 C   0  0  0  0  0  2  0  0  0  0  0  0
  180.3390  179.2140  139.6850 N   0  0  0  0  0  0  0  0  0  0  0  0
  190.1290  176.8320  139.8710 C   0  0  1  0  0  3  0  0  0  0  0  0
  189.0000  177.2220  139.1420 O   0  0  0  0  0  0  0  0  0  0  0  0
  189.4620  178.2110  138.2700 C   0  0  0  0  0  2  0  0  0  0  0  0
  188.4320  178.4690  137.1850 C   0  0  2  0  0  3  0  0  0  0  0  0
  186.8030  177.8760  137.7130 S   0  0  0  0  0  0  0  0  0  0  0  0
  187.6420  177.5920  135.2180 N   0  0  0  0  0  2  0  0  0  0  0  0
  188.8110  177.7530  135.9780 N   0  0  0  0  0  2  0  0  0  0  0  0
  186.6350  177.0500  136.1140 C   0  0  0  0  0  2  0  0  0  0  0  0
  191.3970  176.9310  139.0180 C   0  0  0  0  0  2  0  0  0  0  0  0
  194.7890  175.9300  136.6040 N   0  0  0  0  0  2  0  0  0  0  0  0
  194.6050  174.5150  136.3220 C   0  0  2  0  0  3  0  0  0  0  0  0
  191.7540  175.6370  138.4550 N   0  0  0  0  0  2  0  0  0  0  0  0
  193.3090  174.1520  137.0560 C   0  0  0  0  0  2  0  0  0  0  0  0
  193.7490  176.4070  137.3990 N   0  0  0  0  0  0  0  0  0  0  0  0
  192.9270  175.4550  137.6630 C   0  0  0  0  0  0  0  0  0  0  0  0
  195.7720  173.7270  136.8950 C   0  0  0  0  0  2  0  0  0  0  0  0
  198.1890  175.7480  139.4460 N   0  0  0  0  0  2  0  0  0  0  0  0
  196.5800  174.5770  137.7550 N   0  0  0  0  0  0  0  0  0  0  0  0
  197.1160  175.0220  140.1280 C   0  0  0  0  0  2  0  0  0  0  0  0
  196.2330  174.2460  139.1380 C   0  0  0  0  0  2  0  0  0  0  0  0
  197.9780  174.2090  137.5190 C   0  0  0  0  0  2  0  0  0  0  0  0
  198.9130  174.8250  138.5720 C   0  0  0  0  0  2  0  0  0  0  0  0
  1  3  1  0  0  0  0
  3  2  1  0  0  0  0
  3 12  1  6  0  0  0
  4  8  1  0  0  0  0
  4  9  2  0  0  0  0
  5  4  1  0  0  0  0
  6  2  1  0  0  0  0
  6  8  2  0  0  0  0
  7 11  2  0  0  0  0
  7  1  1  0  0  0  0
 10 24  1  6  0  0  0
 10 11  1  0  0  0  0
 10  5  1  0  0  0  0
 11  6  1  0  0  0  0
 13 15  1  0  0  0  0
 14 23  1  0  0  0  0
 14 13  1  0  0  0  0
 15 22  1  0  0  0  0
 15 17  1  0  0  0  0
 16 17  1  0  0  0  0
 16 12  1  0  0  0  0
 17 20  2  0  0  0  0
 19 23  1  0  0  0  0
 21 18  1  1  0  0  0
 21 22  1  0  0  0  0
 23 21  1  0  0  0  0
 24 32  1  6  0  0  0
 25 24  1  0  0  0  0
 26 25  1  0  0  0  0
 27 28  1  0  0  0  0
 27 26  1  1  0  0  0
 29 30  1  0  0  0  0
 29 31  1  0  0  0  0
 30 27  1  0  0  0  0
 31 28  1  0  0  0  0
 33 37  1  0  0  0  0
 34 33  1  0  0  0  0
 34 39  1  1  0  0  0
 34 36  1  0  0  0  0
 35 32  1  0  0  0  0
 36 38  1  0  0  0  0
 37 38  2  0  0  0  0
 38 35  1  0  0  0  0
 39 41  1  0  0  0  0
 40 42  1  0  0  0  0
 41 43  1  0  0  0  0
 43 42  1  0  0  0  0
 44 41  1  0  0  0  0
 44 45  1  0  0  0  0
 45 40  1  0  0  0  0
M  END
>  <MODEL>
3

>  <REMARK>
 VINA RESULT:      -8.0      4.541      9.086
  Name = 
  10 active torsions:
  status: ('A' for Active; 'I' for Inactive)
    1  A    between atoms: C_5  and  C_40
    2  A    between atoms: C_7  and  C_21
    3  A    between atoms: N_10  and  C_21
    4  A    between atoms: C_13  and  N_17
    5  A    between atoms: C_13  and  C_26
    6  A    between atoms: C_22  and  C_44
    7  A    between atoms: O_25  and  C_40
    8  A    between atoms: O_25  and  C_44
    9  A    between atoms: N_27  and  C_32
   10  A    between atoms: C_32  and  C_44
                            x       y       z     vdW  Elec       q    Type
                         _______ _______ _______ _____ _____    ______ ____

>  <TORSDO>
F 10

$$$$
=
 OpenBabel10222418143D

 45 50  0  0  1  0  0  0  0  0999 V2000
  182.7990  177.3080  140.5370 C   0  0  0  0  0  2  0  0  0  0  0  0
  185.0210  178.4430  140.6770 C   0  0  0  0  0  2  0  0  0  0  0  0
  183.5390  178.5560  141.0250 C   0  0  2  0  0  3  0  0  0  0  0  0
  186.3920  178.6100  137.1820 C   0  0  0  0  0  0  0  0  0  0  0  0
  185.4340  177.8970  136.3980 N   0  0  0  0  0  2  0  0  0  0  0  0
  185.1840  178.2260  139.2040 C   0  0  0  0  0  0  0  0  0  0  0  0
  183.0300  177.0690  139.0700 C   0  0  0  0  0  3  0  0  0  0  0  0
  186.2120  178.7310  138.5960 N   0  0  0  0  0  0  0  0  0  0  0  0
  187.3810  179.1510  136.6270 O   0  0  0  0  0  0  0  0  0  0  0  0
  184.3690  177.1000  137.0090 C   0  0  2  0  0  3  0  0  0  0  0  0
  184.1550  177.4550  138.4580 C   0  0  0  0  0  0  0  0  0  0  0  0
  183.3850  178.7200  142.5280 C   0  0  0  0  0  2  0  0  0  0  0  0
  187.2680  178.0890  144.3660 C   0  0  0  0  0  2  0  0  0  0  0  0
  188.1390  177.0780  145.1030 C   0  0  0  0  0  2  0  0  0  0  0  0
  186.1200  178.4330  145.1990 N   0  0  0  0  0  0  0  0  0  0  0  0
  184.6460  178.4460  143.2040 N   0  0  0  0  0  2  0  0  0  0  0  0
  184.8390  178.6720  144.6040 C   0  0  0  0  0  0  0  0  0  0  0  0
  187.6340  178.1740  148.5730 N   0  0  0  0  0  1  0  0  0  0  0  0
  189.2690  176.6350  147.0010 O   0  0  0  0  0  1  0  0  0  0  0  0
  183.8750  179.0650  145.3170 O   0  0  0  0  0  0  0  0  0  0  0  0
  187.2920  177.7380  147.2270 C   0  0  1  0  0  3  0  0  0  0  0  0
  186.3580  178.7710  146.5990 C   0  0  0  0  0  2  0  0  0  0  0  0
  188.5090  177.5950  146.4200 N   0  0  0  0  0  0  0  0  0  0  0  0
  184.6200  175.5960  136.8240 C   0  0  1  0  0  3  0  0  0  0  0  0
  183.5130  174.9790  136.2330 O   0  0  0  0  0  0  0  0  0  0  0  0
  183.1970  173.9180  137.0850 C   0  0  0  0  0  2  0  0  0  0  0  0
  181.7830  173.4360  136.8140 C   0  0  2  0  0  3  0  0  0  0  0  0
  180.5900  174.4450  137.7310 S   0  0  0  0  0  0  0  0  0  0  0  0
  180.2810  171.8290  137.4650 N   0  0  0  0  0  2  0  0  0  0  0  0
  181.6500  172.0570  137.2520 N   0  0  0  0  0  2  0  0  0  0  0  0
  179.8030  172.9200  138.2970 C   0  0  0  0  0  2  0  0  0  0  0  0
  185.9060  175.2680  136.0610 C   0  0  0  0  0  2  0  0  0  0  0  0
  190.0060  176.4840  135.8300 N   0  0  0  0  0  2  0  0  0  0  0  0
  190.6170  175.8540  136.9890 C   0  0  2  0  0  3  0  0  0  0  0  0
  186.9940  174.9530  136.9750 N   0  0  0  0  0  2  0  0  0  0  0  0
  189.4590  175.1140  137.6680 C   0  0  0  0  0  2  0  0  0  0  0  0
  188.6470  176.1810  135.7710 N   0  0  0  0  0  0  0  0  0  0  0  0
  188.3210  175.4350  136.7660 C   0  0  0  0  0  0  0  0  0  0  0  0
  191.1720  176.9240  137.9150 C   0  0  0  0  0  2  0  0  0  0  0  0
  189.4990  177.0940  141.6040 N   0  0  0  0  0  2  0  0  0  0  0  0
  190.5350  176.8420  139.2200 N   0  0  0  0  0  0  0  0  0  0  0  0
  190.9620  177.1680  141.6350 C   0  0  0  0  0  2  0  0  0  0  0  0
  191.5640  177.1260  140.2210 C   0  0  0  0  0  2  0  0  0  0  0  0
  189.5280  177.9040  139.2650 C   0  0  0  0  0  2  0  0  0  0  0  0
  188.9860  178.1130  140.6890 C   0  0  0  0  0  2  0  0  0  0  0  0
  1  3  1  0  0  0  0
  2  3  1  0  0  0  0
  3 12  1  1  0  0  0
  4  8  1  0  0  0  0
  5 10  1  0  0  0  0
  5  4  1  0  0  0  0
  6  2  1  0  0  0  0
  7  1  1  0  0  0  0
  8  6  2  0  0  0  0
  9  4  2  0  0  0  0
 10 24  1  1  0  0  0
 10 11  1  0  0  0  0
 11  7  2  0  0  0  0
 11  6  1  0  0  0  0
 12 16  1  0  0  0  0
 13 14  1  0  0  0  0
 13 15  1  0  0  0  0
 14 23  1  0  0  0  0
 15 22  1  0  0  0  0
 16 17  1  0  0  0  0
 17 15  1  0  0  0  0
 17 20  2  0  0  0  0
 21 18  1  1  0  0  0
 22 21  1  0  0  0  0
 23 19  1  0  0  0  0
 23 21  1  0  0  0  0
 24 32  1  6  0  0  0
 25 24  1  0  0  0  0
 25 26  1  0  0  0  0
 27 26  1  1  0  0  0
 27 30  1  0  0  0  0
 27 28  1  0  0  0  0
 28 31  1  0  0  0  0
 29 31  1  0  0  0  0
 30 29  1  0  0  0  0
 32 35  1  0  0  0  0
 33 34  1  0  0  0  0
 34 36  1  0  0  0  0
 34 39  1  1  0  0  0
 37 33  1  0  0  0  0
 37 38  2  0  0  0  0
 38 35  1  0  0  0  0
 38 36  1  0  0  0  0
 39 41  1  0  0  0  0
 40 42  1  0  0  0  0
 41 44  1  0  0  0  0
 41 43  1  0  0  0  0
 43 42  1  0  0  0  0
 44 45  1  0  0  0  0
 45 40  1  0  0  0  0
M  END
>  <MODEL>
4

>  <REMARK>
 VINA RESULT:      -7.6      2.766      4.826
  Name = 
  10 active torsions:
  status: ('A' for Active; 'I' for Inactive)
    1  A    between atoms: C_5  and  C_40
    2  A    between atoms: C_7  and  C_21
    3  A    between atoms: N_10  and  C_21
    4  A    between atoms: C_13  and  N_17
    5  A    between atoms: C_13  and  C_26
    6  A    between atoms: C_22  and  C_44
    7  A    between atoms: O_25  and  C_40
    8  A    between atoms: O_25  and  C_44
    9  A    between atoms: N_27  and  C_32
   10  A    between atoms: C_32  and  C_44
                            x       y       z     vdW  Elec       q    Type
                         _______ _______ _______ _____ _____    ______ ____

>  <TORSDO>
F 10

$$$$
=
 OpenBabel10222418143D

 45 50  0  0  1  0  0  0  0  0999 V2000
  186.2300  174.5390  136.9100 C   0  0  0  0  0  2  0  0  0  0  0  0
  185.6200  176.8610  137.6050 C   0  0  0  0  0  2  0  0  0  0  0  0
  185.2950  175.7210  136.6420 C   0  0  2  0  0  3  0  0  0  0  0  0
  188.7650  178.9110  137.4700 C   0  0  0  0  0  0  0  0  0  0  0  0
  189.7840  177.9660  137.1380 N   0  0  0  0  0  2  0  0  0  0  0  0
  187.0640  177.2390  137.4790 C   0  0  0  0  0  0  0  0  0  0  0  0
  187.6750  174.9540  136.8450 C   0  0  0  0  0  3  0  0  0  0  0  0
  187.4130  178.4780  137.6380 N   0  0  0  0  0  0  0  0  0  0  0  0
  189.0540  180.1290  137.5920 O   0  0  0  0  0  0  0  0  0  0  0  0
  189.5410  176.5230  137.1620 C   0  0  2  0  0  3  0  0  0  0  0  0
  188.0700  176.1950  137.1510 C   0  0  0  0  0  0  0  0  0  0  0  0
  183.8430  175.3090  136.8200 C   0  0  0  0  0  2  0  0  0  0  0  0
  181.2710  178.6380  137.8980 C   0  0  0  0  0  2  0  0  0  0  0  0
  181.2380  180.0180  138.5460 C   0  0  0  0  0  2  0  0  0  0  0  0
  181.6270  177.6430  138.9050 N   0  0  0  0  0  0  0  0  0  0  0  0
  183.0400  176.4440  137.2540 N   0  0  0  0  0  2  0  0  0  0  0  0
  182.4520  176.5240  138.5570 C   0  0  0  0  0  0  0  0  0  0  0  0
  180.0690  179.1400  141.9160 N   0  0  0  0  0  1  0  0  0  0  0  0
  180.3820  181.2660  140.2140 O   0  0  0  0  0  1  0  0  0  0  0  0
  182.6750  175.6160  139.4050 O   0  0  0  0  0  0  0  0  0  0  0  0
  180.8940  179.1070  140.7180 C   0  0  1  0  0  3  0  0  0  0  0  0
  180.9310  177.6750  140.1870 C   0  0  0  0  0  2  0  0  0  0  0  0
  180.3430  180.0120  139.7030 N   0  0  0  0  0  0  0  0  0  0  0  0
  190.2620  175.8530  138.3410 C   0  0  1  0  0  3  0  0  0  0  0  0
  191.2530  174.9780  137.8830 O   0  0  0  0  0  0  0  0  0  0  0  0
  192.4470  175.6920  138.0060 C   0  0  0  0  0  2  0  0  0  0  0  0
  193.1560  175.7560  136.6650 C   0  0  2  0  0  3  0  0  0  0  0  0
  193.7600  174.1130  136.1980 S   0  0  0  0  0  0  0  0  0  0  0  0
  195.1800  176.2980  135.7320 N   0  0  0  0  0  2  0  0  0  0  0  0
  194.2950  176.6530  136.7630 N   0  0  0  0  0  2  0  0  0  0  0  0
  195.3610  174.8590  135.8160 C   0  0  0  0  0  2  0  0  0  0  0  0
  190.8300  176.8400  139.3650 C   0  0  0  0  0  2  0  0  0  0  0  0
  187.8500  178.5950  141.8900 N   0  0  0  0  0  2  0  0  0  0  0  0
  187.9460  177.8270  143.1200 C   0  0  2  0  0  3  0  0  0  0  0  0
  190.4590  176.4620  140.7210 N   0  0  0  0  0  2  0  0  0  0  0  0
  189.0480  176.8000  142.8360 C   0  0  0  0  0  2  0  0  0  0  0  0
  188.7690  178.1290  140.9520 N   0  0  0  0  0  0  0  0  0  0  0  0
  189.4370  177.1460  141.4430 C   0  0  0  0  0  0  0  0  0  0  0  0
  186.6250  177.1220  143.3840 C   0  0  0  0  0  2  0  0  0  0  0  0
  185.3480  178.5450  146.9580 N   0  0  0  0  0  2  0  0  0  0  0  0
  186.1030  177.5000  144.6870 N   0  0  0  0  0  0  0  0  0  0  0  0
  186.7970  178.3380  146.9090 C   0  0  0  0  0  2  0  0  0  0  0  0
  187.2530  177.8230  145.5350 C   0  0  0  0  0  2  0  0  0  0  0  0
  185.3090  178.7140  144.4880 C   0  0  0  0  0  2  0  0  0  0  0  0
  184.9440  179.3790  145.8260 C   0  0  0  0  0  2  0  0  0  0  0  0
  3 12  1  1  0  0  0
  3  1  1  0  0  0  0
  3  2  1  0  0  0  0
  4  9  2  0  0  0  0
  4  8  1  0  0  0  0
  5 10  1  0  0  0  0
  5  4  1  0  0  0  0
  6  2  1  0  0  0  0
  6  8  2  0  0  0  0
  7  1  1  0  0  0  0
  7 11  2  0  0  0  0
 10 24  1  1  0  0  0
 11 10  1  0  0  0  0
 11  6  1  0  0  0  0
 12 16  1  0  0  0  0
 13 14  1  0  0  0  0
 13 15  1  0  0  0  0
 14 23  1  0  0  0  0
 15 22  1  0  0  0  0
 16 17  1  0  0  0  0
 17 15  1  0  0  0  0
 17 20  2  0  0  0  0
 21 18  1  1  0  0  0
 22 21  1  0  0  0  0
 23 19  1  0  0  0  0
 23 21  1  0  0  0  0
 24 32  1  1  0  0  0
 25 26  1  0  0  0  0
 25 24  1  0  0  0  0
 27 30  1  0  0  0  0
 27 26  1  1  0  0  0
 28 27  1  0  0  0  0
 29 31  1  0  0  0  0
 29 30  1  0  0  0  0
 31 28  1  0  0  0  0
 32 35  1  0  0  0  0
 33 34  1  0  0  0  0
 34 39  1  6  0  0  0
 35 38  1  0  0  0  0
 36 34  1  0  0  0  0
 37 38  2  0  0  0  0
 37 33  1  0  0  0  0
 38 36  1  0  0  0  0
 39 41  1  0  0  0  0
 41 43  1  0  0  0  0
 42 40  1  0  0  0  0
 43 42  1  0  0  0  0
 44 41  1  0  0  0  0
 44 45  1  0  0  0  0
 45 40  1  0  0  0  0
M  END
>  <MODEL>
5

>  <REMARK>
 VINA RESULT:      -7.5      3.934     10.471
  Name = 
  10 active torsions:
  status: ('A' for Active; 'I' for Inactive)
    1  A    between atoms: C_5  and  C_40
    2  A    between atoms: C_7  and  C_21
    3  A    between atoms: N_10  and  C_21
    4  A    between atoms: C_13  and  N_17
    5  A    between atoms: C_13  and  C_26
    6  A    between atoms: C_22  and  C_44
    7  A    between atoms: O_25  and  C_40
    8  A    between atoms: O_25  and  C_44
    9  A    between atoms: N_27  and  C_32
   10  A    between atoms: C_32  and  C_44
                            x       y       z     vdW  Elec       q    Type
                         _______ _______ _______ _____ _____    ______ ____

>  <TORSDO>
F 10

$$$$
=
 OpenBabel10222418143D

 45 50  0  0  1  0  0  0  0  0999 V2000
  188.7840  173.0960  136.3860 C   0  0  0  0  0  2  0  0  0  0  0  0
  186.9160  174.6630  136.9350 C   0  0  0  0  0  2  0  0  0  0  0  0
  187.3950  173.5830  135.9670 C   0  0  2  0  0  3  0  0  0  0  0  0
  188.4020  178.1060  137.1640 C   0  0  0  0  0  0  0  0  0  0  0  0
  189.8050  177.8930  136.9940 N   0  0  0  0  0  2  0  0  0  0  0  0
  187.9160  175.7770  136.9900 C   0  0  0  0  0  0  0  0  0  0  0  0
  189.7570  174.2380  136.5010 C   0  0  0  0  0  3  0  0  0  0  0  0
  187.5030  176.9940  137.1620 N   0  0  0  0  0  0  0  0  0  0  0  0
  187.9550  179.2750  137.2910 O   0  0  0  0  0  0  0  0  0  0  0  0
  190.3950  176.5540  137.0220 C   0  0  2  0  0  3  0  0  0  0  0  0
  189.3620  175.4750  136.8250 C   0  0  0  0  0  0  0  0  0  0  0  0
  186.4000  172.4340  135.9620 C   0  0  0  0  0  2  0  0  0  0  0  0
  182.4100  174.0580  136.5050 C   0  0  0  0  0  2  0  0  0  0  0  0
  181.3400  174.3930  137.5380 C   0  0  0  0  0  2  0  0  0  0  0  0
  182.6040  172.6120  136.4640 N   0  0  0  0  0  0  0  0  0  0  0  0
  185.0530  172.9230  136.2210 N   0  0  0  0  0  2  0  0  0  0  0  0
  183.9100  172.0620  136.2570 C   0  0  0  0  0  0  0  0  0  0  0  0
  179.1650  171.4490  137.2160 N   0  0  0  0  0  1  0  0  0  0  0  0
  179.2290  173.9990  138.2180 O   0  0  0  0  0  1  0  0  0  0  0  0
  184.0570  170.8150  136.1250 O   0  0  0  0  0  0  0  0  0  0  0  0
  180.3870  172.2150  137.4120 C   0  0  1  0  0  3  0  0  0  0  0  0
  181.4230  171.7580  136.3870 C   0  0  0  0  0  2  0  0  0  0  0  0
  180.1130  173.6480  137.2540 N   0  0  0  0  0  0  0  0  0  0  0  0
  191.2130  176.3300  138.3020 C   0  0  1  0  0  3  0  0  0  0  0  0
  192.5790  176.4940  138.0520 O   0  0  0  0  0  0  0  0  0  0  0  0
  193.0420  175.2120  137.7430 C   0  0  0  0  0  2  0  0  0  0  0  0
  193.9140  175.2600  136.5000 C   0  0  2  0  0  3  0  0  0  0  0  0
  195.2060  173.9940  136.5920 S   0  0  0  0  0  0  0  0  0  0  0  0
  195.6870  176.4000  135.5980 N   0  0  0  0  0  2  0  0  0  0  0  0
  194.5520  176.5620  136.4070 N   0  0  0  0  0  2  0  0  0  0  0  0
  196.4120  175.2550  136.1220 C   0  0  0  0  0  2  0  0  0  0  0  0
  190.7630  177.1900  139.4870 C   0  0  0  0  0  2  0  0  0  0  0  0
  189.1300  178.3750  143.2640 N   0  0  0  0  0  2  0  0  0  0  0  0
  189.2080  177.1660  144.0660 C   0  0  2  0  0  3  0  0  0  0  0  0
  190.5690  176.3800  140.6810 N   0  0  0  0  0  2  0  0  0  0  0  0
  189.8150  176.1250  143.1190 C   0  0  0  0  0  2  0  0  0  0  0  0
  189.6280  178.1430  141.9830 N   0  0  0  0  0  0  0  0  0  0  0  0
  190.0080  176.9190  141.8760 C   0  0  0  0  0  0  0  0  0  0  0  0
  187.8090  176.7430  144.4850 C   0  0  0  0  0  2  0  0  0  0  0  0
  185.4290  179.6740  145.9600 N   0  0  0  0  0  2  0  0  0  0  0  0
  187.0600  177.8910  144.9720 N   0  0  0  0  0  0  0  0  0  0  0  0
  184.8880  179.0530  144.7490 C   0  0  0  0  0  2  0  0  0  0  0  0
  185.7990  177.9300  144.2290 C   0  0  0  0  0  2  0  0  0  0  0  0
  186.7670  177.6350  146.3840 C   0  0  0  0  0  2  0  0  0  0  0  0
  185.7350  178.6310  146.9390 C   0  0  0  0  0  2  0  0  0  0  0  0
  1  7  1  0  0  0  0
  2  6  1  0  0  0  0
  3 12  1  1  0  0  0
  3  1  1  0  0  0  0
  3  2  1  0  0  0  0
  4  9  2  0  0  0  0
  5 10  1  0  0  0  0
  5  4  1  0  0  0  0
  6  8  2  0  0  0  0
  7 11  2  0  0  0  0
  8  4  1  0  0  0  0
 10 24  1  1  0  0  0
 11  6  1  0  0  0  0
 11 10  1  0  0  0  0
 12 16  1  0  0  0  0
 13 14  1  0  0  0  0
 15 13  1  0  0  0  0
 16 17  1  0  0  0  0
 17 15  1  0  0  0  0
 20 17  2  0  0  0  0
 21 18  1  6  0  0  0
 22 15  1  0  0  0  0
 22 21  1  0  0  0  0
 23 21  1  0  0  0  0
 23 14  1  0  0  0  0
 23 19  1  0  0  0  0
 24 32  1  1  0  0  0
 25 24  1  0  0  0  0
 26 25  1  0  0  0  0
 27 28  1  0  0  0  0
 27 26  1  1  0  0  0
 29 31  1  0  0  0  0
 29 30  1  0  0  0  0
 30 27  1  0  0  0  0
 31 28  1  0  0  0  0
 32 35  1  0  0  0  0
 33 34  1  0  0  0  0
 34 39  1  6  0  0  0
 35 38  1  0  0  0  0
 36 34  1  0  0  0  0
 37 33  1  0  0  0  0
 38 37  2  0  0  0  0
 38 36  1  0  0  0  0
 39 41  1  0  0  0  0
 40 45  1  0  0  0  0
 41 44  1  0  0  0  0
 42 40  1  0  0  0  0
 43 42  1  0  0  0  0
 43 41  1  0  0  0  0
 44 45  1  0  0  0  0
M  END
>  <MODEL>
6

>  <REMARK>
 VINA RESULT:      -7.2      4.693     11.578
  Name = 
  10 active torsions:
  status: ('A' for Active; 'I' for Inactive)
    1  A    between atoms: C_5  and  C_40
    2  A    between atoms: C_7  and  C_21
    3  A    between atoms: N_10  and  C_21
    4  A    between atoms: C_13  and  N_17
    5  A    between atoms: C_13  and  C_26
    6  A    between atoms: C_22  and  C_44
    7  A    between atoms: O_25  and  C_40
    8  A    between atoms: O_25  and  C_44
    9  A    between atoms: N_27  and  C_32
   10  A    between atoms: C_32  and  C_44
                            x       y       z     vdW  Elec       q    Type
                         _______ _______ _______ _____ _____    ______ ____

>  <TORSDO>
F 10

$$$$
=
 OpenBabel10222418143D

 45 50  0  0  1  0  0  0  0  0999 V2000
  183.8890  178.2220  140.2410 C   0  0  0  0  0  2  0  0  0  0  0  0
  183.5410  179.1500  142.5360 C   0  0  0  0  0  2  0  0  0  0  0  0
  184.4140  178.2340  141.6790 C   0  0  2  0  0  3  0  0  0  0  0  0
  179.9910  178.3890  143.5010 C   0  0  0  0  0  0  0  0  0  0  0  0
  179.4330  177.7860  142.3320 N   0  0  0  0  0  2  0  0  0  0  0  0
  182.1110  178.7110  142.4560 C   0  0  0  0  0  0  0  0  0  0  0  0
  182.4340  177.8450  140.1890 C   0  0  0  0  0  3  0  0  0  0  0  0
  181.3460  178.8440  143.4960 N   0  0  0  0  0  0  0  0  0  0  0  0
  179.2960  178.4990  144.5440 O   0  0  0  0  0  0  0  0  0  0  0  0
  180.1300  177.7970  141.0460 C   0  0  2  0  0  3  0  0  0  0  0  0
  181.5960  178.1100  141.1980 C   0  0  0  0  0  0  0  0  0  0  0  0
  185.8520  178.7230  141.7230 C   0  0  0  0  0  2  0  0  0  0  0  0
  187.5140  177.4230  145.5190 C   0  0  0  0  0  2  0  0  0  0  0  0
  188.3310  177.8630  146.7280 C   0  0  0  0  0  2  0  0  0  0  0  0
  188.3590  177.4510  144.3300 N   0  0  0  0  0  0  0  0  0  0  0  0
  186.4790  178.3510  142.9840 N   0  0  0  0  0  2  0  0  0  0  0  0
  187.8180  177.8510  143.0650 C   0  0  0  0  0  0  0  0  0  0  0  0
  191.6340  176.5420  145.8100 N   0  0  0  0  0  1  0  0  0  0  0  0
  190.1980  177.5060  147.9370 O   0  0  0  0  0  1  0  0  0  0  0  0
  188.5270  177.7790  142.0240 O   0  0  0  0  0  0  0  0  0  0  0  0
  190.3890  177.2840  145.6800 C   0  0  1  0  0  3  0  0  0  0  0  0
  189.6790  176.8330  144.4050 C   0  0  0  0  0  2  0  0  0  0  0  0
  189.5360  177.0420  146.8500 N   0  0  0  0  0  0  0  0  0  0  0  0
  179.4480  178.7430  140.0470 C   0  0  1  0  0  3  0  0  0  0  0  0
  180.2210  179.8920  139.8460 O   0  0  0  0  0  0  0  0  0  0  0  0
  179.8700  180.3410  138.5710 C   0  0  0  0  0  2  0  0  0  0  0  0
  180.0290  181.8490  138.4890 C   0  0  2  0  0  3  0  0  0  0  0  0
  179.0410  182.5100  137.1220 S   0  0  0  0  0  0  0  0  0  0  0  0
  181.4490  183.4590  137.6810 N   0  0  0  0  0  2  0  0  0  0  0  0
  181.4250  182.1740  138.2460 N   0  0  0  0  0  2  0  0  0  0  0  0
  180.4890  183.4510  136.5900 C   0  0  0  0  0  2  0  0  0  0  0  0
  179.0840  178.0840  138.7140 C   0  0  0  0  0  2  0  0  0  0  0  0
  181.6690  175.7540  136.2180 N   0  0  0  0  0  2  0  0  0  0  0  0
  181.4820  174.3960  136.7030 C   0  0  2  0  0  3  0  0  0  0  0  0
  179.3250  176.6490  138.7540 N   0  0  0  0  0  2  0  0  0  0  0  0
  180.4770  174.5420  137.8500 C   0  0  0  0  0  2  0  0  0  0  0  0
  180.8850  176.6440  136.9490 N   0  0  0  0  0  0  0  0  0  0  0  0
  180.2230  176.0080  137.8490 C   0  0  0  0  0  0  0  0  0  0  0  0
  182.8030  173.8570  137.2260 C   0  0  0  0  0  2  0  0  0  0  0  0
  184.3200  170.7200  135.1540 N   0  0  0  0  0  2  0  0  0  0  0  0
  183.2940  172.7960  136.3600 N   0  0  0  0  0  0  0  0  0  0  0  0
  185.3550  171.6010  135.6990 C   0  0  0  0  0  2  0  0  0  0  0  0
  184.7510  172.7650  136.4990 C   0  0  0  0  0  2  0  0  0  0  0  0
  182.7440  171.5420  136.8780 C   0  0  0  0  0  2  0  0  0  0  0  0
  183.4160  170.3180  136.2320 C   0  0  0  0  0  2  0  0  0  0  0  0
  1  3  1  0  0  0  0
  3 12  1  6  0  0  0
  3  2  1  0  0  0  0
  4  9  2  0  0  0  0
  5  4  1  0  0  0  0
  6  2  1  0  0  0  0
  6  8  2  0  0  0  0
  7  1  1  0  0  0  0
  7 11  2  0  0  0  0
  8  4  1  0  0  0  0
 10 24  1  6  0  0  0
 10 11  1  0  0  0  0
 10  5  1  0  0  0  0
 11  6  1  0  0  0  0
 12 16  1  0  0  0  0
 13 14  1  0  0  0  0
 14 23  1  0  0  0  0
 15 22  1  0  0  0  0
 15 13  1  0  0  0  0
 16 17  1  0  0  0  0
 17 15  1  0  0  0  0
 20 17  2  0  0  0  0
 21 18  1  1  0  0  0
 21 23  1  0  0  0  0
 22 21  1  0  0  0  0
 23 19  1  0  0  0  0
 24 32  1  6  0  0  0
 25 24  1  0  0  0  0
 26 25  1  0  0  0  0
 27 26  1  6  0  0  0
 28 27  1  0  0  0  0
 29 30  1  0  0  0  0
 30 27  1  0  0  0  0
 31 28  1  0  0  0  0
 31 29  1  0  0  0  0
 32 35  1  0  0  0  0
 33 34  1  0  0  0  0
 33 37  1  0  0  0  0
 34 39  1  1  0  0  0
 34 36  1  0  0  0  0
 37 38  2  0  0  0  0
 38 36  1  0  0  0  0
 38 35  1  0  0  0  0
 40 42  1  0  0  0  0
 40 45  1  0  0  0  0
 41 43  1  0  0  0  0
 41 44  1  0  0  0  0
 41 39  1  0  0  0  0
 42 43  1  0  0  0  0
 45 44  1  0  0  0  0
M  END
>  <MODEL>
7

>  <REMARK>
 VINA RESULT:      -7.0      2.973      4.743
  Name = 
  10 active torsions:
  status: ('A' for Active; 'I' for Inactive)
    1  A    between atoms: C_5  and  C_40
    2  A    between atoms: C_7  and  C_21
    3  A    between atoms: N_10  and  C_21
    4  A    between atoms: C_13  and  N_17
    5  A    between atoms: C_13  and  C_26
    6  A    between atoms: C_22  and  C_44
    7  A    between atoms: O_25  and  C_40
    8  A    between atoms: O_25  and  C_44
    9  A    between atoms: N_27  and  C_32
   10  A    between atoms: C_32  and  C_44
                            x       y       z     vdW  Elec       q    Type
                         _______ _______ _______ _____ _____    ______ ____

>  <TORSDO>
F 10

$$$$
=
 OpenBabel10222418143D

 45 50  0  0  1  0  0  0  0  0999 V2000
  189.4400  177.8880  140.6570 C   0  0  0  0  0  2  0  0  0  0  0  0
  191.3260  176.3570  140.0660 C   0  0  0  0  0  2  0  0  0  0  0  0
  190.9400  177.6290  140.8200 C   0  0  2  0  0  3  0  0  0  0  0  0
  191.3560  176.0460  136.3220 C   0  0  0  0  0  0  0  0  0  0  0  0
  190.2090  176.7860  135.9010 N   0  0  0  0  0  2  0  0  0  0  0  0
  190.9220  176.4750  138.6290 C   0  0  0  0  0  0  0  0  0  0  0  0
  189.0440  177.9360  139.2060 C   0  0  0  0  0  3  0  0  0  0  0  0
  191.6550  175.9180  137.7150 N   0  0  0  0  0  0  0  0  0  0  0  0
  192.1160  175.5250  135.4660 O   0  0  0  0  0  0  0  0  0  0  0  0
  189.1980  177.2560  136.8490 C   0  0  2  0  0  3  0  0  0  0  0  0
  189.7030  177.2450  138.2690 C   0  0  0  0  0  0  0  0  0  0  0  0
  191.3040  177.4750  142.2870 C   0  0  0  0  0  2  0  0  0  0  0  0
  187.6510  177.3830  144.6340 C   0  0  0  0  0  2  0  0  0  0  0  0
  186.6270  178.2450  145.3650 C   0  0  0  0  0  2  0  0  0  0  0  0
  188.9410  177.4940  145.3070 N   0  0  0  0  0  0  0  0  0  0  0  0
  190.1080  177.5240  143.1170 N   0  0  0  0  0  2  0  0  0  0  0  0
  190.1560  177.4970  144.5480 C   0  0  0  0  0  0  0  0  0  0  0  0
  187.8360  177.9230  148.8190 N   0  0  0  0  0  1  0  0  0  0  0  0
  185.6570  178.6960  147.3470 O   0  0  0  0  0  1  0  0  0  0  0  0
  191.2710  177.4940  145.1400 O   0  0  0  0  0  0  0  0  0  0  0  0
  187.8760  178.1970  147.3900 C   0  0  1  0  0  3  0  0  0  0  0  0
  188.9790  177.3500  146.7590 C   0  0  0  0  0  2  0  0  0  0  0  0
  186.5800  177.8810  146.7810 N   0  0  0  0  0  0  0  0  0  0  0  0
  187.8880  176.4660  136.7070 C   0  0  1  0  0  3  0  0  0  0  0  0
  187.2290  176.8090  135.5220 O   0  0  0  0  0  0  0  0  0  0  0  0
  186.3900  177.8700  135.8730 C   0  0  0  0  0  2  0  0  0  0  0  0
  185.8940  177.6910  137.2970 C   0  0  2  0  0  3  0  0  0  0  0  0
  184.1560  177.1800  137.2960 S   0  0  0  0  0  0  0  0  0  0  0  0
  185.0980  178.8930  139.0810 N   0  0  0  0  0  2  0  0  0  0  0  0
  186.0000  178.9550  138.0070 N   0  0  0  0  0  2  0  0  0  0  0  0
  183.8260  178.4570  138.5310 C   0  0  0  0  0  2  0  0  0  0  0  0
  188.0600  174.9490  136.8230 C   0  0  0  0  0  2  0  0  0  0  0  0
  184.2240  173.1470  137.4310 N   0  0  0  0  0  2  0  0  0  0  0  0
  183.8970  172.5860  136.1300 C   0  0  2  0  0  3  0  0  0  0  0  0
  187.2270  174.2500  135.8550 N   0  0  0  0  0  2  0  0  0  0  0  0
  185.0950  172.9600  135.2490 C   0  0  0  0  0  2  0  0  0  0  0  0
  185.4630  173.7830  137.3900 N   0  0  0  0  0  0  0  0  0  0  0  0
  185.9600  173.6970  136.2080 C   0  0  0  0  0  0  0  0  0  0  0  0
  182.6300  173.2370  135.6000 C   0  0  0  0  0  2  0  0  0  0  0  0
  179.8280  170.3090  135.5170 N   0  0  0  0  0  2  0  0  0  0  0  0
  181.5820  172.2420  135.4390 N   0  0  0  0  0  0  0  0  0  0  0  0
  181.1920  169.8010  135.3520 C   0  0  0  0  0  2  0  0  0  0  0  0
  182.2320  170.9310  135.4130 C   0  0  0  0  0  2  0  0  0  0  0  0
  180.7350  172.3250  136.6310 C   0  0  0  0  0  2  0  0  0  0  0  0
  179.7660  171.1350  136.7230 C   0  0  0  0  0  2  0  0  0  0  0  0
  1  3  1  0  0  0  0
  2  3  1  0  0  0  0
  3 12  1  1  0  0  0
  4  8  1  0  0  0  0
  5  4  1  0  0  0  0
  5 10  1  0  0  0  0
  6  2  1  0  0  0  0
  7  1  1  0  0  0  0
  8  6  2  0  0  0  0
  9  4  2  0  0  0  0
 10 24  1  1  0  0  0
 10 11  1  0  0  0  0
 11  6  1  0  0  0  0
 11  7  2  0  0  0  0
 12 16  1  0  0  0  0
 13 15  1  0  0  0  0
 13 14  1  0  0  0  0
 14 23  1  0  0  0  0
 15 22  1  0  0  0  0
 16 17  1  0  0  0  0
 17 20  2  0  0  0  0
 17 15  1  0  0  0  0
 21 18  1  1  0  0  0
 22 21  1  0  0  0  0
 23 19  1  0  0  0  0
 23 21  1  0  0  0  0
 24 32  1  6  0  0  0
 25 26  1  0  0  0  0
 25 24  1  0  0  0  0
 27 26  1  6  0  0  0
 27 30  1  0  0  0  0
 28 27  1  0  0  0  0
 28 31  1  0  0  0  0
 30 29  1  0  0  0  0
 31 29  1  0  0  0  0
 34 39  1  6  0  0  0
 34 33  1  0  0  0  0
 35 38  1  0  0  0  0
 35 32  1  0  0  0  0
 36 34  1  0  0  0  0
 36 38  1  0  0  0  0
 37 33  1  0  0  0  0
 38 37  2  0  0  0  0
 40 45  1  0  0  0  0
 41 39  1  0  0  0  0
 41 44  1  0  0  0  0
 42 43  1  0  0  0  0
 42 40  1  0  0  0  0
 43 41  1  0  0  0  0
 44 45  1  0  0  0  0
M  END
>  <MODEL>
8

>  <REMARK>
 VINA RESULT:      -7.0      3.486      6.750
  Name = 
  10 active torsions:
  status: ('A' for Active; 'I' for Inactive)
    1  A    between atoms: C_5  and  C_40
    2  A    between atoms: C_7  and  C_21
    3  A    between atoms: N_10  and  C_21
    4  A    between atoms: C_13  and  N_17
    5  A    between atoms: C_13  and  C_26
    6  A    between atoms: C_22  and  C_44
    7  A    between atoms: O_25  and  C_40
    8  A    between atoms: O_25  and  C_44
    9  A    between atoms: N_27  and  C_32
   10  A    between atoms: C_32  and  C_44
                            x       y       z     vdW  Elec       q    Type
                         _______ _______ _______ _____ _____    ______ ____

>  <TORSDO>
F 10

$$$$
=
 OpenBabel10222418143D

 45 50  0  0  1  0  0  0  0  0999 V2000
  190.8360  176.3660  139.0080 C   0  0  0  0  0  2  0  0  0  0  0  0
  192.5010  177.6380  140.3720 C   0  0  0  0  0  2  0  0  0  0  0  0
  192.3160  176.4910  139.3810 C   0  0  2  0  0  3  0  0  0  0  0  0
  191.2830  177.5810  143.9260 C   0  0  0  0  0  0  0  0  0  0  0  0
  190.0180  176.9210  143.8500 N   0  0  0  0  0  2  0  0  0  0  0  0
  191.6280  177.4230  141.5700 C   0  0  0  0  0  0  0  0  0  0  0  0
  189.9710  176.2180  140.2300 C   0  0  0  0  0  3  0  0  0  0  0  0
  192.0420  177.8130  142.7360 N   0  0  0  0  0  0  0  0  0  0  0  0
  191.7390  177.9380  145.0410 O   0  0  0  0  0  0  0  0  0  0  0  0
  189.3600  176.6480  142.5720 C   0  0  2  0  0  3  0  0  0  0  0  0
  190.3150  176.7460  141.4100 C   0  0  0  0  0  0  0  0  0  0  0  0
  193.1630  176.7490  138.1460 C   0  0  0  0  0  2  0  0  0  0  0  0
  194.2950  173.1460  136.0040 C   0  0  0  0  0  2  0  0  0  0  0  0
  194.1460  171.6280  135.9670 C   0  0  0  0  0  2  0  0  0  0  0  0
  195.0210  173.5280  137.2110 N   0  0  0  0  0  0  0  0  0  0  0  0
  193.5350  175.4930  137.5100 N   0  0  0  0  0  2  0  0  0  0  0  0
  194.6770  174.7300  137.9130 C   0  0  0  0  0  0  0  0  0  0  0  0
  197.2800  170.6150  137.5930 N   0  0  0  0  0  1  0  0  0  0  0  0
  195.2260  169.6540  136.0540 O   0  0  0  0  0  1  0  0  0  0  0  0
  195.3700  175.1060  138.8980 O   0  0  0  0  0  0  0  0  0  0  0  0
  196.0120  171.3040  137.4090 C   0  0  1  0  0  3  0  0  0  0  0  0
  196.2460  172.8080  137.5400 C   0  0  0  0  0  2  0  0  0  0  0  0
  195.4560  170.9890  136.0880 N   0  0  0  0  0  0  0  0  0  0  0  0
  188.1300  177.5460  142.3720 C   0  0  1  0  0  3  0  0  0  0  0  0
  187.7740  178.1720  143.5710 O   0  0  0  0  0  0  0  0  0  0  0  0
  186.4500  177.7860  143.7960 C   0  0  0  0  0  2  0  0  0  0  0  0
  186.2330  177.5100  145.2730 C   0  0  2  0  0  3  0  0  0  0  0  0
  185.0300  178.6780  145.9590 S   0  0  0  0  0  0  0  0  0  0  0  0
  187.1650  177.9190  147.3290 N   0  0  0  0  0  2  0  0  0  0  0  0
  187.4890  177.6740  145.9850 N   0  0  0  0  0  2  0  0  0  0  0  0
  186.1690  178.9770  147.3300 C   0  0  0  0  0  2  0  0  0  0  0  0
  188.2830  178.5680  141.2420 C   0  0  0  0  0  2  0  0  0  0  0  0
  188.6180  178.9100  136.9860 N   0  0  0  0  0  2  0  0  0  0  0  0
  187.2650  178.6650  136.5140 C   0  0  2  0  0  3  0  0  0  0  0  0
  187.2420  178.4000  140.2380 N   0  0  0  0  0  2  0  0  0  0  0  0
  186.4630  178.4030  137.7930 C   0  0  0  0  0  2  0  0  0  0  0  0
  188.6720  178.8250  138.3760 N   0  0  0  0  0  0  0  0  0  0  0  0
  187.5070  178.5470  138.8430 C   0  0  0  0  0  0  0  0  0  0  0  0
  187.2530  177.4330  135.6230 C   0  0  0  0  0  2  0  0  0  0  0  0
  190.3970  174.9070  136.0270 N   0  0  0  0  0  2  0  0  0  0  0  0
  188.4270  176.6150  135.8780 N   0  0  0  0  0  0  0  0  0  0  0  0
  189.1270  174.3120  136.4490 C   0  0  0  0  0  2  0  0  0  0  0  0
  187.9510  175.2840  136.2600 C   0  0  0  0  0  2  0  0  0  0  0  0
  189.1520  176.5100  134.6100 C   0  0  0  0  0  2  0  0  0  0  0  0
  190.2510  175.4370  134.6710 C   0  0  0  0  0  2  0  0  0  0  0  0
  1  3  1  0  0  0  0
  1  7  1  0  0  0  0
  2  6  1  0  0  0  0
  3 12  1  6  0  0  0
  3  2  1  0  0  0  0
  4  9  2  0  0  0  0
  5  4  1  0  0  0  0
  6  8  2  0  0  0  0
  7 11  2  0  0  0  0
  8  4  1  0  0  0  0
 10 24  1  6  0  0  0
 10  5  1  0  0  0  0
 11  6  1  0  0  0  0
 11 10  1  0  0  0  0
 13 15  1  0  0  0  0
 14 13  1  0  0  0  0
 14 23  1  0  0  0  0
 15 22  1  0  0  0  0
 15 17  1  0  0  0  0
 16 17  1  0  0  0  0
 16 12  1  0  0  0  0
 17 20  2  0  0  0  0
 19 23  1  0  0  0  0
 21 22  1  0  0  0  0
 21 18  1  6  0  0  0
 23 21  1  0  0  0  0
 24 32  1  6  0  0  0
 24 25  1  0  0  0  0
 25 26  1  0  0  0  0
 27 26  1  6  0  0  0
 27 28  1  0  0  0  0
 27 30  1  0  0  0  0
 28 31  1  0  0  0  0
 29 31  1  0  0  0  0
 30 29  1  0  0  0  0
 33 37  1  0  0  0  0
 34 39  1  6  0  0  0
 34 33  1  0  0  0  0
 34 36  1  0  0  0  0
 35 32  1  0  0  0  0
 36 38  1  0  0  0  0
 37 38  2  0  0  0  0
 38 35  1  0  0  0  0
 39 41  1  0  0  0  0
 40 42  1  0  0  0  0
 41 43  1  0  0  0  0
 43 42  1  0  0  0  0
 44 45  1  0  0  0  0
 44 41  1  0  0  0  0
 45 40  1  0  0  0  0
M  END
>  <MODEL>
9

>  <REMARK>
 VINA RESULT:      -7.0      4.696      8.259
  Name = 
  10 active torsions:
  status: ('A' for Active; 'I' for Inactive)
    1  A    between atoms: C_5  and  C_40
    2  A    between atoms: C_7  and  C_21
    3  A    between atoms: N_10  and  C_21
    4  A    between atoms: C_13  and  N_17
    5  A    between atoms: C_13  and  C_26
    6  A    between atoms: C_22  and  C_44
    7  A    between atoms: O_25  and  C_40
    8  A    between atoms: O_25  and  C_44
    9  A    between atoms: N_27  and  C_32
   10  A    between atoms: C_32  and  C_44
                            x       y       z     vdW  Elec       q    Type
                         _______ _______ _______ _____ _____    ______ ____

>  <TORSDO>
F 10

$$$$
