=
 OpenBabel10222416263D

 38 42  0  0  1  0  0  0  0  0999 V2000
  190.3170  177.4810  141.1830 C   0  0  2  0  0  3  0  0  0  0  0  0
  189.3190  177.0300  142.2380 C   0  0  0  0  0  2  0  0  0  0  0  0
  188.1490  177.8280  142.1600 O   0  0  0  0  0  0  0  0  0  0  0  0
  184.3450  178.8290  144.7110 C   0  0  0  0  0  0  0  0  0  0  0  0
  185.8930  178.1290  142.9190 C   0  0  0  0  0  2  0  0  0  0  0  0
  187.6540  178.0480  146.6630 C   0  0  0  0  0  3  0  0  0  0  0  0
  183.5510  179.6290  143.8420 N   0  0  0  0  0  1  0  0  0  0  0  0
  184.4150  179.1690  146.1100 N   0  0  0  0  0  0  0  0  0  0  0  0
  186.2260  177.6010  146.5450 C   0  0  0  0  0  0  0  0  0  0  0  0
  187.1580  177.7820  143.1390 C   0  0  1  0  0  3  0  0  0  0  0  0
  185.2200  177.9550  144.2090 C   0  0  0  0  0  0  0  0  0  0  0  0
  187.3330  177.3500  144.5290 C   0  0  1  0  0  3  0  0  0  0  0  0
  185.2650  178.6520  146.9190 N   0  0  0  0  0  0  0  0  0  0  0  0
  188.2920  177.8740  145.5010 C   0  0  0  0  0  3  0  0  0  0  0  0
  186.1600  177.3120  145.0950 C   0  0  0  0  0  0  0  0  0  0  0  0
  190.1690  176.6940  139.8770 C   0  0  0  0  0  2  0  0  0  0  0  0
  190.0800  177.5570  138.6140 C   0  0  2  0  0  3  0  0  0  0  0  0
  188.9450  179.4310  137.6590 O   0  0  0  0  0  1  0  0  0  0  0  0
  189.0570  178.6600  138.8160 C   0  0  0  0  0  2  0  0  0  0  0  0
  189.7710  176.7670  137.4200 N   0  0  0  0  0  2  0  0  0  0  0  0
  193.2070  175.7560  137.2380 C   0  0  0  0  0  0  0  0  0  0  0  0
  194.0930  176.8250  137.2110 O   0  0  0  0  0  1  0  0  0  0  0  0
  190.7210  176.1520  136.5400 C   0  0  0  0  0  3  0  0  0  0  0  0
  191.9640  175.9550  136.8840 C   0  0  0  0  0  0  0  0  0  0  0  0
  193.7070  174.4120  137.6990 C   0  0  2  0  0  3  0  0  0  0  0  0
  195.7360  173.2020  138.1130 N   0  0  0  0  0  0  0  0  0  0  0  0
  197.0970  173.5500  137.7550 C   0  0  0  0  0  1  0  0  0  0  0  0
  195.0460  174.4470  138.4110 C   0  0  0  0  0  2  0  0  0  0  0  0
  193.9310  173.5010  136.5250 C   0  0  0  0  0  2  0  0  0  0  0  0
  195.1100  172.6370  136.9200 C   0  0  0  0  0  2  0  0  0  0  0  0
  191.7380  177.4310  141.7220 C   0  0  0  0  0  2  0  0  0  0  0  0
  191.7190  177.0360  143.1220 N   0  0  0  0  0  2  0  0  0  0  0  0
  191.8050  177.9890  144.1840 C   0  0  0  0  0  0  0  0  0  0  0  0
  191.7350  177.5640  145.5440 N   0  0  0  0  0  2  0  0  0  0  0  0
  191.9560  179.2130  143.9280 O   0  0  0  0  0  0  0  0  0  0  0  0
  191.5120  176.1750  145.9070 C   0  0  0  0  0  3  0  0  0  0  0  0
  192.3050  175.8540  147.1590 C   0  0  0  0  0  2  0  0  0  0  0  0
  190.8150  176.1140  147.2490 C   0  0  0  0  0  2  0  0  0  0  0  0
  1 16  1  6  0  0  0
  1 31  1  0  0  0  0
  1  2  1  0  0  0  0
  3  2  1  0  0  0  0
  4  8  1  0  0  0  0
  5 10  1  0  0  0  0
  5 11  1  0  0  0  0
  7  4  1  0  0  0  0
  8 13  2  0  0  0  0
  9  6  1  0  0  0  0
  9 13  1  0  0  0  0
 10  3  1  6  0  0  0
 10 12  1  0  0  0  0
 11  4  2  0  0  0  0
 11 15  1  0  0  0  0
 12 15  1  0  0  0  0
 12 14  1  1  0  0  0
 14  6  2  0  0  0  0
 15  9  2  0  0  0  0
 17 19  1  1  0  0  0
 17 16  1  0  0  0  0
 18 19  1  0  0  0  0
 20 17  1  0  0  0  0
 22 21  1  0  0  0  0
 23 24  2  0  0  0  0
 23 20  1  0  0  0  0
 24 21  2  0  0  0  0
 25 21  1  6  0  0  0
 25 28  1  0  0  0  0
 26 28  1  0  0  0  0
 27 26  1  0  0  0  0
 29 30  1  0  0  0  0
 29 25  1  0  0  0  0
 30 26  1  0  0  0  0
 31 32  1  0  0  0  0
 32 33  1  0  0  0  0
 33 34  1  0  0  0  0
 34 36  1  0  0  0  0
 35 33  2  0  0  0  0
 36 37  1  0  0  0  0
 36 38  1  0  0  0  0
 37 38  1  0  0  0  0
M  END
>  <MODEL>
1

>  <REMARK>
 VINA RESULT:      -9.0      0.000      0.000
  Name = 
  12 active torsions:
  status: ('A' for Active; 'I' for Inactive)
    1  A    between atoms: C_2  and  N_23
    2  A    between atoms: N_3  and  C_36
    3  A    between atoms: C_4  and  C_14
    4  A    between atoms: C_4  and  O_15
    5  A    between atoms: N_8  and  CA_19
    6  A    between atoms: N_8  and  C_37
    7  A    between atoms: C_11  and  C_21
    8  A    between atoms: C_14  and  C_32
    9  A    between atoms: C_14  and  C_36
   10  A    between atoms: O_15  and  C_18
   11  A    between atoms: CA_19  and  C_26
   12  A    between atoms: CA_19  and  C_32
                            x       y       z     vdW  Elec       q    Type
                         _______ _______ _______ _____ _____    ______ ____

>  <TORSDO>
F 12

$$$$
=
 OpenBabel10222416263D

 38 42  0  0  1  0  0  0  0  0999 V2000
  188.7850  177.3050  140.4660 C   0  0  2  0  0  3  0  0  0  0  0  0
  190.1850  177.3810  141.0540 C   0  0  0  0  0  2  0  0  0  0  0  0
  190.3170  176.4310  142.0990 O   0  0  0  0  0  0  0  0  0  0  0  0
  191.3360  176.4640  146.6740 C   0  0  0  0  0  0  0  0  0  0  0  0
  191.4510  176.5470  144.2090 C   0  0  0  0  0  2  0  0  0  0  0  0
  187.6610  177.3690  145.6530 C   0  0  0  0  0  3  0  0  0  0  0  0
  192.4280  175.5570  146.7890 N   0  0  0  0  0  1  0  0  0  0  0  0
  190.3200  176.4710  147.6970 N   0  0  0  0  0  0  0  0  0  0  0  0
  188.8380  177.9120  146.4110 C   0  0  0  0  0  0  0  0  0  0  0  0
  190.4010  176.8120  143.4370 C   0  0  1  0  0  3  0  0  0  0  0  0
  191.1060  177.0970  145.5240 C   0  0  0  0  0  0  0  0  0  0  0  0
  189.3860  177.5520  144.1930 C   0  0  1  0  0  3  0  0  0  0  0  0
  189.2010  177.0840  147.5740 N   0  0  0  0  0  0  0  0  0  0  0  0
  187.9800  177.1900  144.3680 C   0  0  0  0  0  3  0  0  0  0  0  0
  189.8800  177.8420  145.3630 C   0  0  0  0  0  0  0  0  0  0  0  0
  188.7840  176.6910  139.0610 C   0  0  0  0  0  2  0  0  0  0  0  0
  190.1590  176.6290  138.3880 C   0  0  2  0  0  3  0  0  0  0  0  0
  188.8960  177.9630  136.8580 O   0  0  0  0  0  1  0  0  0  0  0  0
  190.0820  177.2420  137.0020 C   0  0  0  0  0  2  0  0  0  0  0  0
  190.6900  175.2650  138.3300 N   0  0  0  0  0  2  0  0  0  0  0  0
  194.0800  175.2840  137.1610 C   0  0  0  0  0  0  0  0  0  0  0  0
  194.4720  176.5080  136.6360 O   0  0  0  0  0  1  0  0  0  0  0  0
  191.5320  174.7250  137.3040 C   0  0  0  0  0  3  0  0  0  0  0  0
  192.8040  175.0040  137.2270 C   0  0  0  0  0  0  0  0  0  0  0  0
  195.1390  174.3350  137.6570 C   0  0  2  0  0  3  0  0  0  0  0  0
  196.8280  174.1200  139.3450 N   0  0  0  0  0  0  0  0  0  0  0  0
  197.3530  175.1270  140.2470 C   0  0  0  0  0  1  0  0  0  0  0  0
  195.4210  174.4260  139.1440 C   0  0  0  0  0  2  0  0  0  0  0  0
  196.4610  174.6330  137.0070 C   0  0  0  0  0  2  0  0  0  0  0  0
  197.4980  174.3050  138.0590 C   0  0  0  0  0  2  0  0  0  0  0  0
  188.1080  178.6650  140.4960 C   0  0  0  0  0  2  0  0  0  0  0  0
  186.9840  178.6350  141.4180 N   0  0  0  0  0  2  0  0  0  0  0  0
  185.6630  179.0140  141.0230 C   0  0  0  0  0  0  0  0  0  0  0  0
  184.5790  178.9240  141.9450 N   0  0  0  0  0  2  0  0  0  0  0  0
  185.4470  179.4410  139.8580 O   0  0  0  0  0  0  0  0  0  0  0  0
  184.7500  178.3930  143.2870 C   0  0  0  0  0  3  0  0  0  0  0  0
  184.7410  179.5380  144.2820 C   0  0  0  0  0  2  0  0  0  0  0  0
  183.5070  178.6780  144.1020 C   0  0  0  0  0  2  0  0  0  0  0  0
  1 16  1  6  0  0  0
  1 31  1  0  0  0  0
  1  2  1  0  0  0  0
  2  3  1  0  0  0  0
  4  7  1  0  0  0  0
  4  8  1  0  0  0  0
  5 11  1  0  0  0  0
  6  9  1  0  0  0  0
  9 13  1  0  0  0  0
 10  3  1  6  0  0  0
 10 12  1  0  0  0  0
 10  5  1  0  0  0  0
 11  4  2  0  0  0  0
 12 14  1  1  0  0  0
 12 15  1  0  0  0  0
 13  8  2  0  0  0  0
 14  6  2  0  0  0  0
 15 11  1  0  0  0  0
 15  9  2  0  0  0  0
 17 19  1  6  0  0  0
 17 16  1  0  0  0  0
 18 19  1  0  0  0  0
 20 17  1  0  0  0  0
 21 24  2  0  0  0  0
 22 21  1  0  0  0  0
 23 20  1  0  0  0  0
 24 23  2  0  0  0  0
 25 21  1  6  0  0  0
 25 28  1  0  0  0  0
 26 27  1  0  0  0  0
 28 26  1  0  0  0  0
 29 25  1  0  0  0  0
 29 30  1  0  0  0  0
 30 26  1  0  0  0  0
 31 32  1  0  0  0  0
 33 32  1  0  0  0  0
 33 34  1  0  0  0  0
 34 36  1  0  0  0  0
 35 33  2  0  0  0  0
 36 38  1  0  0  0  0
 36 37  1  0  0  0  0
 38 37  1  0  0  0  0
M  END
>  <MODEL>
2

>  <REMARK>
 VINA RESULT:      -9.0      1.915      4.674
  Name = 
  12 active torsions:
  status: ('A' for Active; 'I' for Inactive)
    1  A    between atoms: C_2  and  N_23
    2  A    between atoms: N_3  and  C_36
    3  A    between atoms: C_4  and  C_14
    4  A    between atoms: C_4  and  O_15
    5  A    between atoms: N_8  and  CA_19
    6  A    between atoms: N_8  and  C_37
    7  A    between atoms: C_11  and  C_21
    8  A    between atoms: C_14  and  C_32
    9  A    between atoms: C_14  and  C_36
   10  A    between atoms: O_15  and  C_18
   11  A    between atoms: CA_19  and  C_26
   12  A    between atoms: CA_19  and  C_32
                            x       y       z     vdW  Elec       q    Type
                         _______ _______ _______ _____ _____    ______ ____

>  <TORSDO>
F 12

$$$$
=
 OpenBabel10222416263D

 38 42  0  0  1  0  0  0  0  0999 V2000
  190.2330  177.8220  141.4320 C   0  0  2  0  0  3  0  0  0  0  0  0
  189.1580  176.9530  142.0670 C   0  0  0  0  0  2  0  0  0  0  0  0
  187.8990  177.5970  141.9620 O   0  0  0  0  0  0  0  0  0  0  0  0
  184.4010  178.9030  144.7960 C   0  0  0  0  0  0  0  0  0  0  0  0
  185.7410  178.0460  142.9080 C   0  0  0  0  0  2  0  0  0  0  0  0
  187.8400  178.0510  146.4740 C   0  0  0  0  0  3  0  0  0  0  0  0
  183.5650  179.7000  143.9640 N   0  0  0  0  0  1  0  0  0  0  0  0
  184.6170  179.3050  146.1640 N   0  0  0  0  0  0  0  0  0  0  0  0
  186.3880  177.6710  146.5110 C   0  0  0  0  0  0  0  0  0  0  0  0
  187.0040  177.6470  143.0290 C   0  0  1  0  0  3  0  0  0  0  0  0
  185.1840  177.9650  144.2610 C   0  0  0  0  0  0  0  0  0  0  0  0
  187.2880  177.2720  144.4170 C   0  0  1  0  0  3  0  0  0  0  0  0
  185.5150  178.7840  146.9170 N   0  0  0  0  0  0  0  0  0  0  0  0
  188.3570  177.7920  145.2690 C   0  0  0  0  0  3  0  0  0  0  0  0
  186.1740  177.3180  145.0890 C   0  0  0  0  0  0  0  0  0  0  0  0
  190.0600  177.9320  139.9130 C   0  0  0  0  0  2  0  0  0  0  0  0
  189.6560  176.6270  139.2180 C   0  0  2  0  0  3  0  0  0  0  0  0
  190.9710  176.8410  137.2340 O   0  0  0  0  0  1  0  0  0  0  0  0
  190.8210  176.0960  138.4030 C   0  0  0  0  0  2  0  0  0  0  0  0
  188.4620  176.7870  138.3840 N   0  0  0  0  0  2  0  0  0  0  0  0
  185.1060  178.0410  138.2030 C   0  0  0  0  0  0  0  0  0  0  0  0
  184.4200  177.6080  137.0770 O   0  0  0  0  0  1  0  0  0  0  0  0
  187.7190  177.9970  138.1880 C   0  0  0  0  0  3  0  0  0  0  0  0
  186.4140  178.0230  138.1920 C   0  0  0  0  0  0  0  0  0  0  0  0
  184.3180  178.4920  139.4040 C   0  0  2  0  0  3  0  0  0  0  0  0
  182.2480  178.1010  140.5490 N   0  0  0  0  0  0  0  0  0  0  0  0
  181.0880  177.3500  140.1090 C   0  0  0  0  0  1  0  0  0  0  0  0
  183.4170  177.4300  140.0030 C   0  0  0  0  0  2  0  0  0  0  0  0
  183.3850  179.6100  139.0330 C   0  0  0  0  0  2  0  0  0  0  0  0
  182.1720  179.4160  139.9180 C   0  0  0  0  0  2  0  0  0  0  0  0
  191.6210  177.3360  141.8150 C   0  0  0  0  0  2  0  0  0  0  0  0
  191.6430  176.9690  143.2220 N   0  0  0  0  0  2  0  0  0  0  0  0
  191.7970  177.9390  144.2610 C   0  0  0  0  0  0  0  0  0  0  0  0
  191.7650  177.5420  145.6300 N   0  0  0  0  0  2  0  0  0  0  0  0
  191.9740  179.1530  143.9750 O   0  0  0  0  0  0  0  0  0  0  0  0
  191.5150  176.1680  146.0290 C   0  0  0  0  0  3  0  0  0  0  0  0
  192.3620  175.8390  147.2440 C   0  0  0  0  0  2  0  0  0  0  0  0
  190.8890  176.1510  147.4070 C   0  0  0  0  0  2  0  0  0  0  0  0
  1 16  1  6  0  0  0
  1 31  1  0  0  0  0
  1  2  1  0  0  0  0
  3  2  1  0  0  0  0
  4  8  1  0  0  0  0
  5 10  1  0  0  0  0
  5 11  1  0  0  0  0
  6  9  1  0  0  0  0
  7  4  1  0  0  0  0
  8 13  2  0  0  0  0
  9 13  1  0  0  0  0
 10  3  1  6  0  0  0
 10 12  1  0  0  0  0
 11  4  2  0  0  0  0
 11 15  1  0  0  0  0
 12 15  1  0  0  0  0
 12 14  1  1  0  0  0
 14  6  2  0  0  0  0
 15  9  2  0  0  0  0
 17 19  1  6  0  0  0
 17 16  1  0  0  0  0
 18 19  1  0  0  0  0
 20 17  1  0  0  0  0
 22 21  1  0  0  0  0
 23 24  2  0  0  0  0
 23 20  1  0  0  0  0
 24 21  2  0  0  0  0
 25 21  1  6  0  0  0
 25 28  1  0  0  0  0
 27 26  1  0  0  0  0
 28 26  1  0  0  0  0
 29 25  1  0  0  0  0
 29 30  1  0  0  0  0
 30 26  1  0  0  0  0
 31 32  1  0  0  0  0
 32 33  1  0  0  0  0
 33 34  1  0  0  0  0
 34 36  1  0  0  0  0
 35 33  2  0  0  0  0
 36 37  1  0  0  0  0
 36 38  1  0  0  0  0
 37 38  1  0  0  0  0
M  END
>  <MODEL>
3

>  <REMARK>
 VINA RESULT:      -8.8      2.468      5.993
  Name = 
  12 active torsions:
  status: ('A' for Active; 'I' for Inactive)
    1  A    between atoms: C_2  and  N_23
    2  A    between atoms: N_3  and  C_36
    3  A    between atoms: C_4  and  C_14
    4  A    between atoms: C_4  and  O_15
    5  A    between atoms: N_8  and  CA_19
    6  A    between atoms: N_8  and  C_37
    7  A    between atoms: C_11  and  C_21
    8  A    between atoms: C_14  and  C_32
    9  A    between atoms: C_14  and  C_36
   10  A    between atoms: O_15  and  C_18
   11  A    between atoms: CA_19  and  C_26
   12  A    between atoms: CA_19  and  C_32
                            x       y       z     vdW  Elec       q    Type
                         _______ _______ _______ _____ _____    ______ ____

>  <TORSDO>
F 12

$$$$
=
 OpenBabel10222416263D

 38 42  0  0  1  0  0  0  0  0999 V2000
  189.5050  177.8080  139.8420 C   0  0  2  0  0  3  0  0  0  0  0  0
  188.7820  178.3460  141.0670 C   0  0  0  0  0  2  0  0  0  0  0  0
  188.4730  177.2770  141.9460 O   0  0  0  0  0  0  0  0  0  0  0  0
  185.1150  178.9630  144.7490 C   0  0  0  0  0  0  0  0  0  0  0  0
  186.3680  177.9570  142.8750 C   0  0  0  0  0  2  0  0  0  0  0  0
  188.4340  177.7610  146.4550 C   0  0  0  0  0  3  0  0  0  0  0  0
  184.3730  179.8390  143.9070 N   0  0  0  0  0  1  0  0  0  0  0  0
  185.3640  179.3470  146.1160 N   0  0  0  0  0  0  0  0  0  0  0  0
  186.9500  177.5370  146.4840 C   0  0  0  0  0  0  0  0  0  0  0  0
  187.5810  177.4270  143.0060 C   0  0  1  0  0  3  0  0  0  0  0  0
  185.7970  177.9440  144.2250 C   0  0  0  0  0  0  0  0  0  0  0  0
  187.8160  177.0330  144.3990 C   0  0  1  0  0  3  0  0  0  0  0  0
  186.1960  178.7390  146.8780 N   0  0  0  0  0  0  0  0  0  0  0  0
  188.9280  177.4420  145.2550 C   0  0  0  0  0  3  0  0  0  0  0  0
  186.7080  177.2010  145.0630 C   0  0  0  0  0  0  0  0  0  0  0  0
  188.5930  176.9340  138.9740 C   0  0  0  0  0  2  0  0  0  0  0  0
  187.8600  177.6830  137.8570 C   0  0  2  0  0  3  0  0  0  0  0  0
  188.5780  179.8850  137.2660 O   0  0  0  0  0  1  0  0  0  0  0  0
  188.8450  178.5300  137.0720 C   0  0  0  0  0  2  0  0  0  0  0  0
  186.7550  178.5000  138.3660 N   0  0  0  0  0  2  0  0  0  0  0  0
  183.6610  176.7040  138.6210 C   0  0  0  0  0  0  0  0  0  0  0  0
  183.7120  175.4400  138.0480 O   0  0  0  0  0  1  0  0  0  0  0  0
  185.4070  178.5020  137.8800 C   0  0  0  0  0  3  0  0  0  0  0  0
  184.5330  177.6040  138.2450 C   0  0  0  0  0  0  0  0  0  0  0  0
  182.6190  176.9810  139.6720 C   0  0  2  0  0  3  0  0  0  0  0  0
  181.0000  178.6250  140.3250 N   0  0  0  0  0  0  0  0  0  0  0  0
  180.8270  179.9810  139.8400 C   0  0  0  0  0  1  0  0  0  0  0  0
  181.4540  177.8280  139.1970 C   0  0  0  0  0  2  0  0  0  0  0  0
  183.2120  177.7650  140.8080 C   0  0  0  0  0  2  0  0  0  0  0  0
  182.0900  178.6540  141.2980 C   0  0  0  0  0  2  0  0  0  0  0  0
  190.7820  177.0850  140.2370 C   0  0  0  0  0  2  0  0  0  0  0  0
  191.5220  176.7060  139.0440 N   0  0  0  0  0  2  0  0  0  0  0  0
  192.9400  176.8620  138.9450 C   0  0  0  0  0  0  0  0  0  0  0  0
  193.6340  176.4330  137.7750 N   0  0  0  0  0  2  0  0  0  0  0  0
  193.5880  177.3910  139.8870 O   0  0  0  0  0  0  0  0  0  0  0  0
  192.9540  175.7710  136.6750 C   0  0  0  0  0  3  0  0  0  0  0  0
  193.7300  176.0090  135.3940 C   0  0  0  0  0  2  0  0  0  0  0  0
  193.8450  174.6820  136.1170 C   0  0  0  0  0  2  0  0  0  0  0  0
  1 16  1  1  0  0  0
  1 31  1  0  0  0  0
  1  2  1  0  0  0  0
  2  3  1  0  0  0  0
  4  8  1  0  0  0  0
  5 10  1  0  0  0  0
  5 11  1  0  0  0  0
  6  9  1  0  0  0  0
  7  4  1  0  0  0  0
  8 13  2  0  0  0  0
  9 13  1  0  0  0  0
 10  3  1  6  0  0  0
 10 12  1  0  0  0  0
 11  4  2  0  0  0  0
 11 15  1  0  0  0  0
 12 15  1  0  0  0  0
 12 14  1  1  0  0  0
 14  6  2  0  0  0  0
 15  9  2  0  0  0  0
 17 19  1  1  0  0  0
 17 20  1  0  0  0  0
 17 16  1  0  0  0  0
 19 18  1  0  0  0  0
 22 21  1  0  0  0  0
 23 24  2  0  0  0  0
 23 20  1  0  0  0  0
 24 21  2  0  0  0  0
 25 21  1  6  0  0  0
 25 29  1  0  0  0  0
 26 30  1  0  0  0  0
 27 26  1  0  0  0  0
 28 25  1  0  0  0  0
 28 26  1  0  0  0  0
 29 30  1  0  0  0  0
 32 31  1  0  0  0  0
 33 32  1  0  0  0  0
 33 35  2  0  0  0  0
 34 33  1  0  0  0  0
 36 34  1  0  0  0  0
 37 38  1  0  0  0  0
 37 36  1  0  0  0  0
 38 36  1  0  0  0  0
M  END
>  <MODEL>
4

>  <REMARK>
 VINA RESULT:      -8.5      2.900      7.447
  Name = 
  12 active torsions:
  status: ('A' for Active; 'I' for Inactive)
    1  A    between atoms: C_2  and  N_23
    2  A    between atoms: N_3  and  C_36
    3  A    between atoms: C_4  and  C_14
    4  A    between atoms: C_4  and  O_15
    5  A    between atoms: N_8  and  CA_19
    6  A    between atoms: N_8  and  C_37
    7  A    between atoms: C_11  and  C_21
    8  A    between atoms: C_14  and  C_32
    9  A    between atoms: C_14  and  C_36
   10  A    between atoms: O_15  and  C_18
   11  A    between atoms: CA_19  and  C_26
   12  A    between atoms: CA_19  and  C_32
                            x       y       z     vdW  Elec       q    Type
                         _______ _______ _______ _____ _____    ______ ____

>  <TORSDO>
F 12

$$$$
=
 OpenBabel10222416263D

 38 42  0  0  1  0  0  0  0  0999 V2000
  190.3940  177.3620  141.1050 C   0  0  2  0  0  3  0  0  0  0  0  0
  189.3570  176.9370  142.1320 C   0  0  0  0  0  2  0  0  0  0  0  0
  188.4850  178.0210  142.4080 O   0  0  0  0  0  0  0  0  0  0  0  0
  184.3880  178.7430  144.5670 C   0  0  0  0  0  0  0  0  0  0  0  0
  186.1500  178.1760  142.9340 C   0  0  0  0  0  2  0  0  0  0  0  0
  187.5190  178.1040  146.8380 C   0  0  0  0  0  3  0  0  0  0  0  0
  183.6410  179.5170  143.6350 N   0  0  0  0  0  1  0  0  0  0  0  0
  184.2940  179.0530  145.9720 N   0  0  0  0  0  0  0  0  0  0  0  0
  186.1390  177.5800  146.5650 C   0  0  0  0  0  0  0  0  0  0  0  0
  187.4040  177.8960  143.2780 C   0  0  1  0  0  3  0  0  0  0  0  0
  185.3590  177.9330  144.1430 C   0  0  0  0  0  0  0  0  0  0  0  0
  187.4600  177.4410  144.6710 C   0  0  1  0  0  3  0  0  0  0  0  0
  185.0840  178.5650  146.8560 N   0  0  0  0  0  0  0  0  0  0  0  0
  188.2820  177.9950  145.7460 C   0  0  0  0  0  3  0  0  0  0  0  0
  186.2400  177.3230  145.1110 C   0  0  0  0  0  0  0  0  0  0  0  0
  190.4540  176.3990  139.9140 C   0  0  0  0  0  2  0  0  0  0  0  0
  189.5630  176.7880  138.7290 C   0  0  2  0  0  3  0  0  0  0  0  0
  190.7610  175.7130  136.9630 O   0  0  0  0  0  1  0  0  0  0  0  0
  190.4110  176.9590  137.4820 C   0  0  0  0  0  2  0  0  0  0  0  0
  188.7760  177.9940  138.9980 N   0  0  0  0  0  2  0  0  0  0  0  0
  186.5730  177.4750  136.2150 C   0  0  0  0  0  0  0  0  0  0  0  0
  186.9270  178.2100  135.0920 O   0  0  0  0  0  1  0  0  0  0  0  0
  187.4360  178.2480  138.5580 C   0  0  0  0  0  3  0  0  0  0  0  0
  187.0020  177.8670  137.3870 C   0  0  0  0  0  0  0  0  0  0  0  0
  185.7290  176.2410  136.0380 C   0  0  2  0  0  3  0  0  0  0  0  0
  183.8750  175.0760  137.0140 N   0  0  0  0  0  0  0  0  0  0  0  0
  183.2270  175.2960  138.2930 C   0  0  0  0  0  1  0  0  0  0  0  0
  184.3000  176.3780  136.5260 C   0  0  0  0  0  2  0  0  0  0  0  0
  186.2900  175.0990  136.8370 C   0  0  0  0  0  2  0  0  0  0  0  0
  185.0830  174.2970  137.2740 C   0  0  0  0  0  2  0  0  0  0  0  0
  191.7560  177.5520  141.7540 C   0  0  0  0  0  2  0  0  0  0  0  0
  191.7030  177.1230  143.1420 N   0  0  0  0  0  2  0  0  0  0  0  0
  191.7970  178.0450  144.2300 C   0  0  0  0  0  0  0  0  0  0  0  0
  191.6930  177.5880  145.5770 N   0  0  0  0  0  2  0  0  0  0  0  0
  191.9860  179.2710  144.0080 O   0  0  0  0  0  0  0  0  0  0  0  0
  191.4260  176.1960  145.9000 C   0  0  0  0  0  3  0  0  0  0  0  0
  192.3400  175.7630  147.0300 C   0  0  0  0  0  2  0  0  0  0  0  0
  190.8910  176.1030  147.3130 C   0  0  0  0  0  2  0  0  0  0  0  0
  1 16  1  6  0  0  0
  1 31  1  0  0  0  0
  1  2  1  0  0  0  0
  2  3  1  0  0  0  0
  4  8  1  0  0  0  0
  5 10  1  0  0  0  0
  5 11  1  0  0  0  0
  7  4  1  0  0  0  0
  8 13  2  0  0  0  0
  9  6  1  0  0  0  0
  9 13  1  0  0  0  0
 10  3  1  6  0  0  0
 10 12  1  0  0  0  0
 11  4  2  0  0  0  0
 11 15  1  0  0  0  0
 12 15  1  0  0  0  0
 12 14  1  1  0  0  0
 14  6  2  0  0  0  0
 15  9  2  0  0  0  0
 17 19  1  6  0  0  0
 17 20  1  0  0  0  0
 17 16  1  0  0  0  0
 18 19  1  0  0  0  0
 21 24  2  0  0  0  0
 22 21  1  0  0  0  0
 23 20  1  0  0  0  0
 24 23  2  0  0  0  0
 25 21  1  1  0  0  0
 25 28  1  0  0  0  0
 25 29  1  0  0  0  0
 26 30  1  0  0  0  0
 26 27  1  0  0  0  0
 28 26  1  0  0  0  0
 29 30  1  0  0  0  0
 31 32  1  0  0  0  0
 32 33  1  0  0  0  0
 33 34  1  0  0  0  0
 34 36  1  0  0  0  0
 35 33  2  0  0  0  0
 36 37  1  0  0  0  0
 36 38  1  0  0  0  0
 37 38  1  0  0  0  0
M  END
>  <MODEL>
5

>  <REMARK>
 VINA RESULT:      -8.4      2.682      4.820
  Name = 
  12 active torsions:
  status: ('A' for Active; 'I' for Inactive)
    1  A    between atoms: C_2  and  N_23
    2  A    between atoms: N_3  and  C_36
    3  A    between atoms: C_4  and  C_14
    4  A    between atoms: C_4  and  O_15
    5  A    between atoms: N_8  and  CA_19
    6  A    between atoms: N_8  and  C_37
    7  A    between atoms: C_11  and  C_21
    8  A    between atoms: C_14  and  C_32
    9  A    between atoms: C_14  and  C_36
   10  A    between atoms: O_15  and  C_18
   11  A    between atoms: CA_19  and  C_26
   12  A    between atoms: CA_19  and  C_32
                            x       y       z     vdW  Elec       q    Type
                         _______ _______ _______ _____ _____    ______ ____

>  <TORSDO>
F 12

$$$$
=
 OpenBabel10222416263D

 38 42  0  0  1  0  0  0  0  0999 V2000
  184.2010  178.8440  139.9810 C   0  0  2  0  0  3  0  0  0  0  0  0
  185.1360  178.5270  138.8250 C   0  0  0  0  0  2  0  0  0  0  0  0
  186.4830  178.6390  139.2550 O   0  0  0  0  0  0  0  0  0  0  0  0
  188.9030  175.2950  137.0330 C   0  0  0  0  0  0  0  0  0  0  0  0
  187.3310  177.1080  137.6150 C   0  0  0  0  0  2  0  0  0  0  0  0
  190.6090  176.9770  140.1370 C   0  0  0  0  0  3  0  0  0  0  0  0
  187.8980  174.4900  136.4270 N   0  0  0  0  0  1  0  0  0  0  0  0
  190.0580  174.6570  137.6130 N   0  0  0  0  0  0  0  0  0  0  0  0
  190.8310  176.7060  138.6770 C   0  0  0  0  0  0  0  0  0  0  0  0
  187.5160  177.9370  138.6380 C   0  0  1  0  0  3  0  0  0  0  0  0
  188.6620  176.5780  137.3060 C   0  0  0  0  0  0  0  0  0  0  0  0
  188.9380  177.9970  138.9930 C   0  0  1  0  0  3  0  0  0  0  0  0
  190.8980  175.2690  138.3650 N   0  0  0  0  0  0  0  0  0  0  0  0
  189.5290  177.7450  140.3070 C   0  0  0  0  0  3  0  0  0  0  0  0
  189.6090  177.3170  138.1080 C   0  0  0  0  0  0  0  0  0  0  0  0
  184.9640  179.3020  141.2290 C   0  0  0  0  0  2  0  0  0  0  0  0
  185.0870  178.2440  142.3300 C   0  0  2  0  0  3  0  0  0  0  0  0
  183.1020  178.9880  143.4330 O   0  0  0  0  0  1  0  0  0  0  0  0
  184.4660  178.7620  143.6140 C   0  0  0  0  0  2  0  0  0  0  0  0
  186.4740  177.8270  142.5490 N   0  0  0  0  0  2  0  0  0  0  0  0
  189.4920  176.5690  144.0230 C   0  0  0  0  0  0  0  0  0  0  0  0
  190.1990  175.7180  143.1840 O   0  0  0  0  0  1  0  0  0  0  0  0
  186.9450  176.9540  143.5830 C   0  0  0  0  0  3  0  0  0  0  0  0
  188.2160  176.7570  143.8040 C   0  0  0  0  0  0  0  0  0  0  0  0
  190.2290  177.2630  145.1380 C   0  0  2  0  0  3  0  0  0  0  0  0
  191.8210  176.8490  146.8820 N   0  0  0  0  0  0  0  0  0  0  0  0
  192.3170  175.5830  147.3860 C   0  0  0  0  0  1  0  0  0  0  0  0
  191.5900  176.6760  145.4570 C   0  0  0  0  0  2  0  0  0  0  0  0
  189.4620  177.1530  146.4250 C   0  0  0  0  0  2  0  0  0  0  0  0
  190.5190  177.0780  147.5060 C   0  0  0  0  0  2  0  0  0  0  0  0
  183.2810  177.6700  140.2740 C   0  0  0  0  0  2  0  0  0  0  0  0
  183.5500  176.5890  139.3390 N   0  0  0  0  0  2  0  0  0  0  0  0
  182.5420  175.6590  138.9370 C   0  0  0  0  0  0  0  0  0  0  0  0
  182.8360  174.6420  137.9820 N   0  0  0  0  0  2  0  0  0  0  0  0
  181.3860  175.7220  139.4340 O   0  0  0  0  0  0  0  0  0  0  0  0
  184.1330  174.5440  137.3350 C   0  0  0  0  0  3  0  0  0  0  0  0
  184.7840  173.2290  137.7190 C   0  0  0  0  0  2  0  0  0  0  0  0
  184.1230  173.3820  136.3650 C   0  0  0  0  0  2  0  0  0  0  0  0
  1  2  1  6  0  0  0
  1 31  1  0  0  0  0
  1 16  1  0  0  0  0
  2  3  1  0  0  0  0
  4 11  2  0  0  0  0
  4  8  1  0  0  0  0
  5 10  1  0  0  0  0
  6 14  2  0  0  0  0
  7  4  1  0  0  0  0
  8 13  2  0  0  0  0
  9  6  1  0  0  0  0
 10 12  1  0  0  0  0
 10  3  1  6  0  0  0
 11  5  1  0  0  0  0
 11 15  1  0  0  0  0
 12 14  1  1  0  0  0
 13  9  1  0  0  0  0
 15  9  2  0  0  0  0
 15 12  1  0  0  0  0
 17 16  1  6  0  0  0
 17 20  1  0  0  0  0
 17 19  1  0  0  0  0
 18 19  1  0  0  0  0
 20 23  1  0  0  0  0
 22 21  1  0  0  0  0
 23 24  2  0  0  0  0
 24 21  2  0  0  0  0
 25 21  1  6  0  0  0
 25 28  1  0  0  0  0
 25 29  1  0  0  0  0
 26 27  1  0  0  0  0
 26 30  1  0  0  0  0
 28 26  1  0  0  0  0
 29 30  1  0  0  0  0
 32 31  1  0  0  0  0
 33 32  1  0  0  0  0
 33 35  2  0  0  0  0
 34 33  1  0  0  0  0
 36 37  1  0  0  0  0
 36 34  1  0  0  0  0
 38 36  1  0  0  0  0
 38 37  1  0  0  0  0
M  END
>  <MODEL>
6

>  <REMARK>
 VINA RESULT:      -8.4      3.555      8.918
  Name = 
  12 active torsions:
  status: ('A' for Active; 'I' for Inactive)
    1  A    between atoms: C_2  and  N_23
    2  A    between atoms: N_3  and  C_36
    3  A    between atoms: C_4  and  C_14
    4  A    between atoms: C_4  and  O_15
    5  A    between atoms: N_8  and  CA_19
    6  A    between atoms: N_8  and  C_37
    7  A    between atoms: C_11  and  C_21
    8  A    between atoms: C_14  and  C_32
    9  A    between atoms: C_14  and  C_36
   10  A    between atoms: O_15  and  C_18
   11  A    between atoms: CA_19  and  C_26
   12  A    between atoms: CA_19  and  C_32
                            x       y       z     vdW  Elec       q    Type
                         _______ _______ _______ _____ _____    ______ ____

>  <TORSDO>
F 12

$$$$
=
 OpenBabel10222416263D

 38 42  0  0  1  0  0  0  0  0999 V2000
  189.6350  177.8250  141.5720 C   0  0  2  0  0  3  0  0  0  0  0  0
  188.7250  176.7540  142.1530 C   0  0  0  0  0  2  0  0  0  0  0  0
  187.3740  177.1790  142.0730 O   0  0  0  0  0  0  0  0  0  0  0  0
  185.8070  178.3830  146.3240 C   0  0  0  0  0  0  0  0  0  0  0  0
  187.2180  177.8910  144.3580 C   0  0  0  0  0  2  0  0  0  0  0  0
  183.2890  178.6910  143.3350 C   0  0  0  0  0  3  0  0  0  0  0  0
  186.6220  177.6300  147.2160 N   0  0  0  0  0  1  0  0  0  0  0  0
  184.4050  178.5410  146.6190 N   0  0  0  0  0  0  0  0  0  0  0  0
  183.9090  179.5000  144.4360 C   0  0  0  0  0  0  0  0  0  0  0  0
  186.7550  177.8710  143.1120 C   0  0  1  0  0  3  0  0  0  0  0  0
  186.2570  178.7030  145.1100 C   0  0  0  0  0  0  0  0  0  0  0  0
  185.5330  178.6760  143.0100 C   0  0  1  0  0  3  0  0  0  0  0  0
  183.5560  179.0060  145.7780 N   0  0  0  0  0  0  0  0  0  0  0  0
  184.2330  178.2420  142.5010 C   0  0  0  0  0  3  0  0  0  0  0  0
  185.3440  179.2770  144.1490 C   0  0  0  0  0  0  0  0  0  0  0  0
  189.3620  178.0640  140.0830 C   0  0  0  0  0  2  0  0  0  0  0  0
  189.1870  176.7900  139.2500 C   0  0  2  0  0  3  0  0  0  0  0  0
  190.9410  175.2980  138.6100 O   0  0  0  0  0  1  0  0  0  0  0  0
  190.4140  176.5690  138.3840 C   0  0  0  0  0  2  0  0  0  0  0  0
  187.9690  176.8180  138.4370 N   0  0  0  0  0  2  0  0  0  0  0  0
  184.5920  177.7260  137.6400 C   0  0  0  0  0  0  0  0  0  0  0  0
  184.2160  177.3630  136.3540 O   0  0  0  0  0  1  0  0  0  0  0  0
  187.1340  177.9590  138.1990 C   0  0  0  0  0  3  0  0  0  0  0  0
  185.8650  177.8470  137.9160 C   0  0  0  0  0  0  0  0  0  0  0  0
  183.5200  177.9420  138.6750 C   0  0  2  0  0  3  0  0  0  0  0  0
  181.6700  176.8350  139.7250 N   0  0  0  0  0  0  0  0  0  0  0  0
  181.0180  175.5930  139.3550 C   0  0  0  0  0  1  0  0  0  0  0  0
  183.0790  176.6850  139.4000 C   0  0  0  0  0  2  0  0  0  0  0  0
  182.2650  178.4630  138.0330 C   0  0  0  0  0  2  0  0  0  0  0  0
  181.1340  177.8770  138.8510 C   0  0  0  0  0  2  0  0  0  0  0  0
  191.0960  177.5010  141.8400 C   0  0  0  0  0  2  0  0  0  0  0  0
  191.2710  177.1430  143.2390 N   0  0  0  0  0  2  0  0  0  0  0  0
  191.5490  178.1180  144.2460 C   0  0  0  0  0  0  0  0  0  0  0  0
  191.6670  177.7310  145.6140 N   0  0  0  0  0  2  0  0  0  0  0  0
  191.7040  179.3280  143.9330 O   0  0  0  0  0  0  0  0  0  0  0  0
  191.4510  176.3610  146.0490 C   0  0  0  0  0  3  0  0  0  0  0  0
  192.0550  176.1750  147.4270 C   0  0  0  0  0  2  0  0  0  0  0  0
  190.5600  176.3590  147.2720 C   0  0  0  0  0  2  0  0  0  0  0  0
  1 16  1  6  0  0  0
  1 31  1  0  0  0  0
  1  2  1  0  0  0  0
  3  2  1  0  0  0  0
  4  8  1  0  0  0  0
  4  7  1  0  0  0  0
  5 11  1  0  0  0  0
  6  9  1  0  0  0  0
  9 13  1  0  0  0  0
 10  3  1  6  0  0  0
 10  5  1  0  0  0  0
 11  4  2  0  0  0  0
 12 14  1  1  0  0  0
 12 10  1  0  0  0  0
 12 15  1  0  0  0  0
 13  8  2  0  0  0  0
 14  6  2  0  0  0  0
 15  9  2  0  0  0  0
 15 11  1  0  0  0  0
 17 19  1  6  0  0  0
 17 16  1  0  0  0  0
 19 18  1  0  0  0  0
 20 17  1  0  0  0  0
 21 24  2  0  0  0  0
 22 21  1  0  0  0  0
 23 20  1  0  0  0  0
 24 23  2  0  0  0  0
 25 21  1  6  0  0  0
 25 28  1  0  0  0  0
 27 26  1  0  0  0  0
 28 26  1  0  0  0  0
 29 25  1  0  0  0  0
 29 30  1  0  0  0  0
 30 26  1  0  0  0  0
 31 32  1  0  0  0  0
 32 33  1  0  0  0  0
 33 34  1  0  0  0  0
 34 36  1  0  0  0  0
 35 33  2  0  0  0  0
 36 38  1  0  0  0  0
 36 37  1  0  0  0  0
 38 37  1  0  0  0  0
M  END
>  <MODEL>
7

>  <REMARK>
 VINA RESULT:      -8.3      2.845      6.359
  Name = 
  12 active torsions:
  status: ('A' for Active; 'I' for Inactive)
    1  A    between atoms: C_2  and  N_23
    2  A    between atoms: N_3  and  C_36
    3  A    between atoms: C_4  and  C_14
    4  A    between atoms: C_4  and  O_15
    5  A    between atoms: N_8  and  CA_19
    6  A    between atoms: N_8  and  C_37
    7  A    between atoms: C_11  and  C_21
    8  A    between atoms: C_14  and  C_32
    9  A    between atoms: C_14  and  C_36
   10  A    between atoms: O_15  and  C_18
   11  A    between atoms: CA_19  and  C_26
   12  A    between atoms: CA_19  and  C_32
                            x       y       z     vdW  Elec       q    Type
                         _______ _______ _______ _____ _____    ______ ____

>  <TORSDO>
F 12

$$$$
=
 OpenBabel10222416263D

 38 42  0  0  1  0  0  0  0  0999 V2000
  185.4810  178.2530  142.0570 C   0  0  2  0  0  3  0  0  0  0  0  0
  186.7000  177.5150  142.5890 C   0  0  0  0  0  2  0  0  0  0  0  0
  186.8390  177.7630  143.9790 O   0  0  0  0  0  0  0  0  0  0  0  0
  191.2450  176.6280  145.1080 C   0  0  0  0  0  0  0  0  0  0  0  0
  189.2210  177.4810  143.9800 C   0  0  0  0  0  2  0  0  0  0  0  0
  188.6730  176.9610  148.0480 C   0  0  0  0  0  3  0  0  0  0  0  0
  191.7480  175.9960  143.9360 N   0  0  0  0  0  1  0  0  0  0  0  0
  191.6040  176.0980  146.4000 N   0  0  0  0  0  0  0  0  0  0  0  0
  189.9950  177.4940  147.5770 C   0  0  0  0  0  0  0  0  0  0  0  0
  188.0790  177.7270  144.6140 C   0  0  1  0  0  3  0  0  0  0  0  0
  190.2520  177.5140  145.0210 C   0  0  0  0  0  0  0  0  0  0  0  0
  188.3280  177.9570  146.0410 C   0  0  1  0  0  3  0  0  0  0  0  0
  191.0340  176.4550  147.4910 N   0  0  0  0  0  0  0  0  0  0  0  0
  187.7130  177.2560  147.1670 C   0  0  0  0  0  3  0  0  0  0  0  0
  189.6160  177.9800  146.2310 C   0  0  0  0  0  0  0  0  0  0  0  0
  185.7880  179.0060  140.7570 C   0  0  0  0  0  2  0  0  0  0  0  0
  184.6700  178.9580  139.7100 C   0  0  2  0  0  3  0  0  0  0  0  0
  182.5560  177.9550  140.1990 O   0  0  0  0  0  1  0  0  0  0  0  0
  183.8790  177.6710  139.8600 C   0  0  0  0  0  2  0  0  0  0  0  0
  185.1800  179.1040  138.3440 N   0  0  0  0  0  2  0  0  0  0  0  0
  188.3430  177.7680  137.3070 C   0  0  0  0  0  0  0  0  0  0  0  0
  189.0460  178.6170  136.4630 O   0  0  0  0  0  1  0  0  0  0  0  0
  185.7570  178.0690  137.5380 C   0  0  0  0  0  3  0  0  0  0  0  0
  187.0480  177.9170  137.4180 C   0  0  0  0  0  0  0  0  0  0  0  0
  189.1020  176.7240  138.0810 C   0  0  2  0  0  3  0  0  0  0  0  0
  190.6040  176.4790  139.9350 N   0  0  0  0  0  0  0  0  0  0  0  0
  191.3270  177.5020  140.6660 C   0  0  0  0  0  1  0  0  0  0  0  0
  189.3310  177.0630  139.5420 C   0  0  0  0  0  2  0  0  0  0  0  0
  190.4830  176.5480  137.5170 C   0  0  0  0  0  2  0  0  0  0  0  0
  191.3540  176.2160  138.7090 C   0  0  0  0  0  2  0  0  0  0  0  0
  184.8910  179.1660  143.1200 C   0  0  0  0  0  2  0  0  0  0  0  0
  183.4510  178.9760  143.1870 N   0  0  0  0  0  2  0  0  0  0  0  0
  182.7440  178.9310  144.4280 C   0  0  0  0  0  0  0  0  0  0  0  0
  181.3250  178.7910  144.4480 N   0  0  0  0  0  2  0  0  0  0  0  0
  183.3720  179.0030  145.5180 O   0  0  0  0  0  0  0  0  0  0  0  0
  180.5380  178.7520  143.2280 C   0  0  0  0  0  3  0  0  0  0  0  0
  179.1020  179.1220  143.5490 C   0  0  0  0  0  2  0  0  0  0  0  0
  180.0260  180.1420  142.9170 C   0  0  0  0  0  2  0  0  0  0  0  0
  1 16  1  6  0  0  0
  1  2  1  0  0  0  0
  1 31  1  0  0  0  0
  2  3  1  0  0  0  0
  4  8  1  0  0  0  0
  5 10  1  0  0  0  0
  5 11  1  0  0  0  0
  7  4  1  0  0  0  0
  8 13  2  0  0  0  0
  9  6  1  0  0  0  0
 10  3  1  6  0  0  0
 10 12  1  0  0  0  0
 11  4  2  0  0  0  0
 11 15  1  0  0  0  0
 12 15  1  0  0  0  0
 12 14  1  1  0  0  0
 13  9  1  0  0  0  0
 14  6  2  0  0  0  0
 15  9  2  0  0  0  0
 17 19  1  6  0  0  0
 17 16  1  0  0  0  0
 19 18  1  0  0  0  0
 20 17  1  0  0  0  0
 21 24  2  0  0  0  0
 22 21  1  0  0  0  0
 23 20  1  0  0  0  0
 24 23  2  0  0  0  0
 25 21  1  6  0  0  0
 25 28  1  0  0  0  0
 26 27  1  0  0  0  0
 28 26  1  0  0  0  0
 29 25  1  0  0  0  0
 29 30  1  0  0  0  0
 30 26  1  0  0  0  0
 31 32  1  0  0  0  0
 32 33  1  0  0  0  0
 33 34  1  0  0  0  0
 33 35  2  0  0  0  0
 36 37  1  0  0  0  0
 36 34  1  0  0  0  0
 38 36  1  0  0  0  0
 38 37  1  0  0  0  0
M  END
>  <MODEL>
8

>  <REMARK>
 VINA RESULT:      -8.3      2.859      6.738
  Name = 
  12 active torsions:
  status: ('A' for Active; 'I' for Inactive)
    1  A    between atoms: C_2  and  N_23
    2  A    between atoms: N_3  and  C_36
    3  A    between atoms: C_4  and  C_14
    4  A    between atoms: C_4  and  O_15
    5  A    between atoms: N_8  and  CA_19
    6  A    between atoms: N_8  and  C_37
    7  A    between atoms: C_11  and  C_21
    8  A    between atoms: C_14  and  C_32
    9  A    between atoms: C_14  and  C_36
   10  A    between atoms: O_15  and  C_18
   11  A    between atoms: CA_19  and  C_26
   12  A    between atoms: CA_19  and  C_32
                            x       y       z     vdW  Elec       q    Type
                         _______ _______ _______ _____ _____    ______ ____

>  <TORSDO>
F 12

$$$$
=
 OpenBabel10222416263D

 38 42  0  0  1  0  0  0  0  0999 V2000
  184.2910  178.7520  139.8830 C   0  0  2  0  0  3  0  0  0  0  0  0
  185.1530  178.3420  138.7000 C   0  0  0  0  0  2  0  0  0  0  0  0
  186.5110  178.6510  138.9690 O   0  0  0  0  0  0  0  0  0  0  0  0
  188.9820  175.2040  136.9710 C   0  0  0  0  0  0  0  0  0  0  0  0
  187.3970  177.0420  137.4260 C   0  0  0  0  0  2  0  0  0  0  0  0
  190.6170  177.0410  140.0250 C   0  0  0  0  0  3  0  0  0  0  0  0
  187.9920  174.3680  136.3830 N   0  0  0  0  0  1  0  0  0  0  0  0
  190.1250  174.5980  137.6070 N   0  0  0  0  0  0  0  0  0  0  0  0
  190.8720  176.6980  138.5860 C   0  0  0  0  0  0  0  0  0  0  0  0
  187.5590  177.9200  138.4110 C   0  0  1  0  0  3  0  0  0  0  0  0
  188.7350  176.4990  137.1740 C   0  0  0  0  0  0  0  0  0  0  0  0
  188.9720  178.0000  138.7950 C   0  0  1  0  0  3  0  0  0  0  0  0
  190.9470  175.2470  138.3470 N   0  0  0  0  0  0  0  0  0  0  0  0
  189.5330  177.8150  140.1320 C   0  0  0  0  0  3  0  0  0  0  0  0
  189.6630  177.2780  137.9600 C   0  0  0  0  0  0  0  0  0  0  0  0
  185.1340  179.2290  141.0710 C   0  0  0  0  0  2  0  0  0  0  0  0
  185.2790  178.2070  142.2040 C   0  0  2  0  0  3  0  0  0  0  0  0
  184.5750  180.1060  143.4740 O   0  0  0  0  0  1  0  0  0  0  0  0
  184.5670  178.7110  143.4460 C   0  0  0  0  0  2  0  0  0  0  0  0
  186.6800  177.8920  142.4940 N   0  0  0  0  0  2  0  0  0  0  0  0
  189.6980  176.7320  144.0470 C   0  0  0  0  0  0  0  0  0  0  0  0
  190.5070  175.9970  143.1910 O   0  0  0  0  0  1  0  0  0  0  0  0
  187.1570  176.9770  143.4880 C   0  0  0  0  0  3  0  0  0  0  0  0
  188.4250  176.8490  143.7680 C   0  0  0  0  0  0  0  0  0  0  0  0
  190.3220  177.3860  145.2510 C   0  0  2  0  0  3  0  0  0  0  0  0
  191.7000  176.9000  147.1520 N   0  0  0  0  0  0  0  0  0  0  0  0
  192.1070  175.6120  147.6800 C   0  0  0  0  0  1  0  0  0  0  0  0
  191.6250  176.7580  145.7060 C   0  0  0  0  0  2  0  0  0  0  0  0
  189.4140  177.2720  146.4430 C   0  0  0  0  0  2  0  0  0  0  0  0
  190.3430  177.1510  147.6320 C   0  0  0  0  0  2  0  0  0  0  0  0
  183.3350  177.6360  140.2720 C   0  0  0  0  0  2  0  0  0  0  0  0
  182.2130  178.1870  141.0150 N   0  0  0  0  0  2  0  0  0  0  0  0
  180.8890  177.6580  140.9020 C   0  0  0  0  0  0  0  0  0  0  0  0
  179.8260  178.1960  141.6850 N   0  0  0  0  0  2  0  0  0  0  0  0
  180.6490  176.7180  140.0980 O   0  0  0  0  0  0  0  0  0  0  0  0
  180.0450  179.2450  142.6650 C   0  0  0  0  0  3  0  0  0  0  0  0
  178.9330  179.2060  143.6950 C   0  0  0  0  0  2  0  0  0  0  0  0
  180.2910  178.6210  144.0220 C   0  0  0  0  0  2  0  0  0  0  0  0
  1  2  1  6  0  0  0
  1 31  1  0  0  0  0
  1 16  1  0  0  0  0
  2  3  1  0  0  0  0
  4 11  2  0  0  0  0
  4  8  1  0  0  0  0
  5 10  1  0  0  0  0
  6 14  2  0  0  0  0
  7  4  1  0  0  0  0
  8 13  2  0  0  0  0
  9  6  1  0  0  0  0
 10 12  1  0  0  0  0
 10  3  1  6  0  0  0
 11  5  1  0  0  0  0
 11 15  1  0  0  0  0
 12 14  1  1  0  0  0
 13  9  1  0  0  0  0
 15  9  2  0  0  0  0
 15 12  1  0  0  0  0
 17 16  1  6  0  0  0
 17 20  1  0  0  0  0
 17 19  1  0  0  0  0
 19 18  1  0  0  0  0
 20 23  1  0  0  0  0
 22 21  1  0  0  0  0
 23 24  2  0  0  0  0
 24 21  2  0  0  0  0
 25 21  1  6  0  0  0
 25 28  1  0  0  0  0
 25 29  1  0  0  0  0
 26 30  1  0  0  0  0
 26 27  1  0  0  0  0
 28 26  1  0  0  0  0
 29 30  1  0  0  0  0
 31 32  1  0  0  0  0
 33 32  1  0  0  0  0
 33 34  1  0  0  0  0
 34 36  1  0  0  0  0
 35 33  2  0  0  0  0
 36 37  1  0  0  0  0
 36 38  1  0  0  0  0
 37 38  1  0  0  0  0
M  END
>  <MODEL>
9

>  <REMARK>
 VINA RESULT:      -8.3      3.212      9.048
  Name = 
  12 active torsions:
  status: ('A' for Active; 'I' for Inactive)
    1  A    between atoms: C_2  and  N_23
    2  A    between atoms: N_3  and  C_36
    3  A    between atoms: C_4  and  C_14
    4  A    between atoms: C_4  and  O_15
    5  A    between atoms: N_8  and  CA_19
    6  A    between atoms: N_8  and  C_37
    7  A    between atoms: C_11  and  C_21
    8  A    between atoms: C_14  and  C_32
    9  A    between atoms: C_14  and  C_36
   10  A    between atoms: O_15  and  C_18
   11  A    between atoms: CA_19  and  C_26
   12  A    between atoms: CA_19  and  C_32
                            x       y       z     vdW  Elec       q    Type
                         _______ _______ _______ _____ _____    ______ ____

>  <TORSDO>
F 12

$$$$
