=
 OpenBabel10222421213D

 45 50  0  0  1  0  0  0  0  0999 V2000
  185.6450  179.3780  141.9340 C   0  0  0  0  0  1  0  0  0  0  0  0
  182.1760  178.7800  141.9560 C   0  0  0  0  0  0  0  0  0  0  0  0
  182.1440  173.6950  135.5910 C   0  0  0  0  0  3  0  0  0  0  0  0
  184.2800  178.7060  143.8860 C   0  0  0  0  0  0  0  0  0  0  0  0
  183.4420  176.9530  139.2960 C   0  0  0  0  0  0  0  0  0  0  0  0
  180.6010  177.4710  140.4590 C   0  0  0  0  0  2  0  0  0  0  0  0
  182.0060  179.1890  143.1790 N   0  0  0  0  0  0  0  0  0  0  0  0
  182.1180  176.2510  139.0820 C   0  0  2  0  0  3  0  0  0  0  0  0
  184.2550  177.3210  138.1630 N   0  0  0  0  0  0  0  0  0  0  0  0
  183.0060  174.7940  135.6470 C   0  0  0  0  0  3  0  0  0  0  0  0
  181.3140  173.4050  136.6760 C   0  0  0  0  0  3  0  0  0  0  0  0
  181.0410  178.8550  140.9460 C   0  0  1  0  0  3  0  0  0  0  0  0
  182.1720  175.3440  137.8640 C   0  0  0  0  0  0  0  0  0  0  0  0
  183.4890  178.2220  141.5610 C   0  0  0  0  0  0  0  0  0  0  0  0
  185.3520  178.2750  138.3020 C   0  0  0  0  0  1  0  0  0  0  0  0
  179.8200  176.7650  138.3990 C   0  0  0  0  0  1  0  0  0  0  0  0
  181.0170  177.2510  139.0730 N   0  0  0  0  0  0  0  0  0  0  0  0
  184.0200  176.7020  136.8910 C   0  0  0  0  0  0  0  0  0  0  0  0
  183.5730  177.5710  140.4370 C   0  0  0  0  0  0  0  0  0  0  0  0
  184.6850  177.0570  135.8780 O   0  0  0  0  0  0  0  0  0  0  0  0
  183.0320  175.6160  136.7820 C   0  0  0  0  0  0  0  0  0  0  0  0
  184.6740  178.3420  142.4760 C   0  0  1  0  0  3  0  0  0  0  0  0
  181.3310  174.2240  137.8080 C   0  0  0  0  0  3  0  0  0  0  0  0
  183.0370  179.1210  144.1760 C   0  0  0  0  0  3  0  0  0  0  0  0
  185.2520  178.6170  144.8860 O   0  0  0  0  0  0  0  0  0  0  0  0
  185.7440  177.4010  145.3140 N   0  0  0  0  0  2  0  0  0  0  0  0
  187.0040  177.6650  145.9890 C   0  0  0  0  0  2  0  0  0  0  0  0
  190.0090  177.1900  142.5230 C   0  0  0  0  0  2  0  0  0  0  0  0
  190.7180  177.7330  144.9320 C   0  0  0  0  0  2  0  0  0  0  0  0
  189.0330  176.1600  143.0970 C   0  0  0  0  0  2  0  0  0  0  0  0
  189.4530  177.2850  145.6860 C   0  0  0  0  0  2  0  0  0  0  0  0
  187.8120  176.7780  143.7880 C   0  0  0  0  0  2  0  0  0  0  0  0
  190.4590  178.2680  143.5180 C   0  0  0  0  0  2  0  0  0  0  0  0
  188.1480  177.6800  144.9880 C   0  0  0  0  0  3  0  0  0  0  0  0
  179.8480  179.7050  141.3900 C   0  0  0  0  0  2  0  0  0  0  0  0
  179.0210  180.0900  140.2540 N   0  0  0  0  0  2  0  0  0  0  0  0
  178.9310  182.4110  140.5220 O   0  0  0  0  0  1  0  0  0  0  0  0
  179.5080  181.3770  139.7800 C   0  0  2  0  0  3  0  0  0  0  0  0
  181.4330  182.5340  138.0520 O   0  0  0  0  0  1  0  0  0  0  0  0
  180.2520  181.7410  136.1940 C   0  0  0  0  0  0  0  0  0  0  0  0
  180.7920  182.2220  135.1650 O   0  0  0  0  0  0  0  0  0  0  0  0
  179.2220  181.5360  138.2830 C   0  0  1  0  0  3  0  0  0  0  0  0
  180.1590  182.4600  137.4810 C   0  0  1  0  0  3  0  0  0  0  0  0
  179.6750  180.4510  136.2160 N   0  0  0  0  0  2  0  0  0  0  0  0
  179.1670  180.1910  137.5490 C   0  0  0  0  0  2  0  0  0  0  0  0
  2  7  2  0  0  0  0
  3 10  2  0  0  0  0
  3 11  1  0  0  0  0
  4 24  2  0  0  0  0
  4 25  1  0  0  0  0
  5 19  2  0  0  0  0
  6 12  1  0  0  0  0
  7 24  1  0  0  0  0
  8 13  1  6  0  0  0
  8  5  1  0  0  0  0
  9 15  1  0  0  0  0
  9  5  1  0  0  0  0
 10 21  1  0  0  0  0
 11 23  2  0  0  0  0
 12 35  1  1  0  0  0
 12  2  1  0  0  0  0
 14  2  1  0  0  0  0
 14 22  1  0  0  0  0
 16 17  1  0  0  0  0
 17  8  1  0  0  0  0
 17  6  1  0  0  0  0
 18  9  1  0  0  0  0
 19 14  2  0  0  0  0
 20 18  2  0  0  0  0
 21 18  1  0  0  0  0
 21 13  2  0  0  0  0
 22  1  1  6  0  0  0
 22  4  1  0  0  0  0
 23 13  1  0  0  0  0
 25 26  1  0  0  0  0
 26 27  1  0  0  0  0
 28 30  1  0  0  0  0
 28 33  1  0  0  0  0
 29 31  1  0  0  0  0
 30 32  1  0  0  0  0
 32 34  1  0  0  0  0
 33 29  1  0  0  0  0
 34 31  1  0  0  0  0
 34 27  1  0  0  0  0
 36 35  1  0  0  0  0
 38 36  1  0  0  0  0
 38 37  1  1  0  0  0
 40 44  1  0  0  0  0
 40 43  1  0  0  0  0
 41 40  2  0  0  0  0
 42 38  1  1  0  0  0
 43 39  1  1  0  0  0
 43 42  1  0  0  0  0
 44 45  1  0  0  0  0
 45 42  1  0  0  0  0
M  END
>  <MODEL>
1

>  <REMARK>
 VINA RESULT:      -8.6      0.000      0.000
  Name = 
  8 active torsions:
  status: ('A' for Active; 'I' for Inactive)
    1  A    between atoms: C_7  and  O_29
    2  A    between atoms: N_15  and  C_30
    3  A    between atoms: N_15  and  C_39
    4  A    between atoms: C_21  and  C_28
    5  A    between atoms: C_21  and  N_33
    6  A    between atoms: C_22  and  C_39
    7  A    between atoms: O_29  and  N_33
    8  A    between atoms: C_30  and  C_36
                            x       y       z     vdW  Elec       q    Type
                         _______ _______ _______ _____ _____    ______ ____

>  <TORSDO>
F 8

$$$$
=
 OpenBabel10222421213D

 45 50  0  0  1  0  0  0  0  0999 V2000
  192.1090  177.7120  140.0670 C   0  0  0  0  0  1  0  0  0  0  0  0
  188.6810  177.5200  139.2910 C   0  0  0  0  0  0  0  0  0  0  0  0
  189.2360  170.8880  134.5940 C   0  0  0  0  0  3  0  0  0  0  0  0
  190.2320  177.7650  141.6770 C   0  0  0  0  0  0  0  0  0  0  0  0
  190.1890  174.8950  137.6030 C   0  0  0  0  0  0  0  0  0  0  0  0
  187.2930  176.0200  137.7890 C   0  0  0  0  0  2  0  0  0  0  0  0
  188.3060  178.2720  140.2850 N   0  0  0  0  0  0  0  0  0  0  0  0
  188.8490  174.3080  137.2150 C   0  0  2  0  0  3  0  0  0  0  0  0
  191.2950  174.8410  136.6790 N   0  0  0  0  0  0  0  0  0  0  0  0
  190.2400  171.8590  134.6110 C   0  0  0  0  0  3  0  0  0  0  0  0
  188.1380  171.0040  135.4490 C   0  0  0  0  0  3  0  0  0  0  0  0
  187.8440  177.4300  138.0250 C   0  0  1  0  0  3  0  0  0  0  0  0
  189.0240  173.0960  136.3160 C   0  0  0  0  0  0  0  0  0  0  0  0
  189.9300  176.7360  139.4150 C   0  0  0  0  0  0  0  0  0  0  0  0
  192.4800  175.6720  136.8730 C   0  0  0  0  0  1  0  0  0  0  0  0
  186.9000  174.8530  135.8300 C   0  0  0  0  0  1  0  0  0  0  0  0
  187.9740  175.3770  136.6650 N   0  0  0  0  0  0  0  0  0  0  0  0
  191.2570  173.9180  135.5810 C   0  0  0  0  0  0  0  0  0  0  0  0
  190.1580  175.7910  138.5500 C   0  0  0  0  0  0  0  0  0  0  0  0
  192.1910  173.9020  134.7310 O   0  0  0  0  0  0  0  0  0  0  0  0
  190.1460  172.9590  135.4750 C   0  0  0  0  0  0  0  0  0  0  0  0
  190.8720  176.9800  140.5600 C   0  0  1  0  0  3  0  0  0  0  0  0
  188.0350  172.1020  136.3080 C   0  0  0  0  0  3  0  0  0  0  0  0
  189.0480  178.3760  141.5090 C   0  0  0  0  0  3  0  0  0  0  0  0
  190.9130  177.8560  142.8940 O   0  0  0  0  0  0  0  0  0  0  0  0
  190.5470  178.7670  143.8640 N   0  0  0  0  0  2  0  0  0  0  0  0
  190.3100  178.0150  145.0860 C   0  0  0  0  0  2  0  0  0  0  0  0
  186.2150  178.3860  147.1760 C   0  0  0  0  0  2  0  0  0  0  0  0
  186.5020  177.4370  144.8050 C   0  0  0  0  0  2  0  0  0  0  0  0
  187.4380  177.5660  147.5970 C   0  0  0  0  0  2  0  0  0  0  0  0
  188.0020  177.0950  144.8390 C   0  0  0  0  0  2  0  0  0  0  0  0
  188.7660  178.1120  147.0590 C   0  0  0  0  0  2  0  0  0  0  0  0
  186.1060  178.6430  145.6680 C   0  0  0  0  0  2  0  0  0  0  0  0
  188.8620  178.1610  145.5250 C   0  0  0  0  0  3  0  0  0  0  0  0
  186.7490  178.4940  137.9080 C   0  0  0  0  0  2  0  0  0  0  0  0
  185.4240  177.8890  137.8890 N   0  0  0  0  0  2  0  0  0  0  0  0
  185.3530  179.3980  139.6730 O   0  0  0  0  0  1  0  0  0  0  0  0
  184.5720  178.6830  138.7610 C   0  0  2  0  0  3  0  0  0  0  0  0
  182.0180  179.6730  139.4850 O   0  0  0  0  0  1  0  0  0  0  0  0
  181.2720  177.4880  139.8680 C   0  0  0  0  0  0  0  0  0  0  0  0
  180.1210  177.5610  140.3720 O   0  0  0  0  0  0  0  0  0  0  0  0
  183.5570  177.7840  139.4760 C   0  0  1  0  0  3  0  0  0  0  0  0
  182.3410  178.4740  140.1260 C   0  0  1  0  0  3  0  0  0  0  0  0
  181.6530  176.4440  138.9960 N   0  0  0  0  0  2  0  0  0  0  0  0
  183.0220  176.6670  138.5740 C   0  0  0  0  0  2  0  0  0  0  0  0
  2 14  1  0  0  0  0
  2  7  2  0  0  0  0
  3 10  2  0  0  0  0
  3 11  1  0  0  0  0
  4 25  1  0  0  0  0
  5 19  2  0  0  0  0
  6 12  1  0  0  0  0
  7 24  1  0  0  0  0
  8 13  1  6  0  0  0
  8  5  1  0  0  0  0
  9 15  1  0  0  0  0
  9  5  1  0  0  0  0
 10 21  1  0  0  0  0
 11 23  2  0  0  0  0
 12 35  1  1  0  0  0
 12  2  1  0  0  0  0
 14 22  1  0  0  0  0
 16 17  1  0  0  0  0
 17  8  1  0  0  0  0
 17  6  1  0  0  0  0
 18  9  1  0  0  0  0
 19 14  2  0  0  0  0
 20 18  2  0  0  0  0
 21 18  1  0  0  0  0
 21 13  2  0  0  0  0
 22  1  1  6  0  0  0
 22  4  1  0  0  0  0
 23 13  1  0  0  0  0
 24  4  2  0  0  0  0
 25 26  1  0  0  0  0
 26 27  1  0  0  0  0
 27 34  1  0  0  0  0
 28 30  1  0  0  0  0
 29 31  1  0  0  0  0
 29 33  1  0  0  0  0
 31 34  1  0  0  0  0
 32 30  1  0  0  0  0
 33 28  1  0  0  0  0
 34 32  1  0  0  0  0
 36 35  1  0  0  0  0
 36 38  1  0  0  0  0
 38 37  1  1  0  0  0
 40 43  1  0  0  0  0
 40 41  2  0  0  0  0
 42 38  1  6  0  0  0
 42 43  1  0  0  0  0
 43 39  1  6  0  0  0
 44 40  1  0  0  0  0
 45 44  1  0  0  0  0
 45 42  1  0  0  0  0
M  END
>  <MODEL>
2

>  <REMARK>
 VINA RESULT:      -8.0      4.326      6.501
  Name = 
  8 active torsions:
  status: ('A' for Active; 'I' for Inactive)
    1  A    between atoms: C_7  and  O_29
    2  A    between atoms: N_15  and  C_30
    3  A    between atoms: N_15  and  C_39
    4  A    between atoms: C_21  and  C_28
    5  A    between atoms: C_21  and  N_33
    6  A    between atoms: C_22  and  C_39
    7  A    between atoms: O_29  and  N_33
    8  A    between atoms: C_30  and  C_36
                            x       y       z     vdW  Elec       q    Type
                         _______ _______ _______ _____ _____    ______ ____

>  <TORSDO>
F 8

$$$$
=
 OpenBabel10222421213D

 45 50  0  0  1  0  0  0  0  0999 V2000
  191.0940  177.9290  141.6600 C   0  0  0  0  0  1  0  0  0  0  0  0
  188.8710  177.5390  138.9580 C   0  0  0  0  0  0  0  0  0  0  0  0
  193.4890  172.2700  134.8030 C   0  0  0  0  0  3  0  0  0  0  0  0
  188.6810  177.4000  141.8050 C   0  0  0  0  0  0  0  0  0  0  0  0
  191.6190  175.5580  138.2260 C   0  0  0  0  0  0  0  0  0  0  0  0
  188.9700  176.2800  136.7590 C   0  0  0  0  0  2  0  0  0  0  0  0
  187.8380  177.9950  139.6050 N   0  0  0  0  0  0  0  0  0  0  0  0
  190.9140  174.9300  137.0420 C   0  0  2  0  0  3  0  0  0  0  0  0
  193.0320  175.8420  138.1560 N   0  0  0  0  0  0  0  0  0  0  0  0
  194.0520  173.3160  135.5370 C   0  0  0  0  0  3  0  0  0  0  0  0
  192.1080  172.0630  134.8300 C   0  0  0  0  0  3  0  0  0  0  0  0
  188.9510  177.6500  137.4440 C   0  0  1  0  0  3  0  0  0  0  0  0
  191.8400  173.9840  136.2950 C   0  0  0  0  0  0  0  0  0  0  0  0
  189.9650  176.8920  139.7170 C   0  0  0  0  0  0  0  0  0  0  0  0
  193.6690  176.7330  139.1230 C   0  0  0  0  0  1  0  0  0  0  0  0
  190.0410  175.5590  134.8380 C   0  0  0  0  0  1  0  0  0  0  0  0
  190.2950  175.9930  136.2070 N   0  0  0  0  0  0  0  0  0  0  0  0
  193.8370  175.1980  137.1590 C   0  0  0  0  0  0  0  0  0  0  0  0
  190.8520  176.2030  139.0600 C   0  0  0  0  0  0  0  0  0  0  0  0
  195.0620  175.4820  137.0490 O   0  0  0  0  0  0  0  0  0  0  0  0
  193.2370  174.1710  136.2920 C   0  0  0  0  0  0  0  0  0  0  0  0
  190.0020  176.9690  141.2160 C   0  0  1  0  0  3  0  0  0  0  0  0
  191.2890  172.9150  135.5750 C   0  0  0  0  0  3  0  0  0  0  0  0
  187.7030  177.8970  141.0310 C   0  0  0  0  0  3  0  0  0  0  0  0
  188.5050  177.2840  143.1860 O   0  0  0  0  0  0  0  0  0  0  0  0
  187.4240  177.8520  143.8300 N   0  0  0  0  0  2  0  0  0  0  0  0
  187.6830  177.7600  145.2580 C   0  0  0  0  0  2  0  0  0  0  0  0
  191.7250  176.1410  146.7800 C   0  0  0  0  0  2  0  0  0  0  0  0
  191.5250  177.8510  144.8730 C   0  0  0  0  0  2  0  0  0  0  0  0
  190.6620  176.9400  147.5390 C   0  0  0  0  0  2  0  0  0  0  0  0
  190.1000  178.3720  145.1360 C   0  0  0  0  0  2  0  0  0  0  0  0
  189.2480  176.7970  146.9640 C   0  0  0  0  0  2  0  0  0  0  0  0
  191.7470  176.3850  145.2660 C   0  0  0  0  0  2  0  0  0  0  0  0
  189.1010  177.2720  145.5080 C   0  0  0  0  0  3  0  0  0  0  0  0
  187.9120  178.5830  136.8170 C   0  0  0  0  0  2  0  0  0  0  0  0
  186.9270  177.8350  136.0460 N   0  0  0  0  0  2  0  0  0  0  0  0
  185.7450  178.9220  137.7450 O   0  0  0  0  0  1  0  0  0  0  0  0
  185.6510  177.9620  136.7340 C   0  0  2  0  0  3  0  0  0  0  0  0
  182.9020  177.3550  137.0560 O   0  0  0  0  0  1  0  0  0  0  0  0
  183.4270  175.0910  137.3290 C   0  0  0  0  0  0  0  0  0  0  0  0
  182.3700  174.4910  137.6520 O   0  0  0  0  0  0  0  0  0  0  0  0
  185.2080  176.6040  137.2900 C   0  0  1  0  0  3  0  0  0  0  0  0
  183.7410  176.4740  137.7430 C   0  0  1  0  0  3  0  0  0  0  0  0
  184.4260  174.4920  136.5290 N   0  0  0  0  0  2  0  0  0  0  0  0
  185.4920  175.4510  136.3210 C   0  0  0  0  0  2  0  0  0  0  0  0
  2  7  2  0  0  0  0
  2 14  1  0  0  0  0
  3 11  2  0  0  0  0
  3 10  1  0  0  0  0
  4 25  1  0  0  0  0
  5 19  2  0  0  0  0
  6 12  1  0  0  0  0
  7 24  1  0  0  0  0
  8 13  1  6  0  0  0
  8  5  1  0  0  0  0
  9  5  1  0  0  0  0
  9 15  1  0  0  0  0
 10 21  2  0  0  0  0
 11 23  1  0  0  0  0
 12 35  1  6  0  0  0
 12  2  1  0  0  0  0
 14 22  1  0  0  0  0
 16 17  1  0  0  0  0
 17  6  1  0  0  0  0
 17  8  1  0  0  0  0
 18  9  1  0  0  0  0
 19 14  2  0  0  0  0
 20 18  2  0  0  0  0
 21 13  1  0  0  0  0
 21 18  1  0  0  0  0
 22  1  1  6  0  0  0
 22  4  1  0  0  0  0
 23 13  2  0  0  0  0
 24  4  2  0  0  0  0
 25 26  1  0  0  0  0
 26 27  1  0  0  0  0
 27 34  1  0  0  0  0
 28 30  1  0  0  0  0
 29 31  1  0  0  0  0
 29 33  1  0  0  0  0
 31 34  1  0  0  0  0
 32 30  1  0  0  0  0
 33 28  1  0  0  0  0
 34 32  1  0  0  0  0
 36 38  1  0  0  0  0
 36 35  1  0  0  0  0
 38 37  1  1  0  0  0
 40 41  2  0  0  0  0
 40 43  1  0  0  0  0
 42 38  1  6  0  0  0
 42 43  1  0  0  0  0
 43 39  1  6  0  0  0
 44 40  1  0  0  0  0
 45 44  1  0  0  0  0
 45 42  1  0  0  0  0
M  END
>  <MODEL>
3

>  <REMARK>
 VINA RESULT:      -7.6      4.848      7.721
  Name = 
  8 active torsions:
  status: ('A' for Active; 'I' for Inactive)
    1  A    between atoms: C_7  and  O_29
    2  A    between atoms: N_15  and  C_30
    3  A    between atoms: N_15  and  C_39
    4  A    between atoms: C_21  and  C_28
    5  A    between atoms: C_21  and  N_33
    6  A    between atoms: C_22  and  C_39
    7  A    between atoms: O_29  and  N_33
    8  A    between atoms: C_30  and  C_36
                            x       y       z     vdW  Elec       q    Type
                         _______ _______ _______ _____ _____    ______ ____

>  <TORSDO>
F 8

$$$$
=
 OpenBabel10222421213D

 45 50  0  0  1  0  0  0  0  0999 V2000
  191.9340  177.8550  141.2690 C   0  0  0  0  0  1  0  0  0  0  0  0
  189.0340  177.5010  139.3070 C   0  0  0  0  0  0  0  0  0  0  0  0
  191.9130  171.5140  134.5940 C   0  0  0  0  0  3  0  0  0  0  0  0
  189.6200  177.5830  142.1010 C   0  0  0  0  0  0  0  0  0  0  0  0
  191.3130  175.2070  138.0610 C   0  0  0  0  0  0  0  0  0  0  0  0
  188.4280  176.0870  137.2910 C   0  0  0  0  0  2  0  0  0  0  0  0
  188.2560  178.1040  140.1580 N   0  0  0  0  0  0  0  0  0  0  0  0
  190.2650  174.5710  137.1730 C   0  0  2  0  0  3  0  0  0  0  0  0
  192.6710  175.3410  137.5920 N   0  0  0  0  0  0  0  0  0  0  0  0
  192.7350  172.5470  135.0480 C   0  0  0  0  0  3  0  0  0  0  0  0
  190.5800  171.4490  135.0070 C   0  0  0  0  0  3  0  0  0  0  0  0
  188.7050  177.4970  137.8220 C   0  0  1  0  0  3  0  0  0  0  0  0
  190.8740  173.4860  136.3010 C   0  0  0  0  0  0  0  0  0  0  0  0
  190.2400  176.8020  139.8050 C   0  0  0  0  0  0  0  0  0  0  0  0
  193.6150  176.2290  138.2650 C   0  0  0  0  0  1  0  0  0  0  0  0
  188.8730  175.1270  135.2320 C   0  0  0  0  0  1  0  0  0  0  0  0
  189.5250  175.6290  136.4360 N   0  0  0  0  0  0  0  0  0  0  0  0
  193.1190  174.5510  136.4820 C   0  0  0  0  0  0  0  0  0  0  0  0
  190.8570  175.9830  139.0040 C   0  0  0  0  0  0  0  0  0  0  0  0
  194.2860  174.7010  136.0240 O   0  0  0  0  0  0  0  0  0  0  0  0
  192.2270  173.5300  135.9080 C   0  0  0  0  0  0  0  0  0  0  0  0
  190.6910  176.9810  141.2260 C   0  0  1  0  0  3  0  0  0  0  0  0
  190.0650  172.4300  135.8580 C   0  0  0  0  0  3  0  0  0  0  0  0
  188.5100  178.1210  141.5710 C   0  0  0  0  0  3  0  0  0  0  0  0
  189.8200  177.5840  143.4840 O   0  0  0  0  0  0  0  0  0  0  0  0
  188.9660  176.9210  144.3410 N   0  0  0  0  0  2  0  0  0  0  0  0
  188.5410  177.8820  145.3460 C   0  0  0  0  0  2  0  0  0  0  0  0
  184.0720  179.0160  145.4620 C   0  0  0  0  0  2  0  0  0  0  0  0
  185.1850  177.8970  143.4350 C   0  0  0  0  0  2  0  0  0  0  0  0
  184.8400  178.0400  146.3580 C   0  0  0  0  0  2  0  0  0  0  0  0
  186.4450  177.3250  144.1100 C   0  0  0  0  0  2  0  0  0  0  0  0
  186.3400  178.3370  146.4580 C   0  0  0  0  0  2  0  0  0  0  0  0
  184.6660  179.1980  144.0590 C   0  0  0  0  0  2  0  0  0  0  0  0
  187.0920  178.2810  145.1170 C   0  0  0  0  0  3  0  0  0  0  0  0
  187.6090  178.4830  137.4080 C   0  0  0  0  0  2  0  0  0  0  0  0
  186.7310  177.9050  136.4000 N   0  0  0  0  0  2  0  0  0  0  0  0
  185.4280  178.2020  138.3180 O   0  0  0  0  0  1  0  0  0  0  0  0
  185.3890  177.8730  136.9610 C   0  0  2  0  0  3  0  0  0  0  0  0
  182.7060  177.6470  136.0760 O   0  0  0  0  0  1  0  0  0  0  0  0
  183.0580  175.3910  135.5640 C   0  0  0  0  0  0  0  0  0  0  0  0
  181.9470  174.8950  135.2450 O   0  0  0  0  0  0  0  0  0  0  0  0
  184.7510  176.4980  136.7360 C   0  0  1  0  0  3  0  0  0  0  0  0
  183.2190  176.4490  136.5820 C   0  0  1  0  0  3  0  0  0  0  0  0
  184.2720  174.9770  134.9710 N   0  0  0  0  0  2  0  0  0  0  0  0
  185.3550  175.7580  135.5370 C   0  0  0  0  0  2  0  0  0  0  0  0
  2 14  1  0  0  0  0
  2  7  2  0  0  0  0
  3 11  2  0  0  0  0
  3 10  1  0  0  0  0
  4 25  1  0  0  0  0
  5 19  2  0  0  0  0
  6 12  1  0  0  0  0
  7 24  1  0  0  0  0
  8 13  1  6  0  0  0
  8  5  1  0  0  0  0
  9  5  1  0  0  0  0
  9 15  1  0  0  0  0
 10 21  2  0  0  0  0
 11 23  1  0  0  0  0
 12 35  1  1  0  0  0
 12  2  1  0  0  0  0
 14 22  1  0  0  0  0
 16 17  1  0  0  0  0
 17  8  1  0  0  0  0
 17  6  1  0  0  0  0
 18  9  1  0  0  0  0
 19 14  2  0  0  0  0
 20 18  2  0  0  0  0
 21 13  1  0  0  0  0
 21 18  1  0  0  0  0
 22  1  1  6  0  0  0
 22  4  1  0  0  0  0
 23 13  2  0  0  0  0
 24  4  2  0  0  0  0
 25 26  1  0  0  0  0
 26 27  1  0  0  0  0
 28 30  1  0  0  0  0
 29 33  1  0  0  0  0
 29 31  1  0  0  0  0
 30 32  1  0  0  0  0
 31 34  1  0  0  0  0
 33 28  1  0  0  0  0
 34 27  1  0  0  0  0
 34 32  1  0  0  0  0
 36 38  1  0  0  0  0
 36 35  1  0  0  0  0
 38 37  1  1  0  0  0
 40 43  1  0  0  0  0
 41 40  2  0  0  0  0
 42 38  1  6  0  0  0
 43 39  1  6  0  0  0
 43 42  1  0  0  0  0
 44 45  1  0  0  0  0
 44 40  1  0  0  0  0
 45 42  1  0  0  0  0
M  END
>  <MODEL>
4

>  <REMARK>
 VINA RESULT:      -7.3      4.726      7.520
  Name = 
  8 active torsions:
  status: ('A' for Active; 'I' for Inactive)
    1  A    between atoms: C_7  and  O_29
    2  A    between atoms: N_15  and  C_30
    3  A    between atoms: N_15  and  C_39
    4  A    between atoms: C_21  and  C_28
    5  A    between atoms: C_21  and  N_33
    6  A    between atoms: C_22  and  C_39
    7  A    between atoms: O_29  and  N_33
    8  A    between atoms: C_30  and  C_36
                            x       y       z     vdW  Elec       q    Type
                         _______ _______ _______ _____ _____    ______ ____

>  <TORSDO>
F 8

$$$$
=
 OpenBabel10222421213D

 45 50  0  0  1  0  0  0  0  0999 V2000
  192.0610  177.5260  141.0510 C   0  0  0  0  0  1  0  0  0  0  0  0
  189.5750  177.1630  138.5860 C   0  0  0  0  0  0  0  0  0  0  0  0
  193.2080  171.0600  134.5970 C   0  0  0  0  0  3  0  0  0  0  0  0
  189.6280  177.2920  141.4390 C   0  0  0  0  0  0  0  0  0  0  0  0
  192.0180  174.8240  137.8280 C   0  0  0  0  0  0  0  0  0  0  0  0
  189.3390  175.7160  136.5160 C   0  0  0  0  0  2  0  0  0  0  0  0
  188.6590  177.7890  139.2660 N   0  0  0  0  0  0  0  0  0  0  0  0
  191.1450  174.1810  136.7710 C   0  0  2  0  0  3  0  0  0  0  0  0
  193.4400  174.9360  137.6200 N   0  0  0  0  0  0  0  0  0  0  0  0
  193.9440  172.0940  135.1810 C   0  0  0  0  0  3  0  0  0  0  0  0
  191.8210  171.0160  134.7540 C   0  0  0  0  0  3  0  0  0  0  0  0
  189.5290  177.1340  137.0660 C   0  0  1  0  0  3  0  0  0  0  0  0
  191.8930  173.0750  136.0460 C   0  0  0  0  0  0  0  0  0  0  0  0
  190.6570  176.4620  139.3130 C   0  0  0  0  0  0  0  0  0  0  0  0
  194.2530  175.8280  138.4420 C   0  0  0  0  0  1  0  0  0  0  0  0
  190.1490  174.7140  134.5940 C   0  0  0  0  0  1  0  0  0  0  0  0
  190.5710  175.2320  135.8900 N   0  0  0  0  0  0  0  0  0  0  0  0
  194.0780  174.1210  136.6270 C   0  0  0  0  0  0  0  0  0  0  0  0
  191.4020  175.6220  138.6560 C   0  0  0  0  0  0  0  0  0  0  0  0
  195.3120  174.2510  136.3930 O   0  0  0  0  0  0  0  0  0  0  0  0
  193.2960  173.0980  135.9130 C   0  0  0  0  0  0  0  0  0  0  0  0
  190.8370  176.6640  140.7900 C   0  0  1  0  0  3  0  0  0  0  0  0
  191.1680  172.0180  135.4780 C   0  0  0  0  0  3  0  0  0  0  0  0
  188.6440  177.8300  140.7010 C   0  0  0  0  0  3  0  0  0  0  0  0
  189.5660  177.3170  142.8340 O   0  0  0  0  0  0  0  0  0  0  0  0
  189.5670  178.5030  143.5390 N   0  0  0  0  0  2  0  0  0  0  0  0
  190.2360  178.2460  144.8050 C   0  0  0  0  0  2  0  0  0  0  0  0
  187.7320  177.6180  148.6270 C   0  0  0  0  0  2  0  0  0  0  0  0
  186.6890  177.9350  146.3000 C   0  0  0  0  0  2  0  0  0  0  0  0
  188.7570  176.6790  147.9840 C   0  0  0  0  0  2  0  0  0  0  0  0
  187.9050  177.5970  145.4180 C   0  0  0  0  0  2  0  0  0  0  0  0
  189.8030  177.3970  147.1240 C   0  0  0  0  0  2  0  0  0  0  0  0
  187.0410  178.5760  147.6480 C   0  0  0  0  0  2  0  0  0  0  0  0
  189.2220  178.1830  145.9360 C   0  0  0  0  0  3  0  0  0  0  0  0
  188.5440  178.1220  136.4380 C   0  0  0  0  0  2  0  0  0  0  0  0
  187.4900  177.4280  135.7100 N   0  0  0  0  0  2  0  0  0  0  0  0
  186.4350  178.6910  137.3710 O   0  0  0  0  0  1  0  0  0  0  0  0
  186.2310  177.7360  136.3700 C   0  0  2  0  0  3  0  0  0  0  0  0
  183.4150  177.4590  136.5240 O   0  0  0  0  0  1  0  0  0  0  0  0
  183.6540  175.1620  136.9000 C   0  0  0  0  0  0  0  0  0  0  0  0
  182.5160  174.6990  137.1680 O   0  0  0  0  0  0  0  0  0  0  0  0
  185.5990  176.4600  136.9350 C   0  0  1  0  0  3  0  0  0  0  0  0
  184.1000  176.5140  137.2920 C   0  0  1  0  0  3  0  0  0  0  0  0
  184.6260  174.4230  136.1870 N   0  0  0  0  0  2  0  0  0  0  0  0
  185.8080  175.2460  136.0230 C   0  0  0  0  0  2  0  0  0  0  0  0
  2  7  2  0  0  0  0
  2 14  1  0  0  0  0
  3 11  2  0  0  0  0
  3 10  1  0  0  0  0
  4 25  1  0  0  0  0
  5 19  2  0  0  0  0
  6 12  1  0  0  0  0
  7 24  1  0  0  0  0
  8 13  1  6  0  0  0
  8  5  1  0  0  0  0
  9  5  1  0  0  0  0
  9 15  1  0  0  0  0
 10 21  2  0  0  0  0
 11 23  1  0  0  0  0
 12 35  1  1  0  0  0
 12  2  1  0  0  0  0
 14 22  1  0  0  0  0
 16 17  1  0  0  0  0
 17  6  1  0  0  0  0
 17  8  1  0  0  0  0
 18  9  1  0  0  0  0
 19 14  2  0  0  0  0
 20 18  2  0  0  0  0
 21 13  1  0  0  0  0
 21 18  1  0  0  0  0
 22  1  1  6  0  0  0
 22  4  1  0  0  0  0
 23 13  2  0  0  0  0
 24  4  2  0  0  0  0
 25 26  1  0  0  0  0
 26 27  1  0  0  0  0
 27 34  1  0  0  0  0
 29 33  1  0  0  0  0
 30 28  1  0  0  0  0
 31 34  1  0  0  0  0
 31 29  1  0  0  0  0
 32 30  1  0  0  0  0
 33 28  1  0  0  0  0
 34 32  1  0  0  0  0
 36 38  1  0  0  0  0
 36 35  1  0  0  0  0
 38 37  1  1  0  0  0
 40 41  2  0  0  0  0
 40 43  1  0  0  0  0
 42 38  1  6  0  0  0
 42 43  1  0  0  0  0
 43 39  1  6  0  0  0
 44 40  1  0  0  0  0
 45 44  1  0  0  0  0
 45 42  1  0  0  0  0
M  END
>  <MODEL>
5

>  <REMARK>
 VINA RESULT:      -7.3      5.294      8.252
  Name = 
  8 active torsions:
  status: ('A' for Active; 'I' for Inactive)
    1  A    between atoms: C_7  and  O_29
    2  A    between atoms: N_15  and  C_30
    3  A    between atoms: N_15  and  C_39
    4  A    between atoms: C_21  and  C_28
    5  A    between atoms: C_21  and  N_33
    6  A    between atoms: C_22  and  C_39
    7  A    between atoms: O_29  and  N_33
    8  A    between atoms: C_30  and  C_36
                            x       y       z     vdW  Elec       q    Type
                         _______ _______ _______ _____ _____    ______ ____

>  <TORSDO>
F 8

$$$$
=
 OpenBabel10222421213D

 45 50  0  0  1  0  0  0  0  0999 V2000
  186.2700  178.0010  142.4800 C   0  0  0  0  0  1  0  0  0  0  0  0
  185.9230  177.8230  138.9820 C   0  0  0  0  0  0  0  0  0  0  0  0
  178.9330  181.9900  138.6030 C   0  0  0  0  0  3  0  0  0  0  0  0
  187.9900  178.5840  140.8000 C   0  0  0  0  0  0  0  0  0  0  0  0
  183.1490  179.5560  140.1290 C   0  0  0  0  0  0  0  0  0  0  0  0
  184.1340  178.5700  137.3460 C   0  0  0  0  0  2  0  0  0  0  0  0
  187.1730  177.5340  138.7660 N   0  0  0  0  0  0  0  0  0  0  0  0
  182.7310  179.9210  138.7200 C   0  0  2  0  0  3  0  0  0  0  0  0
  182.1480  179.2440  141.1200 N   0  0  0  0  0  0  0  0  0  0  0  0
  179.2110  181.1210  139.6610 C   0  0  0  0  0  3  0  0  0  0  0  0
  179.8950  182.2180  137.6160 C   0  0  0  0  0  3  0  0  0  0  0  0
  184.8440  177.3820  138.0050 C   0  0  1  0  0  3  0  0  0  0  0  0
  181.4080  180.6670  138.7200 C   0  0  0  0  0  0  0  0  0  0  0  0
  185.5630  178.6050  140.1860 C   0  0  0  0  0  0  0  0  0  0  0  0
  182.5080  178.5770  142.3680 C   0  0  0  0  0  1  0  0  0  0  0  0
  181.9380  178.8390  136.6670 C   0  0  0  0  0  1  0  0  0  0  0  0
  182.7700  178.7100  137.8570 N   0  0  0  0  0  0  0  0  0  0  0  0
  180.7870  179.6420  140.9040 C   0  0  0  0  0  0  0  0  0  0  0  0
  184.3710  179.1210  140.2580 C   0  0  0  0  0  0  0  0  0  0  0  0
  179.8920  179.3240  141.7350 O   0  0  0  0  0  0  0  0  0  0  0  0
  180.4480  180.4640  139.7310 C   0  0  0  0  0  0  0  0  0  0  0  0
  186.5810  178.8560  141.2630 C   0  0  1  0  0  3  0  0  0  0  0  0
  181.1270  181.5610  137.6760 C   0  0  0  0  0  3  0  0  0  0  0  0
  188.2320  177.9430  139.6450 C   0  0  0  0  0  3  0  0  0  0  0  0
  189.0450  179.0000  141.6150 O   0  0  0  0  0  0  0  0  0  0  0  0
  189.6620  178.1400  142.5010 N   0  0  0  0  0  2  0  0  0  0  0  0
  190.3650  178.9610  143.4730 C   0  0  0  0  0  2  0  0  0  0  0  0
  191.0980  176.5950  147.3630 C   0  0  0  0  0  2  0  0  0  0  0  0
  188.7510  177.1290  146.4650 C   0  0  0  0  0  2  0  0  0  0  0  0
  191.5100  176.2420  145.9310 C   0  0  0  0  0  2  0  0  0  0  0  0
  189.0970  177.4460  144.9990 C   0  0  0  0  0  2  0  0  0  0  0  0
  191.6560  177.4580  145.0090 C   0  0  0  0  0  2  0  0  0  0  0  0
  189.8550  177.4860  147.4690 C   0  0  0  0  0  2  0  0  0  0  0  0
  190.3690  178.2830  144.8340 C   0  0  0  0  0  3  0  0  0  0  0  0
  185.3010  176.3500  136.9720 C   0  0  0  0  0  2  0  0  0  0  0  0
  184.1830  175.5450  136.4970 N   0  0  0  0  0  2  0  0  0  0  0  0
  184.4120  173.5320  137.6640 O   0  0  0  0  0  1  0  0  0  0  0  0
  183.7180  174.7450  137.6200 C   0  0  2  0  0  3  0  0  0  0  0  0
  181.9520  175.9740  139.4640 O   0  0  0  0  0  1  0  0  0  0  0  0
  180.1380  175.4610  138.0790 C   0  0  0  0  0  0  0  0  0  0  0  0
  179.0860  175.7670  138.6980 O   0  0  0  0  0  0  0  0  0  0  0  0
  182.2050  174.5210  137.5240 C   0  0  1  0  0  3  0  0  0  0  0  0
  181.3530  174.9410  138.7380 C   0  0  1  0  0  3  0  0  0  0  0  0
  180.2560  175.5870  136.6760 N   0  0  0  0  0  2  0  0  0  0  0  0
  181.5910  175.1800  136.2840 C   0  0  0  0  0  2  0  0  0  0  0  0
  2 14  1  0  0  0  0
  3 10  1  0  0  0  0
  4 22  1  0  0  0  0
  4 25  1  0  0  0  0
  5 19  2  0  0  0  0
  5  9  1  0  0  0  0
  6 17  1  0  0  0  0
  6 12  1  0  0  0  0
  7  2  2  0  0  0  0
  7 24  1  0  0  0  0
  8 13  1  1  0  0  0
  8  5  1  0  0  0  0
  9 15  1  0  0  0  0
 10 21  2  0  0  0  0
 11 23  1  0  0  0  0
 11  3  2  0  0  0  0
 12 35  1  6  0  0  0
 12  2  1  0  0  0  0
 13 21  1  0  0  0  0
 14 19  2  0  0  0  0
 14 22  1  0  0  0  0
 16 17  1  0  0  0  0
 17  8  1  0  0  0  0
 18  9  1  0  0  0  0
 18 20  2  0  0  0  0
 21 18  1  0  0  0  0
 22  1  1  1  0  0  0
 23 13  2  0  0  0  0
 24  4  2  0  0  0  0
 25 26  1  0  0  0  0
 26 27  1  0  0  0  0
 27 34  1  0  0  0  0
 28 33  1  0  0  0  0
 29 33  1  0  0  0  0
 30 28  1  0  0  0  0
 31 29  1  0  0  0  0
 32 30  1  0  0  0  0
 34 31  1  0  0  0  0
 34 32  1  0  0  0  0
 36 35  1  0  0  0  0
 36 38  1  0  0  0  0
 38 37  1  6  0  0  0
 40 41  2  0  0  0  0
 40 43  1  0  0  0  0
 42 38  1  1  0  0  0
 42 43  1  0  0  0  0
 43 39  1  6  0  0  0
 44 40  1  0  0  0  0
 45 44  1  0  0  0  0
 45 42  1  0  0  0  0
M  END
>  <MODEL>
6

>  <REMARK>
 VINA RESULT:      -7.0      2.458      5.833
  Name = 
  8 active torsions:
  status: ('A' for Active; 'I' for Inactive)
    1  A    between atoms: C_7  and  O_29
    2  A    between atoms: N_15  and  C_30
    3  A    between atoms: N_15  and  C_39
    4  A    between atoms: C_21  and  C_28
    5  A    between atoms: C_21  and  N_33
    6  A    between atoms: C_22  and  C_39
    7  A    between atoms: O_29  and  N_33
    8  A    between atoms: C_30  and  C_36
                            x       y       z     vdW  Elec       q    Type
                         _______ _______ _______ _____ _____    ______ ____

>  <TORSDO>
F 8

$$$$
=
 OpenBabel10222421213D

 45 50  0  0  1  0  0  0  0  0999 V2000
  190.4000  178.1840  142.3460 C   0  0  0  0  0  1  0  0  0  0  0  0
  187.9620  177.7430  139.8460 C   0  0  0  0  0  0  0  0  0  0  0  0
  192.5920  173.1920  134.9250 C   0  0  0  0  0  3  0  0  0  0  0  0
  188.0710  177.4190  142.6820 C   0  0  0  0  0  0  0  0  0  0  0  0
  190.7880  176.0800  138.7240 C   0  0  0  0  0  0  0  0  0  0  0  0
  187.9520  176.6310  137.5670 C   0  0  0  0  0  2  0  0  0  0  0  0
  186.9620  178.0600  140.6170 N   0  0  0  0  0  0  0  0  0  0  0  0
  190.0270  175.4580  137.5730 C   0  0  2  0  0  3  0  0  0  0  0  0
  192.1560  176.5010  138.5420 N   0  0  0  0  0  0  0  0  0  0  0  0
  193.1300  174.2430  135.6720 C   0  0  0  0  0  3  0  0  0  0  0  0
  191.2440  172.8540  135.0680 C   0  0  0  0  0  3  0  0  0  0  0  0
  187.8790  177.9500  138.3420 C   0  0  1  0  0  3  0  0  0  0  0  0
  190.9540  174.6510  136.6800 C   0  0  0  0  0  0  0  0  0  0  0  0
  189.1800  177.1590  140.4520 C   0  0  0  0  0  0  0  0  0  0  0  0
  192.8040  177.3900  139.5020 C   0  0  0  0  0  1  0  0  0  0  0  0
  188.8840  176.1290  135.5090 C   0  0  0  0  0  1  0  0  0  0  0  0
  189.2350  176.5040  136.8740 N   0  0  0  0  0  0  0  0  0  0  0  0
  192.9110  175.9970  137.4310 C   0  0  0  0  0  0  0  0  0  0  0  0
  190.0540  176.5980  139.6690 C   0  0  0  0  0  0  0  0  0  0  0  0
  194.0890  176.4020  137.2260 O   0  0  0  0  0  0  0  0  0  0  0  0
  192.3210  174.9690  136.5570 C   0  0  0  0  0  0  0  0  0  0  0  0
  189.3600  177.1520  141.9440 C   0  0  1  0  0  3  0  0  0  0  0  0
  190.4310  173.5780  135.9440 C   0  0  0  0  0  3  0  0  0  0  0  0
  186.9810  177.8660  142.0390 C   0  0  0  0  0  3  0  0  0  0  0  0
  188.0460  177.2060  144.0620 O   0  0  0  0  0  0  0  0  0  0  0  0
  187.9760  178.2540  144.9570 N   0  0  0  0  0  2  0  0  0  0  0  0
  188.0620  177.6820  146.2920 C   0  0  0  0  0  2  0  0  0  0  0  0
  192.1140  176.0030  147.7180 C   0  0  0  0  0  2  0  0  0  0  0  0
  191.6800  176.7640  145.3020 C   0  0  0  0  0  2  0  0  0  0  0  0
  191.3730  177.2560  148.1910 C   0  0  0  0  0  2  0  0  0  0  0  0
  190.4370  177.6440  145.5230 C   0  0  0  0  0  2  0  0  0  0  0  0
  189.8560  177.1990  147.9750 C   0  0  0  0  0  2  0  0  0  0  0  0
  191.8040  175.5840  146.2750 C   0  0  0  0  0  2  0  0  0  0  0  0
  189.4260  177.0460  146.5060 C   0  0  0  0  0  3  0  0  0  0  0  0
  186.7030  178.8150  137.8810 C   0  0  0  0  0  2  0  0  0  0  0  0
  185.5100  178.0090  137.6590 N   0  0  0  0  0  2  0  0  0  0  0  0
  184.8830  179.7560  139.0810 O   0  0  0  0  0  1  0  0  0  0  0  0
  184.4070  178.6720  138.3380 C   0  0  2  0  0  3  0  0  0  0  0  0
  181.6800  179.0900  138.9840 O   0  0  0  0  0  1  0  0  0  0  0  0
  181.5130  176.8800  139.7370 C   0  0  0  0  0  0  0  0  0  0  0  0
  180.3790  176.7410  140.2640 O   0  0  0  0  0  0  0  0  0  0  0  0
  183.6500  177.6760  139.2230 C   0  0  1  0  0  3  0  0  0  0  0  0
  182.2940  178.1330  139.7960 C   0  0  1  0  0  3  0  0  0  0  0  0
  182.1540  175.8380  139.0300 N   0  0  0  0  0  2  0  0  0  0  0  0
  183.4240  176.3280  138.5300 C   0  0  0  0  0  2  0  0  0  0  0  0
  2 14  1  0  0  0  0
  2  7  2  0  0  0  0
  3 11  2  0  0  0  0
  3 10  1  0  0  0  0
  4 25  1  0  0  0  0
  5 19  2  0  0  0  0
  6 12  1  0  0  0  0
  7 24  1  0  0  0  0
  8 13  1  6  0  0  0
  8  5  1  0  0  0  0
  9  5  1  0  0  0  0
  9 15  1  0  0  0  0
 10 21  2  0  0  0  0
 11 23  1  0  0  0  0
 12 35  1  1  0  0  0
 12  2  1  0  0  0  0
 14 22  1  0  0  0  0
 16 17  1  0  0  0  0
 17  6  1  0  0  0  0
 17  8  1  0  0  0  0
 18  9  1  0  0  0  0
 19 14  2  0  0  0  0
 20 18  2  0  0  0  0
 21 13  1  0  0  0  0
 21 18  1  0  0  0  0
 22  1  1  6  0  0  0
 22  4  1  0  0  0  0
 23 13  2  0  0  0  0
 24  4  2  0  0  0  0
 25 26  1  0  0  0  0
 26 27  1  0  0  0  0
 27 34  1  0  0  0  0
 28 30  1  0  0  0  0
 29 31  1  0  0  0  0
 29 33  1  0  0  0  0
 31 34  1  0  0  0  0
 32 30  1  0  0  0  0
 33 28  1  0  0  0  0
 34 32  1  0  0  0  0
 36 35  1  0  0  0  0
 36 38  1  0  0  0  0
 38 37  1  1  0  0  0
 40 43  1  0  0  0  0
 40 41  2  0  0  0  0
 42 38  1  6  0  0  0
 42 43  1  0  0  0  0
 43 39  1  6  0  0  0
 44 40  1  0  0  0  0
 45 44  1  0  0  0  0
 45 42  1  0  0  0  0
M  END
>  <MODEL>
7

>  <REMARK>
 VINA RESULT:      -7.0      4.356      6.761
  Name = 
  8 active torsions:
  status: ('A' for Active; 'I' for Inactive)
    1  A    between atoms: C_7  and  O_29
    2  A    between atoms: N_15  and  C_30
    3  A    between atoms: N_15  and  C_39
    4  A    between atoms: C_21  and  C_28
    5  A    between atoms: C_21  and  N_33
    6  A    between atoms: C_22  and  C_39
    7  A    between atoms: O_29  and  N_33
    8  A    between atoms: C_30  and  C_36
                            x       y       z     vdW  Elec       q    Type
                         _______ _______ _______ _____ _____    ______ ____

>  <TORSDO>
F 8

$$$$
=
 OpenBabel10222421213D

 45 50  0  0  1  0  0  0  0  0999 V2000
  187.2750  175.9290  135.8010 C   0  0  0  0  0  1  0  0  0  0  0  0
  190.6980  175.5250  136.5120 C   0  0  0  0  0  0  0  0  0  0  0  0
  190.2290  177.8120  144.3160 C   0  0  0  0  0  3  0  0  0  0  0  0
  188.6500  173.9290  135.3220 C   0  0  0  0  0  0  0  0  0  0  0  0
  189.2440  176.6680  139.4430 C   0  0  0  0  0  0  0  0  0  0  0  0
  192.1440  175.9780  138.5460 C   0  0  0  0  0  2  0  0  0  0  0  0
  190.9290  174.7570  135.4870 N   0  0  0  0  0  0  0  0  0  0  0  0
  190.5150  176.4230  140.2290 C   0  0  2  0  0  3  0  0  0  0  0  0
  188.4240  177.8170  139.7380 N   0  0  0  0  0  0  0  0  0  0  0  0
  189.4400  178.4080  143.3300 C   0  0  0  0  0  3  0  0  0  0  0  0
  191.0700  176.7470  143.9870 C   0  0  0  0  0  3  0  0  0  0  0  0
  191.8060  176.3800  137.1060 C   0  0  1  0  0  3  0  0  0  0  0  0
  190.3690  176.9000  141.6640 C   0  0  0  0  0  0  0  0  0  0  0  0
  189.3420  175.5440  137.1050 C   0  0  0  0  0  0  0  0  0  0  0  0
  187.3930  178.2650  138.8060 C   0  0  0  0  0  1  0  0  0  0  0  0
  192.8210  177.2490  140.3570 C   0  0  0  0  0  1  0  0  0  0  0  0
  191.6760  176.9910  139.4930 N   0  0  0  0  0  0  0  0  0  0  0  0
  188.5830  178.4990  140.9900 C   0  0  0  0  0  0  0  0  0  0  0  0
  189.1850  176.0910  138.2750 C   0  0  0  0  0  0  0  0  0  0  0  0
  187.9130  179.5400  141.2360 O   0  0  0  0  0  0  0  0  0  0  0  0
  189.4980  177.9530  142.0050 C   0  0  0  0  0  0  0  0  0  0  0  0
  188.1940  174.8790  136.4020 C   0  0  1  0  0  3  0  0  0  0  0  0
  191.1380  176.2920  142.6670 C   0  0  0  0  0  3  0  0  0  0  0  0
  189.9250  173.9150  134.9010 C   0  0  0  0  0  3  0  0  0  0  0  0
  187.7040  173.0720  134.7550 O   0  0  0  0  0  0  0  0  0  0  0  0
  187.2690  171.9370  135.4090 N   0  0  0  0  0  2  0  0  0  0  0  0
  185.8490  171.8010  135.1260 C   0  0  0  0  0  2  0  0  0  0  0  0
  183.7810  175.1510  137.5290 C   0  0  0  0  0  2  0  0  0  0  0  0
  182.8990  174.2890  135.2750 C   0  0  0  0  0  2  0  0  0  0  0  0
  184.0320  173.6940  137.9300 C   0  0  0  0  0  2  0  0  0  0  0  0
  183.6260  172.9330  135.2090 C   0  0  0  0  0  2  0  0  0  0  0  0
  185.2190  173.0460  137.2080 C   0  0  0  0  0  2  0  0  0  0  0  0
  183.6710  175.3880  136.0180 C   0  0  0  0  0  2  0  0  0  0  0  0
  185.0830  172.9930  135.6770 C   0  0  0  0  0  3  0  0  0  0  0  0
  193.0630  176.4900  136.2390 C   0  0  0  0  0  2  0  0  0  0  0  0
  194.2640  176.1940  137.0080 N   0  0  0  0  0  2  0  0  0  0  0  0
  194.1080  174.2500  135.7180 O   0  0  0  0  0  1  0  0  0  0  0  0
  194.9980  175.1660  136.2860 C   0  0  2  0  0  3  0  0  0  0  0  0
  197.6610  176.1060  136.5150 O   0  0  0  0  0  1  0  0  0  0  0  0
  197.9610  174.8090  138.4400 C   0  0  0  0  0  0  0  0  0  0  0  0
  199.1740  174.8840  138.7650 O   0  0  0  0  0  0  0  0  0  0  0  0
  195.9970  174.4710  137.2180 C   0  0  1  0  0  3  0  0  0  0  0  0
  197.4870  174.8220  137.0410 C   0  0  1  0  0  3  0  0  0  0  0  0
  196.9240  174.7050  139.3950 N   0  0  0  0  0  2  0  0  0  0  0  0
  195.6530  174.6660  138.6990 C   0  0  0  0  0  2  0  0  0  0  0  0
  2 14  1  0  0  0  0
  2 12  1  0  0  0  0
  4 22  1  0  0  0  0
  5  9  1  0  0  0  0
  6 17  1  0  0  0  0
  7  2  2  0  0  0  0
  8  5  1  6  0  0  0
  8 13  1  0  0  0  0
  9 18  1  0  0  0  0
 10  3  2  0  0  0  0
 11  3  1  0  0  0  0
 12 35  1  6  0  0  0
 12  6  1  0  0  0  0
 13 21  2  0  0  0  0
 13 23  1  0  0  0  0
 14 19  2  0  0  0  0
 15  9  1  0  0  0  0
 17  8  1  0  0  0  0
 17 16  1  0  0  0  0
 18 20  2  0  0  0  0
 18 21  1  0  0  0  0
 19  5  2  0  0  0  0
 21 10  1  0  0  0  0
 22  1  1  6  0  0  0
 22 14  1  0  0  0  0
 23 11  2  0  0  0  0
 24  4  2  0  0  0  0
 24  7  1  0  0  0  0
 25  4  1  0  0  0  0
 25 26  1  0  0  0  0
 27 26  1  0  0  0  0
 27 34  1  0  0  0  0
 28 30  1  0  0  0  0
 29 33  1  0  0  0  0
 31 29  1  0  0  0  0
 31 34  1  0  0  0  0
 32 30  1  0  0  0  0
 33 28  1  0  0  0  0
 34 32  1  0  0  0  0
 35 36  1  0  0  0  0
 38 37  1  1  0  0  0
 38 36  1  0  0  0  0
 40 41  2  0  0  0  0
 40 44  1  0  0  0  0
 42 38  1  6  0  0  0
 42 45  1  0  0  0  0
 43 39  1  1  0  0  0
 43 42  1  0  0  0  0
 43 40  1  0  0  0  0
 45 44  1  0  0  0  0
M  END
>  <MODEL>
8

>  <REMARK>
 VINA RESULT:      -6.9      6.238     12.399
  Name = 
  8 active torsions:
  status: ('A' for Active; 'I' for Inactive)
    1  A    between atoms: C_7  and  O_29
    2  A    between atoms: N_15  and  C_30
    3  A    between atoms: N_15  and  C_39
    4  A    between atoms: C_21  and  C_28
    5  A    between atoms: C_21  and  N_33
    6  A    between atoms: C_22  and  C_39
    7  A    between atoms: O_29  and  N_33
    8  A    between atoms: C_30  and  C_36
                            x       y       z     vdW  Elec       q    Type
                         _______ _______ _______ _____ _____    ______ ____

>  <TORSDO>
F 8

$$$$
=
 OpenBabel10222421213D

 45 50  0  0  1  0  0  0  0  0999 V2000
  182.5340  177.9300  135.5510 C   0  0  0  0  0  1  0  0  0  0  0  0
  184.6120  177.5580  138.3670 C   0  0  0  0  0  0  0  0  0  0  0  0
  179.0000  179.7080  143.8650 C   0  0  0  0  0  3  0  0  0  0  0  0
  183.9180  175.9560  136.1060 C   0  0  0  0  0  0  0  0  0  0  0  0
  181.5490  178.6330  139.5790 C   0  0  0  0  0  0  0  0  0  0  0  0
  184.3190  177.9950  140.8480 C   0  0  0  0  0  2  0  0  0  0  0  0
  185.4850  176.8100  137.7560 N   0  0  0  0  0  0  0  0  0  0  0  0
  181.9740  178.3910  141.0120 C   0  0  2  0  0  3  0  0  0  0  0  0
  180.7180  179.7660  139.2540 N   0  0  0  0  0  0  0  0  0  0  0  0
  179.0600  180.3100  142.6070 C   0  0  0  0  0  3  0  0  0  0  0  0
  179.8680  178.6590  144.1790 C   0  0  0  0  0  3  0  0  0  0  0  0
  185.0210  178.4170  139.5530 C   0  0  1  0  0  3  0  0  0  0  0  0
  180.8960  178.8420  141.9840 C   0  0  0  0  0  0  0  0  0  0  0  0
  183.2070  177.5490  137.9020 C   0  0  0  0  0  0  0  0  0  0  0  0
  180.5650  180.2160  137.8740 C   0  0  0  0  0  1  0  0  0  0  0  0
  183.5850  179.2450  142.6520 C   0  0  0  0  0  1  0  0  0  0  0  0
  183.3170  178.9860  141.2430 N   0  0  0  0  0  0  0  0  0  0  0  0
  179.9850  180.4290  140.2940 C   0  0  0  0  0  0  0  0  0  0  0  0
  182.2970  178.0750  138.6690 C   0  0  0  0  0  0  0  0  0  0  0  0
  179.3010  181.4580  140.0340 O   0  0  0  0  0  0  0  0  0  0  0  0
  179.9980  179.8780  141.6590 C   0  0  0  0  0  0  0  0  0  0  0  0
  182.8370  176.8820  136.6080 C   0  0  1  0  0  3  0  0  0  0  0  0
  180.8090  178.2270  143.2410 C   0  0  0  0  0  3  0  0  0  0  0  0
  185.1480  175.9650  136.6450 C   0  0  0  0  0  3  0  0  0  0  0  0
  183.6110  175.0960  135.0490 O   0  0  0  0  0  0  0  0  0  0  0  0
  183.2860  173.7720  135.2610 N   0  0  0  0  0  2  0  0  0  0  0  0
  181.8470  173.6540  135.0840 C   0  0  0  0  0  2  0  0  0  0  0  0
  179.6080  173.5000  139.1140 C   0  0  0  0  0  2  0  0  0  0  0  0
  179.4710  175.5000  137.5060 C   0  0  0  0  0  2  0  0  0  0  0  0
  179.4650  172.5790  137.8990 C   0  0  0  0  0  2  0  0  0  0  0  0
  179.9500  174.8260  136.2070 C   0  0  0  0  0  2  0  0  0  0  0  0
  180.7150  172.5210  137.0130 C   0  0  0  0  0  2  0  0  0  0  0  0
  180.0860  174.9200  138.7860 C   0  0  0  0  0  2  0  0  0  0  0  0
  181.1320  173.8720  136.4080 C   0  0  0  0  0  3  0  0  0  0  0  0
  186.5330  178.5580  139.7480 C   0  0  0  0  0  2  0  0  0  0  0  0
  186.8660  178.7920  141.1470 N   0  0  0  0  0  2  0  0  0  0  0  0
  188.6400  177.5760  140.2320 O   0  0  0  0  0  1  0  0  0  0  0  0
  188.1970  178.2510  141.3730 C   0  0  2  0  0  3  0  0  0  0  0  0
  190.0650  178.6370  143.4680 O   0  0  0  0  0  1  0  0  0  0  0  0
  188.8140  177.2270  144.8540 C   0  0  0  0  0  0  0  0  0  0  0  0
  189.4720  177.0470  145.9100 O   0  0  0  0  0  0  0  0  0  0  0  0
  188.1980  177.3340  142.6010 C   0  0  1  0  0  3  0  0  0  0  0  0
  189.4320  177.3930  143.5220 C   0  0  1  0  0  3  0  0  0  0  0  0
  187.4020  177.2880  144.8410 N   0  0  0  0  0  2  0  0  0  0  0  0
  186.9590  177.5300  143.4820 C   0  0  0  0  0  2  0  0  0  0  0  0
  2 12  1  0  0  0  0
  3 11  1  0  0  0  0
  4 22  1  0  0  0  0
  4 24  2  0  0  0  0
  6 17  1  0  0  0  0
  7  2  2  0  0  0  0
  8  5  1  6  0  0  0
  8 17  1  0  0  0  0
  8 13  1  0  0  0  0
  9  5  1  0  0  0  0
  9 18  1  0  0  0  0
 10  3  2  0  0  0  0
 12 35  1  1  0  0  0
 12  6  1  0  0  0  0
 13 23  1  0  0  0  0
 14  2  1  0  0  0  0
 14 19  2  0  0  0  0
 15  9  1  0  0  0  0
 17 16  1  0  0  0  0
 18 21  1  0  0  0  0
 19  5  2  0  0  0  0
 20 18  2  0  0  0  0
 21 13  2  0  0  0  0
 21 10  1  0  0  0  0
 22  1  1  6  0  0  0
 22 14  1  0  0  0  0
 23 11  2  0  0  0  0
 24  7  1  0  0  0  0
 25 26  1  0  0  0  0
 25  4  1  0  0  0  0
 27 26  1  0  0  0  0
 27 34  1  0  0  0  0
 29 33  1  0  0  0  0
 30 28  1  0  0  0  0
 31 34  1  0  0  0  0
 31 29  1  0  0  0  0
 32 30  1  0  0  0  0
 33 28  1  0  0  0  0
 34 32  1  0  0  0  0
 35 36  1  0  0  0  0
 36 38  1  0  0  0  0
 38 37  1  6  0  0  0
 40 41  2  0  0  0  0
 42 38  1  6  0  0  0
 42 45  1  0  0  0  0
 42 43  1  0  0  0  0
 43 39  1  1  0  0  0
 43 40  1  0  0  0  0
 44 40  1  0  0  0  0
 45 44  1  0  0  0  0
M  END
>  <MODEL>
9

>  <REMARK>
 VINA RESULT:      -6.9      2.260      9.133
  Name = 
  8 active torsions:
  status: ('A' for Active; 'I' for Inactive)
    1  A    between atoms: C_7  and  O_29
    2  A    between atoms: N_15  and  C_30
    3  A    between atoms: N_15  and  C_39
    4  A    between atoms: C_21  and  C_28
    5  A    between atoms: C_21  and  N_33
    6  A    between atoms: C_22  and  C_39
    7  A    between atoms: O_29  and  N_33
    8  A    between atoms: C_30  and  C_36
                            x       y       z     vdW  Elec       q    Type
                         _______ _______ _______ _____ _____    ______ ____

>  <TORSDO>
F 8

$$$$
