=
 OpenBabel10222419413D

 36 39  0  0  1  0  0  0  0  0999 V2000
  188.7020  177.5500  141.3400 C   0  0  2  0  0  3  0  0  0  0  0  0
  189.0540  179.0050  141.5810 C   0  0  0  0  0  1  0  0  0  0  0  0
  188.2440  176.9580  142.5520 O   0  0  0  0  0  0  0  0  0  0  0  0
  186.1150  178.1330  145.3500 C   0  0  0  0  0  3  0  0  0  0  0  0
  187.1620  177.4660  143.2770 C   0  0  0  0  0  0  0  0  0  0  0  0
  186.0040  177.7750  142.6260 N   0  0  0  0  0  0  0  0  0  0  0  0
  184.9090  178.2490  143.2760 C   0  0  0  0  0  3  0  0  0  0  0  0
  187.2490  177.6460  144.6810 C   0  0  0  0  0  0  0  0  0  0  0  0
  183.5450  179.0470  145.5050 Cl  0  0  0  0  0  0  0  0  0  0  0  0
  184.9470  178.4340  144.6540 C   0  0  0  0  0  0  0  0  0  0  0  0
  189.6000  176.9160  147.5970 C   0  0  0  0  0  3  0  0  0  0  0  0
  190.8720  176.8770  145.5440 C   0  0  0  0  0  3  0  0  0  0  0  0
  189.7120  177.1700  144.8230 C   0  0  0  0  0  3  0  0  0  0  0  0
  190.8250  176.7510  146.9370 C   0  0  0  0  0  0  0  0  0  0  0  0
  188.4420  177.2060  146.8720 C   0  0  0  0  0  3  0  0  0  0  0  0
  188.4780  177.3420  145.4740 C   0  0  0  0  0  0  0  0  0  0  0  0
  192.0190  176.4610  147.6760 N   0  0  0  0  0  0  0  0  0  0  0  0
  192.3820  177.2030  148.6120 O   0  0  0  0  0  0  0  0  0  0  0  0
  192.7880  175.3680  147.3480 O   0  0  0  0  0  0  0  0  0  0  0  0
  189.9350  176.8160  140.8510 C   0  0  0  0  0  2  0  0  0  0  0  0
  190.0730  176.9210  139.3320 C   0  0  1  0  0  3  0  0  0  0  0  0
  191.2710  176.1520  138.7720 C   0  0  0  0  0  2  0  0  0  0  0  0
  190.9130  175.2920  137.5680 C   0  0  0  0  0  1  0  0  0  0  0  0
  188.7680  176.6410  138.5790 C   0  0  0  0  0  2  0  0  0  0  0  0
  188.2210  177.8480  137.8230 C   0  0  1  0  0  3  0  0  0  0  0  0
  186.7630  178.0140  138.1080 C   0  0  0  0  0  0  0  0  0  0  0  0
  186.2940  178.6590  139.1720 O   0  0  0  0  0  0  0  0  0  0  0  0
  182.8440  178.5260  139.0680 N   0  0  0  0  0  0  0  0  0  0  0  0
  183.2550  177.8600  137.9520 C   0  0  0  0  0  3  0  0  0  0  0  0
  185.7360  177.5040  137.2840 C   0  0  0  0  0  3  0  0  0  0  0  0
  185.0000  178.5760  139.0650 C   0  0  0  0  0  0  0  0  0  0  0  0
  183.9090  178.9840  139.7830 C   0  0  0  0  0  3  0  0  0  0  0  0
  181.4580  178.7020  139.4580 C   0  0  0  0  0  1  0  0  0  0  0  0
  184.6260  177.9160  137.9850 C   0  0  0  0  0  0  0  0  0  0  0  0
  188.9490  179.8900  137.1820 O   0  0  0  0  0  1  0  0  0  0  0  0
  188.9430  179.0400  138.2370 N   0  0  0  0  0  2  0  0  0  0  0  0
  1  2  1  1  0  0  0
  1  3  1  0  0  0  0
  3  5  1  0  0  0  0
  5  8  1  0  0  0  0
  6  7  1  0  0  0  0
  6  5  2  0  0  0  0
  7 10  2  0  0  0  0
  8  4  2  0  0  0  0
  8 16  1  0  0  0  0
 10  4  1  0  0  0  0
 10  9  1  0  0  0  0
 12 14  2  0  0  0  0
 13 16  2  0  0  0  0
 13 12  1  0  0  0  0
 14 11  1  0  0  0  0
 14 17  1  0  0  0  0
 15 11  2  0  0  0  0
 16 15  1  0  0  0  0
 17 18  2  0  0  0  0
 19 17  2  0  0  0  0
 20  1  1  0  0  0  0
 21 24  1  6  0  0  0
 21 20  1  0  0  0  0
 22 21  1  0  0  0  0
 23 22  1  0  0  0  0
 25 26  1  0  0  0  0
 25 36  1  0  0  0  0
 25 24  1  1  0  0  0
 26 27  1  0  0  0  0
 28 33  1  0  0  0  0
 28 32  1  0  0  0  0
 29 34  2  0  0  0  0
 29 28  1  0  0  0  0
 30 34  1  0  0  0  0
 30 26  2  0  0  0  0
 31 27  1  0  0  0  0
 31 32  2  0  0  0  0
 34 31  1  0  0  0  0
 35 36  1  0  0  0  0
M  END
>  <MODEL>
1

>  <REMARK>
 VINA RESULT:      -8.7      0.000      0.000
  Name = 
  11 active torsions:
  status: ('A' for Active; 'I' for Inactive)
    1  A    between atoms: N_1  and  C_20
    2  A    between atoms: C_2  and  C_10
    3  A    between atoms: C_10  and  C_14
    4  A    between atoms: C_10  and  N_18
    5  A    between atoms: C_11  and  O_28
    6  A    between atoms: C_12  and  C_27
    7  A    between atoms: C_14  and  C_27
    8  A    between atoms: C_22  and  O_28
    9  A    between atoms: C_22  and  C_35
   10  A    between atoms: C_26  and  C_36
   11  A    between atoms: C_27  and  C_35
                            x       y       z     vdW  Elec       q    Type
                         _______ _______ _______ _____ _____    ______ ____

>  <TORSDO>
F 11

$$$$
=
 OpenBabel10222419413D

 36 39  0  0  1  0  0  0  0  0999 V2000
  190.2390  176.9210  143.3660 C   0  0  2  0  0  3  0  0  0  0  0  0
  191.4930  176.0680  143.3920 C   0  0  0  0  0  1  0  0  0  0  0  0
  190.2840  177.8090  142.2550 O   0  0  0  0  0  0  0  0  0  0  0  0
  188.3550  177.6970  139.0910 C   0  0  0  0  0  3  0  0  0  0  0  0
  189.2420  177.9110  141.3280 C   0  0  0  0  0  0  0  0  0  0  0  0
  188.0290  178.3870  141.7330 N   0  0  0  0  0  0  0  0  0  0  0  0
  186.9830  178.5310  140.8770 C   0  0  0  0  0  3  0  0  0  0  0  0
  189.4360  177.5420  139.9730 C   0  0  0  0  0  0  0  0  0  0  0  0
  185.7920  178.3690  138.4240 Cl  0  0  0  0  0  0  0  0  0  0  0  0
  187.1310  178.1900  139.5370 C   0  0  0  0  0  0  0  0  0  0  0  0
  191.9790  175.5510  137.9400 C   0  0  0  0  0  3  0  0  0  0  0  0
  193.1660  177.0000  139.4660 C   0  0  0  0  0  3  0  0  0  0  0  0
  191.9480  177.4820  139.9520 C   0  0  0  0  0  3  0  0  0  0  0  0
  193.1910  176.0290  138.4580 C   0  0  0  0  0  0  0  0  0  0  0  0
  190.7640  176.0360  138.4270 C   0  0  0  0  0  3  0  0  0  0  0  0
  190.7260  177.0060  139.4430 C   0  0  0  0  0  0  0  0  0  0  0  0
  194.4420  175.5290  137.9690 N   0  0  0  0  0  0  0  0  0  0  0  0
  195.2110  174.8950  138.7210 O   0  0  0  0  0  0  0  0  0  0  0  0
  194.8180  175.7600  136.6650 O   0  0  0  0  0  0  0  0  0  0  0  0
  190.1560  177.7200  144.6510 C   0  0  0  0  0  2  0  0  0  0  0  0
  190.0920  176.8000  145.8700 C   0  0  1  0  0  3  0  0  0  0  0  0
  191.2020  177.0580  146.8910 C   0  0  0  0  0  2  0  0  0  0  0  0
  192.1110  175.8540  147.0970 C   0  0  0  0  0  1  0  0  0  0  0  0
  188.6980  176.7190  146.5010 C   0  0  0  0  0  2  0  0  0  0  0  0
  188.0920  178.0790  146.8340 C   0  0  1  0  0  3  0  0  0  0  0  0
  186.8100  178.2660  146.0870 C   0  0  0  0  0  0  0  0  0  0  0  0
  186.6730  178.0040  144.7910 O   0  0  0  0  0  0  0  0  0  0  0  0
  183.4250  178.7520  143.8860 N   0  0  0  0  0  0  0  0  0  0  0  0
  183.4920  179.0330  145.2190 C   0  0  0  0  0  3  0  0  0  0  0  0
  185.6170  178.7400  146.6770 C   0  0  0  0  0  3  0  0  0  0  0  0
  185.4350  178.2990  144.5240 C   0  0  0  0  0  0  0  0  0  0  0  0
  184.6210  178.2940  143.4240 C   0  0  0  0  0  3  0  0  0  0  0  0
  182.2460  178.9420  143.0640 C   0  0  0  0  0  1  0  0  0  0  0  0
  184.7800  178.7300  145.5850 C   0  0  0  0  0  0  0  0  0  0  0  0
  189.0200  178.4810  148.8560 O   0  0  0  0  0  1  0  0  0  0  0  0
  187.8440  178.1560  148.2650 N   0  0  0  0  0  2  0  0  0  0  0  0
  1  2  1  1  0  0  0
  1 20  1  0  0  0  0
  3  1  1  0  0  0  0
  4 10  1  0  0  0  0
  4  8  2  0  0  0  0
  5  6  2  0  0  0  0
  5  3  1  0  0  0  0
  7  6  1  0  0  0  0
  8  5  1  0  0  0  0
  9 10  1  0  0  0  0
 10  7  2  0  0  0  0
 11 15  2  0  0  0  0
 11 14  1  0  0  0  0
 12 13  1  0  0  0  0
 14 12  2  0  0  0  0
 15 16  1  0  0  0  0
 16 13  2  0  0  0  0
 16  8  1  0  0  0  0
 17 14  1  0  0  0  0
 17 18  2  0  0  0  0
 19 17  2  0  0  0  0
 21 20  1  6  0  0  0
 21 24  1  0  0  0  0
 21 22  1  0  0  0  0
 22 23  1  0  0  0  0
 25 24  1  1  0  0  0
 25 36  1  0  0  0  0
 26 30  2  0  0  0  0
 26 25  1  0  0  0  0
 27 26  1  0  0  0  0
 28 29  1  0  0  0  0
 29 34  2  0  0  0  0
 31 27  1  0  0  0  0
 31 34  1  0  0  0  0
 32 28  1  0  0  0  0
 32 31  2  0  0  0  0
 33 28  1  0  0  0  0
 34 30  1  0  0  0  0
 36 35  1  0  0  0  0
M  END
>  <MODEL>
2

>  <REMARK>
 VINA RESULT:      -8.6      3.031      7.253
  Name = 
  11 active torsions:
  status: ('A' for Active; 'I' for Inactive)
    1  A    between atoms: N_1  and  C_20
    2  A    between atoms: C_2  and  C_10
    3  A    between atoms: C_10  and  C_14
    4  A    between atoms: C_10  and  N_18
    5  A    between atoms: C_11  and  O_28
    6  A    between atoms: C_12  and  C_27
    7  A    between atoms: C_14  and  C_27
    8  A    between atoms: C_22  and  O_28
    9  A    between atoms: C_22  and  C_35
   10  A    between atoms: C_26  and  C_36
   11  A    between atoms: C_27  and  C_35
                            x       y       z     vdW  Elec       q    Type
                         _______ _______ _______ _____ _____    ______ ____

>  <TORSDO>
F 11

$$$$
=
 OpenBabel10222419413D

 36 39  0  0  1  0  0  0  0  0999 V2000
  186.4410  178.4320  140.9850 C   0  0  2  0  0  3  0  0  0  0  0  0
  185.7860  178.6820  139.6410 C   0  0  0  0  0  1  0  0  0  0  0  0
  185.8470  179.2660  141.9730 O   0  0  0  0  0  0  0  0  0  0  0  0
  182.9140  178.4950  144.1050 C   0  0  0  0  0  3  0  0  0  0  0  0
  184.5310  179.0940  142.4130 C   0  0  0  0  0  0  0  0  0  0  0  0
  183.5000  179.3180  141.5470 N   0  0  0  0  0  0  0  0  0  0  0  0
  182.2010  179.1470  141.9060 C   0  0  0  0  0  3  0  0  0  0  0  0
  184.2570  178.6750  143.7390 C   0  0  0  0  0  0  0  0  0  0  0  0
  180.2160  178.5050  143.6710 Cl  0  0  0  0  0  0  0  0  0  0  0  0
  181.8860  178.7280  143.1940 C   0  0  0  0  0  0  0  0  0  0  0  0
  186.2230  178.6370  147.0100 C   0  0  0  0  0  3  0  0  0  0  0  0
  187.4560  177.3920  145.3470 C   0  0  0  0  0  3  0  0  0  0  0  0
  186.4530  177.6550  144.4100 C   0  0  0  0  0  3  0  0  0  0  0  0
  187.3500  177.8840  146.6530 C   0  0  0  0  0  0  0  0  0  0  0  0
  185.2220  178.8960  146.0720 C   0  0  0  0  0  3  0  0  0  0  0  0
  185.3210  178.4140  144.7560 C   0  0  0  0  0  0  0  0  0  0  0  0
  188.3860  177.6210  147.6090 N   0  0  0  0  0  0  0  0  0  0  0  0
  188.7340  176.4490  147.8620 O   0  0  0  0  0  0  0  0  0  0  0  0
  188.9960  178.6610  148.2720 O   0  0  0  0  0  0  0  0  0  0  0  0
  187.9210  178.7440  140.8800 C   0  0  0  0  0  2  0  0  0  0  0  0
  188.5780  177.9360  139.7620 C   0  0  1  0  0  3  0  0  0  0  0  0
  189.0310  178.7890  138.5750 C   0  0  0  0  0  2  0  0  0  0  0  0
  189.0410  178.0210  137.2610 C   0  0  0  0  0  1  0  0  0  0  0  0
  189.6590  176.9700  140.2600 C   0  0  0  0  0  2  0  0  0  0  0  0
  190.9240  177.6650  140.7560 C   0  0  1  0  0  3  0  0  0  0  0  0
  191.1580  177.3360  142.1950 C   0  0  0  0  0  0  0  0  0  0  0  0
  191.5100  176.1270  142.6230 O   0  0  0  0  0  0  0  0  0  0  0  0
  191.7930  176.2480  146.0630 N   0  0  0  0  0  0  0  0  0  0  0  0
  191.4430  177.5130  145.6940 C   0  0  0  0  0  3  0  0  0  0  0  0
  191.0290  178.2690  143.2480 C   0  0  0  0  0  3  0  0  0  0  0  0
  191.6040  176.2480  143.9140 C   0  0  0  0  0  0  0  0  0  0  0  0
  191.9010  175.4350  144.9750 C   0  0  0  0  0  3  0  0  0  0  0  0
  191.9970  175.8170  147.4320 C   0  0  0  0  0  1  0  0  0  0  0  0
  191.3360  177.4720  144.3260 C   0  0  0  0  0  0  0  0  0  0  0  0
  191.5730  176.3900  139.0060 O   0  0  0  0  0  1  0  0  0  0  0  0
  192.0570  177.2230  139.9590 N   0  0  0  0  0  2  0  0  0  0  0  0
  1  2  1  6  0  0  0
  1  3  1  0  0  0  0
  3  5  1  0  0  0  0
  5  8  1  0  0  0  0
  6  7  1  0  0  0  0
  6  5  2  0  0  0  0
  7 10  2  0  0  0  0
  8  4  2  0  0  0  0
  8 16  1  0  0  0  0
 10  9  1  0  0  0  0
 10  4  1  0  0  0  0
 12 14  2  0  0  0  0
 13 16  2  0  0  0  0
 13 12  1  0  0  0  0
 14 11  1  0  0  0  0
 14 17  1  0  0  0  0
 15 11  2  0  0  0  0
 16 15  1  0  0  0  0
 17 18  2  0  0  0  0
 17 19  2  0  0  0  0
 20  1  1  0  0  0  0
 21 22  1  6  0  0  0
 21 24  1  0  0  0  0
 21 20  1  0  0  0  0
 23 22  1  0  0  0  0
 25 24  1  6  0  0  0
 25 26  1  0  0  0  0
 26 27  1  0  0  0  0
 26 30  2  0  0  0  0
 27 31  1  0  0  0  0
 28 33  1  0  0  0  0
 29 28  1  0  0  0  0
 30 34  1  0  0  0  0
 31 34  1  0  0  0  0
 31 32  2  0  0  0  0
 32 28  1  0  0  0  0
 34 29  2  0  0  0  0
 35 36  1  0  0  0  0
 36 25  1  0  0  0  0
M  END
>  <MODEL>
3

>  <REMARK>
 VINA RESULT:      -8.6      2.400      5.743
  Name = 
  11 active torsions:
  status: ('A' for Active; 'I' for Inactive)
    1  A    between atoms: N_1  and  C_20
    2  A    between atoms: C_2  and  C_10
    3  A    between atoms: C_10  and  C_14
    4  A    between atoms: C_10  and  N_18
    5  A    between atoms: C_11  and  O_28
    6  A    between atoms: C_12  and  C_27
    7  A    between atoms: C_14  and  C_27
    8  A    between atoms: C_22  and  O_28
    9  A    between atoms: C_22  and  C_35
   10  A    between atoms: C_26  and  C_36
   11  A    between atoms: C_27  and  C_35
                            x       y       z     vdW  Elec       q    Type
                         _______ _______ _______ _____ _____    ______ ____

>  <TORSDO>
F 11

$$$$
=
 OpenBabel10222419413D

 36 39  0  0  1  0  0  0  0  0999 V2000
  186.4220  178.1280  142.5150 C   0  0  2  0  0  3  0  0  0  0  0  0
  186.6650  177.4470  143.8470 C   0  0  0  0  0  1  0  0  0  0  0  0
  187.6170  178.7600  142.0710 O   0  0  0  0  0  0  0  0  0  0  0  0
  190.2750  177.2100  140.0020 C   0  0  0  0  0  3  0  0  0  0  0  0
  188.3490  178.3020  140.9710 C   0  0  0  0  0  0  0  0  0  0  0  0
  187.8800  178.5300  139.7110 N   0  0  0  0  0  0  0  0  0  0  0  0
  188.5550  178.1300  138.6010 C   0  0  0  0  0  3  0  0  0  0  0  0
  189.5780  177.6180  141.1510 C   0  0  0  0  0  0  0  0  0  0  0  0
  190.6480  176.9410  137.3090 Cl  0  0  0  0  0  0  0  0  0  0  0  0
  189.7690  177.4640  138.7300 C   0  0  0  0  0  0  0  0  0  0  0  0
  190.7740  177.9880  144.7560 C   0  0  0  0  0  3  0  0  0  0  0  0
  191.2020  175.7260  144.0230 C   0  0  0  0  0  3  0  0  0  0  0  0
  190.6570  176.0310  142.7730 C   0  0  0  0  0  3  0  0  0  0  0  0
  191.2670  176.7030  145.0230 C   0  0  0  0  0  0  0  0  0  0  0  0
  190.2290  178.2880  143.5070 C   0  0  0  0  0  3  0  0  0  0  0  0
  190.1640  177.3180  142.4930 C   0  0  0  0  0  0  0  0  0  0  0  0
  191.8360  176.3900  146.3010 N   0  0  0  0  0  0  0  0  0  0  0  0
  191.7490  177.1980  147.2500 O   0  0  0  0  0  0  0  0  0  0  0  0
  192.5020  175.2010  146.4910 O   0  0  0  0  0  0  0  0  0  0  0  0
  185.3300  179.1670  142.6810 C   0  0  0  0  0  2  0  0  0  0  0  0
  183.9510  178.5660  142.4110 C   0  0  1  0  0  3  0  0  0  0  0  0
  182.9360  178.8390  143.5240 C   0  0  0  0  0  2  0  0  0  0  0  0
  183.5780  178.9430  144.9000 C   0  0  0  0  0  1  0  0  0  0  0  0
  183.4110  178.8790  141.0110 C   0  0  0  0  0  2  0  0  0  0  0  0
  184.4650  178.7890  139.9110 C   0  0  1  0  0  3  0  0  0  0  0  0
  184.1120  177.6970  138.9530 C   0  0  0  0  0  0  0  0  0  0  0  0
  183.1410  176.8160  139.1710 O   0  0  0  0  0  0  0  0  0  0  0  0
  183.0420  174.6430  136.4880 N   0  0  0  0  0  0  0  0  0  0  0  0
  184.0460  175.5180  136.1950 C   0  0  0  0  0  3  0  0  0  0  0  0
  184.7720  177.4860  137.7210 C   0  0  0  0  0  3  0  0  0  0  0  0
  183.1570  176.0400  138.1270 C   0  0  0  0  0  0  0  0  0  0  0  0
  182.4690  174.9420  137.6870 C   0  0  0  0  0  3  0  0  0  0  0  0
  182.6550  173.5260  135.6490 C   0  0  0  0  0  1  0  0  0  0  0  0
  184.0840  176.3890  137.2560 C   0  0  0  0  0  0  0  0  0  0  0  0
  183.2570  180.4510  138.9690 O   0  0  0  0  0  1  0  0  0  0  0  0
  184.5320  180.0590  139.2070 N   0  0  0  0  0  2  0  0  0  0  0  0
  1 20  1  0  0  0  0
  1  2  1  1  0  0  0
  3  1  1  0  0  0  0
  4  8  2  0  0  0  0
  5  8  1  0  0  0  0
  5  3  1  0  0  0  0
  6  5  2  0  0  0  0
  7 10  2  0  0  0  0
  7  6  1  0  0  0  0
  8 16  1  0  0  0  0
  9 10  1  0  0  0  0
 10  4  1  0  0  0  0
 11 14  1  0  0  0  0
 12 14  2  0  0  0  0
 13 12  1  0  0  0  0
 14 17  1  0  0  0  0
 15 11  2  0  0  0  0
 16 13  2  0  0  0  0
 16 15  1  0  0  0  0
 17 19  2  0  0  0  0
 17 18  2  0  0  0  0
 21 24  1  6  0  0  0
 21 20  1  0  0  0  0
 21 22  1  0  0  0  0
 22 23  1  0  0  0  0
 25 24  1  1  0  0  0
 26 27  1  0  0  0  0
 26 25  1  0  0  0  0
 28 32  1  0  0  0  0
 29 28  1  0  0  0  0
 29 34  2  0  0  0  0
 30 26  2  0  0  0  0
 31 27  1  0  0  0  0
 32 31  2  0  0  0  0
 33 28  1  0  0  0  0
 34 30  1  0  0  0  0
 34 31  1  0  0  0  0
 35 36  1  0  0  0  0
 36 25  1  0  0  0  0
M  END
>  <MODEL>
4

>  <REMARK>
 VINA RESULT:      -8.4      2.747      5.086
  Name = 
  11 active torsions:
  status: ('A' for Active; 'I' for Inactive)
    1  A    between atoms: N_1  and  C_20
    2  A    between atoms: C_2  and  C_10
    3  A    between atoms: C_10  and  C_14
    4  A    between atoms: C_10  and  N_18
    5  A    between atoms: C_11  and  O_28
    6  A    between atoms: C_12  and  C_27
    7  A    between atoms: C_14  and  C_27
    8  A    between atoms: C_22  and  O_28
    9  A    between atoms: C_22  and  C_35
   10  A    between atoms: C_26  and  C_36
   11  A    between atoms: C_27  and  C_35
                            x       y       z     vdW  Elec       q    Type
                         _______ _______ _______ _____ _____    ______ ____

>  <TORSDO>
F 11

$$$$
=
 OpenBabel10222419413D

 36 39  0  0  1  0  0  0  0  0999 V2000
  188.3760  177.5550  141.7220 C   0  0  2  0  0  3  0  0  0  0  0  0
  188.6350  178.9740  142.1870 C   0  0  0  0  0  1  0  0  0  0  0  0
  187.7660  176.8090  142.7690 O   0  0  0  0  0  0  0  0  0  0  0  0
  187.1180  178.1000  146.1830 C   0  0  0  0  0  3  0  0  0  0  0  0
  187.9240  177.1360  144.1190 C   0  0  0  0  0  0  0  0  0  0  0  0
  189.1020  176.8520  144.7450 N   0  0  0  0  0  0  0  0  0  0  0  0
  189.3260  177.1650  146.0470 C   0  0  0  0  0  3  0  0  0  0  0  0
  186.8810  177.7740  144.8380 C   0  0  0  0  0  0  0  0  0  0  0  0
  188.6090  178.2060  148.4700 Cl  0  0  0  0  0  0  0  0  0  0  0  0
  188.3350  177.7990  146.7900 C   0  0  0  0  0  0  0  0  0  0  0  0
  184.0640  178.2990  142.3180 C   0  0  0  0  0  3  0  0  0  0  0  0
  183.2600  178.8920  144.5170 C   0  0  0  0  0  3  0  0  0  0  0  0
  184.5090  178.5740  145.0560 C   0  0  0  0  0  3  0  0  0  0  0  0
  183.0290  178.7600  143.1430 C   0  0  0  0  0  0  0  0  0  0  0  0
  185.3110  177.9800  142.8600 C   0  0  0  0  0  3  0  0  0  0  0  0
  185.5570  178.1150  144.2370 C   0  0  0  0  0  0  0  0  0  0  0  0
  181.7500  179.0970  142.5910 N   0  0  0  0  0  0  0  0  0  0  0  0
  181.3370  178.5330  141.5550 O   0  0  0  0  0  0  0  0  0  0  0  0
  180.9690  180.0600  143.1880 O   0  0  0  0  0  0  0  0  0  0  0  0
  189.6940  176.9100  141.3400 C   0  0  0  0  0  2  0  0  0  0  0  0
  190.0290  177.1660  139.8710 C   0  0  1  0  0  3  0  0  0  0  0  0
  191.4130  176.6580  139.4610 C   0  0  0  0  0  2  0  0  0  0  0  0
  192.5420  177.3150  140.2430 C   0  0  0  0  0  1  0  0  0  0  0  0
  188.9180  176.7360  138.9070 C   0  0  0  0  0  2  0  0  0  0  0  0
  188.4460  177.8480  137.9750 C   0  0  1  0  0  3  0  0  0  0  0  0
  186.9520  177.8680  137.9160 C   0  0  0  0  0  0  0  0  0  0  0  0
  186.1960  178.5890  138.7380 O   0  0  0  0  0  0  0  0  0  0  0  0
  182.8880  178.0140  137.9310 N   0  0  0  0  0  0  0  0  0  0  0  0
  183.6020  177.2570  137.0490 C   0  0  0  0  0  3  0  0  0  0  0  0
  186.1910  177.1260  136.9860 C   0  0  0  0  0  3  0  0  0  0  0  0
  184.9740  178.3310  138.3750 C   0  0  0  0  0  0  0  0  0  0  0  0
  183.7160  178.6940  138.7710 C   0  0  0  0  0  3  0  0  0  0  0  0
  181.4400  178.0660  137.9850 C   0  0  0  0  0  1  0  0  0  0  0  0
  184.9180  177.4880  137.3610 C   0  0  0  0  0  0  0  0  0  0  0  0
  188.9700  179.9740  137.4100 O   0  0  0  0  0  1  0  0  0  0  0  0
  188.9370  179.1250  138.4670 N   0  0  0  0  0  2  0  0  0  0  0  0
  1  2  1  1  0  0  0
  1  3  1  0  0  0  0
  3  5  1  0  0  0  0
  4 10  1  0  0  0  0
  5  6  2  0  0  0  0
  5  8  1  0  0  0  0
  6  7  1  0  0  0  0
  7 10  2  0  0  0  0
  8  4  2  0  0  0  0
 10  9  1  0  0  0  0
 11 15  2  0  0  0  0
 11 14  1  0  0  0  0
 12 13  1  0  0  0  0
 14 12  2  0  0  0  0
 15 16  1  0  0  0  0
 16  8  1  0  0  0  0
 16 13  2  0  0  0  0
 17 14  1  0  0  0  0
 17 19  2  0  0  0  0
 18 17  2  0  0  0  0
 20  1  1  0  0  0  0
 21 24  1  6  0  0  0
 21 20  1  0  0  0  0
 22 21  1  0  0  0  0
 22 23  1  0  0  0  0
 25 36  1  0  0  0  0
 25 24  1  1  0  0  0
 26 25  1  0  0  0  0
 26 27  1  0  0  0  0
 28 33  1  0  0  0  0
 28 32  1  0  0  0  0
 29 34  2  0  0  0  0
 29 28  1  0  0  0  0
 30 34  1  0  0  0  0
 30 26  2  0  0  0  0
 31 27  1  0  0  0  0
 31 32  2  0  0  0  0
 34 31  1  0  0  0  0
 35 36  1  0  0  0  0
M  END
>  <MODEL>
5

>  <REMARK>
 VINA RESULT:      -8.4      2.374      4.953
  Name = 
  11 active torsions:
  status: ('A' for Active; 'I' for Inactive)
    1  A    between atoms: N_1  and  C_20
    2  A    between atoms: C_2  and  C_10
    3  A    between atoms: C_10  and  C_14
    4  A    between atoms: C_10  and  N_18
    5  A    between atoms: C_11  and  O_28
    6  A    between atoms: C_12  and  C_27
    7  A    between atoms: C_14  and  C_27
    8  A    between atoms: C_22  and  O_28
    9  A    between atoms: C_22  and  C_35
   10  A    between atoms: C_26  and  C_36
   11  A    between atoms: C_27  and  C_35
                            x       y       z     vdW  Elec       q    Type
                         _______ _______ _______ _____ _____    ______ ____

>  <TORSDO>
F 11

$$$$
=
 OpenBabel10222419413D

 36 39  0  0  1  0  0  0  0  0999 V2000
  186.6060  178.0950  142.3760 C   0  0  2  0  0  3  0  0  0  0  0  0
  186.8690  177.6270  143.7940 C   0  0  0  0  0  1  0  0  0  0  0  0
  187.7560  178.7640  141.8680 O   0  0  0  0  0  0  0  0  0  0  0  0
  190.4090  177.1400  139.8520 C   0  0  0  0  0  3  0  0  0  0  0  0
  188.4920  178.2790  140.7830 C   0  0  0  0  0  0  0  0  0  0  0  0
  188.0440  178.5020  139.5140 N   0  0  0  0  0  0  0  0  0  0  0  0
  188.7240  178.0770  138.4180 C   0  0  0  0  0  3  0  0  0  0  0  0
  189.7060  177.5740  140.9870 C   0  0  0  0  0  0  0  0  0  0  0  0
  190.8110  176.8330  137.1670 Cl  0  0  0  0  0  0  0  0  0  0  0  0
  189.9240  177.3890  138.5700 C   0  0  0  0  0  0  0  0  0  0  0  0
  191.1030  178.0040  144.5110 C   0  0  0  0  0  3  0  0  0  0  0  0
  191.0010  175.6460  143.9980 C   0  0  0  0  0  3  0  0  0  0  0  0
  190.4830  175.9460  142.7350 C   0  0  0  0  0  3  0  0  0  0  0  0
  191.3180  176.6730  144.8940 C   0  0  0  0  0  0  0  0  0  0  0  0
  190.5840  178.3000  143.2500 C   0  0  0  0  0  3  0  0  0  0  0  0
  190.2680  177.2780  142.3390 C   0  0  0  0  0  0  0  0  0  0  0  0
  191.8590  176.3620  146.1850 N   0  0  0  0  0  0  0  0  0  0  0  0
  191.8250  177.2040  147.1070 O   0  0  0  0  0  0  0  0  0  0  0  0
  192.4380  175.1350  146.4170 O   0  0  0  0  0  0  0  0  0  0  0  0
  185.4260  179.0470  142.3780 C   0  0  0  0  0  2  0  0  0  0  0  0
  184.1050  178.2870  142.2610 C   0  0  1  0  0  3  0  0  0  0  0  0
  183.0660  178.6990  143.3070 C   0  0  0  0  0  2  0  0  0  0  0  0
  183.6890  179.3150  144.5510 C   0  0  0  0  0  1  0  0  0  0  0  0
  183.5450  178.2520  140.8350 C   0  0  0  0  0  2  0  0  0  0  0  0
  182.0200  178.2280  140.7720 C   0  0  1  0  0  3  0  0  0  0  0  0
  181.5180  179.4370  140.0500 C   0  0  0  0  0  0  0  0  0  0  0  0
  180.3970  180.0720  140.3770 O   0  0  0  0  0  0  0  0  0  0  0  0
  179.9790  182.7060  138.1830 N   0  0  0  0  0  0  0  0  0  0  0  0
  181.1440  182.1100  137.7990 C   0  0  0  0  0  3  0  0  0  0  0  0
  182.1780  180.0290  138.9510 C   0  0  0  0  0  3  0  0  0  0  0  0
  180.3080  181.0470  139.5210 C   0  0  0  0  0  0  0  0  0  0  0  0
  179.4330  182.0650  139.2530 C   0  0  0  0  0  3  0  0  0  0  0  0
  179.3850  183.8520  137.5220 C   0  0  0  0  0  1  0  0  0  0  0  0
  181.3180  181.0660  138.6730 C   0  0  0  0  0  0  0  0  0  0  0  0
  182.6990  176.4440  139.5600 O   0  0  0  0  0  1  0  0  0  0  0  0
  181.5890  177.0250  140.0770 N   0  0  0  0  0  2  0  0  0  0  0  0
  1 20  1  0  0  0  0
  1  2  1  1  0  0  0
  3  1  1  0  0  0  0
  4  8  2  0  0  0  0
  5  8  1  0  0  0  0
  5  3  1  0  0  0  0
  6  5  2  0  0  0  0
  7 10  2  0  0  0  0
  7  6  1  0  0  0  0
  8 16  1  0  0  0  0
  9 10  1  0  0  0  0
 10  4  1  0  0  0  0
 11 14  1  0  0  0  0
 12 14  2  0  0  0  0
 13 12  1  0  0  0  0
 14 17  1  0  0  0  0
 15 11  2  0  0  0  0
 16 13  2  0  0  0  0
 16 15  1  0  0  0  0
 17 19  2  0  0  0  0
 17 18  2  0  0  0  0
 21 24  1  6  0  0  0
 21 20  1  0  0  0  0
 21 22  1  0  0  0  0
 22 23  1  0  0  0  0
 25 24  1  6  0  0  0
 26 27  1  0  0  0  0
 26 25  1  0  0  0  0
 28 32  1  0  0  0  0
 29 28  1  0  0  0  0
 29 34  2  0  0  0  0
 30 26  2  0  0  0  0
 31 27  1  0  0  0  0
 32 31  2  0  0  0  0
 33 28  1  0  0  0  0
 34 30  1  0  0  0  0
 34 31  1  0  0  0  0
 35 36  1  0  0  0  0
 36 25  1  0  0  0  0
M  END
>  <MODEL>
6

>  <REMARK>
 VINA RESULT:      -8.3      3.099      5.651
  Name = 
  11 active torsions:
  status: ('A' for Active; 'I' for Inactive)
    1  A    between atoms: N_1  and  C_20
    2  A    between atoms: C_2  and  C_10
    3  A    between atoms: C_10  and  C_14
    4  A    between atoms: C_10  and  N_18
    5  A    between atoms: C_11  and  O_28
    6  A    between atoms: C_12  and  C_27
    7  A    between atoms: C_14  and  C_27
    8  A    between atoms: C_22  and  O_28
    9  A    between atoms: C_22  and  C_35
   10  A    between atoms: C_26  and  C_36
   11  A    between atoms: C_27  and  C_35
                            x       y       z     vdW  Elec       q    Type
                         _______ _______ _______ _____ _____    ______ ____

>  <TORSDO>
F 11

$$$$
=
 OpenBabel10222419413D

 36 39  0  0  1  0  0  0  0  0999 V2000
  188.2750  177.3600  143.5160 C   0  0  2  0  0  3  0  0  0  0  0  0
  188.9350  176.0120  143.2990 C   0  0  0  0  0  1  0  0  0  0  0  0
  188.6810  178.2640  142.4940 O   0  0  0  0  0  0  0  0  0  0  0  0
  190.1410  177.3980  139.1980 C   0  0  0  0  0  3  0  0  0  0  0  0
  189.5940  177.9130  141.4950 C   0  0  0  0  0  0  0  0  0  0  0  0
  190.8960  177.6770  141.8280 N   0  0  0  0  0  0  0  0  0  0  0  0
  191.8260  177.3110  140.9080 C   0  0  0  0  0  3  0  0  0  0  0  0
  189.1780  177.7820  140.1460 C   0  0  0  0  0  0  0  0  0  0  0  0
  192.6490  176.6910  138.3770 Cl  0  0  0  0  0  0  0  0  0  0  0  0
  191.4610  177.1610  139.5740 C   0  0  0  0  0  0  0  0  0  0  0  0
  185.5130  178.8410  140.0820 C   0  0  0  0  0  3  0  0  0  0  0  0
  186.0890  177.9040  137.9320 C   0  0  0  0  0  3  0  0  0  0  0  0
  187.3920  177.6780  138.3820 C   0  0  0  0  0  3  0  0  0  0  0  0
  185.1390  178.4850  138.7790 C   0  0  0  0  0  0  0  0  0  0  0  0
  186.8160  178.6150  140.5290 C   0  0  0  0  0  3  0  0  0  0  0  0
  187.7770  178.0260  139.6890 C   0  0  0  0  0  0  0  0  0  0  0  0
  183.8000  178.7070  138.3180 N   0  0  0  0  0  0  0  0  0  0  0  0
  183.2590  177.9060  137.5280 O   0  0  0  0  0  0  0  0  0  0  0  0
  183.1010  179.8190  138.7290 O   0  0  0  0  0  0  0  0  0  0  0  0
  188.6910  177.9030  144.8690 C   0  0  0  0  0  2  0  0  0  0  0  0
  188.0250  177.1250  146.0040 C   0  0  1  0  0  3  0  0  0  0  0  0
  188.5890  177.4570  147.3870 C   0  0  0  0  0  2  0  0  0  0  0  0
  190.1050  177.3360  147.4540 C   0  0  0  0  0  1  0  0  0  0  0  0
  186.4940  177.1600  145.9520 C   0  0  0  0  0  2  0  0  0  0  0  0
  185.9080  178.5690  145.9860 C   0  0  1  0  0  3  0  0  0  0  0  0
  184.7740  178.6760  145.0180 C   0  0  0  0  0  0  0  0  0  0  0  0
  183.5390  179.0200  145.3710 O   0  0  0  0  0  0  0  0  0  0  0  0
  181.5630  178.9750  142.5390 N   0  0  0  0  0  0  0  0  0  0  0  0
  182.8080  178.6260  142.1050 C   0  0  0  0  0  3  0  0  0  0  0  0
  184.8930  178.4220  143.6330 C   0  0  0  0  0  3  0  0  0  0  0  0
  182.8580  178.9890  144.2640 C   0  0  0  0  0  0  0  0  0  0  0  0
  181.5620  179.2070  143.8810 C   0  0  0  0  0  3  0  0  0  0  0  0
  180.3910  179.0620  141.6900 C   0  0  0  0  0  1  0  0  0  0  0  0
  183.5990  178.6490  143.2260 C   0  0  0  0  0  0  0  0  0  0  0  0
  186.0110  180.0280  147.7100 O   0  0  0  0  0  1  0  0  0  0  0  0
  185.4380  178.8590  147.3300 N   0  0  0  0  0  2  0  0  0  0  0  0
  1  2  1  6  0  0  0
  1 20  1  0  0  0  0
  3  1  1  0  0  0  0
  4 10  1  0  0  0  0
  4  8  2  0  0  0  0
  5  6  2  0  0  0  0
  5  3  1  0  0  0  0
  7  6  1  0  0  0  0
  8  5  1  0  0  0  0
  9 10  1  0  0  0  0
 10  7  2  0  0  0  0
 11 15  1  0  0  0  0
 12 13  2  0  0  0  0
 12 14  1  0  0  0  0
 13 16  1  0  0  0  0
 14 11  2  0  0  0  0
 16  8  1  0  0  0  0
 16 15  2  0  0  0  0
 17 19  2  0  0  0  0
 17 14  1  0  0  0  0
 18 17  2  0  0  0  0
 21 20  1  6  0  0  0
 21 22  1  0  0  0  0
 22 23  1  0  0  0  0
 24 21  1  0  0  0  0
 25 24  1  1  0  0  0
 25 36  1  0  0  0  0
 26 27  1  0  0  0  0
 26 25  1  0  0  0  0
 28 32  1  0  0  0  0
 29 28  1  0  0  0  0
 29 34  2  0  0  0  0
 30 26  2  0  0  0  0
 31 27  1  0  0  0  0
 32 31  2  0  0  0  0
 33 28  1  0  0  0  0
 34 30  1  0  0  0  0
 34 31  1  0  0  0  0
 36 35  1  0  0  0  0
M  END
>  <MODEL>
7

>  <REMARK>
 VINA RESULT:      -8.2      3.362      7.814
  Name = 
  11 active torsions:
  status: ('A' for Active; 'I' for Inactive)
    1  A    between atoms: N_1  and  C_20
    2  A    between atoms: C_2  and  C_10
    3  A    between atoms: C_10  and  C_14
    4  A    between atoms: C_10  and  N_18
    5  A    between atoms: C_11  and  O_28
    6  A    between atoms: C_12  and  C_27
    7  A    between atoms: C_14  and  C_27
    8  A    between atoms: C_22  and  O_28
    9  A    between atoms: C_22  and  C_35
   10  A    between atoms: C_26  and  C_36
   11  A    between atoms: C_27  and  C_35
                            x       y       z     vdW  Elec       q    Type
                         _______ _______ _______ _____ _____    ______ ____

>  <TORSDO>
F 11

$$$$
=
 OpenBabel10222419413D

 36 39  0  0  1  0  0  0  0  0999 V2000
  189.0560  176.8960  141.9570 C   0  0  2  0  0  3  0  0  0  0  0  0
  190.1860  176.0280  142.4740 C   0  0  0  0  0  1  0  0  0  0  0  0
  189.4670  177.5660  140.7700 O   0  0  0  0  0  0  0  0  0  0  0  0
  188.3360  177.1530  137.2640 C   0  0  0  0  0  3  0  0  0  0  0  0
  188.6830  177.6000  139.6130 C   0  0  0  0  0  0  0  0  0  0  0  0
  187.4470  178.1750  139.6570 N   0  0  0  0  0  0  0  0  0  0  0  0
  186.6460  178.2600  138.5630 C   0  0  0  0  0  3  0  0  0  0  0  0
  189.1640  177.0590  138.3940 C   0  0  0  0  0  0  0  0  0  0  0  0
  186.0590  177.8510  135.9260 Cl  0  0  0  0  0  0  0  0  0  0  0  0
  187.0800  177.7510  137.3440 C   0  0  0  0  0  0  0  0  0  0  0  0
  191.9000  174.5310  137.5680 C   0  0  0  0  0  3  0  0  0  0  0  0
  192.9210  176.4890  138.5470 C   0  0  0  0  0  3  0  0  0  0  0  0
  191.6610  177.0780  138.6750 C   0  0  0  0  0  3  0  0  0  0  0  0
  193.0500  175.2090  137.9950 C   0  0  0  0  0  0  0  0  0  0  0  0
  190.6430  175.1240  137.6950 C   0  0  0  0  0  3  0  0  0  0  0  0
  190.5000  176.4050  138.2540 C   0  0  0  0  0  0  0  0  0  0  0  0
  194.3430  174.6020  137.8740 N   0  0  0  0  0  0  0  0  0  0  0  0
  194.5130  173.6130  137.1320 O   0  0  0  0  0  0  0  0  0  0  0  0
  195.4090  175.0950  138.5910 O   0  0  0  0  0  0  0  0  0  0  0  0
  188.6900  177.9180  143.0150 C   0  0  0  0  0  2  0  0  0  0  0  0
  188.4410  177.2480  144.3660 C   0  0  1  0  0  3  0  0  0  0  0  0
  189.1740  177.9210  145.5290 C   0  0  0  0  0  2  0  0  0  0  0  0
  189.1030  177.1190  146.8200 C   0  0  0  0  0  1  0  0  0  0  0  0
  186.9580  176.9900  144.6550 C   0  0  0  0  0  2  0  0  0  0  0  0
  186.1740  178.2470  145.0220 C   0  0  1  0  0  3  0  0  0  0  0  0
  185.0220  178.4230  144.0860 C   0  0  0  0  0  0  0  0  0  0  0  0
  183.7900  178.7180  144.4880 O   0  0  0  0  0  0  0  0  0  0  0  0
  181.7650  178.8950  141.6960 N   0  0  0  0  0  0  0  0  0  0  0  0
  183.0060  178.6010  141.2120 C   0  0  0  0  0  3  0  0  0  0  0  0
  185.1200  178.2930  142.6820 C   0  0  0  0  0  3  0  0  0  0  0  0
  183.0890  178.7750  143.3940 C   0  0  0  0  0  0  0  0  0  0  0  0
  181.7840  179.0080  143.0520 C   0  0  0  0  0  3  0  0  0  0  0  0
  180.5770  179.0390  140.8770 C   0  0  0  0  0  1  0  0  0  0  0  0
  183.8160  178.5370  142.3180 C   0  0  0  0  0  0  0  0  0  0  0  0
  185.7270  179.3650  146.9340 O   0  0  0  0  0  1  0  0  0  0  0  0
  185.6870  178.1260  146.3860 N   0  0  0  0  0  2  0  0  0  0  0  0
  1  2  1  1  0  0  0
  1 20  1  0  0  0  0
  3  1  1  0  0  0  0
  4 10  1  0  0  0  0
  4  8  2  0  0  0  0
  5  6  2  0  0  0  0
  5  3  1  0  0  0  0
  7  6  1  0  0  0  0
  8  5  1  0  0  0  0
  9 10  1  0  0  0  0
 10  7  2  0  0  0  0
 11 15  2  0  0  0  0
 11 14  1  0  0  0  0
 12 13  1  0  0  0  0
 14 12  2  0  0  0  0
 15 16  1  0  0  0  0
 16  8  1  0  0  0  0
 16 13  2  0  0  0  0
 17 14  1  0  0  0  0
 17 19  2  0  0  0  0
 18 17  2  0  0  0  0
 21 20  1  6  0  0  0
 21 24  1  0  0  0  0
 21 22  1  0  0  0  0
 22 23  1  0  0  0  0
 25 24  1  6  0  0  0
 25 36  1  0  0  0  0
 26 27  1  0  0  0  0
 26 25  1  0  0  0  0
 28 32  1  0  0  0  0
 29 28  1  0  0  0  0
 29 34  2  0  0  0  0
 30 26  2  0  0  0  0
 31 27  1  0  0  0  0
 32 31  2  0  0  0  0
 33 28  1  0  0  0  0
 34 30  1  0  0  0  0
 34 31  1  0  0  0  0
 36 35  1  0  0  0  0
M  END
>  <MODEL>
8

>  <REMARK>
 VINA RESULT:      -8.2      3.434      7.008
  Name = 
  11 active torsions:
  status: ('A' for Active; 'I' for Inactive)
    1  A    between atoms: N_1  and  C_20
    2  A    between atoms: C_2  and  C_10
    3  A    between atoms: C_10  and  C_14
    4  A    between atoms: C_10  and  N_18
    5  A    between atoms: C_11  and  O_28
    6  A    between atoms: C_12  and  C_27
    7  A    between atoms: C_14  and  C_27
    8  A    between atoms: C_22  and  O_28
    9  A    between atoms: C_22  and  C_35
   10  A    between atoms: C_26  and  C_36
   11  A    between atoms: C_27  and  C_35
                            x       y       z     vdW  Elec       q    Type
                         _______ _______ _______ _____ _____    ______ ____

>  <TORSDO>
F 11

$$$$
=
 OpenBabel10222419413D

 36 39  0  0  1  0  0  0  0  0999 V2000
  184.5180  178.4150  143.3990 C   0  0  2  0  0  3  0  0  0  0  0  0
  184.6210  179.7570  144.0960 C   0  0  0  0  0  1  0  0  0  0  0  0
  185.6890  177.6470  143.6580 O   0  0  0  0  0  0  0  0  0  0  0  0
  188.4550  177.6620  146.1270 C   0  0  0  0  0  3  0  0  0  0  0  0
  186.3990  177.7360  144.8600 C   0  0  0  0  0  0  0  0  0  0  0  0
  185.7220  177.9500  146.0250 N   0  0  0  0  0  0  0  0  0  0  0  0
  186.3500  178.0240  147.2270 C   0  0  0  0  0  3  0  0  0  0  0  0
  187.8090  177.5900  144.8820 C   0  0  0  0  0  0  0  0  0  0  0  0
  188.5560  177.9730  148.8390 Cl  0  0  0  0  0  0  0  0  0  0  0  0
  187.7320  177.8780  147.2980 C   0  0  0  0  0  0  0  0  0  0  0  0
  190.4270  176.2110  142.4720 C   0  0  0  0  0  3  0  0  0  0  0  0
  189.1180  177.8840  141.3230 C   0  0  0  0  0  3  0  0  0  0  0  0
  188.3660  178.0880  142.4830 C   0  0  0  0  0  3  0  0  0  0  0  0
  190.1560  176.9460  141.3100 C   0  0  0  0  0  0  0  0  0  0  0  0
  189.6730  176.4160  143.6290 C   0  0  0  0  0  3  0  0  0  0  0  0
  188.6320  177.3600  143.6560 C   0  0  0  0  0  0  0  0  0  0  0  0
  190.9330  176.7460  140.1220 N   0  0  0  0  0  0  0  0  0  0  0  0
  191.9570  177.4290  139.9100 O   0  0  0  0  0  0  0  0  0  0  0  0
  190.5460  175.8090  139.1910 O   0  0  0  0  0  0  0  0  0  0  0  0
  184.3800  178.6400  141.9070 C   0  0  0  0  0  2  0  0  0  0  0  0
  183.0810  178.0340  141.3760 C   0  0  1  0  0  3  0  0  0  0  0  0
  181.8590  178.9340  141.5740 C   0  0  0  0  0  2  0  0  0  0  0  0
  180.5480  178.2370  141.2390 C   0  0  0  0  0  1  0  0  0  0  0  0
  183.2010  177.4850  139.9500 C   0  0  0  0  0  2  0  0  0  0  0  0
  183.5990  178.5350  138.9170 C   0  0  1  0  0  3  0  0  0  0  0  0
  184.8920  178.1540  138.2700 C   0  0  0  0  0  0  0  0  0  0  0  0
  186.0720  178.6270  138.6580 O   0  0  0  0  0  0  0  0  0  0  0  0
  188.4960  177.2670  136.6080 N   0  0  0  0  0  0  0  0  0  0  0  0
  187.3210  176.7360  136.1630 C   0  0  0  0  0  3  0  0  0  0  0  0
  184.9940  177.2580  137.1830 C   0  0  0  0  0  3  0  0  0  0  0  0
  186.9310  178.0720  137.8540 C   0  0  0  0  0  0  0  0  0  0  0  0
  188.2850  178.1050  137.6600 C   0  0  0  0  0  3  0  0  0  0  0  0
  189.7940  176.9970  136.0210 C   0  0  0  0  0  1  0  0  0  0  0  0
  186.3550  177.2680  136.9800 C   0  0  0  0  0  0  0  0  0  0  0  0
  181.9330  179.8250  138.0960 O   0  0  0  0  0  1  0  0  0  0  0  0
  182.5540  178.6350  137.9100 N   0  0  0  0  0  2  0  0  0  0  0  0
  1  3  1  0  0  0  0
  1  2  1  1  0  0  0
  3  5  1  0  0  0  0
  4 10  1  0  0  0  0
  5  8  1  0  0  0  0
  5  6  2  0  0  0  0
  6  7  1  0  0  0  0
  7 10  2  0  0  0  0
  8  4  2  0  0  0  0
 10  9  1  0  0  0  0
 11 15  1  0  0  0  0
 12 13  2  0  0  0  0
 13 16  1  0  0  0  0
 14 12  1  0  0  0  0
 14 11  2  0  0  0  0
 15 16  2  0  0  0  0
 16  8  1  0  0  0  0
 17 14  1  0  0  0  0
 18 17  2  0  0  0  0
 19 17  2  0  0  0  0
 20  1  1  0  0  0  0
 21 24  1  6  0  0  0
 21 22  1  0  0  0  0
 21 20  1  0  0  0  0
 23 22  1  0  0  0  0
 25 24  1  1  0  0  0
 26 27  1  0  0  0  0
 26 25  1  0  0  0  0
 28 32  1  0  0  0  0
 29 28  1  0  0  0  0
 29 34  2  0  0  0  0
 30 26  2  0  0  0  0
 31 27  1  0  0  0  0
 32 31  2  0  0  0  0
 33 28  1  0  0  0  0
 34 30  1  0  0  0  0
 34 31  1  0  0  0  0
 36 35  1  0  0  0  0
 36 25  1  0  0  0  0
M  END
>  <MODEL>
9

>  <REMARK>
 VINA RESULT:      -8.1      2.928      5.566
  Name = 
  11 active torsions:
  status: ('A' for Active; 'I' for Inactive)
    1  A    between atoms: N_1  and  C_20
    2  A    between atoms: C_2  and  C_10
    3  A    between atoms: C_10  and  C_14
    4  A    between atoms: C_10  and  N_18
    5  A    between atoms: C_11  and  O_28
    6  A    between atoms: C_12  and  C_27
    7  A    between atoms: C_14  and  C_27
    8  A    between atoms: C_22  and  O_28
    9  A    between atoms: C_22  and  C_35
   10  A    between atoms: C_26  and  C_36
   11  A    between atoms: C_27  and  C_35
                            x       y       z     vdW  Elec       q    Type
                         _______ _______ _______ _____ _____    ______ ____

>  <TORSDO>
F 11

$$$$
