=
 OpenBabel10222420133D

 63 70  0  0  1  0  0  0  0  0999 V2000
  190.4610  177.2950  141.7750 C   0  0  1  0  0  3  0  0  0  0  0  0
  188.8800  177.6620  139.0810 C   0  0  0  0  0  2  0  0  0  0  0  0
  188.4510  178.6950  140.1120 C   0  0  0  0  0  2  0  0  0  0  0  0
  188.0960  178.0460  141.4210 C   0  0  0  0  0  0  0  0  0  0  0  0
  190.3550  177.3130  139.2510 C   0  0  1  0  0  3  0  0  0  0  0  0
  190.6110  176.4700  140.4970 C   0  0  0  0  0  2  0  0  0  0  0  0
  189.0180  177.4320  142.1690 C   0  0  0  0  0  3  0  0  0  0  0  0
  190.9570  175.3740  143.1360 O   0  0  0  0  0  1  0  0  0  0  0  0
  191.2970  176.7120  142.9250 C   0  0  2  0  0  3  0  0  0  0  0  0
  191.6440  178.7760  144.1950 C   0  0  0  0  0  2  0  0  0  0  0  0
  191.2230  177.5140  144.2090 C   0  0  0  0  0  0  0  0  0  0  0  0
  192.1100  176.5020  146.1760 O   0  0  0  0  0  1  0  0  0  0  0  0
  190.9280  176.8880  145.5420 C   0  0  1  0  0  3  0  0  0  0  0  0
  190.1840  177.8100  146.3880 N   0  0  0  0  0  2  0  0  0  0  0  0
  187.9560  177.5210  145.1950 C   0  0  0  0  0  2  0  0  0  0  0  0
  186.7040  178.3320  147.8020 C   0  0  0  0  0  2  0  0  0  0  0  0
  186.4710  177.3200  145.4420 C   0  0  0  0  0  2  0  0  0  0  0  0
  188.1860  178.2730  147.5710 C   0  0  0  0  0  3  0  0  0  0  0  0
  185.8000  178.7730  146.2900 S   0  0  0  0  0  0  0  0  0  0  0  0
  188.7560  177.8420  146.4400 C   0  0  0  0  0  0  0  0  0  0  0  0
  190.8980  176.6180  138.0060 C   0  0  0  0  0  2  0  0  0  0  0  0
  192.3390  176.1620  138.1740 C   0  0  0  0  0  2  0  0  0  0  0  0
  192.5320  174.8660  137.4580 C   0  0  0  0  0  3  0  0  0  0  0  0
  192.9980  174.7750  136.2010 C   0  0  0  0  0  0  0  0  0  0  0  0
  194.6100  176.6330  135.8690 C   0  0  0  0  0  2  0  0  0  0  0  0
  194.5950  175.8220  134.5960 C   0  0  0  0  0  2  0  0  0  0  0  0
  193.3110  176.0070  135.3880 C   0  0  0  0  0  3  0  0  0  0  0  0
  193.0710  173.4250  135.5330 C   0  0  2  0  0  3  0  0  0  0  0  0
  190.7950  173.8950  134.5940 O   0  0  0  0  0  0  0  0  0  0  0  0
  191.7300  172.9720  135.0470 C   0  0  0  0  0  0  0  0  0  0  0  0
  191.4570  171.7430  135.0270 O   0  0  0  0  0  1  0  0  0  0  0  0
  193.8600  172.1850  136.6120 S   0  0  0  0  0  0  0  0  0  0  0  0
  195.4360  173.0870  136.6850 C   0  0  0  0  0  2  0  0  0  0  0  0
  195.8550  173.2030  138.0150 O   0  0  0  0  0  0  0  0  0  0  0  0
  198.2710  173.5500  137.4880 C   0  0  0  0  0  2  0  0  0  0  0  0
  197.4140  174.4700  136.6210 C   0  0  2  0  0  3  0  0  0  0  0  0
  196.9910  175.0870  138.9740 O   0  0  0  0  0  1  0  0  0  0  0  0
  197.9640  175.7550  136.6230 O   0  0  0  0  0  1  0  0  0  0  0  0
  196.9540  174.0730  138.0110 C   0  0  1  0  0  0  0  0  0  0  0  0
  186.7800  178.0690  141.8850 O   0  0  0  0  0  0  0  0  0  0  0  0
  185.7830  178.8920  141.2930 C   0  0  0  0  0  2  0  0  0  0  0  0
  184.4060  178.4160  141.7170 C   0  0  0  0  0  2  0  0  0  0  0  0
  182.1930  177.3610  138.1980 C   0  0  0  0  0  0  0  0  0  0  0  0
  181.7070  176.7030  137.1440 C   0  0  0  0  0  2  0  0  0  0  0  0
  183.9080  179.0240  139.2110 C   0  0  0  0  0  3  0  0  0  0  0  0
  181.1980  175.6170  139.7670 C   0  0  0  0  0  3  0  0  0  0  0  0
  181.8310  176.9210  139.5540 C   0  0  0  0  0  0  0  0  0  0  0  0
  182.5620  177.5480  140.4030 C   0  0  0  0  0  3  0  0  0  0  0  0
  180.6910  174.9770  138.7080 C   0  0  0  0  0  3  0  0  0  0  0  0
  183.1890  178.4120  138.0500 N   0  0  0  0  0  0  0  0  0  0  0  0
  180.6960  175.5890  137.3170 C   0  0  2  0  0  3  0  0  0  0  0  0
  183.4700  178.4500  140.5580 C   0  0  0  0  0  0  0  0  0  0  0  0
  180.9340  174.5530  136.3250 N   0  0  0  0  0  2  0  0  0  0  0  0
  182.4880  174.3940  134.5940 O   0  0  0  0  0  1  0  0  0  0  0  0
  182.3460  174.5950  135.9680 C   0  0  2  0  0  3  0  0  0  0  0  0
  183.1400  173.5410  136.7380 C   0  0  0  0  0  2  0  0  0  0  0  0
  184.6100  173.9160  136.8670 C   0  0  1  0  0  3  0  0  0  0  0  0
  186.9470  172.3500  136.6650 C   0  0  0  0  0  2  0  0  0  0  0  0
  186.6300  173.4520  135.7460 C   0  0  1  0  0  3  0  0  0  0  0  0
  185.2030  173.1530  137.8490 O   0  0  0  0  0  0  0  0  0  0  0  0
  185.4720  172.7340  136.5160 C   0  0  1  0  0  0  0  0  0  0  0  0
  187.2350  174.7180  136.3620 C   0  0  0  0  0  2  0  0  0  0  0  0
  188.4920  174.3590  137.1290 C   0  0  0  0  0  1  0  0  0  0  0  0
  1  7  1  0  0  0  0
  1  9  1  1  0  0  0
  2  5  1  0  0  0  0
  2  3  1  0  0  0  0
  3  4  1  0  0  0  0
  4 40  1  0  0  0  0
  4  7  2  0  0  0  0
  5 21  1  6  0  0  0
  5  6  1  0  0  0  0
  6  1  1  0  0  0  0
  9  8  1  1  0  0  0
  9 11  1  0  0  0  0
 10 11  2  0  0  0  0
 11 13  1  0  0  0  0
 13 12  1  1  0  0  0
 13 14  1  0  0  0  0
 14 20  1  0  0  0  0
 15 17  1  0  0  0  0
 15 20  1  0  0  0  0
 17 19  1  0  0  0  0
 18 16  1  0  0  0  0
 19 16  1  0  0  0  0
 20 18  2  0  0  0  0
 21 22  1  0  0  0  0
 23 22  1  0  0  0  0
 24 23  2  0  0  0  0
 26 27  1  0  0  0  0
 26 25  1  0  0  0  0
 27 25  1  0  0  0  0
 27 24  1  0  0  0  0
 28 30  1  1  0  0  0
 28 24  1  0  0  0  0
 28 32  1  0  0  0  0
 29 30  2  0  0  0  0
 31 30  1  0  0  0  0
 32 33  1  0  0  0  0
 33 34  1  0  0  0  0
 35 39  1  0  0  0  0
 36 38  1  1  0  0  0
 36 35  1  0  0  0  0
 36 39  1  0  0  0  0
 39 34  1  0  0  0  0
 39 37  1  1  0  0  0
 41 42  1  0  0  0  0
 41 40  1  0  0  0  0
 43 47  1  0  0  0  0
 44 51  1  0  0  0  0
 44 43  1  0  0  0  0
 45 52  2  0  0  0  0
 47 46  1  0  0  0  0
 47 48  2  0  0  0  0
 48 52  1  0  0  0  0
 49 46  2  0  0  0  0
 50 43  2  0  0  0  0
 50 45  1  0  0  0  0
 51 53  1  6  0  0  0
 51 49  1  0  0  0  0
 52 42  1  0  0  0  0
 55 54  1  6  0  0  0
 55 53  1  0  0  0  0
 55 56  1  0  0  0  0
 57 56  1  1  0  0  0
 57 60  1  0  0  0  0
 59 62  1  1  0  0  0
 59 61  1  0  0  0  0
 59 58  1  0  0  0  0
 61 58  1  6  0  0  0
 61 57  1  0  0  0  0
 61 60  1  0  0  0  0
 62 63  1  0  0  0  0
M  END
>  <MODEL>
1

>  <REMARK>
 VINA RESULT:      -7.1      0.000      0.000
  Name = 
  24 active torsions:
  status: ('A' for Active; 'I' for Inactive)
    1  A    between atoms: C_1  and  C_49
    2  A    between atoms: C_3  and  C_52
    3  A    between atoms: C_5  and  C_10
    4  A    between atoms: C_5  and  C_26
    5  A    between atoms: C_6  and  O_28
    6  A    between atoms: C_6  and  S_29
    7  A    between atoms: O_8  and  C_21
    8  A    between atoms: O_8  and  C_61
    9  A    between atoms: N_13  and  C_26
   10  A    between atoms: N_13  and  C_58
   11  A    between atoms: C_17  and  C_22
   12  A    between atoms: C_17  and  C_42
   13  A    between atoms: C_18  and  C_43
   14  A    between atoms: O_28  and  C_45
   15  A    between atoms: S_29  and  C_52
   16  A    between atoms: C_30  and  C_59
   17  A    between atoms: C_30  and  C_61
   18  A    between atoms: N_34  and  C_60
   19  A    between atoms: N_34  and  C_63
   20  A    between atoms: C_37  and  C_53
   21  A    between atoms: C_40  and  C_49
   22  A    between atoms: C_40  and  C_60
   23  A    between atoms: C_42  and  C_44
   24  A    between atoms: C_52  and  C_53
                            x       y       z     vdW  Elec       q    Type
                         _______ _______ _______ _____ _____    ______ ____

>  <TORSDO>
F 24

$$$$
=
 OpenBabel10222420133D

 63 70  0  0  1  0  0  0  0  0999 V2000
  189.3510  177.5640  141.0370 C   0  0  1  0  0  3  0  0  0  0  0  0
  187.3710  177.9870  138.6300 C   0  0  0  0  0  2  0  0  0  0  0  0
  188.3310  176.8390  138.3540 C   0  0  0  0  0  2  0  0  0  0  0  0
  189.7570  177.2540  138.5840 C   0  0  0  0  0  0  0  0  0  0  0  0
  187.0530  178.0750  140.1190 C   0  0  1  0  0  3  0  0  0  0  0  0
  188.2320  178.6010  140.9330 C   0  0  0  0  0  2  0  0  0  0  0  0
  190.2080  177.5610  139.8040 C   0  0  0  0  0  3  0  0  0  0  0  0
  191.5560  177.7870  141.9730 O   0  0  0  0  0  1  0  0  0  0  0  0
  190.1980  177.7720  142.3020 C   0  0  2  0  0  3  0  0  0  0  0  0
  189.5820  175.5340  143.0790 C   0  0  0  0  0  2  0  0  0  0  0  0
  189.9050  176.7820  143.4110 C   0  0  0  0  0  0  0  0  0  0  0  0
  189.8510  178.5790  144.9760 O   0  0  0  0  0  1  0  0  0  0  0  0
  189.7250  177.1950  144.8430 C   0  0  1  0  0  3  0  0  0  0  0  0
  188.4280  176.7590  145.3430 N   0  0  0  0  0  2  0  0  0  0  0  0
  186.7670  178.1480  146.6770 C   0  0  0  0  0  2  0  0  0  0  0  0
  185.4140  178.6590  144.0450 C   0  0  0  0  0  2  0  0  0  0  0  0
  185.7180  179.2370  146.5400 C   0  0  0  0  0  2  0  0  0  0  0  0
  186.6180  177.7780  144.2070 C   0  0  0  0  0  3  0  0  0  0  0  0
  184.3520  178.6310  145.5180 S   0  0  0  0  0  0  0  0  0  0  0  0
  187.2740  177.6030  145.3590 C   0  0  0  0  0  0  0  0  0  0  0  0
  185.8070  178.9220  140.3610 C   0  0  0  0  0  2  0  0  0  0  0  0
  184.5230  178.1830  140.0120 C   0  0  0  0  0  2  0  0  0  0  0  0
  183.3770  178.8290  140.7200 C   0  0  0  0  0  3  0  0  0  0  0  0
  182.0910  178.5210  140.4820 C   0  0  0  0  0  0  0  0  0  0  0  0
  182.4090  176.1980  139.6680 C   0  0  0  0  0  2  0  0  0  0  0  0
  180.9510  176.3490  140.0260 C   0  0  0  0  0  2  0  0  0  0  0  0
  181.7050  177.5220  139.4190 C   0  0  0  0  0  3  0  0  0  0  0  0
  181.0020  179.2930  141.1830 C   0  0  2  0  0  3  0  0  0  0  0  0
  179.5600  177.8110  142.6000 O   0  0  0  0  0  0  0  0  0  0  0  0
  180.6430  178.6760  142.4990 C   0  0  0  0  0  0  0  0  0  0  0  0
  181.3420  178.9250  143.5160 O   0  0  0  0  0  1  0  0  0  0  0  0
  179.5420  179.5150  140.1130 S   0  0  0  0  0  0  0  0  0  0  0  0
  180.2220  180.9910  139.3000 C   0  0  0  0  0  2  0  0  0  0  0  0
  179.7610  181.0610  137.9810 O   0  0  0  0  0  0  0  0  0  0  0  0
  180.5730  182.0970  135.8590 C   0  0  0  0  0  2  0  0  0  0  0  0
  179.5990  183.0440  136.5580 C   0  0  2  0  0  3  0  0  0  0  0  0
  181.5070  182.7040  138.0880 O   0  0  0  0  0  1  0  0  0  0  0  0
  180.1270  184.3380  136.5570 O   0  0  0  0  0  1  0  0  0  0  0  0
  180.4720  182.1010  137.3670 C   0  0  1  0  0  0  0  0  0  0  0  0
  190.6510  177.3290  137.5130 O   0  0  0  0  0  0  0  0  0  0  0  0
  191.8700  176.6000  137.4920 C   0  0  0  0  0  2  0  0  0  0  0  0
  192.0300  175.9020  136.1550 C   0  0  0  0  0  2  0  0  0  0  0  0
  188.4150  173.5990  136.2930 C   0  0  0  0  0  0  0  0  0  0  0  0
  187.1510  173.2160  136.4830 C   0  0  0  0  0  2  0  0  0  0  0  0
  190.8610  173.7690  137.1430 C   0  0  0  0  0  3  0  0  0  0  0  0
  187.6520  175.3390  134.5940 C   0  0  0  0  0  3  0  0  0  0  0  0
  188.7240  174.5730  135.2350 C   0  0  0  0  0  0  0  0  0  0  0  0
  189.9430  174.9540  135.3640 C   0  0  0  0  0  3  0  0  0  0  0  0
  186.3900  174.9310  134.7690 C   0  0  0  0  0  3  0  0  0  0  0  0
  189.4800  173.1940  137.1990 N   0  0  0  0  0  0  0  0  0  0  0  0
  186.0490  173.6730  135.5500 C   0  0  2  0  0  3  0  0  0  0  0  0
  191.0380  174.7980  136.0280 C   0  0  0  0  0  0  0  0  0  0  0  0
  184.8230  173.8800  136.3050 N   0  0  0  0  0  2  0  0  0  0  0  0
  184.6180  175.9570  137.3440 O   0  0  0  0  0  1  0  0  0  0  0  0
  184.4300  175.2740  136.1420 C   0  0  2  0  0  3  0  0  0  0  0  0
  182.9730  175.3860  135.6950 C   0  0  0  0  0  2  0  0  0  0  0  0
  182.1850  174.1200  135.9970 C   0  0  1  0  0  3  0  0  0  0  0  0
  179.5610  173.7580  136.9670 C   0  0  0  0  0  2  0  0  0  0  0  0
  180.0040  173.3020  135.6420 C   0  0  1  0  0  3  0  0  0  0  0  0
  181.7590  174.1350  137.3070 O   0  0  0  0  0  0  0  0  0  0  0  0
  180.7650  174.4740  136.3470 C   0  0  1  0  0  0  0  0  0  0  0  0
  180.5330  171.8760  135.8280 C   0  0  0  0  0  2  0  0  0  0  0  0
  179.5970  171.1000  136.7320 C   0  0  0  0  0  1  0  0  0  0  0  0
  1  9  1  1  0  0  0
  2  5  1  0  0  0  0
  3  4  1  0  0  0  0
  3  2  1  0  0  0  0
  4  7  2  0  0  0  0
  5 21  1  6  0  0  0
  5  6  1  0  0  0  0
  6  1  1  0  0  0  0
  7  1  1  0  0  0  0
  9  8  1  6  0  0  0
  9 11  1  0  0  0  0
 10 11  2  0  0  0  0
 11 13  1  0  0  0  0
 13 12  1  6  0  0  0
 13 14  1  0  0  0  0
 14 20  1  0  0  0  0
 16 18  1  0  0  0  0
 16 19  1  0  0  0  0
 17 15  1  0  0  0  0
 18 20  2  0  0  0  0
 19 17  1  0  0  0  0
 20 15  1  0  0  0  0
 22 21  1  0  0  0  0
 22 23  1  0  0  0  0
 24 23  2  0  0  0  0
 24 28  1  0  0  0  0
 25 26  1  0  0  0  0
 27 25  1  0  0  0  0
 27 26  1  0  0  0  0
 27 24  1  0  0  0  0
 28 32  1  6  0  0  0
 28 30  1  0  0  0  0
 30 29  2  0  0  0  0
 30 31  1  0  0  0  0
 33 32  1  0  0  0  0
 34 33  1  0  0  0  0
 35 36  1  0  0  0  0
 35 39  1  0  0  0  0
 36 38  1  1  0  0  0
 36 39  1  0  0  0  0
 39 34  1  0  0  0  0
 39 37  1  1  0  0  0
 40  4  1  0  0  0  0
 41 40  1  0  0  0  0
 42 41  1  0  0  0  0
 43 44  1  0  0  0  0
 43 50  1  0  0  0  0
 45 50  2  0  0  0  0
 46 49  2  0  0  0  0
 46 47  1  0  0  0  0
 47 48  1  0  0  0  0
 47 43  2  0  0  0  0
 48 52  2  0  0  0  0
 49 51  1  0  0  0  0
 51 53  1  1  0  0  0
 51 44  1  0  0  0  0
 52 42  1  0  0  0  0
 52 45  1  0  0  0  0
 55 53  1  0  0  0  0
 55 54  1  1  0  0  0
 56 55  1  0  0  0  0
 57 56  1  1  0  0  0
 57 61  1  0  0  0  0
 57 60  1  0  0  0  0
 59 62  1  1  0  0  0
 59 61  1  0  0  0  0
 59 58  1  0  0  0  0
 61 58  1  6  0  0  0
 61 60  1  0  0  0  0
 62 63  1  0  0  0  0
M  END
>  <MODEL>
2

>  <REMARK>
 VINA RESULT:      -6.7      3.536      9.563
  Name = 
  24 active torsions:
  status: ('A' for Active; 'I' for Inactive)
    1  A    between atoms: C_1  and  C_49
    2  A    between atoms: C_3  and  C_52
    3  A    between atoms: C_5  and  C_10
    4  A    between atoms: C_5  and  C_26
    5  A    between atoms: C_6  and  O_28
    6  A    between atoms: C_6  and  S_29
    7  A    between atoms: O_8  and  C_21
    8  A    between atoms: O_8  and  C_61
    9  A    between atoms: N_13  and  C_26
   10  A    between atoms: N_13  and  C_58
   11  A    between atoms: C_17  and  C_22
   12  A    between atoms: C_17  and  C_42
   13  A    between atoms: C_18  and  C_43
   14  A    between atoms: O_28  and  C_45
   15  A    between atoms: S_29  and  C_52
   16  A    between atoms: C_30  and  C_59
   17  A    between atoms: C_30  and  C_61
   18  A    between atoms: N_34  and  C_60
   19  A    between atoms: N_34  and  C_63
   20  A    between atoms: C_37  and  C_53
   21  A    between atoms: C_40  and  C_49
   22  A    between atoms: C_40  and  C_60
   23  A    between atoms: C_42  and  C_44
   24  A    between atoms: C_52  and  C_53
                            x       y       z     vdW  Elec       q    Type
                         _______ _______ _______ _____ _____    ______ ____

>  <TORSDO>
F 24

$$$$
=
 OpenBabel10222420133D

 63 70  0  0  1  0  0  0  0  0999 V2000
  182.1630  178.1260  139.4350 C   0  0  1  0  0  3  0  0  0  0  0  0
  185.1570  178.5770  140.2910 C   0  0  0  0  0  2  0  0  0  0  0  0
  184.3600  177.9230  141.4100 C   0  0  0  0  0  2  0  0  0  0  0  0
  183.0940  178.6830  141.6950 C   0  0  0  0  0  0  0  0  0  0  0  0
  184.6390  178.1260  138.9290 C   0  0  1  0  0  3  0  0  0  0  0  0
  183.2820  178.7390  138.5930 C   0  0  0  0  0  2  0  0  0  0  0  0
  182.1040  178.7510  140.8000 C   0  0  0  0  0  3  0  0  0  0  0  0
  179.9820  179.1390  139.3750 O   0  0  0  0  0  1  0  0  0  0  0  0
  180.8050  178.2170  138.7230 C   0  0  2  0  0  3  0  0  0  0  0  0
  179.3180  176.4430  139.5170 C   0  0  0  0  0  2  0  0  0  0  0  0
  180.1120  176.8820  138.5440 C   0  0  0  0  0  0  0  0  0  0  0  0
  181.2250  176.5630  136.4600 O   0  0  0  0  0  1  0  0  0  0  0  0
  180.4630  175.9260  137.4410 C   0  0  1  0  0  3  0  0  0  0  0  0
  181.1850  174.7760  137.9680 N   0  0  0  0  0  2  0  0  0  0  0  0
  183.7270  174.8040  137.8880 C   0  0  0  0  0  2  0  0  0  0  0  0
  183.4590  172.8240  135.6450 C   0  0  0  0  0  2  0  0  0  0  0  0
  184.9280  174.0150  137.3980 C   0  0  0  0  0  2  0  0  0  0  0  0
  182.2910  173.4580  136.3420 C   0  0  0  0  0  3  0  0  0  0  0  0
  184.8970  173.9320  135.5890 S   0  0  0  0  0  0  0  0  0  0  0  0
  182.3950  174.2830  137.3900 C   0  0  0  0  0  0  0  0  0  0  0  0
  185.6560  178.4270  137.8330 C   0  0  0  0  0  2  0  0  0  0  0  0
  187.0550  177.9470  138.1880 C   0  0  0  0  0  2  0  0  0  0  0  0
  187.3830  176.7400  137.3700 C   0  0  0  0  0  3  0  0  0  0  0  0
  188.5840  176.5300  136.8060 C   0  0  0  0  0  0  0  0  0  0  0  0
  189.5890  178.2930  138.2350 C   0  0  0  0  0  2  0  0  0  0  0  0
  190.6280  177.2120  138.0630 C   0  0  0  0  0  2  0  0  0  0  0  0
  189.6920  177.5490  136.9140 C   0  0  0  0  0  3  0  0  0  0  0  0
  188.7890  175.3250  135.9240 C   0  0  2  0  0  3  0  0  0  0  0  0
  188.5210  172.8890  136.4510 O   0  0  0  0  0  0  0  0  0  0  0  0
  189.1350  174.1060  136.7200 C   0  0  0  0  0  0  0  0  0  0  0  0
  190.0080  174.1800  137.6240 O   0  0  0  0  0  1  0  0  0  0  0  0
  190.0130  175.6540  134.6130 S   0  0  0  0  0  0  0  0  0  0  0  0
  191.2810  174.6000  135.3770 C   0  0  0  0  0  2  0  0  0  0  0  0
  192.4840  174.7180  134.6720 O   0  0  0  0  0  0  0  0  0  0  0  0
  194.9350  174.5450  135.1130 C   0  0  0  0  0  2  0  0  0  0  0  0
  194.3080  175.5600  136.0660 C   0  0  2  0  0  3  0  0  0  0  0  0
  193.2370  173.3820  136.5170 O   0  0  0  0  0  1  0  0  0  0  0  0
  194.7830  175.3360  137.3610 O   0  0  0  0  0  1  0  0  0  0  0  0
  193.5050  174.3730  135.5670 C   0  0  1  0  0  0  0  0  0  0  0  0
  182.9260  179.3420  142.9140 O   0  0  0  0  0  0  0  0  0  0  0  0
  184.0190  179.9080  143.6260 C   0  0  0  0  0  2  0  0  0  0  0  0
  183.9160  179.5490  145.0960 C   0  0  0  0  0  2  0  0  0  0  0  0
  187.4060  177.2530  146.0650 C   0  0  0  0  0  0  0  0  0  0  0  0
  188.6560  176.8920  146.3600 C   0  0  0  0  0  2  0  0  0  0  0  0
  185.5370  177.6390  144.3070 C   0  0  0  0  0  3  0  0  0  0  0  0
  187.2650  178.5950  148.2270 C   0  0  0  0  0  3  0  0  0  0  0  0
  186.6150  177.9970  147.0570 C   0  0  0  0  0  0  0  0  0  0  0  0
  185.5400  178.4190  146.4990 C   0  0  0  0  0  3  0  0  0  0  0  0
  188.5090  178.2070  148.5300 C   0  0  0  0  0  3  0  0  0  0  0  0
  186.8500  177.0620  144.7340 N   0  0  0  0  0  0  0  0  0  0  0  0
  189.2320  177.1280  147.7410 C   0  0  2  0  0  3  0  0  0  0  0  0
  184.8380  178.4230  145.4170 C   0  0  0  0  0  0  0  0  0  0  0  0
  190.6430  177.4610  147.6330 N   0  0  0  0  0  2  0  0  0  0  0  0
  192.3060  175.8850  148.0670 O   0  0  0  0  0  1  0  0  0  0  0  0
  191.3420  176.2820  147.1400 C   0  0  2  0  0  3  0  0  0  0  0  0
  191.9970  176.5560  145.7860 C   0  0  0  0  0  2  0  0  0  0  0  0
  190.9650  176.7960  144.6920 C   0  0  1  0  0  3  0  0  0  0  0  0
  191.2680  177.5950  142.0040 C   0  0  0  0  0  2  0  0  0  0  0  0
  190.7080  176.2960  142.4040 C   0  0  1  0  0  3  0  0  0  0  0  0
  191.0940  178.0760  144.2010 O   0  0  0  0  0  0  0  0  0  0  0  0
  191.6610  177.0590  143.3840 C   0  0  1  0  0  0  0  0  0  0  0  0
  189.1970  176.5020  142.5530 C   0  0  0  0  0  2  0  0  0  0  0  0
  188.7110  177.4780  141.5010 C   0  0  0  0  0  1  0  0  0  0  0  0
  1  9  1  6  0  0  0
  1  7  1  0  0  0  0
  2  3  1  0  0  0  0
  3  4  1  0  0  0  0
  4 40  1  0  0  0  0
  5 21  1  6  0  0  0
  5  2  1  0  0  0  0
  6  5  1  0  0  0  0
  6  1  1  0  0  0  0
  7  4  2  0  0  0  0
  9  8  1  1  0  0  0
 11  9  1  0  0  0  0
 11 10  2  0  0  0  0
 13 12  1  6  0  0  0
 13 14  1  0  0  0  0
 13 11  1  0  0  0  0
 16 18  1  0  0  0  0
 17 15  1  0  0  0  0
 18 20  2  0  0  0  0
 19 16  1  0  0  0  0
 19 17  1  0  0  0  0
 20 15  1  0  0  0  0
 20 14  1  0  0  0  0
 21 22  1  0  0  0  0
 23 22  1  0  0  0  0
 24 27  1  0  0  0  0
 24 23  2  0  0  0  0
 26 25  1  0  0  0  0
 27 26  1  0  0  0  0
 27 25  1  0  0  0  0
 28 32  1  6  0  0  0
 28 30  1  0  0  0  0
 28 24  1  0  0  0  0
 29 30  2  0  0  0  0
 30 31  1  0  0  0  0
 32 33  1  0  0  0  0
 34 33  1  0  0  0  0
 34 39  1  0  0  0  0
 35 39  1  0  0  0  0
 35 36  1  0  0  0  0
 36 38  1  1  0  0  0
 39 36  1  0  0  0  0
 39 37  1  1  0  0  0
 40 41  1  0  0  0  0
 41 42  1  0  0  0  0
 42 52  1  0  0  0  0
 43 44  1  0  0  0  0
 43 47  1  0  0  0  0
 44 51  1  0  0  0  0
 45 50  1  0  0  0  0
 45 52  2  0  0  0  0
 46 49  2  0  0  0  0
 47 46  1  0  0  0  0
 48 47  2  0  0  0  0
 50 43  2  0  0  0  0
 51 53  1  6  0  0  0
 51 49  1  0  0  0  0
 52 48  1  0  0  0  0
 55 53  1  0  0  0  0
 55 54  1  1  0  0  0
 56 55  1  0  0  0  0
 57 56  1  1  0  0  0
 58 59  1  0  0  0  0
 59 62  1  1  0  0  0
 59 61  1  0  0  0  0
 60 57  1  0  0  0  0
 61 58  1  6  0  0  0
 61 60  1  0  0  0  0
 61 57  1  0  0  0  0
 63 62  1  0  0  0  0
M  END
>  <MODEL>
3

>  <REMARK>
 VINA RESULT:      -6.4      2.542      8.958
  Name = 
  24 active torsions:
  status: ('A' for Active; 'I' for Inactive)
    1  A    between atoms: C_1  and  C_49
    2  A    between atoms: C_3  and  C_52
    3  A    between atoms: C_5  and  C_10
    4  A    between atoms: C_5  and  C_26
    5  A    between atoms: C_6  and  O_28
    6  A    between atoms: C_6  and  S_29
    7  A    between atoms: O_8  and  C_21
    8  A    between atoms: O_8  and  C_61
    9  A    between atoms: N_13  and  C_26
   10  A    between atoms: N_13  and  C_58
   11  A    between atoms: C_17  and  C_22
   12  A    between atoms: C_17  and  C_42
   13  A    between atoms: C_18  and  C_43
   14  A    between atoms: O_28  and  C_45
   15  A    between atoms: S_29  and  C_52
   16  A    between atoms: C_30  and  C_59
   17  A    between atoms: C_30  and  C_61
   18  A    between atoms: N_34  and  C_60
   19  A    between atoms: N_34  and  C_63
   20  A    between atoms: C_37  and  C_53
   21  A    between atoms: C_40  and  C_49
   22  A    between atoms: C_40  and  C_60
   23  A    between atoms: C_42  and  C_44
   24  A    between atoms: C_52  and  C_53
                            x       y       z     vdW  Elec       q    Type
                         _______ _______ _______ _____ _____    ______ ____

>  <TORSDO>
F 24

$$$$
=
 OpenBabel10222420133D

 63 70  0  0  1  0  0  0  0  0999 V2000
  185.8120  178.4940  145.1620 C   0  0  1  0  0  3  0  0  0  0  0  0
  185.6580  178.6620  142.0240 C   0  0  0  0  0  2  0  0  0  0  0  0
  184.8170  179.7510  142.6730 C   0  0  0  0  0  2  0  0  0  0  0  0
  183.8890  179.1810  143.7090 C   0  0  0  0  0  0  0  0  0  0  0  0
  186.8830  178.3490  142.8780 C   0  0  1  0  0  3  0  0  0  0  0  0
  186.5220  177.5910  144.1530 C   0  0  0  0  0  2  0  0  0  0  0  0
  184.3520  178.6320  144.8360 C   0  0  0  0  0  3  0  0  0  0  0  0
  185.6560  179.0010  147.5080 O   0  0  0  0  0  1  0  0  0  0  0  0
  186.0140  178.0000  146.6020 C   0  0  2  0  0  3  0  0  0  0  0  0
  187.5330  176.2080  147.2920 C   0  0  0  0  0  2  0  0  0  0  0  0
  187.4060  177.4680  146.8820 C   0  0  0  0  0  0  0  0  0  0  0  0
  188.6060  179.1070  148.1280 O   0  0  0  0  0  1  0  0  0  0  0  0
  188.6150  178.3540  146.9530 C   0  0  1  0  0  3  0  0  0  0  0  0
  189.8360  177.5630  146.8750 N   0  0  0  0  0  2  0  0  0  0  0  0
  190.5690  178.4760  144.6170 C   0  0  0  0  0  2  0  0  0  0  0  0
  191.9780  175.8490  144.2570 C   0  0  0  0  0  2  0  0  0  0  0  0
  191.5940  178.2870  143.5130 C   0  0  0  0  0  2  0  0  0  0  0  0
  191.1420  176.1900  145.4560 C   0  0  0  0  0  3  0  0  0  0  0  0
  191.3660  176.6590  142.7520 S   0  0  0  0  0  0  0  0  0  0  0  0
  190.5720  177.3820  145.6630 C   0  0  0  0  0  0  0  0  0  0  0  0
  187.9290  177.5860  142.0710 C   0  0  0  0  0  2  0  0  0  0  0  0
  187.8420  177.8770  140.5800 C   0  0  0  0  0  2  0  0  0  0  0  0
  189.0530  177.3280  139.9010 C   0  0  0  0  0  3  0  0  0  0  0  0
  189.5330  177.8060  138.7400 C   0  0  0  0  0  0  0  0  0  0  0  0
  189.1070  178.8020  136.5070 C   0  0  0  0  0  2  0  0  0  0  0  0
  187.7740  178.3570  137.0590 C   0  0  0  0  0  2  0  0  0  0  0  0
  188.8320  178.9160  137.9980 C   0  0  0  0  0  3  0  0  0  0  0  0
  190.7100  177.1250  138.0880 C   0  0  2  0  0  3  0  0  0  0  0  0
  189.8830  175.6030  136.2770 O   0  0  0  0  0  0  0  0  0  0  0  0
  190.3510  175.7660  137.5750 C   0  0  0  0  0  0  0  0  0  0  0  0
  190.4980  174.7600  138.3180 O   0  0  0  0  0  1  0  0  0  0  0  0
  192.1550  177.0750  139.2000 S   0  0  0  0  0  0  0  0  0  0  0  0
  193.2390  176.3370  137.9400 C   0  0  0  0  0  2  0  0  0  0  0  0
  194.3430  175.7380  138.5570 O   0  0  0  0  0  0  0  0  0  0  0  0
  193.5900  174.1260  136.8050 C   0  0  0  0  0  2  0  0  0  0  0  0
  194.9430  174.7190  136.4170 C   0  0  2  0  0  3  0  0  0  0  0  0
  195.2600  173.5210  138.5520 O   0  0  0  0  0  1  0  0  0  0  0  0
  195.7910  173.6960  135.9820 O   0  0  0  0  0  1  0  0  0  0  0  0
  194.5730  174.5350  137.8770 C   0  0  1  0  0  0  0  0  0  0  0  0
  182.5070  179.2120  143.5110 O   0  0  0  0  0  0  0  0  0  0  0  0
  181.8640  178.4100  142.5280 C   0  0  0  0  0  2  0  0  0  0  0  0
  181.9810  179.0720  141.1680 C   0  0  0  0  0  2  0  0  0  0  0  0
  180.0050  176.4550  138.4050 C   0  0  0  0  0  0  0  0  0  0  0  0
  179.7070  175.4240  137.6110 C   0  0  0  0  0  2  0  0  0  0  0  0
  181.0380  178.8120  138.7310 C   0  0  0  0  0  3  0  0  0  0  0  0
  179.9220  174.9290  140.4450 C   0  0  0  0  0  3  0  0  0  0  0  0
  179.9780  176.2740  139.8640 C   0  0  0  0  0  0  0  0  0  0  0  0
  180.4920  177.3100  140.4210 C   0  0  0  0  0  3  0  0  0  0  0  0
  179.5980  173.9060  139.6470 C   0  0  0  0  0  3  0  0  0  0  0  0
  180.4980  177.7140  137.8690 N   0  0  0  0  0  0  0  0  0  0  0  0
  179.2260  174.1080  138.1870 C   0  0  2  0  0  3  0  0  0  0  0  0
  180.9940  178.4810  140.2220 C   0  0  0  0  0  0  0  0  0  0  0  0
  179.7450  173.0070  137.3910 N   0  0  0  0  0  2  0  0  0  0  0  0
  179.7570  173.2970  135.0770 O   0  0  0  0  0  1  0  0  0  0  0  0
  180.4550  173.5760  136.2530 C   0  0  2  0  0  3  0  0  0  0  0  0
  181.8780  173.0280  136.1630 C   0  0  0  0  0  2  0  0  0  0  0  0
  182.9210  174.0940  136.4680 C   0  0  1  0  0  3  0  0  0  0  0  0
  185.6950  173.8920  136.9390 C   0  0  0  0  0  2  0  0  0  0  0  0
  185.1180  174.6210  135.8000 C   0  0  1  0  0  3  0  0  0  0  0  0
  183.5570  173.8000  137.6540 O   0  0  0  0  0  0  0  0  0  0  0  0
  184.2940  173.4780  136.4790 C   0  0  1  0  0  0  0  0  0  0  0  0
  184.8930  176.0600  136.2760 C   0  0  0  0  0  2  0  0  0  0  0  0
  184.5910  176.9470  135.0850 C   0  0  0  0  0  1  0  0  0  0  0  0
  1  9  1  1  0  0  0
  2  3  1  0  0  0  0
  2  5  1  0  0  0  0
  3  4  1  0  0  0  0
  4  7  2  0  0  0  0
  5 21  1  6  0  0  0
  5  6  1  0  0  0  0
  6  1  1  0  0  0  0
  7  1  1  0  0  0  0
  9 11  1  0  0  0  0
  9  8  1  1  0  0  0
 11 13  1  0  0  0  0
 11 10  2  0  0  0  0
 13 12  1  1  0  0  0
 14 13  1  0  0  0  0
 15 20  1  0  0  0  0
 16 18  1  0  0  0  0
 17 15  1  0  0  0  0
 18 20  2  0  0  0  0
 19 17  1  0  0  0  0
 19 16  1  0  0  0  0
 20 14  1  0  0  0  0
 22 21  1  0  0  0  0
 23 22  1  0  0  0  0
 24 23  2  0  0  0  0
 25 26  1  0  0  0  0
 25 27  1  0  0  0  0
 26 27  1  0  0  0  0
 27 24  1  0  0  0  0
 28 30  1  1  0  0  0
 28 24  1  0  0  0  0
 28 32  1  0  0  0  0
 29 30  2  0  0  0  0
 30 31  1  0  0  0  0
 33 34  1  0  0  0  0
 33 32  1  0  0  0  0
 35 39  1  0  0  0  0
 36 38  1  6  0  0  0
 36 35  1  0  0  0  0
 36 39  1  0  0  0  0
 39 37  1  1  0  0  0
 39 34  1  0  0  0  0
 40  4  1  0  0  0  0
 41 40  1  0  0  0  0
 42 41  1  0  0  0  0
 43 47  1  0  0  0  0
 44 51  1  0  0  0  0
 44 43  1  0  0  0  0
 45 52  2  0  0  0  0
 47 48  2  0  0  0  0
 47 46  1  0  0  0  0
 49 46  2  0  0  0  0
 50 43  2  0  0  0  0
 50 45  1  0  0  0  0
 51 53  1  6  0  0  0
 51 49  1  0  0  0  0
 52 48  1  0  0  0  0
 52 42  1  0  0  0  0
 55 54  1  6  0  0  0
 55 53  1  0  0  0  0
 56 55  1  0  0  0  0
 57 56  1  6  0  0  0
 57 61  1  0  0  0  0
 57 60  1  0  0  0  0
 59 62  1  1  0  0  0
 59 61  1  0  0  0  0
 59 58  1  0  0  0  0
 61 58  1  6  0  0  0
 61 60  1  0  0  0  0
 63 62  1  0  0  0  0
M  END
>  <MODEL>
4

>  <REMARK>
 VINA RESULT:      -6.1      2.365      4.213
  Name = 
  24 active torsions:
  status: ('A' for Active; 'I' for Inactive)
    1  A    between atoms: C_1  and  C_49
    2  A    between atoms: C_3  and  C_52
    3  A    between atoms: C_5  and  C_10
    4  A    between atoms: C_5  and  C_26
    5  A    between atoms: C_6  and  O_28
    6  A    between atoms: C_6  and  S_29
    7  A    between atoms: O_8  and  C_21
    8  A    between atoms: O_8  and  C_61
    9  A    between atoms: N_13  and  C_26
   10  A    between atoms: N_13  and  C_58
   11  A    between atoms: C_17  and  C_22
   12  A    between atoms: C_17  and  C_42
   13  A    between atoms: C_18  and  C_43
   14  A    between atoms: O_28  and  C_45
   15  A    between atoms: S_29  and  C_52
   16  A    between atoms: C_30  and  C_59
   17  A    between atoms: C_30  and  C_61
   18  A    between atoms: N_34  and  C_60
   19  A    between atoms: N_34  and  C_63
   20  A    between atoms: C_37  and  C_53
   21  A    between atoms: C_40  and  C_49
   22  A    between atoms: C_40  and  C_60
   23  A    between atoms: C_42  and  C_44
   24  A    between atoms: C_52  and  C_53
                            x       y       z     vdW  Elec       q    Type
                         _______ _______ _______ _____ _____    ______ ____

>  <TORSDO>
F 24

$$$$
=
 OpenBabel10222420133D

 63 70  0  0  1  0  0  0  0  0999 V2000
  186.1090  174.7460  136.9680 C   0  0  1  0  0  3  0  0  0  0  0  0
  186.7590  177.6380  135.9170 C   0  0  0  0  0  2  0  0  0  0  0  0
  185.8420  177.6900  137.1300 C   0  0  0  0  0  2  0  0  0  0  0  0
  184.6540  176.7860  136.9540 C   0  0  0  0  0  0  0  0  0  0  0  0
  187.7120  176.4500  136.0140 C   0  0  1  0  0  3  0  0  0  0  0  0
  187.0020  175.1190  135.7850 C   0  0  0  0  0  2  0  0  0  0  0  0
  184.7880  175.4570  136.9000 C   0  0  0  0  0  3  0  0  0  0  0  0
  187.0820  172.6250  137.5540 O   0  0  0  0  0  1  0  0  0  0  0  0
  185.9160  173.2250  137.0730 C   0  0  2  0  0  3  0  0  0  0  0  0
  186.2180  172.6640  134.7100 C   0  0  0  0  0  2  0  0  0  0  0  0
  185.4440  172.5740  135.7890 C   0  0  0  0  0  0  0  0  0  0  0  0
  184.0630  170.6550  135.4830 O   0  0  0  0  0  1  0  0  0  0  0  0
  184.0510  172.0450  135.6100 C   0  0  1  0  0  3  0  0  0  0  0  0
  183.2050  172.4390  136.7280 N   0  0  0  0  0  2  0  0  0  0  0  0
  181.5470  173.8110  135.3730 C   0  0  0  0  0  2  0  0  0  0  0  0
  179.5570  173.1170  137.5120 C   0  0  0  0  0  2  0  0  0  0  0  0
  180.0620  174.0460  135.1610 C   0  0  0  0  0  2  0  0  0  0  0  0
  180.9980  172.6980  137.5450 C   0  0  0  0  0  3  0  0  0  0  0  0
  179.3360  174.7150  136.6790 S   0  0  0  0  0  0  0  0  0  0  0  0
  181.8750  172.9360  136.5630 C   0  0  0  0  0  0  0  0  0  0  0  0
  188.8850  176.6120  135.0530 C   0  0  0  0  0  2  0  0  0  0  0  0
  189.5940  175.2960  134.7720 C   0  0  0  0  0  2  0  0  0  0  0  0
  191.0700  175.5030  134.8670 C   0  0  0  0  0  3  0  0  0  0  0  0
  191.9060  174.6270  135.4480 C   0  0  0  0  0  0  0  0  0  0  0  0
  190.0370  172.9960  135.5370 C   0  0  0  0  0  2  0  0  0  0  0  0
  191.2700  172.2390  135.1050 C   0  0  0  0  0  2  0  0  0  0  0  0
  191.3930  173.3720  136.1110 C   0  0  0  0  0  3  0  0  0  0  0  0
  193.3690  174.9690  135.5740 C   0  0  2  0  0  3  0  0  0  0  0  0
  194.5440  173.3260  137.0580 O   0  0  0  0  0  1  0  0  0  0  0  0
  194.2100  173.7470  135.7770 C   0  0  0  0  0  0  0  0  0  0  0  0
  194.5960  173.0830  134.7790 O   0  0  0  0  0  0  0  0  0  0  0  0
  193.6560  176.2170  136.8720 S   0  0  0  0  0  0  0  0  0  0  0  0
  192.1400  175.7870  137.7780 C   0  0  0  0  0  2  0  0  0  0  0  0
  191.9000  176.7360  138.7770 O   0  0  0  0  0  0  0  0  0  0  0  0
  190.3070  176.8110  140.6990 C   0  0  0  0  0  2  0  0  0  0  0  0
  189.8330  177.7550  139.5960 C   0  0  2  0  0  3  0  0  0  0  0  0
  189.8610  175.4790  138.6410 O   0  0  0  0  0  1  0  0  0  0  0  0
  188.4620  177.5770  139.3900 O   0  0  0  0  0  1  0  0  0  0  0  0
  190.6040  176.4940  139.2520 C   0  0  1  0  0  0  0  0  0  0  0  0
  183.3700  177.3230  136.8400 O   0  0  0  0  0  0  0  0  0  0  0  0
  182.4220  177.2500  137.8960 C   0  0  0  0  0  2  0  0  0  0  0  0
  181.8220  178.6210  138.1440 C   0  0  0  0  0  2  0  0  0  0  0  0
  183.2790  178.8010  142.1730 C   0  0  0  0  0  0  0  0  0  0  0  0
  183.8910  178.5170  143.3240 C   0  0  0  0  0  2  0  0  0  0  0  0
  181.1570  178.7290  140.6820 C   0  0  0  0  0  3  0  0  0  0  0  0
  185.5300  178.9280  140.9860 C   0  0  0  0  0  3  0  0  0  0  0  0
  184.0840  179.1610  140.9960 C   0  0  0  0  0  0  0  0  0  0  0  0
  183.3210  179.1870  139.9640 C   0  0  0  0  0  3  0  0  0  0  0  0
  186.1400  178.6690  142.1480 C   0  0  0  0  0  3  0  0  0  0  0  0
  181.8440  178.6230  142.0070 N   0  0  0  0  0  0  0  0  0  0  0  0
  185.3910  178.6760  143.4710 C   0  0  2  0  0  3  0  0  0  0  0  0
  182.1110  179.0650  139.5370 C   0  0  0  0  0  0  0  0  0  0  0  0
  185.9120  177.6290  144.3360 N   0  0  0  0  0  2  0  0  0  0  0  0
  185.6660  179.4780  145.7360 O   0  0  0  0  0  1  0  0  0  0  0  0
  185.7890  178.0880  145.7130 C   0  0  2  0  0  3  0  0  0  0  0  0
  186.9920  177.6520  146.5480 C   0  0  0  0  0  2  0  0  0  0  0  0
  188.3070  178.1230  145.9430 C   0  0  1  0  0  3  0  0  0  0  0  0
  190.8300  176.8710  145.7920 C   0  0  0  0  0  2  0  0  0  0  0  0
  190.0300  177.2250  144.6110 C   0  0  1  0  0  3  0  0  0  0  0  0
  189.2970  178.0990  146.9010 O   0  0  0  0  0  0  0  0  0  0  0  0
  189.3170  177.0090  145.9870 C   0  0  1  0  0  0  0  0  0  0  0  0
  190.4390  178.6490  144.2200 C   0  0  0  0  0  2  0  0  0  0  0  0
  191.9310  178.6970  143.9630 C   0  0  0  0  0  1  0  0  0  0  0  0
  1  9  1  6  0  0  0
  2  5  1  0  0  0  0
  2  3  1  0  0  0  0
  4  3  1  0  0  0  0
  5 21  1  6  0  0  0
  6  5  1  0  0  0  0
  6  1  1  0  0  0  0
  7  4  2  0  0  0  0
  7  1  1  0  0  0  0
  9  8  1  6  0  0  0
 10 11  2  0  0  0  0
 11  9  1  0  0  0  0
 13 12  1  1  0  0  0
 13 11  1  0  0  0  0
 13 14  1  0  0  0  0
 15 20  1  0  0  0  0
 16 18  1  0  0  0  0
 17 15  1  0  0  0  0
 17 19  1  0  0  0  0
 19 16  1  0  0  0  0
 20 14  1  0  0  0  0
 20 18  2  0  0  0  0
 22 23  1  0  0  0  0
 22 21  1  0  0  0  0
 23 24  2  0  0  0  0
 24 27  1  0  0  0  0
 25 27  1  0  0  0  0
 26 25  1  0  0  0  0
 26 27  1  0  0  0  0
 28 24  1  1  0  0  0
 28 30  1  0  0  0  0
 28 32  1  0  0  0  0
 30 29  1  0  0  0  0
 31 30  2  0  0  0  0
 32 33  1  0  0  0  0
 33 34  1  0  0  0  0
 34 39  1  0  0  0  0
 36 38  1  6  0  0  0
 36 35  1  0  0  0  0
 39 37  1  6  0  0  0
 39 36  1  0  0  0  0
 39 35  1  0  0  0  0
 40  4  1  0  0  0  0
 40 41  1  0  0  0  0
 41 42  1  0  0  0  0
 42 52  1  0  0  0  0
 43 44  1  0  0  0  0
 44 51  1  0  0  0  0
 45 50  2  0  0  0  0
 46 47  1  0  0  0  0
 46 49  2  0  0  0  0
 47 43  2  0  0  0  0
 48 47  1  0  0  0  0
 49 51  1  0  0  0  0
 50 43  1  0  0  0  0
 51 53  1  1  0  0  0
 52 48  2  0  0  0  0
 52 45  1  0  0  0  0
 53 55  1  0  0  0  0
 55 54  1  6  0  0  0
 55 56  1  0  0  0  0
 57 61  1  0  0  0  0
 57 56  1  1  0  0  0
 57 60  1  0  0  0  0
 59 62  1  1  0  0  0
 59 58  1  0  0  0  0
 59 61  1  0  0  0  0
 61 58  1  1  0  0  0
 61 60  1  0  0  0  0
 63 62  1  0  0  0  0
M  END
>  <MODEL>
5

>  <REMARK>
 VINA RESULT:      -6.0      2.742      8.325
  Name = 
  24 active torsions:
  status: ('A' for Active; 'I' for Inactive)
    1  A    between atoms: C_1  and  C_49
    2  A    between atoms: C_3  and  C_52
    3  A    between atoms: C_5  and  C_10
    4  A    between atoms: C_5  and  C_26
    5  A    between atoms: C_6  and  O_28
    6  A    between atoms: C_6  and  S_29
    7  A    between atoms: O_8  and  C_21
    8  A    between atoms: O_8  and  C_61
    9  A    between atoms: N_13  and  C_26
   10  A    between atoms: N_13  and  C_58
   11  A    between atoms: C_17  and  C_22
   12  A    between atoms: C_17  and  C_42
   13  A    between atoms: C_18  and  C_43
   14  A    between atoms: O_28  and  C_45
   15  A    between atoms: S_29  and  C_52
   16  A    between atoms: C_30  and  C_59
   17  A    between atoms: C_30  and  C_61
   18  A    between atoms: N_34  and  C_60
   19  A    between atoms: N_34  and  C_63
   20  A    between atoms: C_37  and  C_53
   21  A    between atoms: C_40  and  C_49
   22  A    between atoms: C_40  and  C_60
   23  A    between atoms: C_42  and  C_44
   24  A    between atoms: C_52  and  C_53
                            x       y       z     vdW  Elec       q    Type
                         _______ _______ _______ _____ _____    ______ ____

>  <TORSDO>
F 24

$$$$
=
 OpenBabel10222420133D

 63 70  0  0  1  0  0  0  0  0999 V2000
  189.5920  177.9210  139.2010 C   0  0  1  0  0  3  0  0  0  0  0  0
  188.2510  178.1840  142.0340 C   0  0  0  0  0  2  0  0  0  0  0  0
  189.7090  178.6140  142.0770 C   0  0  0  0  0  2  0  0  0  0  0  0
  190.6040  177.5710  141.4670 C   0  0  0  0  0  0  0  0  0  0  0  0
  187.6320  178.5180  140.6800 C   0  0  1  0  0  3  0  0  0  0  0  0
  188.1430  177.6040  139.5700 C   0  0  0  0  0  2  0  0  0  0  0  0
  190.5510  177.2810  140.1630 C   0  0  0  0  0  3  0  0  0  0  0  0
  189.1990  178.3300  136.8630 O   0  0  0  0  0  1  0  0  0  0  0  0
  189.9080  177.5190  137.7530 C   0  0  2  0  0  3  0  0  0  0  0  0
  188.4570  175.5570  137.5630 C   0  0  0  0  0  2  0  0  0  0  0  0
  189.6890  176.0490  137.4590 C   0  0  0  0  0  0  0  0  0  0  0  0
  190.7660  174.4630  136.0420 O   0  0  0  0  0  1  0  0  0  0  0  0
  190.8210  175.0750  137.2950 C   0  0  1  0  0  3  0  0  0  0  0  0
  192.1020  175.7440  137.4710 N   0  0  0  0  0  2  0  0  0  0  0  0
  193.9300  173.9810  137.6050 C   0  0  0  0  0  2  0  0  0  0  0  0
  195.2460  175.4880  135.3660 C   0  0  0  0  0  2  0  0  0  0  0  0
  195.0760  173.3660  136.8200 C   0  0  0  0  0  2  0  0  0  0  0  0
  193.9680  175.9190  136.0230 C   0  0  0  0  0  3  0  0  0  0  0  0
  196.3450  174.6230  136.5240 S   0  0  0  0  0  0  0  0  0  0  0  0
  193.3330  175.2180  136.9690 C   0  0  0  0  0  0  0  0  0  0  0  0
  186.1090  178.4830  140.7530 C   0  0  0  0  0  2  0  0  0  0  0  0
  185.4520  179.0170  139.4890 C   0  0  0  0  0  2  0  0  0  0  0  0
  185.2720  177.8950  138.5180 C   0  0  0  0  0  3  0  0  0  0  0  0
  184.0700  177.4210  138.1480 C   0  0  0  0  0  0  0  0  0  0  0  0
  182.9610  179.4330  139.0890 C   0  0  0  0  0  2  0  0  0  0  0  0
  182.1900  179.0350  137.8530 C   0  0  0  0  0  2  0  0  0  0  0  0
  182.7940  177.9620  138.7450 C   0  0  0  0  0  3  0  0  0  0  0  0
  183.9950  176.2270  137.2310 C   0  0  2  0  0  3  0  0  0  0  0  0
  183.5130  177.1020  134.9320 O   0  0  0  0  0  0  0  0  0  0  0  0
  184.4220  176.5680  135.8390 C   0  0  0  0  0  0  0  0  0  0  0  0
  185.6200  176.3930  135.4930 O   0  0  0  0  0  1  0  0  0  0  0  0
  182.3410  175.4570  137.2680 S   0  0  0  0  0  0  0  0  0  0  0  0
  182.8900  173.9700  136.3780 C   0  0  0  0  0  2  0  0  0  0  0  0
  182.0410  173.7270  135.2940 O   0  0  0  0  0  0  0  0  0  0  0  0
  181.3710  171.3270  135.4650 C   0  0  0  0  0  2  0  0  0  0  0  0
  181.5910  171.9040  136.8620 C   0  0  2  0  0  3  0  0  0  0  0  0
  179.7620  173.1960  135.8220 O   0  0  0  0  0  1  0  0  0  0  0  0
  180.5370  171.5200  137.6950 O   0  0  0  0  0  1  0  0  0  0  0  0
  181.0970  172.7890  135.7320 C   0  0  1  0  0  0  0  0  0  0  0  0
  191.5170  176.8740  142.2610 O   0  0  0  0  0  0  0  0  0  0  0  0
  191.1120  176.1110  143.3900 C   0  0  0  0  0  2  0  0  0  0  0  0
  191.4620  176.8550  144.6650 C   0  0  0  0  0  2  0  0  0  0  0  0
  187.7080  177.9060  146.4540 C   0  0  0  0  0  0  0  0  0  0  0  0
  186.5290  178.4770  146.7070 C   0  0  0  0  0  2  0  0  0  0  0  0
  190.2760  177.8060  146.8080 C   0  0  0  0  0  3  0  0  0  0  0  0
  186.7970  176.9530  144.2730 C   0  0  0  0  0  3  0  0  0  0  0  0
  187.8400  177.0020  145.3010 C   0  0  0  0  0  0  0  0  0  0  0  0
  189.0830  176.7360  145.1210 C   0  0  0  0  0  3  0  0  0  0  0  0
  185.6100  177.5060  144.5460 C   0  0  0  0  0  3  0  0  0  0  0  0
  188.9060  178.2640  147.1980 N   0  0  0  0  0  0  0  0  0  0  0  0
  185.2980  178.1170  145.9020 C   0  0  2  0  0  3  0  0  0  0  0  0
  190.2790  176.9090  145.5710 C   0  0  0  0  0  0  0  0  0  0  0  0
  184.4640  179.2960  145.7280 N   0  0  0  0  0  2  0  0  0  0  0  0
  184.9490  180.1260  143.6040 O   0  0  0  0  0  1  0  0  0  0  0  0
  184.0490  179.3480  144.3330 C   0  0  2  0  0  3  0  0  0  0  0  0
  182.6360  179.9120  144.1990 C   0  0  0  0  0  2  0  0  0  0  0  0
  181.7220  178.9820  143.4140 C   0  0  1  0  0  3  0  0  0  0  0  0
  178.9320  179.0410  143.0000 C   0  0  0  0  0  2  0  0  0  0  0  0
  179.9140  179.1750  141.9150 C   0  0  1  0  0  3  0  0  0  0  0  0
  180.7340  178.4900  144.2400 O   0  0  0  0  0  0  0  0  0  0  0  0
  180.3280  179.5470  143.3780 C   0  0  1  0  0  0  0  0  0  0  0  0
  180.2060  177.7570  141.4160 C   0  0  0  0  0  2  0  0  0  0  0  0
  179.5310  177.5400  140.0770 C   0  0  0  0  0  1  0  0  0  0  0  0
  1  9  1  6  0  0  0
  1  6  1  0  0  0  0
  1  7  1  0  0  0  0
  2  3  1  0  0  0  0
  4  3  1  0  0  0  0
  4 40  1  0  0  0  0
  5 21  1  1  0  0  0
  5  2  1  0  0  0  0
  6  5  1  0  0  0  0
  7  4  2  0  0  0  0
  9  8  1  6  0  0  0
 11 10  2  0  0  0  0
 11  9  1  0  0  0  0
 13 12  1  6  0  0  0
 13 11  1  0  0  0  0
 13 14  1  0  0  0  0
 16 18  1  0  0  0  0
 16 19  1  0  0  0  0
 17 15  1  0  0  0  0
 18 20  2  0  0  0  0
 19 17  1  0  0  0  0
 20 14  1  0  0  0  0
 20 15  1  0  0  0  0
 22 21  1  0  0  0  0
 23 22  1  0  0  0  0
 24 23  2  0  0  0  0
 24 27  1  0  0  0  0
 26 27  1  0  0  0  0
 26 25  1  0  0  0  0
 27 25  1  0  0  0  0
 28 30  1  6  0  0  0
 28 32  1  0  0  0  0
 28 24  1  0  0  0  0
 29 30  2  0  0  0  0
 31 30  1  0  0  0  0
 33 32  1  0  0  0  0
 34 39  1  0  0  0  0
 34 33  1  0  0  0  0
 35 39  1  0  0  0  0
 35 36  1  0  0  0  0
 36 38  1  1  0  0  0
 39 37  1  1  0  0  0
 39 36  1  0  0  0  0
 40 41  1  0  0  0  0
 41 42  1  0  0  0  0
 42 52  1  0  0  0  0
 43 44  1  0  0  0  0
 43 50  1  0  0  0  0
 45 50  2  0  0  0  0
 46 49  2  0  0  0  0
 46 47  1  0  0  0  0
 47 43  2  0  0  0  0
 48 47  1  0  0  0  0
 48 52  2  0  0  0  0
 49 51  1  0  0  0  0
 51 53  1  6  0  0  0
 51 44  1  0  0  0  0
 52 45  1  0  0  0  0
 55 54  1  6  0  0  0
 55 53  1  0  0  0  0
 56 55  1  0  0  0  0
 57 56  1  1  0  0  0
 57 60  1  0  0  0  0
 59 62  1  1  0  0  0
 59 58  1  0  0  0  0
 59 61  1  0  0  0  0
 61 58  1  1  0  0  0
 61 57  1  0  0  0  0
 61 60  1  0  0  0  0
 63 62  1  0  0  0  0
M  END
>  <MODEL>
6

>  <REMARK>
 VINA RESULT:      -5.8      3.198     10.247
  Name = 
  24 active torsions:
  status: ('A' for Active; 'I' for Inactive)
    1  A    between atoms: C_1  and  C_49
    2  A    between atoms: C_3  and  C_52
    3  A    between atoms: C_5  and  C_10
    4  A    between atoms: C_5  and  C_26
    5  A    between atoms: C_6  and  O_28
    6  A    between atoms: C_6  and  S_29
    7  A    between atoms: O_8  and  C_21
    8  A    between atoms: O_8  and  C_61
    9  A    between atoms: N_13  and  C_26
   10  A    between atoms: N_13  and  C_58
   11  A    between atoms: C_17  and  C_22
   12  A    between atoms: C_17  and  C_42
   13  A    between atoms: C_18  and  C_43
   14  A    between atoms: O_28  and  C_45
   15  A    between atoms: S_29  and  C_52
   16  A    between atoms: C_30  and  C_59
   17  A    between atoms: C_30  and  C_61
   18  A    between atoms: N_34  and  C_60
   19  A    between atoms: N_34  and  C_63
   20  A    between atoms: C_37  and  C_53
   21  A    between atoms: C_40  and  C_49
   22  A    between atoms: C_40  and  C_60
   23  A    between atoms: C_42  and  C_44
   24  A    between atoms: C_52  and  C_53
                            x       y       z     vdW  Elec       q    Type
                         _______ _______ _______ _____ _____    ______ ____

>  <TORSDO>
F 24

$$$$
=
 OpenBabel10222420133D

 63 70  0  0  1  0  0  0  0  0999 V2000
  190.0350  177.2270  138.1310 C   0  0  1  0  0  3  0  0  0  0  0  0
  188.2570  177.7860  140.6650 C   0  0  0  0  0  2  0  0  0  0  0  0
  189.6310  178.4220  140.8090 C   0  0  0  0  0  2  0  0  0  0  0  0
  190.7250  177.4280  140.5320 C   0  0  0  0  0  0  0  0  0  0  0  0
  187.8170  177.7850  139.2040 C   0  0  1  0  0  3  0  0  0  0  0  0
  188.5940  176.7740  138.3660 C   0  0  0  0  0  2  0  0  0  0  0  0
  190.9050  176.9100  139.3130 C   0  0  0  0  0  3  0  0  0  0  0  0
  189.5840  176.3530  135.9350 O   0  0  0  0  0  1  0  0  0  0  0  0
  190.6130  176.6270  136.8400 C   0  0  2  0  0  3  0  0  0  0  0  0
  190.9360  174.3040  137.5410 C   0  0  0  0  0  2  0  0  0  0  0  0
  191.4930  175.4140  137.0640 C   0  0  0  0  0  0  0  0  0  0  0  0
  193.4580  176.6740  137.5490 O   0  0  0  0  0  1  0  0  0  0  0  0
  192.9920  175.4760  137.0040 C   0  0  1  0  0  3  0  0  0  0  0  0
  193.5810  174.3440  137.7060 N   0  0  0  0  0  2  0  0  0  0  0  0
  194.1380  173.1050  135.5560 C   0  0  0  0  0  2  0  0  0  0  0  0
  195.9130  171.3870  137.2640 C   0  0  0  0  0  2  0  0  0  0  0  0
  195.1630  172.1770  134.9270 C   0  0  0  0  0  2  0  0  0  0  0  0
  195.0540  172.4930  137.8020 C   0  0  0  0  0  3  0  0  0  0  0  0
  195.1660  170.5960  135.8100 S   0  0  0  0  0  0  0  0  0  0  0  0
  194.3180  173.3130  137.0440 C   0  0  0  0  0  0  0  0  0  0  0  0
  186.3150  177.5450  139.0870 C   0  0  0  0  0  2  0  0  0  0  0  0
  185.6820  178.3480  137.9610 C   0  0  0  0  0  2  0  0  0  0  0  0
  184.8440  177.4410  137.1210 C   0  0  0  0  0  3  0  0  0  0  0  0
  183.5100  177.3330  137.2480 C   0  0  0  0  0  0  0  0  0  0  0  0
  182.3350  179.4540  137.7780 C   0  0  0  0  0  2  0  0  0  0  0  0
  181.3200  178.3420  137.8860 C   0  0  0  0  0  2  0  0  0  0  0  0
  182.7580  178.0950  138.3110 C   0  0  0  0  0  3  0  0  0  0  0  0
  182.7650  176.3220  136.4140 C   0  0  2  0  0  3  0  0  0  0  0  0
  181.7890  174.0210  136.6000 O   0  0  0  0  0  0  0  0  0  0  0  0
  182.5650  175.0340  137.1500 C   0  0  0  0  0  0  0  0  0  0  0  0
  183.1230  174.8600  138.2650 O   0  0  0  0  0  1  0  0  0  0  0  0
  183.5690  176.0650  134.7970 S   0  0  0  0  0  0  0  0  0  0  0  0
  184.2840  174.4660  135.2800 C   0  0  0  0  0  2  0  0  0  0  0  0
  185.5950  174.3680  134.8000 O   0  0  0  0  0  0  0  0  0  0  0  0
  187.5300  173.9530  136.3220 C   0  0  0  0  0  2  0  0  0  0  0  0
  186.2250  173.8800  137.1120 C   0  0  2  0  0  3  0  0  0  0  0  0
  186.1360  172.1080  135.3950 O   0  0  0  0  0  1  0  0  0  0  0  0
  186.2460  172.7550  137.9420 O   0  0  0  0  0  1  0  0  0  0  0  0
  186.2640  173.4770  135.6490 C   0  0  1  0  0  0  0  0  0  0  0  0
  191.5820  177.0190  141.5550 O   0  0  0  0  0  0  0  0  0  0  0  0
  191.1260  176.2640  142.6690 C   0  0  0  0  0  2  0  0  0  0  0  0
  191.3420  177.0510  143.9480 C   0  0  0  0  0  2  0  0  0  0  0  0
  187.6170  177.6940  145.9740 C   0  0  0  0  0  0  0  0  0  0  0  0
  186.4500  178.2050  146.3700 C   0  0  0  0  0  2  0  0  0  0  0  0
  190.1850  177.4670  146.2690 C   0  0  0  0  0  3  0  0  0  0  0  0
  186.6770  177.3190  143.6340 C   0  0  0  0  0  3  0  0  0  0  0  0
  187.7270  177.0980  144.6330 C   0  0  0  0  0  0  0  0  0  0  0  0
  188.9630  176.8640  144.3830 C   0  0  0  0  0  3  0  0  0  0  0  0
  185.5020  177.8080  144.0450 C   0  0  0  0  0  3  0  0  0  0  0  0
  188.8250  177.8390  146.7720 N   0  0  0  0  0  0  0  0  0  0  0  0
  185.2080  178.0750  145.5120 C   0  0  2  0  0  3  0  0  0  0  0  0
  190.1650  176.9000  144.8500 C   0  0  0  0  0  0  0  0  0  0  0  0
  184.3960  179.2740  145.6410 N   0  0  0  0  0  2  0  0  0  0  0  0
  183.6850  180.6310  143.8840 O   0  0  0  0  0  1  0  0  0  0  0  0
  183.5490  179.3670  144.4590 C   0  0  2  0  0  3  0  0  0  0  0  0
  182.0850  179.1020  144.8080 C   0  0  0  0  0  2  0  0  0  0  0  0
  181.3050  178.5590  143.6200 C   0  0  1  0  0  3  0  0  0  0  0  0
  179.1820  179.6720  142.1320 C   0  0  0  0  0  2  0  0  0  0  0  0
  180.4980  179.3580  141.5560 C   0  0  1  0  0  3  0  0  0  0  0  0
  179.9600  178.5320  143.9170 O   0  0  0  0  0  0  0  0  0  0  0  0
  180.3730  179.6170  143.0940 C   0  0  1  0  0  0  0  0  0  0  0  0
  180.4180  177.9130  141.0530 C   0  0  0  0  0  2  0  0  0  0  0  0
  178.9780  177.5630  140.7390 C   0  0  0  0  0  1  0  0  0  0  0  0
  1  9  1  6  0  0  0
  1  6  1  0  0  0  0
  1  7  1  0  0  0  0
  2  3  1  0  0  0  0
  4  3  1  0  0  0  0
  4 40  1  0  0  0  0
  5 21  1  1  0  0  0
  5  2  1  0  0  0  0
  6  5  1  0  0  0  0
  7  4  2  0  0  0  0
  9  8  1  6  0  0  0
  9 11  1  0  0  0  0
 11 10  2  0  0  0  0
 13 11  1  0  0  0  0
 13 12  1  1  0  0  0
 13 14  1  0  0  0  0
 15 20  1  0  0  0  0
 16 18  1  0  0  0  0
 17 15  1  0  0  0  0
 17 19  1  0  0  0  0
 19 16  1  0  0  0  0
 20 14  1  0  0  0  0
 20 18  2  0  0  0  0
 22 21  1  0  0  0  0
 23 24  2  0  0  0  0
 23 22  1  0  0  0  0
 24 27  1  0  0  0  0
 25 26  1  0  0  0  0
 25 27  1  0  0  0  0
 26 27  1  0  0  0  0
 28 32  1  6  0  0  0
 28 30  1  0  0  0  0
 28 24  1  0  0  0  0
 29 30  2  0  0  0  0
 30 31  1  0  0  0  0
 32 33  1  0  0  0  0
 34 33  1  0  0  0  0
 34 39  1  0  0  0  0
 35 36  1  0  0  0  0
 36 38  1  1  0  0  0
 39 37  1  6  0  0  0
 39 35  1  0  0  0  0
 39 36  1  0  0  0  0
 40 41  1  0  0  0  0
 41 42  1  0  0  0  0
 42 52  1  0  0  0  0
 43 44  1  0  0  0  0
 43 50  1  0  0  0  0
 45 50  2  0  0  0  0
 46 49  2  0  0  0  0
 46 47  1  0  0  0  0
 47 43  2  0  0  0  0
 48 47  1  0  0  0  0
 48 52  2  0  0  0  0
 49 51  1  0  0  0  0
 51 53  1  6  0  0  0
 51 44  1  0  0  0  0
 52 45  1  0  0  0  0
 55 54  1  1  0  0  0
 55 56  1  0  0  0  0
 55 53  1  0  0  0  0
 57 60  1  0  0  0  0
 57 56  1  1  0  0  0
 59 62  1  1  0  0  0
 59 58  1  0  0  0  0
 59 61  1  0  0  0  0
 61 58  1  1  0  0  0
 61 57  1  0  0  0  0
 61 60  1  0  0  0  0
 63 62  1  0  0  0  0
M  END
>  <MODEL>
7

>  <REMARK>
 VINA RESULT:      -5.7      3.147      9.677
  Name = 
  24 active torsions:
  status: ('A' for Active; 'I' for Inactive)
    1  A    between atoms: C_1  and  C_49
    2  A    between atoms: C_3  and  C_52
    3  A    between atoms: C_5  and  C_10
    4  A    between atoms: C_5  and  C_26
    5  A    between atoms: C_6  and  O_28
    6  A    between atoms: C_6  and  S_29
    7  A    between atoms: O_8  and  C_21
    8  A    between atoms: O_8  and  C_61
    9  A    between atoms: N_13  and  C_26
   10  A    between atoms: N_13  and  C_58
   11  A    between atoms: C_17  and  C_22
   12  A    between atoms: C_17  and  C_42
   13  A    between atoms: C_18  and  C_43
   14  A    between atoms: O_28  and  C_45
   15  A    between atoms: S_29  and  C_52
   16  A    between atoms: C_30  and  C_59
   17  A    between atoms: C_30  and  C_61
   18  A    between atoms: N_34  and  C_60
   19  A    between atoms: N_34  and  C_63
   20  A    between atoms: C_37  and  C_53
   21  A    between atoms: C_40  and  C_49
   22  A    between atoms: C_40  and  C_60
   23  A    between atoms: C_42  and  C_44
   24  A    between atoms: C_52  and  C_53
                            x       y       z     vdW  Elec       q    Type
                         _______ _______ _______ _____ _____    ______ ____

>  <TORSDO>
F 24

$$$$
=
 OpenBabel10222420133D

 63 70  0  0  1  0  0  0  0  0999 V2000
  183.0810  179.2790  141.6640 C   0  0  1  0  0  3  0  0  0  0  0  0
  186.0340  178.9100  142.6830 C   0  0  0  0  0  2  0  0  0  0  0  0
  186.0030  179.6360  141.3470 C   0  0  0  0  0  2  0  0  0  0  0  0
  185.1720  178.8900  140.3390 C   0  0  0  0  0  0  0  0  0  0  0  0
  184.8030  179.2600  143.5130 C   0  0  1  0  0  3  0  0  0  0  0  0
  183.5330  178.6150  142.9650 C   0  0  0  0  0  2  0  0  0  0  0  0
  183.8510  178.7520  140.4880 C   0  0  0  0  0  3  0  0  0  0  0  0
  180.9680  178.6080  142.5990 O   0  0  0  0  0  1  0  0  0  0  0  0
  181.5670  179.1290  141.4490 C   0  0  2  0  0  3  0  0  0  0  0  0
  181.3760  177.0100  140.2390 C   0  0  0  0  0  2  0  0  0  0  0  0
  181.1960  178.3280  140.2180 C   0  0  0  0  0  0  0  0  0  0  0  0
  179.5590  178.6610  138.5170 O   0  0  0  0  0  1  0  0  0  0  0  0
  180.8660  178.9680  138.9010 C   0  0  1  0  0  3  0  0  0  0  0  0
  181.0400  180.4120  138.9740 N   0  0  0  0  0  2  0  0  0  0  0  0
  180.9610  182.7800  138.0490 C   0  0  0  0  0  2  0  0  0  0  0  0
  179.8840  181.5300  135.5400 C   0  0  0  0  0  2  0  0  0  0  0  0
  180.8930  183.5690  136.7530 C   0  0  0  0  0  2  0  0  0  0  0  0
  180.2070  180.7570  136.7850 C   0  0  0  0  0  3  0  0  0  0  0  0
  179.3260  183.2170  135.9160 S   0  0  0  0  0  0  0  0  0  0  0  0
  180.7570  181.2900  137.8820 C   0  0  0  0  0  0  0  0  0  0  0  0
  185.0100  178.8890  144.9780 C   0  0  0  0  0  2  0  0  0  0  0  0
  185.6700  177.5290  145.1480 C   0  0  0  0  0  2  0  0  0  0  0  0
  187.1010  177.7210  145.5290 C   0  0  0  0  0  3  0  0  0  0  0  0
  188.1240  177.1190  144.8990 C   0  0  0  0  0  0  0  0  0  0  0  0
  188.3310  176.7460  142.4540 C   0  0  0  0  0  2  0  0  0  0  0  0
  189.2030  175.7200  143.1370 C   0  0  0  0  0  2  0  0  0  0  0  0
  187.8880  176.1400  143.7760 C   0  0  0  0  0  3  0  0  0  0  0  0
  189.5280  177.3060  145.4170 C   0  0  2  0  0  3  0  0  0  0  0  0
  190.4180  177.9470  147.6710 O   0  0  0  0  0  1  0  0  0  0  0  0
  189.6010  177.1280  146.9010 C   0  0  0  0  0  0  0  0  0  0  0  0
  188.8990  176.2430  147.4580 O   0  0  0  0  0  0  0  0  0  0  0  0
  190.2290  178.9050  144.8880 S   0  0  0  0  0  0  0  0  0  0  0  0
  191.5690  178.1290  143.9350 C   0  0  0  0  0  2  0  0  0  0  0  0
  191.5150  178.5590  142.6050 O   0  0  0  0  0  0  0  0  0  0  0  0
  191.2930  177.2970  140.4620 C   0  0  0  0  0  2  0  0  0  0  0  0
  192.7000  177.8790  140.5770 C   0  0  2  0  0  3  0  0  0  0  0  0
  192.3980  176.3310  142.4760 O   0  0  0  0  0  1  0  0  0  0  0  0
  193.6370  176.9030  140.2280 O   0  0  0  0  0  1  0  0  0  0  0  0
  191.9300  177.4750  141.8200 C   0  0  1  0  0  0  0  0  0  0  0  0
  185.7730  178.3180  139.2160 O   0  0  0  0  0  0  0  0  0  0  0  0
  185.1090  178.2350  137.9620 C   0  0  0  0  0  2  0  0  0  0  0  0
  185.1870  176.8160  137.4320 C   0  0  0  0  0  2  0  0  0  0  0  0
  189.1760  176.2320  135.9710 C   0  0  0  0  0  0  0  0  0  0  0  0
  190.4910  176.0140  135.8980 C   0  0  0  0  0  2  0  0  0  0  0  0
  187.1770  177.8810  136.0900 C   0  0  0  0  0  3  0  0  0  0  0  0
  188.8310  173.9120  136.9690 C   0  0  0  0  0  3  0  0  0  0  0  0
  188.2840  175.1340  136.3730 C   0  0  0  0  0  0  0  0  0  0  0  0
  187.1090  175.6080  136.5790 C   0  0  0  0  0  3  0  0  0  0  0  0
  190.1460  173.6910  136.8680 C   0  0  0  0  0  3  0  0  0  0  0  0
  188.6120  177.5630  135.8080 N   0  0  0  0  0  0  0  0  0  0  0  0
  191.0660  174.6280  136.1030 C   0  0  2  0  0  3  0  0  0  0  0  0
  186.3700  176.6640  136.5390 C   0  0  0  0  0  0  0  0  0  0  0  0
  192.3460  174.7250  136.7850 N   0  0  0  0  0  2  0  0  0  0  0  0
  193.8410  172.9420  136.6330 O   0  0  0  0  0  1  0  0  0  0  0  0
  193.3430  174.0570  135.9580 C   0  0  2  0  0  3  0  0  0  0  0  0
  194.4850  175.0070  135.5980 C   0  0  0  0  0  2  0  0  0  0  0  0
  195.8420  174.4410  135.9890 C   0  0  1  0  0  3  0  0  0  0  0  0
  198.4040  174.8310  134.8740 C   0  0  0  0  0  2  0  0  0  0  0  0
  198.0490  175.2280  136.2440 C   0  0  1  0  0  3  0  0  0  0  0  0
  196.4050  173.7880  134.9140 O   0  0  0  0  0  0  0  0  0  0  0  0
  196.9220  175.0890  135.1660 C   0  0  1  0  0  0  0  0  0  0  0  0
  198.3520  174.0220  137.1380 C   0  0  0  0  0  2  0  0  0  0  0  0
  198.8320  174.5010  138.4920 C   0  0  0  0  0  1  0  0  0  0  0  0
  1  9  1  6  0  0  0
  1  6  1  0  0  0  0
  2  5  1  0  0  0  0
  3  2  1  0  0  0  0
  4  7  2  0  0  0  0
  4  3  1  0  0  0  0
  5 21  1  1  0  0  0
  6  5  1  0  0  0  0
  7  1  1  0  0  0  0
  9  8  1  1  0  0  0
 11 10  2  0  0  0  0
 11  9  1  0  0  0  0
 13 12  1  1  0  0  0
 13 14  1  0  0  0  0
 13 11  1  0  0  0  0
 16 19  1  0  0  0  0
 16 18  1  0  0  0  0
 17 15  1  0  0  0  0
 18 20  2  0  0  0  0
 19 17  1  0  0  0  0
 20 15  1  0  0  0  0
 20 14  1  0  0  0  0
 21 22  1  0  0  0  0
 22 23  1  0  0  0  0
 24 28  1  0  0  0  0
 24 23  2  0  0  0  0
 25 26  1  0  0  0  0
 25 27  1  0  0  0  0
 26 27  1  0  0  0  0
 27 24  1  0  0  0  0
 28 32  1  1  0  0  0
 28 30  1  0  0  0  0
 30 31  2  0  0  0  0
 30 29  1  0  0  0  0
 33 32  1  0  0  0  0
 34 33  1  0  0  0  0
 35 36  1  0  0  0  0
 35 39  1  0  0  0  0
 36 38  1  6  0  0  0
 36 39  1  0  0  0  0
 39 37  1  1  0  0  0
 39 34  1  0  0  0  0
 40  4  1  0  0  0  0
 41 40  1  0  0  0  0
 42 41  1  0  0  0  0
 43 47  1  0  0  0  0
 44 43  1  0  0  0  0
 44 51  1  0  0  0  0
 45 52  2  0  0  0  0
 47 48  2  0  0  0  0
 47 46  1  0  0  0  0
 49 46  2  0  0  0  0
 50 43  2  0  0  0  0
 50 45  1  0  0  0  0
 51 53  1  1  0  0  0
 51 49  1  0  0  0  0
 52 48  1  0  0  0  0
 52 42  1  0  0  0  0
 55 54  1  1  0  0  0
 55 53  1  0  0  0  0
 56 55  1  0  0  0  0
 57 56  1  6  0  0  0
 58 59  1  0  0  0  0
 59 62  1  1  0  0  0
 60 61  1  0  0  0  0
 60 57  1  0  0  0  0
 61 58  1  6  0  0  0
 61 57  1  0  0  0  0
 61 59  1  0  0  0  0
 62 63  1  0  0  0  0
M  END
>  <MODEL>
8

>  <REMARK>
 VINA RESULT:      -4.9      3.391      9.853
  Name = 
  24 active torsions:
  status: ('A' for Active; 'I' for Inactive)
    1  A    between atoms: C_1  and  C_49
    2  A    between atoms: C_3  and  C_52
    3  A    between atoms: C_5  and  C_10
    4  A    between atoms: C_5  and  C_26
    5  A    between atoms: C_6  and  O_28
    6  A    between atoms: C_6  and  S_29
    7  A    between atoms: O_8  and  C_21
    8  A    between atoms: O_8  and  C_61
    9  A    between atoms: N_13  and  C_26
   10  A    between atoms: N_13  and  C_58
   11  A    between atoms: C_17  and  C_22
   12  A    between atoms: C_17  and  C_42
   13  A    between atoms: C_18  and  C_43
   14  A    between atoms: O_28  and  C_45
   15  A    between atoms: S_29  and  C_52
   16  A    between atoms: C_30  and  C_59
   17  A    between atoms: C_30  and  C_61
   18  A    between atoms: N_34  and  C_60
   19  A    between atoms: N_34  and  C_63
   20  A    between atoms: C_37  and  C_53
   21  A    between atoms: C_40  and  C_49
   22  A    between atoms: C_40  and  C_60
   23  A    between atoms: C_42  and  C_44
   24  A    between atoms: C_52  and  C_53
                            x       y       z     vdW  Elec       q    Type
                         _______ _______ _______ _____ _____    ______ ____

>  <TORSDO>
F 24

$$$$
=
 OpenBabel10222420133D

 63 70  0  0  1  0  0  0  0  0999 V2000
  186.0550  175.1560  137.2940 C   0  0  1  0  0  3  0  0  0  0  0  0
  187.2510  178.0460  136.9600 C   0  0  0  0  0  2  0  0  0  0  0  0
  186.0560  178.0540  137.9000 C   0  0  0  0  0  2  0  0  0  0  0  0
  184.8710  177.3650  137.2830 C   0  0  0  0  0  0  0  0  0  0  0  0
  188.0180  176.7330  137.0760 C   0  0  1  0  0  3  0  0  0  0  0  0
  187.2630  175.5640  136.4500 C   0  0  0  0  0  2  0  0  0  0  0  0
  184.8790  176.0520  137.0310 C   0  0  0  0  0  3  0  0  0  0  0  0
  186.6660  172.8550  137.6410 O   0  0  0  0  0  1  0  0  0  0  0  0
  185.6880  173.6800  137.0800 C   0  0  2  0  0  3  0  0  0  0  0  0
  185.7790  174.1750  134.6840 C   0  0  0  0  0  2  0  0  0  0  0  0
  185.4160  173.3160  135.6340 C   0  0  0  0  0  0  0  0  0  0  0  0
  185.2410  170.9530  135.3750 O   0  0  0  0  0  1  0  0  0  0  0  0
  184.5490  172.1580  135.2360 C   0  0  1  0  0  3  0  0  0  0  0  0
  183.3320  172.1300  136.0360 N   0  0  0  0  0  2  0  0  0  0  0  0
  181.1750  173.1350  136.9340 C   0  0  0  0  0  2  0  0  0  0  0  0
  181.3320  175.0110  134.5940 C   0  0  0  0  0  2  0  0  0  0  0  0
  180.3040  174.3780  136.8720 C   0  0  0  0  0  2  0  0  0  0  0  0
  182.3160  173.9070  134.8450 C   0  0  0  0  0  3  0  0  0  0  0  0
  179.6700  174.5850  135.1880 S   0  0  0  0  0  0  0  0  0  0  0  0
  182.3010  173.1140  135.9220 C   0  0  0  0  0  0  0  0  0  0  0  0
  189.4140  176.8610  136.4750 C   0  0  0  0  0  2  0  0  0  0  0  0
  189.5040  176.2660  135.0780 C   0  0  0  0  0  2  0  0  0  0  0  0
  190.9040  175.8080  134.8270 C   0  0  0  0  0  3  0  0  0  0  0  0
  191.3160  174.5440  135.0160 C   0  0  0  0  0  0  0  0  0  0  0  0
  189.2340  173.2580  134.5970 C   0  0  0  0  0  2  0  0  0  0  0  0
  190.3680  172.2640  134.6590 C   0  0  0  0  0  2  0  0  0  0  0  0
  190.3870  173.4870  135.5610 C   0  0  0  0  0  3  0  0  0  0  0  0
  192.7710  174.2010  134.8210 C   0  0  2  0  0  3  0  0  0  0  0  0
  193.3810  173.6800  137.1960 O   0  0  0  0  0  1  0  0  0  0  0  0
  193.2670  173.2620  135.8760 C   0  0  0  0  0  0  0  0  0  0  0  0
  193.5590  172.0770  135.5680 O   0  0  0  0  0  0  0  0  0  0  0  0
  193.8030  175.7010  134.7050 S   0  0  0  0  0  0  0  0  0  0  0  0
  195.3620  174.7710  134.7930 C   0  0  0  0  0  2  0  0  0  0  0  0
  196.1810  175.3130  135.7900 O   0  0  0  0  0  0  0  0  0  0  0  0
  198.5930  174.8740  136.2660 C   0  0  0  0  0  2  0  0  0  0  0  0
  197.7400  174.4130  137.4460 C   0  0  2  0  0  3  0  0  0  0  0  0
  197.0370  173.0920  135.4810 O   0  0  0  0  0  1  0  0  0  0  0  0
  198.1630  173.1460  137.8580 O   0  0  0  0  0  1  0  0  0  0  0  0
  197.1880  174.3690  136.0320 C   0  0  1  0  0  0  0  0  0  0  0  0
  183.7250  178.0910  136.9540 O   0  0  0  0  0  0  0  0  0  0  0  0
  182.4440  177.7610  137.4730 C   0  0  0  0  0  2  0  0  0  0  0  0
  181.6800  179.0300  137.8030 C   0  0  0  0  0  2  0  0  0  0  0  0
  182.8940  179.0080  141.9160 C   0  0  0  0  0  0  0  0  0  0  0  0
  183.4070  178.6500  143.0940 C   0  0  0  0  0  2  0  0  0  0  0  0
  180.8700  179.1490  140.2980 C   0  0  0  0  0  3  0  0  0  0  0  0
  185.2170  178.9580  140.8700 C   0  0  0  0  0  3  0  0  0  0  0  0
  183.7980  179.3170  140.7980 C   0  0  0  0  0  0  0  0  0  0  0  0
  183.1070  179.4290  139.7230 C   0  0  0  0  0  3  0  0  0  0  0  0
  185.7280  178.6250  142.0600 C   0  0  0  0  0  3  0  0  0  0  0  0
  181.4620  178.9590  141.6600 N   0  0  0  0  0  0  0  0  0  0  0  0
  184.9020  178.6740  143.3350 C   0  0  2  0  0  3  0  0  0  0  0  0
  181.9180  179.4210  139.2210 C   0  0  0  0  0  0  0  0  0  0  0  0
  185.2760  177.5700  144.2050 N   0  0  0  0  0  2  0  0  0  0  0  0
  185.6260  179.4810  145.4950 O   0  0  0  0  0  1  0  0  0  0  0  0
  185.4340  178.1000  145.5530 C   0  0  2  0  0  3  0  0  0  0  0  0
  186.6080  177.4350  146.2710 C   0  0  0  0  0  2  0  0  0  0  0  0
  187.9490  177.9560  145.7730 C   0  0  1  0  0  3  0  0  0  0  0  0
  190.5880  177.2230  146.4510 C   0  0  0  0  0  2  0  0  0  0  0  0
  190.0240  177.0600  145.1040 C   0  0  1  0  0  3  0  0  0  0  0  0
  188.7030  178.4000  146.8380 O   0  0  0  0  0  0  0  0  0  0  0  0
  189.0640  177.1170  146.3390 C   0  0  1  0  0  0  0  0  0  0  0  0
  190.3160  178.3620  144.3510 C   0  0  0  0  0  2  0  0  0  0  0  0
  191.7700  178.3870  143.9250 C   0  0  0  0  0  1  0  0  0  0  0  0
  1  9  1  6  0  0  0
  2  5  1  0  0  0  0
  2  3  1  0  0  0  0
  4  3  1  0  0  0  0
  5 21  1  6  0  0  0
  6  5  1  0  0  0  0
  6  1  1  0  0  0  0
  7  4  2  0  0  0  0
  7  1  1  0  0  0  0
  9  8  1  6  0  0  0
 10 11  2  0  0  0  0
 11  9  1  0  0  0  0
 13 12  1  1  0  0  0
 13 11  1  0  0  0  0
 13 14  1  0  0  0  0
 16 18  1  0  0  0  0
 16 19  1  0  0  0  0
 17 15  1  0  0  0  0
 18 20  2  0  0  0  0
 19 17  1  0  0  0  0
 20 14  1  0  0  0  0
 20 15  1  0  0  0  0
 22 21  1  0  0  0  0
 23 24  2  0  0  0  0
 23 22  1  0  0  0  0
 24 27  1  0  0  0  0
 25 26  1  0  0  0  0
 25 27  1  0  0  0  0
 26 27  1  0  0  0  0
 28 32  1  1  0  0  0
 28 24  1  0  0  0  0
 28 30  1  0  0  0  0
 30 29  1  0  0  0  0
 31 30  2  0  0  0  0
 32 33  1  0  0  0  0
 33 34  1  0  0  0  0
 34 39  1  0  0  0  0
 35 36  1  0  0  0  0
 36 38  1  6  0  0  0
 39 37  1  6  0  0  0
 39 35  1  0  0  0  0
 39 36  1  0  0  0  0
 40  4  1  0  0  0  0
 40 41  1  0  0  0  0
 41 42  1  0  0  0  0
 42 52  1  0  0  0  0
 43 44  1  0  0  0  0
 44 51  1  0  0  0  0
 45 50  2  0  0  0  0
 46 49  2  0  0  0  0
 47 46  1  0  0  0  0
 47 43  2  0  0  0  0
 48 47  1  0  0  0  0
 49 51  1  0  0  0  0
 50 43  1  0  0  0  0
 51 53  1  1  0  0  0
 52 48  2  0  0  0  0
 52 45  1  0  0  0  0
 53 55  1  0  0  0  0
 55 54  1  6  0  0  0
 55 56  1  0  0  0  0
 57 56  1  1  0  0  0
 57 61  1  0  0  0  0
 57 60  1  0  0  0  0
 59 62  1  6  0  0  0
 59 61  1  0  0  0  0
 59 58  1  0  0  0  0
 61 58  1  1  0  0  0
 61 60  1  0  0  0  0
 63 62  1  0  0  0  0
M  END
>  <MODEL>
9

>  <REMARK>
 VINA RESULT:      -4.8      2.921      7.911
  Name = 
  24 active torsions:
  status: ('A' for Active; 'I' for Inactive)
    1  A    between atoms: C_1  and  C_49
    2  A    between atoms: C_3  and  C_52
    3  A    between atoms: C_5  and  C_10
    4  A    between atoms: C_5  and  C_26
    5  A    between atoms: C_6  and  O_28
    6  A    between atoms: C_6  and  S_29
    7  A    between atoms: O_8  and  C_21
    8  A    between atoms: O_8  and  C_61
    9  A    between atoms: N_13  and  C_26
   10  A    between atoms: N_13  and  C_58
   11  A    between atoms: C_17  and  C_22
   12  A    between atoms: C_17  and  C_42
   13  A    between atoms: C_18  and  C_43
   14  A    between atoms: O_28  and  C_45
   15  A    between atoms: S_29  and  C_52
   16  A    between atoms: C_30  and  C_59
   17  A    between atoms: C_30  and  C_61
   18  A    between atoms: N_34  and  C_60
   19  A    between atoms: N_34  and  C_63
   20  A    between atoms: C_37  and  C_53
   21  A    between atoms: C_40  and  C_49
   22  A    between atoms: C_40  and  C_60
   23  A    between atoms: C_42  and  C_44
   24  A    between atoms: C_52  and  C_53
                            x       y       z     vdW  Elec       q    Type
                         _______ _______ _______ _____ _____    ______ ____

>  <TORSDO>
F 24

$$$$
