=
 OpenBabel10222419283D

 42 44  0  0  1  0  0  0  0  0999 V2000
  188.6620  177.8050  145.7130 C   0  0  2  0  0  3  0  0  0  0  0  0
  187.1820  178.0530  145.7050 C   0  0  0  0  0  0  0  0  0  0  0  0
  185.0740  178.3110  144.5170 C   0  0  0  0  0  0  0  0  0  0  0  0
  184.4270  178.5510  145.7410 C   0  0  0  0  0  3  0  0  0  0  0  0
  186.4500  178.0650  144.5080 C   0  0  0  0  0  3  0  0  0  0  0  0
  185.1520  178.5440  146.9350 C   0  0  0  0  0  3  0  0  0  0  0  0
  186.5270  178.2960  146.9160 C   0  0  0  0  0  3  0  0  0  0  0  0
  184.3800  178.3150  143.3030 O   0  0  0  0  0  0  0  0  0  0  0  0
  181.9660  179.1870  143.0800 C   0  0  0  0  0  0  0  0  0  0  0  0
  183.0950  178.7780  143.1840 C   0  0  0  0  0  0  0  0  0  0  0  0
  180.3140  179.7820  142.9320 S   0  0  0  0  0  0  0  0  0  0  0  0
  179.8450  178.3990  141.8550 C   0  0  0  0  0  2  0  0  0  0  0  0
  180.2810  178.6740  140.4530 C   0  0  0  0  0  0  0  0  0  0  0  0
  179.8820  177.9160  139.5300 O   0  0  0  0  0  0  0  0  0  0  0  0
  181.1090  179.7590  140.1320 O   0  0  0  0  0  0  0  0  0  0  0  0
  181.9190  181.0960  138.4140 O   0  0  0  0  0  1  0  0  0  0  0  0
  181.9600  179.8220  138.9870 C   0  0  1  0  0  3  0  0  0  0  0  0
  183.3630  179.4100  139.3220 C   0  0  0  0  0  0  0  0  0  0  0  0
  183.6080  178.1300  139.8020 O   0  0  0  0  0  1  0  0  0  0  0  0
  184.3250  180.2060  139.1580 O   0  0  0  0  0  0  0  0  0  0  0  0
  191.2360  177.2590  142.2830 C   0  0  2  0  0  3  0  0  0  0  0  0
  189.9390  176.4530  142.3070 C   0  0  0  0  0  2  0  0  0  0  0  0
  190.9920  178.6290  142.9120 C   0  0  0  0  0  2  0  0  0  0  0  0
  190.5500  178.4720  144.2950 N   0  0  0  0  0  2  0  0  0  0  0  0
  189.3920  176.3780  143.7290 C   0  0  0  0  0  2  0  0  0  0  0  0
  189.2520  177.7950  144.3000 C   0  0  1  0  0  3  0  0  0  0  0  0
  191.6890  177.4300  140.9130 N   0  0  0  0  0  2  0  0  0  0  0  0
  190.3960  176.9160  139.0050 C   0  0  0  0  0  0  0  0  0  0  0  0
  191.2720  176.5330  139.8890 C   0  0  0  0  0  3  0  0  0  0  0  0
  189.5200  177.3010  138.1210 C   0  0  0  0  0  3  0  0  0  0  0  0
  189.1660  178.7430  138.0030 C   0  0  0  0  0  2  0  0  0  0  0  0
  186.4410  177.7640  135.9360 C   0  0  0  0  0  2  0  0  0  0  0  0
  185.9750  177.3300  137.3030 C   0  0  0  0  0  2  0  0  0  0  0  0
  187.7800  178.8780  137.5880 N   0  0  0  0  0  0  0  0  0  0  0  0
  187.0320  177.8300  138.2630 C   0  0  0  0  0  2  0  0  0  0  0  0
  187.7170  178.5430  136.1720 C   0  0  0  0  0  2  0  0  0  0  0  0
  189.0530  176.5710  146.5310 C   0  0  0  0  0  2  0  0  0  0  0  0
  191.8250  175.9750  146.2250 O   0  0  0  0  0  0  0  0  0  0  0  0
  191.4720  176.5810  147.2750 C   0  0  0  0  0  0  0  0  0  0  0  0
  190.0970  176.9020  147.4920 N   0  0  0  0  0  2  0  0  0  0  0  0
  193.2190  175.9730  148.8960 C   0  0  0  0  0  1  0  0  0  0  0  0
  192.4150  176.9400  148.2370 O   0  0  0  0  0  0  0  0  0  0  0  0
  1 37  1  6  0  0  0
  2  1  1  0  0  0  0
  2  7  1  0  0  0  0
  3  4  2  0  0  0  0
  4  6  1  0  0  0  0
  5  3  1  0  0  0  0
  5  2  2  0  0  0  0
  7  6  2  0  0  0  0
  8  3  1  0  0  0  0
  9 10  3  0  0  0  0
 10  8  1  0  0  0  0
 11  9  1  0  0  0  0
 12 11  1  0  0  0  0
 13 12  1  0  0  0  0
 14 13  2  0  0  0  0
 15 13  1  0  0  0  0
 17 16  1  1  0  0  0
 17 18  1  0  0  0  0
 17 15  1  0  0  0  0
 18 19  1  0  0  0  0
 20 18  2  0  0  0  0
 21 27  1  6  0  0  0
 21 22  1  0  0  0  0
 21 23  1  0  0  0  0
 22 25  1  0  0  0  0
 23 24  1  0  0  0  0
 24 26  1  0  0  0  0
 25 26  1  0  0  0  0
 26  1  1  1  0  0  0
 28 29  2  0  0  0  0
 29 27  1  0  0  0  0
 30 28  2  0  0  0  0
 31 30  1  0  0  0  0
 32 36  1  0  0  0  0
 32 33  1  0  0  0  0
 33 35  1  0  0  0  0
 34 31  1  0  0  0  0
 34 35  1  0  0  0  0
 36 34  1  0  0  0  0
 37 40  1  0  0  0  0
 38 39  2  0  0  0  0
 39 40  1  0  0  0  0
 39 42  1  0  0  0  0
 42 41  1  0  0  0  0
M  END
>  <MODEL>
1

>  <REMARK>
 VINA RESULT:      -7.8      0.000      0.000
  Name = 
  17 active torsions:
  status: ('A' for Active; 'I' for Inactive)
    1  A    between atoms: C_4  and  S_42
    2  A    between atoms: O_5  and  C_12
    3  A    between atoms: O_5  and  C_14
    4  A    between atoms: C_6  and  C_8
    5  A    between atoms: C_8  and  C_35
    6  A    between atoms: C_8  and  C_40
    7  A    between atoms: C_9  and  N_16
    8  A    between atoms: N_10  and  C_11
    9  A    between atoms: C_11  and  C_38
   10  A    between atoms: C_13  and  C_32
   11  A    between atoms: C_13  and  O_37
   12  A    between atoms: N_16  and  C_31
   13  A    between atoms: C_18  and  C_26
   14  A    between atoms: C_26  and  O_37
   15  A    between atoms: C_29  and  O_34
   16  A    between atoms: C_32  and  S_42
   17  A    between atoms: C_35  and  N_41
                            x       y       z     vdW  Elec       q    Type
                         _______ _______ _______ _____ _____    ______ ____

>  <TORSDO>
F 17

$$$$
=
 OpenBabel10222419283D

 42 44  0  0  1  0  0  0  0  0999 V2000
  188.5800  177.9100  145.8560 C   0  0  2  0  0  3  0  0  0  0  0  0
  187.1030  178.1530  145.7450 C   0  0  0  0  0  0  0  0  0  0  0  0
  185.1050  178.5400  144.4110 C   0  0  0  0  0  0  0  0  0  0  0  0
  184.3500  178.6380  145.5910 C   0  0  0  0  0  3  0  0  0  0  0  0
  186.4800  178.2990  144.4960 C   0  0  0  0  0  3  0  0  0  0  0  0
  184.9670  178.4970  146.8370 C   0  0  0  0  0  3  0  0  0  0  0  0
  186.3410  178.2570  146.9130 C   0  0  0  0  0  3  0  0  0  0  0  0
  184.5210  178.6790  143.1470 O   0  0  0  0  0  0  0  0  0  0  0  0
  181.9840  178.9770  142.8090 C   0  0  0  0  0  0  0  0  0  0  0  0
  183.1710  178.8380  142.9680 C   0  0  0  0  0  0  0  0  0  0  0  0
  180.2490  179.1820  142.5740 S   0  0  0  0  0  0  0  0  0  0  0  0
  180.2860  178.2460  141.0190 C   0  0  0  0  0  2  0  0  0  0  0  0
  180.9960  179.0330  139.9670 C   0  0  0  0  0  0  0  0  0  0  0  0
  180.7680  180.2670  139.8710 O   0  0  0  0  0  0  0  0  0  0  0  0
  181.9180  178.4410  139.0920 O   0  0  0  0  0  0  0  0  0  0  0  0
  183.2050  176.5080  139.0160 O   0  0  0  0  0  1  0  0  0  0  0  0
  183.1390  177.8200  139.4960 C   0  0  1  0  0  3  0  0  0  0  0  0
  184.3320  178.6250  139.0730 C   0  0  0  0  0  0  0  0  0  0  0  0
  184.6240  179.8150  139.7270 O   0  0  0  0  0  1  0  0  0  0  0  0
  185.0810  178.2270  138.1420 O   0  0  0  0  0  0  0  0  0  0  0  0
  191.3420  177.0940  142.6310 C   0  0  2  0  0  3  0  0  0  0  0  0
  190.0420  176.2920  142.6460 C   0  0  0  0  0  2  0  0  0  0  0  0
  191.0680  178.5090  143.1350 C   0  0  0  0  0  2  0  0  0  0  0  0
  190.5480  178.4630  144.5000 N   0  0  0  0  0  2  0  0  0  0  0  0
  189.4150  176.3300  144.0360 C   0  0  0  0  0  2  0  0  0  0  0  0
  189.2490  177.7880  144.4840 C   0  0  1  0  0  3  0  0  0  0  0  0
  191.8720  177.1550  141.2810 N   0  0  0  0  0  2  0  0  0  0  0  0
  191.1400  176.9500  139.0450 C   0  0  0  0  0  0  0  0  0  0  0  0
  191.0500  177.5610  140.1920 C   0  0  0  0  0  3  0  0  0  0  0  0
  191.2310  176.3370  137.8990 C   0  0  0  0  0  3  0  0  0  0  0  0
  191.9740  175.0500  137.8000 C   0  0  0  0  0  2  0  0  0  0  0  0
  189.3290  173.7380  135.8150 C   0  0  0  0  0  2  0  0  0  0  0  0
  190.4860  172.8520  135.4290 C   0  0  0  0  0  2  0  0  0  0  0  0
  191.0550  173.9750  137.4660 N   0  0  0  0  0  0  0  0  0  0  0  0
  191.6270  173.2680  136.3310 C   0  0  0  0  0  2  0  0  0  0  0  0
  189.8350  174.5880  136.9600 C   0  0  0  0  0  2  0  0  0  0  0  0
  188.9210  176.7470  146.7910 C   0  0  0  0  0  2  0  0  0  0  0  0
  191.6120  175.8650  146.4580 O   0  0  0  0  0  0  0  0  0  0  0  0
  191.3660  176.6270  147.4350 C   0  0  0  0  0  0  0  0  0  0  0  0
  190.0360  177.0970  147.6620 N   0  0  0  0  0  2  0  0  0  0  0  0
  193.2190  176.0660  148.9510 C   0  0  0  0  0  1  0  0  0  0  0  0
  192.3830  177.0150  148.3050 O   0  0  0  0  0  0  0  0  0  0  0  0
  1 37  1  1  0  0  0
  2  1  1  0  0  0  0
  2  7  1  0  0  0  0
  3  5  1  0  0  0  0
  3  4  2  0  0  0  0
  4  6  1  0  0  0  0
  5  2  2  0  0  0  0
  6  7  2  0  0  0  0
  8  3  1  0  0  0  0
  9 10  3  0  0  0  0
 10  8  1  0  0  0  0
 11  9  1  0  0  0  0
 12 11  1  0  0  0  0
 13 12  1  0  0  0  0
 14 13  2  0  0  0  0
 15 17  1  0  0  0  0
 15 13  1  0  0  0  0
 17 16  1  6  0  0  0
 18 17  1  0  0  0  0
 18 19  1  0  0  0  0
 20 18  2  0  0  0  0
 21 27  1  6  0  0  0
 21 22  1  0  0  0  0
 21 23  1  0  0  0  0
 22 25  1  0  0  0  0
 23 24  1  0  0  0  0
 25 26  1  0  0  0  0
 26 24  1  0  0  0  0
 26  1  1  1  0  0  0
 28 29  2  0  0  0  0
 29 27  1  0  0  0  0
 30 28  2  0  0  0  0
 31 30  1  0  0  0  0
 32 36  1  0  0  0  0
 33 32  1  0  0  0  0
 33 35  1  0  0  0  0
 34 31  1  0  0  0  0
 35 34  1  0  0  0  0
 36 34  1  0  0  0  0
 37 40  1  0  0  0  0
 38 39  2  0  0  0  0
 39 40  1  0  0  0  0
 39 42  1  0  0  0  0
 42 41  1  0  0  0  0
M  END
>  <MODEL>
2

>  <REMARK>
 VINA RESULT:      -7.4      1.778      2.443
  Name = 
  17 active torsions:
  status: ('A' for Active; 'I' for Inactive)
    1  A    between atoms: C_4  and  S_42
    2  A    between atoms: O_5  and  C_12
    3  A    between atoms: O_5  and  C_14
    4  A    between atoms: C_6  and  C_8
    5  A    between atoms: C_8  and  C_35
    6  A    between atoms: C_8  and  C_40
    7  A    between atoms: C_9  and  N_16
    8  A    between atoms: N_10  and  C_11
    9  A    between atoms: C_11  and  C_38
   10  A    between atoms: C_13  and  C_32
   11  A    between atoms: C_13  and  O_37
   12  A    between atoms: N_16  and  C_31
   13  A    between atoms: C_18  and  C_26
   14  A    between atoms: C_26  and  O_37
   15  A    between atoms: C_29  and  O_34
   16  A    between atoms: C_32  and  S_42
   17  A    between atoms: C_35  and  N_41
                            x       y       z     vdW  Elec       q    Type
                         _______ _______ _______ _____ _____    ______ ____

>  <TORSDO>
F 17

$$$$
=
 OpenBabel10222419283D

 42 44  0  0  1  0  0  0  0  0999 V2000
  190.5390  176.3770  139.1720 C   0  0  2  0  0  3  0  0  0  0  0  0
  189.4910  177.0800  138.3590 C   0  0  0  0  0  0  0  0  0  0  0  0
  187.3790  177.0770  137.1510 C   0  0  0  0  0  0  0  0  0  0  0  0
  187.5800  178.4270  136.8190 C   0  0  0  0  0  3  0  0  0  0  0  0
  188.3390  176.4110  137.9190 C   0  0  0  0  0  3  0  0  0  0  0  0
  188.7280  179.0960  137.2520 C   0  0  0  0  0  3  0  0  0  0  0  0
  189.6820  178.4230  138.0200 C   0  0  0  0  0  3  0  0  0  0  0  0
  186.2440  176.3750  136.7310 O   0  0  0  0  0  0  0  0  0  0  0  0
  183.8490  177.2460  137.1100 C   0  0  0  0  0  0  0  0  0  0  0  0
  184.9700  176.8380  136.9320 C   0  0  0  0  0  0  0  0  0  0  0  0
  182.2100  177.8390  137.3730 S   0  0  0  0  0  0  0  0  0  0  0  0
  182.1370  177.0900  139.0240 C   0  0  0  0  0  2  0  0  0  0  0  0
  181.6390  178.0890  140.0160 C   0  0  0  0  0  0  0  0  0  0  0  0
  180.4470  178.0110  140.4150 O   0  0  0  0  0  0  0  0  0  0  0  0
  182.4620  179.1030  140.5260 O   0  0  0  0  0  0  0  0  0  0  0  0
  183.9380  177.5840  141.4830 O   0  0  0  0  0  1  0  0  0  0  0  0
  183.7800  178.9000  141.0380 C   0  0  1  0  0  3  0  0  0  0  0  0
  184.8260  179.2730  140.0290 C   0  0  0  0  0  0  0  0  0  0  0  0
  184.5130  180.1680  139.0150 O   0  0  0  0  0  0  0  0  0  0  0  0
  185.9890  178.7960  140.1010 O   0  0  0  0  0  1  0  0  0  0  0  0
  190.3930  178.3570  143.0130 C   0  0  2  0  0  3  0  0  0  0  0  0
  189.0890  177.7510  142.4980 C   0  0  0  0  0  2  0  0  0  0  0  0
  191.5620  177.4680  142.5950 C   0  0  0  0  0  2  0  0  0  0  0  0
  191.6200  177.3690  141.1390 N   0  0  0  0  0  2  0  0  0  0  0  0
  189.1700  177.5250  140.9930 C   0  0  0  0  0  2  0  0  0  0  0  0
  190.4140  176.6870  140.6660 C   0  0  1  0  0  3  0  0  0  0  0  0
  190.3570  178.4590  144.4610 N   0  0  0  0  0  2  0  0  0  0  0  0
  189.4850  177.2070  146.2640 C   0  0  0  0  0  0  0  0  0  0  0  0
  190.3280  177.2910  145.2750 C   0  0  0  0  0  3  0  0  0  0  0  0
  188.6410  177.1250  147.2530 C   0  0  0  0  0  3  0  0  0  0  0  0
  187.5280  178.1080  147.3650 C   0  0  0  0  0  2  0  0  0  0  0  0
  184.4810  178.7690  145.6520 C   0  0  0  0  0  2  0  0  0  0  0  0
  185.3930  178.3490  144.5280 C   0  0  0  0  0  2  0  0  0  0  0  0
  186.3860  177.6510  146.5930 N   0  0  0  0  0  0  0  0  0  0  0  0
  186.6830  177.9260  145.1960 C   0  0  0  0  0  2  0  0  0  0  0  0
  185.2630  178.5180  146.9230 C   0  0  0  0  0  2  0  0  0  0  0  0
  191.9550  176.5990  138.6340 C   0  0  0  0  0  2  0  0  0  0  0  0
  194.5780  175.4980  138.4360 O   0  0  0  0  0  0  0  0  0  0  0  0
  193.6800  174.9950  137.7050 C   0  0  0  0  0  0  0  0  0  0  0  0
  192.3460  175.5080  137.7510 N   0  0  0  0  0  2  0  0  0  0  0  0
  192.9550  173.1530  136.2470 C   0  0  0  0  0  1  0  0  0  0  0  0
  193.9740  173.9410  136.8430 O   0  0  0  0  0  0  0  0  0  0  0  0
  1 37  1  6  0  0  0
  2  1  1  0  0  0  0
  3  5  1  0  0  0  0
  4  3  2  0  0  0  0
  4  6  1  0  0  0  0
  5  2  2  0  0  0  0
  6  7  2  0  0  0  0
  7  2  1  0  0  0  0
  8 10  1  0  0  0  0
  8  3  1  0  0  0  0
  9 11  1  0  0  0  0
 10  9  3  0  0  0  0
 11 12  1  0  0  0  0
 12 13  1  0  0  0  0
 13 14  2  0  0  0  0
 13 15  1  0  0  0  0
 15 17  1  0  0  0  0
 17 16  1  6  0  0  0
 18 20  1  0  0  0  0
 18 17  1  0  0  0  0
 19 18  2  0  0  0  0
 21 27  1  1  0  0  0
 22 21  1  0  0  0  0
 23 21  1  0  0  0  0
 24 23  1  0  0  0  0
 25 22  1  0  0  0  0
 26  1  1  6  0  0  0
 26 25  1  0  0  0  0
 26 24  1  0  0  0  0
 27 29  1  0  0  0  0
 28 30  2  0  0  0  0
 29 28  2  0  0  0  0
 30 31  1  0  0  0  0
 32 36  1  0  0  0  0
 33 35  1  0  0  0  0
 33 32  1  0  0  0  0
 34 36  1  0  0  0  0
 34 31  1  0  0  0  0
 35 34  1  0  0  0  0
 39 40  1  0  0  0  0
 39 38  2  0  0  0  0
 40 37  1  0  0  0  0
 41 42  1  0  0  0  0
 42 39  1  0  0  0  0
M  END
>  <MODEL>
3

>  <REMARK>
 VINA RESULT:      -7.3      2.882      7.116
  Name = 
  17 active torsions:
  status: ('A' for Active; 'I' for Inactive)
    1  A    between atoms: C_4  and  S_42
    2  A    between atoms: O_5  and  C_12
    3  A    between atoms: O_5  and  C_14
    4  A    between atoms: C_6  and  C_8
    5  A    between atoms: C_8  and  C_35
    6  A    between atoms: C_8  and  C_40
    7  A    between atoms: C_9  and  N_16
    8  A    between atoms: N_10  and  C_11
    9  A    between atoms: C_11  and  C_38
   10  A    between atoms: C_13  and  C_32
   11  A    between atoms: C_13  and  O_37
   12  A    between atoms: N_16  and  C_31
   13  A    between atoms: C_18  and  C_26
   14  A    between atoms: C_26  and  O_37
   15  A    between atoms: C_29  and  O_34
   16  A    between atoms: C_32  and  S_42
   17  A    between atoms: C_35  and  N_41
                            x       y       z     vdW  Elec       q    Type
                         _______ _______ _______ _____ _____    ______ ____

>  <TORSDO>
F 17

$$$$
=
 OpenBabel10222419283D

 42 44  0  0  1  0  0  0  0  0999 V2000
  184.7160  178.3200  142.5410 C   0  0  2  0  0  3  0  0  0  0  0  0
  183.2440  178.5450  142.3570 C   0  0  0  0  0  0  0  0  0  0  0  0
  181.2600  178.6050  140.9480 C   0  0  0  0  0  0  0  0  0  0  0  0
  180.4990  179.0090  142.0570 C   0  0  0  0  0  3  0  0  0  0  0  0
  182.6310  178.3770  141.1060 C   0  0  0  0  0  3  0  0  0  0  0  0
  181.1060  179.1820  143.3040 C   0  0  0  0  0  3  0  0  0  0  0  0
  182.4760  178.9520  143.4520 C   0  0  0  0  0  3  0  0  0  0  0  0
  180.6860  178.4250  139.6850 O   0  0  0  0  0  0  0  0  0  0  0  0
  180.7980  176.1910  138.4070 C   0  0  0  0  0  0  0  0  0  0  0  0
  180.7460  177.2370  139.0050 C   0  0  0  0  0  0  0  0  0  0  0  0
  180.8720  174.6620  137.5340 S   0  0  0  0  0  0  0  0  0  0  0  0
  182.1520  175.2910  136.4130 C   0  0  0  0  0  2  0  0  0  0  0  0
  183.5070  175.0050  136.9730 C   0  0  0  0  0  0  0  0  0  0  0  0
  184.0180  173.8710  136.7820 O   0  0  0  0  0  0  0  0  0  0  0  0
  184.2310  175.9660  137.6930 O   0  0  0  0  0  0  0  0  0  0  0  0
  183.9150  178.2480  137.9930 O   0  0  0  0  0  1  0  0  0  0  0  0
  184.5460  177.2740  137.2140 C   0  0  1  0  0  3  0  0  0  0  0  0
  186.0290  177.4930  137.1480 C   0  0  0  0  0  0  0  0  0  0  0  0
  186.5370  178.7830  137.2160 O   0  0  0  0  0  1  0  0  0  0  0  0
  186.8200  176.5180  137.0460 O   0  0  0  0  0  0  0  0  0  0  0  0
  186.8300  178.4040  146.3110 C   0  0  2  0  0  3  0  0  0  0  0  0
  185.6480  179.3600  146.1610 C   0  0  0  0  0  2  0  0  0  0  0  0
  186.5230  177.1030  145.5740 C   0  0  0  0  0  2  0  0  0  0  0  0
  186.3000  177.3700  144.1560 N   0  0  0  0  0  2  0  0  0  0  0  0
  185.3170  179.5620  144.6860 C   0  0  0  0  0  2  0  0  0  0  0  0
  185.1000  178.1970  144.0180 C   0  0  1  0  0  3  0  0  0  0  0  0
  187.0650  178.1210  147.7160 N   0  0  0  0  0  2  0  0  0  0  0  0
  189.1730  177.1370  147.3160 C   0  0  0  0  0  0  0  0  0  0  0  0
  188.1710  177.3240  148.1260 C   0  0  0  0  0  3  0  0  0  0  0  0
  190.1760  176.9510  146.5040 C   0  0  0  0  0  3  0  0  0  0  0  0
  190.3040  177.7850  145.2770 C   0  0  0  0  0  2  0  0  0  0  0  0
  190.5700  176.3010  142.0550 C   0  0  0  0  0  2  0  0  0  0  0  0
  191.5380  177.4530  141.9560 C   0  0  0  0  0  2  0  0  0  0  0  0
  191.0720  177.0690  144.2730 N   0  0  0  0  0  0  0  0  0  0  0  0
  191.5770  178.0630  143.3390 C   0  0  0  0  0  2  0  0  0  0  0  0
  190.1360  176.2610  143.5040 C   0  0  0  0  0  2  0  0  0  0  0  0
  185.5720  179.3390  141.7850 C   0  0  0  0  0  2  0  0  0  0  0  0
  188.3770  178.8270  141.8010 O   0  0  0  0  0  0  0  0  0  0  0  0
  187.7240  178.4560  140.7860 C   0  0  0  0  0  0  0  0  0  0  0  0
  186.3160  178.6920  140.7120 N   0  0  0  0  0  2  0  0  0  0  0  0
  189.4270  178.4360  139.0130 C   0  0  0  0  0  1  0  0  0  0  0  0
  188.3640  177.8200  139.7240 O   0  0  0  0  0  0  0  0  0  0  0  0
  1 37  1  1  0  0  0
  2  1  1  0  0  0  0
  2  7  1  0  0  0  0
  3  5  1  0  0  0  0
  3  4  2  0  0  0  0
  4  6  1  0  0  0  0
  5  2  2  0  0  0  0
  6  7  2  0  0  0  0
  8  3  1  0  0  0  0
  9 10  3  0  0  0  0
 10  8  1  0  0  0  0
 11  9  1  0  0  0  0
 12 13  1  0  0  0  0
 12 11  1  0  0  0  0
 13 15  1  0  0  0  0
 14 13  2  0  0  0  0
 17 15  1  0  0  0  0
 17 16  1  1  0  0  0
 18 17  1  0  0  0  0
 18 19  1  0  0  0  0
 20 18  2  0  0  0  0
 21 27  1  1  0  0  0
 22 21  1  0  0  0  0
 23 21  1  0  0  0  0
 24 23  1  0  0  0  0
 25 22  1  0  0  0  0
 26  1  1  6  0  0  0
 26 24  1  0  0  0  0
 26 25  1  0  0  0  0
 27 29  1  0  0  0  0
 28 29  2  0  0  0  0
 30 28  2  0  0  0  0
 31 30  1  0  0  0  0
 32 36  1  0  0  0  0
 33 32  1  0  0  0  0
 33 35  1  0  0  0  0
 34 31  1  0  0  0  0
 35 34  1  0  0  0  0
 36 34  1  0  0  0  0
 39 38  2  0  0  0  0
 40 39  1  0  0  0  0
 40 37  1  0  0  0  0
 41 42  1  0  0  0  0
 42 39  1  0  0  0  0
M  END
>  <MODEL>
4

>  <REMARK>
 VINA RESULT:      -7.2      2.699      6.506
  Name = 
  17 active torsions:
  status: ('A' for Active; 'I' for Inactive)
    1  A    between atoms: C_4  and  S_42
    2  A    between atoms: O_5  and  C_12
    3  A    between atoms: O_5  and  C_14
    4  A    between atoms: C_6  and  C_8
    5  A    between atoms: C_8  and  C_35
    6  A    between atoms: C_8  and  C_40
    7  A    between atoms: C_9  and  N_16
    8  A    between atoms: N_10  and  C_11
    9  A    between atoms: C_11  and  C_38
   10  A    between atoms: C_13  and  C_32
   11  A    between atoms: C_13  and  O_37
   12  A    between atoms: N_16  and  C_31
   13  A    between atoms: C_18  and  C_26
   14  A    between atoms: C_26  and  O_37
   15  A    between atoms: C_29  and  O_34
   16  A    between atoms: C_32  and  S_42
   17  A    between atoms: C_35  and  N_41
                            x       y       z     vdW  Elec       q    Type
                         _______ _______ _______ _____ _____    ______ ____

>  <TORSDO>
F 17

$$$$
=
 OpenBabel10222419283D

 42 44  0  0  1  0  0  0  0  0999 V2000
  182.9320  178.9870  140.8270 C   0  0  2  0  0  3  0  0  0  0  0  0
  183.4310  178.1170  139.7100 C   0  0  0  0  0  0  0  0  0  0  0  0
  184.8920  177.7340  137.8020 C   0  0  0  0  0  0  0  0  0  0  0  0
  184.3050  176.4700  137.6210 C   0  0  0  0  0  3  0  0  0  0  0  0
  184.4490  178.5510  138.8470 C   0  0  0  0  0  3  0  0  0  0  0  0
  183.2880  176.0360  138.4760 C   0  0  0  0  0  3  0  0  0  0  0  0
  182.8520  176.8590  139.5170 C   0  0  0  0  0  3  0  0  0  0  0  0
  185.9090  178.2010  136.9630 O   0  0  0  0  0  0  0  0  0  0  0  0
  187.7050  176.6540  135.9540 C   0  0  0  0  0  0  0  0  0  0  0  0
  186.8640  177.3780  136.4260 C   0  0  0  0  0  0  0  0  0  0  0  0
  188.9360  175.5980  135.2640 S   0  0  0  0  0  0  0  0  0  0  0  0
  189.3770  174.9410  136.8980 C   0  0  0  0  0  2  0  0  0  0  0  0
  189.9490  176.0290  137.7470 C   0  0  0  0  0  0  0  0  0  0  0  0
  191.0120  176.5940  137.3800 O   0  0  0  0  0  0  0  0  0  0  0  0
  189.3310  176.4480  138.9330 O   0  0  0  0  0  0  0  0  0  0  0  0
  188.5550  178.5980  139.3550 O   0  0  0  0  0  1  0  0  0  0  0  0
  189.5900  177.6890  139.5920 C   0  0  1  0  0  3  0  0  0  0  0  0
  189.8310  177.4930  141.0600 C   0  0  0  0  0  0  0  0  0  0  0  0
  188.7700  177.1570  141.8910 O   0  0  0  0  0  1  0  0  0  0  0  0
  190.9860  177.6140  141.5450 O   0  0  0  0  0  0  0  0  0  0  0  0
  184.7220  178.8500  144.7600 C   0  0  2  0  0  3  0  0  0  0  0  0
  183.2180  178.5980  144.6770 C   0  0  0  0  0  2  0  0  0  0  0  0
  185.4020  178.2530  143.5300 C   0  0  0  0  0  2  0  0  0  0  0  0
  184.8780  178.8740  142.3160 N   0  0  0  0  0  2  0  0  0  0  0  0
  182.6650  179.1320  143.3590 C   0  0  0  0  0  2  0  0  0  0  0  0
  183.4600  178.5330  142.1900 C   0  0  1  0  0  3  0  0  0  0  0  0
  185.2640  178.2350  145.9590 N   0  0  0  0  0  2  0  0  0  0  0  0
  186.9140  178.5980  147.6080 C   0  0  0  0  0  0  0  0  0  0  0  0
  185.8560  179.0280  146.9820 C   0  0  0  0  0  3  0  0  0  0  0  0
  187.9730  178.1660  148.2330 C   0  0  0  0  0  3  0  0  0  0  0  0
  188.7250  176.9960  147.7020 C   0  0  0  0  0  2  0  0  0  0  0  0
  191.8340  176.3310  146.1060 C   0  0  0  0  0  2  0  0  0  0  0  0
  190.9680  176.7620  144.9490 C   0  0  0  0  0  2  0  0  0  0  0  0
  189.8990  177.4530  146.9780 N   0  0  0  0  0  0  0  0  0  0  0  0
  189.6550  177.1870  145.5690 C   0  0  0  0  0  2  0  0  0  0  0  0
  191.0040  176.5780  147.3470 C   0  0  0  0  0  2  0  0  0  0  0  0
  181.4120  179.1670  140.8050 C   0  0  0  0  0  2  0  0  0  0  0  0
  179.6470  181.4010  140.9640 O   0  0  0  0  0  0  0  0  0  0  0  0
  180.1250  181.1160  139.8310 C   0  0  0  0  0  0  0  0  0  0  0  0
  181.0090  180.0030  139.6820 N   0  0  0  0  0  2  0  0  0  0  0  0
  180.7820  182.5530  137.9460 C   0  0  0  0  0  1  0  0  0  0  0  0
  179.7940  181.8770  138.7100 O   0  0  0  0  0  0  0  0  0  0  0  0
  1 37  1  1  0  0  0
  2  1  1  0  0  0  0
  3  5  1  0  0  0  0
  4  3  2  0  0  0  0
  4  6  1  0  0  0  0
  5  2  2  0  0  0  0
  6  7  2  0  0  0  0
  7  2  1  0  0  0  0
  8  3  1  0  0  0  0
  9 10  3  0  0  0  0
 10  8  1  0  0  0  0
 11  9  1  0  0  0  0
 11 12  1  0  0  0  0
 12 13  1  0  0  0  0
 13 15  1  0  0  0  0
 14 13  2  0  0  0  0
 15 17  1  0  0  0  0
 17 16  1  1  0  0  0
 17 18  1  0  0  0  0
 18 20  2  0  0  0  0
 18 19  1  0  0  0  0
 21 27  1  1  0  0  0
 22 21  1  0  0  0  0
 23 21  1  0  0  0  0
 24 23  1  0  0  0  0
 25 22  1  0  0  0  0
 26  1  1  6  0  0  0
 26 24  1  0  0  0  0
 26 25  1  0  0  0  0
 27 29  1  0  0  0  0
 28 30  2  0  0  0  0
 29 28  2  0  0  0  0
 31 30  1  0  0  0  0
 32 36  1  0  0  0  0
 33 35  1  0  0  0  0
 33 32  1  0  0  0  0
 34 36  1  0  0  0  0
 34 31  1  0  0  0  0
 35 34  1  0  0  0  0
 39 38  2  0  0  0  0
 40 39  1  0  0  0  0
 40 37  1  0  0  0  0
 41 42  1  0  0  0  0
 42 39  1  0  0  0  0
M  END
>  <MODEL>
5

>  <REMARK>
 VINA RESULT:      -7.2      3.557      9.675
  Name = 
  17 active torsions:
  status: ('A' for Active; 'I' for Inactive)
    1  A    between atoms: C_4  and  S_42
    2  A    between atoms: O_5  and  C_12
    3  A    between atoms: O_5  and  C_14
    4  A    between atoms: C_6  and  C_8
    5  A    between atoms: C_8  and  C_35
    6  A    between atoms: C_8  and  C_40
    7  A    between atoms: C_9  and  N_16
    8  A    between atoms: N_10  and  C_11
    9  A    between atoms: C_11  and  C_38
   10  A    between atoms: C_13  and  C_32
   11  A    between atoms: C_13  and  O_37
   12  A    between atoms: N_16  and  C_31
   13  A    between atoms: C_18  and  C_26
   14  A    between atoms: C_26  and  O_37
   15  A    between atoms: C_29  and  O_34
   16  A    between atoms: C_32  and  S_42
   17  A    between atoms: C_35  and  N_41
                            x       y       z     vdW  Elec       q    Type
                         _______ _______ _______ _____ _____    ______ ____

>  <TORSDO>
F 17

$$$$
=
 OpenBabel10222419283D

 42 44  0  0  1  0  0  0  0  0999 V2000
  188.7090  177.8860  145.6890 C   0  0  2  0  0  3  0  0  0  0  0  0
  187.2290  178.1330  145.7030 C   0  0  0  0  0  0  0  0  0  0  0  0
  185.1400  178.6050  144.5490 C   0  0  0  0  0  0  0  0  0  0  0  0
  184.4730  178.6210  145.7850 C   0  0  0  0  0  3  0  0  0  0  0  0
  186.5170  178.3620  144.5160 C   0  0  0  0  0  3  0  0  0  0  0  0
  185.1800  178.3970  146.9700 C   0  0  0  0  0  3  0  0  0  0  0  0
  186.5550  178.1550  146.9280 C   0  0  0  0  0  3  0  0  0  0  0  0
  184.4650  178.8290  143.3440 O   0  0  0  0  0  0  0  0  0  0  0  0
  181.9090  179.1220  143.2110 C   0  0  0  0  0  0  0  0  0  0  0  0
  183.1050  178.9860  143.2740 C   0  0  0  0  0  0  0  0  0  0  0  0
  180.1600  179.3240  143.1160 S   0  0  0  0  0  0  0  0  0  0  0  0
  180.2050  179.4060  141.3030 C   0  0  0  0  0  2  0  0  0  0  0  0
  180.2150  178.0260  140.7310 C   0  0  0  0  0  0  0  0  0  0  0  0
  179.3530  177.1970  141.1230 O   0  0  0  0  0  0  0  0  0  0  0  0
  181.1470  177.6320  139.7600 O   0  0  0  0  0  0  0  0  0  0  0  0
  182.7100  175.9140  139.6760 O   0  0  0  0  0  1  0  0  0  0  0  0
  182.4950  177.2480  140.0350 C   0  0  1  0  0  3  0  0  0  0  0  0
  183.4760  178.1670  139.3680 C   0  0  0  0  0  0  0  0  0  0  0  0
  184.2150  177.7120  138.2840 O   0  0  0  0  0  0  0  0  0  0  0  0
  183.6250  179.3510  139.7700 O   0  0  0  0  0  1  0  0  0  0  0  0
  191.1190  177.0230  142.2050 C   0  0  2  0  0  3  0  0  0  0  0  0
  189.7190  176.4110  142.2450 C   0  0  0  0  0  2  0  0  0  0  0  0
  191.0850  178.4040  142.8550 C   0  0  0  0  0  2  0  0  0  0  0  0
  190.6490  178.2940  144.2440 N   0  0  0  0  0  2  0  0  0  0  0  0
  189.1920  176.3960  143.6760 C   0  0  0  0  0  2  0  0  0  0  0  0
  189.2680  177.8110  144.2660 C   0  0  1  0  0  3  0  0  0  0  0  0
  191.5680  177.1450  140.8290 N   0  0  0  0  0  2  0  0  0  0  0  0
  191.1510  176.6420  138.5600 C   0  0  0  0  0  0  0  0  0  0  0  0
  190.6780  176.9000  139.7460 C   0  0  0  0  0  3  0  0  0  0  0  0
  191.6260  176.3850  137.3740 C   0  0  0  0  0  3  0  0  0  0  0  0
  193.0710  176.0700  137.2040 C   0  0  0  0  0  2  0  0  0  0  0  0
  194.3820  172.7620  137.2090 C   0  0  0  0  0  2  0  0  0  0  0  0
  195.3700  173.4980  138.0790 C   0  0  0  0  0  2  0  0  0  0  0  0
  193.3930  174.8370  137.9030 N   0  0  0  0  0  0  0  0  0  0  0  0
  194.8090  174.8940  138.2310 C   0  0  0  0  0  2  0  0  0  0  0  0
  193.2660  173.7490  136.9430 C   0  0  0  0  0  2  0  0  0  0  0  0
  189.1200  176.6910  146.5550 C   0  0  0  0  0  2  0  0  0  0  0  0
  191.8630  175.9130  146.5610 O   0  0  0  0  0  0  0  0  0  0  0  0
  191.4720  176.6720  147.4900 C   0  0  0  0  0  0  0  0  0  0  0  0
  190.1070  177.0910  147.5490 N   0  0  0  0  0  2  0  0  0  0  0  0
  193.2840  176.2230  149.0910 C   0  0  0  0  0  1  0  0  0  0  0  0
  192.3600  177.1070  148.4730 O   0  0  0  0  0  0  0  0  0  0  0  0
  1  2  1  0  0  0  0
  1 37  1  6  0  0  0
  2  7  1  0  0  0  0
  3  4  2  0  0  0  0
  4  6  1  0  0  0  0
  5  3  1  0  0  0  0
  5  2  2  0  0  0  0
  7  6  2  0  0  0  0
  8  3  1  0  0  0  0
  9 10  3  0  0  0  0
 10  8  1  0  0  0  0
 11  9  1  0  0  0  0
 12 11  1  0  0  0  0
 13 14  2  0  0  0  0
 13 12  1  0  0  0  0
 15 17  1  0  0  0  0
 15 13  1  0  0  0  0
 17 16  1  6  0  0  0
 18 20  1  0  0  0  0
 18 17  1  0  0  0  0
 19 18  2  0  0  0  0
 21 27  1  6  0  0  0
 21 22  1  0  0  0  0
 21 23  1  0  0  0  0
 22 25  1  0  0  0  0
 23 24  1  0  0  0  0
 24 26  1  0  0  0  0
 25 26  1  0  0  0  0
 26  1  1  1  0  0  0
 28 29  2  0  0  0  0
 29 27  1  0  0  0  0
 30 28  2  0  0  0  0
 31 30  1  0  0  0  0
 31 34  1  0  0  0  0
 32 33  1  0  0  0  0
 33 35  1  0  0  0  0
 34 35  1  0  0  0  0
 36 32  1  0  0  0  0
 36 34  1  0  0  0  0
 37 40  1  0  0  0  0
 38 39  2  0  0  0  0
 39 40  1  0  0  0  0
 39 42  1  0  0  0  0
 42 41  1  0  0  0  0
M  END
>  <MODEL>
6

>  <REMARK>
 VINA RESULT:      -7.1      1.951      3.272
  Name = 
  17 active torsions:
  status: ('A' for Active; 'I' for Inactive)
    1  A    between atoms: C_4  and  S_42
    2  A    between atoms: O_5  and  C_12
    3  A    between atoms: O_5  and  C_14
    4  A    between atoms: C_6  and  C_8
    5  A    between atoms: C_8  and  C_35
    6  A    between atoms: C_8  and  C_40
    7  A    between atoms: C_9  and  N_16
    8  A    between atoms: N_10  and  C_11
    9  A    between atoms: C_11  and  C_38
   10  A    between atoms: C_13  and  C_32
   11  A    between atoms: C_13  and  O_37
   12  A    between atoms: N_16  and  C_31
   13  A    between atoms: C_18  and  C_26
   14  A    between atoms: C_26  and  O_37
   15  A    between atoms: C_29  and  O_34
   16  A    between atoms: C_32  and  S_42
   17  A    between atoms: C_35  and  N_41
                            x       y       z     vdW  Elec       q    Type
                         _______ _______ _______ _____ _____    ______ ____

>  <TORSDO>
F 17

$$$$
=
 OpenBabel10222419283D

 42 44  0  0  1  0  0  0  0  0999 V2000
  190.2030  176.9360  141.1690 C   0  0  2  0  0  3  0  0  0  0  0  0
  190.5010  176.6790  139.7200 C   0  0  0  0  0  0  0  0  0  0  0  0
  189.7810  176.0830  137.4730 C   0  0  0  0  0  0  0  0  0  0  0  0
  191.1130  176.1790  137.0340 C   0  0  0  0  0  3  0  0  0  0  0  0
  189.4840  176.3330  138.8170 C   0  0  0  0  0  3  0  0  0  0  0  0
  192.1290  176.5190  137.9320 C   0  0  0  0  0  3  0  0  0  0  0  0
  191.8220  176.7670  139.2720 C   0  0  0  0  0  3  0  0  0  0  0  0
  188.7410  175.7410  136.6030 O   0  0  0  0  0  0  0  0  0  0  0  0
  186.3210  176.5600  136.9370 C   0  0  0  0  0  0  0  0  0  0  0  0
  187.4530  176.1770  136.7800 C   0  0  0  0  0  0  0  0  0  0  0  0
  184.6640  177.1160  137.1670 S   0  0  0  0  0  0  0  0  0  0  0  0
  185.1620  178.2430  138.5000 C   0  0  0  0  0  2  0  0  0  0  0  0
  184.0000  179.0840  138.9170 C   0  0  0  0  0  0  0  0  0  0  0  0
  184.1760  180.3150  139.1080 O   0  0  0  0  0  0  0  0  0  0  0  0
  182.7170  178.5450  139.0880 O   0  0  0  0  0  0  0  0  0  0  0  0
  182.1260  178.6460  141.3330 O   0  0  0  0  0  1  0  0  0  0  0  0
  182.2920  177.8010  140.2320 C   0  0  1  0  0  3  0  0  0  0  0  0
  181.0490  177.0130  139.9450 C   0  0  0  0  0  0  0  0  0  0  0  0
  179.8430  177.6760  139.7570 O   0  0  0  0  0  0  0  0  0  0  0  0
  181.0880  175.7570  139.8560 O   0  0  0  0  0  1  0  0  0  0  0  0
  186.5150  178.6000  142.6920 C   0  0  2  0  0  3  0  0  0  0  0  0
  186.9370  179.0280  141.2880 C   0  0  0  0  0  2  0  0  0  0  0  0
  186.9080  177.1420  142.9150 C   0  0  0  0  0  2  0  0  0  0  0  0
  188.3540  176.9860  142.7800 N   0  0  0  0  0  2  0  0  0  0  0  0
  188.4240  178.7620  141.0800 C   0  0  0  0  0  2  0  0  0  0  0  0
  188.7320  177.2930  141.4000 C   0  0  1  0  0  3  0  0  0  0  0  0
  185.0780  178.7430  142.8440 N   0  0  0  0  0  2  0  0  0  0  0  0
  184.8000  178.9130  145.1830 C   0  0  0  0  0  0  0  0  0  0  0  0
  184.5240  179.3720  143.9960 C   0  0  0  0  0  3  0  0  0  0  0  0
  185.0760  178.4540  146.3710 C   0  0  0  0  0  3  0  0  0  0  0  0
  186.1760  177.4650  146.5480 C   0  0  0  0  0  2  0  0  0  0  0  0
  188.8170  178.2250  148.8070 C   0  0  0  0  0  2  0  0  0  0  0  0
  189.5340  177.4540  147.7270 C   0  0  0  0  0  2  0  0  0  0  0  0
  187.4150  178.1570  146.8600 N   0  0  0  0  0  0  0  0  0  0  0  0
  188.4940  177.2020  146.6580 C   0  0  0  0  0  2  0  0  0  0  0  0
  187.4100  178.4330  148.2900 C   0  0  0  0  0  2  0  0  0  0  0  0
  191.1670  177.9410  141.8040 C   0  0  0  0  0  2  0  0  0  0  0  0
  190.6280  178.9340  144.4220 O   0  0  0  0  0  0  0  0  0  0  0  0
  191.4090  177.9470  144.3230 C   0  0  0  0  0  0  0  0  0  0  0  0
  191.7260  177.4070  143.0390 N   0  0  0  0  0  2  0  0  0  0  0  0
  191.9470  175.9730  145.6870 C   0  0  0  0  0  1  0  0  0  0  0  0
  191.9750  177.3740  145.4610 O   0  0  0  0  0  0  0  0  0  0  0  0
  1 37  1  6  0  0  0
  2  1  1  0  0  0  0
  3  5  1  0  0  0  0
  4  3  2  0  0  0  0
  4  6  1  0  0  0  0
  5  2  2  0  0  0  0
  6  7  2  0  0  0  0
  7  2  1  0  0  0  0
  8 10  1  0  0  0  0
  8  3  1  0  0  0  0
  9 11  1  0  0  0  0
 10  9  3  0  0  0  0
 11 12  1  0  0  0  0
 12 13  1  0  0  0  0
 13 15  1  0  0  0  0
 13 14  2  0  0  0  0
 15 17  1  0  0  0  0
 17 16  1  1  0  0  0
 18 17  1  0  0  0  0
 19 18  2  0  0  0  0
 20 18  1  0  0  0  0
 21 27  1  6  0  0  0
 21 23  1  0  0  0  0
 22 21  1  0  0  0  0
 24 23  1  0  0  0  0
 25 22  1  0  0  0  0
 25 26  1  0  0  0  0
 26  1  1  1  0  0  0
 26 24  1  0  0  0  0
 27 29  1  0  0  0  0
 28 30  2  0  0  0  0
 29 28  2  0  0  0  0
 30 31  1  0  0  0  0
 31 34  1  0  0  0  0
 33 32  1  0  0  0  0
 34 36  1  0  0  0  0
 35 34  1  0  0  0  0
 35 33  1  0  0  0  0
 36 32  1  0  0  0  0
 37 40  1  0  0  0  0
 39 38  2  0  0  0  0
 39 42  1  0  0  0  0
 40 39  1  0  0  0  0
 42 41  1  0  0  0  0
M  END
>  <MODEL>
7

>  <REMARK>
 VINA RESULT:      -7.0      2.532      7.101
  Name = 
  17 active torsions:
  status: ('A' for Active; 'I' for Inactive)
    1  A    between atoms: C_4  and  S_42
    2  A    between atoms: O_5  and  C_12
    3  A    between atoms: O_5  and  C_14
    4  A    between atoms: C_6  and  C_8
    5  A    between atoms: C_8  and  C_35
    6  A    between atoms: C_8  and  C_40
    7  A    between atoms: C_9  and  N_16
    8  A    between atoms: N_10  and  C_11
    9  A    between atoms: C_11  and  C_38
   10  A    between atoms: C_13  and  C_32
   11  A    between atoms: C_13  and  O_37
   12  A    between atoms: N_16  and  C_31
   13  A    between atoms: C_18  and  C_26
   14  A    between atoms: C_26  and  O_37
   15  A    between atoms: C_29  and  O_34
   16  A    between atoms: C_32  and  S_42
   17  A    between atoms: C_35  and  N_41
                            x       y       z     vdW  Elec       q    Type
                         _______ _______ _______ _____ _____    ______ ____

>  <TORSDO>
F 17

$$$$
=
 OpenBabel10222419283D

 42 44  0  0  1  0  0  0  0  0999 V2000
  182.8790  178.5370  139.8240 C   0  0  2  0  0  3  0  0  0  0  0  0
  183.1370  177.4530  138.8180 C   0  0  0  0  0  0  0  0  0  0  0  0
  184.1450  176.6670  136.7470 C   0  0  0  0  0  0  0  0  0  0  0  0
  183.5620  175.4060  136.9560 C   0  0  0  0  0  3  0  0  0  0  0  0
  183.9260  177.6850  137.6810 C   0  0  0  0  0  3  0  0  0  0  0  0
  182.7720  175.1720  138.0840 C   0  0  0  0  0  3  0  0  0  0  0  0
  182.5590  176.1940  139.0120 C   0  0  0  0  0  3  0  0  0  0  0  0
  184.9380  176.9380  135.6270 O   0  0  0  0  0  0  0  0  0  0  0  0
  187.4710  177.3810  135.7880 C   0  0  0  0  0  0  0  0  0  0  0  0
  186.2860  177.1730  135.7120 C   0  0  0  0  0  0  0  0  0  0  0  0
  189.2030  177.6880  135.8970 S   0  0  0  0  0  0  0  0  0  0  0  0
  188.9650  178.9190  137.2100 C   0  0  0  0  0  2  0  0  0  0  0  0
  188.5240  178.2440  138.4670 C   0  0  0  0  0  0  0  0  0  0  0  0
  187.4560  178.6190  139.0180 O   0  0  0  0  0  0  0  0  0  0  0  0
  189.2550  177.1960  139.0440 O   0  0  0  0  0  0  0  0  0  0  0  0
  190.6580  177.1480  140.8960 O   0  0  0  0  0  1  0  0  0  0  0  0
  190.6020  177.3020  139.5070 C   0  0  1  0  0  3  0  0  0  0  0  0
  191.5040  176.3320  138.8050 C   0  0  0  0  0  0  0  0  0  0  0  0
  192.8500  176.6350  138.6470 O   0  0  0  0  0  1  0  0  0  0  0  0
  191.0590  175.2370  138.3690 O   0  0  0  0  0  0  0  0  0  0  0  0
  185.1720  179.3050  143.4080 C   0  0  2  0  0  3  0  0  0  0  0  0
  183.9330  178.4220  143.5560 C   0  0  0  0  0  2  0  0  0  0  0  0
  185.8310  179.0270  142.0590 C   0  0  0  0  0  2  0  0  0  0  0  0
  184.8980  179.3230  140.9750 N   0  0  0  0  0  2  0  0  0  0  0  0
  182.9960  178.6250  142.3700 C   0  0  0  0  0  2  0  0  0  0  0  0
  183.7670  178.3970  141.0630 C   0  0  1  0  0  3  0  0  0  0  0  0
  186.1150  179.0210  144.4750 N   0  0  0  0  0  2  0  0  0  0  0  0
  186.5460  178.0610  146.5890 C   0  0  0  0  0  0  0  0  0  0  0  0
  185.6740  178.4680  145.7110 C   0  0  0  0  0  3  0  0  0  0  0  0
  187.4190  177.6550  147.4670 C   0  0  0  0  0  3  0  0  0  0  0  0
  188.8540  178.0180  147.3120 C   0  0  0  0  0  2  0  0  0  0  0  0
  191.0940  177.7740  144.5590 C   0  0  0  0  0  2  0  0  0  0  0  0
  191.6890  176.7960  145.5400 C   0  0  0  0  0  2  0  0  0  0  0  0
  189.4400  177.2590  146.2200 N   0  0  0  0  0  0  0  0  0  0  0  0
  190.7150  176.7480  146.6970 C   0  0  0  0  0  2  0  0  0  0  0  0
  189.7760  178.2050  145.1650 C   0  0  0  0  0  2  0  0  0  0  0  0
  181.3950  178.6860  140.1670 C   0  0  0  0  0  2  0  0  0  0  0  0
  179.9250  180.7610  141.4590 O   0  0  0  0  0  0  0  0  0  0  0  0
  180.1070  180.8660  140.2140 C   0  0  0  0  0  0  0  0  0  0  0  0
  180.8290  179.8550  139.5060 N   0  0  0  0  0  2  0  0  0  0  0  0
  180.1800  182.3940  138.2890 C   0  0  0  0  0  1  0  0  0  0  0  0
  179.6060  181.9610  139.5130 O   0  0  0  0  0  0  0  0  0  0  0  0
  1 37  1  1  0  0  0
  2  7  1  0  0  0  0
  2  1  1  0  0  0  0
  3  4  2  0  0  0  0
  3  5  1  0  0  0  0
  4  6  1  0  0  0  0
  5  2  2  0  0  0  0
  6  7  2  0  0  0  0
  8 10  1  0  0  0  0
  8  3  1  0  0  0  0
  9 11  1  0  0  0  0
 10  9  3  0  0  0  0
 11 12  1  0  0  0  0
 12 13  1  0  0  0  0
 13 14  2  0  0  0  0
 13 15  1  0  0  0  0
 15 17  1  0  0  0  0
 17 16  1  1  0  0  0
 18 17  1  0  0  0  0
 19 18  1  0  0  0  0
 20 18  2  0  0  0  0
 21 22  1  0  0  0  0
 21 27  1  1  0  0  0
 23 21  1  0  0  0  0
 24 26  1  0  0  0  0
 24 23  1  0  0  0  0
 25 22  1  0  0  0  0
 26  1  1  6  0  0  0
 26 25  1  0  0  0  0
 27 29  1  0  0  0  0
 28 30  2  0  0  0  0
 29 28  2  0  0  0  0
 31 30  1  0  0  0  0
 32 36  1  0  0  0  0
 32 33  1  0  0  0  0
 33 35  1  0  0  0  0
 34 35  1  0  0  0  0
 34 31  1  0  0  0  0
 36 34  1  0  0  0  0
 39 38  2  0  0  0  0
 40 37  1  0  0  0  0
 40 39  1  0  0  0  0
 41 42  1  0  0  0  0
 42 39  1  0  0  0  0
M  END
>  <MODEL>
8

>  <REMARK>
 VINA RESULT:      -7.0      3.652      9.617
  Name = 
  17 active torsions:
  status: ('A' for Active; 'I' for Inactive)
    1  A    between atoms: C_4  and  S_42
    2  A    between atoms: O_5  and  C_12
    3  A    between atoms: O_5  and  C_14
    4  A    between atoms: C_6  and  C_8
    5  A    between atoms: C_8  and  C_35
    6  A    between atoms: C_8  and  C_40
    7  A    between atoms: C_9  and  N_16
    8  A    between atoms: N_10  and  C_11
    9  A    between atoms: C_11  and  C_38
   10  A    between atoms: C_13  and  C_32
   11  A    between atoms: C_13  and  O_37
   12  A    between atoms: N_16  and  C_31
   13  A    between atoms: C_18  and  C_26
   14  A    between atoms: C_26  and  O_37
   15  A    between atoms: C_29  and  O_34
   16  A    between atoms: C_32  and  S_42
   17  A    between atoms: C_35  and  N_41
                            x       y       z     vdW  Elec       q    Type
                         _______ _______ _______ _____ _____    ______ ____

>  <TORSDO>
F 17

$$$$
=
 OpenBabel10222419283D

 42 44  0  0  1  0  0  0  0  0999 V2000
  187.8770  178.2960  140.7800 C   0  0  2  0  0  3  0  0  0  0  0  0
  186.4070  178.4790  141.0210 C   0  0  0  0  0  0  0  0  0  0  0  0
  184.4950  178.5930  142.5220 C   0  0  0  0  0  0  0  0  0  0  0  0
  183.6530  178.7940  141.4150 C   0  0  0  0  0  3  0  0  0  0  0  0
  185.8690  178.4350  142.3160 C   0  0  0  0  0  3  0  0  0  0  0  0
  184.1840  178.8350  140.1230 C   0  0  0  0  0  3  0  0  0  0  0  0
  185.5580  178.6770  139.9270 C   0  0  0  0  0  3  0  0  0  0  0  0
  183.9970  178.5430  143.8280 O   0  0  0  0  0  0  0  0  0  0  0  0
  185.4980  178.8070  145.9050 C   0  0  0  0  0  0  0  0  0  0  0  0
  184.7960  178.6830  144.9320 C   0  0  0  0  0  0  0  0  0  0  0  0
  186.5250  178.9910  147.3260 S   0  0  0  0  0  0  0  0  0  0  0  0
  187.4160  177.4520  146.9590 C   0  0  0  0  0  2  0  0  0  0  0  0
  188.6700  177.3850  147.7660 C   0  0  0  0  0  0  0  0  0  0  0  0
  188.7600  178.0800  148.8120 O   0  0  0  0  0  0  0  0  0  0  0  0
  189.7440  176.5600  147.4030 O   0  0  0  0  0  0  0  0  0  0  0  0
  191.6940  177.3190  148.4120 O   0  0  0  0  0  1  0  0  0  0  0  0
  191.0830  177.0120  147.1930 C   0  0  1  0  0  3  0  0  0  0  0  0
  191.8830  176.0170  146.4070 C   0  0  0  0  0  0  0  0  0  0  0  0
  191.6110  175.8280  145.0580 O   0  0  0  0  0  0  0  0  0  0  0  0
  192.8090  175.3600  146.9520 O   0  0  0  0  0  1  0  0  0  0  0  0
  189.8590  177.4780  137.0250 C   0  0  2  0  0  3  0  0  0  0  0  0
  189.1220  176.3130  137.6850 C   0  0  0  0  0  2  0  0  0  0  0  0
  189.0880  178.7710  137.2790 C   0  0  0  0  0  2  0  0  0  0  0  0
  188.9850  179.0200  138.7140 N   0  0  0  0  0  2  0  0  0  0  0  0
  188.8950  176.6040  139.1650 C   0  0  0  0  0  2  0  0  0  0  0  0
  188.1830  177.9550  139.3180 C   0  0  1  0  0  3  0  0  0  0  0  0
  189.9670  177.2510  135.5950 N   0  0  0  0  0  2  0  0  0  0  0  0
  191.7500  175.7510  135.2120 C   0  0  0  0  0  0  0  0  0  0  0  0
  190.4820  176.0250  135.0870 C   0  0  0  0  0  3  0  0  0  0  0  0
  193.0180  175.4780  135.3370 C   0  0  0  0  0  3  0  0  0  0  0  0
  193.8690  176.2970  136.2430 C   0  0  0  0  0  2  0  0  0  0  0  0
  195.0490  173.3940  137.9290 C   0  0  0  0  0  2  0  0  0  0  0  0
  195.5710  173.1840  136.5290 C   0  0  0  0  0  2  0  0  0  0  0  0
  194.9610  175.4890  136.7580 N   0  0  0  0  0  0  0  0  0  0  0  0
  195.2160  174.4470  135.7760 C   0  0  0  0  0  2  0  0  0  0  0  0
  194.4660  174.7910  137.9370 C   0  0  0  0  0  2  0  0  0  0  0  0
  188.5230  177.3220  141.7680 C   0  0  0  0  0  2  0  0  0  0  0  0
  191.3590  177.1330  141.5310 O   0  0  0  0  0  0  0  0  0  0  0  0
  190.8990  177.8810  142.4380 C   0  0  0  0  0  0  0  0  0  0  0  0
  189.4870  178.0120  142.6140 N   0  0  0  0  0  2  0  0  0  0  0  0
  191.2770  179.5320  144.2210 C   0  0  0  0  0  1  0  0  0  0  0  0
  191.7590  178.5840  143.2810 O   0  0  0  0  0  0  0  0  0  0  0  0
  1  2  1  0  0  0  0
  1 37  1  1  0  0  0
  2  5  1  0  0  0  0
  3  8  1  0  0  0  0
  4  3  1  0  0  0  0
  5  3  2  0  0  0  0
  6  4  2  0  0  0  0
  7  6  1  0  0  0  0
  7  2  2  0  0  0  0
  8 10  1  0  0  0  0
  9 11  1  0  0  0  0
 10  9  3  0  0  0  0
 12 11  1  0  0  0  0
 12 13  1  0  0  0  0
 13 14  2  0  0  0  0
 15 13  1  0  0  0  0
 17 15  1  0  0  0  0
 17 16  1  1  0  0  0
 18 20  1  0  0  0  0
 18 17  1  0  0  0  0
 19 18  2  0  0  0  0
 21 27  1  6  0  0  0
 21 23  1  0  0  0  0
 21 22  1  0  0  0  0
 22 25  1  0  0  0  0
 23 24  1  0  0  0  0
 24 26  1  0  0  0  0
 25 26  1  0  0  0  0
 26  1  1  1  0  0  0
 28 30  2  0  0  0  0
 29 28  2  0  0  0  0
 29 27  1  0  0  0  0
 30 31  1  0  0  0  0
 31 34  1  0  0  0  0
 32 36  1  0  0  0  0
 33 32  1  0  0  0  0
 34 36  1  0  0  0  0
 35 33  1  0  0  0  0
 35 34  1  0  0  0  0
 37 40  1  0  0  0  0
 38 39  2  0  0  0  0
 39 40  1  0  0  0  0
 39 42  1  0  0  0  0
 42 41  1  0  0  0  0
M  END
>  <MODEL>
9

>  <REMARK>
 VINA RESULT:      -6.9      3.166      7.568
  Name = 
  17 active torsions:
  status: ('A' for Active; 'I' for Inactive)
    1  A    between atoms: C_4  and  S_42
    2  A    between atoms: O_5  and  C_12
    3  A    between atoms: O_5  and  C_14
    4  A    between atoms: C_6  and  C_8
    5  A    between atoms: C_8  and  C_35
    6  A    between atoms: C_8  and  C_40
    7  A    between atoms: C_9  and  N_16
    8  A    between atoms: N_10  and  C_11
    9  A    between atoms: C_11  and  C_38
   10  A    between atoms: C_13  and  C_32
   11  A    between atoms: C_13  and  O_37
   12  A    between atoms: N_16  and  C_31
   13  A    between atoms: C_18  and  C_26
   14  A    between atoms: C_26  and  O_37
   15  A    between atoms: C_29  and  O_34
   16  A    between atoms: C_32  and  S_42
   17  A    between atoms: C_35  and  N_41
                            x       y       z     vdW  Elec       q    Type
                         _______ _______ _______ _____ _____    ______ ____

>  <TORSDO>
F 17

$$$$
