=
 OpenBabel10222416393D

 30 35  0  0  1  0  0  0  0  0999 V2000
  192.3120  175.4850  146.9310 N   0  0  0  0  0  0  0  0  0  0  0  0
  191.0490  177.1350  148.0860 O   0  0  0  0  0  0  0  0  0  0  0  0
  191.2500  175.8620  143.5050 C   0  0  0  0  0  3  0  0  0  0  0  0
  187.6050  177.9220  144.8190 C   0  0  0  0  0  0  0  0  0  0  0  0
  187.5190  178.0990  142.4210 N   0  0  0  0  0  0  0  0  0  0  0  0
  184.2010  178.3090  143.5590 N   0  0  0  0  0  0  0  0  0  0  0  0
  188.2290  177.9390  143.5770 C   0  0  0  0  0  0  0  0  0  0  0  0
  188.6360  177.7700  145.8110 C   0  0  0  0  0  0  0  0  0  0  0  0
  188.4460  177.6610  147.0520 O   0  0  0  0  0  0  0  0  0  0  0  0
  189.7230  177.8380  143.7150 C   0  0  1  0  0  3  0  0  0  0  0  0
  186.1670  178.2080  142.5390 C   0  0  0  0  0  0  0  0  0  0  0  0
  189.9140  177.6980  145.1780 N   0  0  0  0  0  0  0  0  0  0  0  0
  190.3200  176.6590  142.9460 C   0  0  0  0  0  0  0  0  0  0  0  0
  184.1070  178.4160  142.2060 C   0  0  0  0  0  0  0  0  0  0  0  0
  191.4090  176.5810  147.0150 C   0  0  0  0  0  0  0  0  0  0  0  0
  191.6290  176.0510  144.9110 C   0  0  0  0  0  0  0  0  0  0  0  0
  182.8050  178.5840  141.5080 C   0  0  0  0  0  1  0  0  0  0  0  0
  192.4340  175.1720  145.7000 N   0  0  0  0  0  0  0  0  0  0  0  0
  186.2130  178.0350  144.9530 C   0  0  0  0  0  3  0  0  0  0  0  0
  185.2910  178.3600  141.5380 N   0  0  0  0  0  2  0  0  0  0  0  0
  185.5220  178.1770  143.7460 C   0  0  0  0  0  0  0  0  0  0  0  0
  191.0140  176.9290  145.6700 C   0  0  0  0  0  0  0  0  0  0  0  0
  190.0080  176.4850  141.4970 C   0  0  0  0  0  2  0  0  0  0  0  0
  191.1880  176.7030  139.4850 C   0  0  0  0  0  2  0  0  0  0  0  0
  190.7890  177.4290  140.7010 N   0  0  0  0  0  0  0  0  0  0  0  0
  190.1850  177.7570  139.3790 C   0  0  2  0  0  3  0  0  0  0  0  0
  188.9150  176.0440  138.3190 F   0  0  0  0  0  0  0  0  0  0  0  0
  188.7980  177.1610  139.1260 C   0  0  2  0  0  3  0  0  0  0  0  0
  188.7020  179.2590  138.0010 O   0  0  0  0  0  1  0  0  0  0  0  0
  187.9210  178.1910  138.4420 C   0  0  0  0  0  2  0  0  0  0  0  0
  1 15  1  0  0  0  0
  3 16  1  0  0  0  0
  4 19  1  0  0  0  0
  4  8  1  0  0  0  0
  5 11  2  0  0  0  0
  5  7  1  0  0  0  0
  6 21  1  0  0  0  0
  7 10  1  0  0  0  0
  7  4  2  0  0  0  0
  8  9  2  0  0  0  0
 10 13  1  6  0  0  0
 10 12  1  0  0  0  0
 11 21  1  0  0  0  0
 12 22  1  0  0  0  0
 12  8  1  0  0  0  0
 13  3  2  0  0  0  0
 14  6  2  0  0  0  0
 15  2  2  0  0  0  0
 16 22  2  0  0  0  0
 16 18  1  0  0  0  0
 17 14  1  0  0  0  0
 18  1  2  0  0  0  0
 20 14  1  0  0  0  0
 20 11  1  0  0  0  0
 21 19  2  0  0  0  0
 22 15  1  0  0  0  0
 23 13  1  0  0  0  0
 24 25  1  0  0  0  0
 25 23  1  0  0  0  0
 26 28  1  1  0  0  0
 26 24  1  0  0  0  0
 26 25  1  0  0  0  0
 28 27  1  6  0  0  0
 29 30  1  0  0  0  0
 30 28  1  0  0  0  0
M  END
>  <MODEL>
1

>  <REMARK>
 VINA RESULT:      -9.2      0.000      0.000
  Name = 
  4 active torsions:
  status: ('A' for Active; 'I' for Inactive)
    1  A    between atoms: N_10  and  C_23
    2  A    between atoms: C_11  and  C_20
    3  A    between atoms: C_18  and  C_23
    4  A    between atoms: C_20  and  C_26
                            x       y       z     vdW  Elec       q    Type
                         _______ _______ _______ _____ _____    ______ ____

>  <TORSDO>
F 4

$$$$
=
 OpenBabel10222416393D

 30 35  0  0  1  0  0  0  0  0999 V2000
  189.2950  178.1570  148.6310 N   0  0  0  0  0  0  0  0  0  0  0  0
  191.1280  176.8960  147.7930 O   0  0  0  0  0  0  0  0  0  0  0  0
  186.9420  178.1340  145.8990 C   0  0  0  0  0  3  0  0  0  0  0  0
  190.1550  177.1250  143.0860 C   0  0  0  0  0  0  0  0  0  0  0  0
  188.1680  177.0140  141.7350 N   0  0  0  0  0  0  0  0  0  0  0  0
  190.8300  177.6980  139.5450 N   0  0  0  0  0  0  0  0  0  0  0  0
  188.7820  176.9570  142.9530 C   0  0  0  0  0  0  0  0  0  0  0  0
  190.4690  176.9760  144.4830 C   0  0  0  0  0  0  0  0  0  0  0  0
  191.6130  177.1140  144.9930 O   0  0  0  0  0  0  0  0  0  0  0  0
  188.1400  176.6460  144.2770 C   0  0  1  0  0  3  0  0  0  0  0  0
  188.9600  177.2750  140.6580 C   0  0  0  0  0  0  0  0  0  0  0  0
  189.2780  176.7060  145.2230 N   0  0  0  0  0  0  0  0  0  0  0  0
  187.0310  177.6290  144.6540 C   0  0  0  0  0  0  0  0  0  0  0  0
  189.7330  177.6400  138.7430 C   0  0  0  0  0  0  0  0  0  0  0  0
  189.9600  177.3470  147.6690 C   0  0  0  0  0  0  0  0  0  0  0  0
  187.9810  177.8280  146.8900 C   0  0  0  0  0  0  0  0  0  0  0  0
  189.8080  177.8440  137.2720 C   0  0  0  0  0  1  0  0  0  0  0  0
  188.1400  178.4430  148.1710 N   0  0  0  0  0  0  0  0  0  0  0  0
  190.9820  177.3930  141.9850 C   0  0  0  0  0  3  0  0  0  0  0  0
  188.5610  177.3820  139.3840 N   0  0  0  0  0  2  0  0  0  0  0  0
  190.3120  177.4620  140.7590 C   0  0  0  0  0  0  0  0  0  0  0  0
  189.0500  177.1390  146.5660 C   0  0  0  0  0  0  0  0  0  0  0  0
  185.9240  177.9030  143.6910 C   0  0  0  0  0  2  0  0  0  0  0  0
  184.6260  179.8360  143.9430 C   0  0  0  0  0  2  0  0  0  0  0  0
  184.7680  178.4450  144.4000 N   0  0  0  0  0  0  0  0  0  0  0  0
  183.6420  178.8500  143.5120 C   0  0  2  0  0  3  0  0  0  0  0  0
  184.6450  179.4610  141.4400 F   0  0  0  0  0  0  0  0  0  0  0  0
  183.8250  178.5150  142.0290 C   0  0  2  0  0  3  0  0  0  0  0  0
  181.4880  178.9320  142.2320 O   0  0  0  0  0  1  0  0  0  0  0  0
  182.4750  178.5150  141.3390 C   0  0  0  0  0  2  0  0  0  0  0  0
  3 16  1  0  0  0  0
  4  8  1  0  0  0  0
  5  7  1  0  0  0  0
  6 21  1  0  0  0  0
  7  4  2  0  0  0  0
  8  9  2  0  0  0  0
  8 12  1  0  0  0  0
 10  7  1  6  0  0  0
 10 13  1  0  0  0  0
 10 12  1  0  0  0  0
 11 21  1  0  0  0  0
 11  5  2  0  0  0  0
 12 22  1  0  0  0  0
 13  3  2  0  0  0  0
 14 20  1  0  0  0  0
 14  6  2  0  0  0  0
 15  2  2  0  0  0  0
 15  1  1  0  0  0  0
 16 18  1  0  0  0  0
 17 14  1  0  0  0  0
 18  1  2  0  0  0  0
 19  4  1  0  0  0  0
 20 11  1  0  0  0  0
 21 19  2  0  0  0  0
 22 16  2  0  0  0  0
 22 15  1  0  0  0  0
 23 25  1  0  0  0  0
 23 13  1  0  0  0  0
 24 25  1  0  0  0  0
 26 28  1  6  0  0  0
 26 24  1  0  0  0  0
 26 25  1  0  0  0  0
 28 27  1  6  0  0  0
 30 28  1  0  0  0  0
 30 29  1  0  0  0  0
M  END
>  <MODEL>
2

>  <REMARK>
 VINA RESULT:      -9.0      2.506      5.237
  Name = 
  4 active torsions:
  status: ('A' for Active; 'I' for Inactive)
    1  A    between atoms: N_10  and  C_23
    2  A    between atoms: C_11  and  C_20
    3  A    between atoms: C_18  and  C_23
    4  A    between atoms: C_20  and  C_26
                            x       y       z     vdW  Elec       q    Type
                         _______ _______ _______ _____ _____    ______ ____

>  <TORSDO>
F 4

$$$$
=
 OpenBabel10222416393D

 30 35  0  0  1  0  0  0  0  0999 V2000
  183.2700  179.7880  139.4580 N   0  0  0  0  0  0  0  0  0  0  0  0
  181.9380  178.8680  141.1990 O   0  0  0  0  0  0  0  0  0  0  0  0
  186.6340  178.9270  140.4310 C   0  0  0  0  0  3  0  0  0  0  0  0
  185.3230  178.3160  144.5740 C   0  0  0  0  0  0  0  0  0  0  0  0
  187.6230  177.6140  144.6020 N   0  0  0  0  0  0  0  0  0  0  0  0
  186.8390  178.5980  147.8830 N   0  0  0  0  0  0  0  0  0  0  0  0
  186.4570  177.8380  143.9280 C   0  0  0  0  0  0  0  0  0  0  0  0
  184.2780  178.4080  143.5880 C   0  0  0  0  0  0  0  0  0  0  0  0
  183.1180  178.8520  143.7940 O   0  0  0  0  0  0  0  0  0  0  0  0
  186.1800  177.5540  142.4780 C   0  0  1  0  0  3  0  0  0  0  0  0
  187.6350  177.9120  145.9310 C   0  0  0  0  0  0  0  0  0  0  0  0
  184.7670  177.9740  142.3190 N   0  0  0  0  0  0  0  0  0  0  0  0
  187.1100  178.3080  141.5280 C   0  0  0  0  0  0  0  0  0  0  0  0
  188.1400  178.2060  147.9440 C   0  0  0  0  0  0  0  0  0  0  0  0
  183.0560  179.0350  140.6460 C   0  0  0  0  0  0  0  0  0  0  0  0
  185.1870  178.9750  140.1870 C   0  0  0  0  0  0  0  0  0  0  0  0
  188.9260  178.2450  149.2060 C   0  0  0  0  0  1  0  0  0  0  0  0
  184.5180  179.7590  139.1950 N   0  0  0  0  0  0  0  0  0  0  0  0
  185.3220  178.6260  145.9420 C   0  0  0  0  0  3  0  0  0  0  0  0
  188.6710  177.7770  146.7680 N   0  0  0  0  0  2  0  0  0  0  0  0
  186.5400  178.4010  146.5910 C   0  0  0  0  0  0  0  0  0  0  0  0
  184.3320  178.5030  141.0650 C   0  0  0  0  0  0  0  0  0  0  0  0
  188.5890  178.2170  141.7110 C   0  0  0  0  0  2  0  0  0  0  0  0
  190.3940  177.0120  140.8290 C   0  0  0  0  0  2  0  0  0  0  0  0
  189.0480  176.8650  141.4040 N   0  0  0  0  0  0  0  0  0  0  0  0
  190.2570  176.4430  142.1650 C   0  0  2  0  0  3  0  0  0  0  0  0
  191.6960  178.2700  142.6790 F   0  0  0  0  0  0  0  0  0  0  0  0
  190.7410  177.4340  143.2270 C   0  0  2  0  0  3  0  0  0  0  0  0
  191.8780  175.4670  143.9460 O   0  0  0  0  0  1  0  0  0  0  0  0
  191.3410  176.6740  144.3940 C   0  0  0  0  0  2  0  0  0  0  0  0
  1 15  1  0  0  0  0
  3 13  2  0  0  0  0
  4 19  1  0  0  0  0
  5 11  2  0  0  0  0
  6 14  2  0  0  0  0
  7  4  2  0  0  0  0
  7  5  1  0  0  0  0
  8  9  2  0  0  0  0
  8  4  1  0  0  0  0
 10 13  1  6  0  0  0
 10  7  1  0  0  0  0
 11 21  1  0  0  0  0
 11 20  1  0  0  0  0
 12 10  1  0  0  0  0
 12  8  1  0  0  0  0
 13 23  1  0  0  0  0
 14 17  1  0  0  0  0
 15 22  1  0  0  0  0
 15  2  2  0  0  0  0
 16  3  1  0  0  0  0
 16 22  2  0  0  0  0
 18  1  2  0  0  0  0
 18 16  1  0  0  0  0
 19 21  2  0  0  0  0
 20 14  1  0  0  0  0
 21  6  1  0  0  0  0
 22 12  1  0  0  0  0
 24 25  1  0  0  0  0
 24 26  1  0  0  0  0
 25 23  1  0  0  0  0
 25 26  1  0  0  0  0
 26 28  1  1  0  0  0
 28 27  1  6  0  0  0
 28 30  1  0  0  0  0
 29 30  1  0  0  0  0
M  END
>  <MODEL>
3

>  <REMARK>
 VINA RESULT:      -8.7      2.871      6.516
  Name = 
  4 active torsions:
  status: ('A' for Active; 'I' for Inactive)
    1  A    between atoms: N_10  and  C_23
    2  A    between atoms: C_11  and  C_20
    3  A    between atoms: C_18  and  C_23
    4  A    between atoms: C_20  and  C_26
                            x       y       z     vdW  Elec       q    Type
                         _______ _______ _______ _____ _____    ______ ____

>  <TORSDO>
F 4

$$$$
=
 OpenBabel10222416393D

 30 35  0  0  1  0  0  0  0  0999 V2000
  184.5690  178.4510  142.3740 N   0  0  0  0  0  0  0  0  0  0  0  0
  184.8060  179.5480  140.2790 O   0  0  0  0  0  0  0  0  0  0  0  0
  187.9090  177.3030  143.1020 C   0  0  0  0  0  3  0  0  0  0  0  0
  188.9960  177.6530  138.8650 C   0  0  0  0  0  0  0  0  0  0  0  0
  191.0750  177.0900  139.9350 N   0  0  0  0  0  0  0  0  0  0  0  0
  191.3390  176.0040  136.6040 N   0  0  0  0  0  0  0  0  0  0  0  0
  189.8170  177.6170  139.9860 C   0  0  0  0  0  0  0  0  0  0  0  0
  187.7680  178.2940  139.2570 C   0  0  0  0  0  0  0  0  0  0  0  0
  186.7630  178.4590  138.5160 O   0  0  0  0  0  0  0  0  0  0  0  0
  189.1610  178.2830  141.1640 C   0  0  1  0  0  3  0  0  0  0  0  0
  191.4780  176.5700  138.7420 C   0  0  0  0  0  0  0  0  0  0  0  0
  187.8310  178.6660  140.6340 N   0  0  0  0  0  0  0  0  0  0  0  0
  189.0470  177.3690  142.3850 C   0  0  0  0  0  0  0  0  0  0  0  0
  192.5310  175.6710  137.1680 C   0  0  0  0  0  0  0  0  0  0  0  0
  185.3080  178.9580  141.2700 C   0  0  0  0  0  0  0  0  0  0  0  0
  186.7170  178.0330  142.6540 C   0  0  0  0  0  0  0  0  0  0  0  0
  193.6140  174.9970  136.4040 C   0  0  0  0  0  1  0  0  0  0  0  0
  185.3940  177.9040  143.1800 N   0  0  0  0  0  0  0  0  0  0  0  0
  189.4000  177.1230  137.6300 C   0  0  0  0  0  3  0  0  0  0  0  0
  192.6610  176.0010  138.4810 N   0  0  0  0  0  2  0  0  0  0  0  0
  190.6860  176.5750  137.6260 C   0  0  0  0  0  0  0  0  0  0  0  0
  186.7060  178.6850  141.5150 C   0  0  0  0  0  0  0  0  0  0  0  0
  190.2600  176.6700  142.9030 C   0  0  0  0  0  2  0  0  0  0  0  0
  190.6580  178.6170  144.1440 C   0  0  0  0  0  2  0  0  0  0  0  0
  191.2930  177.6460  143.2390 N   0  0  0  0  0  0  0  0  0  0  0  0
  191.6450  177.6900  144.6870 C   0  0  2  0  0  3  0  0  0  0  0  0
  189.8750  177.1830  146.1980 F   0  0  0  0  0  0  0  0  0  0  0  0
  190.9670  176.6270  145.5570 C   0  0  2  0  0  3  0  0  0  0  0  0
  191.9140  176.9200  147.7230 O   0  0  0  0  0  1  0  0  0  0  0  0
  191.9540  176.1130  146.5870 C   0  0  0  0  0  2  0  0  0  0  0  0
  1 18  2  0  0  0  0
  2 15  2  0  0  0  0
  4  8  1  0  0  0  0
  4  7  2  0  0  0  0
  5  7  1  0  0  0  0
  6 14  2  0  0  0  0
  6 21  1  0  0  0  0
  8 12  1  0  0  0  0
  9  8  2  0  0  0  0
 10  7  1  6  0  0  0
 10 13  1  0  0  0  0
 11  5  2  0  0  0  0
 12 10  1  0  0  0  0
 12 22  1  0  0  0  0
 13 23  1  0  0  0  0
 13  3  2  0  0  0  0
 14 20  1  0  0  0  0
 15 22  1  0  0  0  0
 15  1  1  0  0  0  0
 16  3  1  0  0  0  0
 16 18  1  0  0  0  0
 17 14  1  0  0  0  0
 19  4  1  0  0  0  0
 20 11  1  0  0  0  0
 21 19  2  0  0  0  0
 21 11  1  0  0  0  0
 22 16  2  0  0  0  0
 23 25  1  0  0  0  0
 24 26  1  0  0  0  0
 25 24  1  0  0  0  0
 25 26  1  0  0  0  0
 26 28  1  1  0  0  0
 28 27  1  1  0  0  0
 28 30  1  0  0  0  0
 30 29  1  0  0  0  0
M  END
>  <MODEL>
4

>  <REMARK>
 VINA RESULT:      -8.5      2.478      7.374
  Name = 
  4 active torsions:
  status: ('A' for Active; 'I' for Inactive)
    1  A    between atoms: N_10  and  C_23
    2  A    between atoms: C_11  and  C_20
    3  A    between atoms: C_18  and  C_23
    4  A    between atoms: C_20  and  C_26
                            x       y       z     vdW  Elec       q    Type
                         _______ _______ _______ _____ _____    ______ ____

>  <TORSDO>
F 4

$$$$
=
 OpenBabel10222416393D

 30 35  0  0  1  0  0  0  0  0999 V2000
  186.3600  179.0200  148.1410 N   0  0  0  0  0  0  0  0  0  0  0  0
  188.1070  177.4270  148.3910 O   0  0  0  0  0  0  0  0  0  0  0  0
  185.6530  178.9430  144.6060 C   0  0  0  0  0  3  0  0  0  0  0  0
  189.5810  177.1500  143.8190 C   0  0  0  0  0  0  0  0  0  0  0  0
  188.5080  177.1230  141.6660 N   0  0  0  0  0  0  0  0  0  0  0  0
  191.9680  177.1500  141.0580 N   0  0  0  0  0  0  0  0  0  0  0  0
  188.4360  177.1490  143.0290 C   0  0  0  0  0  0  0  0  0  0  0  0
  189.1510  177.1500  145.1920 C   0  0  0  0  0  0  0  0  0  0  0  0
  189.9110  177.2020  146.1950 O   0  0  0  0  0  0  0  0  0  0  0  0
  187.1920  177.1060  143.8730 C   0  0  1  0  0  3  0  0  0  0  0  0
  189.7520  177.1310  141.1130 C   0  0  0  0  0  0  0  0  0  0  0  0
  187.7240  177.1410  145.2560 N   0  0  0  0  0  0  0  0  0  0  0  0
  186.2380  178.2680  143.5980 C   0  0  0  0  0  0  0  0  0  0  0  0
  191.4030  177.1310  139.8200 C   0  0  0  0  0  0  0  0  0  0  0  0
  187.2470  178.0080  147.6800 C   0  0  0  0  0  0  0  0  0  0  0  0
  186.0110  178.6380  145.9970 C   0  0  0  0  0  0  0  0  0  0  0  0
  192.2120  177.1240  138.5740 C   0  0  0  0  0  1  0  0  0  0  0  0
  185.6430  179.3920  147.1540 N   0  0  0  0  0  0  0  0  0  0  0  0
  190.8680  177.1570  143.2620 C   0  0  0  0  0  3  0  0  0  0  0  0
  190.0430  177.1180  139.8070 N   0  0  0  0  0  2  0  0  0  0  0  0
  190.8970  177.1500  141.8640 C   0  0  0  0  0  0  0  0  0  0  0  0
  186.9600  177.7760  146.2830 C   0  0  0  0  0  0  0  0  0  0  0  0
  185.8020  178.5540  142.2000 C   0  0  0  0  0  2  0  0  0  0  0  0
  183.5300  178.8790  141.7280 C   0  0  0  0  0  2  0  0  0  0  0  0
  184.5590  177.8440  141.9080 N   0  0  0  0  0  0  0  0  0  0  0  0
  183.9910  178.1350  140.5620 C   0  0  2  0  0  3  0  0  0  0  0  0
  184.1330  180.1310  139.2700 F   0  0  0  0  0  0  0  0  0  0  0  0
  184.8580  179.0210  139.6630 C   0  0  2  0  0  3  0  0  0  0  0  0
  186.6740  178.2710  138.3140 O   0  0  0  0  0  1  0  0  0  0  0  0
  185.2860  178.2350  138.4380 C   0  0  0  0  0  2  0  0  0  0  0  0
  3 16  1  0  0  0  0
  4  8  1  0  0  0  0
  5  7  1  0  0  0  0
  6 21  1  0  0  0  0
  7  4  2  0  0  0  0
  8 12  1  0  0  0  0
  8  9  2  0  0  0  0
 10  7  1  6  0  0  0
 10 12  1  0  0  0  0
 11  5  2  0  0  0  0
 11 21  1  0  0  0  0
 12 22  1  0  0  0  0
 13 10  1  0  0  0  0
 13  3  2  0  0  0  0
 14  6  2  0  0  0  0
 15  1  1  0  0  0  0
 15  2  2  0  0  0  0
 16 22  2  0  0  0  0
 16 18  1  0  0  0  0
 17 14  1  0  0  0  0
 18  1  2  0  0  0  0
 19  4  1  0  0  0  0
 20 14  1  0  0  0  0
 20 11  1  0  0  0  0
 21 19  2  0  0  0  0
 22 15  1  0  0  0  0
 23 13  1  0  0  0  0
 24 25  1  0  0  0  0
 25 23  1  0  0  0  0
 26 28  1  6  0  0  0
 26 24  1  0  0  0  0
 26 25  1  0  0  0  0
 28 27  1  6  0  0  0
 29 30  1  0  0  0  0
 30 28  1  0  0  0  0
M  END
>  <MODEL>
5

>  <REMARK>
 VINA RESULT:      -8.3      2.310      5.356
  Name = 
  4 active torsions:
  status: ('A' for Active; 'I' for Inactive)
    1  A    between atoms: N_10  and  C_23
    2  A    between atoms: C_11  and  C_20
    3  A    between atoms: C_18  and  C_23
    4  A    between atoms: C_20  and  C_26
                            x       y       z     vdW  Elec       q    Type
                         _______ _______ _______ _____ _____    ______ ____

>  <TORSDO>
F 4

$$$$
=
 OpenBabel10222416393D

 30 35  0  0  1  0  0  0  0  0999 V2000
  186.0870  179.2520  147.9880 N   0  0  0  0  0  0  0  0  0  0  0  0
  188.0920  178.0980  148.5350 O   0  0  0  0  0  0  0  0  0  0  0  0
  185.6020  178.4840  144.4980 C   0  0  0  0  0  3  0  0  0  0  0  0
  189.8380  177.4090  144.1040 C   0  0  0  0  0  0  0  0  0  0  0  0
  188.9090  176.8330  141.9610 N   0  0  0  0  0  0  0  0  0  0  0  0
  192.3270  177.4520  141.4350 N   0  0  0  0  0  0  0  0  0  0  0  0
  188.7600  177.0570  143.3000 C   0  0  0  0  0  0  0  0  0  0  0  0
  189.3420  177.5370  145.4490 C   0  0  0  0  0  0  0  0  0  0  0  0
  190.0220  177.8960  146.4470 O   0  0  0  0  0  0  0  0  0  0  0  0
  187.5040  176.8990  144.1110 C   0  0  1  0  0  3  0  0  0  0  0  0
  190.1570  177.0010  141.4430 C   0  0  0  0  0  0  0  0  0  0  0  0
  187.9420  177.2550  145.4810 N   0  0  0  0  0  0  0  0  0  0  0  0
  186.3600  177.7900  143.6280 C   0  0  0  0  0  0  0  0  0  0  0  0
  191.8440  177.1280  140.2050 C   0  0  0  0  0  0  0  0  0  0  0  0
  187.1760  178.3770  147.7190 C   0  0  0  0  0  0  0  0  0  0  0  0
  185.9360  178.4780  145.9280 C   0  0  0  0  0  0  0  0  0  0  0  0
  192.7070  177.0870  138.9950 C   0  0  0  0  0  1  0  0  0  0  0  0
  185.3660  179.3160  146.9370 N   0  0  0  0  0  0  0  0  0  0  0  0
  191.1290  177.5850  143.5830 C   0  0  0  0  0  3  0  0  0  0  0  0
  190.5150  176.8430  140.1630 N   0  0  0  0  0  2  0  0  0  0  0  0
  191.2340  177.3640  142.2060 C   0  0  0  0  0  0  0  0  0  0  0  0
  187.0160  177.8780  146.3720 C   0  0  0  0  0  0  0  0  0  0  0  0
  185.9530  177.7620  142.1920 C   0  0  0  0  0  2  0  0  0  0  0  0
  185.4000  179.0030  140.2830 C   0  0  0  0  0  2  0  0  0  0  0  0
  185.6880  179.1190  141.7210 N   0  0  0  0  0  0  0  0  0  0  0  0
  184.3090  179.3250  141.1960 C   0  0  2  0  0  3  0  0  0  0  0  0
  183.4230  177.3420  140.2180 F   0  0  0  0  0  0  0  0  0  0  0  0
  183.3640  178.1300  141.3530 C   0  0  2  0  0  3  0  0  0  0  0  0
  181.7580  179.0020  142.8810 O   0  0  0  0  0  1  0  0  0  0  0  0
  181.9460  178.6280  141.5510 C   0  0  0  0  0  2  0  0  0  0  0  0
  3 16  1  0  0  0  0
  4  8  1  0  0  0  0
  5  7  1  0  0  0  0
  6 21  1  0  0  0  0
  7  4  2  0  0  0  0
  8 12  1  0  0  0  0
  8  9  2  0  0  0  0
 10  7  1  6  0  0  0
 10 12  1  0  0  0  0
 11  5  2  0  0  0  0
 11 21  1  0  0  0  0
 12 22  1  0  0  0  0
 13 10  1  0  0  0  0
 13  3  2  0  0  0  0
 14  6  2  0  0  0  0
 15  1  1  0  0  0  0
 15  2  2  0  0  0  0
 16 22  2  0  0  0  0
 16 18  1  0  0  0  0
 17 14  1  0  0  0  0
 18  1  2  0  0  0  0
 19  4  1  0  0  0  0
 20 14  1  0  0  0  0
 20 11  1  0  0  0  0
 21 19  2  0  0  0  0
 22 15  1  0  0  0  0
 23 13  1  0  0  0  0
 24 26  1  0  0  0  0
 24 25  1  0  0  0  0
 25 23  1  0  0  0  0
 26 28  1  1  0  0  0
 26 25  1  0  0  0  0
 28 27  1  6  0  0  0
 28 30  1  0  0  0  0
 30 29  1  0  0  0  0
M  END
>  <MODEL>
6

>  <REMARK>
 VINA RESULT:      -8.2      2.758      5.670
  Name = 
  4 active torsions:
  status: ('A' for Active; 'I' for Inactive)
    1  A    between atoms: N_10  and  C_23
    2  A    between atoms: C_11  and  C_20
    3  A    between atoms: C_18  and  C_23
    4  A    between atoms: C_20  and  C_26
                            x       y       z     vdW  Elec       q    Type
                         _______ _______ _______ _____ _____    ______ ____

>  <TORSDO>
F 4

$$$$
=
 OpenBabel10222416393D

 30 35  0  0  1  0  0  0  0  0999 V2000
  187.9040  178.2640  148.3970 N   0  0  0  0  0  0  0  0  0  0  0  0
  189.5160  176.7530  147.5190 O   0  0  0  0  0  0  0  0  0  0  0  0
  185.7340  178.9000  145.5880 C   0  0  0  0  0  3  0  0  0  0  0  0
  188.8510  177.5350  142.8180 C   0  0  0  0  0  0  0  0  0  0  0  0
  186.9520  177.9070  141.3890 N   0  0  0  0  0  0  0  0  0  0  0  0
  189.8050  178.2520  139.3690 N   0  0  0  0  0  0  0  0  0  0  0  0
  187.4790  177.6380  142.6200 C   0  0  0  0  0  0  0  0  0  0  0  0
  189.0590  177.2190  144.2070 C   0  0  0  0  0  0  0  0  0  0  0  0
  190.1790  177.0990  144.7690 O   0  0  0  0  0  0  0  0  0  0  0  0
  186.7220  177.3480  143.8870 C   0  0  1  0  0  3  0  0  0  0  0  0
  187.8340  178.1000  140.3700 C   0  0  0  0  0  0  0  0  0  0  0  0
  187.8010  177.1190  144.8760 N   0  0  0  0  0  0  0  0  0  0  0  0
  185.7940  178.4880  144.3070 C   0  0  0  0  0  0  0  0  0  0  0  0
  188.7600  178.4650  138.5250 C   0  0  0  0  0  0  0  0  0  0  0  0
  188.4580  177.4230  147.3920 C   0  0  0  0  0  0  0  0  0  0  0  0
  186.6450  178.3270  146.5860 C   0  0  0  0  0  0  0  0  0  0  0  0
  188.9490  178.7670  137.0810 C   0  0  0  0  0  1  0  0  0  0  0  0
  186.8470  178.7970  147.9210 N   0  0  0  0  0  0  0  0  0  0  0  0
  189.7700  177.7310  141.7760 C   0  0  0  0  0  3  0  0  0  0  0  0
  187.5290  178.3810  139.0970 N   0  0  0  0  0  2  0  0  0  0  0  0
  189.1900  178.0220  140.5370 C   0  0  0  0  0  0  0  0  0  0  0  0
  187.5850  177.4780  146.2420 C   0  0  0  0  0  0  0  0  0  0  0  0
  184.8090  179.0410  143.3320 C   0  0  0  0  0  2  0  0  0  0  0  0
  182.5020  179.3860  143.1140 C   0  0  0  0  0  2  0  0  0  0  0  0
  183.5120  178.3930  143.5110 N   0  0  0  0  0  0  0  0  0  0  0  0
  182.7320  178.2320  142.2520 C   0  0  2  0  0  3  0  0  0  0  0  0
  182.8290  179.7470  140.4170 F   0  0  0  0  0  0  0  0  0  0  0  0
  183.4610  178.6490  140.9720 C   0  0  2  0  0  3  0  0  0  0  0  0
  184.0940  177.8780  138.8080 O   0  0  0  0  0  1  0  0  0  0  0  0
  183.4440  177.5000  139.9820 C   0  0  0  0  0  2  0  0  0  0  0  0
  3 16  1  0  0  0  0
  4  8  1  0  0  0  0
  5  7  1  0  0  0  0
  6 21  1  0  0  0  0
  7  4  2  0  0  0  0
  8  9  2  0  0  0  0
  8 12  1  0  0  0  0
 10  7  1  6  0  0  0
 10 13  1  0  0  0  0
 10 12  1  0  0  0  0
 11 21  1  0  0  0  0
 11  5  2  0  0  0  0
 12 22  1  0  0  0  0
 13  3  2  0  0  0  0
 14 20  1  0  0  0  0
 14  6  2  0  0  0  0
 15  2  2  0  0  0  0
 15  1  1  0  0  0  0
 16 18  1  0  0  0  0
 17 14  1  0  0  0  0
 18  1  2  0  0  0  0
 19  4  1  0  0  0  0
 20 11  1  0  0  0  0
 21 19  2  0  0  0  0
 22 16  2  0  0  0  0
 22 15  1  0  0  0  0
 23 25  1  0  0  0  0
 23 13  1  0  0  0  0
 24 25  1  0  0  0  0
 26 28  1  6  0  0  0
 26 24  1  0  0  0  0
 26 25  1  0  0  0  0
 28 27  1  6  0  0  0
 29 30  1  0  0  0  0
 30 28  1  0  0  0  0
M  END
>  <MODEL>
7

>  <REMARK>
 VINA RESULT:      -8.1      2.643      5.296
  Name = 
  4 active torsions:
  status: ('A' for Active; 'I' for Inactive)
    1  A    between atoms: N_10  and  C_23
    2  A    between atoms: C_11  and  C_20
    3  A    between atoms: C_18  and  C_23
    4  A    between atoms: C_20  and  C_26
                            x       y       z     vdW  Elec       q    Type
                         _______ _______ _______ _____ _____    ______ ____

>  <TORSDO>
F 4

$$$$
=
 OpenBabel10222416393D

 30 35  0  0  1  0  0  0  0  0999 V2000
  184.7520  179.7000  141.3800 N   0  0  0  0  0  0  0  0  0  0  0  0
  183.9620  178.9340  143.4870 O   0  0  0  0  0  0  0  0  0  0  0  0
  187.9510  178.0700  141.0410 C   0  0  0  0  0  3  0  0  0  0  0  0
  188.1120  177.3940  145.3740 C   0  0  0  0  0  0  0  0  0  0  0  0
  190.0450  176.2240  144.5490 N   0  0  0  0  0  0  0  0  0  0  0  0
  190.7340  177.0630  147.8900 N   0  0  0  0  0  0  0  0  0  0  0  0
  188.7980  176.7450  144.3530 C   0  0  0  0  0  0  0  0  0  0  0  0
  186.8320  177.7870  144.8430 C   0  0  0  0  0  0  0  0  0  0  0  0
  185.9560  178.4460  145.4630 O   0  0  0  0  0  0  0  0  0  0  0  0
  187.9620  176.6520  143.1070 C   0  0  1  0  0  3  0  0  0  0  0  0
  190.5990  176.3970  145.7810 C   0  0  0  0  0  0  0  0  0  0  0  0
  186.7220  177.3720  143.4810 N   0  0  0  0  0  0  0  0  0  0  0  0
  188.6350  177.2730  141.8830 C   0  0  0  0  0  0  0  0  0  0  0  0
  191.8460  176.4030  147.4660 C   0  0  0  0  0  0  0  0  0  0  0  0
  184.8130  178.9090  142.5610 C   0  0  0  0  0  0  0  0  0  0  0  0
  186.5640  178.4420  141.3480 C   0  0  0  0  0  0  0  0  0  0  0  0
  193.0180  176.1660  148.3490 C   0  0  0  0  0  1  0  0  0  0  0  0
  185.7810  179.4310  140.6750 N   0  0  0  0  0  0  0  0  0  0  0  0
  188.6710  177.5770  146.6470 C   0  0  0  0  0  3  0  0  0  0  0  0
  191.8070  175.9750  146.1760 N   0  0  0  0  0  2  0  0  0  0  0  0
  189.9560  177.0460  146.7990 C   0  0  0  0  0  0  0  0  0  0  0  0
  185.9980  178.0870  142.4780 C   0  0  0  0  0  0  0  0  0  0  0  0
  190.0190  176.8570  141.5070 C   0  0  0  0  0  2  0  0  0  0  0  0
  192.0210  177.4300  140.4350 C   0  0  0  0  0  2  0  0  0  0  0  0
  190.6610  177.9090  140.7240 N   0  0  0  0  0  0  0  0  0  0  0  0
  191.0510  177.4930  139.3470 C   0  0  2  0  0  3  0  0  0  0  0  0
  191.6920  175.3790  138.4580 F   0  0  0  0  0  0  0  0  0  0  0  0
  190.6050  176.0870  138.9370 C   0  0  2  0  0  3  0  0  0  0  0  0
  189.7940  177.3000  137.0530 O   0  0  0  0  0  1  0  0  0  0  0  0
  189.5470  176.1870  137.8550 C   0  0  0  0  0  2  0  0  0  0  0  0
  1 15  1  0  0  0  0
  3 16  1  0  0  0  0
  3 13  2  0  0  0  0
  4 19  1  0  0  0  0
  5 11  2  0  0  0  0
  7  5  1  0  0  0  0
  7  4  2  0  0  0  0
  8  4  1  0  0  0  0
  8  9  2  0  0  0  0
 10 13  1  6  0  0  0
 10 12  1  0  0  0  0
 10  7  1  0  0  0  0
 11 20  1  0  0  0  0
 11 21  1  0  0  0  0
 12  8  1  0  0  0  0
 14  6  2  0  0  0  0
 14 17  1  0  0  0  0
 15  2  2  0  0  0  0
 16 22  2  0  0  0  0
 18 16  1  0  0  0  0
 18  1  2  0  0  0  0
 19 21  2  0  0  0  0
 20 14  1  0  0  0  0
 21  6  1  0  0  0  0
 22 15  1  0  0  0  0
 22 12  1  0  0  0  0
 23 13  1  0  0  0  0
 24 25  1  0  0  0  0
 25 23  1  0  0  0  0
 26 28  1  1  0  0  0
 26 24  1  0  0  0  0
 26 25  1  0  0  0  0
 28 27  1  6  0  0  0
 29 30  1  0  0  0  0
 30 28  1  0  0  0  0
M  END
>  <MODEL>
8

>  <REMARK>
 VINA RESULT:      -8.1      1.924      5.703
  Name = 
  4 active torsions:
  status: ('A' for Active; 'I' for Inactive)
    1  A    between atoms: N_10  and  C_23
    2  A    between atoms: C_11  and  C_20
    3  A    between atoms: C_18  and  C_23
    4  A    between atoms: C_20  and  C_26
                            x       y       z     vdW  Elec       q    Type
                         _______ _______ _______ _____ _____    ______ ____

>  <TORSDO>
F 4

$$$$
=
 OpenBabel10222416393D

 30 35  0  0  1  0  0  0  0  0999 V2000
  190.5150  177.4200  147.5400 N   0  0  0  0  0  0  0  0  0  0  0  0
  192.1530  176.3440  146.1940 O   0  0  0  0  0  0  0  0  0  0  0  0
  187.6570  177.6600  145.3550 C   0  0  0  0  0  3  0  0  0  0  0  0
  190.2420  177.1350  141.8480 C   0  0  0  0  0  0  0  0  0  0  0  0
  188.0240  177.1250  140.9190 N   0  0  0  0  0  0  0  0  0  0  0  0
  190.1780  178.1790  138.3520 N   0  0  0  0  0  0  0  0  0  0  0  0
  188.8720  176.9350  141.9720 C   0  0  0  0  0  0  0  0  0  0  0  0
  190.8350  176.8210  143.1220 C   0  0  0  0  0  0  0  0  0  0  0  0
  192.0560  176.9350  143.4070 O   0  0  0  0  0  0  0  0  0  0  0  0
  188.5150  176.4350  143.3450 C   0  0  1  0  0  3  0  0  0  0  0  0
  188.5770  177.5490  139.7500 C   0  0  0  0  0  0  0  0  0  0  0  0
  189.8220  176.4160  144.0440 N   0  0  0  0  0  0  0  0  0  0  0  0
  187.4960  177.3200  144.0620 C   0  0  0  0  0  0  0  0  0  0  0  0
  188.9410  178.1830  137.7850 C   0  0  0  0  0  0  0  0  0  0  0  0
  190.9790  176.7640  146.3660 C   0  0  0  0  0  0  0  0  0  0  0  0
  188.8780  177.2680  146.0700 C   0  0  0  0  0  0  0  0  0  0  0  0
  188.7150  178.5750  136.3690 C   0  0  0  0  0  1  0  0  0  0  0  0
  189.2880  177.7210  147.3630 N   0  0  0  0  0  0  0  0  0  0  0  0
  190.8250  177.5710  140.6500 C   0  0  0  0  0  3  0  0  0  0  0  0
  187.9270  177.8030  138.6070 N   0  0  0  0  0  2  0  0  0  0  0  0
  189.9200  177.7720  139.6020 C   0  0  0  0  0  0  0  0  0  0  0  0
  189.8660  176.6660  145.4500 C   0  0  0  0  0  0  0  0  0  0  0  0
  186.2140  177.6740  143.3850 C   0  0  0  0  0  2  0  0  0  0  0  0
  184.8190  179.3770  142.5850 C   0  0  0  0  0  2  0  0  0  0  0  0
  186.0670  179.1260  143.3220 N   0  0  0  0  0  0  0  0  0  0  0  0
  184.8560  179.6470  144.0170 C   0  0  2  0  0  3  0  0  0  0  0  0
  182.6940  178.8870  144.6660 F   0  0  0  0  0  0  0  0  0  0  0  0
  184.0420  178.6020  144.7860 C   0  0  2  0  0  3  0  0  0  0  0  0
  185.3070  179.6920  146.4850 O   0  0  0  0  0  1  0  0  0  0  0  0
  184.4380  178.6280  146.2500 C   0  0  0  0  0  2  0  0  0  0  0  0
  2 15  2  0  0  0  0
  3 16  1  0  0  0  0
  4  7  2  0  0  0  0
  4  8  1  0  0  0  0
  5  7  1  0  0  0  0
  6 21  1  0  0  0  0
  8  9  2  0  0  0  0
  8 12  1  0  0  0  0
 10  7  1  6  0  0  0
 10 12  1  0  0  0  0
 10 13  1  0  0  0  0
 11  5  2  0  0  0  0
 12 22  1  0  0  0  0
 13  3  2  0  0  0  0
 14  6  2  0  0  0  0
 14 20  1  0  0  0  0
 15  1  1  0  0  0  0
 16 18  1  0  0  0  0
 17 14  1  0  0  0  0
 18  1  2  0  0  0  0
 19  4  1  0  0  0  0
 20 11  1  0  0  0  0
 21 11  1  0  0  0  0
 21 19  2  0  0  0  0
 22 16  2  0  0  0  0
 22 15  1  0  0  0  0
 23 13  1  0  0  0  0
 24 25  1  0  0  0  0
 24 26  1  0  0  0  0
 25 23  1  0  0  0  0
 25 26  1  0  0  0  0
 26 28  1  1  0  0  0
 28 27  1  1  0  0  0
 28 30  1  0  0  0  0
 30 29  1  0  0  0  0
M  END
>  <MODEL>
9

>  <REMARK>
 VINA RESULT:      -7.9      2.705      5.418
  Name = 
  4 active torsions:
  status: ('A' for Active; 'I' for Inactive)
    1  A    between atoms: N_10  and  C_23
    2  A    between atoms: C_11  and  C_20
    3  A    between atoms: C_18  and  C_23
    4  A    between atoms: C_20  and  C_26
                            x       y       z     vdW  Elec       q    Type
                         _______ _______ _______ _____ _____    ______ ____

>  <TORSDO>
F 4

$$$$
