=
 OpenBabel10222417393D

 30 31  0  0  1  0  0  0  0  0999 V2000
  187.0320  178.6440  140.6170 C   0  0  0  0  0  2  0  0  0  0  0  0
  189.6430  177.1940  142.3730 C   0  0  0  0  0  0  0  0  0  0  0  0
  189.7940  177.6460  139.8830 C   0  0  0  0  0  0  0  0  0  0  0  0
  188.1360  178.8020  141.3270 C   0  0  0  0  0  2  0  0  0  0  0  0
  189.5970  178.4580  138.9370 O   0  0  0  0  0  0  0  0  0  0  0  0
  186.4130  177.5550  143.0910 C   0  0  0  0  0  0  0  0  0  0  0  0
  185.7890  179.1260  141.2770 C   0  0  0  0  0  2  0  0  0  0  0  0
  185.4560  178.2120  142.4540 C   0  0  0  0  0  0  0  0  0  0  0  0
  189.2210  177.9020  141.1830 N   0  0  0  0  0  0  0  0  0  0  0  0
  188.8320  176.8150  143.3960 C   0  0  0  0  0  3  0  0  0  0  0  0
  187.3710  176.9110  143.7190 C   0  0  0  0  0  3  0  0  0  0  0  0
  182.0360  178.7440  144.2150 C   0  0  0  0  0  1  0  0  0  0  0  0
  183.4380  179.0230  143.8070 C   0  0  0  0  0  0  0  0  0  0  0  0
  184.1150  178.0970  142.9490 N   0  0  0  0  0  2  0  0  0  0  0  0
  184.0030  180.0700  144.2180 O   0  0  0  0  0  0  0  0  0  0  0  0
  191.0960  176.8950  142.5570 C   0  0  0  0  0  2  0  0  0  0  0  0
  191.4330  176.8050  144.0070 C   0  0  0  0  0  0  0  0  0  0  0  0
  191.4870  177.8610  144.8330 N   0  0  0  0  0  0  0  0  0  0  0  0
  191.9520  176.0840  145.9780 C   0  0  0  0  0  3  0  0  0  0  0  0
  191.7210  175.6410  144.6860 C   0  0  0  0  0  3  0  0  0  0  0  0
  191.7990  177.3900  146.0010 O   0  0  0  0  0  0  0  0  0  0  0  0
  190.5520  176.3820  139.6060 C   0  0  0  0  0  2  0  0  0  0  0  0
  192.2530  175.8100  137.9550 N   0  0  0  0  0  1  0  0  0  0  0  0
  190.8690  176.2230  138.1270 C   0  0  1  0  0  3  0  0  0  0  0  0
  189.9450  175.1730  137.5320 C   0  0  0  0  0  2  0  0  0  0  0  0
  188.9060  175.8090  136.6230 C   0  0  0  0  0  2  0  0  0  0  0  0
  187.5870  175.7100  137.2290 N   0  0  0  0  0  2  0  0  0  0  0  0
  187.5210  177.7180  136.1280 C   0  0  0  0  0  1  0  0  0  0  0  0
  185.6340  176.9060  137.2230 C   0  0  0  0  0  1  0  0  0  0  0  0
  187.0790  177.0120  137.3180 N   0  0  0  0  0  0  0  0  0  0  0  0
  1  7  1  0  0  0  0
  1  4  1  0  0  0  0
  2 16  1  0  0  0  0
  2 10  2  0  0  0  0
  3  9  1  0  0  0  0
  5  3  2  0  0  0  0
  6 11  2  0  0  0  0
  7  8  1  0  0  0  0
  8 14  1  0  0  0  0
  8  6  2  0  0  0  0
  9  4  1  0  0  0  0
  9  2  1  0  0  0  0
 10 11  1  0  0  0  0
 13 12  1  0  0  0  0
 13 15  2  0  0  0  0
 14 13  1  0  0  0  0
 16 17  1  0  0  0  0
 17 20  1  0  0  0  0
 17 18  2  0  0  0  0
 18 21  1  0  0  0  0
 19 21  1  0  0  0  0
 20 19  2  0  0  0  0
 22  3  1  0  0  0  0
 24 23  1  1  0  0  0
 24 22  1  0  0  0  0
 25 24  1  0  0  0  0
 26 27  1  0  0  0  0
 26 25  1  0  0  0  0
 27 30  1  0  0  0  0
 28 30  1  0  0  0  0
 29 30  1  0  0  0  0
M  END
>  <MODEL>
1

>  <REMARK>
 VINA RESULT:      -7.0      0.000      0.000
  Name = 
  9 active torsions:
  status: ('A' for Active; 'I' for Inactive)
    1  A    between atoms: C_2  and  C_19
    2  A    between atoms: C_3  and  C_22
    3  A    between atoms: C_5  and  N_11
    4  A    between atoms: C_5  and  C_15
    5  A    between atoms: C_8  and  C_19
    6  A    between atoms: N_11  and  N_26
    7  A    between atoms: N_14  and  C_18
    8  A    between atoms: C_15  and  C_17
    9  A    between atoms: C_17  and  C_22
                            x       y       z     vdW  Elec       q    Type
                         _______ _______ _______ _____ _____    ______ ____

>  <TORSDO>
F 9

$$$$
=
 OpenBabel10222417393D

 30 31  0  0  1  0  0  0  0  0999 V2000
  191.0550  176.2420  143.1220 C   0  0  0  0  0  2  0  0  0  0  0  0
  187.8240  177.4920  143.0890 C   0  0  0  0  0  0  0  0  0  0  0  0
  189.1460  177.1450  140.9540 C   0  0  0  0  0  0  0  0  0  0  0  0
  189.7560  176.0030  143.0730 C   0  0  0  0  0  2  0  0  0  0  0  0
  189.8960  176.3850  140.2810 O   0  0  0  0  0  0  0  0  0  0  0  0
  190.0870  177.2480  145.5190 C   0  0  0  0  0  0  0  0  0  0  0  0
  191.7290  175.7900  144.3690 C   0  0  0  0  0  2  0  0  0  0  0  0
  191.2760  176.6650  145.5350 C   0  0  0  0  0  0  0  0  0  0  0  0
  188.8920  176.8580  142.3460 N   0  0  0  0  0  0  0  0  0  0  0  0
  187.8830  177.8620  144.3960 C   0  0  0  0  0  3  0  0  0  0  0  0
  188.9030  177.8190  145.4940 C   0  0  0  0  0  3  0  0  0  0  0  0
  193.1420  176.1970  148.9070 C   0  0  0  0  0  1  0  0  0  0  0  0
  192.2470  175.8680  147.7660 C   0  0  0  0  0  0  0  0  0  0  0  0
  192.0860  176.8190  146.7070 N   0  0  0  0  0  2  0  0  0  0  0  0
  191.6530  174.7590  147.7480 O   0  0  0  0  0  0  0  0  0  0  0  0
  186.5090  177.7160  142.4140 C   0  0  0  0  0  2  0  0  0  0  0  0
  185.5770  178.4540  143.3150 C   0  0  0  0  0  0  0  0  0  0  0  0
  185.0300  179.6430  143.0210 N   0  0  0  0  0  0  0  0  0  0  0  0
  184.3120  179.0340  144.9690 C   0  0  0  0  0  3  0  0  0  0  0  0
  185.1520  178.0150  144.5510 C   0  0  0  0  0  3  0  0  0  0  0  0
  184.2800  179.9560  144.0330 O   0  0  0  0  0  0  0  0  0  0  0  0
  188.6010  178.3840  140.3070 C   0  0  0  0  0  2  0  0  0  0  0  0
  186.7100  178.5480  138.7770 N   0  0  0  0  0  1  0  0  0  0  0  0
  188.0920  178.1120  138.9000 C   0  0  1  0  0  3  0  0  0  0  0  0
  188.9570  178.8670  137.9050 C   0  0  0  0  0  2  0  0  0  0  0  0
  189.2830  178.0060  136.6960 C   0  0  0  0  0  2  0  0  0  0  0  0
  189.0750  176.6020  137.0150 N   0  0  0  0  0  2  0  0  0  0  0  0
  190.1690  176.3790  135.0130 C   0  0  0  0  0  1  0  0  0  0  0  0
  191.3400  176.2580  137.0210 C   0  0  0  0  0  1  0  0  0  0  0  0
  190.0940  175.8830  136.3770 N   0  0  0  0  0  0  0  0  0  0  0  0
  1  7  1  0  0  0  0
  2 10  2  0  0  0  0
  3  9  1  0  0  0  0
  4  1  1  0  0  0  0
  5  3  2  0  0  0  0
  6  8  2  0  0  0  0
  7  8  1  0  0  0  0
  8 14  1  0  0  0  0
  9  4  1  0  0  0  0
  9  2  1  0  0  0  0
 10 11  1  0  0  0  0
 11  6  2  0  0  0  0
 13 12  1  0  0  0  0
 14 13  1  0  0  0  0
 15 13  2  0  0  0  0
 16  2  1  0  0  0  0
 16 17  1  0  0  0  0
 17 20  1  0  0  0  0
 18 17  2  0  0  0  0
 18 21  1  0  0  0  0
 20 19  2  0  0  0  0
 21 19  1  0  0  0  0
 22  3  1  0  0  0  0
 24 23  1  1  0  0  0
 24 22  1  0  0  0  0
 25 24  1  0  0  0  0
 26 27  1  0  0  0  0
 26 25  1  0  0  0  0
 28 30  1  0  0  0  0
 30 27  1  0  0  0  0
 30 29  1  0  0  0  0
M  END
>  <MODEL>
2

>  <REMARK>
 VINA RESULT:      -6.9      1.836      5.910
  Name = 
  9 active torsions:
  status: ('A' for Active; 'I' for Inactive)
    1  A    between atoms: C_2  and  C_19
    2  A    between atoms: C_3  and  C_22
    3  A    between atoms: C_5  and  N_11
    4  A    between atoms: C_5  and  C_15
    5  A    between atoms: C_8  and  C_19
    6  A    between atoms: N_11  and  N_26
    7  A    between atoms: N_14  and  C_18
    8  A    between atoms: C_15  and  C_17
    9  A    between atoms: C_17  and  C_22
                            x       y       z     vdW  Elec       q    Type
                         _______ _______ _______ _____ _____    ______ ____

>  <TORSDO>
F 9

$$$$
=
 OpenBabel10222417393D

 30 31  0  0  1  0  0  0  0  0999 V2000
  188.7490  176.6760  142.0790 C   0  0  0  0  0  2  0  0  0  0  0  0
  189.9490  177.2770  145.2730 C   0  0  0  0  0  0  0  0  0  0  0  0
  187.4660  177.2520  144.7600 C   0  0  0  0  0  0  0  0  0  0  0  0
  189.1270  176.1910  143.2490 C   0  0  0  0  0  2  0  0  0  0  0  0
  186.5070  176.6720  144.1800 O   0  0  0  0  0  0  0  0  0  0  0  0
  191.4150  177.4080  142.2880 C   0  0  0  0  0  0  0  0  0  0  0  0
  189.6380  176.3280  140.9390 C   0  0  0  0  0  2  0  0  0  0  0  0
  190.9660  177.0650  141.0900 C   0  0  0  0  0  0  0  0  0  0  0  0
  188.8260  176.8830  144.4480 N   0  0  0  0  0  0  0  0  0  0  0  0
  191.1840  177.6150  144.8170 C   0  0  0  0  0  3  0  0  0  0  0  0
  191.8540  177.7390  143.4810 C   0  0  0  0  0  3  0  0  0  0  0  0
  192.9030  176.9440  137.7270 C   0  0  0  0  0  1  0  0  0  0  0  0
  192.0090  176.4870  138.8240 C   0  0  0  0  0  0  0  0  0  0  0  0
  191.7970  177.3400  139.9540 N   0  0  0  0  0  2  0  0  0  0  0  0
  191.4500  175.3620  138.7370 O   0  0  0  0  0  0  0  0  0  0  0  0
  189.7920  177.2610  146.7600 C   0  0  0  0  0  2  0  0  0  0  0  0
  191.0430  176.7770  147.4130 C   0  0  0  0  0  0  0  0  0  0  0  0
  191.7690  177.5010  148.2780 N   0  0  0  0  0  0  0  0  0  0  0  0
  192.7260  175.5740  148.0410 C   0  0  0  0  0  3  0  0  0  0  0  0
  191.6080  175.5340  147.2230 C   0  0  0  0  0  3  0  0  0  0  0  0
  192.7650  176.7480  148.6310 O   0  0  0  0  0  0  0  0  0  0  0  0
  187.1660  178.3800  145.7020 C   0  0  0  0  0  2  0  0  0  0  0  0
  185.4920  178.9640  147.3760 N   0  0  0  0  0  1  0  0  0  0  0  0
  185.6820  178.4760  146.0190 C   0  0  1  0  0  3  0  0  0  0  0  0
  185.0260  179.4310  145.0350 C   0  0  0  0  0  2  0  0  0  0  0  0
  183.8410  178.7770  144.3430 C   0  0  0  0  0  2  0  0  0  0  0  0
  183.7500  179.2410  142.9680 N   0  0  0  0  0  2  0  0  0  0  0  0
  183.5650  177.8880  141.1280 C   0  0  0  0  0  1  0  0  0  0  0  0
  185.5250  179.0790  141.5290 C   0  0  0  0  0  1  0  0  0  0  0  0
  184.4650  178.3300  142.1800 N   0  0  0  0  0  0  0  0  0  0  0  0
  1  4  1  0  0  0  0
  2 16  1  0  0  0  0
  3 22  1  0  0  0  0
  4  9  1  0  0  0  0
  5  3  2  0  0  0  0
  6 11  2  0  0  0  0
  7  8  1  0  0  0  0
  7  1  1  0  0  0  0
  8  6  2  0  0  0  0
  9  3  1  0  0  0  0
  9  2  1  0  0  0  0
 10  2  2  0  0  0  0
 11 10  1  0  0  0  0
 12 13  1  0  0  0  0
 13 14  1  0  0  0  0
 14  8  1  0  0  0  0
 15 13  2  0  0  0  0
 16 17  1  0  0  0  0
 17 18  2  0  0  0  0
 18 21  1  0  0  0  0
 19 21  1  0  0  0  0
 20 17  1  0  0  0  0
 20 19  2  0  0  0  0
 22 24  1  0  0  0  0
 24 23  1  1  0  0  0
 25 24  1  0  0  0  0
 26 25  1  0  0  0  0
 27 26  1  0  0  0  0
 28 30  1  0  0  0  0
 29 30  1  0  0  0  0
 30 27  1  0  0  0  0
M  END
>  <MODEL>
3

>  <REMARK>
 VINA RESULT:      -6.9      2.761      6.756
  Name = 
  9 active torsions:
  status: ('A' for Active; 'I' for Inactive)
    1  A    between atoms: C_2  and  C_19
    2  A    between atoms: C_3  and  C_22
    3  A    between atoms: C_5  and  N_11
    4  A    between atoms: C_5  and  C_15
    5  A    between atoms: C_8  and  C_19
    6  A    between atoms: N_11  and  N_26
    7  A    between atoms: N_14  and  C_18
    8  A    between atoms: C_15  and  C_17
    9  A    between atoms: C_17  and  C_22
                            x       y       z     vdW  Elec       q    Type
                         _______ _______ _______ _____ _____    ______ ____

>  <TORSDO>
F 9

$$$$
=
 OpenBabel10222417393D

 30 31  0  0  1  0  0  0  0  0999 V2000
  186.9550  178.1560  141.6580 C   0  0  0  0  0  2  0  0  0  0  0  0
  189.6150  177.3650  139.5850 C   0  0  0  0  0  0  0  0  0  0  0  0
  187.3110  177.8850  138.6640 C   0  0  0  0  0  0  0  0  0  0  0  0
  187.9930  178.5680  140.9520 C   0  0  0  0  0  2  0  0  0  0  0  0
  186.3000  178.6400  138.6960 O   0  0  0  0  0  0  0  0  0  0  0  0
  189.1250  176.9020  142.8450 C   0  0  0  0  0  0  0  0  0  0  0  0
  187.0990  178.3020  143.1310 C   0  0  0  0  0  2  0  0  0  0  0  0
  188.1470  177.3130  143.6370 C   0  0  0  0  0  0  0  0  0  0  0  0
  188.3050  177.9680  139.7080 N   0  0  0  0  0  0  0  0  0  0  0  0
  190.3130  176.7780  140.5940 C   0  0  0  0  0  3  0  0  0  0  0  0
  190.0940  176.5030  142.0510 C   0  0  0  0  0  3  0  0  0  0  0  0
  188.8360  176.7560  147.4170 C   0  0  0  0  0  1  0  0  0  0  0  0
  188.9830  177.3390  146.0570 C   0  0  0  0  0  0  0  0  0  0  0  0
  188.1460  176.8610  144.9970 N   0  0  0  0  0  2  0  0  0  0  0  0
  189.8350  178.2440  145.8620 O   0  0  0  0  0  0  0  0  0  0  0  0
  190.3190  177.4310  138.2670 C   0  0  0  0  0  2  0  0  0  0  0  0
  191.0370  176.1520  137.9920 C   0  0  0  0  0  0  0  0  0  0  0  0
  190.4390  174.9530  137.9280 N   0  0  0  0  0  0  0  0  0  0  0  0
  192.5530  174.6740  137.5570 C   0  0  0  0  0  3  0  0  0  0  0  0
  192.3910  176.0350  137.7620 C   0  0  0  0  0  3  0  0  0  0  0  0
  191.3780  174.0960  137.6660 O   0  0  0  0  0  0  0  0  0  0  0  0
  187.4100  176.8530  137.5800 C   0  0  0  0  0  2  0  0  0  0  0  0
  187.5060  177.3260  135.1900 N   0  0  0  0  0  1  0  0  0  0  0  0
  186.6220  177.2530  136.3420 C   0  0  1  0  0  3  0  0  0  0  0  0
  185.5370  176.2200  136.0900 C   0  0  0  0  0  2  0  0  0  0  0  0
  185.8670  174.9010  136.7690 C   0  0  0  0  0  2  0  0  0  0  0  0
  184.6830  174.3690  137.4260 N   0  0  0  0  0  2  0  0  0  0  0  0
  184.1040  172.1740  137.1170 C   0  0  0  0  0  1  0  0  0  0  0  0
  186.3370  172.7850  137.3620 C   0  0  0  0  0  1  0  0  0  0  0  0
  184.9940  173.0670  137.8380 N   0  0  0  0  0  0  0  0  0  0  0  0
  1  7  1  0  0  0  0
  2  9  1  0  0  0  0
  2 10  2  0  0  0  0
  3  5  2  0  0  0  0
  3  9  1  0  0  0  0
  4  1  1  0  0  0  0
  6  8  2  0  0  0  0
  7  8  1  0  0  0  0
  8 14  1  0  0  0  0
  9  4  1  0  0  0  0
 10 11  1  0  0  0  0
 11  6  2  0  0  0  0
 13 12  1  0  0  0  0
 14 13  1  0  0  0  0
 15 13  2  0  0  0  0
 16  2  1  0  0  0  0
 17 16  1  0  0  0  0
 18 17  2  0  0  0  0
 19 21  1  0  0  0  0
 19 20  2  0  0  0  0
 20 17  1  0  0  0  0
 21 18  1  0  0  0  0
 22  3  1  0  0  0  0
 24 23  1  6  0  0  0
 24 22  1  0  0  0  0
 25 24  1  0  0  0  0
 25 26  1  0  0  0  0
 26 27  1  0  0  0  0
 27 30  1  0  0  0  0
 28 30  1  0  0  0  0
 29 30  1  0  0  0  0
M  END
>  <MODEL>
4

>  <REMARK>
 VINA RESULT:      -6.6      2.554      4.981
  Name = 
  9 active torsions:
  status: ('A' for Active; 'I' for Inactive)
    1  A    between atoms: C_2  and  C_19
    2  A    between atoms: C_3  and  C_22
    3  A    between atoms: C_5  and  N_11
    4  A    between atoms: C_5  and  C_15
    5  A    between atoms: C_8  and  C_19
    6  A    between atoms: N_11  and  N_26
    7  A    between atoms: N_14  and  C_18
    8  A    between atoms: C_15  and  C_17
    9  A    between atoms: C_17  and  C_22
                            x       y       z     vdW  Elec       q    Type
                         _______ _______ _______ _____ _____    ______ ____

>  <TORSDO>
F 9

$$$$
=
 OpenBabel10222417393D

 30 31  0  0  1  0  0  0  0  0999 V2000
  184.7560  178.6180  144.9030 C   0  0  0  0  0  2  0  0  0  0  0  0
  185.0410  179.0020  141.4710 C   0  0  0  0  0  0  0  0  0  0  0  0
  182.7880  178.9890  142.6330 C   0  0  0  0  0  0  0  0  0  0  0  0
  184.8970  179.4290  143.8690 C   0  0  0  0  0  2  0  0  0  0  0  0
  182.0880  179.4030  143.5980 O   0  0  0  0  0  0  0  0  0  0  0  0
  187.1670  177.8560  143.7630 C   0  0  0  0  0  0  0  0  0  0  0  0
  185.9370  178.5400  145.8040 C   0  0  0  0  0  2  0  0  0  0  0  0
  187.0760  177.8230  145.0840 C   0  0  0  0  0  0  0  0  0  0  0  0
  184.2200  179.1710  142.6520 N   0  0  0  0  0  0  0  0  0  0  0  0
  186.2940  178.4750  141.4500 C   0  0  0  0  0  3  0  0  0  0  0  0
  187.2490  177.8980  142.4520 C   0  0  0  0  0  3  0  0  0  0  0  0
  190.4470  176.6970  146.6450 C   0  0  0  0  0  1  0  0  0  0  0  0
  189.5080  177.4950  145.8140 C   0  0  0  0  0  0  0  0  0  0  0  0
  188.1160  177.1590  145.8140 N   0  0  0  0  0  2  0  0  0  0  0  0
  189.9520  178.4540  145.1300 O   0  0  0  0  0  0  0  0  0  0  0  0
  184.5270  179.4980  140.1580 C   0  0  0  0  0  2  0  0  0  0  0  0
  184.9540  178.5910  139.0530 C   0  0  0  0  0  0  0  0  0  0  0  0
  186.1640  178.6280  138.4750 N   0  0  0  0  0  0  0  0  0  0  0  0
  185.0150  177.0530  137.5350 C   0  0  0  0  0  3  0  0  0  0  0  0
  184.1770  177.6010  138.4910 C   0  0  0  0  0  3  0  0  0  0  0  0
  186.1630  177.6940  137.5740 O   0  0  0  0  0  0  0  0  0  0  0  0
  182.1170  178.2360  141.5230 C   0  0  0  0  0  2  0  0  0  0  0  0
  180.9390  179.0010  139.5300 N   0  0  0  0  0  1  0  0  0  0  0  0
  180.9050  178.9800  140.9840 C   0  0  1  0  0  3  0  0  0  0  0  0
  179.6420  178.2780  141.4560 C   0  0  0  0  0  2  0  0  0  0  0  0
  179.2830  177.1200  140.5400 C   0  0  0  0  0  2  0  0  0  0  0  0
  178.9320  175.9510  141.3300 N   0  0  0  0  0  2  0  0  0  0  0  0
  180.3990  175.1460  139.7650 C   0  0  0  0  0  1  0  0  0  0  0  0
  179.5960  173.7620  141.4570 C   0  0  0  0  0  1  0  0  0  0  0  0
  179.2150  174.8260  140.5450 N   0  0  0  0  0  0  0  0  0  0  0  0
  1  7  1  0  0  0  0
  2  9  1  0  0  0  0
  3  9  1  0  0  0  0
  3  5  2  0  0  0  0
  4  1  1  0  0  0  0
  6  8  2  0  0  0  0
  8  7  1  0  0  0  0
  8 14  1  0  0  0  0
  9  4  1  0  0  0  0
 10  2  2  0  0  0  0
 10 11  1  0  0  0  0
 11  6  2  0  0  0  0
 13 12  1  0  0  0  0
 14 13  1  0  0  0  0
 15 13  2  0  0  0  0
 16  2  1  0  0  0  0
 17 16  1  0  0  0  0
 18 17  2  0  0  0  0
 19 21  1  0  0  0  0
 19 20  2  0  0  0  0
 20 17  1  0  0  0  0
 21 18  1  0  0  0  0
 22  3  1  0  0  0  0
 24 23  1  6  0  0  0
 24 25  1  0  0  0  0
 24 22  1  0  0  0  0
 26 27  1  0  0  0  0
 26 25  1  0  0  0  0
 28 30  1  0  0  0  0
 30 27  1  0  0  0  0
 30 29  1  0  0  0  0
M  END
>  <MODEL>
5

>  <REMARK>
 VINA RESULT:      -6.5      3.245      7.881
  Name = 
  9 active torsions:
  status: ('A' for Active; 'I' for Inactive)
    1  A    between atoms: C_2  and  C_19
    2  A    between atoms: C_3  and  C_22
    3  A    between atoms: C_5  and  N_11
    4  A    between atoms: C_5  and  C_15
    5  A    between atoms: C_8  and  C_19
    6  A    between atoms: N_11  and  N_26
    7  A    between atoms: N_14  and  C_18
    8  A    between atoms: C_15  and  C_17
    9  A    between atoms: C_17  and  C_22
                            x       y       z     vdW  Elec       q    Type
                         _______ _______ _______ _____ _____    ______ ____

>  <TORSDO>
F 9

$$$$
=
 OpenBabel10222417393D

 30 31  0  0  1  0  0  0  0  0999 V2000
  184.7860  178.9240  141.6330 C   0  0  0  0  0  2  0  0  0  0  0  0
  181.3330  178.6880  141.4930 C   0  0  0  0  0  0  0  0  0  0  0  0
  182.7140  179.3160  139.4620 C   0  0  0  0  0  0  0  0  0  0  0  0
  183.7170  178.1750  141.4270 C   0  0  0  0  0  2  0  0  0  0  0  0
  183.7300  179.0760  138.7530 O   0  0  0  0  0  0  0  0  0  0  0  0
  183.4370  178.9830  144.0560 C   0  0  0  0  0  0  0  0  0  0  0  0
  185.5670  178.5800  142.8520 C   0  0  0  0  0  2  0  0  0  0  0  0
  184.7610  178.9590  144.0920 C   0  0  0  0  0  0  0  0  0  0  0  0
  182.5830  178.7050  140.7630 N   0  0  0  0  0  0  0  0  0  0  0  0
  181.2040  178.8070  142.8410 C   0  0  0  0  0  3  0  0  0  0  0  0
  182.1240  179.0000  144.0090 C   0  0  0  0  0  3  0  0  0  0  0  0
  186.8070  178.7690  147.3860 C   0  0  0  0  0  1  0  0  0  0  0  0
  186.2060  178.3130  146.1050 C   0  0  0  0  0  0  0  0  0  0  0  0
  185.4050  179.2250  145.3450 N   0  0  0  0  0  2  0  0  0  0  0  0
  186.4160  177.1370  145.7080 O   0  0  0  0  0  0  0  0  0  0  0  0
  180.0610  178.4580  140.7410 C   0  0  0  0  0  2  0  0  0  0  0  0
  179.7760  176.9970  140.6310 C   0  0  0  0  0  0  0  0  0  0  0  0
  178.9310  176.3340  141.4340 N   0  0  0  0  0  0  0  0  0  0  0  0
  179.7480  174.9280  140.0060 C   0  0  0  0  0  3  0  0  0  0  0  0
  180.3280  176.1480  139.6970 C   0  0  0  0  0  3  0  0  0  0  0  0
  178.9410  175.1010  141.0290 O   0  0  0  0  0  0  0  0  0  0  0  0
  181.7030  180.3070  138.9670 C   0  0  0  0  0  2  0  0  0  0  0  0
  180.6470  178.9090  137.2710 N   0  0  0  0  0  1  0  0  0  0  0  0
  181.4120  180.1280  137.4850 C   0  0  1  0  0  3  0  0  0  0  0  0
  180.6180  181.3240  136.9870 C   0  0  0  0  0  2  0  0  0  0  0  0
  181.0580  182.6020  137.6820 C   0  0  0  0  0  2  0  0  0  0  0  0
  179.9440  183.5330  137.7630 N   0  0  0  0  0  2  0  0  0  0  0  0
  180.7360  184.9780  136.1710 C   0  0  0  0  0  1  0  0  0  0  0  0
  179.4120  185.7560  137.9210 C   0  0  0  0  0  1  0  0  0  0  0  0
  180.4720  184.8190  137.5910 N   0  0  0  0  0  0  0  0  0  0  0  0
  1  7  1  0  0  0  0
  2 10  2  0  0  0  0
  3  9  1  0  0  0  0
  4  1  1  0  0  0  0
  5  3  2  0  0  0  0
  6  8  2  0  0  0  0
  7  8  1  0  0  0  0
  8 14  1  0  0  0  0
  9  4  1  0  0  0  0
  9  2  1  0  0  0  0
 10 11  1  0  0  0  0
 11  6  2  0  0  0  0
 13 12  1  0  0  0  0
 14 13  1  0  0  0  0
 15 13  2  0  0  0  0
 16  2  1  0  0  0  0
 17 16  1  0  0  0  0
 17 18  2  0  0  0  0
 19 21  1  0  0  0  0
 20 19  2  0  0  0  0
 20 17  1  0  0  0  0
 21 18  1  0  0  0  0
 22  3  1  0  0  0  0
 24 23  1  1  0  0  0
 24 22  1  0  0  0  0
 25 24  1  0  0  0  0
 25 26  1  0  0  0  0
 26 27  1  0  0  0  0
 28 30  1  0  0  0  0
 30 27  1  0  0  0  0
 30 29  1  0  0  0  0
M  END
>  <MODEL>
6

>  <REMARK>
 VINA RESULT:      -6.5      5.321      8.976
  Name = 
  9 active torsions:
  status: ('A' for Active; 'I' for Inactive)
    1  A    between atoms: C_2  and  C_19
    2  A    between atoms: C_3  and  C_22
    3  A    between atoms: C_5  and  N_11
    4  A    between atoms: C_5  and  C_15
    5  A    between atoms: C_8  and  C_19
    6  A    between atoms: N_11  and  N_26
    7  A    between atoms: N_14  and  C_18
    8  A    between atoms: C_15  and  C_17
    9  A    between atoms: C_17  and  C_22
                            x       y       z     vdW  Elec       q    Type
                         _______ _______ _______ _____ _____    ______ ____

>  <TORSDO>
F 9

$$$$
=
 OpenBabel10222417393D

 30 31  0  0  1  0  0  0  0  0999 V2000
  185.6390  178.5130  139.2610 C   0  0  0  0  0  2  0  0  0  0  0  0
  182.6880  178.0140  141.0050 C   0  0  0  0  0  0  0  0  0  0  0  0
  184.7470  178.9930  142.1130 C   0  0  0  0  0  0  0  0  0  0  0  0
  184.4660  178.9840  139.6460 C   0  0  0  0  0  2  0  0  0  0  0  0
  185.7020  179.8150  142.0420 O   0  0  0  0  0  0  0  0  0  0  0  0
  183.8020  176.7740  138.1240 C   0  0  0  0  0  0  0  0  0  0  0  0
  185.7630  178.2560  137.8010 C   0  0  0  0  0  2  0  0  0  0  0  0
  184.8860  177.0660  137.4210 C   0  0  0  0  0  0  0  0  0  0  0  0
  183.9620  178.6970  140.9380 N   0  0  0  0  0  0  0  0  0  0  0  0
  182.2240  177.1160  140.0950 C   0  0  0  0  0  3  0  0  0  0  0  0
  182.7260  176.4970  138.8260 C   0  0  0  0  0  3  0  0  0  0  0  0
  186.1590  174.4120  134.8890 C   0  0  0  0  0  1  0  0  0  0  0  0
  185.9900  175.1100  136.1910 C   0  0  0  0  0  0  0  0  0  0  0  0
  185.1650  176.2790  136.2560 N   0  0  0  0  0  2  0  0  0  0  0  0
  186.5690  174.6580  137.2130 O   0  0  0  0  0  0  0  0  0  0  0  0
  181.7480  178.3460  142.1200 C   0  0  0  0  0  2  0  0  0  0  0  0
  180.8600  179.4810  141.7350 C   0  0  0  0  0  0  0  0  0  0  0  0
  180.3570  180.3700  142.6040 N   0  0  0  0  0  0  0  0  0  0  0  0
  179.6630  180.8960  140.6220 C   0  0  0  0  0  3  0  0  0  0  0  0
  180.4490  179.7680  140.4510 C   0  0  0  0  0  3  0  0  0  0  0  0
  179.6480  181.2000  141.9010 O   0  0  0  0  0  0  0  0  0  0  0  0
  184.5060  178.2730  143.4070 C   0  0  0  0  0  2  0  0  0  0  0  0
  183.2790  179.0000  145.3860 N   0  0  0  0  0  1  0  0  0  0  0  0
  184.4750  179.2280  144.5900 C   0  0  1  0  0  3  0  0  0  0  0  0
  185.7100  178.9970  145.4460 C   0  0  0  0  0  2  0  0  0  0  0  0
  186.3330  177.6420  145.1550 C   0  0  0  0  0  2  0  0  0  0  0  0
  187.6690  177.5750  145.7270 N   0  0  0  0  0  2  0  0  0  0  0  0
  189.8350  177.1220  145.1320 C   0  0  0  0  0  1  0  0  0  0  0  0
  188.0970  176.7780  143.6220 C   0  0  0  0  0  1  0  0  0  0  0  0
  188.5750  177.6710  144.6620 N   0  0  0  0  0  0  0  0  0  0  0  0
  1  4  1  0  0  0  0
  2 16  1  0  0  0  0
  3 22  1  0  0  0  0
  4  9  1  0  0  0  0
  5  3  2  0  0  0  0
  6 11  2  0  0  0  0
  7  1  1  0  0  0  0
  8  7  1  0  0  0  0
  8  6  2  0  0  0  0
  9  2  1  0  0  0  0
  9  3  1  0  0  0  0
 10  2  2  0  0  0  0
 11 10  1  0  0  0  0
 12 13  1  0  0  0  0
 13 14  1  0  0  0  0
 13 15  2  0  0  0  0
 14  8  1  0  0  0  0
 17 16  1  0  0  0  0
 17 18  2  0  0  0  0
 19 21  1  0  0  0  0
 20 19  2  0  0  0  0
 20 17  1  0  0  0  0
 21 18  1  0  0  0  0
 22 24  1  0  0  0  0
 24 23  1  1  0  0  0
 24 25  1  0  0  0  0
 26 25  1  0  0  0  0
 26 27  1  0  0  0  0
 29 30  1  0  0  0  0
 30 28  1  0  0  0  0
 30 27  1  0  0  0  0
M  END
>  <MODEL>
7

>  <REMARK>
 VINA RESULT:      -6.4      3.379      8.749
  Name = 
  9 active torsions:
  status: ('A' for Active; 'I' for Inactive)
    1  A    between atoms: C_2  and  C_19
    2  A    between atoms: C_3  and  C_22
    3  A    between atoms: C_5  and  N_11
    4  A    between atoms: C_5  and  C_15
    5  A    between atoms: C_8  and  C_19
    6  A    between atoms: N_11  and  N_26
    7  A    between atoms: N_14  and  C_18
    8  A    between atoms: C_15  and  C_17
    9  A    between atoms: C_17  and  C_22
                            x       y       z     vdW  Elec       q    Type
                         _______ _______ _______ _____ _____    ______ ____

>  <TORSDO>
F 9

$$$$
=
 OpenBabel10222417393D

 30 31  0  0  1  0  0  0  0  0999 V2000
  186.6500  178.5340  140.2960 C   0  0  0  0  0  2  0  0  0  0  0  0
  189.4190  177.5840  142.1480 C   0  0  0  0  0  0  0  0  0  0  0  0
  189.4630  177.6480  139.6140 C   0  0  0  0  0  0  0  0  0  0  0  0
  187.7570  178.8860  140.9270 C   0  0  0  0  0  2  0  0  0  0  0  0
  189.1740  178.2830  138.5630 O   0  0  0  0  0  0  0  0  0  0  0  0
  186.1910  177.8040  142.9310 C   0  0  0  0  0  0  0  0  0  0  0  0
  185.3910  179.0160  140.9230 C   0  0  0  0  0  2  0  0  0  0  0  0
  185.1660  178.2770  142.2390 C   0  0  0  0  0  0  0  0  0  0  0  0
  188.9070  178.0610  140.8810 N   0  0  0  0  0  0  0  0  0  0  0  0
  188.6710  177.3100  143.2500 C   0  0  0  0  0  3  0  0  0  0  0  0
  187.2160  177.3420  143.6120 C   0  0  0  0  0  3  0  0  0  0  0  0
  181.8850  178.6670  144.2790 C   0  0  0  0  0  1  0  0  0  0  0  0
  183.2720  178.9530  143.8240 C   0  0  0  0  0  0  0  0  0  0  0  0
  183.8540  178.1390  142.8000 N   0  0  0  0  0  2  0  0  0  0  0  0
  183.9070  179.9070  144.3440 O   0  0  0  0  0  0  0  0  0  0  0  0
  190.8970  177.4300  142.3180 C   0  0  0  0  0  2  0  0  0  0  0  0
  191.2380  177.1960  143.7520 C   0  0  0  0  0  0  0  0  0  0  0  0
  191.3580  178.1710  144.6650 N   0  0  0  0  0  0  0  0  0  0  0  0
  191.7270  176.2780  145.6460 C   0  0  0  0  0  3  0  0  0  0  0  0
  191.4630  175.9620  144.3240 C   0  0  0  0  0  3  0  0  0  0  0  0
  191.6510  177.5830  145.7840 O   0  0  0  0  0  0  0  0  0  0  0  0
  190.3150  176.4180  139.5070 C   0  0  0  0  0  2  0  0  0  0  0  0
  192.7110  176.4410  139.0510 N   0  0  0  0  0  1  0  0  0  0  0  0
  191.3940  176.5670  138.4450 C   0  0  1  0  0  3  0  0  0  0  0  0
  191.2090  175.4830  137.3950 C   0  0  0  0  0  2  0  0  0  0  0  0
  192.5190  174.7700  137.1060 C   0  0  0  0  0  2  0  0  0  0  0  0
  193.0150  175.1510  135.7930 N   0  0  0  0  0  2  0  0  0  0  0  0
  195.1080  174.8220  136.6660 C   0  0  0  0  0  1  0  0  0  0  0  0
  194.8270  175.9930  134.6740 C   0  0  0  0  0  1  0  0  0  0  0  0
  194.2510  175.7800  135.9890 N   0  0  0  0  0  0  0  0  0  0  0  0
  1  7  1  0  0  0  0
  1  4  1  0  0  0  0
  2 16  1  0  0  0  0
  2 10  2  0  0  0  0
  3  9  1  0  0  0  0
  5  3  2  0  0  0  0
  6 11  2  0  0  0  0
  7  8  1  0  0  0  0
  8 14  1  0  0  0  0
  8  6  2  0  0  0  0
  9  4  1  0  0  0  0
  9  2  1  0  0  0  0
 10 11  1  0  0  0  0
 13 12  1  0  0  0  0
 13 15  2  0  0  0  0
 14 13  1  0  0  0  0
 16 17  1  0  0  0  0
 17 20  1  0  0  0  0
 17 18  2  0  0  0  0
 18 21  1  0  0  0  0
 19 21  1  0  0  0  0
 20 19  2  0  0  0  0
 22  3  1  0  0  0  0
 24 23  1  1  0  0  0
 24 22  1  0  0  0  0
 25 24  1  0  0  0  0
 26 25  1  0  0  0  0
 27 30  1  0  0  0  0
 27 26  1  0  0  0  0
 29 30  1  0  0  0  0
 30 28  1  0  0  0  0
M  END
>  <MODEL>
8

>  <REMARK>
 VINA RESULT:      -6.2      1.645      2.985
  Name = 
  9 active torsions:
  status: ('A' for Active; 'I' for Inactive)
    1  A    between atoms: C_2  and  C_19
    2  A    between atoms: C_3  and  C_22
    3  A    between atoms: C_5  and  N_11
    4  A    between atoms: C_5  and  C_15
    5  A    between atoms: C_8  and  C_19
    6  A    between atoms: N_11  and  N_26
    7  A    between atoms: N_14  and  C_18
    8  A    between atoms: C_15  and  C_17
    9  A    between atoms: C_17  and  C_22
                            x       y       z     vdW  Elec       q    Type
                         _______ _______ _______ _____ _____    ______ ____

>  <TORSDO>
F 9

$$$$
=
 OpenBabel10222417393D

 30 31  0  0  1  0  0  0  0  0999 V2000
  187.0040  178.1520  141.6550 C   0  0  0  0  0  2  0  0  0  0  0  0
  189.6980  177.4050  139.6090 C   0  0  0  0  0  0  0  0  0  0  0  0
  187.3930  177.8760  138.6660 C   0  0  0  0  0  0  0  0  0  0  0  0
  188.0410  178.5820  140.9570 C   0  0  0  0  0  2  0  0  0  0  0  0
  186.3670  178.6110  138.6860 O   0  0  0  0  0  0  0  0  0  0  0  0
  189.1890  176.9460  142.8660 C   0  0  0  0  0  0  0  0  0  0  0  0
  187.1330  178.3070  143.1290 C   0  0  0  0  0  2  0  0  0  0  0  0
  188.1950  177.3410  143.6480 C   0  0  0  0  0  0  0  0  0  0  0  0
  188.3750  177.9830  139.7180 N   0  0  0  0  0  0  0  0  0  0  0  0
  190.3990  176.8370  140.6260 C   0  0  0  0  0  3  0  0  0  0  0  0
  190.1720  176.5640  142.0830 C   0  0  0  0  0  3  0  0  0  0  0  0
  188.9130  176.7610  147.4200 C   0  0  0  0  0  1  0  0  0  0  0  0
  189.0700  177.3300  146.0550 C   0  0  0  0  0  0  0  0  0  0  0  0
  188.1920  176.8950  145.0110 N   0  0  0  0  0  2  0  0  0  0  0  0
  189.9670  178.1870  145.8430 O   0  0  0  0  0  0  0  0  0  0  0  0
  190.4120  177.4800  138.2970 C   0  0  0  0  0  2  0  0  0  0  0  0
  191.1470  176.2100  138.0280 C   0  0  0  0  0  0  0  0  0  0  0  0
  190.5640  175.0030  137.9630 N   0  0  0  0  0  0  0  0  0  0  0  0
  192.6830  174.7490  137.6030 C   0  0  0  0  0  3  0  0  0  0  0  0
  192.5030  176.1080  137.8050 C   0  0  0  0  0  3  0  0  0  0  0  0
  191.5140  174.1570  137.7070 O   0  0  0  0  0  0  0  0  0  0  0  0
  187.5220  176.8420  137.5870 C   0  0  0  0  0  2  0  0  0  0  0  0
  187.8200  177.7540  135.3450 N   0  0  0  0  0  1  0  0  0  0  0  0
  186.8350  177.2740  136.3010 C   0  0  1  0  0  3  0  0  0  0  0  0
  186.0880  176.0870  135.7150 C   0  0  0  0  0  2  0  0  0  0  0  0
  184.6230  176.4190  135.4860 C   0  0  0  0  0  2  0  0  0  0  0  0
  184.0680  177.0610  136.6670 N   0  0  0  0  0  2  0  0  0  0  0  0
  183.3210  175.4600  138.1250 C   0  0  0  0  0  1  0  0  0  0  0  0
  181.9800  177.2830  137.5830 C   0  0  0  0  0  1  0  0  0  0  0  0
  182.9290  176.3320  137.0320 N   0  0  0  0  0  0  0  0  0  0  0  0
  1  7  1  0  0  0  0
  2  9  1  0  0  0  0
  2 10  2  0  0  0  0
  3  5  2  0  0  0  0
  3  9  1  0  0  0  0
  4  1  1  0  0  0  0
  6  8  2  0  0  0  0
  7  8  1  0  0  0  0
  8 14  1  0  0  0  0
  9  4  1  0  0  0  0
 10 11  1  0  0  0  0
 11  6  2  0  0  0  0
 13 12  1  0  0  0  0
 14 13  1  0  0  0  0
 15 13  2  0  0  0  0
 16  2  1  0  0  0  0
 17 16  1  0  0  0  0
 18 17  2  0  0  0  0
 19 21  1  0  0  0  0
 19 20  2  0  0  0  0
 20 17  1  0  0  0  0
 21 18  1  0  0  0  0
 22  3  1  0  0  0  0
 24 23  1  6  0  0  0
 24 22  1  0  0  0  0
 25 24  1  0  0  0  0
 26 25  1  0  0  0  0
 26 27  1  0  0  0  0
 27 30  1  0  0  0  0
 30 29  1  0  0  0  0
 30 28  1  0  0  0  0
M  END
>  <MODEL>
9

>  <REMARK>
 VINA RESULT:      -6.2      2.554      4.923
  Name = 
  9 active torsions:
  status: ('A' for Active; 'I' for Inactive)
    1  A    between atoms: C_2  and  C_19
    2  A    between atoms: C_3  and  C_22
    3  A    between atoms: C_5  and  N_11
    4  A    between atoms: C_5  and  C_15
    5  A    between atoms: C_8  and  C_19
    6  A    between atoms: N_11  and  N_26
    7  A    between atoms: N_14  and  C_18
    8  A    between atoms: C_15  and  C_17
    9  A    between atoms: C_17  and  C_22
                            x       y       z     vdW  Elec       q    Type
                         _______ _______ _______ _____ _____    ______ ____

>  <TORSDO>
F 9

$$$$
