=
 OpenBabel10222420053D

 27 31  0  0  1  0  0  0  0  0999 V2000
  185.2670  178.7360  140.9410 C   0  0  0  0  0  3  0  0  0  0  0  0
  183.9440  178.7550  141.3880 C   0  0  0  0  0  3  0  0  0  0  0  0
  183.6560  178.4880  142.7290 C   0  0  0  0  0  3  0  0  0  0  0  0
  186.3130  178.4620  141.8310 C   0  0  0  0  0  0  0  0  0  0  0  0
  184.6930  178.2120  143.6260 C   0  0  0  0  0  3  0  0  0  0  0  0
  186.0260  178.2060  143.1920 C   0  0  0  0  0  0  0  0  0  0  0  0
  188.0240  178.1030  148.8520 O   0  0  0  0  0  0  0  0  0  0  0  0
  187.9220  177.8500  146.4560 C   0  0  0  0  0  0  0  0  0  0  0  0
  186.0690  178.6470  147.6220 N   0  0  0  0  0  0  0  0  0  0  0  0
  187.0890  177.9140  144.1710 C   0  0  0  0  0  0  0  0  0  0  0  0
  189.1320  177.3330  146.0150 C   0  0  0  0  0  0  0  0  0  0  0  0
  188.3250  177.3830  143.7260 C   0  0  0  0  0  3  0  0  0  0  0  0
  191.1650  176.5050  145.7900 C   0  0  0  0  0  3  0  0  0  0  0  0
  185.8300  178.5790  146.2050 C   0  0  0  0  0  3  0  0  0  0  0  0
  190.3270  176.9430  146.7350 C   0  0  0  0  0  2  0  0  0  0  0  0
  189.3230  177.1050  144.6740 C   0  0  0  0  0  0  0  0  0  0  0  0
  187.4070  178.1850  147.7570 C   0  0  0  0  0  0  0  0  0  0  0  0
  190.5250  176.6030  144.4620 C   0  0  0  0  0  3  0  0  0  0  0  0
  186.9110  178.1270  145.5600 C   0  0  0  0  0  0  0  0  0  0  0  0
  189.0120  178.9650  141.1530 C   0  0  0  0  0  2  0  0  0  0  0  0
  188.7490  177.7510  140.5410 C   0  0  1  0  0  3  0  0  0  0  0  0
  187.6460  178.3890  141.3250 N   0  0  0  0  0  0  0  0  0  0  0  0
  188.9100  179.0130  138.3780 N   0  0  0  0  0  1  0  0  0  0  0  0
  188.3950  177.8210  139.0430 C   0  0  1  0  0  3  0  0  0  0  0  0
  188.1910  176.0550  137.4440 O   0  0  0  0  0  0  0  0  0  0  0  0
  190.1390  176.0300  138.7060 N   0  0  0  0  0  1  0  0  0  0  0  0
  188.8860  176.5990  138.3430 C   0  0  0  0  0  0  0  0  0  0  0  0
  1  2  2  0  0  0  0
  1  4  1  0  0  0  0
  2  3  1  0  0  0  0
  3  5  2  0  0  0  0
  4  6  2  0  0  0  0
  6  5  1  0  0  0  0
  6 10  1  0  0  0  0
  8 17  1  0  0  0  0
  9 17  1  0  0  0  0
 10 19  1  0  0  0  0
 11  8  1  0  0  0  0
 11 15  1  0  0  0  0
 12 10  2  0  0  0  0
 12 16  1  0  0  0  0
 13 15  1  0  0  0  0
 14  9  2  0  0  0  0
 16 11  2  0  0  0  0
 17  7  2  0  0  0  0
 18 16  1  0  0  0  0
 18 13  2  0  0  0  0
 19 14  1  0  0  0  0
 19  8  2  0  0  0  0
 20 22  1  0  0  0  0
 21 24  1  6  0  0  0
 21 20  1  0  0  0  0
 21 22  1  0  0  0  0
 22  4  1  0  0  0  0
 24 23  1  6  0  0  0
 25 27  2  0  0  0  0
 27 26  1  0  0  0  0
 27 24  1  0  0  0  0
M  END
>  <MODEL>
1

>  <REMARK>
 VINA RESULT:      -9.7      0.000      0.000
  Name = 
  4 active torsions:
  status: ('A' for Active; 'I' for Inactive)
    1  A    between atoms: C_6  and  C_22
    2  A    between atoms: C_9  and  C_12
    3  A    between atoms: C_12  and  C_25
    4  A    between atoms: N_13  and  C_20
                            x       y       z     vdW  Elec       q    Type
                         _______ _______ _______ _____ _____    ______ ____

>  <TORSDO>
F 4

$$$$
=
 OpenBabel10222420053D

 27 31  0  0  1  0  0  0  0  0999 V2000
  187.8800  177.6060  146.5480 C   0  0  0  0  0  3  0  0  0  0  0  0
  187.2950  178.2490  147.6410 C   0  0  0  0  0  3  0  0  0  0  0  0
  186.1160  178.9800  147.4720 C   0  0  0  0  0  3  0  0  0  0  0  0
  187.2870  177.6800  145.2810 C   0  0  0  0  0  0  0  0  0  0  0  0
  185.5170  179.0610  146.2120 C   0  0  0  0  0  3  0  0  0  0  0  0
  186.0870  178.4060  145.1110 C   0  0  0  0  0  0  0  0  0  0  0  0
  181.0900  178.9180  141.8210 O   0  0  0  0  0  0  0  0  0  0  0  0
  183.4140  178.7330  142.4400 C   0  0  0  0  0  0  0  0  0  0  0  0
  181.7720  178.8230  144.0920 N   0  0  0  0  0  2  0  0  0  0  0  0
  185.4200  178.5140  143.8000 C   0  0  0  0  0  0  0  0  0  0  0  0
  184.1800  178.7310  141.2840 C   0  0  0  0  0  0  0  0  0  0  0  0
  186.1990  178.5160  142.6160 C   0  0  0  0  0  3  0  0  0  0  0  0
  184.9680  178.7890  139.2230 C   0  0  0  0  0  3  0  0  0  0  0  0
  183.0930  178.6950  144.6460 C   0  0  0  0  0  3  0  0  0  0  0  0
  183.8100  178.8370  139.8870 C   0  0  0  0  0  3  0  0  0  0  0  0
  185.5470  178.6260  141.3760 C   0  0  0  0  0  0  0  0  0  0  0  0
  182.0000  178.8370  142.6870 C   0  0  0  0  0  0  0  0  0  0  0  0
  186.0910  178.6570  140.1740 C   0  0  0  0  0  3  0  0  0  0  0  0
  184.0150  178.6380  143.6790 C   0  0  0  0  0  0  0  0  0  0  0  0
  188.1510  175.9080  143.2530 C   0  0  0  0  0  2  0  0  0  0  0  0
  188.9720  177.0100  143.0860 C   0  0  1  0  0  3  0  0  0  0  0  0
  187.9470  177.0630  144.1760 N   0  0  0  0  0  0  0  0  0  0  0  0
  190.9880  175.5940  143.5610 N   0  0  0  0  0  1  0  0  0  0  0  0
  190.3690  176.9050  143.7250 C   0  0  1  0  0  3  0  0  0  0  0  0
  191.7450  177.8510  142.0130 O   0  0  0  0  0  0  0  0  0  0  0  0
  191.5990  179.0930  143.9690 N   0  0  0  0  0  1  0  0  0  0  0  0
  191.2660  177.9610  143.1730 C   0  0  0  0  0  0  0  0  0  0  0  0
  1  2  1  0  0  0  0
  3  2  2  0  0  0  0
  4  1  2  0  0  0  0
  5  3  1  0  0  0  0
  6  4  1  0  0  0  0
  6  5  2  0  0  0  0
  7 17  2  0  0  0  0
  8 17  1  0  0  0  0
  8 19  1  0  0  0  0
  9 14  1  0  0  0  0
 10  6  1  0  0  0  0
 11 16  1  0  0  0  0
 11  8  2  0  0  0  0
 12 10  2  0  0  0  0
 13 15  2  0  0  0  0
 13 18  1  0  0  0  0
 15 11  1  0  0  0  0
 16 12  1  0  0  0  0
 17  9  1  0  0  0  0
 18 16  2  0  0  0  0
 19 10  1  0  0  0  0
 19 14  2  0  0  0  0
 20 22  1  0  0  0  0
 21 20  1  0  0  0  0
 21 24  1  1  0  0  0
 21 22  1  0  0  0  0
 22  4  1  0  0  0  0
 24 23  1  6  0  0  0
 25 27  2  0  0  0  0
 27 24  1  0  0  0  0
 27 26  1  0  0  0  0
M  END
>  <MODEL>
2

>  <REMARK>
 VINA RESULT:      -9.6      3.025      5.788
  Name = 
  4 active torsions:
  status: ('A' for Active; 'I' for Inactive)
    1  A    between atoms: C_6  and  C_22
    2  A    between atoms: C_9  and  C_12
    3  A    between atoms: C_12  and  C_25
    4  A    between atoms: N_13  and  C_20
                            x       y       z     vdW  Elec       q    Type
                         _______ _______ _______ _____ _____    ______ ____

>  <TORSDO>
F 4

$$$$
=
 OpenBabel10222420053D

 27 31  0  0  1  0  0  0  0  0999 V2000
  184.0260  178.9950  144.1800 C   0  0  0  0  0  3  0  0  0  0  0  0
  183.5300  178.8930  145.4810 C   0  0  0  0  0  3  0  0  0  0  0  0
  184.3380  178.3770  146.4970 C   0  0  0  0  0  3  0  0  0  0  0  0
  185.3350  178.5930  143.8860 C   0  0  0  0  0  0  0  0  0  0  0  0
  185.6460  177.9720  146.2150 C   0  0  0  0  0  3  0  0  0  0  0  0
  186.1600  178.0850  144.9150 C   0  0  0  0  0  0  0  0  0  0  0  0
  191.7110  176.9240  146.8850 O   0  0  0  0  0  0  0  0  0  0  0  0
  189.8010  177.1600  145.4320 C   0  0  0  0  0  0  0  0  0  0  0  0
  189.5950  177.6130  147.7080 N   0  0  0  0  0  2  0  0  0  0  0  0
  187.5460  177.6500  144.6610 C   0  0  0  0  0  0  0  0  0  0  0  0
  190.1780  176.8030  144.1450 C   0  0  0  0  0  0  0  0  0  0  0  0
  187.9340  177.2810  143.3490 C   0  0  0  0  0  3  0  0  0  0  0  0
  191.2080  176.1370  142.3100 C   0  0  0  0  0  3  0  0  0  0  0  0
  188.3620  177.8250  146.9990 C   0  0  0  0  0  3  0  0  0  0  0  0
  191.4400  176.3320  143.6120 C   0  0  0  0  0  3  0  0  0  0  0  0
  189.2570  176.8630  143.1270 C   0  0  0  0  0  0  0  0  0  0  0  0
  190.4980  177.1980  146.6900 C   0  0  0  0  0  0  0  0  0  0  0  0
  189.8050  176.4730  141.9920 C   0  0  0  0  0  3  0  0  0  0  0  0
  188.5090  177.5660  145.6950 C   0  0  0  0  0  0  0  0  0  0  0  0
  186.7430  179.1350  141.4940 C   0  0  0  0  0  2  0  0  0  0  0  0
  185.6800  178.3570  141.0700 C   0  0  1  0  0  3  0  0  0  0  0  0
  185.7860  178.6530  142.5320 N   0  0  0  0  0  0  0  0  0  0  0  0
  184.7380  179.7330  139.1940 N   0  0  0  0  0  1  0  0  0  0  0  0
  184.4760  179.1260  140.4950 C   0  0  1  0  0  3  0  0  0  0  0  0
  183.3350  177.1760  139.7100 O   0  0  0  0  0  0  0  0  0  0  0  0
  182.0890  178.5670  141.0890 N   0  0  0  0  0  1  0  0  0  0  0  0
  183.2890  178.2270  140.4040 C   0  0  0  0  0  0  0  0  0  0  0  0
  1  2  1  0  0  0  0
  2  3  2  0  0  0  0
  4  1  2  0  0  0  0
  4  6  1  0  0  0  0
  5  3  1  0  0  0  0
  6  5  2  0  0  0  0
  8 19  1  0  0  0  0
  8 17  1  0  0  0  0
 10  6  1  0  0  0  0
 10 19  1  0  0  0  0
 11  8  2  0  0  0  0
 12 10  2  0  0  0  0
 13 15  2  0  0  0  0
 14  9  1  0  0  0  0
 15 11  1  0  0  0  0
 16 12  1  0  0  0  0
 16 11  1  0  0  0  0
 17  7  2  0  0  0  0
 17  9  1  0  0  0  0
 18 13  1  0  0  0  0
 18 16  2  0  0  0  0
 19 14  2  0  0  0  0
 20 22  1  0  0  0  0
 21 24  1  6  0  0  0
 21 20  1  0  0  0  0
 21 22  1  0  0  0  0
 22  4  1  0  0  0  0
 24 23  1  6  0  0  0
 25 27  2  0  0  0  0
 27 24  1  0  0  0  0
 27 26  1  0  0  0  0
M  END
>  <MODEL>
3

>  <REMARK>
 VINA RESULT:      -9.4      2.549      3.655
  Name = 
  4 active torsions:
  status: ('A' for Active; 'I' for Inactive)
    1  A    between atoms: C_6  and  C_22
    2  A    between atoms: C_9  and  C_12
    3  A    between atoms: C_12  and  C_25
    4  A    between atoms: N_13  and  C_20
                            x       y       z     vdW  Elec       q    Type
                         _______ _______ _______ _____ _____    ______ ____

>  <TORSDO>
F 4

$$$$
=
 OpenBabel10222420053D

 27 31  0  0  1  0  0  0  0  0999 V2000
  190.2890  176.7230  146.2120 C   0  0  0  0  0  3  0  0  0  0  0  0
  190.1400  177.1910  147.5200 C   0  0  0  0  0  3  0  0  0  0  0  0
  189.0150  177.9420  147.8690 C   0  0  0  0  0  3  0  0  0  0  0  0
  189.3100  176.9920  145.2470 C   0  0  0  0  0  0  0  0  0  0  0  0
  188.0320  178.2160  146.9130 C   0  0  0  0  0  3  0  0  0  0  0  0
  188.1630  177.7380  145.6010 C   0  0  0  0  0  0  0  0  0  0  0  0
  182.4430  179.0700  144.3530 O   0  0  0  0  0  0  0  0  0  0  0  0
  184.7940  178.5990  144.0890 C   0  0  0  0  0  0  0  0  0  0  0  0
  183.8530  178.6680  146.2200 N   0  0  0  0  0  2  0  0  0  0  0  0
  187.1020  178.0480  144.6250 C   0  0  0  0  0  0  0  0  0  0  0  0
  185.1050  178.6480  142.7370 C   0  0  0  0  0  0  0  0  0  0  0  0
  187.4160  178.1020  143.2440 C   0  0  0  0  0  3  0  0  0  0  0  0
  185.1290  178.8500  140.5400 C   0  0  0  0  0  3  0  0  0  0  0  0
  185.2570  178.3580  146.2560 C   0  0  0  0  0  3  0  0  0  0  0  0
  184.2890  178.9370  141.5760 C   0  0  0  0  0  3  0  0  0  0  0  0
  186.3940  178.4040  142.3290 C   0  0  0  0  0  0  0  0  0  0  0  0
  183.5790  178.8110  144.8310 C   0  0  0  0  0  0  0  0  0  0  0  0
  186.4850  178.5110  141.0170 C   0  0  0  0  0  3  0  0  0  0  0  0
  185.7700  178.3170  145.0220 C   0  0  0  0  0  0  0  0  0  0  0  0
  189.8390  175.4790  142.9170 C   0  0  0  0  0  2  0  0  0  0  0  0
  189.6760  176.7650  142.4330 C   0  0  1  0  0  3  0  0  0  0  0  0
  189.5270  176.5520  143.9070 N   0  0  0  0  0  0  0  0  0  0  0  0
  192.1090  177.0790  142.9660 N   0  0  0  0  0  1  0  0  0  0  0  0
  190.9760  177.5510  142.1760 C   0  0  1  0  0  3  0  0  0  0  0  0
  190.4110  177.5090  139.8520 O   0  0  0  0  0  0  0  0  0  0  0  0
  192.6840  177.4600  140.3220 N   0  0  0  0  0  1  0  0  0  0  0  0
  191.3190  177.5120  140.7250 C   0  0  0  0  0  0  0  0  0  0  0  0
  1  2  1  0  0  0  0
  2  3  2  0  0  0  0
  4  6  1  0  0  0  0
  4  1  2  0  0  0  0
  5  3  1  0  0  0  0
  6  5  2  0  0  0  0
  7 17  2  0  0  0  0
  8 17  1  0  0  0  0
  8 19  1  0  0  0  0
  9 14  1  0  0  0  0
 10 19  1  0  0  0  0
 10  6  1  0  0  0  0
 11  8  2  0  0  0  0
 12 10  2  0  0  0  0
 13 18  1  0  0  0  0
 13 15  2  0  0  0  0
 15 11  1  0  0  0  0
 16 11  1  0  0  0  0
 16 12  1  0  0  0  0
 17  9  1  0  0  0  0
 18 16  2  0  0  0  0
 19 14  2  0  0  0  0
 20 22  1  0  0  0  0
 21 24  1  1  0  0  0
 21 20  1  0  0  0  0
 21 22  1  0  0  0  0
 22  4  1  0  0  0  0
 24 23  1  1  0  0  0
 25 27  2  0  0  0  0
 26 27  1  0  0  0  0
 27 24  1  0  0  0  0
M  END
>  <MODEL>
4

>  <REMARK>
 VINA RESULT:      -9.1      2.455      5.035
  Name = 
  4 active torsions:
  status: ('A' for Active; 'I' for Inactive)
    1  A    between atoms: C_6  and  C_22
    2  A    between atoms: C_9  and  C_12
    3  A    between atoms: C_12  and  C_25
    4  A    between atoms: N_13  and  C_20
                            x       y       z     vdW  Elec       q    Type
                         _______ _______ _______ _____ _____    ______ ____

>  <TORSDO>
F 4

$$$$
=
 OpenBabel10222420053D

 27 31  0  0  1  0  0  0  0  0999 V2000
  187.5590  178.1880  146.6940 C   0  0  0  0  0  3  0  0  0  0  0  0
  186.1900  178.1400  146.9640 C   0  0  0  0  0  3  0  0  0  0  0  0
  185.2750  178.0060  145.9170 C   0  0  0  0  0  3  0  0  0  0  0  0
  188.0260  178.0920  145.3770 C   0  0  0  0  0  0  0  0  0  0  0  0
  185.7300  177.9110  144.5980 C   0  0  0  0  0  3  0  0  0  0  0  0
  187.1030  177.9420  144.3160 C   0  0  0  0  0  0  0  0  0  0  0  0
  186.1650  178.9180  138.4670 O   0  0  0  0  0  0  0  0  0  0  0  0
  187.1940  178.2260  140.5360 C   0  0  0  0  0  0  0  0  0  0  0  0
  185.1430  179.3320  140.5680 N   0  0  0  0  0  0  0  0  0  0  0  0
  187.5410  177.8340  142.9120 C   0  0  0  0  0  0  0  0  0  0  0  0
  188.4100  177.6250  140.2440 C   0  0  0  0  0  0  0  0  0  0  0  0
  188.7840  177.2240  142.6100 C   0  0  0  0  0  3  0  0  0  0  0  0
  190.2310  176.7880  139.3210 C   0  0  0  0  0  3  0  0  0  0  0  0
  185.5920  178.9830  141.8890 C   0  0  0  0  0  3  0  0  0  0  0  0
  189.0910  177.3980  138.9860 C   0  0  0  0  0  3  0  0  0  0  0  0
  189.1870  177.1360  141.2670 C   0  0  0  0  0  0  0  0  0  0  0  0
  186.1740  178.8350  139.7230 C   0  0  0  0  0  0  0  0  0  0  0  0
  190.3020  176.6190  140.7870 C   0  0  0  0  0  3  0  0  0  0  0  0
  186.7650  178.3430  141.8420 C   0  0  1  0  0  3  0  0  0  0  0  0
  190.5750  178.6330  144.2790 C   0  0  0  0  0  2  0  0  0  0  0  0
  190.8690  177.9830  145.4650 C   0  0  1  0  0  3  0  0  0  0  0  0
  189.4270  178.2090  145.1330 N   0  0  0  0  0  0  0  0  0  0  0  0
  191.8670  176.1210  144.1090 N   0  0  0  0  0  1  0  0  0  0  0  0
  191.1740  176.4780  145.3430 C   0  0  1  0  0  3  0  0  0  0  0  0
  192.6080  174.9350  146.4750 O   0  0  0  0  0  0  0  0  0  0  0  0
  191.9850  176.8000  147.7090 N   0  0  0  0  0  1  0  0  0  0  0  0
  191.9670  176.0190  146.5200 C   0  0  0  0  0  0  0  0  0  0  0  0
  1  2  1  0  0  0  0
  3  2  2  0  0  0  0
  4  1  2  0  0  0  0
  5  3  1  0  0  0  0
  6  5  2  0  0  0  0
  6  4  1  0  0  0  0
  7 17  2  0  0  0  0
  8 19  1  0  0  0  0
  9 14  2  0  0  0  0
 10  6  1  0  0  0  0
 11  8  2  0  0  0  0
 11 16  1  0  0  0  0
 12 10  2  0  0  0  0
 13 18  1  0  0  0  0
 15 13  2  0  0  0  0
 15 11  1  0  0  0  0
 16 12  1  0  0  0  0
 17  8  1  0  0  0  0
 17  9  1  0  0  0  0
 18 16  2  0  0  0  0
 19 14  1  1  0  0  0
 19 10  1  0  0  0  0
 20 22  1  0  0  0  0
 20 21  1  0  0  0  0
 21 24  1  6  0  0  0
 22  4  1  0  0  0  0
 22 21  1  0  0  0  0
 24 23  1  6  0  0  0
 24 27  1  0  0  0  0
 25 27  2  0  0  0  0
 27 26  1  0  0  0  0
M  END
>  <MODEL>
5

>  <REMARK>
 VINA RESULT:      -9.0      2.547      6.072
  Name = 
  4 active torsions:
  status: ('A' for Active; 'I' for Inactive)
    1  A    between atoms: C_6  and  C_22
    2  A    between atoms: C_9  and  C_12
    3  A    between atoms: C_12  and  C_25
    4  A    between atoms: N_13  and  C_20
                            x       y       z     vdW  Elec       q    Type
                         _______ _______ _______ _____ _____    ______ ____

>  <TORSDO>
F 4

$$$$
=
 OpenBabel10222420053D

 27 31  0  0  1  0  0  0  0  0999 V2000
  191.4330  177.5030  141.1740 C   0  0  0  0  0  3  0  0  0  0  0  0
  191.1390  177.0680  139.8800 C   0  0  0  0  0  3  0  0  0  0  0  0
  189.8110  176.8630  139.4970 C   0  0  0  0  0  3  0  0  0  0  0  0
  190.4040  177.7460  142.0920 C   0  0  0  0  0  0  0  0  0  0  0  0
  188.7760  177.1030  140.4060 C   0  0  0  0  0  3  0  0  0  0  0  0
  189.0590  177.5550  141.7020 C   0  0  0  0  0  0  0  0  0  0  0  0
  183.4410  179.4110  142.7230 O   0  0  0  0  0  0  0  0  0  0  0  0
  185.6600  178.5330  143.0710 C   0  0  0  0  0  0  0  0  0  0  0  0
  184.9610  179.1140  140.9250 N   0  0  0  0  0  0  0  0  0  0  0  0
  187.9370  177.7980  142.6280 C   0  0  0  0  0  0  0  0  0  0  0  0
  185.8120  178.2400  144.4190 C   0  0  0  0  0  0  0  0  0  0  0  0
  188.0870  177.4970  144.0050 C   0  0  0  0  0  3  0  0  0  0  0  0
  185.5880  177.9160  146.5900 C   0  0  0  0  0  3  0  0  0  0  0  0
  186.3150  178.6280  140.9420 C   0  0  0  0  0  3  0  0  0  0  0  0
  184.8970  178.3580  145.5350 C   0  0  0  0  0  2  0  0  0  0  0  0
  187.0050  177.7300  144.8710 C   0  0  0  0  0  0  0  0  0  0  0  0
  184.5680  179.0520  142.2910 C   0  0  0  0  0  0  0  0  0  0  0  0
  186.9440  177.5070  146.1700 C   0  0  0  0  0  3  0  0  0  0  0  0
  186.6930  178.3090  142.1850 C   0  0  0  0  0  0  0  0  0  0  0  0
  191.6420  178.8210  144.3960 C   0  0  0  0  0  2  0  0  0  0  0  0
  190.5580  178.1300  144.9080 C   0  0  1  0  0  3  0  0  0  0  0  0
  190.7460  178.1280  143.4240 N   0  0  0  0  0  0  0  0  0  0  0  0
  192.0520  176.1140  144.8630 N   0  0  0  0  0  1  0  0  0  0  0  0
  190.8590  176.7190  145.4470 C   0  0  1  0  0  3  0  0  0  0  0  0
  190.0160  177.1280  147.6470 O   0  0  0  0  0  0  0  0  0  0  0  0
  192.2100  176.3780  147.5480 N   0  0  0  0  0  1  0  0  0  0  0  0
  190.9830  176.7530  146.9330 C   0  0  0  0  0  0  0  0  0  0  0  0
  1  4  1  0  0  0  0
  2  1  2  0  0  0  0
  3  2  1  0  0  0  0
  3  5  2  0  0  0  0
  4 22  1  0  0  0  0
  5  6  1  0  0  0  0
  6  4  2  0  0  0  0
  6 10  1  0  0  0  0
  8 11  1  0  0  0  0
  9 14  2  0  0  0  0
  9 17  1  0  0  0  0
 10 12  2  0  0  0  0
 11 16  2  0  0  0  0
 11 15  1  0  0  0  0
 12 16  1  0  0  0  0
 14 19  1  0  0  0  0
 15 13  1  0  0  0  0
 16 18  1  0  0  0  0
 17  7  2  0  0  0  0
 17  8  1  0  0  0  0
 18 13  2  0  0  0  0
 19 10  1  0  0  0  0
 19  8  2  0  0  0  0
 20 21  1  0  0  0  0
 21 24  1  1  0  0  0
 22 20  1  0  0  0  0
 22 21  1  0  0  0  0
 24 23  1  6  0  0  0
 24 27  1  0  0  0  0
 27 26  1  0  0  0  0
 27 25  2  0  0  0  0
M  END
>  <MODEL>
6

>  <REMARK>
 VINA RESULT:      -8.8      2.789      5.917
  Name = 
  4 active torsions:
  status: ('A' for Active; 'I' for Inactive)
    1  A    between atoms: C_6  and  C_22
    2  A    between atoms: C_9  and  C_12
    3  A    between atoms: C_12  and  C_25
    4  A    between atoms: N_13  and  C_20
                            x       y       z     vdW  Elec       q    Type
                         _______ _______ _______ _____ _____    ______ ____

>  <TORSDO>
F 4

$$$$
=
 OpenBabel10222420053D

 27 31  0  0  1  0  0  0  0  0999 V2000
  191.1290  177.0410  142.0570 C   0  0  0  0  0  3  0  0  0  0  0  0
  191.8840  176.5320  143.1160 C   0  0  0  0  0  3  0  0  0  0  0  0
  191.3070  176.3920  144.3810 C   0  0  0  0  0  3  0  0  0  0  0  0
  189.7900  177.4050  142.2510 C   0  0  0  0  0  0  0  0  0  0  0  0
  189.9720  176.7530  144.5850 C   0  0  0  0  0  3  0  0  0  0  0  0
  189.2000  177.2500  143.5260 C   0  0  0  0  0  0  0  0  0  0  0  0
  184.7960  178.6910  147.3440 O   0  0  0  0  0  0  0  0  0  0  0  0
  185.9920  178.2130  145.3050 C   0  0  0  0  0  0  0  0  0  0  0  0
  187.1160  178.1890  147.3460 N   0  0  0  0  0  2  0  0  0  0  0  0
  187.7940  177.6150  143.7830 C   0  0  0  0  0  0  0  0  0  0  0  0
  185.1100  178.3220  144.2400 C   0  0  0  0  0  0  0  0  0  0  0  0
  186.8910  177.7310  142.6980 C   0  0  0  0  0  3  0  0  0  0  0  0
  183.3890  178.6280  142.8920 C   0  0  0  0  0  3  0  0  0  0  0  0
  187.9830  177.8650  146.2460 C   0  0  0  0  0  3  0  0  0  0  0  0
  183.7050  178.6730  144.1900 C   0  0  0  0  0  3  0  0  0  0  0  0
  185.5570  178.0860  142.9620 C   0  0  0  0  0  0  0  0  0  0  0  0
  185.8530  178.3990  146.7250 C   0  0  0  0  0  0  0  0  0  0  0  0
  184.5760  178.2540  142.0960 C   0  0  0  0  0  3  0  0  0  0  0  0
  187.3130  177.8770  145.0890 C   0  0  0  0  0  0  0  0  0  0  0  0
  187.8640  178.6630  140.6070 C   0  0  0  0  0  2  0  0  0  0  0  0
  188.8750  178.3350  139.7210 C   0  0  1  0  0  3  0  0  0  0  0  0
  189.0700  177.9810  141.1610 N   0  0  0  0  0  0  0  0  0  0  0  0
  187.5570  177.1140  137.9690 N   0  0  0  0  0  1  0  0  0  0  0  0
  188.6640  177.0380  138.9170 C   0  0  1  0  0  3  0  0  0  0  0  0
  190.2390  177.2480  137.1290 O   0  0  0  0  0  0  0  0  0  0  0  0
  190.7540  175.6400  138.7220 N   0  0  0  0  0  1  0  0  0  0  0  0
  189.9190  176.6680  138.2010 C   0  0  0  0  0  0  0  0  0  0  0  0
  1  4  2  0  0  0  0
  1  2  1  0  0  0  0
  2  3  2  0  0  0  0
  3  5  1  0  0  0  0
  4  6  1  0  0  0  0
  6 10  1  0  0  0  0
  6  5  2  0  0  0  0
  8 17  1  0  0  0  0
 10 19  1  0  0  0  0
 11  8  2  0  0  0  0
 12 16  1  0  0  0  0
 12 10  2  0  0  0  0
 13 15  2  0  0  0  0
 14  9  1  0  0  0  0
 15 11  1  0  0  0  0
 16 11  1  0  0  0  0
 17  7  2  0  0  0  0
 17  9  1  0  0  0  0
 18 13  1  0  0  0  0
 18 16  2  0  0  0  0
 19  8  1  0  0  0  0
 19 14  2  0  0  0  0
 20 22  1  0  0  0  0
 21 24  1  6  0  0  0
 21 20  1  0  0  0  0
 21 22  1  0  0  0  0
 22  4  1  0  0  0  0
 24 23  1  6  0  0  0
 25 27  2  0  0  0  0
 27 26  1  0  0  0  0
 27 24  1  0  0  0  0
M  END
>  <MODEL>
7

>  <REMARK>
 VINA RESULT:      -8.8      1.435      4.263
  Name = 
  4 active torsions:
  status: ('A' for Active; 'I' for Inactive)
    1  A    between atoms: C_6  and  C_22
    2  A    between atoms: C_9  and  C_12
    3  A    between atoms: C_12  and  C_25
    4  A    between atoms: N_13  and  C_20
                            x       y       z     vdW  Elec       q    Type
                         _______ _______ _______ _____ _____    ______ ____

>  <TORSDO>
F 4

$$$$
=
 OpenBabel10222420053D

 27 31  0  0  1  0  0  0  0  0999 V2000
  183.2780  178.8710  143.6170 C   0  0  0  0  0  3  0  0  0  0  0  0
  183.3820  178.9430  145.0070 C   0  0  0  0  0  3  0  0  0  0  0  0
  184.6170  178.7380  145.6270 C   0  0  0  0  0  3  0  0  0  0  0  0
  184.4080  178.6050  142.8340 C   0  0  0  0  0  0  0  0  0  0  0  0
  185.7520  178.4710  144.8550 C   0  0  0  0  0  3  0  0  0  0  0  0
  185.6620  178.4120  143.4570 C   0  0  0  0  0  0  0  0  0  0  0  0
  191.2490  176.2410  143.1180 O   0  0  0  0  0  0  0  0  0  0  0  0
  189.1450  177.2490  142.5080 C   0  0  0  0  0  0  0  0  0  0  0  0
  189.4760  176.4670  144.6780 N   0  0  0  0  0  2  0  0  0  0  0  0
  186.8840  178.1310  142.6800 C   0  0  0  0  0  0  0  0  0  0  0  0
  189.1940  177.5970  141.1660 C   0  0  0  0  0  0  0  0  0  0  0  0
  186.9370  178.4820  141.3080 C   0  0  0  0  0  3  0  0  0  0  0  0
  189.7160  177.9450  139.0500 C   0  0  0  0  0  3  0  0  0  0  0  0
  188.1720  177.0490  144.5050 C   0  0  0  0  0  3  0  0  0  0  0  0
  190.2330  177.4330  140.1710 C   0  0  0  0  0  3  0  0  0  0  0  0
  188.1070  178.2010  140.5820 C   0  0  0  0  0  0  0  0  0  0  0  0
  190.0790  176.6110  143.3980 C   0  0  0  0  0  0  0  0  0  0  0  0
  188.3460  178.4380  139.3060 C   0  0  0  0  0  3  0  0  0  0  0  0
  188.0110  177.4970  143.2550 C   0  0  0  0  0  0  0  0  0  0  0  0
  184.2640  179.0550  140.0460 C   0  0  0  0  0  2  0  0  0  0  0  0
  183.9100  177.7230  140.1730 C   0  0  1  0  0  3  0  0  0  0  0  0
  184.2510  178.4750  141.4210 N   0  0  0  0  0  0  0  0  0  0  0  0
  181.6100  178.4440  139.4750 N   0  0  0  0  0  1  0  0  0  0  0  0
  182.3980  177.4300  140.1690 C   0  0  1  0  0  3  0  0  0  0  0  0
  181.0790  175.4620  139.8440 O   0  0  0  0  0  0  0  0  0  0  0  0
  183.0990  175.5040  138.7000 N   0  0  0  0  0  1  0  0  0  0  0  0
  182.1370  176.0890  139.5710 C   0  0  0  0  0  0  0  0  0  0  0  0
  1  2  1  0  0  0  0
  2  3  2  0  0  0  0
  4  6  1  0  0  0  0
  4  1  2  0  0  0  0
  5  3  1  0  0  0  0
  6  5  2  0  0  0  0
  7 17  2  0  0  0  0
  8 19  1  0  0  0  0
  8 17  1  0  0  0  0
 10 19  1  0  0  0  0
 10  6  1  0  0  0  0
 11  8  2  0  0  0  0
 12 10  2  0  0  0  0
 13 18  1  0  0  0  0
 13 15  2  0  0  0  0
 14  9  1  0  0  0  0
 15 11  1  0  0  0  0
 16 11  1  0  0  0  0
 16 12  1  0  0  0  0
 17  9  1  0  0  0  0
 18 16  2  0  0  0  0
 19 14  2  0  0  0  0
 20 21  1  0  0  0  0
 20 22  1  0  0  0  0
 21 24  1  1  0  0  0
 21 22  1  0  0  0  0
 22  4  1  0  0  0  0
 24 23  1  6  0  0  0
 26 27  1  0  0  0  0
 27 25  2  0  0  0  0
 27 24  1  0  0  0  0
M  END
>  <MODEL>
8

>  <REMARK>
 VINA RESULT:      -8.6      3.040      4.959
  Name = 
  4 active torsions:
  status: ('A' for Active; 'I' for Inactive)
    1  A    between atoms: C_6  and  C_22
    2  A    between atoms: C_9  and  C_12
    3  A    between atoms: C_12  and  C_25
    4  A    between atoms: N_13  and  C_20
                            x       y       z     vdW  Elec       q    Type
                         _______ _______ _______ _____ _____    ______ ____

>  <TORSDO>
F 4

$$$$
=
 OpenBabel10222420053D

 27 31  0  0  1  0  0  0  0  0999 V2000
  189.9350  177.2720  140.3370 C   0  0  0  0  0  3  0  0  0  0  0  0
  189.9760  177.8070  139.0480 C   0  0  0  0  0  3  0  0  0  0  0  0
  188.8770  178.5090  138.5480 C   0  0  0  0  0  3  0  0  0  0  0  0
  188.8000  177.4420  141.1410 C   0  0  0  0  0  0  0  0  0  0  0  0
  187.7390  178.6850  139.3420 C   0  0  0  0  0  3  0  0  0  0  0  0
  187.6930  178.1660  140.6430 C   0  0  0  0  0  0  0  0  0  0  0  0
  181.7490  178.9330  141.0120 O   0  0  0  0  0  0  0  0  0  0  0  0
  184.0670  178.6780  141.6290 C   0  0  0  0  0  0  0  0  0  0  0  0
  183.4370  178.5460  139.3890 N   0  0  0  0  0  0  0  0  0  0  0  0
  186.4740  178.3760  141.4470 C   0  0  0  0  0  0  0  0  0  0  0  0
  184.1680  178.7660  143.0100 C   0  0  0  0  0  0  0  0  0  0  0  0
  186.5730  178.4630  142.8580 C   0  0  0  0  0  3  0  0  0  0  0  0
  183.8430  178.9450  145.1860 C   0  0  0  0  0  3  0  0  0  0  0  0
  184.8560  178.3880  139.5640 C   0  0  0  0  0  3  0  0  0  0  0  0
  183.1620  178.9510  144.0360 C   0  0  0  0  0  2  0  0  0  0  0  0
  185.4010  178.6580  143.6080 C   0  0  0  0  0  0  0  0  0  0  0  0
  182.9570  178.7360  140.7150 C   0  0  0  0  0  0  0  0  0  0  0  0
  185.2830  178.7540  144.9190 C   0  0  0  0  0  3  0  0  0  0  0  0
  185.1910  178.4760  140.8560 C   0  0  0  0  0  0  0  0  0  0  0  0
  188.0410  176.1230  143.5240 C   0  0  0  0  0  2  0  0  0  0  0  0
  189.3760  176.4210  143.7350 C   0  0  1  0  0  3  0  0  0  0  0  0
  188.7700  176.8270  142.4280 N   0  0  0  0  0  0  0  0  0  0  0  0
  188.9180  177.7330  145.8250 N   0  0  0  0  0  1  0  0  0  0  0  0
  189.6540  177.6880  144.5650 C   0  0  1  0  0  3  0  0  0  0  0  0
  191.8260  178.5890  144.1280 O   0  0  0  0  0  0  0  0  0  0  0  0
  191.7190  177.0520  145.8660 N   0  0  0  0  0  1  0  0  0  0  0  0
  191.1160  177.8180  144.8280 C   0  0  0  0  0  0  0  0  0  0  0  0
  1  4  1  0  0  0  0
  2  1  2  0  0  0  0
  3  2  1  0  0  0  0
  3  5  2  0  0  0  0
  4 22  1  0  0  0  0
  5  6  1  0  0  0  0
  6  4  2  0  0  0  0
  6 10  1  0  0  0  0
  8 11  1  0  0  0  0
  9 14  2  0  0  0  0
  9 17  1  0  0  0  0
 10 12  2  0  0  0  0
 11 16  2  0  0  0  0
 11 15  1  0  0  0  0
 12 16  1  0  0  0  0
 14 19  1  0  0  0  0
 15 13  1  0  0  0  0
 16 18  1  0  0  0  0
 17  7  2  0  0  0  0
 17  8  1  0  0  0  0
 18 13  2  0  0  0  0
 19 10  1  0  0  0  0
 19  8  2  0  0  0  0
 20 21  1  0  0  0  0
 21 24  1  1  0  0  0
 22 20  1  0  0  0  0
 22 21  1  0  0  0  0
 24 27  1  0  0  0  0
 24 23  1  1  0  0  0
 25 27  2  0  0  0  0
 27 26  1  0  0  0  0
M  END
>  <MODEL>
9

>  <REMARK>
 VINA RESULT:      -8.6      2.752      6.156
  Name = 
  4 active torsions:
  status: ('A' for Active; 'I' for Inactive)
    1  A    between atoms: C_6  and  C_22
    2  A    between atoms: C_9  and  C_12
    3  A    between atoms: C_12  and  C_25
    4  A    between atoms: N_13  and  C_20
                            x       y       z     vdW  Elec       q    Type
                         _______ _______ _______ _____ _____    ______ ____

>  <TORSDO>
F 4

$$$$
