=
 OpenBabel10222417583D

 33 36  0  0  1  0  0  0  0  0999 V2000
  189.7020  177.2820  137.7550 C   0  0  0  0  0  0  0  0  0  0  0  0
  196.0410  174.2120  135.8330 C   0  0  0  0  0  1  0  0  0  0  0  0
  194.6410  174.5180  136.2410 C   0  0  0  0  0  0  0  0  0  0  0  0
  194.3120  175.8760  136.8250 C   0  0  2  0  0  3  0  0  0  0  0  0
  192.3510  173.8600  136.3920 C   0  0  0  0  0  0  0  0  0  0  0  0
  189.2280  176.5690  140.6620 O   0  0  0  0  0  0  0  0  0  0  0  0
  192.0470  174.9700  137.3170 C   0  0  0  0  0  0  0  0  0  0  0  0
  189.6340  174.5350  136.9360 C   0  0  1  0  0  3  0  0  0  0  0  0
  190.0130  173.1460  136.3880 C   0  0  0  0  0  2  0  0  0  0  0  0
  191.4120  173.0780  135.9520 N   0  0  0  0  0  0  0  0  0  0  0  0
  189.8790  175.3070  134.6250 O   0  0  0  0  0  1  0  0  0  0  0  0
  188.0540  178.6820  140.5760 C   0  0  0  0  0  2  0  0  0  0  0  0
  189.6580  177.0390  136.2610 C   0  0  0  0  0  2  0  0  0  0  0  0
  193.7040  173.6580  135.9690 N   0  0  0  0  0  0  0  0  0  0  0  0
  189.1690  177.8530  141.2200 C   0  0  1  0  0  3  0  0  0  0  0  0
  192.9960  175.8810  137.5600 C   0  0  0  0  0  3  0  0  0  0  0  0
  194.2530  176.8910  135.6970 C   0  0  0  0  0  1  0  0  0  0  0  0
  189.2250  178.6150  138.3090 C   0  0  1  0  0  3  0  0  0  0  0  0
  190.6810  175.0020  137.9600 C   0  0  2  0  0  3  0  0  0  0  0  0
  190.2700  176.3320  138.5480 C   0  0  0  0  0  0  0  0  0  0  0  0
  190.4680  176.5210  140.0180 C   0  0  0  0  0  2  0  0  0  0  0  0
  189.2900  175.6020  135.8570 C   0  0  2  0  0  3  0  0  0  0  0  0
  189.0510  179.5630  137.2900 O   0  0  0  0  0  1  0  0  0  0  0  0
  187.9090  178.4410  139.0640 C   0  0  0  0  0  2  0  0  0  0  0  0
  190.1360  178.1380  143.5190 N   0  0  0  0  0  2  0  0  0  0  0  0
  189.0320  177.7400  142.7050 C   0  0  0  0  0  0  0  0  0  0  0  0
  188.0030  177.2350  143.2290 O   0  0  0  0  0  0  0  0  0  0  0  0
  190.2720  177.7620  144.9220 C   0  0  0  0  0  2  0  0  0  0  0  0
  191.5660  176.9990  145.1630 C   0  0  2  0  0  3  0  0  0  0  0  0
  191.6870  175.9080  144.2130 N   0  0  0  0  0  1  0  0  0  0  0  0
  191.5780  176.4600  146.5570 C   0  0  0  0  0  0  0  0  0  0  0  0
  190.6560  176.9090  147.5010 O   0  0  0  0  0  1  0  0  0  0  0  0
  192.4330  175.5960  146.8820 O   0  0  0  0  0  0  0  0  0  0  0  0
  1 18  1  0  0  0  0
  1 20  2  0  0  0  0
  2  3  1  0  0  0  0
  3  4  1  0  0  0  0
  4 17  1  6  0  0  0
  4 16  1  0  0  0  0
  5  7  1  0  0  0  0
  6 15  1  0  0  0  0
  7 16  2  0  0  0  0
  8  9  1  6  0  0  0
  8 19  1  0  0  0  0
 10  9  1  0  0  0  0
 10  5  2  0  0  0  0
 12 15  1  0  0  0  0
 13  1  1  0  0  0  0
 14  3  2  0  0  0  0
 14  5  1  0  0  0  0
 15 26  1  1  0  0  0
 18 23  1  6  0  0  0
 18 24  1  0  0  0  0
 19  7  1  6  0  0  0
 19 20  1  0  0  0  0
 20 21  1  0  0  0  0
 21  6  1  0  0  0  0
 22 11  1  6  0  0  0
 22 13  1  0  0  0  0
 22  8  1  0  0  0  0
 24 12  1  0  0  0  0
 25 28  1  0  0  0  0
 26 27  2  0  0  0  0
 26 25  1  0  0  0  0
 28 29  1  0  0  0  0
 29 30  1  6  0  0  0
 29 31  1  0  0  0  0
 31 33  2  0  0  0  0
 31 32  1  0  0  0  0
M  END
>  <MODEL>
1

>  <REMARK>
 VINA RESULT:      -7.7      0.000      0.000
  Name = 
  4 active torsions:
  status: ('A' for Active; 'I' for Inactive)
    1  A    between atoms: CA_3  and  C_15
    2  A    between atoms: CA_3  and  C_28
    3  A    between atoms: C_17  and  C_20
    4  A    between atoms: N_19  and  C_28
                            x       y       z     vdW  Elec       q    Type
                         _______ _______ _______ _____ _____    ______ ____

>  <TORSDO>
F 4

$$$$
=
 OpenBabel10222417583D

 33 36  0  0  1  0  0  0  0  0999 V2000
  189.7720  177.2840  137.9520 C   0  0  0  0  0  0  0  0  0  0  0  0
  196.0100  174.2420  135.6880 C   0  0  0  0  0  1  0  0  0  0  0  0
  194.6320  174.5420  136.1680 C   0  0  0  0  0  0  0  0  0  0  0  0
  194.3320  175.8950  136.7790 C   0  0  2  0  0  3  0  0  0  0  0  0
  192.3540  173.8790  136.4280 C   0  0  0  0  0  0  0  0  0  0  0  0
  189.4450  176.5460  140.8730 O   0  0  0  0  0  0  0  0  0  0  0  0
  192.0950  174.9810  137.3780 C   0  0  0  0  0  0  0  0  0  0  0  0
  189.6670  174.5440  137.1140 C   0  0  1  0  0  3  0  0  0  0  0  0
  190.0190  173.1610  136.5360 C   0  0  0  0  0  2  0  0  0  0  0  0
  191.3940  173.0990  136.0300 N   0  0  0  0  0  0  0  0  0  0  0  0
  189.7940  175.3370  134.8010 O   0  0  0  0  0  1  0  0  0  0  0  0
  188.2660  178.6570  140.8650 C   0  0  0  0  0  2  0  0  0  0  0  0
  189.6530  177.0550  136.4610 C   0  0  0  0  0  2  0  0  0  0  0  0
  193.6840  173.6830  135.9370 N   0  0  0  0  0  0  0  0  0  0  0  0
  189.4130  177.8250  141.4450 C   0  0  1  0  0  3  0  0  0  0  0  0
  193.0540  175.8910  137.5800 C   0  0  0  0  0  3  0  0  0  0  0  0
  194.2140  176.9190  135.6650 C   0  0  0  0  0  1  0  0  0  0  0  0
  189.3220  178.6120  138.5410 C   0  0  1  0  0  3  0  0  0  0  0  0
  190.7630  175.0050  138.0890 C   0  0  2  0  0  3  0  0  0  0  0  0
  190.3800  176.3280  138.7070 C   0  0  0  0  0  0  0  0  0  0  0  0
  190.6520  176.5050  140.1670 C   0  0  0  0  0  2  0  0  0  0  0  0
  189.2670  175.6200  136.0630 C   0  0  2  0  0  3  0  0  0  0  0  0
  189.0960  179.5680  137.5410 O   0  0  0  0  0  1  0  0  0  0  0  0
  188.0460  178.4290  139.3600 C   0  0  0  0  0  2  0  0  0  0  0  0
  188.1000  177.3610  143.5330 N   0  0  0  0  0  2  0  0  0  0  0  0
  189.3510  177.7000  142.9340 C   0  0  0  0  0  0  0  0  0  0  0  0
  190.3530  177.9610  143.6530 O   0  0  0  0  0  0  0  0  0  0  0  0
  187.8170  177.5470  144.9520 C   0  0  0  0  0  2  0  0  0  0  0  0
  186.3190  177.5780  145.2140 C   0  0  2  0  0  3  0  0  0  0  0  0
  185.6420  178.3110  144.1590 N   0  0  0  0  0  1  0  0  0  0  0  0
  186.0540  178.2290  146.5330 C   0  0  0  0  0  0  0  0  0  0  0  0
  184.7850  178.7170  146.8430 O   0  0  0  0  0  0  0  0  0  0  0  0
  186.9870  178.3420  147.3700 O   0  0  0  0  0  1  0  0  0  0  0  0
  1 18  1  0  0  0  0
  1 20  2  0  0  0  0
  2  3  1  0  0  0  0
  3  4  1  0  0  0  0
  4 17  1  6  0  0  0
  4 16  1  0  0  0  0
  5  7  1  0  0  0  0
  6 15  1  0  0  0  0
  7 16  2  0  0  0  0
  8  9  1  6  0  0  0
  8 19  1  0  0  0  0
 10  5  2  0  0  0  0
 10  9  1  0  0  0  0
 12 15  1  0  0  0  0
 13  1  1  0  0  0  0
 14  3  2  0  0  0  0
 14  5  1  0  0  0  0
 15 26  1  1  0  0  0
 18 23  1  6  0  0  0
 18 24  1  0  0  0  0
 19  7  1  6  0  0  0
 19 20  1  0  0  0  0
 20 21  1  0  0  0  0
 21  6  1  0  0  0  0
 22 11  1  6  0  0  0
 22 13  1  0  0  0  0
 22  8  1  0  0  0  0
 24 12  1  0  0  0  0
 25 28  1  0  0  0  0
 26 25  1  0  0  0  0
 26 27  2  0  0  0  0
 28 29  1  0  0  0  0
 29 30  1  6  0  0  0
 29 31  1  0  0  0  0
 31 32  2  0  0  0  0
 31 33  1  0  0  0  0
M  END
>  <MODEL>
2

>  <REMARK>
 VINA RESULT:      -7.7      1.861      2.447
  Name = 
  4 active torsions:
  status: ('A' for Active; 'I' for Inactive)
    1  A    between atoms: CA_3  and  C_15
    2  A    between atoms: CA_3  and  C_28
    3  A    between atoms: C_17  and  C_20
    4  A    between atoms: N_19  and  C_28
                            x       y       z     vdW  Elec       q    Type
                         _______ _______ _______ _____ _____    ______ ____

>  <TORSDO>
F 4

$$$$
=
 OpenBabel10222417583D

 33 36  0  0  1  0  0  0  0  0999 V2000
  182.7220  178.8620  141.6770 C   0  0  0  0  0  0  0  0  0  0  0  0
  179.8750  181.7740  135.6170 C   0  0  0  0  0  1  0  0  0  0  0  0
  180.4320  180.8910  136.6800 C   0  0  0  0  0  0  0  0  0  0  0  0
  181.2340  181.4980  137.8120 C   0  0  2  0  0  3  0  0  0  0  0  0
  180.6640  178.7160  137.6350 C   0  0  0  0  0  0  0  0  0  0  0  0
  185.5200  177.9350  140.9740 O   0  0  0  0  0  0  0  0  0  0  0  0
  181.7640  179.1690  138.5100 C   0  0  0  0  0  0  0  0  0  0  0  0
  181.5130  177.0630  139.7990 C   0  0  1  0  0  3  0  0  0  0  0  0
  180.7390  176.4730  138.6060 C   0  0  0  0  0  2  0  0  0  0  0  0
  180.1890  177.5100  137.7260 N   0  0  0  0  0  0  0  0  0  0  0  0
  179.3310  177.8320  140.5970 O   0  0  0  0  0  1  0  0  0  0  0  0
  185.8390  178.4110  143.3230 C   0  0  0  0  0  2  0  0  0  0  0  0
  181.2160  178.7260  141.7680 C   0  0  0  0  0  2  0  0  0  0  0  0
  180.1110  179.6300  136.6840 N   0  0  0  0  0  0  0  0  0  0  0  0
  186.2640  178.7010  141.8810 C   0  0  1  0  0  3  0  0  0  0  0  0
  182.0630  180.4720  138.5420 C   0  0  0  0  0  3  0  0  0  0  0  0
  180.2770  182.1500  138.7940 C   0  0  0  0  0  1  0  0  0  0  0  0
  183.5020  179.3410  142.8900 C   0  0  1  0  0  3  0  0  0  0  0  0
  182.5100  178.1250  139.3080 C   0  0  2  0  0  3  0  0  0  0  0  0
  183.3180  178.6510  140.4710 C   0  0  0  0  0  0  0  0  0  0  0  0
  184.7800  178.8710  140.2450 C   0  0  0  0  0  2  0  0  0  0  0  0
  180.6350  177.5290  140.9950 C   0  0  2  0  0  3  0  0  0  0  0  0
  182.6510  179.8580  143.8780 O   0  0  0  0  0  1  0  0  0  0  0  0
  184.3240  178.1990  143.4830 C   0  0  0  0  0  2  0  0  0  0  0  0
  188.4590  177.7290  142.6160 N   0  0  0  0  0  2  0  0  0  0  0  0
  187.7220  178.4700  141.6420 C   0  0  0  0  0  0  0  0  0  0  0  0
  188.3100  178.9790  140.6490 O   0  0  0  0  0  0  0  0  0  0  0  0
  189.9160  177.7320  142.6870 C   0  0  0  0  0  2  0  0  0  0  0  0
  190.3980  178.1360  144.0720 C   0  0  2  0  0  3  0  0  0  0  0  0
  191.0340  179.4400  144.0190 N   0  0  0  0  0  1  0  0  0  0  0  0
  191.3670  177.1200  144.5840 C   0  0  0  0  0  0  0  0  0  0  0  0
  191.8320  177.1780  145.8970 O   0  0  0  0  0  1  0  0  0  0  0  0
  191.7700  176.2050  143.8190 O   0  0  0  0  0  0  0  0  0  0  0  0
  1 13  1  0  0  0  0
  1 18  1  0  0  0  0
  2  3  1  0  0  0  0
  3 14  2  0  0  0  0
  3  4  1  0  0  0  0
  4 16  1  0  0  0  0
  4 17  1  1  0  0  0
  5 10  2  0  0  0  0
  5  7  1  0  0  0  0
  6 15  1  0  0  0  0
  7 16  2  0  0  0  0
  8  9  1  6  0  0  0
  8 22  1  0  0  0  0
 10  9  1  0  0  0  0
 12 24  1  0  0  0  0
 14  5  1  0  0  0  0
 15 26  1  1  0  0  0
 15 12  1  0  0  0  0
 18 24  1  0  0  0  0
 18 23  1  1  0  0  0
 19  7  1  1  0  0  0
 19  8  1  0  0  0  0
 19 20  1  0  0  0  0
 20  1  2  0  0  0  0
 21 20  1  0  0  0  0
 21  6  1  0  0  0  0
 22 11  1  6  0  0  0
 22 13  1  0  0  0  0
 25 28  1  0  0  0  0
 26 25  1  0  0  0  0
 27 26  2  0  0  0  0
 28 29  1  0  0  0  0
 29 30  1  6  0  0  0
 29 31  1  0  0  0  0
 31 32  1  0  0  0  0
 33 31  2  0  0  0  0
M  END
>  <MODEL>
3

>  <REMARK>
 VINA RESULT:      -7.1      6.077      9.289
  Name = 
  4 active torsions:
  status: ('A' for Active; 'I' for Inactive)
    1  A    between atoms: CA_3  and  C_15
    2  A    between atoms: CA_3  and  C_28
    3  A    between atoms: C_17  and  C_20
    4  A    between atoms: N_19  and  C_28
                            x       y       z     vdW  Elec       q    Type
                         _______ _______ _______ _____ _____    ______ ____

>  <TORSDO>
F 4

$$$$
=
 OpenBabel10222417583D

 33 36  0  0  1  0  0  0  0  0999 V2000
  182.7860  177.8650  137.7050 C   0  0  0  0  0  0  0  0  0  0  0  0
  179.0850  179.9050  143.6580 C   0  0  0  0  0  1  0  0  0  0  0  0
  179.8310  179.8190  142.3710 C   0  0  0  0  0  0  0  0  0  0  0  0
  180.6690  178.5940  142.0740 C   0  0  2  0  0  3  0  0  0  0  0  0
  180.3780  180.7530  140.2440 C   0  0  0  0  0  0  0  0  0  0  0  0
  185.5850  178.9920  137.9830 O   0  0  0  0  0  0  0  0  0  0  0  0
  181.5040  179.8130  140.0700 C   0  0  0  0  0  0  0  0  0  0  0  0
  181.5980  180.4750  137.6810 C   0  0  1  0  0  3  0  0  0  0  0  0
  180.7780  181.7290  138.0380 C   0  0  0  0  0  2  0  0  0  0  0  0
  180.0420  181.5780  139.2970 N   0  0  0  0  0  0  0  0  0  0  0  0
  179.4330  179.3920  137.3140 O   0  0  0  0  0  1  0  0  0  0  0  0
  186.0770  177.0370  136.6470 C   0  0  0  0  0  2  0  0  0  0  0  0
  181.3190  177.9190  137.3350 C   0  0  0  0  0  2  0  0  0  0  0  0
  179.6450  180.7410  141.4720 N   0  0  0  0  0  0  0  0  0  0  0  0
  186.3300  177.8050  137.9470 C   0  0  1  0  0  3  0  0  0  0  0  0
  181.6670  178.8360  140.9690 C   0  0  0  0  0  3  0  0  0  0  0  0
  179.7480  177.4580  141.6670 C   0  0  0  0  0  1  0  0  0  0  0  0
  183.6240  176.6780  137.2590 C   0  0  1  0  0  3  0  0  0  0  0  0
  182.4270  180.0230  138.8940 C   0  0  2  0  0  3  0  0  0  0  0  0
  183.2830  178.8360  138.5200 C   0  0  0  0  0  0  0  0  0  0  0  0
  184.6860  178.8130  139.0380 C   0  0  0  0  0  2  0  0  0  0  0  0
  180.7940  179.3270  137.0050 C   0  0  2  0  0  3  0  0  0  0  0  0
  182.8230  175.6350  136.7730 O   0  0  0  0  0  1  0  0  0  0  0  0
  184.6140  177.0990  136.1750 C   0  0  0  0  0  2  0  0  0  0  0  0
  188.5360  177.2500  139.0080 N   0  0  0  0  0  2  0  0  0  0  0  0
  187.7740  178.1210  138.1700 C   0  0  0  0  0  0  0  0  0  0  0  0
  188.2930  179.1680  137.6990 O   0  0  0  0  0  0  0  0  0  0  0  0
  189.8250  177.6200  139.5820 C   0  0  0  0  0  2  0  0  0  0  0  0
  189.9840  177.0530  140.9850 C   0  0  2  0  0  3  0  0  0  0  0  0
  188.9850  177.6250  141.8710 N   0  0  0  0  0  1  0  0  0  0  0  0
  191.3530  177.3620  141.4980 C   0  0  0  0  0  0  0  0  0  0  0  0
  191.5840  177.5090  142.8660 O   0  0  0  0  0  1  0  0  0  0  0  0
  192.3060  177.4950  140.6870 O   0  0  0  0  0  0  0  0  0  0  0  0
  1 20  2  0  0  0  0
  3  2  1  0  0  0  0
  4 17  1  6  0  0  0
  4  3  1  0  0  0  0
  5 14  1  0  0  0  0
  6 21  1  0  0  0  0
  7  5  1  0  0  0  0
  7 16  2  0  0  0  0
  8  9  1  1  0  0  0
  8 19  1  0  0  0  0
  9 10  1  0  0  0  0
 10  5  2  0  0  0  0
 12 15  1  0  0  0  0
 13  1  1  0  0  0  0
 14  3  2  0  0  0  0
 15  6  1  0  0  0  0
 15 26  1  6  0  0  0
 16  4  1  0  0  0  0
 18 23  1  6  0  0  0
 18  1  1  0  0  0  0
 19 20  1  6  0  0  0
 19  7  1  0  0  0  0
 20 21  1  0  0  0  0
 22 11  1  1  0  0  0
 22 13  1  0  0  0  0
 22  8  1  0  0  0  0
 24 12  1  0  0  0  0
 24 18  1  0  0  0  0
 25 28  1  0  0  0  0
 26 25  1  0  0  0  0
 27 26  2  0  0  0  0
 28 29  1  0  0  0  0
 29 31  1  0  0  0  0
 29 30  1  1  0  0  0
 31 32  1  0  0  0  0
 33 31  2  0  0  0  0
M  END
>  <MODEL>
4

>  <REMARK>
 VINA RESULT:      -7.1      6.219     10.041
  Name = 
  4 active torsions:
  status: ('A' for Active; 'I' for Inactive)
    1  A    between atoms: CA_3  and  C_15
    2  A    between atoms: CA_3  and  C_28
    3  A    between atoms: C_17  and  C_20
    4  A    between atoms: N_19  and  C_28
                            x       y       z     vdW  Elec       q    Type
                         _______ _______ _______ _____ _____    ______ ____

>  <TORSDO>
F 4

$$$$
=
 OpenBabel10222417583D

 33 36  0  0  1  0  0  0  0  0999 V2000
  182.8680  178.7300  141.2910 C   0  0  0  0  0  0  0  0  0  0  0  0
  179.6040  182.1500  135.7270 C   0  0  0  0  0  1  0  0  0  0  0  0
  180.2570  181.1850  136.6560 C   0  0  0  0  0  0  0  0  0  0  0  0
  181.0680  181.7040  137.8240 C   0  0  2  0  0  3  0  0  0  0  0  0
  180.6550  178.9310  137.3350 C   0  0  0  0  0  0  0  0  0  0  0  0
  185.6830  178.0700  140.3860 O   0  0  0  0  0  0  0  0  0  0  0  0
  181.7620  179.3470  138.2200 C   0  0  0  0  0  0  0  0  0  0  0  0
  181.6890  177.0920  139.2540 C   0  0  1  0  0  3  0  0  0  0  0  0
  180.9010  176.5990  138.0270 C   0  0  0  0  0  2  0  0  0  0  0  0
  180.2550  177.6960  137.2970 N   0  0  0  0  0  0  0  0  0  0  0  0
  179.5000  177.6240  140.2140 O   0  0  0  0  0  1  0  0  0  0  0  0
  186.0730  178.2860  142.7620 C   0  0  0  0  0  2  0  0  0  0  0  0
  181.3780  178.4900  141.4170 C   0  0  0  0  0  2  0  0  0  0  0  0
  180.0100  179.9150  136.5200 N   0  0  0  0  0  0  0  0  0  0  0  0
  186.4190  178.7690  141.3510 C   0  0  1  0  0  3  0  0  0  0  0  0
  181.9860  180.6540  138.3970 C   0  0  0  0  0  3  0  0  0  0  0  0
  180.1170  182.1740  138.9100 C   0  0  0  0  0  1  0  0  0  0  0  0
  183.6690  179.1120  142.5250 C   0  0  1  0  0  3  0  0  0  0  0  0
  182.6010  178.2660  138.8600 C   0  0  2  0  0  3  0  0  0  0  0  0
  183.4240  178.7010  140.0490 C   0  0  0  0  0  0  0  0  0  0  0  0
  184.8600  179.0380  139.8000 C   0  0  0  0  0  2  0  0  0  0  0  0
  180.8350  177.3590  140.5270 C   0  0  2  0  0  3  0  0  0  0  0  0
  182.8320  179.4550  143.5970 O   0  0  0  0  0  1  0  0  0  0  0  0
  184.5810  177.9620  142.9480 C   0  0  0  0  0  2  0  0  0  0  0  0
  188.2690  178.5830  139.6650 N   0  0  0  0  0  2  0  0  0  0  0  0
  187.8770  178.6600  141.0360 C   0  0  0  0  0  0  0  0  0  0  0  0
  188.7370  178.5600  141.9520 O   0  0  0  0  0  0  0  0  0  0  0  0
  189.5880  178.1300  139.2360 C   0  0  0  0  0  2  0  0  0  0  0  0
  189.5140  177.4190  137.8930 C   0  0  2  0  0  3  0  0  0  0  0  0
  188.1600  177.4740  137.3720 N   0  0  0  0  0  1  0  0  0  0  0  0
  189.9360  175.9950  138.0550 C   0  0  0  0  0  0  0  0  0  0  0  0
  189.4140  174.9990  137.2310 O   0  0  0  0  0  0  0  0  0  0  0  0
  190.7680  175.6910  138.9500 O   0  0  0  0  0  1  0  0  0  0  0  0
  1 13  1  0  0  0  0
  1 18  1  0  0  0  0
  2  3  1  0  0  0  0
  3  4  1  0  0  0  0
  4 16  1  0  0  0  0
  4 17  1  1  0  0  0
  5  7  1  0  0  0  0
  6 15  1  0  0  0  0
  7 16  2  0  0  0  0
  8  9  1  6  0  0  0
  8 22  1  0  0  0  0
 10  5  2  0  0  0  0
 10  9  1  0  0  0  0
 12 24  1  0  0  0  0
 14  3  2  0  0  0  0
 14  5  1  0  0  0  0
 15 26  1  6  0  0  0
 15 12  1  0  0  0  0
 18 24  1  0  0  0  0
 18 23  1  1  0  0  0
 19  7  1  1  0  0  0
 19  8  1  0  0  0  0
 19 20  1  0  0  0  0
 20  1  2  0  0  0  0
 21 20  1  0  0  0  0
 21  6  1  0  0  0  0
 22 11  1  6  0  0  0
 22 13  1  0  0  0  0
 25 26  1  0  0  0  0
 26 27  2  0  0  0  0
 28 25  1  0  0  0  0
 29 30  1  1  0  0  0
 29 31  1  0  0  0  0
 29 28  1  0  0  0  0
 31 33  1  0  0  0  0
 32 31  2  0  0  0  0
M  END
>  <MODEL>
5

>  <REMARK>
 VINA RESULT:      -6.8      6.171      9.847
  Name = 
  4 active torsions:
  status: ('A' for Active; 'I' for Inactive)
    1  A    between atoms: CA_3  and  C_15
    2  A    between atoms: CA_3  and  C_28
    3  A    between atoms: C_17  and  C_20
    4  A    between atoms: N_19  and  C_28
                            x       y       z     vdW  Elec       q    Type
                         _______ _______ _______ _____ _____    ______ ____

>  <TORSDO>
F 4

$$$$
=
 OpenBabel10222417583D

 33 36  0  0  1  0  0  0  0  0999 V2000
  190.0820  176.6690  138.1740 C   0  0  0  0  0  0  0  0  0  0  0  0
  184.1110  173.5590  135.3500 C   0  0  0  0  0  1  0  0  0  0  0  0
  185.1680  174.4820  135.8510 C   0  0  0  0  0  0  0  0  0  0  0  0
  186.2240  173.9610  136.8040 C   0  0  2  0  0  3  0  0  0  0  0  0
  186.1880  176.6400  135.8460 C   0  0  0  0  0  0  0  0  0  0  0  0
  189.2390  177.9970  140.7630 O   0  0  0  0  0  0  0  0  0  0  0  0
  186.9740  176.3200  137.0550 C   0  0  0  0  0  0  0  0  0  0  0  0
  188.3530  178.3330  136.6050 C   0  0  1  0  0  3  0  0  0  0  0  0
  187.2350  178.8430  135.6770 C   0  0  0  0  0  2  0  0  0  0  0  0
  186.3540  177.7650  135.2170 N   0  0  0  0  0  0  0  0  0  0  0  0
  189.2590  177.2450  134.6080 O   0  0  0  0  0  1  0  0  0  0  0  0
  191.5440  177.5040  141.3040 C   0  0  0  0  0  2  0  0  0  0  0  0
  190.2730  176.5910  136.6740 C   0  0  0  0  0  2  0  0  0  0  0  0
  185.2400  175.6840  135.3610 N   0  0  0  0  0  0  0  0  0  0  0  0
  190.0680  177.3170  141.6660 C   0  0  1  0  0  3  0  0  0  0  0  0
  186.9380  175.0710  137.5320 C   0  0  0  0  0  3  0  0  0  0  0  0
  187.2390  173.1540  136.0140 C   0  0  0  0  0  1  0  0  0  0  0  0
  191.2250  176.2690  139.0930 C   0  0  1  0  0  3  0  0  0  0  0  0
  187.7610  177.4350  137.7030 C   0  0  2  0  0  3  0  0  0  0  0  0
  188.8500  176.9940  138.6520 C   0  0  0  0  0  0  0  0  0  0  0  0
  188.5240  176.9870  140.1120 C   0  0  0  0  0  2  0  0  0  0  0  0
  189.5840  177.7150  135.8820 C   0  0  2  0  0  3  0  0  0  0  0  0
  192.2450  175.6100  138.3910 O   0  0  0  0  0  1  0  0  0  0  0  0
  191.8070  177.4970  139.7890 C   0  0  0  0  0  2  0  0  0  0  0  0
  188.6440  177.1390  143.7260 N   0  0  0  0  0  2  0  0  0  0  0  0
  189.7460  177.7560  143.0590 C   0  0  0  0  0  0  0  0  0  0  0  0
  190.3760  178.7000  143.6080 O   0  0  0  0  0  0  0  0  0  0  0  0
  188.0150  177.7000  144.9160 C   0  0  0  0  0  2  0  0  0  0  0  0
  186.4990  177.5800  144.8440 C   0  0  2  0  0  3  0  0  0  0  0  0
  186.0160  178.1070  143.5810 N   0  0  0  0  0  1  0  0  0  0  0  0
  185.8820  178.3340  145.9770 C   0  0  0  0  0  0  0  0  0  0  0  0
  184.6850  179.0270  145.8020 O   0  0  0  0  0  0  0  0  0  0  0  0
  186.4520  178.3460  147.0990 O   0  0  0  0  0  1  0  0  0  0  0  0
  1 20  2  0  0  0  0
  1 18  1  0  0  0  0
  2  3  1  0  0  0  0
  3  4  1  0  0  0  0
  4 17  1  6  0  0  0
  4 16  1  0  0  0  0
  5  7  1  0  0  0  0
  6 15  1  0  0  0  0
  7 16  2  0  0  0  0
  8  9  1  6  0  0  0
  8 19  1  0  0  0  0
 10  9  1  0  0  0  0
 10  5  2  0  0  0  0
 12 15  1  0  0  0  0
 13  1  1  0  0  0  0
 14  5  1  0  0  0  0
 14  3  2  0  0  0  0
 15 26  1  1  0  0  0
 18 23  1  6  0  0  0
 18 24  1  0  0  0  0
 19  7  1  6  0  0  0
 19 20  1  0  0  0  0
 20 21  1  0  0  0  0
 21  6  1  0  0  0  0
 22 11  1  6  0  0  0
 22  8  1  0  0  0  0
 22 13  1  0  0  0  0
 24 12  1  0  0  0  0
 25 28  1  0  0  0  0
 26 27  2  0  0  0  0
 26 25  1  0  0  0  0
 29 30  1  6  0  0  0
 29 28  1  0  0  0  0
 29 31  1  0  0  0  0
 31 33  1  0  0  0  0
 32 31  2  0  0  0  0
M  END
>  <MODEL>
6

>  <REMARK>
 VINA RESULT:      -6.5      3.383      5.401
  Name = 
  4 active torsions:
  status: ('A' for Active; 'I' for Inactive)
    1  A    between atoms: CA_3  and  C_15
    2  A    between atoms: CA_3  and  C_28
    3  A    between atoms: C_17  and  C_20
    4  A    between atoms: N_19  and  C_28
                            x       y       z     vdW  Elec       q    Type
                         _______ _______ _______ _____ _____    ______ ____

>  <TORSDO>
F 4

$$$$
=
 OpenBabel10222417583D

 33 36  0  0  1  0  0  0  0  0999 V2000
  183.9030  178.6940  141.0900 C   0  0  0  0  0  0  0  0  0  0  0  0
  179.2940  181.5190  136.1830 C   0  0  0  0  0  1  0  0  0  0  0  0
  180.1680  180.6520  137.0240 C   0  0  0  0  0  0  0  0  0  0  0  0
  181.2570  181.2820  137.8660 C   0  0  2  0  0  3  0  0  0  0  0  0
  180.7300  178.4860  137.8540 C   0  0  0  0  0  0  0  0  0  0  0  0
  186.3820  177.8360  139.5740 O   0  0  0  0  0  0  0  0  0  0  0  0
  182.0310  178.9690  138.3600 C   0  0  0  0  0  0  0  0  0  0  0  0
  182.2310  176.8600  139.6530 C   0  0  1  0  0  3  0  0  0  0  0  0
  181.1480  176.2480  138.7460 C   0  0  0  0  0  2  0  0  0  0  0  0
  180.3340  177.2690  138.0780 N   0  0  0  0  0  0  0  0  0  0  0  0
  180.3710  177.5760  141.0750 O   0  0  0  0  0  1  0  0  0  0  0  0
  187.3820  178.3250  141.7200 C   0  0  0  0  0  2  0  0  0  0  0  0
  182.4990  178.5200  141.6290 C   0  0  0  0  0  2  0  0  0  0  0  0
  179.8940  179.3840  137.1180 N   0  0  0  0  0  0  0  0  0  0  0  0
  187.3460  178.6220  140.2180 C   0  0  1  0  0  3  0  0  0  0  0  0
  182.2930  180.2800  138.3080 C   0  0  0  0  0  3  0  0  0  0  0  0
  180.6240  181.9120  139.0940 C   0  0  0  0  0  1  0  0  0  0  0  0
  185.0000  179.1950  142.0150 C   0  0  1  0  0  3  0  0  0  0  0  0
  183.0080  177.9470  138.8910 C   0  0  2  0  0  3  0  0  0  0  0  0
  184.1150  178.4950  139.7600 C   0  0  0  0  0  0  0  0  0  0  0  0
  185.4350  178.7520  139.1060 C   0  0  0  0  0  2  0  0  0  0  0  0
  181.7420  177.3080  141.0610 C   0  0  2  0  0  3  0  0  0  0  0  0
  184.4740  179.6940  143.2160 O   0  0  0  0  0  1  0  0  0  0  0  0
  185.9910  178.0760  142.3270 C   0  0  0  0  0  2  0  0  0  0  0  0
  189.5050  177.3600  140.0010 N   0  0  0  0  0  2  0  0  0  0  0  0
  188.6700  178.4270  139.5510 C   0  0  0  0  0  0  0  0  0  0  0  0
  189.0790  179.2280  138.6670 O   0  0  0  0  0  0  0  0  0  0  0  0
  190.9280  177.2740  139.6930 C   0  0  0  0  0  2  0  0  0  0  0  0
  191.1590  176.5970  138.3490 C   0  0  2  0  0  3  0  0  0  0  0  0
  190.5560  175.2760  138.3440 N   0  0  0  0  0  1  0  0  0  0  0  0
  192.6260  176.4850  138.0890 C   0  0  0  0  0  0  0  0  0  0  0  0
  193.5520  176.8650  139.0600 O   0  0  0  0  0  1  0  0  0  0  0  0
  193.0300  176.0490  136.9800 O   0  0  0  0  0  0  0  0  0  0  0  0
  1 13  1  0  0  0  0
  1 18  1  0  0  0  0
  2  3  1  0  0  0  0
  3 14  2  0  0  0  0
  3  4  1  0  0  0  0
  4 16  1  0  0  0  0
  4 17  1  1  0  0  0
  5 10  2  0  0  0  0
  5  7  1  0  0  0  0
  6 15  1  0  0  0  0
  8  9  1  6  0  0  0
  8 22  1  0  0  0  0
 10  9  1  0  0  0  0
 12 24  1  0  0  0  0
 14  5  1  0  0  0  0
 15 26  1  6  0  0  0
 15 12  1  0  0  0  0
 16  7  2  0  0  0  0
 18 24  1  0  0  0  0
 18 23  1  1  0  0  0
 19  7  1  1  0  0  0
 19  8  1  0  0  0  0
 19 20  1  0  0  0  0
 20  1  2  0  0  0  0
 21  6  1  0  0  0  0
 21 20  1  0  0  0  0
 22 11  1  6  0  0  0
 22 13  1  0  0  0  0
 26 25  1  0  0  0  0
 27 26  2  0  0  0  0
 28 25  1  0  0  0  0
 29 30  1  1  0  0  0
 29 28  1  0  0  0  0
 31 29  1  0  0  0  0
 31 32  1  0  0  0  0
 33 31  2  0  0  0  0
M  END
>  <MODEL>
7

>  <REMARK>
 VINA RESULT:      -6.4      5.726      9.495
  Name = 
  4 active torsions:
  status: ('A' for Active; 'I' for Inactive)
    1  A    between atoms: CA_3  and  C_15
    2  A    between atoms: CA_3  and  C_28
    3  A    between atoms: C_17  and  C_20
    4  A    between atoms: N_19  and  C_28
                            x       y       z     vdW  Elec       q    Type
                         _______ _______ _______ _____ _____    ______ ____

>  <TORSDO>
F 4

$$$$
=
 OpenBabel10222417583D

 33 36  0  0  1  0  0  0  0  0999 V2000
  182.5910  177.8720  137.6330 C   0  0  0  0  0  0  0  0  0  0  0  0
  178.9310  179.7580  143.6620 C   0  0  0  0  0  1  0  0  0  0  0  0
  179.6820  179.7070  142.3760 C   0  0  0  0  0  0  0  0  0  0  0  0
  180.4720  178.4650  142.0220 C   0  0  2  0  0  3  0  0  0  0  0  0
  180.2830  180.7250  140.3020 C   0  0  0  0  0  0  0  0  0  0  0  0
  185.4320  178.8670  137.9840 O   0  0  0  0  0  0  0  0  0  0  0  0
  181.3710  179.7490  140.0880 C   0  0  0  0  0  0  0  0  0  0  0  0
  181.5100  180.5270  137.7360 C   0  0  1  0  0  3  0  0  0  0  0  0
  180.7400  181.7930  138.1510 C   0  0  0  0  0  2  0  0  0  0  0  0
  179.9890  181.6090  139.3970 N   0  0  0  0  0  0  0  0  0  0  0  0
  179.3060  179.5540  137.3020 O   0  0  0  0  0  1  0  0  0  0  0  0
  185.8530  176.9650  136.5530 C   0  0  0  0  0  2  0  0  0  0  0  0
  181.1300  178.0060  137.2580 C   0  0  0  0  0  2  0  0  0  0  0  0
  179.5410  180.6800  141.5250 N   0  0  0  0  0  0  0  0  0  0  0  0
  186.1270  177.6550  137.8920 C   0  0  1  0  0  3  0  0  0  0  0  0
  181.4870  178.7210  140.9370 C   0  0  0  0  0  3  0  0  0  0  0  0
  179.5080  177.3900  141.5520 C   0  0  0  0  0  1  0  0  0  0  0  0
  183.3840  176.6760  137.1320 C   0  0  1  0  0  3  0  0  0  0  0  0
  182.3110  179.9800  138.9290 C   0  0  2  0  0  3  0  0  0  0  0  0
  183.1210  178.7790  138.4990 C   0  0  0  0  0  0  0  0  0  0  0  0
  184.5170  178.6730  139.0240 C   0  0  0  0  0  2  0  0  0  0  0  0
  180.6650  179.4490  136.9980 C   0  0  2  0  0  3  0  0  0  0  0  0
  182.5440  175.6930  136.5890 O   0  0  0  0  0  1  0  0  0  0  0  0
  184.3980  177.1100  136.0760 C   0  0  0  0  0  2  0  0  0  0  0  0
  188.4800  177.8160  137.0310 N   0  0  0  0  0  2  0  0  0  0  0  0
  187.5810  177.8990  138.1390 C   0  0  0  0  0  0  0  0  0  0  0  0
  188.0220  178.0960  139.3030 O   0  0  0  0  0  0  0  0  0  0  0  0
  189.9240  177.6840  137.1820 C   0  0  0  0  0  2  0  0  0  0  0  0
  190.3880  176.2780  136.8310 C   0  0  2  0  0  3  0  0  0  0  0  0
  189.2480  175.4480  136.4840 N   0  0  0  0  0  1  0  0  0  0  0  0
  191.1120  175.6840  137.9940 C   0  0  0  0  0  0  0  0  0  0  0  0
  192.4090  175.1930  137.8490 O   0  0  0  0  0  0  0  0  0  0  0  0
  190.5430  175.6210  139.1150 O   0  0  0  0  0  1  0  0  0  0  0  0
  1 20  2  0  0  0  0
  3  2  1  0  0  0  0
  4 17  1  6  0  0  0
  4  3  1  0  0  0  0
  5 14  1  0  0  0  0
  6 21  1  0  0  0  0
  7  5  1  0  0  0  0
  7 16  2  0  0  0  0
  8  9  1  1  0  0  0
  8 19  1  0  0  0  0
  9 10  1  0  0  0  0
 10  5  2  0  0  0  0
 12 15  1  0  0  0  0
 13  1  1  0  0  0  0
 14  3  2  0  0  0  0
 15  6  1  0  0  0  0
 15 26  1  6  0  0  0
 16  4  1  0  0  0  0
 18 23  1  6  0  0  0
 18  1  1  0  0  0  0
 19 20  1  6  0  0  0
 19  7  1  0  0  0  0
 20 21  1  0  0  0  0
 22 13  1  0  0  0  0
 22 11  1  1  0  0  0
 22  8  1  0  0  0  0
 24 12  1  0  0  0  0
 24 18  1  0  0  0  0
 25 28  1  0  0  0  0
 25 26  1  0  0  0  0
 26 27  2  0  0  0  0
 29 30  1  1  0  0  0
 29 28  1  0  0  0  0
 29 31  1  0  0  0  0
 31 33  1  0  0  0  0
 32 31  2  0  0  0  0
M  END
>  <MODEL>
8

>  <REMARK>
 VINA RESULT:      -6.3      6.367     10.551
  Name = 
  4 active torsions:
  status: ('A' for Active; 'I' for Inactive)
    1  A    between atoms: CA_3  and  C_15
    2  A    between atoms: CA_3  and  C_28
    3  A    between atoms: C_17  and  C_20
    4  A    between atoms: N_19  and  C_28
                            x       y       z     vdW  Elec       q    Type
                         _______ _______ _______ _____ _____    ______ ____

>  <TORSDO>
F 4

$$$$
=
 OpenBabel10222417583D

 33 36  0  0  1  0  0  0  0  0999 V2000
  189.8160  176.6890  138.2370 C   0  0  0  0  0  0  0  0  0  0  0  0
  183.9940  173.7460  134.9570 C   0  0  0  0  0  1  0  0  0  0  0  0
  185.0410  174.6390  135.5290 C   0  0  0  0  0  0  0  0  0  0  0  0
  185.9810  174.1040  136.5900 C   0  0  2  0  0  3  0  0  0  0  0  0
  186.1540  176.7510  135.5580 C   0  0  0  0  0  0  0  0  0  0  0  0
  188.7990  178.1330  140.6990 O   0  0  0  0  0  0  0  0  0  0  0  0
  186.8100  176.4370  136.8440 C   0  0  0  0  0  0  0  0  0  0  0  0
  188.3140  178.3740  136.4680 C   0  0  1  0  0  3  0  0  0  0  0  0
  187.3100  178.9010  135.4270 C   0  0  0  0  0  2  0  0  0  0  0  0
  186.4270  177.8470  134.9170 N   0  0  0  0  0  0  0  0  0  0  0  0
  189.3500  177.1850  134.5950 O   0  0  0  0  0  1  0  0  0  0  0  0
  191.0190  177.5610  141.4650 C   0  0  0  0  0  2  0  0  0  0  0  0
  190.1400  176.5550  136.7640 C   0  0  0  0  0  2  0  0  0  0  0  0
  185.2120  175.8210  135.0140 N   0  0  0  0  0  0  0  0  0  0  0  0
  189.5100  177.4490  141.6930 C   0  0  1  0  0  3  0  0  0  0  0  0
  186.6750  175.2060  137.3500 C   0  0  0  0  0  3  0  0  0  0  0  0
  187.0270  173.2310  135.9210 C   0  0  0  0  0  1  0  0  0  0  0  0
  190.8500  176.2710  139.2690 C   0  0  1  0  0  3  0  0  0  0  0  0
  187.5840  177.5370  137.5310 C   0  0  2  0  0  3  0  0  0  0  0  0
  188.5610  177.0810  138.5890 C   0  0  0  0  0  0  0  0  0  0  0  0
  188.1020  177.1340  140.0120 C   0  0  0  0  0  2  0  0  0  0  0  0
  189.5770  177.6820  135.8800 C   0  0  2  0  0  3  0  0  0  0  0  0
  191.8990  175.5470  138.6830 O   0  0  0  0  0  1  0  0  0  0  0  0
  191.4200  177.4950  139.9820 C   0  0  0  0  0  2  0  0  0  0  0  0
  190.0680  178.0540  144.0640 N   0  0  0  0  0  2  0  0  0  0  0  0
  189.0820  177.9450  143.0370 C   0  0  0  0  0  0  0  0  0  0  0  0
  187.8700  178.1870  143.2880 O   0  0  0  0  0  0  0  0  0  0  0  0
  189.7370  178.1820  145.4790 C   0  0  0  0  0  2  0  0  0  0  0  0
  189.8700  176.8470  146.1970 C   0  0  2  0  0  3  0  0  0  0  0  0
  189.0390  176.8350  147.3880 N   0  0  0  0  0  1  0  0  0  0  0  0
  191.2980  176.6190  146.5730 C   0  0  0  0  0  0  0  0  0  0  0  0
  191.8000  177.0980  147.7830 O   0  0  0  0  0  1  0  0  0  0  0  0
  192.0560  175.9930  145.7880 O   0  0  0  0  0  0  0  0  0  0  0  0
  1 20  2  0  0  0  0
  1 18  1  0  0  0  0
  2  3  1  0  0  0  0
  3  4  1  0  0  0  0
  4 17  1  6  0  0  0
  4 16  1  0  0  0  0
  5  7  1  0  0  0  0
  6 15  1  0  0  0  0
  7 16  2  0  0  0  0
  8  9  1  6  0  0  0
  8 19  1  0  0  0  0
 10  9  1  0  0  0  0
 10  5  2  0  0  0  0
 12 15  1  0  0  0  0
 13  1  1  0  0  0  0
 14  3  2  0  0  0  0
 14  5  1  0  0  0  0
 15 26  1  1  0  0  0
 18 23  1  6  0  0  0
 18 24  1  0  0  0  0
 19  7  1  6  0  0  0
 19 20  1  0  0  0  0
 20 21  1  0  0  0  0
 21  6  1  0  0  0  0
 22 11  1  6  0  0  0
 22  8  1  0  0  0  0
 22 13  1  0  0  0  0
 24 12  1  0  0  0  0
 25 28  1  0  0  0  0
 26 27  2  0  0  0  0
 26 25  1  0  0  0  0
 28 29  1  0  0  0  0
 29 31  1  0  0  0  0
 29 30  1  1  0  0  0
 31 32  1  0  0  0  0
 33 31  2  0  0  0  0
M  END
>  <MODEL>
9

>  <REMARK>
 VINA RESULT:      -6.3      3.070      4.938
  Name = 
  4 active torsions:
  status: ('A' for Active; 'I' for Inactive)
    1  A    between atoms: CA_3  and  C_15
    2  A    between atoms: CA_3  and  C_28
    3  A    between atoms: C_17  and  C_20
    4  A    between atoms: N_19  and  C_28
                            x       y       z     vdW  Elec       q    Type
                         _______ _______ _______ _____ _____    ______ ____

>  <TORSDO>
F 4

$$$$
