=
 OpenBabel10222418463D

 29 33  0  0  1  0  0  0  0  0999 V2000
  188.4750  175.1020  137.2760 C   0  0  0  0  0  1  0  0  0  0  0  0
  189.6060  177.7910  136.2840 C   0  0  0  0  0  2  0  0  0  0  0  0
  188.3660  178.1290  138.4200 C   0  0  0  0  0  0  0  0  0  0  0  0
  190.4180  176.7120  136.9930 C   0  0  1  0  0  3  0  0  0  0  0  0
  189.5440  175.9230  137.9840 C   0  0  1  0  0  3  0  0  0  0  0  0
  188.8900  176.8470  139.0210 C   0  0  1  0  0  3  0  0  0  0  0  0
  189.1030  178.8090  137.3020 C   0  0  0  0  0  2  0  0  0  0  0  0
  187.3690  178.6520  138.8900 O   0  0  0  0  0  0  0  0  0  0  0  0
  192.2450  175.0880  136.3030 C   0  0  0  0  0  0  0  0  0  0  0  0
  196.0100  172.6200  135.9600 C   0  0  0  0  0  2  0  0  0  0  0  0
  192.8560  175.1990  137.6500 C   0  0  0  0  0  3  0  0  0  0  0  0
  194.9300  173.6250  136.1090 C   0  0  0  0  0  0  0  0  0  0  0  0
  192.6810  174.2680  135.3870 N   0  0  0  0  0  0  0  0  0  0  0  0
  194.1550  175.0840  137.9180 C   0  0  0  0  0  3  0  0  0  0  0  0
  191.0510  175.8270  136.0230 N   0  0  0  0  0  2  0  0  0  0  0  0
  193.8280  172.1600  134.5940 C   0  0  0  0  0  2  0  0  0  0  0  0
  193.8130  173.3820  135.4330 C   0  0  0  0  0  0  0  0  0  0  0  0
  195.1780  174.8900  136.8540 C   0  0  0  0  0  2  0  0  0  0  0  0
  195.3230  171.2160  135.0260 S   0  0  0  0  0  0  0  0  0  0  0  0
  190.6980  177.5160  142.2280 C   0  0  0  0  0  0  0  0  0  0  0  0
  191.1160  177.2670  140.1060 C   0  0  0  0  0  3  0  0  0  0  0  0
  189.7060  177.7060  144.3620 C   0  0  0  0  0  0  0  0  0  0  0  0
  188.3250  177.4350  143.7640 C   0  0  0  0  0  2  0  0  0  0  0  0
  189.8090  177.9310  145.7630 N   0  0  0  0  0  1  0  0  0  0  0  0
  189.4520  177.2570  141.5910 C   0  0  0  0  0  0  0  0  0  0  0  0
  189.7940  177.0970  140.1900 C   0  0  0  0  0  0  0  0  0  0  0  0
  191.6870  177.5280  141.4000 N   0  0  0  0  0  0  0  0  0  0  0  0
  188.3110  177.2070  142.2640 C   0  0  0  0  0  3  0  0  0  0  0  0
  190.7880  177.7390  143.6330 N   0  0  0  0  0  0  0  0  0  0  0  0
  2  4  1  0  0  0  0
  2  7  1  0  0  0  0
  3  8  2  0  0  0  0
  3  6  1  0  0  0  0
  4 15  1  6  0  0  0
  4  5  1  0  0  0  0
  5  1  1  6  0  0  0
  5  6  1  0  0  0  0
  6 26  1  1  0  0  0
  7  3  1  0  0  0  0
  9 11  1  0  0  0  0
 10 12  1  0  0  0  0
 11 14  2  0  0  0  0
 12 18  1  0  0  0  0
 13 17  1  0  0  0  0
 13  9  2  0  0  0  0
 15  9  1  0  0  0  0
 16 19  1  0  0  0  0
 16 17  1  0  0  0  0
 17 12  2  0  0  0  0
 18 14  1  0  0  0  0
 19 10  1  0  0  0  0
 20 29  1  0  0  0  0
 21 26  2  0  0  0  0
 21 27  1  0  0  0  0
 22 24  1  0  0  0  0
 23 22  1  0  0  0  0
 25 20  1  0  0  0  0
 25 28  2  0  0  0  0
 26 25  1  0  0  0  0
 27 20  2  0  0  0  0
 28 23  1  0  0  0  0
 29 22  2  0  0  0  0
M  END
>  <MODEL>
1

>  <REMARK>
 VINA RESULT:      -7.0      0.000      0.000
  Name = 
  2 active torsions:
  status: ('A' for Active; 'I' for Inactive)
    1  A    between atoms: C_14  and  N_23
    2  A    between atoms: C_15  and  C_19
                            x       y       z     vdW  Elec       q    Type
                         _______ _______ _______ _____ _____    ______ ____

>  <TORSDO>
F 2

$$$$
=
 OpenBabel10222418463D

 29 33  0  0  1  0  0  0  0  0999 V2000
  185.1560  177.8540  137.7460 C   0  0  0  0  0  1  0  0  0  0  0  0
  183.3690  179.8500  139.2680 C   0  0  0  0  0  2  0  0  0  0  0  0
  182.0690  178.7800  137.4290 C   0  0  0  0  0  0  0  0  0  0  0  0
  183.7220  178.4480  139.7560 C   0  0  1  0  0  3  0  0  0  0  0  0
  183.9300  177.4870  138.5710 C   0  0  1  0  0  3  0  0  0  0  0  0
  182.6910  177.4260  137.6670 C   0  0  1  0  0  3  0  0  0  0  0  0
  182.0410  179.8140  138.5180 C   0  0  0  0  0  2  0  0  0  0  0  0
  181.5270  179.0150  136.3620 O   0  0  0  0  0  0  0  0  0  0  0  0
  184.8160  178.4100  142.0470 C   0  0  0  0  0  0  0  0  0  0  0  0
  185.7330  178.5610  146.4660 C   0  0  0  0  0  2  0  0  0  0  0  0
  183.4850  178.2520  142.6830 C   0  0  0  0  0  3  0  0  0  0  0  0
  185.3010  178.7230  145.0560 C   0  0  0  0  0  0  0  0  0  0  0  0
  185.9350  178.3780  142.7170 N   0  0  0  0  0  0  0  0  0  0  0  0
  183.1480  178.7070  143.8870 C   0  0  0  0  0  3  0  0  0  0  0  0
  184.8950  178.4870  140.6200 N   0  0  0  0  0  2  0  0  0  0  0  0
  187.3960  177.6710  144.6540 C   0  0  0  0  0  2  0  0  0  0  0  0
  186.1350  178.2530  144.1360 C   0  0  0  0  0  0  0  0  0  0  0  0
  184.0790  179.5080  144.7300 C   0  0  0  0  0  2  0  0  0  0  0  0
  187.2310  177.5260  146.4610 S   0  0  0  0  0  0  0  0  0  0  0  0
  180.3520  174.6210  138.4840 C   0  0  0  0  0  0  0  0  0  0  0  0
  180.8210  176.6400  139.1490 C   0  0  0  0  0  3  0  0  0  0  0  0
  180.2560  172.5350  137.3830 C   0  0  0  0  0  0  0  0  0  0  0  0
  181.4060  172.9470  136.4650 C   0  0  0  0  0  2  0  0  0  0  0  0
  179.6820  171.2440  137.2180 N   0  0  0  0  0  1  0  0  0  0  0  0
  181.4240  175.0830  137.6710 C   0  0  0  0  0  0  0  0  0  0  0  0
  181.6930  176.4230  138.1610 C   0  0  0  0  0  0  0  0  0  0  0  0
  179.9750  175.4960  139.3540 N   0  0  0  0  0  0  0  0  0  0  0  0
  181.9560  174.3390  136.7120 C   0  0  0  0  0  3  0  0  0  0  0  0
  179.7850  173.3260  138.3090 N   0  0  0  0  0  0  0  0  0  0  0  0
  2  4  1  0  0  0  0
  3  6  1  0  0  0  0
  3  7  1  0  0  0  0
  4 15  1  6  0  0  0
  5  1  1  6  0  0  0
  5  4  1  0  0  0  0
  6 26  1  1  0  0  0
  6  5  1  0  0  0  0
  7  2  1  0  0  0  0
  8  3  2  0  0  0  0
  9 11  1  0  0  0  0
  9 13  2  0  0  0  0
 11 14  2  0  0  0  0
 12 10  1  0  0  0  0
 13 17  1  0  0  0  0
 14 18  1  0  0  0  0
 15  9  1  0  0  0  0
 16 19  1  0  0  0  0
 17 16  1  0  0  0  0
 17 12  2  0  0  0  0
 18 12  1  0  0  0  0
 19 10  1  0  0  0  0
 20 27  2  0  0  0  0
 21 27  1  0  0  0  0
 22 29  2  0  0  0  0
 23 28  1  0  0  0  0
 23 22  1  0  0  0  0
 24 22  1  0  0  0  0
 25 26  1  0  0  0  0
 25 20  1  0  0  0  0
 26 21  2  0  0  0  0
 28 25  2  0  0  0  0
 29 20  1  0  0  0  0
M  END
>  <MODEL>
2

>  <REMARK>
 VINA RESULT:      -7.0      7.390     10.867
  Name = 
  2 active torsions:
  status: ('A' for Active; 'I' for Inactive)
    1  A    between atoms: C_14  and  N_23
    2  A    between atoms: C_15  and  C_19
                            x       y       z     vdW  Elec       q    Type
                         _______ _______ _______ _____ _____    ______ ____

>  <TORSDO>
F 2

$$$$
=
 OpenBabel10222418463D

 29 33  0  0  1  0  0  0  0  0999 V2000
  192.1950  176.7520  138.0010 C   0  0  0  0  0  1  0  0  0  0  0  0
  189.6680  178.2780  138.8830 C   0  0  0  0  0  2  0  0  0  0  0  0
  189.3090  177.2740  136.6290 C   0  0  0  0  0  0  0  0  0  0  0  0
  190.0640  176.8890  139.3750 C   0  0  1  0  0  3  0  0  0  0  0  0
  190.8400  176.1200  138.2910 C   0  0  1  0  0  3  0  0  0  0  0  0
  190.0310  176.0000  136.9920 C   0  0  1  0  0  3  0  0  0  0  0  0
  188.7190  178.1520  137.6960 C   0  0  0  0  0  2  0  0  0  0  0  0
  189.1460  177.5620  135.4560 O   0  0  0  0  0  0  0  0  0  0  0  0
  190.2270  176.9410  141.9080 C   0  0  0  0  0  0  0  0  0  0  0  0
  189.4310  177.2330  146.3430 C   0  0  0  0  0  2  0  0  0  0  0  0
  188.7570  176.7640  142.0100 C   0  0  0  0  0  3  0  0  0  0  0  0
  189.5530  177.3460  144.8700 C   0  0  0  0  0  0  0  0  0  0  0  0
  191.0170  176.9570  142.9470 N   0  0  0  0  0  0  0  0  0  0  0  0
  187.9900  177.2410  142.9860 C   0  0  0  0  0  3  0  0  0  0  0  0
  190.8300  176.9830  140.6110 N   0  0  0  0  0  2  0  0  0  0  0  0
  191.6630  176.3420  145.3110 C   0  0  0  0  0  2  0  0  0  0  0  0
  190.6760  176.8750  144.3420 C   0  0  0  0  0  0  0  0  0  0  0  0
  188.5280  178.0890  144.0860 C   0  0  0  0  0  2  0  0  0  0  0  0
  190.8390  176.2400  146.9320 S   0  0  0  0  0  0  0  0  0  0  0  0
  187.3440  173.3980  137.1160 C   0  0  0  0  0  0  0  0  0  0  0  0
  189.5150  173.5420  137.0570 C   0  0  0  0  0  3  0  0  0  0  0  0
  185.0200  173.8100  137.1760 C   0  0  0  0  0  0  0  0  0  0  0  0
  185.2690  175.3180  137.1160 C   0  0  0  0  0  2  0  0  0  0  0  0
  183.6780  173.3430  137.2350 N   0  0  0  0  0  1  0  0  0  0  0  0
  187.6630  174.7830  137.0590 C   0  0  0  0  0  0  0  0  0  0  0  0
  189.1130  174.8150  137.0180 C   0  0  0  0  0  0  0  0  0  0  0  0
  188.3930  172.6460  137.1150 N   0  0  0  0  0  0  0  0  0  0  0  0
  186.7290  175.7240  137.0560 C   0  0  0  0  0  3  0  0  0  0  0  0
  185.9960  172.9420  137.1750 N   0  0  0  0  0  0  0  0  0  0  0  0
  2  4  1  0  0  0  0
  3  6  1  0  0  0  0
  3  7  1  0  0  0  0
  4 15  1  1  0  0  0
  5  1  1  6  0  0  0
  5  4  1  0  0  0  0
  6 26  1  1  0  0  0
  6  5  1  0  0  0  0
  7  2  1  0  0  0  0
  8  3  2  0  0  0  0
  9 11  1  0  0  0  0
  9 13  2  0  0  0  0
 10 19  1  0  0  0  0
 11 14  2  0  0  0  0
 12 10  1  0  0  0  0
 13 17  1  0  0  0  0
 14 18  1  0  0  0  0
 15  9  1  0  0  0  0
 16 19  1  0  0  0  0
 17 12  2  0  0  0  0
 17 16  1  0  0  0  0
 18 12  1  0  0  0  0
 20 29  1  0  0  0  0
 21 27  1  0  0  0  0
 22 24  1  0  0  0  0
 23 22  1  0  0  0  0
 25 20  1  0  0  0  0
 26 21  2  0  0  0  0
 26 25  1  0  0  0  0
 27 20  2  0  0  0  0
 28 25  2  0  0  0  0
 28 23  1  0  0  0  0
 29 22  2  0  0  0  0
M  END
>  <MODEL>
3

>  <REMARK>
 VINA RESULT:      -7.0      3.726      7.646
  Name = 
  2 active torsions:
  status: ('A' for Active; 'I' for Inactive)
    1  A    between atoms: C_14  and  N_23
    2  A    between atoms: C_15  and  C_19
                            x       y       z     vdW  Elec       q    Type
                         _______ _______ _______ _____ _____    ______ ____

>  <TORSDO>
F 2

$$$$
=
 OpenBabel10222418463D

 29 33  0  0  1  0  0  0  0  0999 V2000
  189.0370  178.8670  137.3250 C   0  0  0  0  0  1  0  0  0  0  0  0
  189.6350  175.8470  137.2050 C   0  0  0  0  0  2  0  0  0  0  0  0
  190.9410  176.8980  139.0510 C   0  0  0  0  0  0  0  0  0  0  0  0
  188.3820  176.4640  137.8180 C   0  0  1  0  0  3  0  0  0  0  0  0
  188.6810  177.8550  138.4050 C   0  0  1  0  0  3  0  0  0  0  0  0
  189.8000  177.7980  139.4550 C   0  0  1  0  0  3  0  0  0  0  0  0
  190.6850  175.6290  138.2900 C   0  0  0  0  0  2  0  0  0  0  0  0
  192.0770  177.1710  139.4000 O   0  0  0  0  0  0  0  0  0  0  0  0
  186.4250  175.4250  136.5790 C   0  0  0  0  0  0  0  0  0  0  0  0
  183.3710  172.6360  134.7670 C   0  0  0  0  0  2  0  0  0  0  0  0
  186.5860  174.1770  137.3640 C   0  0  0  0  0  3  0  0  0  0  0  0
  184.5440  173.3870  135.2760 C   0  0  0  0  0  0  0  0  0  0  0  0
  185.4500  175.6150  135.7320 N   0  0  0  0  0  0  0  0  0  0  0  0
  186.2980  172.9520  136.9310 C   0  0  0  0  0  3  0  0  0  0  0  0
  187.3070  176.5230  136.8370 N   0  0  0  0  0  2  0  0  0  0  0  0
  183.1140  175.2370  134.8460 C   0  0  0  0  0  2  0  0  0  0  0  0
  184.4070  174.7060  135.3380 C   0  0  0  0  0  0  0  0  0  0  0  0
  185.8290  172.6830  135.5440 C   0  0  0  0  0  2  0  0  0  0  0  0
  181.9990  173.8200  134.5950 S   0  0  0  0  0  0  0  0  0  0  0  0
  188.0750  177.3030  142.7390 C   0  0  0  0  0  0  0  0  0  0  0  0
  189.9110  176.7240  141.7230 C   0  0  0  0  0  3  0  0  0  0  0  0
  185.9860  178.2130  143.3560 C   0  0  0  0  0  0  0  0  0  0  0  0
  185.8500  178.8750  141.9840 C   0  0  0  0  0  2  0  0  0  0  0  0
  184.9430  178.3940  144.3060 N   0  0  0  0  0  1  0  0  0  0  0  0
  188.0280  177.8840  141.4410 C   0  0  0  0  0  0  0  0  0  0  0  0
  189.2670  177.4620  140.8160 C   0  0  0  0  0  0  0  0  0  0  0  0
  189.1520  176.6210  142.9400 N   0  0  0  0  0  0  0  0  0  0  0  0
  187.0090  178.6280  141.0360 C   0  0  0  0  0  3  0  0  0  0  0  0
  187.0240  177.4910  143.6820 N   0  0  0  0  0  0  0  0  0  0  0  0
  2  4  1  0  0  0  0
  2  7  1  0  0  0  0
  3  8  2  0  0  0  0
  3  6  1  0  0  0  0
  4 15  1  6  0  0  0
  4  5  1  0  0  0  0
  5  1  1  6  0  0  0
  5  6  1  0  0  0  0
  6 26  1  1  0  0  0
  7  3  1  0  0  0  0
  9 15  1  0  0  0  0
  9 11  1  0  0  0  0
 10 12  1  0  0  0  0
 12 17  2  0  0  0  0
 12 18  1  0  0  0  0
 13  9  2  0  0  0  0
 14 11  2  0  0  0  0
 16 17  1  0  0  0  0
 17 13  1  0  0  0  0
 18 14  1  0  0  0  0
 19 10  1  0  0  0  0
 19 16  1  0  0  0  0
 20 27  2  0  0  0  0
 20 29  1  0  0  0  0
 21 27  1  0  0  0  0
 22 29  2  0  0  0  0
 22 24  1  0  0  0  0
 23 22  1  0  0  0  0
 25 20  1  0  0  0  0
 26 25  1  0  0  0  0
 26 21  2  0  0  0  0
 28 25  2  0  0  0  0
 28 23  1  0  0  0  0
M  END
>  <MODEL>
4

>  <REMARK>
 VINA RESULT:      -6.8      4.064      6.291
  Name = 
  2 active torsions:
  status: ('A' for Active; 'I' for Inactive)
    1  A    between atoms: C_14  and  N_23
    2  A    between atoms: C_15  and  C_19
                            x       y       z     vdW  Elec       q    Type
                         _______ _______ _______ _____ _____    ______ ____

>  <TORSDO>
F 2

$$$$
=
 OpenBabel10222418463D

 29 33  0  0  1  0  0  0  0  0999 V2000
  190.2840  178.8220  142.7830 C   0  0  0  0  0  1  0  0  0  0  0  0
  189.3050  175.9050  142.9400 C   0  0  0  0  0  2  0  0  0  0  0  0
  187.5410  177.4390  143.8070 C   0  0  0  0  0  0  0  0  0  0  0  0
  189.3330  176.7480  141.6690 C   0  0  1  0  0  3  0  0  0  0  0  0
  189.1230  178.2390  141.9900 C   0  0  1  0  0  3  0  0  0  0  0  0
  187.8060  178.4760  142.7430 C   0  0  1  0  0  3  0  0  0  0  0  0
  187.9310  176.0050  143.5940 C   0  0  0  0  0  2  0  0  0  0  0  0
  186.9480  177.7570  144.8240 O   0  0  0  0  0  0  0  0  0  0  0  0
  190.6250  176.3520  139.5190 C   0  0  0  0  0  0  0  0  0  0  0  0
  191.9210  175.3860  135.3030 C   0  0  0  0  0  2  0  0  0  0  0  0
  189.3610  176.4140  138.7450 C   0  0  0  0  0  3  0  0  0  0  0  0
  191.3620  175.4900  136.6730 C   0  0  0  0  0  0  0  0  0  0  0  0
  191.7990  176.2420  138.9610 N   0  0  0  0  0  0  0  0  0  0  0  0
  189.1170  175.7550  137.6150 C   0  0  0  0  0  3  0  0  0  0  0  0
  190.5750  176.5330  140.9380 N   0  0  0  0  0  2  0  0  0  0  0  0
  193.4480  176.5600  137.0730 C   0  0  0  0  0  2  0  0  0  0  0  0
  192.1270  176.1040  137.5680 C   0  0  0  0  0  0  0  0  0  0  0  0
  190.0900  174.7990  137.0200 C   0  0  0  0  0  2  0  0  0  0  0  0
  193.4480  176.3780  135.2620 S   0  0  0  0  0  0  0  0  0  0  0  0
  184.6090  178.8240  140.8290 C   0  0  0  0  0  0  0  0  0  0  0  0
  186.7470  178.6280  140.4700 C   0  0  0  0  0  3  0  0  0  0  0  0
  182.4490  179.0010  141.7640 C   0  0  0  0  0  0  0  0  0  0  0  0
  183.0350  178.9350  143.1750 C   0  0  0  0  0  2  0  0  0  0  0  0
  181.0390  179.1240  141.6180 N   0  0  0  0  0  1  0  0  0  0  0  0
  185.2360  178.7560  142.1040 C   0  0  0  0  0  0  0  0  0  0  0  0
  186.6490  178.6310  141.8020 C   0  0  0  0  0  0  0  0  0  0  0  0
  185.4530  178.7550  139.8560 N   0  0  0  0  0  0  0  0  0  0  0  0
  184.5450  178.8040  143.2350 C   0  0  0  0  0  3  0  0  0  0  0  0
  183.1960  178.9480  140.6950 N   0  0  0  0  0  0  0  0  0  0  0  0
  2  7  1  0  0  0  0
  3  8  2  0  0  0  0
  4 15  1  1  0  0  0
  4  5  1  0  0  0  0
  4  2  1  0  0  0  0
  5  6  1  0  0  0  0
  5  1  1  1  0  0  0
  6 26  1  6  0  0  0
  6  3  1  0  0  0  0
  7  3  1  0  0  0  0
  9 15  1  0  0  0  0
 10 12  1  0  0  0  0
 11  9  1  0  0  0  0
 12 18  1  0  0  0  0
 12 17  2  0  0  0  0
 13  9  2  0  0  0  0
 14 11  2  0  0  0  0
 16 17  1  0  0  0  0
 17 13  1  0  0  0  0
 18 14  1  0  0  0  0
 19 10  1  0  0  0  0
 19 16  1  0  0  0  0
 20 25  1  0  0  0  0
 21 26  2  0  0  0  0
 22 23  1  0  0  0  0
 23 28  1  0  0  0  0
 24 22  1  0  0  0  0
 25 28  2  0  0  0  0
 26 25  1  0  0  0  0
 27 21  1  0  0  0  0
 27 20  2  0  0  0  0
 29 20  1  0  0  0  0
 29 22  2  0  0  0  0
M  END
>  <MODEL>
5

>  <REMARK>
 VINA RESULT:      -6.7      3.861      5.635
  Name = 
  2 active torsions:
  status: ('A' for Active; 'I' for Inactive)
    1  A    between atoms: C_14  and  N_23
    2  A    between atoms: C_15  and  C_19
                            x       y       z     vdW  Elec       q    Type
                         _______ _______ _______ _____ _____    ______ ____

>  <TORSDO>
F 2

$$$$
=
 OpenBabel10222418463D

 29 33  0  0  1  0  0  0  0  0999 V2000
  179.4860  176.7980  140.4210 C   0  0  0  0  0  1  0  0  0  0  0  0
  180.5820  178.4110  138.0350 C   0  0  0  0  0  2  0  0  0  0  0  0
  180.8320  179.7280  140.1370 C   0  0  0  0  0  0  0  0  0  0  0  0
  181.3210  177.2710  138.7300 C   0  0  1  0  0  3  0  0  0  0  0  0
  180.9420  177.1940  140.2200 C   0  0  1  0  0  3  0  0  0  0  0  0
  181.2270  178.5170  140.9450 C   0  0  1  0  0  3  0  0  0  0  0  0
  181.0030  179.7440  138.6450 C   0  0  0  0  0  2  0  0  0  0  0  0
  180.4300  180.7290  140.7070 O   0  0  0  0  0  0  0  0  0  0  0  0
  182.1080  175.1150  137.6440 C   0  0  0  0  0  0  0  0  0  0  0  0
  184.4820  171.8060  135.6950 C   0  0  0  0  0  2  0  0  0  0  0  0
  183.5160  175.4730  137.9480 C   0  0  0  0  0  3  0  0  0  0  0  0
  183.8180  173.0440  136.1700 C   0  0  0  0  0  0  0  0  0  0  0  0
  181.7600  173.9760  137.1120 N   0  0  0  0  0  0  0  0  0  0  0  0
  184.5730  175.1250  137.2180 C   0  0  0  0  0  3  0  0  0  0  0  0
  181.0650  176.0070  138.0520 N   0  0  0  0  0  2  0  0  0  0  0  0
  182.0610  171.5120  136.6390 C   0  0  0  0  0  2  0  0  0  0  0  0
  182.5970  172.8930  136.6690 C   0  0  0  0  0  0  0  0  0  0  0  0
  184.4510  174.3720  135.9400 C   0  0  0  0  0  2  0  0  0  0  0  0
  183.4300  170.4020  136.1830 S   0  0  0  0  0  0  0  0  0  0  0  0
  184.5600  178.8020  142.6250 C   0  0  0  0  0  0  0  0  0  0  0  0
  183.7190  178.5790  140.6300 C   0  0  0  0  0  3  0  0  0  0  0  0
  184.9230  179.0480  144.9450 C   0  0  0  0  0  0  0  0  0  0  0  0
  183.4170  178.9960  145.2040 C   0  0  0  0  0  2  0  0  0  0  0  0
  185.8000  179.2020  146.0540 N   0  0  0  0  0  1  0  0  0  0  0  0
  183.1460  178.7450  142.7780 C   0  0  0  0  0  0  0  0  0  0  0  0
  182.6460  178.5930  141.4250 C   0  0  0  0  0  0  0  0  0  0  0  0
  184.9300  178.7080  141.3930 N   0  0  0  0  0  0  0  0  0  0  0  0
  182.5590  178.8300  143.9640 C   0  0  0  0  0  3  0  0  0  0  0  0
  185.4280  178.9570  143.7440 N   0  0  0  0  0  0  0  0  0  0  0  0
  2  7  1  0  0  0  0
  2  4  1  0  0  0  0
  3  8  2  0  0  0  0
  3  6  1  0  0  0  0
  4 15  1  6  0  0  0
  4  5  1  0  0  0  0
  5  1  1  6  0  0  0
  5  6  1  0  0  0  0
  6 26  1  6  0  0  0
  7  3  1  0  0  0  0
  9 11  1  0  0  0  0
  9 15  1  0  0  0  0
 10 12  1  0  0  0  0
 10 19  1  0  0  0  0
 12 17  2  0  0  0  0
 13  9  2  0  0  0  0
 14 11  2  0  0  0  0
 16 17  1  0  0  0  0
 17 13  1  0  0  0  0
 18 12  1  0  0  0  0
 18 14  1  0  0  0  0
 19 16  1  0  0  0  0
 20 25  1  0  0  0  0
 20 29  1  0  0  0  0
 21 27  1  0  0  0  0
 21 26  2  0  0  0  0
 22 23  1  0  0  0  0
 22 24  1  0  0  0  0
 25 28  2  0  0  0  0
 26 25  1  0  0  0  0
 27 20  2  0  0  0  0
 28 23  1  0  0  0  0
 29 22  2  0  0  0  0
M  END
>  <MODEL>
6

>  <REMARK>
 VINA RESULT:      -6.6      7.535      8.860
  Name = 
  2 active torsions:
  status: ('A' for Active; 'I' for Inactive)
    1  A    between atoms: C_14  and  N_23
    2  A    between atoms: C_15  and  C_19
                            x       y       z     vdW  Elec       q    Type
                         _______ _______ _______ _____ _____    ______ ____

>  <TORSDO>
F 2

$$$$
=
 OpenBabel10222418463D

 29 33  0  0  1  0  0  0  0  0999 V2000
  185.7260  176.3990  145.8800 C   0  0  0  0  0  1  0  0  0  0  0  0
  186.1150  179.1720  147.1650 C   0  0  0  0  0  2  0  0  0  0  0  0
  188.1920  177.8170  147.4270 C   0  0  0  0  0  0  0  0  0  0  0  0
  186.1870  178.8870  145.6680 C   0  0  1  0  0  3  0  0  0  0  0  0
  186.7050  177.4620  145.4010 C   0  0  1  0  0  3  0  0  0  0  0  0
  188.0810  177.2310  146.0410 C   0  0  1  0  0  3  0  0  0  0  0  0
  187.5160  179.1140  147.7670 C   0  0  0  0  0  2  0  0  0  0  0  0
  188.8900  177.2660  148.2620 O   0  0  0  0  0  0  0  0  0  0  0  0
  184.6290  178.8160  143.6650 C   0  0  0  0  0  0  0  0  0  0  0  0
  182.8050  178.5880  139.5410 C   0  0  0  0  0  2  0  0  0  0  0  0
  185.7150  178.2370  142.8360 C   0  0  0  0  0  3  0  0  0  0  0  0
  183.5650  178.8260  140.7910 C   0  0  0  0  0  0  0  0  0  0  0  0
  183.4100  178.9800  143.2300 N   0  0  0  0  0  0  0  0  0  0  0  0
  185.8660  178.4210  141.5270 C   0  0  0  0  0  3  0  0  0  0  0  0
  184.8900  179.1060  145.0420 N   0  0  0  0  0  2  0  0  0  0  0  0
  181.4340  178.4110  141.7600 C   0  0  0  0  0  2  0  0  0  0  0  0
  182.8750  178.7160  141.9200 C   0  0  0  0  0  0  0  0  0  0  0  0
  184.9720  179.3090  140.7350 C   0  0  0  0  0  2  0  0  0  0  0  0
  181.1540  177.9820  140.0140 S   0  0  0  0  0  0  0  0  0  0  0  0
  190.6580  178.0150  143.4430 C   0  0  0  0  0  0  0  0  0  0  0  0
  190.1970  178.4810  145.5190 C   0  0  0  0  0  3  0  0  0  0  0  0
  190.6880  177.1910  141.2310 C   0  0  0  0  0  0  0  0  0  0  0  0
  189.3890  176.4240  141.4810 C   0  0  0  0  0  2  0  0  0  0  0  0
  191.2940  177.1030  139.9480 N   0  0  0  0  0  1  0  0  0  0  0  0
  189.4500  177.3330  143.7590 C   0  0  0  0  0  0  0  0  0  0  0  0
  189.1940  177.6830  145.1440 C   0  0  0  0  0  0  0  0  0  0  0  0
  191.1210  178.6930  144.4390 N   0  0  0  0  0  0  0  0  0  0  0  0
  188.8140  176.5750  142.8770 C   0  0  0  0  0  3  0  0  0  0  0  0
  191.2560  177.9190  142.1540 N   0  0  0  0  0  0  0  0  0  0  0  0
  2  7  1  0  0  0  0
  3  7  1  0  0  0  0
  3  8  2  0  0  0  0
  4 15  1  1  0  0  0
  4  2  1  0  0  0  0
  5  4  1  0  0  0  0
  5  1  1  1  0  0  0
  5  6  1  0  0  0  0
  6 26  1  6  0  0  0
  6  3  1  0  0  0  0
  9 15  1  0  0  0  0
 10 19  1  0  0  0  0
 10 12  1  0  0  0  0
 11  9  1  0  0  0  0
 12 17  2  0  0  0  0
 13  9  2  0  0  0  0
 14 11  2  0  0  0  0
 16 17  1  0  0  0  0
 17 13  1  0  0  0  0
 18 12  1  0  0  0  0
 18 14  1  0  0  0  0
 19 16  1  0  0  0  0
 20 25  1  0  0  0  0
 20 27  2  0  0  0  0
 22 23  1  0  0  0  0
 22 29  2  0  0  0  0
 23 28  1  0  0  0  0
 24 22  1  0  0  0  0
 25 26  1  0  0  0  0
 26 21  2  0  0  0  0
 27 21  1  0  0  0  0
 28 25  2  0  0  0  0
 29 20  1  0  0  0  0
M  END
>  <MODEL>
7

>  <REMARK>
 VINA RESULT:      -6.6      5.691      9.646
  Name = 
  2 active torsions:
  status: ('A' for Active; 'I' for Inactive)
    1  A    between atoms: C_14  and  N_23
    2  A    between atoms: C_15  and  C_19
                            x       y       z     vdW  Elec       q    Type
                         _______ _______ _______ _____ _____    ______ ____

>  <TORSDO>
F 2

$$$$
=
 OpenBabel10222418463D

 29 33  0  0  1  0  0  0  0  0999 V2000
  191.4230  179.1840  143.1750 C   0  0  0  0  0  1  0  0  0  0  0  0
  190.4330  176.3910  142.3310 C   0  0  0  0  0  2  0  0  0  0  0  0
  191.2220  176.3320  144.6950 C   0  0  0  0  0  0  0  0  0  0  0  0
  189.5280  177.5560  142.7220 C   0  0  1  0  0  3  0  0  0  0  0  0
  190.2140  178.4640  143.7580 C   0  0  1  0  0  3  0  0  0  0  0  0
  190.6280  177.6820  145.0120 C   0  0  1  0  0  3  0  0  0  0  0  0
  190.6990  175.5140  143.5490 C   0  0  0  0  0  2  0  0  0  0  0  0
  192.0930  175.8720  145.4140 O   0  0  0  0  0  0  0  0  0  0  0  0
  189.2490  177.7990  140.2110 C   0  0  0  0  0  0  0  0  0  0  0  0
  189.4540  177.3790  135.7200 C   0  0  0  0  0  2  0  0  0  0  0  0
  189.7900  176.4320  140.0150 C   0  0  0  0  0  3  0  0  0  0  0  0
  189.6380  177.4960  137.1860 C   0  0  0  0  0  0  0  0  0  0  0  0
  188.7830  178.5290  139.2340 N   0  0  0  0  0  0  0  0  0  0  0  0
  190.4800  176.0220  138.9530 C   0  0  0  0  0  3  0  0  0  0  0  0
  189.1220  178.3080  141.5430 N   0  0  0  0  0  2  0  0  0  0  0  0
  187.7070  178.8670  136.9730 C   0  0  0  0  0  2  0  0  0  0  0  0
  188.7390  178.2330  137.8270 C   0  0  0  0  0  0  0  0  0  0  0  0
  190.8540  176.9360  137.8390 C   0  0  0  0  0  2  0  0  0  0  0  0
  187.8560  178.1460  135.3080 S   0  0  0  0  0  0  0  0  0  0  0  0
  187.5230  177.6650  147.1020 C   0  0  0  0  0  0  0  0  0  0  0  0
  189.6510  177.2470  147.2860 C   0  0  0  0  0  3  0  0  0  0  0  0
  185.3560  178.2450  146.3650 C   0  0  0  0  0  0  0  0  0  0  0  0
  185.8870  178.5050  144.9540 C   0  0  0  0  0  2  0  0  0  0  0  0
  183.9690  178.4340  146.6160 N   0  0  0  0  0  1  0  0  0  0  0  0
  188.0980  177.8850  145.8190 C   0  0  0  0  0  0  0  0  0  0  0  0
  189.5060  177.5890  146.0030 C   0  0  0  0  0  0  0  0  0  0  0  0
  188.3920  177.2920  147.9790 N   0  0  0  0  0  0  0  0  0  0  0  0
  187.3760  178.2780  144.7790 C   0  0  0  0  0  3  0  0  0  0  0  0
  186.1320  177.8570  147.3410 N   0  0  0  0  0  0  0  0  0  0  0  0
  2  4  1  0  0  0  0
  2  7  1  0  0  0  0
  3  6  1  0  0  0  0
  3  8  2  0  0  0  0
  4 15  1  6  0  0  0
  4  5  1  0  0  0  0
  5  1  1  6  0  0  0
  5  6  1  0  0  0  0
  6 26  1  1  0  0  0
  7  3  1  0  0  0  0
  9 15  1  0  0  0  0
 10 12  1  0  0  0  0
 11  9  1  0  0  0  0
 12 17  2  0  0  0  0
 12 18  1  0  0  0  0
 13  9  2  0  0  0  0
 14 11  2  0  0  0  0
 16 17  1  0  0  0  0
 17 13  1  0  0  0  0
 18 14  1  0  0  0  0
 19 10  1  0  0  0  0
 19 16  1  0  0  0  0
 20 29  1  0  0  0  0
 20 27  2  0  0  0  0
 21 27  1  0  0  0  0
 22 24  1  0  0  0  0
 22 29  2  0  0  0  0
 23 22  1  0  0  0  0
 25 26  1  0  0  0  0
 25 20  1  0  0  0  0
 26 21  2  0  0  0  0
 28 23  1  0  0  0  0
 28 25  2  0  0  0  0
M  END
>  <MODEL>
8

>  <REMARK>
 VINA RESULT:      -6.5      4.135      6.509
  Name = 
  2 active torsions:
  status: ('A' for Active; 'I' for Inactive)
    1  A    between atoms: C_14  and  N_23
    2  A    between atoms: C_15  and  C_19
                            x       y       z     vdW  Elec       q    Type
                         _______ _______ _______ _____ _____    ______ ____

>  <TORSDO>
F 2

$$$$
=
 OpenBabel10222418463D

 29 33  0  0  1  0  0  0  0  0999 V2000
  190.6960  175.3860  136.9480 C   0  0  0  0  0  1  0  0  0  0  0  0
  189.7780  178.1160  138.0430 C   0  0  0  0  0  2  0  0  0  0  0  0
  188.3950  177.4870  136.0670 C   0  0  0  0  0  0  0  0  0  0  0  0
  189.4170  176.7650  138.6540 C   0  0  1  0  0  3  0  0  0  0  0  0
  189.3370  175.6730  137.5710 C   0  0  1  0  0  3  0  0  0  0  0  0
  188.3250  176.0360  136.4750 C   0  0  1  0  0  3  0  0  0  0  0  0
  188.6790  178.5570  137.0820 C   0  0  0  0  0  2  0  0  0  0  0  0
  188.1540  177.8010  134.9130 O   0  0  0  0  0  0  0  0  0  0  0  0
  190.1860  176.7720  141.0730 C   0  0  0  0  0  0  0  0  0  0  0  0
  190.8150  177.5990  145.4670 C   0  0  0  0  0  2  0  0  0  0  0  0
  188.9690  177.5250  141.4620 C   0  0  0  0  0  3  0  0  0  0  0  0
  190.6180  177.5780  143.9980 C   0  0  0  0  0  0  0  0  0  0  0  0
  191.0600  176.3320  141.9370 N   0  0  0  0  0  0  0  0  0  0  0  0
  188.8890  178.3950  142.4660 C   0  0  0  0  0  3  0  0  0  0  0  0
  190.3640  176.4060  139.7010 N   0  0  0  0  0  2  0  0  0  0  0  0
  191.7730  175.5120  144.2180 C   0  0  0  0  0  2  0  0  0  0  0  0
  191.0850  176.5090  143.3640 C   0  0  0  0  0  0  0  0  0  0  0  0
  190.0670  178.7700  143.2960 C   0  0  0  0  0  2  0  0  0  0  0  0
  191.4690  175.9710  145.9530 S   0  0  0  0  0  0  0  0  0  0  0  0
  184.9800  174.5130  137.1810 C   0  0  0  0  0  0  0  0  0  0  0  0
  185.9890  176.4380  137.3060 C   0  0  0  0  0  3  0  0  0  0  0  0
  184.3890  172.2530  136.8380 C   0  0  0  0  0  0  0  0  0  0  0  0
  185.8010  171.9410  136.3430 C   0  0  0  0  0  2  0  0  0  0  0  0
  183.4340  171.2000  136.8820 N   0  0  0  0  0  1  0  0  0  0  0  0
  186.3150  174.3080  136.7330 C   0  0  0  0  0  0  0  0  0  0  0  0
  186.9340  175.6160  136.8430 C   0  0  0  0  0  0  0  0  0  0  0  0
  184.7530  175.7360  137.5240 N   0  0  0  0  0  0  0  0  0  0  0  0
  186.7520  173.1230  136.3300 C   0  0  0  0  0  3  0  0  0  0  0  0
  184.0330  173.4500  137.2200 N   0  0  0  0  0  0  0  0  0  0  0  0
  2  4  1  0  0  0  0
  3  6  1  0  0  0  0
  3  7  1  0  0  0  0
  4 15  1  1  0  0  0
  5  1  1  6  0  0  0
  5  4  1  0  0  0  0
  6 26  1  1  0  0  0
  6  5  1  0  0  0  0
  7  2  1  0  0  0  0
  8  3  2  0  0  0  0
  9 11  1  0  0  0  0
  9 13  2  0  0  0  0
 10 19  1  0  0  0  0
 11 14  2  0  0  0  0
 12 10  1  0  0  0  0
 13 17  1  0  0  0  0
 14 18  1  0  0  0  0
 15  9  1  0  0  0  0
 16 19  1  0  0  0  0
 17 12  2  0  0  0  0
 17 16  1  0  0  0  0
 18 12  1  0  0  0  0
 20 29  1  0  0  0  0
 20 27  2  0  0  0  0
 21 27  1  0  0  0  0
 22 24  1  0  0  0  0
 22 29  2  0  0  0  0
 23 22  1  0  0  0  0
 25 26  1  0  0  0  0
 25 20  1  0  0  0  0
 26 21  2  0  0  0  0
 28 23  1  0  0  0  0
 28 25  2  0  0  0  0
M  END
>  <MODEL>
9

>  <REMARK>
 VINA RESULT:      -6.5      4.018      7.567
  Name = 
  2 active torsions:
  status: ('A' for Active; 'I' for Inactive)
    1  A    between atoms: C_14  and  N_23
    2  A    between atoms: C_15  and  C_19
                            x       y       z     vdW  Elec       q    Type
                         _______ _______ _______ _____ _____    ______ ____

>  <TORSDO>
F 2

$$$$
