=
 OpenBabel10222419323D

 42 45  0  0  1  0  0  0  0  0999 V2000
  186.3600  177.5330  137.3440 C   0  0  0  0  0  0  0  0  0  0  0  0
  187.6340  176.9560  137.4610 C   0  0  0  0  0  0  0  0  0  0  0  0
  187.1700  177.3190  135.3510 C   0  0  0  0  0  3  0  0  0  0  0  0
  186.1030  178.2800  138.5560 C   0  0  0  0  0  0  0  0  0  0  0  0
  188.1480  176.8050  136.1140 C   0  0  0  0  0  3  0  0  0  0  0  0
  187.1870  178.1380  139.3320 C   0  0  0  0  0  0  0  0  0  0  0  0
  188.2030  177.3080  138.6070 C   0  0  0  0  0  0  0  0  0  0  0  0
  186.0810  177.8520  136.1290 N   0  0  0  0  0  0  0  0  0  0  0  0
  184.9700  179.1250  138.8180 C   0  0  0  0  0  0  0  0  0  0  0  0
  184.0590  179.8060  139.0290 N   0  0  0  0  0  0  0  0  0  0  0  0
  187.3270  178.8240  140.5820 N   0  0  0  0  0  2  0  0  0  0  0  0
  185.0970  178.9340  142.3160 C   0  0  0  0  0  1  0  0  0  0  0  0
  187.3530  178.1670  141.8150 N   0  0  0  0  0  0  0  0  0  0  0  0
  186.3550  178.2010  142.6420 C   0  0  0  0  0  0  0  0  0  0  0  0
  186.4500  177.4650  143.9330 C   0  0  0  0  0  2  0  0  0  0  0  0
  187.8940  177.0570  144.1970 C   0  0  0  0  0  2  0  0  0  0  0  0
  188.3550  177.3710  145.6200 C   0  0  2  0  0  3  0  0  0  0  0  0
  187.3140  178.0490  146.3990 N   0  0  0  0  0  2  0  0  0  0  0  0
  187.4200  177.6760  147.6970 O   0  0  0  0  0  1  0  0  0  0  0  0
  189.7070  178.0820  145.6720 C   0  0  0  0  0  2  0  0  0  0  0  0
  191.3710  178.8610  144.0070 C   0  0  0  0  0  1  0  0  0  0  0  0
  190.5920  177.6630  144.5080 C   0  0  1  0  0  3  0  0  0  0  0  0
  191.8270  175.6680  144.0930 O   0  0  0  0  0  0  0  0  0  0  0  0
  191.5340  176.5770  144.9120 C   0  0  0  0  0  0  0  0  0  0  0  0
  192.0960  176.5660  146.1840 O   0  0  0  0  0  1  0  0  0  0  0  0
  189.6260  177.3150  138.7710 N   0  0  0  0  0  2  0  0  0  0  0  0
  190.4060  176.2320  139.3500 C   0  0  2  0  0  3  0  0  0  0  0  0
  192.6680  176.9630  138.5610 C   0  0  2  0  0  3  0  0  0  0  0  0
  192.0530  177.6260  140.6280 C   0  0  0  0  0  2  0  0  0  0  0  0
  190.8950  176.6300  140.7450 C   0  0  0  0  0  2  0  0  0  0  0  0
  193.1070  177.0520  139.8960 O   0  0  0  0  0  0  0  0  0  0  0  0
  191.5920  175.8830  138.4440 C   0  0  0  0  0  2  0  0  0  0  0  0
  193.7850  176.6260  137.6960 N   0  0  0  0  0  2  0  0  0  0  0  0
  193.6130  175.2400  137.2960 C   0  0  0  0  0  2  0  0  0  0  0  0
  194.8930  174.7380  136.6540 C   0  0  2  0  0  3  0  0  0  0  0  0
  195.4810  174.2440  139.0280 F   0  0  0  0  0  0  0  0  0  0  0  0
  195.0170  173.2350  136.8710 C   0  0  0  0  0  2  0  0  0  0  0  0
  195.8530  174.1860  137.6930 C   0  0  1  0  0  0  0  0  0  0  0  0
  197.3300  174.1940  137.3170 C   0  0  2  0  0  3  0  0  0  0  0  0
  197.9530  173.0000  137.7000 O   0  0  0  0  0  1  0  0  0  0  0  0
  198.6390  175.0330  139.1490 C   0  0  0  0  0  1  0  0  0  0  0  0
  198.0350  175.3560  137.8610 N   0  0  0  0  0  2  0  0  0  0  0  0
  1  2  1  0  0  0  0
  1  4  1  0  0  0  0
  2  7  2  0  0  0  0
  3  5  2  0  0  0  0
  3  8  1  0  0  0  0
  4  9  1  0  0  0  0
  4  6  2  0  0  0  0
  5  2  1  0  0  0  0
  6 11  1  0  0  0  0
  7 26  1  0  0  0  0
  7  6  1  0  0  0  0
  8  1  2  0  0  0  0
  9 10  3  0  0  0  0
 11 13  1  0  0  0  0
 12 14  1  0  0  0  0
 13 14  2  0  0  0  0
 14 15  1  0  0  0  0
 15 16  1  0  0  0  0
 17 16  1  6  0  0  0
 17 20  1  0  0  0  0
 17 18  1  0  0  0  0
 18 19  1  0  0  0  0
 22 21  1  1  0  0  0
 22 24  1  0  0  0  0
 22 20  1  0  0  0  0
 23 24  2  0  0  0  0
 24 25  1  0  0  0  0
 27 26  1  6  0  0  0
 27 30  1  0  0  0  0
 28 33  1  6  0  0  0
 28 31  1  0  0  0  0
 29 30  1  0  0  0  0
 31 29  1  0  0  0  0
 32 28  1  0  0  0  0
 32 27  1  0  0  0  0
 34 33  1  0  0  0  0
 35 37  1  0  0  0  0
 35 34  1  1  0  0  0
 35 38  1  0  0  0  0
 37 38  1  0  0  0  0
 38 36  1  1  0  0  0
 39 38  1  0  0  0  0
 39 40  1  1  0  0  0
 39 42  1  0  0  0  0
 42 41  1  0  0  0  0
M  END
>  <MODEL>
1

>  <REMARK>
 VINA RESULT:      -7.3      0.000      0.000
  Name = 
  17 active torsions:
  status: ('A' for Active; 'I' for Inactive)
    1  A    between atoms: C_1  and  C_39
    2  A    between atoms: N_2  and  C_16
    3  A    between atoms: C_7  and  N_11
    4  A    between atoms: C_7  and  C_42
    5  A    between atoms: C_8  and  C_15
    6  A    between atoms: N_9  and  C_13
    7  A    between atoms: N_9  and  C_29
    8  A    between atoms: C_12  and  C_30
    9  A    between atoms: C_12  and  C_36
   10  A    between atoms: C_16  and  C_17
   11  A    between atoms: C_16  and  C_36
   12  A    between atoms: C_17  and  C_41
   13  A    between atoms: N_18  and  C_28
   14  A    between atoms: N_18  and  N_31
   15  A    between atoms: C_20  and  N_37
   16  A    between atoms: C_35  and  C_41
   17  A    between atoms: N_37  and  C_39
                            x       y       z     vdW  Elec       q    Type
                         _______ _______ _______ _____ _____    ______ ____

>  <TORSDO>
F 17

$$$$
=
 OpenBabel10222419323D

 42 45  0  0  1  0  0  0  0  0999 V2000
  188.6650  177.4710  145.1900 C   0  0  0  0  0  0  0  0  0  0  0  0
  187.3580  177.1560  144.7860 C   0  0  0  0  0  0  0  0  0  0  0  0
  187.3730  177.7050  146.9070 C   0  0  0  0  0  3  0  0  0  0  0  0
  189.3720  177.9750  144.0320 C   0  0  0  0  0  0  0  0  0  0  0  0
  186.5150  177.3010  145.9570 C   0  0  0  0  0  3  0  0  0  0  0  0
  188.5050  177.9520  143.0110 C   0  0  0  0  0  0  0  0  0  0  0  0
  187.1790  177.4560  143.5070 C   0  0  0  0  0  0  0  0  0  0  0  0
  188.7100  177.8910  146.4050 N   0  0  0  0  0  0  0  0  0  0  0  0
  190.6990  178.5260  144.0130 C   0  0  0  0  0  0  0  0  0  0  0  0
  191.7670  178.9700  143.9990 N   0  0  0  0  0  0  0  0  0  0  0  0
  188.8320  178.4720  141.7180 N   0  0  0  0  0  2  0  0  0  0  0  0
  191.1030  177.3780  140.4370 C   0  0  0  0  0  1  0  0  0  0  0  0
  188.6960  177.7330  140.5400 N   0  0  0  0  0  0  0  0  0  0  0  0
  189.7130  177.2230  139.9180 C   0  0  0  0  0  0  0  0  0  0  0  0
  189.4880  176.4350  138.6740 C   0  0  0  0  0  2  0  0  0  0  0  0
  190.0010  177.2080  137.4650 C   0  0  0  0  0  2  0  0  0  0  0  0
  188.8780  177.7830  136.6020 C   0  0  2  0  0  3  0  0  0  0  0  0
  188.0970  178.7950  137.3170 N   0  0  0  0  0  2  0  0  0  0  0  0
  188.8970  179.8510  137.6010 O   0  0  0  0  0  1  0  0  0  0  0  0
  188.0150  176.7080  135.9420 C   0  0  0  0  0  2  0  0  0  0  0  0
  185.7140  177.2390  135.1830 C   0  0  0  0  0  1  0  0  0  0  0  0
  186.5610  176.8320  136.3720 C   0  0  1  0  0  3  0  0  0  0  0  0
  186.8680  174.6250  137.2160 O   0  0  0  0  0  1  0  0  0  0  0  0
  186.0560  175.5450  136.9390 C   0  0  0  0  0  0  0  0  0  0  0  0
  184.6980  175.3590  137.1690 O   0  0  0  0  0  0  0  0  0  0  0  0
  185.8790  177.7300  142.9710 N   0  0  0  0  0  2  0  0  0  0  0  0
  185.3700  179.0550  142.6510 C   0  0  2  0  0  3  0  0  0  0  0  0
  183.0070  178.4090  142.1260 C   0  0  2  0  0  3  0  0  0  0  0  0
  183.4280  179.0800  144.2390 C   0  0  0  0  0  2  0  0  0  0  0  0
  184.7870  179.7060  143.9080 C   0  0  0  0  0  2  0  0  0  0  0  0
  182.5460  179.2500  143.1570 O   0  0  0  0  0  0  0  0  0  0  0  0
  184.3080  178.9690  141.5490 C   0  0  0  0  0  2  0  0  0  0  0  0
  182.0100  178.3270  141.0740 N   0  0  0  0  0  2  0  0  0  0  0  0
  182.6850  177.8460  139.8810 C   0  0  0  0  0  2  0  0  0  0  0  0
  181.7860  178.0500  138.6750 C   0  0  2  0  0  3  0  0  0  0  0  0
  182.9090  180.2780  138.6500 F   0  0  0  0  0  0  0  0  0  0  0  0
  182.6390  178.2030  137.4230 C   0  0  0  0  0  2  0  0  0  0  0  0
  182.0010  179.4180  138.0520 C   0  0  1  0  0  0  0  0  0  0  0  0
  180.8320  179.9860  137.2540 C   0  0  2  0  0  3  0  0  0  0  0  0
  180.6980  179.3310  136.0230 O   0  0  0  0  0  1  0  0  0  0  0  0
  180.5390  181.8130  135.7220 C   0  0  0  0  0  1  0  0  0  0  0  0
  180.9360  181.4350  137.0730 N   0  0  0  0  0  2  0  0  0  0  0  0
  1  8  2  0  0  0  0
  2  1  1  0  0  0  0
  2  5  1  0  0  0  0
  4  1  1  0  0  0  0
  5  3  2  0  0  0  0
  6  7  1  0  0  0  0
  6  4  2  0  0  0  0
  7  2  2  0  0  0  0
  8  3  1  0  0  0  0
  9  4  1  0  0  0  0
 10  9  3  0  0  0  0
 11  6  1  0  0  0  0
 13 11  1  0  0  0  0
 14 12  1  0  0  0  0
 14 13  2  0  0  0  0
 15 14  1  0  0  0  0
 16 15  1  0  0  0  0
 17 20  1  1  0  0  0
 17 18  1  0  0  0  0
 17 16  1  0  0  0  0
 18 19  1  0  0  0  0
 20 22  1  0  0  0  0
 22 21  1  6  0  0  0
 22 24  1  0  0  0  0
 24 25  2  0  0  0  0
 24 23  1  0  0  0  0
 26  7  1  0  0  0  0
 27 26  1  1  0  0  0
 27 30  1  0  0  0  0
 28 33  1  6  0  0  0
 28 31  1  0  0  0  0
 30 29  1  0  0  0  0
 31 29  1  0  0  0  0
 32 28  1  0  0  0  0
 32 27  1  0  0  0  0
 34 33  1  0  0  0  0
 35 34  1  1  0  0  0
 37 38  1  0  0  0  0
 37 35  1  0  0  0  0
 38 36  1  1  0  0  0
 38 35  1  0  0  0  0
 39 40  1  6  0  0  0
 39 38  1  0  0  0  0
 41 42  1  0  0  0  0
 42 39  1  0  0  0  0
M  END
>  <MODEL>
2

>  <REMARK>
 VINA RESULT:      -7.2      4.935     10.556
  Name = 
  17 active torsions:
  status: ('A' for Active; 'I' for Inactive)
    1  A    between atoms: C_1  and  C_39
    2  A    between atoms: N_2  and  C_16
    3  A    between atoms: C_7  and  N_11
    4  A    between atoms: C_7  and  C_42
    5  A    between atoms: C_8  and  C_15
    6  A    between atoms: N_9  and  C_13
    7  A    between atoms: N_9  and  C_29
    8  A    between atoms: C_12  and  C_30
    9  A    between atoms: C_12  and  C_36
   10  A    between atoms: C_16  and  C_17
   11  A    between atoms: C_16  and  C_36
   12  A    between atoms: C_17  and  C_41
   13  A    between atoms: N_18  and  C_28
   14  A    between atoms: N_18  and  N_31
   15  A    between atoms: C_20  and  N_37
   16  A    between atoms: C_35  and  C_41
   17  A    between atoms: N_37  and  C_39
                            x       y       z     vdW  Elec       q    Type
                         _______ _______ _______ _____ _____    ______ ____

>  <TORSDO>
F 17

$$$$
=
 OpenBabel10222419323D

 42 45  0  0  1  0  0  0  0  0999 V2000
  188.8060  177.4920  145.3770 C   0  0  0  0  0  0  0  0  0  0  0  0
  187.5020  177.1780  144.9610 C   0  0  0  0  0  0  0  0  0  0  0  0
  187.4920  177.7700  147.0710 C   0  0  0  0  0  3  0  0  0  0  0  0
  189.5330  177.9670  144.2200 C   0  0  0  0  0  0  0  0  0  0  0  0
  186.6440  177.3530  146.1160 C   0  0  0  0  0  3  0  0  0  0  0  0
  188.6800  177.9300  143.1870 C   0  0  0  0  0  0  0  0  0  0  0  0
  187.3440  177.4530  143.6730 C   0  0  0  0  0  0  0  0  0  0  0  0
  188.8370  177.9360  146.5840 N   0  0  0  0  0  0  0  0  0  0  0  0
  190.8650  178.5090  144.2090 C   0  0  0  0  0  0  0  0  0  0  0  0
  191.9370  178.9430  144.2000 N   0  0  0  0  0  0  0  0  0  0  0  0
  189.0300  178.4220  141.8890 N   0  0  0  0  0  2  0  0  0  0  0  0
  191.4410  177.5410  140.7020 C   0  0  0  0  0  1  0  0  0  0  0  0
  189.0070  177.6280  140.7390 N   0  0  0  0  0  0  0  0  0  0  0  0
  190.0900  177.2120  140.1600 C   0  0  0  0  0  0  0  0  0  0  0  0
  189.9870  176.3560  138.9450 C   0  0  0  0  0  2  0  0  0  0  0  0
  190.1610  177.2050  137.6910 C   0  0  0  0  0  2  0  0  0  0  0  0
  188.8390  177.7300  137.1350 C   0  0  2  0  0  3  0  0  0  0  0  0
  188.7000  179.1780  137.3190 N   0  0  0  0  0  2  0  0  0  0  0  0
  187.5210  179.5800  136.7850 O   0  0  0  0  0  1  0  0  0  0  0  0
  187.6240  176.9400  137.6210 C   0  0  0  0  0  2  0  0  0  0  0  0
  187.8200  176.3110  135.2310 C   0  0  0  0  0  1  0  0  0  0  0  0
  187.0870  176.0310  136.5260 C   0  0  1  0  0  3  0  0  0  0  0  0
  186.2370  173.9290  137.2600 O   0  0  0  0  0  1  0  0  0  0  0  0
  187.2430  174.5920  136.8980 C   0  0  0  0  0  0  0  0  0  0  0  0
  188.4900  173.9790  136.8420 O   0  0  0  0  0  0  0  0  0  0  0  0
  186.0540  177.7270  143.1130 N   0  0  0  0  0  2  0  0  0  0  0  0
  185.5270  179.0540  142.8360 C   0  0  2  0  0  3  0  0  0  0  0  0
  183.3500  178.3630  141.8080 C   0  0  2  0  0  3  0  0  0  0  0  0
  183.3280  178.8160  144.0180 C   0  0  0  0  0  2  0  0  0  0  0  0
  184.6810  179.5360  144.0170 C   0  0  0  0  0  2  0  0  0  0  0  0
  182.6520  179.0640  142.8110 O   0  0  0  0  0  0  0  0  0  0  0  0
  184.6960  179.0420  141.5490 C   0  0  0  0  0  2  0  0  0  0  0  0
  182.5720  178.3530  140.5830 N   0  0  0  0  0  2  0  0  0  0  0  0
  183.5120  178.4320  139.4780 C   0  0  0  0  0  2  0  0  0  0  0  0
  183.4610  177.1440  138.6780 C   0  0  2  0  0  3  0  0  0  0  0  0
  181.6490  178.3670  137.4760 F   0  0  0  0  0  0  0  0  0  0  0  0
  183.8700  177.4200  137.2370 C   0  0  0  0  0  2  0  0  0  0  0  0
  182.4140  177.2150  137.5810 C   0  0  1  0  0  0  0  0  0  0  0  0
  181.8480  175.8830  137.1010 C   0  0  2  0  0  3  0  0  0  0  0  0
  180.5380  175.7000  137.5580 O   0  0  0  0  0  1  0  0  0  0  0  0
  182.6650  173.7230  136.4400 C   0  0  0  0  0  1  0  0  0  0  0  0
  182.7000  174.7520  137.4730 N   0  0  0  0  0  2  0  0  0  0  0  0
  1  8  2  0  0  0  0
  2  1  1  0  0  0  0
  2  5  1  0  0  0  0
  4  1  1  0  0  0  0
  5  3  2  0  0  0  0
  6  7  1  0  0  0  0
  6  4  2  0  0  0  0
  7  2  2  0  0  0  0
  8  3  1  0  0  0  0
  9  4  1  0  0  0  0
 10  9  3  0  0  0  0
 11  6  1  0  0  0  0
 13 11  1  0  0  0  0
 14 12  1  0  0  0  0
 14 13  2  0  0  0  0
 15 14  1  0  0  0  0
 16 15  1  0  0  0  0
 17 18  1  0  0  0  0
 17 20  1  1  0  0  0
 17 16  1  0  0  0  0
 19 18  1  0  0  0  0
 22 21  1  6  0  0  0
 22 24  1  0  0  0  0
 22 20  1  0  0  0  0
 24 23  1  0  0  0  0
 25 24  2  0  0  0  0
 26  7  1  0  0  0  0
 27 26  1  1  0  0  0
 27 30  1  0  0  0  0
 28 33  1  6  0  0  0
 28 31  1  0  0  0  0
 30 29  1  0  0  0  0
 31 29  1  0  0  0  0
 32 28  1  0  0  0  0
 32 27  1  0  0  0  0
 34 33  1  0  0  0  0
 35 34  1  1  0  0  0
 37 38  1  0  0  0  0
 37 35  1  0  0  0  0
 38 36  1  6  0  0  0
 38 35  1  0  0  0  0
 39 42  1  0  0  0  0
 39 40  1  1  0  0  0
 39 38  1  0  0  0  0
 41 42  1  0  0  0  0
M  END
>  <MODEL>
3

>  <REMARK>
 VINA RESULT:      -7.1      4.882      9.985
  Name = 
  17 active torsions:
  status: ('A' for Active; 'I' for Inactive)
    1  A    between atoms: C_1  and  C_39
    2  A    between atoms: N_2  and  C_16
    3  A    between atoms: C_7  and  N_11
    4  A    between atoms: C_7  and  C_42
    5  A    between atoms: C_8  and  C_15
    6  A    between atoms: N_9  and  C_13
    7  A    between atoms: N_9  and  C_29
    8  A    between atoms: C_12  and  C_30
    9  A    between atoms: C_12  and  C_36
   10  A    between atoms: C_16  and  C_17
   11  A    between atoms: C_16  and  C_36
   12  A    between atoms: C_17  and  C_41
   13  A    between atoms: N_18  and  C_28
   14  A    between atoms: N_18  and  N_31
   15  A    between atoms: C_20  and  N_37
   16  A    between atoms: C_35  and  C_41
   17  A    between atoms: N_37  and  C_39
                            x       y       z     vdW  Elec       q    Type
                         _______ _______ _______ _____ _____    ______ ____

>  <TORSDO>
F 17

$$$$
=
 OpenBabel10222419323D

 42 45  0  0  1  0  0  0  0  0999 V2000
  188.7550  177.5160  145.1990 C   0  0  0  0  0  0  0  0  0  0  0  0
  187.4750  177.1800  144.7290 C   0  0  0  0  0  0  0  0  0  0  0  0
  187.3480  177.8890  146.7980 C   0  0  0  0  0  3  0  0  0  0  0  0
  189.5470  177.9240  144.0610 C   0  0  0  0  0  0  0  0  0  0  0  0
  186.5540  177.4200  145.8220 C   0  0  0  0  0  3  0  0  0  0  0  0
  188.7540  177.8290  142.9850 C   0  0  0  0  0  0  0  0  0  0  0  0
  187.3910  177.3820  143.4210 C   0  0  0  0  0  0  0  0  0  0  0  0
  188.7200  178.0270  146.3800 N   0  0  0  0  0  0  0  0  0  0  0  0
  190.8800  178.4630  144.0940 C   0  0  0  0  0  0  0  0  0  0  0  0
  191.9520  178.8970  144.1200 N   0  0  0  0  0  0  0  0  0  0  0  0
  189.1780  178.2460  141.6830 N   0  0  0  0  0  2  0  0  0  0  0  0
  191.7340  177.5830  140.6710 C   0  0  0  0  0  1  0  0  0  0  0  0
  189.3090  177.3680  140.6030 N   0  0  0  0  0  0  0  0  0  0  0  0
  190.4620  177.0470  140.1050 C   0  0  0  0  0  0  0  0  0  0  0  0
  190.5240  176.0920  138.9630 C   0  0  0  0  0  2  0  0  0  0  0  0
  190.9960  176.8120  137.7050 C   0  0  0  0  0  2  0  0  0  0  0  0
  190.2500  176.3710  136.4470 C   0  0  2  0  0  3  0  0  0  0  0  0
  191.0990  175.5800  135.5520 N   0  0  0  0  0  2  0  0  0  0  0  0
  192.3990  175.8150  135.8540 O   0  0  0  0  0  1  0  0  0  0  0  0
  189.5310  177.5190  135.7390 C   0  0  0  0  0  2  0  0  0  0  0  0
  187.5860  176.2970  136.6750 C   0  0  0  0  0  1  0  0  0  0  0  0
  188.0960  177.6510  136.2270 C   0  0  1  0  0  3  0  0  0  0  0  0
  188.8310  179.5680  137.4360 O   0  0  0  0  0  0  0  0  0  0  0  0
  187.9990  178.6290  137.3520 C   0  0  0  0  0  0  0  0  0  0  0  0
  186.9920  178.5120  138.3040 O   0  0  0  0  0  1  0  0  0  0  0  0
  186.1360  177.6240  142.7750 N   0  0  0  0  0  2  0  0  0  0  0  0
  185.6320  178.9330  142.3910 C   0  0  2  0  0  3  0  0  0  0  0  0
  183.4240  178.2050  141.4570 C   0  0  2  0  0  3  0  0  0  0  0  0
  183.4470  178.8460  143.6200 C   0  0  0  0  0  2  0  0  0  0  0  0
  184.8140  179.5330  143.5380 C   0  0  0  0  0  2  0  0  0  0  0  0
  182.7580  179.0050  142.4050 O   0  0  0  0  0  0  0  0  0  0  0  0
  184.7800  178.8290  141.1210 C   0  0  0  0  0  2  0  0  0  0  0  0
  182.6270  178.1060  140.2480 N   0  0  0  0  0  2  0  0  0  0  0  0
  183.5410  178.2030  139.1230 C   0  0  0  0  0  2  0  0  0  0  0  0
  183.3360  177.0140  138.2030 C   0  0  2  0  0  3  0  0  0  0  0  0
  182.0950  178.7090  136.8570 F   0  0  0  0  0  0  0  0  0  0  0  0
  184.0450  177.2650  136.8780 C   0  0  0  0  0  2  0  0  0  0  0  0
  182.5450  177.4010  136.9670 C   0  0  1  0  0  0  0  0  0  0  0  0
  181.7800  176.2770  136.2760 C   0  0  2  0  0  3  0  0  0  0  0  0
  180.4640  176.6620  135.9970 O   0  0  0  0  0  1  0  0  0  0  0  0
  180.7410  174.1390  136.6200 C   0  0  0  0  0  1  0  0  0  0  0  0
  181.8160  175.0300  137.0420 N   0  0  0  0  0  2  0  0  0  0  0  0
  1  8  2  0  0  0  0
  2  1  1  0  0  0  0
  2  5  1  0  0  0  0
  4  9  1  0  0  0  0
  4  1  1  0  0  0  0
  5  3  2  0  0  0  0
  6  7  1  0  0  0  0
  6  4  2  0  0  0  0
  7  2  2  0  0  0  0
  8  3  1  0  0  0  0
  9 10  3  0  0  0  0
 11  6  1  0  0  0  0
 13 11  1  0  0  0  0
 14 13  2  0  0  0  0
 14 12  1  0  0  0  0
 15 14  1  0  0  0  0
 16 15  1  0  0  0  0
 17 20  1  6  0  0  0
 17 16  1  0  0  0  0
 18 19  1  0  0  0  0
 18 17  1  0  0  0  0
 20 22  1  0  0  0  0
 22 21  1  1  0  0  0
 22 24  1  0  0  0  0
 24 23  2  0  0  0  0
 24 25  1  0  0  0  0
 26  7  1  0  0  0  0
 27 26  1  1  0  0  0
 27 30  1  0  0  0  0
 28 33  1  6  0  0  0
 28 31  1  0  0  0  0
 30 29  1  0  0  0  0
 31 29  1  0  0  0  0
 32 28  1  0  0  0  0
 32 27  1  0  0  0  0
 34 33  1  0  0  0  0
 35 34  1  1  0  0  0
 37 38  1  0  0  0  0
 37 35  1  0  0  0  0
 38 36  1  6  0  0  0
 38 35  1  0  0  0  0
 39 40  1  1  0  0  0
 39 38  1  0  0  0  0
 39 42  1  0  0  0  0
 41 42  1  0  0  0  0
M  END
>  <MODEL>
4

>  <REMARK>
 VINA RESULT:      -6.9      4.418     10.130
  Name = 
  17 active torsions:
  status: ('A' for Active; 'I' for Inactive)
    1  A    between atoms: C_1  and  C_39
    2  A    between atoms: N_2  and  C_16
    3  A    between atoms: C_7  and  N_11
    4  A    between atoms: C_7  and  C_42
    5  A    between atoms: C_8  and  C_15
    6  A    between atoms: N_9  and  C_13
    7  A    between atoms: N_9  and  C_29
    8  A    between atoms: C_12  and  C_30
    9  A    between atoms: C_12  and  C_36
   10  A    between atoms: C_16  and  C_17
   11  A    between atoms: C_16  and  C_36
   12  A    between atoms: C_17  and  C_41
   13  A    between atoms: N_18  and  C_28
   14  A    between atoms: N_18  and  N_31
   15  A    between atoms: C_20  and  N_37
   16  A    between atoms: C_35  and  C_41
   17  A    between atoms: N_37  and  C_39
                            x       y       z     vdW  Elec       q    Type
                         _______ _______ _______ _____ _____    ______ ____

>  <TORSDO>
F 17

$$$$
=
 OpenBabel10222419323D

 42 45  0  0  1  0  0  0  0  0999 V2000
  188.6300  177.4360  145.1180 C   0  0  0  0  0  0  0  0  0  0  0  0
  187.3160  177.1530  144.7130 C   0  0  0  0  0  0  0  0  0  0  0  0
  187.3430  177.7020  146.8340 C   0  0  0  0  0  3  0  0  0  0  0  0
  189.3500  177.9220  143.9600 C   0  0  0  0  0  0  0  0  0  0  0  0
  186.4760  177.3180  145.8830 C   0  0  0  0  0  3  0  0  0  0  0  0
  188.4830  177.9200  142.9390 C   0  0  0  0  0  0  0  0  0  0  0  0
  187.1450  177.4560  143.4330 C   0  0  0  0  0  0  0  0  0  0  0  0
  188.6850  177.8560  146.3330 N   0  0  0  0  0  0  0  0  0  0  0  0
  190.6900  178.4410  143.9420 C   0  0  0  0  0  0  0  0  0  0  0  0
  191.7690  178.8590  143.9290 N   0  0  0  0  0  0  0  0  0  0  0  0
  188.8230  178.4320  141.6460 N   0  0  0  0  0  2  0  0  0  0  0  0
  187.3200  178.2540  139.2570 C   0  0  0  0  0  1  0  0  0  0  0  0
  189.2560  177.6210  140.5920 N   0  0  0  0  0  0  0  0  0  0  0  0
  188.5900  177.5050  139.4860 C   0  0  0  0  0  0  0  0  0  0  0  0
  189.1220  176.6340  138.4010 C   0  0  0  0  0  2  0  0  0  0  0  0
  190.5500  177.0380  138.0570 C   0  0  0  0  0  2  0  0  0  0  0  0
  191.3640  175.9000  137.4450 C   0  0  2  0  0  3  0  0  0  0  0  0
  190.9620  174.5910  137.9680 N   0  0  0  0  0  2  0  0  0  0  0  0
  190.5120  173.8250  136.9450 O   0  0  0  0  0  1  0  0  0  0  0  0
  192.8730  176.1370  137.5060 C   0  0  0  0  0  2  0  0  0  0  0  0
  192.6940  175.9970  135.0370 C   0  0  0  0  0  1  0  0  0  0  0  0
  193.5560  175.6560  136.2350 C   0  0  1  0  0  3  0  0  0  0  0  0
  195.0080  177.4400  135.6130 O   0  0  0  0  0  0  0  0  0  0  0  0
  194.9060  176.2770  136.0830 C   0  0  0  0  0  0  0  0  0  0  0  0
  196.0500  175.5830  136.4610 O   0  0  0  0  0  1  0  0  0  0  0  0
  185.8530  177.7620  142.8970 N   0  0  0  0  0  2  0  0  0  0  0  0
  185.3510  179.1020  142.6380 C   0  0  2  0  0  3  0  0  0  0  0  0
  182.9450  178.5140  142.2660 C   0  0  2  0  0  3  0  0  0  0  0  0
  183.5250  179.1350  144.3560 C   0  0  0  0  0  2  0  0  0  0  0  0
  184.8700  179.7400  143.9440 C   0  0  0  0  0  2  0  0  0  0  0  0
  182.5740  179.3440  143.3420 O   0  0  0  0  0  0  0  0  0  0  0  0
  184.2140  179.0590  141.6110 C   0  0  0  0  0  2  0  0  0  0  0  0
  181.8760  178.4730  141.2850 N   0  0  0  0  0  2  0  0  0  0  0  0
  182.4680  178.0630  140.0230 C   0  0  0  0  0  2  0  0  0  0  0  0
  181.5290  178.4180  138.8850 C   0  0  2  0  0  3  0  0  0  0  0  0
  182.8790  180.5170  138.8860 F   0  0  0  0  0  0  0  0  0  0  0  0
  182.3210  178.5430  137.5900 C   0  0  0  0  0  2  0  0  0  0  0  0
  181.8520  179.7850  138.3090 C   0  0  1  0  0  0  0  0  0  0  0  0
  180.7070  180.5090  137.6090 C   0  0  2  0  0  3  0  0  0  0  0  0
  181.0110  180.7480  136.2640 O   0  0  0  0  0  1  0  0  0  0  0  0
  180.9070  182.9030  137.6160 C   0  0  0  0  0  1  0  0  0  0  0  0
  180.3320  181.7470  138.2950 N   0  0  0  0  0  2  0  0  0  0  0  0
  1  8  2  0  0  0  0
  2  1  1  0  0  0  0
  2  5  1  0  0  0  0
  4  1  1  0  0  0  0
  5  3  2  0  0  0  0
  6  7  1  0  0  0  0
  6  4  2  0  0  0  0
  7  2  2  0  0  0  0
  8  3  1  0  0  0  0
  9  4  1  0  0  0  0
 10  9  3  0  0  0  0
 11  6  1  0  0  0  0
 12 14  1  0  0  0  0
 13 11  1  0  0  0  0
 14 13  2  0  0  0  0
 15 14  1  0  0  0  0
 16 15  1  0  0  0  0
 17 20  1  1  0  0  0
 17 18  1  0  0  0  0
 17 16  1  0  0  0  0
 19 18  1  0  0  0  0
 22 21  1  6  0  0  0
 22 20  1  0  0  0  0
 23 24  2  0  0  0  0
 24 22  1  0  0  0  0
 24 25  1  0  0  0  0
 26  7  1  0  0  0  0
 27 26  1  1  0  0  0
 27 30  1  0  0  0  0
 28 33  1  6  0  0  0
 28 31  1  0  0  0  0
 30 29  1  0  0  0  0
 31 29  1  0  0  0  0
 32 28  1  0  0  0  0
 32 27  1  0  0  0  0
 34 33  1  0  0  0  0
 35 34  1  1  0  0  0
 37 38  1  0  0  0  0
 37 35  1  0  0  0  0
 38 35  1  0  0  0  0
 38 36  1  1  0  0  0
 39 40  1  6  0  0  0
 39 42  1  0  0  0  0
 39 38  1  0  0  0  0
 41 42  1  0  0  0  0
M  END
>  <MODEL>
5

>  <REMARK>
 VINA RESULT:      -6.8      4.062     10.579
  Name = 
  17 active torsions:
  status: ('A' for Active; 'I' for Inactive)
    1  A    between atoms: C_1  and  C_39
    2  A    between atoms: N_2  and  C_16
    3  A    between atoms: C_7  and  N_11
    4  A    between atoms: C_7  and  C_42
    5  A    between atoms: C_8  and  C_15
    6  A    between atoms: N_9  and  C_13
    7  A    between atoms: N_9  and  C_29
    8  A    between atoms: C_12  and  C_30
    9  A    between atoms: C_12  and  C_36
   10  A    between atoms: C_16  and  C_17
   11  A    between atoms: C_16  and  C_36
   12  A    between atoms: C_17  and  C_41
   13  A    between atoms: N_18  and  C_28
   14  A    between atoms: N_18  and  N_31
   15  A    between atoms: C_20  and  N_37
   16  A    between atoms: C_35  and  C_41
   17  A    between atoms: N_37  and  C_39
                            x       y       z     vdW  Elec       q    Type
                         _______ _______ _______ _____ _____    ______ ____

>  <TORSDO>
F 17

$$$$
=
 OpenBabel10222419323D

 42 45  0  0  1  0  0  0  0  0999 V2000
  181.2640  179.1130  142.6060 C   0  0  0  0  0  0  0  0  0  0  0  0
  181.1150  178.8210  141.2410 C   0  0  0  0  0  0  0  0  0  0  0  0
  179.6600  180.3450  141.8400 C   0  0  0  0  0  3  0  0  0  0  0  0
  182.6450  178.8720  142.9590 C   0  0  0  0  0  0  0  0  0  0  0  0
  180.0240  179.6420  140.7550 C   0  0  0  0  0  3  0  0  0  0  0  0
  183.2620  178.4620  141.8420 C   0  0  0  0  0  0  0  0  0  0  0  0
  182.2770  178.4640  140.7110 C   0  0  0  0  0  0  0  0  0  0  0  0
  180.4930  180.0730  142.9840 N   0  0  0  0  0  0  0  0  0  0  0  0
  183.2680  179.1540  144.2230 C   0  0  0  0  0  0  0  0  0  0  0  0
  183.7680  179.3790  145.2420 N   0  0  0  0  0  0  0  0  0  0  0  0
  184.6720  178.2190  141.7920 N   0  0  0  0  0  2  0  0  0  0  0  0
  187.4970  178.2230  141.6630 C   0  0  0  0  0  1  0  0  0  0  0  0
  185.4360  177.9140  142.9220 N   0  0  0  0  0  0  0  0  0  0  0  0
  186.7320  177.8960  142.9010 C   0  0  0  0  0  0  0  0  0  0  0  0
  187.4790  177.5760  144.1500 C   0  0  0  0  0  2  0  0  0  0  0  0
  188.5860  176.5710  143.8540 C   0  0  0  0  0  2  0  0  0  0  0  0
  189.9870  177.1470  144.0560 C   0  0  2  0  0  3  0  0  0  0  0  0
  191.0340  176.1720  143.7380 N   0  0  0  0  0  2  0  0  0  0  0  0
  190.5440  175.2700  142.8530 O   0  0  0  0  0  1  0  0  0  0  0  0
  190.1740  177.8120  145.4190 C   0  0  0  0  0  2  0  0  0  0  0  0
  191.1710  176.3900  147.1890 C   0  0  0  0  0  1  0  0  0  0  0  0
  189.8730  176.8390  146.5500 C   0  0  1  0  0  3  0  0  0  0  0  0
  189.4850  178.2500  148.4310 O   0  0  0  0  0  1  0  0  0  0  0  0
  188.9900  177.4670  147.5790 C   0  0  0  0  0  0  0  0  0  0  0  0
  187.6270  177.1980  147.5970 O   0  0  0  0  0  0  0  0  0  0  0  0
  182.5440  178.6100  139.3110 N   0  0  0  0  0  2  0  0  0  0  0  0
  181.9250  177.8240  138.2550 C   0  0  2  0  0  3  0  0  0  0  0  0
  184.0140  177.1050  137.0750 C   0  0  2  0  0  3  0  0  0  0  0  0
  183.1840  175.6850  138.6200 C   0  0  0  0  0  2  0  0  0  0  0  0
  181.8110  176.3610  138.6930 C   0  0  0  0  0  2  0  0  0  0  0  0
  183.6830  175.7560  137.3080 O   0  0  0  0  0  0  0  0  0  0  0  0
  182.7350  177.9350  136.9590 C   0  0  0  0  0  2  0  0  0  0  0  0
  184.7770  177.2200  135.8450 N   0  0  0  0  0  2  0  0  0  0  0  0
  186.0500  176.5570  136.0670 C   0  0  0  0  0  2  0  0  0  0  0  0
  187.1010  177.5900  136.4300 C   0  0  2  0  0  3  0  0  0  0  0  0
  187.9340  175.7310  137.8700 F   0  0  0  0  0  0  0  0  0  0  0  0
  188.4680  177.1180  135.9520 C   0  0  0  0  0  2  0  0  0  0  0  0
  188.1100  177.0300  137.4160 C   0  0  1  0  0  0  0  0  0  0  0  0
  188.8330  178.0470  138.2920 C   0  0  2  0  0  3  0  0  0  0  0  0
  188.7350  179.3350  137.7530 O   0  0  0  0  0  1  0  0  0  0  0  0
  190.3320  176.7620  139.6610 C   0  0  0  0  0  1  0  0  0  0  0  0
  190.2300  177.6790  138.5310 N   0  0  0  0  0  2  0  0  0  0  0  0
  1  4  1  0  0  0  0
  1  8  2  0  0  0  0
  2  1  1  0  0  0  0
  3  8  1  0  0  0  0
  4  9  1  0  0  0  0
  5  2  1  0  0  0  0
  5  3  2  0  0  0  0
  6  4  2  0  0  0  0
  7  2  2  0  0  0  0
  7  6  1  0  0  0  0
  9 10  3  0  0  0  0
 11  6  1  0  0  0  0
 11 13  1  0  0  0  0
 12 14  1  0  0  0  0
 14 13  2  0  0  0  0
 14 15  1  0  0  0  0
 16 15  1  0  0  0  0
 17 16  1  1  0  0  0
 17 20  1  0  0  0  0
 18 17  1  0  0  0  0
 19 18  1  0  0  0  0
 20 22  1  0  0  0  0
 22 21  1  1  0  0  0
 22 24  1  0  0  0  0
 24 25  2  0  0  0  0
 24 23  1  0  0  0  0
 26  7  1  0  0  0  0
 27 30  1  0  0  0  0
 27 26  1  1  0  0  0
 28 33  1  6  0  0  0
 28 31  1  0  0  0  0
 29 30  1  0  0  0  0
 31 29  1  0  0  0  0
 32 28  1  0  0  0  0
 32 27  1  0  0  0  0
 33 34  1  0  0  0  0
 35 34  1  6  0  0  0
 35 38  1  0  0  0  0
 37 35  1  0  0  0  0
 37 38  1  0  0  0  0
 38 36  1  1  0  0  0
 38 39  1  0  0  0  0
 39 40  1  6  0  0  0
 39 42  1  0  0  0  0
 42 41  1  0  0  0  0
M  END
>  <MODEL>
6

>  <REMARK>
 VINA RESULT:      -6.8      3.864      7.009
  Name = 
  17 active torsions:
  status: ('A' for Active; 'I' for Inactive)
    1  A    between atoms: C_1  and  C_39
    2  A    between atoms: N_2  and  C_16
    3  A    between atoms: C_7  and  N_11
    4  A    between atoms: C_7  and  C_42
    5  A    between atoms: C_8  and  C_15
    6  A    between atoms: N_9  and  C_13
    7  A    between atoms: N_9  and  C_29
    8  A    between atoms: C_12  and  C_30
    9  A    between atoms: C_12  and  C_36
   10  A    between atoms: C_16  and  C_17
   11  A    between atoms: C_16  and  C_36
   12  A    between atoms: C_17  and  C_41
   13  A    between atoms: N_18  and  C_28
   14  A    between atoms: N_18  and  N_31
   15  A    between atoms: C_20  and  N_37
   16  A    between atoms: C_35  and  C_41
   17  A    between atoms: N_37  and  C_39
                            x       y       z     vdW  Elec       q    Type
                         _______ _______ _______ _____ _____    ______ ____

>  <TORSDO>
F 17

$$$$
=
 OpenBabel10222419323D

 42 45  0  0  1  0  0  0  0  0999 V2000
  188.5960  177.4320  145.3230 C   0  0  0  0  0  0  0  0  0  0  0  0
  187.3090  177.1740  144.8230 C   0  0  0  0  0  0  0  0  0  0  0  0
  187.1860  177.8000  146.9190 C   0  0  0  0  0  3  0  0  0  0  0  0
  189.4210  177.8520  144.2120 C   0  0  0  0  0  0  0  0  0  0  0  0
  186.3850  177.4090  145.9150 C   0  0  0  0  0  3  0  0  0  0  0  0
  188.6390  177.8390  143.1240 C   0  0  0  0  0  0  0  0  0  0  0  0
  187.2520  177.4350  143.5240 C   0  0  0  0  0  0  0  0  0  0  0  0
  188.5680  177.8950  146.5230 N   0  0  0  0  0  0  0  0  0  0  0  0
  190.7760  178.3290  144.2840 C   0  0  0  0  0  0  0  0  0  0  0  0
  191.8650  178.7140  144.3420 N   0  0  0  0  0  0  0  0  0  0  0  0
  189.0990  178.2920  141.8460 N   0  0  0  0  0  2  0  0  0  0  0  0
  191.4820  177.5060  140.5420 C   0  0  0  0  0  1  0  0  0  0  0  0
  189.0520  177.5030  140.6930 N   0  0  0  0  0  0  0  0  0  0  0  0
  190.1210  177.1300  140.0610 C   0  0  0  0  0  0  0  0  0  0  0  0
  189.9920  176.2770  138.8470 C   0  0  0  0  0  2  0  0  0  0  0  0
  190.4890  177.0340  137.6210 C   0  0  0  0  0  2  0  0  0  0  0  0
  189.8510  176.5520  136.3190 C   0  0  2  0  0  3  0  0  0  0  0  0
  190.8470  176.0320  135.3770 N   0  0  0  0  0  2  0  0  0  0  0  0
  191.0120  174.7050  135.5970 O   0  0  0  0  0  1  0  0  0  0  0  0
  188.9060  177.5780  135.6950 C   0  0  0  0  0  2  0  0  0  0  0  0
  187.3330  175.7320  136.2080 C   0  0  0  0  0  1  0  0  0  0  0  0
  187.4520  177.2220  135.9660 C   0  0  1  0  0  3  0  0  0  0  0  0
  185.7980  177.6800  137.6180 O   0  0  0  0  0  0  0  0  0  0  0  0
  186.9260  177.9730  137.1450 C   0  0  0  0  0  0  0  0  0  0  0  0
  187.6760  178.9880  137.7280 O   0  0  0  0  0  1  0  0  0  0  0  0
  186.0180  177.7600  142.8740 N   0  0  0  0  0  2  0  0  0  0  0  0
  185.4820  179.1040  142.7210 C   0  0  2  0  0  3  0  0  0  0  0  0
  183.4640  178.5280  141.3530 C   0  0  2  0  0  3  0  0  0  0  0  0
  183.1690  178.6650  143.5860 C   0  0  0  0  0  2  0  0  0  0  0  0
  184.4880  179.4000  143.8460 C   0  0  0  0  0  2  0  0  0  0  0  0
  182.6310  179.0690  142.3510 O   0  0  0  0  0  0  0  0  0  0  0  0
  184.8070  179.2590  141.3530 C   0  0  0  0  0  2  0  0  0  0  0  0
  182.8350  178.6770  140.0530 N   0  0  0  0  0  2  0  0  0  0  0  0
  181.4110  178.8500  140.2840 C   0  0  0  0  0  2  0  0  0  0  0  0
  180.6630  177.6420  139.7520 C   0  0  2  0  0  3  0  0  0  0  0  0
  179.6890  177.6680  142.0490 F   0  0  0  0  0  0  0  0  0  0  0  0
  179.1720  177.9500  139.6950 C   0  0  0  0  0  2  0  0  0  0  0  0
  179.7190  177.0740  140.7960 C   0  0  1  0  0  0  0  0  0  0  0  0
  179.3600  175.5990  140.6490 C   0  0  2  0  0  3  0  0  0  0  0  0
  179.2970  174.9690  141.8970 O   0  0  0  0  0  1  0  0  0  0  0  0
  179.6150  173.7290  139.1620 C   0  0  0  0  0  1  0  0  0  0  0  0
  180.2710  174.8940  139.7460 N   0  0  0  0  0  2  0  0  0  0  0  0
  1  8  2  0  0  0  0
  2  1  1  0  0  0  0
  2  5  1  0  0  0  0
  4  9  1  0  0  0  0
  4  1  1  0  0  0  0
  5  3  2  0  0  0  0
  6  7  1  0  0  0  0
  6  4  2  0  0  0  0
  7  2  2  0  0  0  0
  8  3  1  0  0  0  0
  9 10  3  0  0  0  0
 11  6  1  0  0  0  0
 13 11  1  0  0  0  0
 14 12  1  0  0  0  0
 14 13  2  0  0  0  0
 15 14  1  0  0  0  0
 16 15  1  0  0  0  0
 17 20  1  6  0  0  0
 17 16  1  0  0  0  0
 18 19  1  0  0  0  0
 18 17  1  0  0  0  0
 20 22  1  0  0  0  0
 22 21  1  1  0  0  0
 22 24  1  0  0  0  0
 24 23  2  0  0  0  0
 24 25  1  0  0  0  0
 26  7  1  0  0  0  0
 27 26  1  1  0  0  0
 27 30  1  0  0  0  0
 28 33  1  6  0  0  0
 28 32  1  0  0  0  0
 28 31  1  0  0  0  0
 29 30  1  0  0  0  0
 31 29  1  0  0  0  0
 32 27  1  0  0  0  0
 33 34  1  0  0  0  0
 35 34  1  1  0  0  0
 35 38  1  0  0  0  0
 37 35  1  0  0  0  0
 37 38  1  0  0  0  0
 38 36  1  1  0  0  0
 39 38  1  0  0  0  0
 39 40  1  1  0  0  0
 41 42  1  0  0  0  0
 42 39  1  0  0  0  0
M  END
>  <MODEL>
7

>  <REMARK>
 VINA RESULT:      -6.8      4.776     10.962
  Name = 
  17 active torsions:
  status: ('A' for Active; 'I' for Inactive)
    1  A    between atoms: C_1  and  C_39
    2  A    between atoms: N_2  and  C_16
    3  A    between atoms: C_7  and  N_11
    4  A    between atoms: C_7  and  C_42
    5  A    between atoms: C_8  and  C_15
    6  A    between atoms: N_9  and  C_13
    7  A    between atoms: N_9  and  C_29
    8  A    between atoms: C_12  and  C_30
    9  A    between atoms: C_12  and  C_36
   10  A    between atoms: C_16  and  C_17
   11  A    between atoms: C_16  and  C_36
   12  A    between atoms: C_17  and  C_41
   13  A    between atoms: N_18  and  C_28
   14  A    between atoms: N_18  and  N_31
   15  A    between atoms: C_20  and  N_37
   16  A    between atoms: C_35  and  C_41
   17  A    between atoms: N_37  and  C_39
                            x       y       z     vdW  Elec       q    Type
                         _______ _______ _______ _____ _____    ______ ____

>  <TORSDO>
F 17

$$$$
=
 OpenBabel10222419323D

 42 45  0  0  1  0  0  0  0  0999 V2000
  181.3170  179.1060  142.9270 C   0  0  0  0  0  0  0  0  0  0  0  0
  181.1330  178.8800  141.5530 C   0  0  0  0  0  0  0  0  0  0  0  0
  179.6200  180.2840  142.2900 C   0  0  0  0  0  3  0  0  0  0  0  0
  182.7220  178.9250  143.2170 C   0  0  0  0  0  0  0  0  0  0  0  0
  179.9800  179.6640  141.1540 C   0  0  0  0  0  3  0  0  0  0  0  0
  183.3180  178.6130  142.0570 C   0  0  0  0  0  0  0  0  0  0  0  0
  182.2920  178.6210  140.9630 C   0  0  0  0  0  0  0  0  0  0  0  0
  180.5100  179.9970  143.3850 N   0  0  0  0  0  0  0  0  0  0  0  0
  183.3760  179.1720  144.4730 C   0  0  0  0  0  0  0  0  0  0  0  0
  183.9020  179.3720  145.4830 N   0  0  0  0  0  0  0  0  0  0  0  0
  184.7360  178.4540  141.9440 N   0  0  0  0  0  2  0  0  0  0  0  0
  187.5590  178.6100  141.9590 C   0  0  0  0  0  1  0  0  0  0  0  0
  185.4870  177.6560  142.8120 N   0  0  0  0  0  0  0  0  0  0  0  0
  186.7830  177.6910  142.8420 C   0  0  0  0  0  0  0  0  0  0  0  0
  187.5150  176.8220  143.8050 C   0  0  0  0  0  2  0  0  0  0  0  0
  187.6460  177.5260  145.1500 C   0  0  0  0  0  2  0  0  0  0  0  0
  188.9480  177.1930  145.8770 C   0  0  2  0  0  3  0  0  0  0  0  0
  188.7370  176.9610  147.3080 N   0  0  0  0  0  2  0  0  0  0  0  0
  189.1960  178.0300  148.0020 O   0  0  0  0  0  1  0  0  0  0  0  0
  190.0720  178.1870  145.5860 C   0  0  0  0  0  2  0  0  0  0  0  0
  191.6850  176.3750  146.1010 C   0  0  0  0  0  1  0  0  0  0  0  0
  191.3310  177.4710  145.1180 C   0  0  1  0  0  3  0  0  0  0  0  0
  191.2670  175.6490  143.5840 O   0  0  0  0  0  1  0  0  0  0  0  0
  191.1420  176.8890  143.7550 C   0  0  0  0  0  0  0  0  0  0  0  0
  190.8240  177.7060  142.6760 O   0  0  0  0  0  0  0  0  0  0  0  0
  182.4960  178.8580  139.5660 N   0  0  0  0  0  2  0  0  0  0  0  0
  181.8240  178.1470  138.4900 C   0  0  2  0  0  3  0  0  0  0  0  0
  183.8540  177.2090  137.3600 C   0  0  2  0  0  3  0  0  0  0  0  0
  182.8330  175.8830  138.8740 C   0  0  0  0  0  2  0  0  0  0  0  0
  181.5400  176.7040  138.9150 C   0  0  0  0  0  2  0  0  0  0  0  0
  183.3720  175.9030  137.5760 O   0  0  0  0  0  0  0  0  0  0  0  0
  182.6750  178.1730  137.2160 C   0  0  0  0  0  2  0  0  0  0  0  0
  184.6560  177.2450  136.1510 N   0  0  0  0  0  2  0  0  0  0  0  0
  185.9330  176.6260  136.4670 C   0  0  0  0  0  2  0  0  0  0  0  0
  186.8030  177.6180  137.2150 C   0  0  2  0  0  3  0  0  0  0  0  0
  188.2120  175.5900  137.5670 F   0  0  0  0  0  0  0  0  0  0  0  0
  188.1390  177.7670  136.4990 C   0  0  0  0  0  2  0  0  0  0  0  0
  188.0510  176.9530  137.7670 C   0  0  1  0  0  0  0  0  0  0  0  0
  188.6930  177.6220  138.9770 C   0  0  2  0  0  3  0  0  0  0  0  0
  189.0410  178.9470  138.6940 O   0  0  0  0  0  1  0  0  0  0  0  0
  190.9300  176.8810  138.5090 C   0  0  0  0  0  1  0  0  0  0  0  0
  189.8430  176.8700  139.4820 N   0  0  0  0  0  2  0  0  0  0  0  0
  1  4  1  0  0  0  0
  1  8  2  0  0  0  0
  2  1  1  0  0  0  0
  3  8  1  0  0  0  0
  4  9  1  0  0  0  0
  5  2  1  0  0  0  0
  5  3  2  0  0  0  0
  6  4  2  0  0  0  0
  7  2  2  0  0  0  0
  7  6  1  0  0  0  0
  9 10  3  0  0  0  0
 11  6  1  0  0  0  0
 11 13  1  0  0  0  0
 12 14  1  0  0  0  0
 13 14  2  0  0  0  0
 14 15  1  0  0  0  0
 15 16  1  0  0  0  0
 17 16  1  1  0  0  0
 17 18  1  0  0  0  0
 18 19  1  0  0  0  0
 20 17  1  0  0  0  0
 22 20  1  0  0  0  0
 22 21  1  1  0  0  0
 23 24  1  0  0  0  0
 24 22  1  0  0  0  0
 25 24  2  0  0  0  0
 26  7  1  0  0  0  0
 27 30  1  0  0  0  0
 27 26  1  1  0  0  0
 28 33  1  6  0  0  0
 28 31  1  0  0  0  0
 29 30  1  0  0  0  0
 31 29  1  0  0  0  0
 32 28  1  0  0  0  0
 32 27  1  0  0  0  0
 33 34  1  0  0  0  0
 35 34  1  6  0  0  0
 35 38  1  0  0  0  0
 37 35  1  0  0  0  0
 37 38  1  0  0  0  0
 38 36  1  6  0  0  0
 38 39  1  0  0  0  0
 39 40  1  6  0  0  0
 39 42  1  0  0  0  0
 41 42  1  0  0  0  0
M  END
>  <MODEL>
8

>  <REMARK>
 VINA RESULT:      -6.8      3.592      6.892
  Name = 
  17 active torsions:
  status: ('A' for Active; 'I' for Inactive)
    1  A    between atoms: C_1  and  C_39
    2  A    between atoms: N_2  and  C_16
    3  A    between atoms: C_7  and  N_11
    4  A    between atoms: C_7  and  C_42
    5  A    between atoms: C_8  and  C_15
    6  A    between atoms: N_9  and  C_13
    7  A    between atoms: N_9  and  C_29
    8  A    between atoms: C_12  and  C_30
    9  A    between atoms: C_12  and  C_36
   10  A    between atoms: C_16  and  C_17
   11  A    between atoms: C_16  and  C_36
   12  A    between atoms: C_17  and  C_41
   13  A    between atoms: N_18  and  C_28
   14  A    between atoms: N_18  and  N_31
   15  A    between atoms: C_20  and  N_37
   16  A    between atoms: C_35  and  C_41
   17  A    between atoms: N_37  and  C_39
                            x       y       z     vdW  Elec       q    Type
                         _______ _______ _______ _____ _____    ______ ____

>  <TORSDO>
F 17

$$$$
=
 OpenBabel10222419323D

 42 45  0  0  1  0  0  0  0  0999 V2000
  188.4450  177.4640  145.3620 C   0  0  0  0  0  0  0  0  0  0  0  0
  187.1390  177.1930  144.9240 C   0  0  0  0  0  0  0  0  0  0  0  0
  187.0980  177.9190  146.9910 C   0  0  0  0  0  3  0  0  0  0  0  0
  189.2300  177.8250  144.2020 C   0  0  0  0  0  0  0  0  0  0  0  0
  186.2580  177.4860  146.0370 C   0  0  0  0  0  3  0  0  0  0  0  0
  188.4070  177.7660  143.1460 C   0  0  0  0  0  0  0  0  0  0  0  0
  187.0330  177.3920  143.6170 C   0  0  0  0  0  0  0  0  0  0  0  0
  188.4650  177.9840  146.5390 N   0  0  0  0  0  0  0  0  0  0  0  0
  190.5890  178.2950  144.2000 C   0  0  0  0  0  0  0  0  0  0  0  0
  191.6830  178.6710  144.2000 N   0  0  0  0  0  0  0  0  0  0  0  0
  188.8210  178.1540  141.8310 N   0  0  0  0  0  2  0  0  0  0  0  0
  188.9440  178.4210  139.0190 C   0  0  0  0  0  1  0  0  0  0  0  0
  189.7760  177.4510  141.0920 N   0  0  0  0  0  0  0  0  0  0  0  0
  189.8590  177.5390  139.8010 C   0  0  0  0  0  0  0  0  0  0  0  0
  190.9130  176.7710  139.0820 C   0  0  0  0  0  2  0  0  0  0  0  0
  190.5750  176.6820  137.5990 C   0  0  0  0  0  2  0  0  0  0  0  0
  189.7680  175.4350  137.2420 C   0  0  2  0  0  3  0  0  0  0  0  0
  190.4980  174.2000  137.5440 N   0  0  0  0  0  2  0  0  0  0  0  0
  191.6580  174.1910  136.8430 O   0  0  0  0  0  1  0  0  0  0  0  0
  189.2010  175.4690  135.8220 C   0  0  0  0  0  2  0  0  0  0  0  0
  187.1550  175.4460  137.2220 C   0  0  0  0  0  1  0  0  0  0  0  0
  187.7010  175.7200  135.8370 C   0  0  1  0  0  3  0  0  0  0  0  0
  186.1930  177.4610  135.2240 O   0  0  0  0  0  0  0  0  0  0  0  0
  187.3870  177.1250  135.4350 C   0  0  0  0  0  0  0  0  0  0  0  0
  188.4030  178.0640  135.2980 O   0  0  0  0  0  1  0  0  0  0  0  0
  185.7780  177.6950  142.9990 N   0  0  0  0  0  2  0  0  0  0  0  0
  185.2930  179.0340  142.7030 C   0  0  2  0  0  3  0  0  0  0  0  0
  182.9070  178.4490  142.2160 C   0  0  2  0  0  3  0  0  0  0  0  0
  183.3830  179.0880  144.3270 C   0  0  0  0  0  2  0  0  0  0  0  0
  184.7500  179.6860  143.9770 C   0  0  0  0  0  2  0  0  0  0  0  0
  182.4850  179.2900  143.2640 O   0  0  0  0  0  0  0  0  0  0  0  0
  184.2090  178.9840  141.6200 C   0  0  0  0  0  2  0  0  0  0  0  0
  181.8880  178.4010  141.1830 N   0  0  0  0  0  2  0  0  0  0  0  0
  182.4490  179.0290  139.9990 C   0  0  0  0  0  2  0  0  0  0  0  0
  181.3690  179.8220  139.2880 C   0  0  2  0  0  3  0  0  0  0  0  0
  183.3150  181.2510  138.6590 F   0  0  0  0  0  0  0  0  0  0  0  0
  181.6030  179.7700  137.7840 C   0  0  0  0  0  2  0  0  0  0  0  0
  181.9510  181.0190  138.5580 C   0  0  1  0  0  0  0  0  0  0  0  0
  181.0010  182.1850  138.3090 C   0  0  2  0  0  3  0  0  0  0  0  0
  179.8020  182.0150  139.0110 O   0  0  0  0  0  1  0  0  0  0  0  0
  180.7100  183.8300  136.5820 C   0  0  0  0  0  1  0  0  0  0  0  0
  180.7520  182.4030  136.8830 N   0  0  0  0  0  2  0  0  0  0  0  0
  1  8  2  0  0  0  0
  2  1  1  0  0  0  0
  2  5  1  0  0  0  0
  4  1  1  0  0  0  0
  5  3  2  0  0  0  0
  6  7  1  0  0  0  0
  6  4  2  0  0  0  0
  7  2  2  0  0  0  0
  8  3  1  0  0  0  0
  9  4  1  0  0  0  0
 10  9  3  0  0  0  0
 11  6  1  0  0  0  0
 12 14  1  0  0  0  0
 13 11  1  0  0  0  0
 14 13  2  0  0  0  0
 15 14  1  0  0  0  0
 16 15  1  0  0  0  0
 17 20  1  6  0  0  0
 17 18  1  0  0  0  0
 17 16  1  0  0  0  0
 19 18  1  0  0  0  0
 20 22  1  0  0  0  0
 22 21  1  1  0  0  0
 23 24  2  0  0  0  0
 24 22  1  0  0  0  0
 25 24  1  0  0  0  0
 26  7  1  0  0  0  0
 27 26  1  1  0  0  0
 27 30  1  0  0  0  0
 28 33  1  6  0  0  0
 28 31  1  0  0  0  0
 30 29  1  0  0  0  0
 31 29  1  0  0  0  0
 32 28  1  0  0  0  0
 32 27  1  0  0  0  0
 34 33  1  0  0  0  0
 35 34  1  1  0  0  0
 37 38  1  0  0  0  0
 37 35  1  0  0  0  0
 38 36  1  1  0  0  0
 38 35  1  0  0  0  0
 39 38  1  0  0  0  0
 39 40  1  1  0  0  0
 41 42  1  0  0  0  0
 42 39  1  0  0  0  0
M  END
>  <MODEL>
9

>  <REMARK>
 VINA RESULT:      -6.7      4.513     10.944
  Name = 
  17 active torsions:
  status: ('A' for Active; 'I' for Inactive)
    1  A    between atoms: C_1  and  C_39
    2  A    between atoms: N_2  and  C_16
    3  A    between atoms: C_7  and  N_11
    4  A    between atoms: C_7  and  C_42
    5  A    between atoms: C_8  and  C_15
    6  A    between atoms: N_9  and  C_13
    7  A    between atoms: N_9  and  C_29
    8  A    between atoms: C_12  and  C_30
    9  A    between atoms: C_12  and  C_36
   10  A    between atoms: C_16  and  C_17
   11  A    between atoms: C_16  and  C_36
   12  A    between atoms: C_17  and  C_41
   13  A    between atoms: N_18  and  C_28
   14  A    between atoms: N_18  and  N_31
   15  A    between atoms: C_20  and  N_37
   16  A    between atoms: C_35  and  C_41
   17  A    between atoms: N_37  and  C_39
                            x       y       z     vdW  Elec       q    Type
                         _______ _______ _______ _____ _____    ______ ____

>  <TORSDO>
F 17

$$$$
