=
 OpenBabel10222421033D

 38 40  0  0  1  0  0  0  0  0999 V2000
  186.8220  177.6240  144.0550 C   0  0  0  0  0  0  0  0  0  0  0  0
  184.9510  179.2130  144.7670 C   0  0  2  0  0  3  0  0  0  0  0  0
  185.8250  178.4870  143.7700 C   0  0  0  0  0  3  0  0  0  0  0  0
  187.0270  178.1890  146.5000 C   0  0  2  0  0  3  0  0  0  0  0  0
  184.5370  178.3180  145.9270 C   0  0  0  0  0  2  0  0  0  0  0  0
  185.5960  178.3230  147.0320 C   0  0  0  0  0  2  0  0  0  0  0  0
  187.1250  177.1030  145.4360 C   0  0  0  0  0  2  0  0  0  0  0  0
  187.5760  177.8380  148.7980 O   0  0  0  0  0  0  0  0  0  0  0  0
  187.9920  177.9220  147.6120 C   0  0  0  0  0  0  0  0  0  0  0  0
  189.3840  177.7310  147.3450 N   0  0  0  0  0  2  0  0  0  0  0  0
  189.9620  177.7870  146.0060 C   0  0  0  0  0  2  0  0  0  0  0  0
  191.2380  176.9580  145.9290 C   0  0  0  0  0  2  0  0  0  0  0  0
  192.6990  176.1060  147.6840 N   0  0  0  0  0  1  0  0  0  0  0  0
  191.3620  176.0250  147.1220 C   0  0  0  0  0  2  0  0  0  0  0  0
  183.7120  179.7520  144.0740 C   0  0  0  0  0  2  0  0  0  0  0  0
  183.2430  178.7860  142.9990 C   0  0  0  0  0  2  0  0  0  0  0  0
  181.9010  179.1380  142.5680 N   0  0  0  0  0  2  0  0  0  0  0  0
  181.6260  178.4010  141.3440 C   0  0  1  0  0  3  0  0  0  0  0  0
  180.7400  179.1420  140.5270 O   0  0  0  0  0  0  0  0  0  0  0  0
  182.6990  178.7810  139.3510 C   0  0  1  0  0  3  0  0  0  0  0  0
  182.8420  178.1930  140.6330 O   0  0  0  0  0  0  0  0  0  0  0  0
  180.8300  179.9810  138.3750 O   0  0  0  0  0  0  0  0  0  0  0  0
  181.3580  179.3660  139.3400 C   0  0  0  0  0  0  0  0  0  0  0  0
  183.7440  179.8680  139.1690 C   0  0  0  0  0  2  0  0  0  0  0  0
  184.8170  179.6400  140.0310 O   0  0  0  0  0  1  0  0  0  0  0  0
  187.6110  177.0550  142.9240 C   0  0  0  0  0  2  0  0  0  0  0  0
  188.3910  175.9200  143.3870 N   0  0  0  0  0  2  0  0  0  0  0  0
  189.6580  176.0380  142.8040 N   0  0  0  0  0  2  0  0  0  0  0  0
  189.4950  176.8720  141.6250 C   0  0  0  0  0  2  0  0  0  0  0  0
  190.7660  176.9820  140.9240 N   0  0  0  0  0  2  0  0  0  0  0  0
  190.5080  177.6150  139.6990 N   0  0  0  0  0  0  0  0  0  0  0  0
  189.1540  178.1560  139.7810 C   0  0  0  0  0  2  0  0  0  0  0  0
  188.8500  178.8900  138.6150 O   0  0  0  0  0  0  0  0  0  0  0  0
  190.4870  176.5700  138.6820 C   0  0  0  0  0  2  0  0  0  0  0  0
  188.8160  178.0160  137.5000 C   0  0  1  0  0  3  0  0  0  0  0  0
  190.0870  177.1670  137.3400 C   0  0  0  0  0  2  0  0  0  0  0  0
  187.5030  177.2380  137.3660 C   0  0  0  0  0  2  0  0  0  0  0  0
  186.3490  178.1250  137.3550 N   0  0  0  0  0  1  0  0  0  0  0  0
  1  7  1  0  0  0  0
  2 15  1  6  0  0  0
  2  5  1  0  0  0  0
  3  1  2  0  0  0  0
  3  2  1  0  0  0  0
  4  6  1  0  0  0  0
  4  9  1  1  0  0  0
  5  6  1  0  0  0  0
  7  4  1  0  0  0  0
  9  8  2  0  0  0  0
 10  9  1  0  0  0  0
 11 10  1  0  0  0  0
 12 11  1  0  0  0  0
 12 14  1  0  0  0  0
 14 13  1  0  0  0  0
 16 15  1  0  0  0  0
 17 16  1  0  0  0  0
 18 17  1  1  0  0  0
 19 18  1  0  0  0  0
 20 24  1  1  0  0  0
 20 21  1  0  0  0  0
 21 18  1  0  0  0  0
 22 23  2  0  0  0  0
 23 20  1  0  0  0  0
 23 19  1  0  0  0  0
 24 25  1  0  0  0  0
 26 27  1  0  0  0  0
 26  1  1  0  0  0  0
 28 27  1  0  0  0  0
 29 28  1  0  0  0  0
 30 29  1  0  0  0  0
 31 32  1  0  0  0  0
 31 30  1  0  0  0  0
 33 32  1  0  0  0  0
 34 31  1  0  0  0  0
 35 37  1  1  0  0  0
 35 33  1  0  0  0  0
 36 35  1  0  0  0  0
 36 34  1  0  0  0  0
 38 37  1  0  0  0  0
M  END
>  <MODEL>
1

>  <REMARK>
 VINA RESULT:      -8.0      0.000      0.000
  Name = 
  16 active torsions:
  status: ('A' for Active; 'I' for Inactive)
    1  A    between atoms: C_1  and  C_8
    2  A    between atoms: C_1  and  C_34
    3  A    between atoms: C_2  and  C_21
    4  A    between atoms: N_3  and  N_4
    5  A    between atoms: N_4  and  C_14
    6  A    between atoms: C_6  and  N_7
    7  A    between atoms: N_7  and  C_34
    8  A    between atoms: N_11  and  C_14
    9  A    between atoms: N_11  and  N_28
   10  A    between atoms: C_12  and  C_25
   11  A    between atoms: C_16  and  C_27
   12  A    between atoms: C_18  and  C_26
   13  A    between atoms: C_19  and  C_20
   14  A    between atoms: C_19  and  C_22
   15  A    between atoms: C_21  and  N_28
   16  A    between atoms: C_22  and  N_38
                            x       y       z     vdW  Elec       q    Type
                         _______ _______ _______ _____ _____    ______ ____

>  <TORSDO>
F 16

$$$$
=
 OpenBabel10222421033D

 38 40  0  0  1  0  0  0  0  0999 V2000
  185.8270  178.5930  142.6170 C   0  0  0  0  0  0  0  0  0  0  0  0
  185.3830  177.9080  145.0380 C   0  0  2  0  0  3  0  0  0  0  0  0
  186.2210  178.0540  143.7890 C   0  0  0  0  0  3  0  0  0  0  0  0
  183.3560  178.5970  143.0950 C   0  0  2  0  0  3  0  0  0  0  0  0
  184.5280  179.1380  145.3040 C   0  0  0  0  0  2  0  0  0  0  0  0
  183.1990  179.0600  144.5480 C   0  0  0  0  0  2  0  0  0  0  0  0
  184.5160  179.3050  142.4070 C   0  0  0  0  0  2  0  0  0  0  0  0
  181.1530  179.4820  142.8240 O   0  0  0  0  0  0  0  0  0  0  0  0
  182.0880  178.7990  142.3260 C   0  0  0  0  0  0  0  0  0  0  0  0
  181.9310  178.2510  141.0150 N   0  0  0  0  0  2  0  0  0  0  0  0
  182.9600  177.4650  140.3410 C   0  0  0  0  0  2  0  0  0  0  0  0
  183.1940  177.9760  138.9250 C   0  0  0  0  0  2  0  0  0  0  0  0
  184.4430  180.0680  138.9570 N   0  0  0  0  0  1  0  0  0  0  0  0
  184.5600  178.6300  138.7930 C   0  0  0  0  0  2  0  0  0  0  0  0
  186.2790  177.6440  146.2360 C   0  0  0  0  0  2  0  0  0  0  0  0
  187.7410  177.7150  145.8280 C   0  0  0  0  0  2  0  0  0  0  0  0
  188.5320  176.8270  146.6650 N   0  0  0  0  0  2  0  0  0  0  0  0
  189.8460  177.4310  146.8260 C   0  0  1  0  0  3  0  0  0  0  0  0
  190.6940  176.5510  147.5380 O   0  0  0  0  0  0  0  0  0  0  0  0
  191.6400  176.9760  145.4690 C   0  0  1  0  0  3  0  0  0  0  0  0
  190.4130  177.6800  145.5430 O   0  0  0  0  0  0  0  0  0  0  0  0
  192.7270  175.5430  147.0980 O   0  0  0  0  0  0  0  0  0  0  0  0
  191.7660  176.2800  146.7500 C   0  0  0  0  0  0  0  0  0  0  0  0
  191.5830  175.9690  144.3320 C   0  0  0  0  0  2  0  0  0  0  0  0
  190.4550  176.2080  143.5480 O   0  0  0  0  0  1  0  0  0  0  0  0
  186.7900  178.5900  141.4770 C   0  0  0  0  0  2  0  0  0  0  0  0
  187.9240  177.7360  141.7910 N   0  0  0  0  0  2  0  0  0  0  0  0
  189.0540  178.3530  141.2420 N   0  0  0  0  0  2  0  0  0  0  0  0
  188.9700  178.1700  139.8030 C   0  0  0  0  0  2  0  0  0  0  0  0
  189.8350  177.0720  139.3970 N   0  0  0  0  0  2  0  0  0  0  0  0
  189.7060  176.9380  138.0070 N   0  0  0  0  0  0  0  0  0  0  0  0
  189.3310  178.2510  137.4890 C   0  0  0  0  0  2  0  0  0  0  0  0
  189.2700  178.2210  136.0800 O   0  0  0  0  0  0  0  0  0  0  0  0
  188.5730  176.0500  137.7740 C   0  0  0  0  0  2  0  0  0  0  0  0
  188.2180  177.3640  135.6700 C   0  0  1  0  0  3  0  0  0  0  0  0
  188.2930  175.9560  136.2800 C   0  0  0  0  0  2  0  0  0  0  0  0
  186.8330  178.0160  135.7270 C   0  0  0  0  0  2  0  0  0  0  0  0
  185.7670  177.0250  135.6970 N   0  0  0  0  0  1  0  0  0  0  0  0
  1  3  2  0  0  0  0
  2  5  1  0  0  0  0
  2 15  1  1  0  0  0
  3  2  1  0  0  0  0
  4  9  1  6  0  0  0
  4  6  1  0  0  0  0
  6  5  1  0  0  0  0
  7  1  1  0  0  0  0
  7  4  1  0  0  0  0
  9  8  2  0  0  0  0
 10  9  1  0  0  0  0
 11 10  1  0  0  0  0
 12 11  1  0  0  0  0
 14 12  1  0  0  0  0
 14 13  1  0  0  0  0
 16 15  1  0  0  0  0
 16 17  1  0  0  0  0
 18 17  1  6  0  0  0
 18 19  1  0  0  0  0
 20 24  1  6  0  0  0
 20 21  1  0  0  0  0
 20 23  1  0  0  0  0
 21 18  1  0  0  0  0
 23 22  2  0  0  0  0
 23 19  1  0  0  0  0
 25 24  1  0  0  0  0
 26 27  1  0  0  0  0
 26  1  1  0  0  0  0
 28 27  1  0  0  0  0
 29 28  1  0  0  0  0
 30 29  1  0  0  0  0
 31 30  1  0  0  0  0
 32 31  1  0  0  0  0
 33 32  1  0  0  0  0
 34 31  1  0  0  0  0
 35 37  1  1  0  0  0
 35 33  1  0  0  0  0
 35 36  1  0  0  0  0
 36 34  1  0  0  0  0
 38 37  1  0  0  0  0
M  END
>  <MODEL>
2

>  <REMARK>
 VINA RESULT:      -7.6      2.229      7.231
  Name = 
  16 active torsions:
  status: ('A' for Active; 'I' for Inactive)
    1  A    between atoms: C_1  and  C_8
    2  A    between atoms: C_1  and  C_34
    3  A    between atoms: C_2  and  C_21
    4  A    between atoms: N_3  and  N_4
    5  A    between atoms: N_4  and  C_14
    6  A    between atoms: C_6  and  N_7
    7  A    between atoms: N_7  and  C_34
    8  A    between atoms: N_11  and  C_14
    9  A    between atoms: N_11  and  N_28
   10  A    between atoms: C_12  and  C_25
   11  A    between atoms: C_16  and  C_27
   12  A    between atoms: C_18  and  C_26
   13  A    between atoms: C_19  and  C_20
   14  A    between atoms: C_19  and  C_22
   15  A    between atoms: C_21  and  N_28
   16  A    between atoms: C_22  and  N_38
                            x       y       z     vdW  Elec       q    Type
                         _______ _______ _______ _____ _____    ______ ____

>  <TORSDO>
F 16

$$$$
=
 OpenBabel10222421033D

 38 40  0  0  1  0  0  0  0  0999 V2000
  185.9810  178.5680  142.5600 C   0  0  0  0  0  0  0  0  0  0  0  0
  185.6610  177.8060  144.9780 C   0  0  2  0  0  3  0  0  0  0  0  0
  186.4310  177.9830  143.6900 C   0  0  0  0  0  3  0  0  0  0  0  0
  183.5400  178.5870  143.1750 C   0  0  2  0  0  3  0  0  0  0  0  0
  184.8400  179.0380  145.3320 C   0  0  0  0  0  2  0  0  0  0  0  0
  183.4710  179.0020  144.6490 C   0  0  0  0  0  2  0  0  0  0  0  0
  184.6710  179.3030  142.4480 C   0  0  0  0  0  2  0  0  0  0  0  0
  181.3570  179.5490  143.0360 O   0  0  0  0  0  0  0  0  0  0  0  0
  182.2350  178.8320  142.4850 C   0  0  0  0  0  0  0  0  0  0  0  0
  181.9770  178.2850  141.1890 N   0  0  0  0  0  2  0  0  0  0  0  0
  182.9340  177.4610  140.4580 C   0  0  0  0  0  2  0  0  0  0  0  0
  182.9340  177.8120  138.9750 C   0  0  0  0  0  2  0  0  0  0  0  0
  183.5670  175.8970  137.6070 N   0  0  0  0  0  1  0  0  0  0  0  0
  182.4400  176.6480  138.1320 C   0  0  0  0  0  2  0  0  0  0  0  0
  186.6180  177.4900  146.1150 C   0  0  0  0  0  2  0  0  0  0  0  0
  188.0100  178.0090  145.7940 C   0  0  0  0  0  2  0  0  0  0  0  0
  189.0110  177.1270  146.3710 N   0  0  0  0  0  2  0  0  0  0  0  0
  190.2970  177.4870  145.7940 C   0  0  1  0  0  3  0  0  0  0  0  0
  191.1130  176.3370  145.6840 O   0  0  0  0  0  0  0  0  0  0  0  0
  190.8210  177.2380  143.5740 C   0  0  1  0  0  3  0  0  0  0  0  0
  190.0970  178.0350  144.4950 O   0  0  0  0  0  0  0  0  0  0  0  0
  192.1790  175.2610  143.9380 O   0  0  0  0  0  0  0  0  0  0  0  0
  191.4390  176.1820  144.3760 C   0  0  0  0  0  0  0  0  0  0  0  0
  189.8640  176.6320  142.5610 C   0  0  0  0  0  2  0  0  0  0  0  0
  188.9970  175.7470  143.2030 O   0  0  0  0  0  1  0  0  0  0  0  0
  186.8790  178.5910  141.3690 C   0  0  0  0  0  2  0  0  0  0  0  0
  186.1370  179.0270  140.1980 N   0  0  0  0  0  2  0  0  0  0  0  0
  186.6850  178.3540  139.1010 N   0  0  0  0  0  2  0  0  0  0  0  0
  188.1100  178.2310  139.3590 C   0  0  0  0  0  2  0  0  0  0  0  0
  188.8580  178.9340  138.3280 N   0  0  0  0  0  2  0  0  0  0  0  0
  189.8850  178.0770  137.9060 N   0  0  0  0  0  0  0  0  0  0  0  0
  189.3870  177.3690  136.7290 C   0  0  0  0  0  2  0  0  0  0  0  0
  190.4010  176.5490  136.1890 O   0  0  0  0  0  0  0  0  0  0  0  0
  190.0610  177.0830  138.9580 C   0  0  0  0  0  2  0  0  0  0  0  0
  190.7220  175.5230  137.1120 C   0  0  1  0  0  3  0  0  0  0  0  0
  191.0770  176.0390  138.5140 C   0  0  0  0  0  2  0  0  0  0  0  0
  189.7410  174.3450  137.0910 C   0  0  0  0  0  2  0  0  0  0  0  0
  189.6100  173.7750  135.7580 N   0  0  0  0  0  1  0  0  0  0  0  0
  1  3  2  0  0  0  0
  2  5  1  0  0  0  0
  2 15  1  1  0  0  0
  3  2  1  0  0  0  0
  4  9  1  6  0  0  0
  4  6  1  0  0  0  0
  6  5  1  0  0  0  0
  7  1  1  0  0  0  0
  7  4  1  0  0  0  0
  9  8  2  0  0  0  0
 10  9  1  0  0  0  0
 11 10  1  0  0  0  0
 12 11  1  0  0  0  0
 13 14  1  0  0  0  0
 14 12  1  0  0  0  0
 16 15  1  0  0  0  0
 16 17  1  0  0  0  0
 18 17  1  6  0  0  0
 19 18  1  0  0  0  0
 20 24  1  6  0  0  0
 20 23  1  0  0  0  0
 20 21  1  0  0  0  0
 21 18  1  0  0  0  0
 22 23  2  0  0  0  0
 23 19  1  0  0  0  0
 24 25  1  0  0  0  0
 26  1  1  0  0  0  0
 27 26  1  0  0  0  0
 28 29  1  0  0  0  0
 28 27  1  0  0  0  0
 30 29  1  0  0  0  0
 31 30  1  0  0  0  0
 31 34  1  0  0  0  0
 32 31  1  0  0  0  0
 33 32  1  0  0  0  0
 33 35  1  0  0  0  0
 35 37  1  1  0  0  0
 35 36  1  0  0  0  0
 36 34  1  0  0  0  0
 38 37  1  0  0  0  0
M  END
>  <MODEL>
3

>  <REMARK>
 VINA RESULT:      -7.5      2.687      7.133
  Name = 
  16 active torsions:
  status: ('A' for Active; 'I' for Inactive)
    1  A    between atoms: C_1  and  C_8
    2  A    between atoms: C_1  and  C_34
    3  A    between atoms: C_2  and  C_21
    4  A    between atoms: N_3  and  N_4
    5  A    between atoms: N_4  and  C_14
    6  A    between atoms: C_6  and  N_7
    7  A    between atoms: N_7  and  C_34
    8  A    between atoms: N_11  and  C_14
    9  A    between atoms: N_11  and  N_28
   10  A    between atoms: C_12  and  C_25
   11  A    between atoms: C_16  and  C_27
   12  A    between atoms: C_18  and  C_26
   13  A    between atoms: C_19  and  C_20
   14  A    between atoms: C_19  and  C_22
   15  A    between atoms: C_21  and  N_28
   16  A    between atoms: C_22  and  N_38
                            x       y       z     vdW  Elec       q    Type
                         _______ _______ _______ _____ _____    ______ ____

>  <TORSDO>
F 16

$$$$
=
 OpenBabel10222421033D

 38 40  0  0  1  0  0  0  0  0999 V2000
  187.0970  177.2120  144.4060 C   0  0  0  0  0  0  0  0  0  0  0  0
  185.3880  179.0400  144.9260 C   0  0  2  0  0  3  0  0  0  0  0  0
  186.1590  178.1030  144.0240 C   0  0  0  0  0  3  0  0  0  0  0  0
  187.4530  178.1170  146.7280 C   0  0  2  0  0  3  0  0  0  0  0  0
  184.9580  178.3670  146.2210 C   0  0  0  0  0  2  0  0  0  0  0  0
  186.0620  178.4490  147.2790 C   0  0  0  0  0  2  0  0  0  0  0  0
  187.4190  176.8800  145.8400 C   0  0  0  0  0  2  0  0  0  0  0  0
  188.0790  178.0890  149.0340 O   0  0  0  0  0  0  0  0  0  0  0  0
  188.4420  177.9390  147.8360 C   0  0  0  0  0  0  0  0  0  0  0  0
  189.7960  177.5720  147.5590 N   0  0  0  0  0  2  0  0  0  0  0  0
  190.3110  177.3550  146.2110 C   0  0  0  0  0  2  0  0  0  0  0  0
  191.6580  176.6430  146.2510 C   0  0  0  0  0  2  0  0  0  0  0  0
  192.9100  176.0180  148.2460 N   0  0  0  0  0  1  0  0  0  0  0  0
  191.7470  175.6980  147.4380 C   0  0  0  0  0  2  0  0  0  0  0  0
  184.1660  179.5720  144.1990 C   0  0  0  0  0  2  0  0  0  0  0  0
  183.9780  178.8450  142.8780 C   0  0  0  0  0  2  0  0  0  0  0  0
  182.5670  178.8060  142.5300 N   0  0  0  0  0  2  0  0  0  0  0  0
  182.4750  178.7300  141.0800 C   0  0  1  0  0  3  0  0  0  0  0  0
  182.6710  177.3950  140.6570 O   0  0  0  0  0  0  0  0  0  0  0  0
  180.5830  178.0950  139.9470 C   0  0  1  0  0  3  0  0  0  0  0  0
  181.1830  179.1600  140.6630 O   0  0  0  0  0  0  0  0  0  0  0  0
  181.4220  175.8750  139.4420 O   0  0  0  0  0  0  0  0  0  0  0  0
  181.5620  177.0080  139.9750 C   0  0  0  0  0  0  0  0  0  0  0  0
  179.3050  177.6650  140.6470 C   0  0  0  0  0  2  0  0  0  0  0  0
  179.6000  177.2230  141.9370 O   0  0  0  0  0  1  0  0  0  0  0  0
  187.7890  176.4170  143.3500 C   0  0  0  0  0  2  0  0  0  0  0  0
  188.7840  177.2400  142.6840 N   0  0  0  0  0  2  0  0  0  0  0  0
  189.5290  176.3840  141.8640 N   0  0  0  0  0  2  0  0  0  0  0  0
  190.2320  177.2280  140.9130 C   0  0  0  0  0  2  0  0  0  0  0  0
  190.5310  176.4670  139.7100 N   0  0  0  0  0  2  0  0  0  0  0  0
  189.9810  177.1710  138.6280 N   0  0  0  0  0  0  0  0  0  0  0  0
  189.0200  178.1180  139.1870 C   0  0  0  0  0  2  0  0  0  0  0  0
  188.4860  178.9320  138.1650 O   0  0  0  0  0  0  0  0  0  0  0  0
  189.2200  176.2070  137.8420 C   0  0  0  0  0  2  0  0  0  0  0  0
  187.7240  178.1360  137.2750 C   0  0  1  0  0  3  0  0  0  0  0  0
  188.4880  176.9260  136.7160 C   0  0  0  0  0  2  0  0  0  0  0  0
  186.3110  177.8250  137.7810 C   0  0  0  0  0  2  0  0  0  0  0  0
  185.7060  178.9760  138.4330 N   0  0  0  0  0  1  0  0  0  0  0  0
  1  7  1  0  0  0  0
  2 15  1  6  0  0  0
  2  5  1  0  0  0  0
  3  1  2  0  0  0  0
  3  2  1  0  0  0  0
  4  6  1  0  0  0  0
  4  9  1  1  0  0  0
  5  6  1  0  0  0  0
  7  4  1  0  0  0  0
  9  8  2  0  0  0  0
 10  9  1  0  0  0  0
 11 12  1  0  0  0  0
 11 10  1  0  0  0  0
 12 14  1  0  0  0  0
 14 13  1  0  0  0  0
 16 15  1  0  0  0  0
 17 16  1  0  0  0  0
 18 17  1  1  0  0  0
 19 18  1  0  0  0  0
 20 23  1  0  0  0  0
 20 24  1  1  0  0  0
 20 21  1  0  0  0  0
 21 18  1  0  0  0  0
 22 23  2  0  0  0  0
 23 19  1  0  0  0  0
 24 25  1  0  0  0  0
 26  1  1  0  0  0  0
 27 26  1  0  0  0  0
 28 27  1  0  0  0  0
 29 28  1  0  0  0  0
 30 29  1  0  0  0  0
 31 32  1  0  0  0  0
 31 30  1  0  0  0  0
 33 32  1  0  0  0  0
 34 31  1  0  0  0  0
 35 37  1  1  0  0  0
 35 33  1  0  0  0  0
 36 35  1  0  0  0  0
 36 34  1  0  0  0  0
 37 38  1  0  0  0  0
M  END
>  <MODEL>
4

>  <REMARK>
 VINA RESULT:      -7.5      1.188      1.853
  Name = 
  16 active torsions:
  status: ('A' for Active; 'I' for Inactive)
    1  A    between atoms: C_1  and  C_8
    2  A    between atoms: C_1  and  C_34
    3  A    between atoms: C_2  and  C_21
    4  A    between atoms: N_3  and  N_4
    5  A    between atoms: N_4  and  C_14
    6  A    between atoms: C_6  and  N_7
    7  A    between atoms: N_7  and  C_34
    8  A    between atoms: N_11  and  C_14
    9  A    between atoms: N_11  and  N_28
   10  A    between atoms: C_12  and  C_25
   11  A    between atoms: C_16  and  C_27
   12  A    between atoms: C_18  and  C_26
   13  A    between atoms: C_19  and  C_20
   14  A    between atoms: C_19  and  C_22
   15  A    between atoms: C_21  and  N_28
   16  A    between atoms: C_22  and  N_38
                            x       y       z     vdW  Elec       q    Type
                         _______ _______ _______ _____ _____    ______ ____

>  <TORSDO>
F 16

$$$$
=
 OpenBabel10222421033D

 38 40  0  0  1  0  0  0  0  0999 V2000
  187.0160  177.2420  144.4560 C   0  0  0  0  0  0  0  0  0  0  0  0
  185.3300  179.0880  144.9890 C   0  0  2  0  0  3  0  0  0  0  0  0
  186.0840  178.1430  144.0810 C   0  0  0  0  0  3  0  0  0  0  0  0
  187.3960  178.1420  146.7770 C   0  0  2  0  0  3  0  0  0  0  0  0
  184.9000  178.4180  146.2860 C   0  0  0  0  0  2  0  0  0  0  0  0
  186.0110  178.4870  147.3360 C   0  0  0  0  0  2  0  0  0  0  0  0
  187.3430  176.9050  145.8880 C   0  0  0  0  0  2  0  0  0  0  0  0
  188.0480  178.1530  149.0760 O   0  0  0  0  0  0  0  0  0  0  0  0
  188.3900  177.9530  147.8790 C   0  0  0  0  0  0  0  0  0  0  0  0
  189.7230  177.5180  147.5980 N   0  0  0  0  0  2  0  0  0  0  0  0
  190.2110  177.2380  146.2510 C   0  0  0  0  0  2  0  0  0  0  0  0
  191.6640  176.7820  146.2830 C   0  0  0  0  0  2  0  0  0  0  0  0
  192.8710  176.0750  148.2790 N   0  0  0  0  0  1  0  0  0  0  0  0
  191.8730  175.6750  147.3030 C   0  0  0  0  0  2  0  0  0  0  0  0
  184.1080  179.6330  144.2690 C   0  0  0  0  0  2  0  0  0  0  0  0
  183.6500  178.6610  143.1940 C   0  0  0  0  0  2  0  0  0  0  0  0
  182.3680  179.0860  142.6570 N   0  0  0  0  0  2  0  0  0  0  0  0
  182.1210  178.3130  141.4490 C   0  0  1  0  0  3  0  0  0  0  0  0
  181.4410  179.1120  140.5000 O   0  0  0  0  0  0  0  0  0  0  0  0
  183.4400  178.4070  139.5740 C   0  0  1  0  0  3  0  0  0  0  0  0
  183.3620  177.8940  140.8920 O   0  0  0  0  0  0  0  0  0  0  0  0
  181.8760  179.7840  138.3320 O   0  0  0  0  0  0  0  0  0  0  0  0
  182.2060  179.1690  139.3810 C   0  0  0  0  0  0  0  0  0  0  0  0
  184.6440  179.3270  139.4560 C   0  0  0  0  0  2  0  0  0  0  0  0
  185.7820  178.5780  139.1570 O   0  0  0  0  0  1  0  0  0  0  0  0
  187.6920  176.4400  143.3960 C   0  0  0  0  0  2  0  0  0  0  0  0
  187.8990  177.2600  142.2130 N   0  0  0  0  0  2  0  0  0  0  0  0
  189.1300  177.9040  142.3820 N   0  0  0  0  0  2  0  0  0  0  0  0
  189.8990  177.6530  141.1750 C   0  0  0  0  0  2  0  0  0  0  0  0
  189.1090  178.0150  140.0070 N   0  0  0  0  0  2  0  0  0  0  0  0
  189.3800  177.0620  139.0140 N   0  0  0  0  0  0  0  0  0  0  0  0
  190.5730  176.3360  139.4410 C   0  0  0  0  0  2  0  0  0  0  0  0
  190.8600  175.2930  138.5340 O   0  0  0  0  0  0  0  0  0  0  0  0
  189.7390  177.8000  137.8090 C   0  0  0  0  0  2  0  0  0  0  0  0
  191.2090  175.8420  137.2750 C   0  0  1  0  0  3  0  0  0  0  0  0
  190.1700  176.8270  136.7190 C   0  0  0  0  0  2  0  0  0  0  0  0
  192.6610  176.3260  137.1950 C   0  0  0  0  0  2  0  0  0  0  0  0
  193.5960  175.3070  137.6480 N   0  0  0  0  0  1  0  0  0  0  0  0
  1  7  1  0  0  0  0
  2 15  1  6  0  0  0
  2  5  1  0  0  0  0
  3  1  2  0  0  0  0
  3  2  1  0  0  0  0
  4  6  1  0  0  0  0
  4  9  1  1  0  0  0
  5  6  1  0  0  0  0
  7  4  1  0  0  0  0
  9  8  2  0  0  0  0
 10  9  1  0  0  0  0
 11 12  1  0  0  0  0
 11 10  1  0  0  0  0
 12 14  1  0  0  0  0
 14 13  1  0  0  0  0
 16 15  1  0  0  0  0
 17 16  1  0  0  0  0
 18 17  1  1  0  0  0
 19 18  1  0  0  0  0
 20 24  1  1  0  0  0
 20 21  1  0  0  0  0
 21 18  1  0  0  0  0
 22 23  2  0  0  0  0
 23 20  1  0  0  0  0
 23 19  1  0  0  0  0
 25 24  1  0  0  0  0
 26  1  1  0  0  0  0
 27 28  1  0  0  0  0
 27 26  1  0  0  0  0
 29 28  1  0  0  0  0
 30 29  1  0  0  0  0
 31 32  1  0  0  0  0
 31 30  1  0  0  0  0
 33 32  1  0  0  0  0
 34 31  1  0  0  0  0
 35 37  1  1  0  0  0
 35 33  1  0  0  0  0
 36 35  1  0  0  0  0
 36 34  1  0  0  0  0
 37 38  1  0  0  0  0
M  END
>  <MODEL>
5

>  <REMARK>
 VINA RESULT:      -7.5      1.392      2.005
  Name = 
  16 active torsions:
  status: ('A' for Active; 'I' for Inactive)
    1  A    between atoms: C_1  and  C_8
    2  A    between atoms: C_1  and  C_34
    3  A    between atoms: C_2  and  C_21
    4  A    between atoms: N_3  and  N_4
    5  A    between atoms: N_4  and  C_14
    6  A    between atoms: C_6  and  N_7
    7  A    between atoms: N_7  and  C_34
    8  A    between atoms: N_11  and  C_14
    9  A    between atoms: N_11  and  N_28
   10  A    between atoms: C_12  and  C_25
   11  A    between atoms: C_16  and  C_27
   12  A    between atoms: C_18  and  C_26
   13  A    between atoms: C_19  and  C_20
   14  A    between atoms: C_19  and  C_22
   15  A    between atoms: C_21  and  N_28
   16  A    between atoms: C_22  and  N_38
                            x       y       z     vdW  Elec       q    Type
                         _______ _______ _______ _____ _____    ______ ____

>  <TORSDO>
F 16

$$$$
=
 OpenBabel10222421033D

 38 40  0  0  1  0  0  0  0  0999 V2000
  187.2080  177.2700  144.2590 C   0  0  0  0  0  0  0  0  0  0  0  0
  185.5300  179.1280  144.7700 C   0  0  2  0  0  3  0  0  0  0  0  0
  186.3350  178.2210  143.8680 C   0  0  0  0  0  3  0  0  0  0  0  0
  187.4120  178.0070  146.6580 C   0  0  2  0  0  3  0  0  0  0  0  0
  184.9750  178.3910  145.9800 C   0  0  0  0  0  2  0  0  0  0  0  0
  185.9940  178.3590  147.1220 C   0  0  0  0  0  2  0  0  0  0  0  0
  187.4050  176.8320  145.6880 C   0  0  0  0  0  2  0  0  0  0  0  0
  187.8170  177.6400  148.9840 O   0  0  0  0  0  0  0  0  0  0  0  0
  188.3040  177.7180  147.8240 C   0  0  0  0  0  0  0  0  0  0  0  0
  189.7050  177.4990  147.6390 N   0  0  0  0  0  2  0  0  0  0  0  0
  190.3620  177.5450  146.3360 C   0  0  0  0  0  2  0  0  0  0  0  0
  191.5540  176.5970  146.2940 C   0  0  0  0  0  2  0  0  0  0  0  0
  193.1780  175.6330  147.8350 N   0  0  0  0  0  1  0  0  0  0  0  0
  191.7680  175.9200  147.6390 C   0  0  0  0  0  2  0  0  0  0  0  0
  184.3890  179.7550  143.9890 C   0  0  0  0  0  2  0  0  0  0  0  0
  183.2640  178.7510  143.7980 C   0  0  0  0  0  2  0  0  0  0  0  0
  182.9230  178.6520  142.3890 N   0  0  0  0  0  2  0  0  0  0  0  0
  181.4780  178.5080  142.2960 C   0  0  1  0  0  3  0  0  0  0  0  0
  180.8470  179.6490  142.8450 O   0  0  0  0  0  0  0  0  0  0  0  0
  180.2010  179.4400  140.6330 C   0  0  1  0  0  3  0  0  0  0  0  0
  181.1010  178.3860  140.9290 O   0  0  0  0  0  0  0  0  0  0  0  0
  179.3630  181.2290  142.0420 O   0  0  0  0  0  0  0  0  0  0  0  0
  180.0790  180.2060  141.8740 C   0  0  0  0  0  0  0  0  0  0  0  0
  180.7830  180.3150  139.5350 C   0  0  0  0  0  2  0  0  0  0  0  0
  179.7520  180.9410  138.8350 O   0  0  0  0  0  1  0  0  0  0  0  0
  187.9520  176.5170  143.2080 C   0  0  0  0  0  2  0  0  0  0  0  0
  189.3600  176.8800  143.2430 N   0  0  0  0  0  2  0  0  0  0  0  0
  189.9670  176.2350  142.1590 N   0  0  0  0  0  2  0  0  0  0  0  0
  189.6060  176.9900  140.9720 C   0  0  0  0  0  2  0  0  0  0  0  0
  190.2430  176.4010  139.8030 N   0  0  0  0  0  2  0  0  0  0  0  0
  190.1830  177.3530  138.7760 N   0  0  0  0  0  0  0  0  0  0  0  0
  189.1200  178.2900  139.1300 C   0  0  0  0  0  2  0  0  0  0  0  0
  189.0560  179.3360  138.1850 O   0  0  0  0  0  0  0  0  0  0  0  0
  189.7470  176.6500  137.5750 C   0  0  0  0  0  2  0  0  0  0  0  0
  188.6650  178.8150  136.9270 C   0  0  1  0  0  3  0  0  0  0  0  0
  189.5360  177.6460  136.4430 C   0  0  0  0  0  2  0  0  0  0  0  0
  187.1550  178.5880  136.7950 C   0  0  0  0  0  2  0  0  0  0  0  0
  186.8550  177.3320  136.1240 N   0  0  0  0  0  1  0  0  0  0  0  0
  1  7  1  0  0  0  0
  2 15  1  6  0  0  0
  2  5  1  0  0  0  0
  3  1  2  0  0  0  0
  3  2  1  0  0  0  0
  4  6  1  0  0  0  0
  4  9  1  1  0  0  0
  5  6  1  0  0  0  0
  7  4  1  0  0  0  0
  9  8  2  0  0  0  0
 10  9  1  0  0  0  0
 11 10  1  0  0  0  0
 12 11  1  0  0  0  0
 12 14  1  0  0  0  0
 14 13  1  0  0  0  0
 16 15  1  0  0  0  0
 17 16  1  0  0  0  0
 18 17  1  6  0  0  0
 18 19  1  0  0  0  0
 20 24  1  6  0  0  0
 20 21  1  0  0  0  0
 20 23  1  0  0  0  0
 21 18  1  0  0  0  0
 23 22  2  0  0  0  0
 23 19  1  0  0  0  0
 25 24  1  0  0  0  0
 26 27  1  0  0  0  0
 26  1  1  0  0  0  0
 28 27  1  0  0  0  0
 29 28  1  0  0  0  0
 30 29  1  0  0  0  0
 31 32  1  0  0  0  0
 31 30  1  0  0  0  0
 33 32  1  0  0  0  0
 34 31  1  0  0  0  0
 35 37  1  1  0  0  0
 35 33  1  0  0  0  0
 36 35  1  0  0  0  0
 36 34  1  0  0  0  0
 38 37  1  0  0  0  0
M  END
>  <MODEL>
6

>  <REMARK>
 VINA RESULT:      -7.3      1.270      1.655
  Name = 
  16 active torsions:
  status: ('A' for Active; 'I' for Inactive)
    1  A    between atoms: C_1  and  C_8
    2  A    between atoms: C_1  and  C_34
    3  A    between atoms: C_2  and  C_21
    4  A    between atoms: N_3  and  N_4
    5  A    between atoms: N_4  and  C_14
    6  A    between atoms: C_6  and  N_7
    7  A    between atoms: N_7  and  C_34
    8  A    between atoms: N_11  and  C_14
    9  A    between atoms: N_11  and  N_28
   10  A    between atoms: C_12  and  C_25
   11  A    between atoms: C_16  and  C_27
   12  A    between atoms: C_18  and  C_26
   13  A    between atoms: C_19  and  C_20
   14  A    between atoms: C_19  and  C_22
   15  A    between atoms: C_21  and  N_28
   16  A    between atoms: C_22  and  N_38
                            x       y       z     vdW  Elec       q    Type
                         _______ _______ _______ _____ _____    ______ ____

>  <TORSDO>
F 16

$$$$
=
 OpenBabel10222421033D

 38 40  0  0  1  0  0  0  0  0999 V2000
  187.4500  177.1740  143.6110 C   0  0  0  0  0  0  0  0  0  0  0  0
  185.8910  178.8180  142.4300 C   0  0  2  0  0  3  0  0  0  0  0  0
  187.0660  177.8730  142.5230 C   0  0  0  0  0  3  0  0  0  0  0  0
  186.0580  178.4320  145.2900 C   0  0  2  0  0  3  0  0  0  0  0  0
  184.6630  178.2820  143.1510 C   0  0  0  0  0  2  0  0  0  0  0  0
  184.6900  178.6530  144.6360 C   0  0  0  0  0  2  0  0  0  0  0  0
  186.6560  177.0890  144.8900 C   0  0  0  0  0  2  0  0  0  0  0  0
  184.8380  178.5970  147.3380 O   0  0  0  0  0  0  0  0  0  0  0  0
  185.9660  178.5400  146.7800 C   0  0  0  0  0  0  0  0  0  0  0  0
  187.1460  178.5530  147.5880 N   0  0  0  0  0  2  0  0  0  0  0  0
  188.4970  178.4700  147.0420 C   0  0  0  0  0  2  0  0  0  0  0  0
  189.4320  177.7580  148.0110 C   0  0  0  0  0  2  0  0  0  0  0  0
  191.5580  176.7560  147.3650 N   0  0  0  0  0  1  0  0  0  0  0  0
  190.1180  176.5740  147.3470 C   0  0  0  0  0  2  0  0  0  0  0  0
  185.5500  179.0800  140.9730 C   0  0  0  0  0  2  0  0  0  0  0  0
  184.0500  178.9740  140.7530 C   0  0  0  0  0  2  0  0  0  0  0  0
  183.7140  179.4270  139.4130 N   0  0  0  0  0  2  0  0  0  0  0  0
  182.2630  179.4160  139.2990 C   0  0  1  0  0  3  0  0  0  0  0  0
  181.8880  179.5900  137.9460 O   0  0  0  0  0  0  0  0  0  0  0  0
  181.0390  177.5720  138.6930 C   0  0  1  0  0  3  0  0  0  0  0  0
  181.7610  178.1650  139.7580 O   0  0  0  0  0  0  0  0  0  0  0  0
  180.6430  178.3630  136.4330 O   0  0  0  0  0  0  0  0  0  0  0  0
  181.1540  178.5100  137.5760 C   0  0  0  0  0  0  0  0  0  0  0  0
  181.6750  176.2420  138.3240 C   0  0  0  0  0  2  0  0  0  0  0  0
  182.4420  175.7730  139.3910 O   0  0  0  0  0  1  0  0  0  0  0  0
  188.6800  176.3360  143.5170 C   0  0  0  0  0  2  0  0  0  0  0  0
  189.8240  177.0800  144.0190 N   0  0  0  0  0  2  0  0  0  0  0  0
  190.9240  176.6940  143.2450 N   0  0  0  0  0  2  0  0  0  0  0  0
  191.1010  177.7210  142.2330 C   0  0  0  0  0  2  0  0  0  0  0  0
  191.6480  177.1280  141.0220 N   0  0  0  0  0  2  0  0  0  0  0  0
  190.5600  176.7240  140.2330 N   0  0  0  0  0  0  0  0  0  0  0  0
  191.0690  176.5410  138.8760 C   0  0  0  0  0  2  0  0  0  0  0  0
  190.0490  176.0460  138.0350 O   0  0  0  0  0  0  0  0  0  0  0  0
  189.6310  177.8470  140.1910 C   0  0  0  0  0  2  0  0  0  0  0  0
  189.0280  177.0190  137.9040 C   0  0  1  0  0  3  0  0  0  0  0  0
  188.4800  177.5270  139.2470 C   0  0  0  0  0  2  0  0  0  0  0  0
  189.3490  178.1170  136.8850 C   0  0  0  0  0  2  0  0  0  0  0  0
  188.7170  179.3810  137.2350 N   0  0  0  0  0  1  0  0  0  0  0  0
  1  7  1  0  0  0  0
  2 15  1  6  0  0  0
  2  3  1  0  0  0  0
  2  5  1  0  0  0  0
  3  1  2  0  0  0  0
  4  9  1  1  0  0  0
  5  6  1  0  0  0  0
  6  4  1  0  0  0  0
  7  4  1  0  0  0  0
  9  8  2  0  0  0  0
  9 10  1  0  0  0  0
 11 10  1  0  0  0  0
 11 12  1  0  0  0  0
 14 13  1  0  0  0  0
 14 12  1  0  0  0  0
 16 15  1  0  0  0  0
 17 16  1  0  0  0  0
 18 17  1  6  0  0  0
 18 21  1  0  0  0  0
 19 18  1  0  0  0  0
 20 24  1  6  0  0  0
 20 21  1  0  0  0  0
 22 23  2  0  0  0  0
 23 19  1  0  0  0  0
 23 20  1  0  0  0  0
 24 25  1  0  0  0  0
 26  1  1  0  0  0  0
 26 27  1  0  0  0  0
 28 27  1  0  0  0  0
 29 28  1  0  0  0  0
 30 29  1  0  0  0  0
 31 30  1  0  0  0  0
 32 31  1  0  0  0  0
 33 32  1  0  0  0  0
 34 31  1  0  0  0  0
 35 37  1  1  0  0  0
 35 33  1  0  0  0  0
 35 36  1  0  0  0  0
 36 34  1  0  0  0  0
 37 38  1  0  0  0  0
M  END
>  <MODEL>
7

>  <REMARK>
 VINA RESULT:      -7.2      1.790      2.415
  Name = 
  16 active torsions:
  status: ('A' for Active; 'I' for Inactive)
    1  A    between atoms: C_1  and  C_8
    2  A    between atoms: C_1  and  C_34
    3  A    between atoms: C_2  and  C_21
    4  A    between atoms: N_3  and  N_4
    5  A    between atoms: N_4  and  C_14
    6  A    between atoms: C_6  and  N_7
    7  A    between atoms: N_7  and  C_34
    8  A    between atoms: N_11  and  C_14
    9  A    between atoms: N_11  and  N_28
   10  A    between atoms: C_12  and  C_25
   11  A    between atoms: C_16  and  C_27
   12  A    between atoms: C_18  and  C_26
   13  A    between atoms: C_19  and  C_20
   14  A    between atoms: C_19  and  C_22
   15  A    between atoms: C_21  and  N_28
   16  A    between atoms: C_22  and  N_38
                            x       y       z     vdW  Elec       q    Type
                         _______ _______ _______ _____ _____    ______ ____

>  <TORSDO>
F 16

$$$$
=
 OpenBabel10222421033D

 38 40  0  0  1  0  0  0  0  0999 V2000
  187.2890  177.2480  143.4180 C   0  0  0  0  0  0  0  0  0  0  0  0
  185.7280  179.0010  142.4090 C   0  0  2  0  0  3  0  0  0  0  0  0
  186.8740  178.0170  142.3900 C   0  0  0  0  0  3  0  0  0  0  0  0
  186.0300  178.4570  145.2320 C   0  0  2  0  0  3  0  0  0  0  0  0
  184.5210  178.4650  143.1660 C   0  0  0  0  0  2  0  0  0  0  0  0
  184.6380  178.7550  144.6640 C   0  0  0  0  0  2  0  0  0  0  0  0
  186.5600  177.1200  144.7310 C   0  0  0  0  0  2  0  0  0  0  0  0
  184.9250  178.5840  147.3470 O   0  0  0  0  0  0  0  0  0  0  0  0
  186.0180  178.4880  146.7280 C   0  0  0  0  0  0  0  0  0  0  0  0
  187.2350  178.3810  147.4730 N   0  0  0  0  0  2  0  0  0  0  0  0
  188.5490  178.2450  146.8530 C   0  0  0  0  0  2  0  0  0  0  0  0
  189.2520  176.9840  147.3410 C   0  0  0  0  0  2  0  0  0  0  0  0
  191.6740  176.7570  147.4970 N   0  0  0  0  0  1  0  0  0  0  0  0
  190.5470  176.7450  146.5810 C   0  0  0  0  0  2  0  0  0  0  0  0
  185.3210  179.3510  140.9880 C   0  0  0  0  0  2  0  0  0  0  0  0
  184.7200  178.1390  140.2960 C   0  0  0  0  0  2  0  0  0  0  0  0
  183.8020  178.5690  139.2540 N   0  0  0  0  0  2  0  0  0  0  0  0
  183.0930  179.7390  139.7500 C   0  0  1  0  0  3  0  0  0  0  0  0
  182.9690  180.6980  138.7170 O   0  0  0  0  0  0  0  0  0  0  0  0
  180.8500  180.1080  139.4350 C   0  0  1  0  0  3  0  0  0  0  0  0
  181.7910  179.3570  140.1820 O   0  0  0  0  0  0  0  0  0  0  0  0
  181.1910  181.7590  137.6890 O   0  0  0  0  0  0  0  0  0  0  0  0
  181.6460  180.9340  138.5260 C   0  0  0  0  0  0  0  0  0  0  0  0
  179.9610  179.1670  138.6410 C   0  0  0  0  0  2  0  0  0  0  0  0
  180.0900  177.8680  139.1330 O   0  0  0  0  0  1  0  0  0  0  0  0
  188.4840  176.3790  143.2150 C   0  0  0  0  0  2  0  0  0  0  0  0
  189.6480  177.2000  142.9230 N   0  0  0  0  0  2  0  0  0  0  0  0
  190.5700  176.3720  142.2730 N   0  0  0  0  0  2  0  0  0  0  0  0
  191.0010  177.0840  141.0830 C   0  0  0  0  0  2  0  0  0  0  0  0
  190.5450  176.3770  139.8960 N   0  0  0  0  0  2  0  0  0  0  0  0
  190.2900  177.3440  138.9120 N   0  0  0  0  0  0  0  0  0  0  0  0
  189.1580  178.1370  139.3830 C   0  0  0  0  0  2  0  0  0  0  0  0
  188.8960  179.1940  138.4860 O   0  0  0  0  0  0  0  0  0  0  0  0
  189.8410  176.6270  137.7240 C   0  0  0  0  0  2  0  0  0  0  0  0
  188.4660  178.6660  137.2440 C   0  0  1  0  0  3  0  0  0  0  0  0
  189.4240  177.6220  136.6500 C   0  0  0  0  0  2  0  0  0  0  0  0
  186.9870  178.2650  137.2230 C   0  0  0  0  0  2  0  0  0  0  0  0
  186.7900  176.9590  136.6120 N   0  0  0  0  0  1  0  0  0  0  0  0
  1  7  1  0  0  0  0
  2 15  1  6  0  0  0
  2  5  1  0  0  0  0
  3  2  1  0  0  0  0
  3  1  2  0  0  0  0
  4  9  1  1  0  0  0
  5  6  1  0  0  0  0
  6  4  1  0  0  0  0
  7  4  1  0  0  0  0
  9  8  2  0  0  0  0
  9 10  1  0  0  0  0
 11 12  1  0  0  0  0
 11 10  1  0  0  0  0
 14 12  1  0  0  0  0
 14 13  1  0  0  0  0
 16 15  1  0  0  0  0
 17 16  1  0  0  0  0
 18 17  1  6  0  0  0
 18 21  1  0  0  0  0
 19 18  1  0  0  0  0
 20 24  1  6  0  0  0
 20 21  1  0  0  0  0
 22 23  2  0  0  0  0
 23 19  1  0  0  0  0
 23 20  1  0  0  0  0
 24 25  1  0  0  0  0
 26  1  1  0  0  0  0
 27 26  1  0  0  0  0
 28 27  1  0  0  0  0
 29 28  1  0  0  0  0
 30 29  1  0  0  0  0
 31 32  1  0  0  0  0
 31 30  1  0  0  0  0
 33 32  1  0  0  0  0
 34 31  1  0  0  0  0
 35 37  1  1  0  0  0
 35 33  1  0  0  0  0
 36 35  1  0  0  0  0
 36 34  1  0  0  0  0
 38 37  1  0  0  0  0
M  END
>  <MODEL>
8

>  <REMARK>
 VINA RESULT:      -7.2      1.521      2.222
  Name = 
  16 active torsions:
  status: ('A' for Active; 'I' for Inactive)
    1  A    between atoms: C_1  and  C_8
    2  A    between atoms: C_1  and  C_34
    3  A    between atoms: C_2  and  C_21
    4  A    between atoms: N_3  and  N_4
    5  A    between atoms: N_4  and  C_14
    6  A    between atoms: C_6  and  N_7
    7  A    between atoms: N_7  and  C_34
    8  A    between atoms: N_11  and  C_14
    9  A    between atoms: N_11  and  N_28
   10  A    between atoms: C_12  and  C_25
   11  A    between atoms: C_16  and  C_27
   12  A    between atoms: C_18  and  C_26
   13  A    between atoms: C_19  and  C_20
   14  A    between atoms: C_19  and  C_22
   15  A    between atoms: C_21  and  N_28
   16  A    between atoms: C_22  and  N_38
                            x       y       z     vdW  Elec       q    Type
                         _______ _______ _______ _____ _____    ______ ____

>  <TORSDO>
F 16

$$$$
=
 OpenBabel10222421033D

 38 40  0  0  1  0  0  0  0  0999 V2000
  183.5220  178.9260  142.8920 C   0  0  0  0  0  0  0  0  0  0  0  0
  183.5570  178.7450  140.3430 C   0  0  2  0  0  3  0  0  0  0  0  0
  184.1660  178.9690  141.7070 C   0  0  0  0  0  3  0  0  0  0  0  0
  181.1810  179.0070  141.9700 C   0  0  2  0  0  3  0  0  0  0  0  0
  182.5580  177.5960  140.3410 C   0  0  0  0  0  2  0  0  0  0  0  0
  181.1650  178.0760  140.7530 C   0  0  0  0  0  2  0  0  0  0  0  0
  182.0950  178.4750  143.0660 C   0  0  0  0  0  2  0  0  0  0  0  0
  179.3550  178.4870  143.4210 O   0  0  0  0  0  0  0  0  0  0  0  0
  179.7980  179.2240  142.5000 C   0  0  0  0  0  0  0  0  0  0  0  0
  178.9760  180.2790  141.9940 N   0  0  0  0  0  2  0  0  0  0  0  0
  179.4030  181.2000  140.9450 C   0  0  0  0  0  2  0  0  0  0  0  0
  178.9310  180.7220  139.5770 C   0  0  0  0  0  2  0  0  0  0  0  0
  181.2150  181.2620  138.9230 N   0  0  0  0  0  1  0  0  0  0  0  0
  179.8350  181.2380  138.4700 C   0  0  0  0  0  2  0  0  0  0  0  0
  184.6490  178.4710  139.3250 C   0  0  0  0  0  2  0  0  0  0  0  0
  185.9850  178.9940  139.8280 C   0  0  0  0  0  2  0  0  0  0  0  0
  187.0680  178.1950  139.2790 N   0  0  0  0  0  2  0  0  0  0  0  0
  188.2760  178.5260  140.0190 C   0  0  1  0  0  3  0  0  0  0  0  0
  188.5570  177.5060  140.9590 O   0  0  0  0  0  0  0  0  0  0  0  0
  190.3560  177.6980  139.5160 C   0  0  1  0  0  3  0  0  0  0  0  0
  189.3710  178.6350  139.1160 O   0  0  0  0  0  0  0  0  0  0  0  0
  190.3530  176.1040  141.3460 O   0  0  0  0  0  0  0  0  0  0  0  0
  189.7900  177.0130  140.6790 C   0  0  0  0  0  0  0  0  0  0  0  0
  190.6000  176.7040  138.3930 C   0  0  0  0  0  2  0  0  0  0  0  0
  191.9200  176.2550  138.4400 O   0  0  0  0  0  1  0  0  0  0  0  0
  184.2940  179.2360  144.1300 C   0  0  0  0  0  2  0  0  0  0  0  0
  183.4320  179.1160  145.2930 N   0  0  0  0  0  2  0  0  0  0  0  0
  184.2290  178.6280  146.3350 N   0  0  0  0  0  2  0  0  0  0  0  0
  185.6030  178.6750  145.8640 C   0  0  0  0  0  2  0  0  0  0  0  0
  186.5050  178.3060  146.9440 N   0  0  0  0  0  2  0  0  0  0  0  0
  187.4740  177.4510  146.3990 N   0  0  0  0  0  0  0  0  0  0  0  0
  188.7750  177.9700  146.8130 C   0  0  0  0  0  2  0  0  0  0  0  0
  189.8050  177.1090  146.3770 O   0  0  0  0  0  0  0  0  0  0  0  0
  187.3990  177.5990  144.9510 C   0  0  0  0  0  2  0  0  0  0  0  0
  189.8560  177.1100  144.9620 C   0  0  1  0  0  3  0  0  0  0  0  0
  188.5100  176.7930  144.2930 C   0  0  0  0  0  2  0  0  0  0  0  0
  190.5980  178.3140  144.3720 C   0  0  0  0  0  2  0  0  0  0  0  0
  191.8250  177.9150  143.6980 N   0  0  0  0  0  1  0  0  0  0  0  0
  1  7  1  0  0  0  0
  1 26  1  0  0  0  0
  2 15  1  6  0  0  0
  2  3  1  0  0  0  0
  3  1  2  0  0  0  0
  4  9  1  1  0  0  0
  4  7  1  0  0  0  0
  5  2  1  0  0  0  0
  5  6  1  0  0  0  0
  6  4  1  0  0  0  0
  9  8  2  0  0  0  0
 10  9  1  0  0  0  0
 11 10  1  0  0  0  0
 12 11  1  0  0  0  0
 14 13  1  0  0  0  0
 14 12  1  0  0  0  0
 15 16  1  0  0  0  0
 17 16  1  0  0  0  0
 18 17  1  6  0  0  0
 18 19  1  0  0  0  0
 20 24  1  6  0  0  0
 20 23  1  0  0  0  0
 21 20  1  0  0  0  0
 21 18  1  0  0  0  0
 23 19  1  0  0  0  0
 23 22  2  0  0  0  0
 24 25  1  0  0  0  0
 26 27  1  0  0  0  0
 27 28  1  0  0  0  0
 29 28  1  0  0  0  0
 29 30  1  0  0  0  0
 31 32  1  0  0  0  0
 31 30  1  0  0  0  0
 33 32  1  0  0  0  0
 34 31  1  0  0  0  0
 35 37  1  6  0  0  0
 35 33  1  0  0  0  0
 36 34  1  0  0  0  0
 36 35  1  0  0  0  0
 38 37  1  0  0  0  0
M  END
>  <MODEL>
9

>  <REMARK>
 VINA RESULT:      -7.0      2.458      8.352
  Name = 
  16 active torsions:
  status: ('A' for Active; 'I' for Inactive)
    1  A    between atoms: C_1  and  C_8
    2  A    between atoms: C_1  and  C_34
    3  A    between atoms: C_2  and  C_21
    4  A    between atoms: N_3  and  N_4
    5  A    between atoms: N_4  and  C_14
    6  A    between atoms: C_6  and  N_7
    7  A    between atoms: N_7  and  C_34
    8  A    between atoms: N_11  and  C_14
    9  A    between atoms: N_11  and  N_28
   10  A    between atoms: C_12  and  C_25
   11  A    between atoms: C_16  and  C_27
   12  A    between atoms: C_18  and  C_26
   13  A    between atoms: C_19  and  C_20
   14  A    between atoms: C_19  and  C_22
   15  A    between atoms: C_21  and  N_28
   16  A    between atoms: C_22  and  N_38
                            x       y       z     vdW  Elec       q    Type
                         _______ _______ _______ _____ _____    ______ ____

>  <TORSDO>
F 16

$$$$
