=
 OpenBabel10222416553D

 28 30  0  0  1  0  0  0  0  0999 V2000
  191.5600  176.4160  146.3980 C   0  0  0  0  0  0  0  0  0  0  0  0
  189.1110  177.5070  145.5740 C   0  0  0  0  0  0  0  0  0  0  0  0
  191.4320  176.9550  145.1170 C   0  0  0  0  0  3  0  0  0  0  0  0
  190.2230  177.5240  144.7030 C   0  0  0  0  0  0  0  0  0  0  0  0
  192.7420  175.8830  146.7930 F   0  0  0  0  0  0  0  0  0  0  0  0
  190.4740  176.4290  147.2740 C   0  0  0  0  0  3  0  0  0  0  0  0
  189.2530  176.9650  146.8620 C   0  0  0  0  0  3  0  0  0  0  0  0
  190.2040  176.0040  142.2010 O   0  0  0  0  0  0  0  0  0  0  0  0
  190.3510  177.2550  142.1820 C   0  0  0  0  0  0  0  0  0  0  0  0
  190.1310  178.0320  143.3660 N   0  0  0  0  0  2  0  0  0  0  0  0
  192.3670  176.6650  139.5430 C   0  0  0  0  0  3  0  0  0  0  0  0
  187.5460  177.9380  138.7670 C   0  0  0  0  0  2  0  0  0  0  0  0
  188.5610  178.2090  139.8490 C   0  0  0  0  0  3  0  0  0  0  0  0
  192.1260  177.4680  140.5400 N   0  0  0  0  0  0  0  0  0  0  0  0
  189.7780  177.6590  139.8250 C   0  0  0  0  0  0  0  0  0  0  0  0
  190.1050  176.6760  138.7820 C   0  0  0  0  0  0  0  0  0  0  0  0
  191.3120  176.2150  138.6790 N   0  0  0  0  0  0  0  0  0  0  0  0
  190.7820  177.9250  140.9160 C   0  0  1  0  0  3  0  0  0  0  0  0
  189.0700  176.1990  137.9170 N   0  0  0  0  0  0  0  0  0  0  0  0
  187.8840  176.7350  137.9180 C   0  0  0  0  0  3  0  0  0  0  0  0
  187.8390  177.9980  145.1320 N   0  0  0  0  0  2  0  0  0  0  0  0
  186.8750  177.2070  144.3820 C   0  0  0  0  0  2  0  0  0  0  0  0
  186.2530  178.0610  143.2880 C   0  0  0  0  0  2  0  0  0  0  0  0
  184.7750  178.3150  143.5790 C   0  0  2  0  0  3  0  0  0  0  0  0
  184.9360  179.0240  141.2760 C   0  0  0  0  0  1  0  0  0  0  0  0
  184.0300  178.7110  142.3790 N   0  0  0  0  0  2  0  0  0  0  0  0
  184.0570  178.8820  145.7780 O   0  0  0  0  0  0  0  0  0  0  0  0
  184.5560  179.2630  144.7290 C   0  0  0  0  0  3  0  0  0  0  0  0
  1  5  1  0  0  0  0
  1  6  1  0  0  0  0
  2  7  1  0  0  0  0
  3  1  2  0  0  0  0
  4  3  1  0  0  0  0
  4  2  2  0  0  0  0
  7  6  2  0  0  0  0
  9  8  2  0  0  0  0
  9 10  1  0  0  0  0
 10  4  1  0  0  0  0
 11 14  2  0  0  0  0
 12 13  1  0  0  0  0
 14 18  1  0  0  0  0
 15 13  2  0  0  0  0
 15 18  1  0  0  0  0
 16 15  1  0  0  0  0
 17 16  2  0  0  0  0
 17 11  1  0  0  0  0
 18  9  1  1  0  0  0
 19 20  2  0  0  0  0
 19 16  1  0  0  0  0
 20 12  1  0  0  0  0
 21  2  1  0  0  0  0
 22 21  1  0  0  0  0
 23 22  1  0  0  0  0
 24 23  1  6  0  0  0
 24 28  1  0  0  0  0
 25 26  1  0  0  0  0
 26 24  1  0  0  0  0
 28 27  2  0  0  0  0
M  END
>  <MODEL>
1

>  <REMARK>
 VINA RESULT:      -7.6      0.000      0.000
  Name = 
  8 active torsions:
  status: ('A' for Active; 'I' for Inactive)
    1  A    between atoms: C_1  and  C_10
    2  A    between atoms: C_1  and  N_16
    3  A    between atoms: C_6  and  N_16
    4  A    between atoms: C_10  and  CA_25
    5  A    between atoms: C_11  and  N_28
    6  A    between atoms: C_17  and  C_22
    7  A    between atoms: N_21  and  CA_25
    8  A    between atoms: C_24  and  CA_25
                            x       y       z     vdW  Elec       q    Type
                         _______ _______ _______ _____ _____    ______ ____

>  <TORSDO>
F 8

$$$$
=
 OpenBabel10222416553D

 28 30  0  0  1  0  0  0  0  0999 V2000
  185.3010  178.3480  145.5240 C   0  0  0  0  0  0  0  0  0  0  0  0
  186.8150  177.8910  143.2080 C   0  0  0  0  0  0  0  0  0  0  0  0
  184.9310  178.9470  144.3190 C   0  0  0  0  0  3  0  0  0  0  0  0
  185.6640  178.7070  143.1520 C   0  0  0  0  0  0  0  0  0  0  0  0
  184.5720  178.5730  146.6440 F   0  0  0  0  0  0  0  0  0  0  0  0
  186.4170  177.5120  145.5760 C   0  0  0  0  0  3  0  0  0  0  0  0
  187.1750  177.2910  144.4250 C   0  0  0  0  0  3  0  0  0  0  0  0
  183.7470  177.7880  141.1390 O   0  0  0  0  0  0  0  0  0  0  0  0
  184.4950  178.7740  140.8990 C   0  0  0  0  0  0  0  0  0  0  0  0
  185.2640  179.3750  141.9480 N   0  0  0  0  0  2  0  0  0  0  0  0
  185.5680  177.7660  137.8640 C   0  0  0  0  0  3  0  0  0  0  0  0
  180.8820  179.5640  138.3860 C   0  0  0  0  0  2  0  0  0  0  0  0
  182.1940  179.7800  139.0970 C   0  0  0  0  0  3  0  0  0  0  0  0
  185.7140  178.6570  138.8040 N   0  0  0  0  0  0  0  0  0  0  0  0
  183.2900  179.0850  138.7790 C   0  0  0  0  0  0  0  0  0  0  0  0
  183.1940  178.0020  137.7900 C   0  0  0  0  0  0  0  0  0  0  0  0
  184.2660  177.3910  137.3910 N   0  0  0  0  0  0  0  0  0  0  0  0
  184.5930  179.2990  139.5030 C   0  0  1  0  0  3  0  0  0  0  0  0
  181.9080  177.5980  137.3110 N   0  0  0  0  0  0  0  0  0  0  0  0
  180.8340  178.2740  137.6000 C   0  0  0  0  0  3  0  0  0  0  0  0
  187.6310  177.7130  142.0440 N   0  0  0  0  0  2  0  0  0  0  0  0
  188.9610  178.2820  141.8850 C   0  0  0  0  0  2  0  0  0  0  0  0
  190.0070  177.1880  142.0240 C   0  0  0  0  0  2  0  0  0  0  0  0
  191.0540  177.5730  143.0680 C   0  0  2  0  0  3  0  0  0  0  0  0
  191.5000  176.6410  145.2520 C   0  0  0  0  0  1  0  0  0  0  0  0
  191.5570  176.4110  143.8090 N   0  0  0  0  0  2  0  0  0  0  0  0
  191.1870  179.7500  144.0250 O   0  0  0  0  0  0  0  0  0  0  0  0
  190.5950  178.6810  143.9800 C   0  0  0  0  0  3  0  0  0  0  0  0
  1  6  1  0  0  0  0
  1  5  1  0  0  0  0
  2  7  1  0  0  0  0
  3  1  2  0  0  0  0
  4  2  2  0  0  0  0
  4  3  1  0  0  0  0
  7  6  2  0  0  0  0
  9  8  2  0  0  0  0
  9 10  1  0  0  0  0
 10  4  1  0  0  0  0
 11 14  2  0  0  0  0
 12 13  1  0  0  0  0
 14 18  1  0  0  0  0
 15 13  2  0  0  0  0
 15 18  1  0  0  0  0
 16 15  1  0  0  0  0
 17 16  2  0  0  0  0
 17 11  1  0  0  0  0
 18  9  1  1  0  0  0
 19 20  2  0  0  0  0
 19 16  1  0  0  0  0
 20 12  1  0  0  0  0
 21  2  1  0  0  0  0
 22 23  1  0  0  0  0
 22 21  1  0  0  0  0
 24 23  1  1  0  0  0
 24 26  1  0  0  0  0
 24 28  1  0  0  0  0
 26 25  1  0  0  0  0
 28 27  2  0  0  0  0
M  END
>  <MODEL>
2

>  <REMARK>
 VINA RESULT:      -6.9      3.363      6.337
  Name = 
  8 active torsions:
  status: ('A' for Active; 'I' for Inactive)
    1  A    between atoms: C_1  and  C_10
    2  A    between atoms: C_1  and  N_16
    3  A    between atoms: C_6  and  N_16
    4  A    between atoms: C_10  and  CA_25
    5  A    between atoms: C_11  and  N_28
    6  A    between atoms: C_17  and  C_22
    7  A    between atoms: N_21  and  CA_25
    8  A    between atoms: C_24  and  CA_25
                            x       y       z     vdW  Elec       q    Type
                         _______ _______ _______ _____ _____    ______ ____

>  <TORSDO>
F 8

$$$$
=
 OpenBabel10222416553D

 28 30  0  0  1  0  0  0  0  0999 V2000
  189.9550  177.5260  145.6400 C   0  0  0  0  0  0  0  0  0  0  0  0
  187.5760  177.5990  144.1560 C   0  0  0  0  0  0  0  0  0  0  0  0
  190.0010  177.7060  144.2570 C   0  0  0  0  0  3  0  0  0  0  0  0
  188.8200  177.7690  143.5090 C   0  0  0  0  0  0  0  0  0  0  0  0
  191.1050  177.4850  146.3560 F   0  0  0  0  0  0  0  0  0  0  0  0
  188.7270  177.3930  146.2880 C   0  0  0  0  0  3  0  0  0  0  0  0
  187.5430  177.4230  145.5480 C   0  0  0  0  0  3  0  0  0  0  0  0
  190.1590  175.9930  141.6050 O   0  0  0  0  0  0  0  0  0  0  0  0
  189.7760  177.1380  141.2430 C   0  0  0  0  0  0  0  0  0  0  0  0
  188.9210  177.9190  142.0870 N   0  0  0  0  0  2  0  0  0  0  0  0
  191.8170  176.2810  138.6980 C   0  0  0  0  0  3  0  0  0  0  0  0
  187.0390  177.5870  137.7360 C   0  0  0  0  0  2  0  0  0  0  0  0
  188.0430  177.9270  138.8080 C   0  0  0  0  0  3  0  0  0  0  0  0
  191.5790  177.1710  139.6200 N   0  0  0  0  0  0  0  0  0  0  0  0
  189.2480  177.3510  138.8510 C   0  0  0  0  0  0  0  0  0  0  0  0
  189.5670  176.2760  137.9010 C   0  0  0  0  0  0  0  0  0  0  0  0
  190.7650  175.7810  137.8590 N   0  0  0  0  0  0  0  0  0  0  0  0
  190.2400  177.6880  139.9330 C   0  0  1  0  0  3  0  0  0  0  0  0
  188.5350  175.7490  137.0630 N   0  0  0  0  0  0  0  0  0  0  0  0
  187.3620  176.3080  136.9980 C   0  0  0  0  0  3  0  0  0  0  0  0
  186.3640  177.5640  143.3930 N   0  0  0  0  0  2  0  0  0  0  0  0
  185.5780  178.7420  143.0540 C   0  0  0  0  0  2  0  0  0  0  0  0
  184.1450  178.3330  142.7570 C   0  0  0  0  0  2  0  0  0  0  0  0
  183.7880  178.6380  141.3030 C   0  0  2  0  0  3  0  0  0  0  0  0
  181.6940  177.8210  140.4170 C   0  0  0  0  0  1  0  0  0  0  0  0
  183.1040  177.5160  140.6490 N   0  0  0  0  0  2  0  0  0  0  0  0
  184.7970  179.7950  139.4830 O   0  0  0  0  0  0  0  0  0  0  0  0
  184.9600  179.1420  140.5030 C   0  0  0  0  0  3  0  0  0  0  0  0
  1  6  1  0  0  0  0
  1  5  1  0  0  0  0
  2  7  1  0  0  0  0
  3  1  2  0  0  0  0
  4  2  2  0  0  0  0
  4  3  1  0  0  0  0
  7  6  2  0  0  0  0
  9  8  2  0  0  0  0
  9 10  1  0  0  0  0
 10  4  1  0  0  0  0
 11 14  2  0  0  0  0
 12 13  1  0  0  0  0
 13 15  2  0  0  0  0
 14 18  1  0  0  0  0
 15 18  1  0  0  0  0
 16 15  1  0  0  0  0
 17 16  2  0  0  0  0
 17 11  1  0  0  0  0
 18  9  1  1  0  0  0
 19 16  1  0  0  0  0
 20 19  2  0  0  0  0
 20 12  1  0  0  0  0
 21  2  1  0  0  0  0
 22 21  1  0  0  0  0
 23 22  1  0  0  0  0
 24 28  1  6  0  0  0
 24 23  1  0  0  0  0
 25 26  1  0  0  0  0
 26 24  1  0  0  0  0
 27 28  2  0  0  0  0
M  END
>  <MODEL>
3

>  <REMARK>
 VINA RESULT:      -6.9      1.859      2.296
  Name = 
  8 active torsions:
  status: ('A' for Active; 'I' for Inactive)
    1  A    between atoms: C_1  and  C_10
    2  A    between atoms: C_1  and  N_16
    3  A    between atoms: C_6  and  N_16
    4  A    between atoms: C_10  and  CA_25
    5  A    between atoms: C_11  and  N_28
    6  A    between atoms: C_17  and  C_22
    7  A    between atoms: N_21  and  CA_25
    8  A    between atoms: C_24  and  CA_25
                            x       y       z     vdW  Elec       q    Type
                         _______ _______ _______ _____ _____    ______ ____

>  <TORSDO>
F 8

$$$$
=
 OpenBabel10222416553D

 28 30  0  0  1  0  0  0  0  0999 V2000
  185.4410  178.2520  145.3250 C   0  0  0  0  0  0  0  0  0  0  0  0
  186.9900  177.9030  143.0120 C   0  0  0  0  0  0  0  0  0  0  0  0
  185.0560  178.8600  144.1290 C   0  0  0  0  0  3  0  0  0  0  0  0
  185.8060  178.6730  142.9630 C   0  0  0  0  0  0  0  0  0  0  0  0
  184.6960  178.4260  146.4430 F   0  0  0  0  0  0  0  0  0  0  0  0
  186.5900  177.4620  145.3690 C   0  0  0  0  0  3  0  0  0  0  0  0
  187.3650  177.2940  144.2200 C   0  0  0  0  0  3  0  0  0  0  0  0
  183.7460  177.8420  141.0560 O   0  0  0  0  0  0  0  0  0  0  0  0
  184.5370  178.7780  140.7670 C   0  0  0  0  0  0  0  0  0  0  0  0
  185.3880  179.3470  141.7690 N   0  0  0  0  0  2  0  0  0  0  0  0
  185.5310  177.7190  137.7230 C   0  0  0  0  0  3  0  0  0  0  0  0
  180.8580  179.5240  138.3350 C   0  0  0  0  0  2  0  0  0  0  0  0
  182.1880  179.7530  139.0090 C   0  0  0  0  0  3  0  0  0  0  0  0
  185.7000  178.6260  138.6420 N   0  0  0  0  0  0  0  0  0  0  0  0
  183.2750  179.0530  138.6740 C   0  0  0  0  0  0  0  0  0  0  0  0
  183.1550  177.9530  137.7060 C   0  0  0  0  0  0  0  0  0  0  0  0
  184.2170  177.3350  137.2900 N   0  0  0  0  0  0  0  0  0  0  0  0
  184.5970  179.2800  139.3590 C   0  0  1  0  0  3  0  0  0  0  0  0
  181.8570  177.5400  137.2690 N   0  0  0  0  0  0  0  0  0  0  0  0
  180.7910  178.2200  137.5740 C   0  0  0  0  0  3  0  0  0  0  0  0
  187.8210  177.7820  141.8510 N   0  0  0  0  0  2  0  0  0  0  0  0
  189.0340  176.9800  141.7960 C   0  0  0  0  0  2  0  0  0  0  0  0
  189.9630  177.5300  140.7260 C   0  0  0  0  0  2  0  0  0  0  0  0
  189.5840  176.9810  139.3510 C   0  0  2  0  0  3  0  0  0  0  0  0
  191.6250  176.4710  138.1630 C   0  0  0  0  0  1  0  0  0  0  0  0
  190.4930  175.9180  138.9050 N   0  0  0  0  0  2  0  0  0  0  0  0
  189.0560  179.1870  138.6280 O   0  0  0  0  0  0  0  0  0  0  0  0
  189.4090  178.0600  138.3150 C   0  0  0  0  0  3  0  0  0  0  0  0
  1  6  1  0  0  0  0
  1  5  1  0  0  0  0
  2  7  1  0  0  0  0
  3  1  2  0  0  0  0
  4  2  2  0  0  0  0
  4  3  1  0  0  0  0
  7  6  2  0  0  0  0
  9  8  2  0  0  0  0
  9 10  1  0  0  0  0
 10  4  1  0  0  0  0
 11 14  2  0  0  0  0
 12 13  1  0  0  0  0
 14 18  1  0  0  0  0
 15 13  2  0  0  0  0
 15 18  1  0  0  0  0
 16 15  1  0  0  0  0
 17 16  2  0  0  0  0
 17 11  1  0  0  0  0
 18  9  1  1  0  0  0
 19 20  2  0  0  0  0
 19 16  1  0  0  0  0
 20 12  1  0  0  0  0
 21  2  1  0  0  0  0
 22 21  1  0  0  0  0
 23 22  1  0  0  0  0
 24 28  1  6  0  0  0
 24 23  1  0  0  0  0
 25 26  1  0  0  0  0
 26 24  1  0  0  0  0
 28 27  2  0  0  0  0
M  END
>  <MODEL>
4

>  <REMARK>
 VINA RESULT:      -6.9      3.406      6.475
  Name = 
  8 active torsions:
  status: ('A' for Active; 'I' for Inactive)
    1  A    between atoms: C_1  and  C_10
    2  A    between atoms: C_1  and  N_16
    3  A    between atoms: C_6  and  N_16
    4  A    between atoms: C_10  and  CA_25
    5  A    between atoms: C_11  and  N_28
    6  A    between atoms: C_17  and  C_22
    7  A    between atoms: N_21  and  CA_25
    8  A    between atoms: C_24  and  CA_25
                            x       y       z     vdW  Elec       q    Type
                         _______ _______ _______ _____ _____    ______ ____

>  <TORSDO>
F 8

$$$$
=
 OpenBabel10222416553D

 28 30  0  0  1  0  0  0  0  0999 V2000
  184.9950  178.2330  146.2860 C   0  0  0  0  0  0  0  0  0  0  0  0
  186.6840  178.0080  144.0580 C   0  0  0  0  0  0  0  0  0  0  0  0
  186.3300  177.8620  146.4570 C   0  0  0  0  0  3  0  0  0  0  0  0
  187.1880  177.7710  145.3560 C   0  0  0  0  0  0  0  0  0  0  0  0
  184.1780  178.3360  147.3630 F   0  0  0  0  0  0  0  0  0  0  0  0
  184.5020  178.5030  145.0090 C   0  0  0  0  0  3  0  0  0  0  0  0
  185.3400  178.3850  143.9000 C   0  0  0  0  0  3  0  0  0  0  0  0
  188.8400  178.2180  147.7310 O   0  0  0  0  0  0  0  0  0  0  0  0
  189.3620  177.7930  146.6670 C   0  0  0  0  0  0  0  0  0  0  0  0
  188.5400  177.3510  145.5790 N   0  0  0  0  0  2  0  0  0  0  0  0
  191.9220  175.6230  147.0050 C   0  0  0  0  0  3  0  0  0  0  0  0
  191.4220  178.2460  142.7240 C   0  0  0  0  0  2  0  0  0  0  0  0
  191.0460  178.4740  144.1660 C   0  0  0  0  0  3  0  0  0  0  0  0
  191.4170  176.7480  147.4240 N   0  0  0  0  0  0  0  0  0  0  0  0
  191.2400  177.5400  145.1000 C   0  0  0  0  0  0  0  0  0  0  0  0
  191.7260  176.2110  144.7010 C   0  0  0  0  0  0  0  0  0  0  0  0
  192.0220  175.3290  145.6040 N   0  0  0  0  0  0  0  0  0  0  0  0
  190.8510  177.7730  146.5360 C   0  0  1  0  0  3  0  0  0  0  0  0
  191.8220  175.8860  143.3110 N   0  0  0  0  0  0  0  0  0  0  0  0
  191.6510  176.7900  142.3900 C   0  0  0  0  0  3  0  0  0  0  0  0
  187.5240  177.8250  142.9120 N   0  0  0  0  0  2  0  0  0  0  0  0
  187.3800  178.5660  141.6680 C   0  0  0  0  0  2  0  0  0  0  0  0
  188.5920  178.3200  140.7830 C   0  0  0  0  0  2  0  0  0  0  0  0
  188.1650  178.1350  139.3270 C   0  0  2  0  0  3  0  0  0  0  0  0
  189.4290  178.2450  137.2710 C   0  0  0  0  0  1  0  0  0  0  0  0
  188.9170  179.0010  138.4110 N   0  0  0  0  0  2  0  0  0  0  0  0
  186.2070  178.8160  138.1560 O   0  0  0  0  0  0  0  0  0  0  0  0
  186.6760  178.2470  139.1310 C   0  0  0  0  0  3  0  0  0  0  0  0
  1  3  1  0  0  0  0
  1  5  1  0  0  0  0
  2  4  1  0  0  0  0
  4 10  1  0  0  0  0
  4  3  2  0  0  0  0
  6  1  2  0  0  0  0
  7  2  2  0  0  0  0
  7  6  1  0  0  0  0
  9  8  2  0  0  0  0
 10  9  1  0  0  0  0
 11 14  2  0  0  0  0
 12 13  1  0  0  0  0
 13 15  2  0  0  0  0
 15 18  1  0  0  0  0
 16 15  1  0  0  0  0
 16 17  2  0  0  0  0
 17 11  1  0  0  0  0
 18  9  1  6  0  0  0
 18 14  1  0  0  0  0
 19 16  1  0  0  0  0
 20 12  1  0  0  0  0
 20 19  2  0  0  0  0
 21  2  1  0  0  0  0
 22 21  1  0  0  0  0
 23 22  1  0  0  0  0
 24 28  1  1  0  0  0
 24 23  1  0  0  0  0
 25 26  1  0  0  0  0
 26 24  1  0  0  0  0
 27 28  2  0  0  0  0
M  END
>  <MODEL>
5

>  <REMARK>
 VINA RESULT:      -6.8      2.936      5.743
  Name = 
  8 active torsions:
  status: ('A' for Active; 'I' for Inactive)
    1  A    between atoms: C_1  and  C_10
    2  A    between atoms: C_1  and  N_16
    3  A    between atoms: C_6  and  N_16
    4  A    between atoms: C_10  and  CA_25
    5  A    between atoms: C_11  and  N_28
    6  A    between atoms: C_17  and  C_22
    7  A    between atoms: N_21  and  CA_25
    8  A    between atoms: C_24  and  CA_25
                            x       y       z     vdW  Elec       q    Type
                         _______ _______ _______ _____ _____    ______ ____

>  <TORSDO>
F 8

$$$$
=
 OpenBabel10222416553D

 28 30  0  0  1  0  0  0  0  0999 V2000
  190.8380  176.7140  144.5300 C   0  0  0  0  0  0  0  0  0  0  0  0
  189.0340  177.4090  142.4980 C   0  0  0  0  0  0  0  0  0  0  0  0
  191.1250  176.3940  143.2020 C   0  0  0  0  0  3  0  0  0  0  0  0
  190.2460  176.7570  142.1770 C   0  0  0  0  0  0  0  0  0  0  0  0
  191.7070  176.3730  145.5120 F   0  0  0  0  0  0  0  0  0  0  0  0
  189.6580  177.3890  144.8470 C   0  0  0  0  0  3  0  0  0  0  0  0
  188.7570  177.7280  143.8360 C   0  0  0  0  0  3  0  0  0  0  0  0
  192.4080  177.7790  140.4880 O   0  0  0  0  0  0  0  0  0  0  0  0
  191.4950  177.0690  139.9890 C   0  0  0  0  0  0  0  0  0  0  0  0
  190.5690  176.3740  140.8340 N   0  0  0  0  0  2  0  0  0  0  0  0
  191.2040  174.7010  137.6040 C   0  0  0  0  0  3  0  0  0  0  0  0
  187.8570  178.4720  137.8000 C   0  0  0  0  0  2  0  0  0  0  0  0
  189.3030  178.3060  138.1950 C   0  0  0  0  0  3  0  0  0  0  0  0
  191.9280  175.6950  138.0360 N   0  0  0  0  0  0  0  0  0  0  0  0
  189.9290  177.1310  138.0940 C   0  0  0  0  0  0  0  0  0  0  0  0
  189.1660  175.9390  137.6970 C   0  0  0  0  0  0  0  0  0  0  0  0
  189.7780  174.8150  137.4900 N   0  0  0  0  0  0  0  0  0  0  0  0
  191.3700  176.9710  138.5020 C   0  0  1  0  0  3  0  0  0  0  0  0
  187.7420  176.0200  137.5890 N   0  0  0  0  0  0  0  0  0  0  0  0
  187.1190  177.1600  137.6700 C   0  0  0  0  0  3  0  0  0  0  0  0
  188.0780  177.7010  141.4710 N   0  0  0  0  0  2  0  0  0  0  0  0
  187.1310  178.8050  141.5270 C   0  0  0  0  0  2  0  0  0  0  0  0
  185.8670  178.3600  142.2450 C   0  0  0  0  0  2  0  0  0  0  0  0
  184.6330  178.9970  141.6070 C   0  0  2  0  0  3  0  0  0  0  0  0
  183.3610  178.9990  143.6610 C   0  0  0  0  0  1  0  0  0  0  0  0
  183.3880  178.5780  142.2620 N   0  0  0  0  0  2  0  0  0  0  0  0
  184.7950  179.7540  139.3560 O   0  0  0  0  0  0  0  0  0  0  0  0
  184.5850  178.8170  140.1130 C   0  0  0  0  0  3  0  0  0  0  0  0
  1  6  1  0  0  0  0
  1  5  1  0  0  0  0
  2  7  1  0  0  0  0
  3  1  2  0  0  0  0
  4  2  2  0  0  0  0
  4  3  1  0  0  0  0
  7  6  2  0  0  0  0
  9  8  2  0  0  0  0
  9 10  1  0  0  0  0
 10  4  1  0  0  0  0
 11 14  2  0  0  0  0
 12 13  1  0  0  0  0
 14 18  1  0  0  0  0
 15 13  2  0  0  0  0
 15 18  1  0  0  0  0
 16 15  1  0  0  0  0
 17 11  1  0  0  0  0
 17 16  2  0  0  0  0
 18  9  1  1  0  0  0
 19 20  2  0  0  0  0
 19 16  1  0  0  0  0
 20 12  1  0  0  0  0
 21 22  1  0  0  0  0
 21  2  1  0  0  0  0
 22 23  1  0  0  0  0
 24 28  1  6  0  0  0
 24 23  1  0  0  0  0
 24 26  1  0  0  0  0
 26 25  1  0  0  0  0
 27 28  2  0  0  0  0
M  END
>  <MODEL>
6

>  <REMARK>
 VINA RESULT:      -6.8      2.127      2.794
  Name = 
  8 active torsions:
  status: ('A' for Active; 'I' for Inactive)
    1  A    between atoms: C_1  and  C_10
    2  A    between atoms: C_1  and  N_16
    3  A    between atoms: C_6  and  N_16
    4  A    between atoms: C_10  and  CA_25
    5  A    between atoms: C_11  and  N_28
    6  A    between atoms: C_17  and  C_22
    7  A    between atoms: N_21  and  CA_25
    8  A    between atoms: C_24  and  CA_25
                            x       y       z     vdW  Elec       q    Type
                         _______ _______ _______ _____ _____    ______ ____

>  <TORSDO>
F 8

$$$$
=
 OpenBabel10222416553D

 28 30  0  0  1  0  0  0  0  0999 V2000
  190.3160  177.2460  137.5880 C   0  0  0  0  0  0  0  0  0  0  0  0
  188.0370  178.1230  138.9670 C   0  0  0  0  0  0  0  0  0  0  0  0
  190.0650  176.7900  138.8840 C   0  0  0  0  0  3  0  0  0  0  0  0
  188.9190  177.2010  139.5720 C   0  0  0  0  0  0  0  0  0  0  0  0
  191.4210  176.8270  136.9250 F   0  0  0  0  0  0  0  0  0  0  0  0
  189.4280  178.1300  136.9740 C   0  0  0  0  0  3  0  0  0  0  0  0
  188.2980  178.5720  137.6630 C   0  0  0  0  0  3  0  0  0  0  0  0
  190.2720  178.1070  142.0060 O   0  0  0  0  0  0  0  0  0  0  0  0
  189.5740  177.0590  142.0210 C   0  0  0  0  0  0  0  0  0  0  0  0
  188.7250  176.7330  140.9130 N   0  0  0  0  0  2  0  0  0  0  0  0
  191.6790  176.3400  144.5560 C   0  0  0  0  0  3  0  0  0  0  0  0
  186.8630  177.4630  145.5540 C   0  0  0  0  0  2  0  0  0  0  0  0
  187.5960  176.8500  144.3880 C   0  0  0  0  0  3  0  0  0  0  0  0
  191.0590  175.8570  143.5170 N   0  0  0  0  0  0  0  0  0  0  0  0
  188.9270  176.7430  144.3730 C   0  0  0  0  0  0  0  0  0  0  0  0
  189.7120  177.3380  145.4650 C   0  0  0  0  0  0  0  0  0  0  0  0
  190.9930  177.1510  145.5210 N   0  0  0  0  0  0  0  0  0  0  0  0
  189.6530  176.1410  143.1990 C   0  0  1  0  0  3  0  0  0  0  0  0
  189.0560  178.1630  146.4320 N   0  0  0  0  0  0  0  0  0  0  0  0
  187.7590  178.2650  146.4700 C   0  0  0  0  0  3  0  0  0  0  0  0
  186.9100  178.6290  139.6950 N   0  0  0  0  0  2  0  0  0  0  0  0
  185.5390  178.5850  139.2100 C   0  0  0  0  0  2  0  0  0  0  0  0
  184.6280  179.3160  140.1830 C   0  0  0  0  0  2  0  0  0  0  0  0
  184.0210  178.3380  141.1890 C   0  0  2  0  0  3  0  0  0  0  0  0
  181.8580  177.8370  140.2350 C   0  0  0  0  0  1  0  0  0  0  0  0
  182.5690  178.5060  141.3230 N   0  0  0  0  0  2  0  0  0  0  0  0
  184.1030  178.2620  143.5670 O   0  0  0  0  0  0  0  0  0  0  0  0
  184.7260  178.3490  142.5190 C   0  0  0  0  0  3  0  0  0  0  0  0
  1  3  1  0  0  0  0
  2  4  1  0  0  0  0
  2 21  1  0  0  0  0
  3  4  2  0  0  0  0
  4 10  1  0  0  0  0
  5  1  1  0  0  0  0
  6  1  2  0  0  0  0
  6  7  1  0  0  0  0
  7  2  2  0  0  0  0
  8  9  2  0  0  0  0
 10  9  1  0  0  0  0
 11 17  1  0  0  0  0
 12 20  1  0  0  0  0
 13 12  1  0  0  0  0
 14 11  2  0  0  0  0
 15 13  2  0  0  0  0
 15 16  1  0  0  0  0
 16 17  2  0  0  0  0
 16 19  1  0  0  0  0
 18  9  1  6  0  0  0
 18 14  1  0  0  0  0
 18 15  1  0  0  0  0
 19 20  2  0  0  0  0
 22 21  1  0  0  0  0
 22 23  1  0  0  0  0
 24 23  1  6  0  0  0
 24 26  1  0  0  0  0
 24 28  1  0  0  0  0
 25 26  1  0  0  0  0
 28 27  2  0  0  0  0
M  END
>  <MODEL>
7

>  <REMARK>
 VINA RESULT:      -6.5      2.639      5.976
  Name = 
  8 active torsions:
  status: ('A' for Active; 'I' for Inactive)
    1  A    between atoms: C_1  and  C_10
    2  A    between atoms: C_1  and  N_16
    3  A    between atoms: C_6  and  N_16
    4  A    between atoms: C_10  and  CA_25
    5  A    between atoms: C_11  and  N_28
    6  A    between atoms: C_17  and  C_22
    7  A    between atoms: N_21  and  CA_25
    8  A    between atoms: C_24  and  CA_25
                            x       y       z     vdW  Elec       q    Type
                         _______ _______ _______ _____ _____    ______ ____

>  <TORSDO>
F 8

$$$$
=
 OpenBabel10222416553D

 28 30  0  0  1  0  0  0  0  0999 V2000
  184.3490  178.9520  144.3710 C   0  0  0  0  0  0  0  0  0  0  0  0
  186.5700  178.1980  142.8330 C   0  0  0  0  0  0  0  0  0  0  0  0
  184.3960  179.2670  143.0120 C   0  0  0  0  0  3  0  0  0  0  0  0
  185.4860  178.8740  142.2290 C   0  0  0  0  0  0  0  0  0  0  0  0
  183.2790  179.3220  145.1160 F   0  0  0  0  0  0  0  0  0  0  0  0
  185.4010  178.2530  144.9640 C   0  0  0  0  0  3  0  0  0  0  0  0
  186.5090  177.8840  144.2000 C   0  0  0  0  0  3  0  0  0  0  0  0
  183.8120  177.8390  140.0620 O   0  0  0  0  0  0  0  0  0  0  0  0
  184.8180  178.5520  139.8010 C   0  0  0  0  0  0  0  0  0  0  0  0
  185.5040  179.2520  140.8470 N   0  0  0  0  0  2  0  0  0  0  0  0
  187.4820  177.6130  137.9580 C   0  0  0  0  0  3  0  0  0  0  0  0
  182.8320  176.3790  136.4350 C   0  0  0  0  0  2  0  0  0  0  0  0
  183.4270  177.5010  137.2490 C   0  0  0  0  0  3  0  0  0  0  0  0
  186.7750  178.6280  138.3690 N   0  0  0  0  0  0  0  0  0  0  0  0
  184.7230  177.5280  137.5680 C   0  0  0  0  0  0  0  0  0  0  0  0
  185.5760  176.3820  137.2180 C   0  0  0  0  0  0  0  0  0  0  0  0
  186.8550  176.4380  137.4240 N   0  0  0  0  0  0  0  0  0  0  0  0
  185.3060  178.6460  138.3910 C   0  0  1  0  0  3  0  0  0  0  0  0
  184.9760  175.1930  136.6970 N   0  0  0  0  0  0  0  0  0  0  0  0
  183.7180  175.1570  136.3670 C   0  0  0  0  0  3  0  0  0  0  0  0
  187.7360  177.8740  142.0670 N   0  0  0  0  0  2  0  0  0  0  0  0
  188.7340  176.8950  142.4720 C   0  0  0  0  0  2  0  0  0  0  0  0
  190.1150  177.5300  142.4450 C   0  0  0  0  0  2  0  0  0  0  0  0
  190.7990  177.3890  143.8040 C   0  0  2  0  0  3  0  0  0  0  0  0
  190.4900  177.1270  146.1860 C   0  0  0  0  0  1  0  0  0  0  0  0
  189.8520  177.0510  144.8730 N   0  0  0  0  0  2  0  0  0  0  0  0
  191.2700  179.7170  143.9680 O   0  0  0  0  0  0  0  0  0  0  0  0
  191.6600  178.5740  144.1540 C   0  0  0  0  0  3  0  0  0  0  0  0
  1  6  1  0  0  0  0
  1  5  1  0  0  0  0
  2  7  1  0  0  0  0
  3  1  2  0  0  0  0
  4  2  2  0  0  0  0
  4  3  1  0  0  0  0
  7  6  2  0  0  0  0
  9  8  2  0  0  0  0
  9 10  1  0  0  0  0
 10  4  1  0  0  0  0
 11 14  2  0  0  0  0
 12 13  1  0  0  0  0
 13 15  2  0  0  0  0
 14 18  1  0  0  0  0
 15 18  1  0  0  0  0
 16 17  2  0  0  0  0
 16 15  1  0  0  0  0
 17 11  1  0  0  0  0
 18  9  1  1  0  0  0
 19 16  1  0  0  0  0
 20 12  1  0  0  0  0
 20 19  2  0  0  0  0
 21 22  1  0  0  0  0
 21  2  1  0  0  0  0
 23 22  1  0  0  0  0
 24 23  1  6  0  0  0
 24 28  1  0  0  0  0
 24 26  1  0  0  0  0
 26 25  1  0  0  0  0
 27 28  2  0  0  0  0
M  END
>  <MODEL>
8

>  <REMARK>
 VINA RESULT:      -6.3      3.361      5.959
  Name = 
  8 active torsions:
  status: ('A' for Active; 'I' for Inactive)
    1  A    between atoms: C_1  and  C_10
    2  A    between atoms: C_1  and  N_16
    3  A    between atoms: C_6  and  N_16
    4  A    between atoms: C_10  and  CA_25
    5  A    between atoms: C_11  and  N_28
    6  A    between atoms: C_17  and  C_22
    7  A    between atoms: N_21  and  CA_25
    8  A    between atoms: C_24  and  CA_25
                            x       y       z     vdW  Elec       q    Type
                         _______ _______ _______ _____ _____    ______ ____

>  <TORSDO>
F 8

$$$$
=
 OpenBabel10222416553D

 28 30  0  0  1  0  0  0  0  0999 V2000
  190.7800  177.2850  139.6720 C   0  0  0  0  0  0  0  0  0  0  0  0
  188.2160  178.2740  140.2330 C   0  0  0  0  0  0  0  0  0  0  0  0
  190.1770  177.0040  140.8990 C   0  0  0  0  0  3  0  0  0  0  0  0
  188.8890  177.4700  141.1810 C   0  0  0  0  0  0  0  0  0  0  0  0
  192.0210  176.8120  139.4030 F   0  0  0  0  0  0  0  0  0  0  0  0
  190.1050  178.0490  138.7190 C   0  0  0  0  0  3  0  0  0  0  0  0
  188.8320  178.5460  139.0020 C   0  0  0  0  0  3  0  0  0  0  0  0
  189.7600  178.4820  143.7860 O   0  0  0  0  0  0  0  0  0  0  0  0
  188.9360  177.5320  143.7180 C   0  0  0  0  0  0  0  0  0  0  0  0
  188.3270  177.1850  142.4690 N   0  0  0  0  0  2  0  0  0  0  0  0
  190.0420  177.1960  146.8870 C   0  0  0  0  0  3  0  0  0  0  0  0
  185.1680  178.1840  146.0360 C   0  0  0  0  0  2  0  0  0  0  0  0
  186.2650  177.4850  145.2730 C   0  0  0  0  0  3  0  0  0  0  0  0
  189.8230  176.5740  145.7630 N   0  0  0  0  0  0  0  0  0  0  0  0
  187.5200  177.4430  145.7270 C   0  0  0  0  0  0  0  0  0  0  0  0
  187.8730  178.1900  146.9430 C   0  0  0  0  0  0  0  0  0  0  0  0
  189.0580  178.0730  147.4560 N   0  0  0  0  0  0  0  0  0  0  0  0
  188.6110  176.7520  144.9520 C   0  0  1  0  0  3  0  0  0  0  0  0
  186.9160  179.0810  147.5220 N   0  0  0  0  0  0  0  0  0  0  0  0
  185.6860  179.1230  147.1020 C   0  0  0  0  0  3  0  0  0  0  0  0
  186.9370  178.8400  140.5450 N   0  0  0  0  0  2  0  0  0  0  0  0
  185.6890  178.4280  139.9210 C   0  0  0  0  0  2  0  0  0  0  0  0
  184.5150  178.9010  140.7630 C   0  0  0  0  0  2  0  0  0  0  0  0
  183.2120  178.8100  139.9700 C   0  0  2  0  0  3  0  0  0  0  0  0
  182.3250  178.7440  142.2160 C   0  0  0  0  0  1  0  0  0  0  0  0
  182.0290  179.0230  140.8120 N   0  0  0  0  0  2  0  0  0  0  0  0
  182.9340  176.4640  139.6730 O   0  0  0  0  0  0  0  0  0  0  0  0
  183.1110  177.5530  139.1470 C   0  0  0  0  0  3  0  0  0  0  0  0
  1  3  1  0  0  0  0
  2 21  1  0  0  0  0
  2  4  1  0  0  0  0
  3  4  2  0  0  0  0
  4 10  1  0  0  0  0
  5  1  1  0  0  0  0
  6  7  1  0  0  0  0
  6  1  2  0  0  0  0
  7  2  2  0  0  0  0
  9  8  2  0  0  0  0
 10  9  1  0  0  0  0
 11 17  1  0  0  0  0
 12 20  1  0  0  0  0
 13 15  2  0  0  0  0
 13 12  1  0  0  0  0
 14 11  2  0  0  0  0
 15 16  1  0  0  0  0
 16 17  2  0  0  0  0
 16 19  1  0  0  0  0
 18  9  1  6  0  0  0
 18 15  1  0  0  0  0
 18 14  1  0  0  0  0
 20 19  2  0  0  0  0
 22 21  1  0  0  0  0
 22 23  1  0  0  0  0
 24 28  1  1  0  0  0
 24 23  1  0  0  0  0
 24 26  1  0  0  0  0
 26 25  1  0  0  0  0
 28 27  2  0  0  0  0
M  END
>  <MODEL>
9

>  <REMARK>
 VINA RESULT:      -6.2      2.835      6.266
  Name = 
  8 active torsions:
  status: ('A' for Active; 'I' for Inactive)
    1  A    between atoms: C_1  and  C_10
    2  A    between atoms: C_1  and  N_16
    3  A    between atoms: C_6  and  N_16
    4  A    between atoms: C_10  and  CA_25
    5  A    between atoms: C_11  and  N_28
    6  A    between atoms: C_17  and  C_22
    7  A    between atoms: N_21  and  CA_25
    8  A    between atoms: C_24  and  CA_25
                            x       y       z     vdW  Elec       q    Type
                         _______ _______ _______ _____ _____    ______ ____

>  <TORSDO>
F 8

$$$$
