=
 OpenBabel10222418373D

 66 74  0  0  1  0  0  0  0  0999 V2000
  188.1310  177.4080  140.7230 C   0  0  1  0  0  3  0  0  0  0  0  0
  189.4500  177.3240  140.7890 C   0  0  0  0  0  0  0  0  0  0  0  0
  188.7950  177.9350  142.8750 N   0  0  0  0  0  0  0  0  0  0  0  0
  189.8300  177.6660  142.1450 C   0  0  0  0  0  0  0  0  0  0  0  0
  187.3610  177.1820  139.5880 O   0  0  0  0  0  1  0  0  0  0  0  0
  187.5860  177.7640  142.0730 C   0  0  1  0  0  3  0  0  0  0  0  0
  187.1870  180.0520  141.5680 O   0  0  0  0  0  0  0  0  0  0  0  0
  186.7400  179.0180  142.0380 C   0  0  0  0  0  0  0  0  0  0  0  0
  185.3350  179.0080  142.5750 C   0  0  0  0  0  2  0  0  0  0  0  0
  185.3300  179.3950  144.0510 C   0  0  2  0  0  3  0  0  0  0  0  0
  184.9580  178.1710  144.8700 C   0  0  0  0  0  2  0  0  0  0  0  0
  183.9720  179.3140  144.7630 C   0  0  2  0  0  3  0  0  0  0  0  0
  181.9050  179.7350  143.6960 N   0  0  0  0  0  0  0  0  0  0  0  0
  182.8840  178.9350  143.8740 N   0  0  0  0  0  0  0  0  0  0  0  0
  179.1180  181.4000  140.2340 C   0  0  0  0  0  3  0  0  0  0  0  0
  181.0100  179.9600  140.1120 N   0  0  0  0  0  0  0  0  0  0  0  0
  179.9660  180.3430  142.2670 N   0  0  0  0  0  2  0  0  0  0  0  0
  180.2420  181.0270  138.1220 C   0  0  0  0  0  3  0  0  0  0  0  0
  180.7740  179.3530  142.9070 C   0  0  0  0  0  0  0  0  0  0  0  0
  180.0310  180.5460  140.8500 C   0  0  0  0  0  0  0  0  0  0  0  0
  180.5580  178.1350  142.6890 O   0  0  0  0  0  0  0  0  0  0  0  0
  179.2240  181.6360  138.8590 C   0  0  0  0  0  3  0  0  0  0  0  0
  181.1380  180.1770  138.7690 C   0  0  0  0  0  0  0  0  0  0  0  0
  181.1620  176.7320  138.4390 C   0  0  0  0  0  3  0  0  0  0  0  0
  183.7150  177.7390  139.0210 C   0  0  1  0  0  3  0  0  0  0  0  0
  181.8450  178.5870  136.9730 N   0  0  0  0  0  2  0  0  0  0  0  0
  182.8280  177.1640  140.1410 C   0  0  0  0  0  2  0  0  0  0  0  0
  183.5040  177.0180  137.7710 N   0  0  0  0  0  2  0  0  0  0  0  0
  183.5220  179.2370  138.8080 C   0  0  0  0  0  2  0  0  0  0  0  0
  182.2720  179.5810  137.9810 C   0  0  2  0  0  3  0  0  0  0  0  0
  181.5080  176.7620  139.6800 N   0  0  0  0  0  0  0  0  0  0  0  0
  182.1070  177.1930  137.3580 C   0  0  1  0  0  3  0  0  0  0  0  0
  190.3550  176.9950  139.7220 N   0  0  0  0  0  0  0  0  0  0  0  0
  190.0210  173.9630  137.5920 C   0  0  0  0  0  2  0  0  0  0  0  0
  189.8840  177.5140  137.3910 C   0  0  0  0  0  2  0  0  0  0  0  0
  190.8090  175.1730  138.1110 C   0  0  2  0  0  3  0  0  0  0  0  0
  189.9420  176.4090  138.4540 C   0  0  1  0  0  3  0  0  0  0  0  0
  189.3270  177.0850  136.0670 C   0  0  0  0  0  0  0  0  0  0  0  0
  189.1730  174.2810  136.3710 C   0  0  0  0  0  2  0  0  0  0  0  0
  189.8730  177.4910  135.0500 O   0  0  0  0  0  0  0  0  0  0  0  0
  188.0810  175.0770  136.7450 O   0  0  0  0  0  0  0  0  0  0  0  0
  188.0650  176.2500  135.9550 C   0  0  2  0  0  3  0  0  0  0  0  0
  193.9710  173.9780  134.6450 O   0  0  0  0  0  0  0  0  0  0  0  0
  192.1070  175.4040  137.3790 C   0  0  0  0  0  0  0  0  0  0  0  0
  193.9810  174.6310  135.8990 C   0  0  1  0  0  0  0  0  0  0  0  0
  194.6780  171.7250  135.0180 C   0  0  0  0  0  2  0  0  0  0  0  0
  192.6200  174.4710  136.5610 C   0  0  0  0  0  3  0  0  0  0  0  0
  193.9240  176.9570  136.8830 C   0  0  0  0  0  3  0  0  0  0  0  0
  192.8790  176.6290  137.6520 C   0  0  0  0  0  3  0  0  0  0  0  0
  194.7040  172.7070  137.4240 C   0  0  0  0  0  2  0  0  0  0  0  0
  194.7730  171.4500  136.5340 C   0  0  0  0  0  2  0  0  0  0  0  0
  195.1280  174.0230  136.7250 C   0  0  1  0  0  3  0  0  0  0  0  0
  196.0930  173.6880  135.6300 C   0  0  0  0  0  2  0  0  0  0  0  0
  194.2570  176.1330  135.6650 C   0  0  0  0  0  2  0  0  0  0  0  0
  195.1080  173.1460  134.6140 C   0  0  2  0  0  3  0  0  0  0  0  0
  187.7560  175.9610  134.6220 O   0  0  0  0  0  0  0  0  0  0  0  0
  186.3670  175.8410  134.5950 C   0  0  0  0  0  1  0  0  0  0  0  0
  191.2320  177.7940  142.6480 C   0  0  0  0  0  2  0  0  0  0  0  0
  191.2530  178.0210  144.0900 N   0  0  0  0  0  2  0  0  0  0  0  0
  191.7210  176.7970  144.7210 C   0  0  2  0  0  3  0  0  0  0  0  0
  191.6580  175.6520  143.7300 C   0  0  0  0  0  2  0  0  0  0  0  0
  192.2930  174.5320  144.2820 O   0  0  0  0  0  1  0  0  0  0  0  0
  190.8870  176.4770  145.9530 C   0  0  0  0  0  2  0  0  0  0  0  0
  191.7400  176.4790  147.1830 C   0  0  0  0  0  0  0  0  0  0  0  0
  191.5880  177.3690  148.0630 O   0  0  0  0  0  1  0  0  0  0  0  0
  192.6970  175.4850  147.3530 O   0  0  0  0  0  0  0  0  0  0  0  0
  1  5  1  1  0  0  0
  1  2  1  0  0  0  0
  1  6  1  0  0  0  0
  2  4  1  0  0  0  0
  4 58  1  0  0  0  0
  4  3  2  0  0  0  0
  6  8  1  6  0  0  0
  6  3  1  0  0  0  0
  7  8  2  0  0  0  0
  8  9  1  0  0  0  0
 10  9  1  6  0  0  0
 10 12  1  0  0  0  0
 10 11  1  0  0  0  0
 12 14  1  6  0  0  0
 12 11  1  0  0  0  0
 13 14  2  0  0  0  0
 15 20  1  0  0  0  0
 16 20  2  0  0  0  0
 17 19  1  0  0  0  0
 18 23  2  0  0  0  0
 18 22  1  0  0  0  0
 19 13  1  0  0  0  0
 20 17  1  0  0  0  0
 21 19  2  0  0  0  0
 22 15  2  0  0  0  0
 23 16  1  0  0  0  0
 24 31  2  0  0  0  0
 25 29  1  6  0  0  0
 25 27  1  0  0  0  0
 26 32  1  0  0  0  0
 26 30  1  0  0  0  0
 28 25  1  0  0  0  0
 30 23  1  1  0  0  0
 30 29  1  0  0  0  0
 31 27  1  0  0  0  0
 32 28  1  0  0  0  0
 32 24  1  1  0  0  0
 33  2  2  0  0  0  0
 34 36  1  0  0  0  0
 35 37  1  0  0  0  0
 36 44  1  6  0  0  0
 36 37  1  0  0  0  0
 37 33  1  1  0  0  0
 38 35  1  0  0  0  0
 39 41  1  0  0  0  0
 39 34  1  0  0  0  0
 40 38  2  0  0  0  0
 42 56  1  6  0  0  0
 42 38  1  0  0  0  0
 42 41  1  0  0  0  0
 43 45  1  0  0  0  0
 44 49  1  0  0  0  0
 45 54  1  6  0  0  0
 45 47  1  0  0  0  0
 45 52  1  0  0  0  0
 46 51  1  0  0  0  0
 47 44  2  0  0  0  0
 48 49  2  0  0  0  0
 51 50  1  0  0  0  0
 52 53  1  6  0  0  0
 52 50  1  0  0  0  0
 54 48  1  0  0  0  0
 55 43  1  0  0  0  0
 55 46  1  1  0  0  0
 55 53  1  0  0  0  0
 57 56  1  0  0  0  0
 58 59  1  0  0  0  0
 59 60  1  0  0  0  0
 60 61  1  6  0  0  0
 60 63  1  0  0  0  0
 61 62  1  0  0  0  0
 63 64  1  0  0  0  0
 64 66  2  0  0  0  0
 64 65  1  0  0  0  0
M  END
>  <MODEL>
1

>  <REMARK>
 VINA RESULT:      -6.9      0.000      0.000
  Name = 
  16 active torsions:
  status: ('A' for Active; 'I' for Inactive)
    1  A    between atoms: CA_3  and  C_12
    2  A    between atoms: CA_3  and  CB_35
    3  A    between atoms: CA_3  and  N_49
    4  A    between atoms: C_7  and  C_11
    5  A    between atoms: C_7  and  C_20
    6  A    between atoms: C_8  and  N_49
    7  A    between atoms: C_8  and  C_51
    8  A    between atoms: O_13  and  C_60
    9  A    between atoms: C_16  and  C_17
   10  A    between atoms: C_18  and  N_52
   11  A    between atoms: C_20  and  C_66
   12  A    between atoms: C_21  and  N_41
   13  A    between atoms: CG_24  and  CB_35
   14  A    between atoms: C_42  and  N_52
   15  A    between atoms: C_48  and  N_50
   16  A    between atoms: C_61  and  C_63
                            x       y       z     vdW  Elec       q    Type
                         _______ _______ _______ _____ _____    ______ ____

>  <TORSDO>
F 16

$$$$
=
 OpenBabel10222418373D

 66 74  0  0  1  0  0  0  0  0999 V2000
  185.3580  177.8230  138.3500 C   0  0  0  0  0  0  0  0  0  0  0  0
  184.5640  177.9860  139.3970 C   0  0  0  0  0  0  0  0  0  0  0  0
  186.4840  179.0700  139.9400 N   0  0  0  0  0  0  0  0  0  0  0  0
  185.3020  178.7630  140.3720 C   0  0  0  0  0  0  0  0  0  0  0  0
  185.0430  177.1120  137.1970 O   0  0  0  0  0  1  0  0  0  0  0  0
  186.6490  178.5460  138.5860 C   0  0  1  0  0  3  0  0  0  0  0  0
  187.7240  176.5020  138.0220 O   0  0  0  0  0  0  0  0  0  0  0  0
  187.8480  177.6320  138.4690 C   0  0  0  0  0  0  0  0  0  0  0  0
  189.2130  178.1010  138.8950 C   0  0  0  0  0  2  0  0  0  0  0  0
  189.6430  177.3860  140.1720 C   0  0  2  0  0  3  0  0  0  0  0  0
  191.1340  177.6050  140.3690 C   0  0  0  0  0  2  0  0  0  0  0  0
  190.6340  176.2270  139.9940 C   0  0  2  0  0  3  0  0  0  0  0  0
  191.9320  175.1950  138.3090 N   0  0  0  0  0  0  0  0  0  0  0  0
  190.9510  175.9580  138.5990 N   0  0  0  0  0  0  0  0  0  0  0  0
  194.8770  176.9790  135.0420 C   0  0  0  0  0  3  0  0  0  0  0  0
  195.1640  175.1230  136.5060 N   0  0  0  0  0  0  0  0  0  0  0  0
  192.9400  176.0450  136.2040 N   0  0  0  0  0  2  0  0  0  0  0  0
  197.0790  176.0540  135.4330 C   0  0  0  0  0  3  0  0  0  0  0  0
  192.3310  174.9890  136.9510 C   0  0  0  0  0  0  0  0  0  0  0  0
  194.3420  176.0260  135.9070 C   0  0  0  0  0  0  0  0  0  0  0  0
  192.2430  173.8410  136.4490 O   0  0  0  0  0  0  0  0  0  0  0  0
  196.2540  176.9870  134.8020 C   0  0  0  0  0  3  0  0  0  0  0  0
  196.5130  175.1130  136.2920 C   0  0  0  0  0  0  0  0  0  0  0  0
  197.0620  172.0410  134.7940 C   0  0  0  0  0  3  0  0  0  0  0  0
  196.6030  171.7870  137.5510 C   0  0  1  0  0  3  0  0  0  0  0  0
  198.4530  173.5400  136.1650 N   0  0  0  0  0  2  0  0  0  0  0  0
  195.4610  171.5560  136.5430 C   0  0  0  0  0  2  0  0  0  0  0  0
  197.8780  171.3430  136.9980 N   0  0  0  0  0  2  0  0  0  0  0  0
  196.7060  173.2340  138.0250 C   0  0  0  0  0  2  0  0  0  0  0  0
  197.4170  174.1570  137.0210 C   0  0  2  0  0  3  0  0  0  0  0  0
  195.8490  171.8080  135.1640 N   0  0  0  0  0  0  0  0  0  0  0  0
  198.1770  172.1420  135.8050 C   0  0  1  0  0  3  0  0  0  0  0  0
  183.2350  177.4670  139.5690 N   0  0  0  0  0  2  0  0  0  0  0  0
  179.5800  177.9820  140.0320 C   0  0  0  0  0  2  0  0  0  0  0  0
  182.2260  178.7940  137.7960 C   0  0  0  0  0  2  0  0  0  0  0  0
  180.7760  177.2860  139.3690 C   0  0  2  0  0  3  0  0  0  0  0  0
  182.0250  178.1830  139.1880 C   0  0  1  0  0  3  0  0  0  0  0  0
  181.1160  179.6900  137.3350 C   0  0  0  0  0  0  0  0  0  0  0  0
  179.1390  179.2400  139.3010 C   0  0  0  0  0  2  0  0  0  0  0  0
  180.7510  179.6060  136.1700 O   0  0  0  0  0  0  0  0  0  0  0  0
  180.0850  180.2570  139.4920 O   0  0  0  0  0  0  0  0  0  0  0  0
  180.5060  180.7470  138.2350 C   0  0  2  0  0  3  0  0  0  0  0  0
  180.7550  172.9320  137.2510 O   0  0  0  0  0  0  0  0  0  0  0  0
  180.3870  176.3810  138.2270 C   0  0  0  0  0  0  0  0  0  0  0  0
  180.6650  174.2910  136.8660 C   0  0  1  0  0  0  0  0  0  0  0  0
  183.0220  172.2530  136.9090 C   0  0  0  0  0  2  0  0  0  0  0  0
  180.9560  175.1750  138.0710 C   0  0  0  0  0  3  0  0  0  0  0  0
  178.9360  176.0400  136.2940 C   0  0  0  0  0  3  0  0  0  0  0  0
  179.4500  176.8770  137.2030 C   0  0  0  0  0  3  0  0  0  0  0  0
  183.0970  174.7570  136.2150 C   0  0  0  0  0  2  0  0  0  0  0  0
  183.8900  173.4810  136.5600 C   0  0  0  0  0  2  0  0  0  0  0  0
  181.6540  174.5070  135.7070 C   0  0  1  0  0  3  0  0  0  0  0  0
  181.6060  173.1560  135.0630 C   0  0  0  0  0  2  0  0  0  0  0  0
  179.2270  174.5630  136.3730 C   0  0  0  0  0  2  0  0  0  0  0  0
  181.6040  172.3040  136.3160 C   0  0  2  0  0  3  0  0  0  0  0  0
  179.4770  181.4410  137.5900 O   0  0  0  0  0  0  0  0  0  0  0  0
  179.9600  182.7400  137.4400 C   0  0  0  0  0  1  0  0  0  0  0  0
  184.8280  179.1050  141.7480 C   0  0  0  0  0  2  0  0  0  0  0  0
  184.6820  177.9050  142.5660 N   0  0  0  0  0  2  0  0  0  0  0  0
  184.3540  178.3310  143.9170 C   0  0  2  0  0  3  0  0  0  0  0  0
  183.2390  179.3570  143.8750 C   0  0  0  0  0  2  0  0  0  0  0  0
  182.0180  178.7190  144.1250 O   0  0  0  0  0  1  0  0  0  0  0  0
  185.5800  178.9090  144.6080 C   0  0  0  0  0  2  0  0  0  0  0  0
  185.6730  178.4140  146.0180 C   0  0  0  0  0  0  0  0  0  0  0  0
  186.7590  177.9470  146.4590 O   0  0  0  0  0  0  0  0  0  0  0  0
  184.5560  178.4830  146.8430 O   0  0  0  0  0  1  0  0  0  0  0  0
  1  6  1  0  0  0  0
  1  2  2  0  0  0  0
  2 33  1  0  0  0  0
  2  4  1  0  0  0  0
  3  4  2  0  0  0  0
  4 58  1  0  0  0  0
  5  1  1  0  0  0  0
  6  8  1  1  0  0  0
  6  3  1  0  0  0  0
  7  8  2  0  0  0  0
  8  9  1  0  0  0  0
 10  9  1  6  0  0  0
 10 11  1  0  0  0  0
 12 14  1  6  0  0  0
 12 10  1  0  0  0  0
 12 11  1  0  0  0  0
 13 14  2  0  0  0  0
 15 20  1  0  0  0  0
 17 19  1  0  0  0  0
 18 23  2  0  0  0  0
 19 13  1  0  0  0  0
 20 17  1  0  0  0  0
 20 16  2  0  0  0  0
 21 19  2  0  0  0  0
 22 15  2  0  0  0  0
 22 18  1  0  0  0  0
 23 16  1  0  0  0  0
 24 31  2  0  0  0  0
 25 27  1  6  0  0  0
 25 29  1  0  0  0  0
 26 30  1  0  0  0  0
 28 25  1  0  0  0  0
 30 23  1  6  0  0  0
 30 29  1  0  0  0  0
 31 27  1  0  0  0  0
 32 24  1  6  0  0  0
 32 26  1  0  0  0  0
 32 28  1  0  0  0  0
 35 37  1  0  0  0  0
 36 44  1  6  0  0  0
 36 34  1  0  0  0  0
 37 36  1  0  0  0  0
 37 33  1  6  0  0  0
 38 35  1  0  0  0  0
 38 42  1  0  0  0  0
 39 41  1  0  0  0  0
 39 34  1  0  0  0  0
 40 38  2  0  0  0  0
 42 56  1  6  0  0  0
 42 41  1  0  0  0  0
 45 54  1  6  0  0  0
 45 43  1  0  0  0  0
 45 47  1  0  0  0  0
 47 44  2  0  0  0  0
 48 54  1  0  0  0  0
 48 49  2  0  0  0  0
 49 44  1  0  0  0  0
 50 51  1  0  0  0  0
 51 46  1  0  0  0  0
 52 53  1  6  0  0  0
 52 50  1  0  0  0  0
 52 45  1  0  0  0  0
 55 53  1  6  0  0  0
 55 46  1  0  0  0  0
 55 43  1  0  0  0  0
 57 56  1  0  0  0  0
 58 59  1  0  0  0  0
 59 60  1  0  0  0  0
 60 61  1  6  0  0  0
 60 63  1  0  0  0  0
 61 62  1  0  0  0  0
 63 64  1  0  0  0  0
 64 65  2  0  0  0  0
 64 66  1  0  0  0  0
M  END
>  <MODEL>
2

>  <REMARK>
 VINA RESULT:      -6.7      3.568     11.698
  Name = 
  16 active torsions:
  status: ('A' for Active; 'I' for Inactive)
    1  A    between atoms: CA_3  and  C_12
    2  A    between atoms: CA_3  and  CB_35
    3  A    between atoms: CA_3  and  N_49
    4  A    between atoms: C_7  and  C_11
    5  A    between atoms: C_7  and  C_20
    6  A    between atoms: C_8  and  N_49
    7  A    between atoms: C_8  and  C_51
    8  A    between atoms: O_13  and  C_60
    9  A    between atoms: C_16  and  C_17
   10  A    between atoms: C_18  and  N_52
   11  A    between atoms: C_20  and  C_66
   12  A    between atoms: C_21  and  N_41
   13  A    between atoms: CG_24  and  CB_35
   14  A    between atoms: C_42  and  N_52
   15  A    between atoms: C_48  and  N_50
   16  A    between atoms: C_61  and  C_63
                            x       y       z     vdW  Elec       q    Type
                         _______ _______ _______ _____ _____    ______ ____

>  <TORSDO>
F 16

$$$$
=
 OpenBabel10222418373D

 66 74  0  0  1  0  0  0  0  0999 V2000
  185.4990  178.3770  138.0130 C   0  0  0  0  0  0  0  0  0  0  0  0
  184.7810  178.6060  139.1010 C   0  0  0  0  0  0  0  0  0  0  0  0
  186.9380  178.5830  139.8110 N   0  0  0  0  0  0  0  0  0  0  0  0
  185.7120  178.7220  140.2060 C   0  0  0  0  0  0  0  0  0  0  0  0
  184.9890  178.1780  136.7340 O   0  0  0  0  0  1  0  0  0  0  0  0
  186.9550  178.3880  138.3630 C   0  0  1  0  0  3  0  0  0  0  0  0
  187.0600  176.0370  138.0280 O   0  0  0  0  0  0  0  0  0  0  0  0
  187.6500  177.1040  137.9670 C   0  0  0  0  0  0  0  0  0  0  0  0
  189.0760  177.1220  137.4870 C   0  0  0  0  0  2  0  0  0  0  0  0
  189.1220  177.3050  135.9730 C   0  0  2  0  0  3  0  0  0  0  0  0
  188.3510  176.1680  135.3250 C   0  0  0  0  0  2  0  0  0  0  0  0
  189.8570  176.2120  135.1850 C   0  0  2  0  0  3  0  0  0  0  0  0
  191.6760  174.8680  135.8750 N   0  0  0  0  0  0  0  0  0  0  0  0
  190.4540  175.1960  136.0400 N   0  0  0  0  0  0  0  0  0  0  0  0
  193.5610  170.5520  135.2850 C   0  0  0  0  0  3  0  0  0  0  0  0
  194.6280  172.6740  135.4610 N   0  0  0  0  0  0  0  0  0  0  0  0
  192.2990  172.4750  136.1110 N   0  0  0  0  0  2  0  0  0  0  0  0
  195.8640  170.8290  134.5940 C   0  0  0  0  0  3  0  0  0  0  0  0
  192.2640  173.8060  136.6310 C   0  0  0  0  0  0  0  0  0  0  0  0
  193.5220  171.9010  135.6330 C   0  0  0  0  0  0  0  0  0  0  0  0
  192.8490  174.0690  137.7120 O   0  0  0  0  0  0  0  0  0  0  0  0
  194.7430  170.0140  134.7670 C   0  0  0  0  0  3  0  0  0  0  0  0
  195.7930  172.1730  134.9530 C   0  0  0  0  0  0  0  0  0  0  0  0
  197.6980  173.0510  137.7060 C   0  0  0  0  0  3  0  0  0  0  0  0
  197.2510  175.2410  136.0100 C   0  0  1  0  0  3  0  0  0  0  0  0
  198.2270  172.5920  135.3460 N   0  0  0  0  0  2  0  0  0  0  0  0
  196.3770  175.0290  137.2600 C   0  0  0  0  0  2  0  0  0  0  0  0
  198.6190  174.7990  136.2540 N   0  0  0  0  0  2  0  0  0  0  0  0
  196.6900  174.5670  134.7610 C   0  0  0  0  0  2  0  0  0  0  0  0
  196.9830  173.0580  134.6970 C   0  0  2  0  0  3  0  0  0  0  0  0
  196.6900  173.8050  137.9810 N   0  0  0  0  0  0  0  0  0  0  0  0
  198.6050  173.3600  136.5410 C   0  0  1  0  0  3  0  0  0  0  0  0
  183.3500  178.6890  139.1980 N   0  0  0  0  0  2  0  0  0  0  0  0
  182.3060  175.9500  136.9070 C   0  0  0  0  0  2  0  0  0  0  0  0
  181.1740  177.7530  139.7580 C   0  0  0  0  0  2  0  0  0  0  0  0
  182.2460  177.4030  137.3960 C   0  0  2  0  0  3  0  0  0  0  0  0
  182.4480  177.5800  138.9210 C   0  0  1  0  0  3  0  0  0  0  0  0
  180.2150  176.6040  139.6900 C   0  0  0  0  0  0  0  0  0  0  0  0
  181.3120  175.0400  137.6090 C   0  0  0  0  0  2  0  0  0  0  0  0
  179.0190  176.8520  139.6100 O   0  0  0  0  0  0  0  0  0  0  0  0
  181.7220  174.8180  138.9310 O   0  0  0  0  0  0  0  0  0  0  0  0
  180.6710  175.1630  139.8130 C   0  0  2  0  0  3  0  0  0  0  0  0
  180.7930  181.3940  135.0710 O   0  0  0  0  0  0  0  0  0  0  0  0
  181.1650  178.2170  136.7300 C   0  0  0  0  0  0  0  0  0  0  0  0
  180.2290  180.3900  135.8930 C   0  0  1  0  0  0  0  0  0  0  0  0
  181.2350  183.2810  136.4710 C   0  0  0  0  0  2  0  0  0  0  0  0
  181.3420  179.5200  136.4600 C   0  0  0  0  0  3  0  0  0  0  0  0
  178.9460  178.2210  135.7120 C   0  0  0  0  0  3  0  0  0  0  0  0
  179.8530  177.5970  136.4730 C   0  0  0  0  0  3  0  0  0  0  0  0
  180.2820  181.5600  138.1680 C   0  0  0  0  0  2  0  0  0  0  0  0
  181.0090  182.9020  137.9490 C   0  0  0  0  0  2  0  0  0  0  0  0
  179.4010  181.0960  136.9810 C   0  0  1  0  0  3  0  0  0  0  0  0
  178.9510  182.3080  136.2240 C   0  0  0  0  0  2  0  0  0  0  0  0
  179.2970  179.5160  135.0240 C   0  0  0  0  0  2  0  0  0  0  0  0
  180.2430  182.6200  135.4990 C   0  0  2  0  0  3  0  0  0  0  0  0
  179.6000  174.2710  139.6990 O   0  0  0  0  0  0  0  0  0  0  0  0
  179.3880  173.7990  140.9940 C   0  0  0  0  0  1  0  0  0  0  0  0
  185.3370  178.8890  141.6430 C   0  0  0  0  0  2  0  0  0  0  0  0
  186.3610  178.3270  142.5200 N   0  0  0  0  0  2  0  0  0  0  0  0
  185.6990  177.8730  143.7330 C   0  0  2  0  0  3  0  0  0  0  0  0
  185.1460  179.0620  144.4920 C   0  0  0  0  0  2  0  0  0  0  0  0
  185.4940  178.9450  145.8440 O   0  0  0  0  0  1  0  0  0  0  0  0
  186.6660  177.0890  144.6080 C   0  0  0  0  0  2  0  0  0  0  0  0
  187.9920  176.9440  143.9300 C   0  0  0  0  0  0  0  0  0  0  0  0
  188.2670  175.8960  143.2850 O   0  0  0  0  0  0  0  0  0  0  0  0
  188.9170  177.9790  144.0080 O   0  0  0  0  0  1  0  0  0  0  0  0
  1  6  1  0  0  0  0
  1  2  2  0  0  0  0
  2 33  1  0  0  0  0
  2  4  1  0  0  0  0
  3  4  2  0  0  0  0
  4 58  1  0  0  0  0
  5  1  1  0  0  0  0
  6  8  1  1  0  0  0
  6  3  1  0  0  0  0
  8  7  2  0  0  0  0
  9  8  1  0  0  0  0
 10  9  1  1  0  0  0
 11 10  1  0  0  0  0
 12 11  1  0  0  0  0
 12 10  1  0  0  0  0
 12 14  1  1  0  0  0
 13 14  2  0  0  0  0
 13 19  1  0  0  0  0
 15 20  1  0  0  0  0
 16 20  2  0  0  0  0
 17 19  1  0  0  0  0
 18 22  1  0  0  0  0
 18 23  2  0  0  0  0
 19 21  2  0  0  0  0
 20 17  1  0  0  0  0
 22 15  2  0  0  0  0
 23 16  1  0  0  0  0
 24 31  2  0  0  0  0
 25 29  1  6  0  0  0
 25 28  1  0  0  0  0
 25 27  1  0  0  0  0
 26 32  1  0  0  0  0
 27 31  1  0  0  0  0
 28 32  1  0  0  0  0
 30 29  1  0  0  0  0
 30 23  1  1  0  0  0
 30 26  1  0  0  0  0
 32 24  1  1  0  0  0
 34 36  1  0  0  0  0
 34 39  1  0  0  0  0
 36 44  1  1  0  0  0
 36 37  1  0  0  0  0
 37 33  1  6  0  0  0
 37 35  1  0  0  0  0
 38 35  1  0  0  0  0
 38 42  1  0  0  0  0
 39 41  1  0  0  0  0
 40 38  2  0  0  0  0
 41 42  1  0  0  0  0
 42 56  1  6  0  0  0
 43 55  1  0  0  0  0
 43 45  1  0  0  0  0
 45 54  1  6  0  0  0
 45 47  1  0  0  0  0
 45 52  1  0  0  0  0
 46 51  1  0  0  0  0
 47 44  2  0  0  0  0
 48 49  2  0  0  0  0
 49 44  1  0  0  0  0
 51 50  1  0  0  0  0
 52 53  1  6  0  0  0
 52 50  1  0  0  0  0
 54 48  1  0  0  0  0
 55 53  1  1  0  0  0
 55 46  1  0  0  0  0
 56 57  1  0  0  0  0
 58 59  1  0  0  0  0
 59 60  1  0  0  0  0
 60 61  1  1  0  0  0
 60 63  1  0  0  0  0
 61 62  1  0  0  0  0
 64 66  1  0  0  0  0
 64 63  1  0  0  0  0
 65 64  2  0  0  0  0
M  END
>  <MODEL>
3

>  <REMARK>
 VINA RESULT:      -5.8      3.468     12.437
  Name = 
  16 active torsions:
  status: ('A' for Active; 'I' for Inactive)
    1  A    between atoms: CA_3  and  C_12
    2  A    between atoms: CA_3  and  CB_35
    3  A    between atoms: CA_3  and  N_49
    4  A    between atoms: C_7  and  C_11
    5  A    between atoms: C_7  and  C_20
    6  A    between atoms: C_8  and  N_49
    7  A    between atoms: C_8  and  C_51
    8  A    between atoms: O_13  and  C_60
    9  A    between atoms: C_16  and  C_17
   10  A    between atoms: C_18  and  N_52
   11  A    between atoms: C_20  and  C_66
   12  A    between atoms: C_21  and  N_41
   13  A    between atoms: CG_24  and  CB_35
   14  A    between atoms: C_42  and  N_52
   15  A    between atoms: C_48  and  N_50
   16  A    between atoms: C_61  and  C_63
                            x       y       z     vdW  Elec       q    Type
                         _______ _______ _______ _____ _____    ______ ____

>  <TORSDO>
F 16

$$$$
=
 OpenBabel10222418373D

 66 74  0  0  1  0  0  0  0  0999 V2000
  187.3170  178.2410  138.5000 C   0  0  0  0  0  0  0  0  0  0  0  0
  188.1690  177.5730  139.2620 C   0  0  0  0  0  0  0  0  0  0  0  0
  189.2350  177.8300  137.2730 N   0  0  0  0  0  0  0  0  0  0  0  0
  189.3520  177.3280  138.4610 C   0  0  0  0  0  0  0  0  0  0  0  0
  186.0440  178.6540  138.8780 O   0  0  0  0  0  1  0  0  0  0  0  0
  187.9450  178.5090  137.1660 C   0  0  1  0  0  3  0  0  0  0  0  0
  187.3080  178.3580  134.8800 O   0  0  0  0  0  0  0  0  0  0  0  0
  187.1120  177.9730  136.0230 C   0  0  0  0  0  0  0  0  0  0  0  0
  186.0330  176.9550  136.2730 C   0  0  0  0  0  2  0  0  0  0  0  0
  186.6220  175.5470  136.2670 C   0  0  2  0  0  3  0  0  0  0  0  0
  186.3560  174.9180  134.9110 C   0  0  0  0  0  2  0  0  0  0  0  0
  185.6150  174.3970  136.1230 C   0  0  2  0  0  3  0  0  0  0  0  0
  183.4220  174.5010  137.0010 N   0  0  0  0  0  0  0  0  0  0  0  0
  184.2330  174.8520  136.0800 N   0  0  0  0  0  0  0  0  0  0  0  0
  179.6330  175.0080  139.8130 C   0  0  0  0  0  3  0  0  0  0  0  0
  181.1590  176.6440  138.9950 N   0  0  0  0  0  0  0  0  0  0  0  0
  181.1360  174.4450  137.9710 N   0  0  0  0  0  2  0  0  0  0  0  0
  179.7470  177.2000  140.8350 C   0  0  0  0  0  3  0  0  0  0  0  0
  182.0360  174.8480  136.9360 C   0  0  0  0  0  0  0  0  0  0  0  0
  180.6310  175.3930  138.9200 C   0  0  0  0  0  0  0  0  0  0  0  0
  181.6320  175.6040  136.0170 O   0  0  0  0  0  0  0  0  0  0  0  0
  179.1860  175.9220  140.7730 C   0  0  0  0  0  3  0  0  0  0  0  0
  180.7420  177.5540  139.9260 C   0  0  0  0  0  0  0  0  0  0  0  0
  179.0170  180.2270  138.5640 C   0  0  0  0  0  3  0  0  0  0  0  0
  181.7530  180.3330  137.9500 C   0  0  1  0  0  3  0  0  0  0  0  0
  180.4770  179.9660  140.5280 N   0  0  0  0  0  2  0  0  0  0  0  0
  180.7460  179.7610  136.9350 C   0  0  0  0  0  2  0  0  0  0  0  0
  181.1550  181.4190  138.7170 N   0  0  0  0  0  2  0  0  0  0  0  0
  182.3310  179.2770  138.8870 C   0  0  0  0  0  2  0  0  0  0  0  0
  181.3890  178.9070  140.0460 C   0  0  2  0  0  3  0  0  0  0  0  0
  179.3840  179.7050  137.4440 N   0  0  0  0  0  0  0  0  0  0  0  0
  180.0190  180.8870  139.4780 C   0  0  1  0  0  3  0  0  0  0  0  0
  187.9650  177.1320  140.6140 N   0  0  0  0  0  2  0  0  0  0  0  0
  189.6680  175.4360  143.4540 C   0  0  0  0  0  2  0  0  0  0  0  0
  189.3630  178.6340  141.9230 C   0  0  0  0  0  2  0  0  0  0  0  0
  188.5640  176.3310  142.8770 C   0  0  2  0  0  3  0  0  0  0  0  0
  188.9900  177.1710  141.6480 C   0  0  1  0  0  3  0  0  0  0  0  0
  190.5170  178.8240  142.8600 C   0  0  0  0  0  0  0  0  0  0  0  0
  190.9230  176.2040  143.8370 C   0  0  0  0  0  2  0  0  0  0  0  0
  190.4400  179.7100  143.7010 O   0  0  0  0  0  0  0  0  0  0  0  0
  191.5960  176.6230  142.6800 O   0  0  0  0  0  0  0  0  0  0  0  0
  191.7980  178.0220  142.7360 C   0  0  2  0  0  3  0  0  0  0  0  0
  184.2420  177.4730  144.7380 O   0  0  0  0  0  0  0  0  0  0  0  0
  187.7230  177.0030  143.9330 C   0  0  0  0  0  0  0  0  0  0  0  0
  185.5610  177.9840  144.7480 C   0  0  1  0  0  0  0  0  0  0  0  0
  183.0210  178.7100  143.0960 C   0  0  0  0  0  2  0  0  0  0  0  0
  186.4090  177.2090  143.7490 C   0  0  0  0  0  3  0  0  0  0  0  0
  187.6450  177.9640  146.1760 C   0  0  0  0  0  3  0  0  0  0  0  0
  188.3770  177.5420  145.1380 C   0  0  0  0  0  3  0  0  0  0  0  0
  185.3950  179.7500  142.9020 C   0  0  0  0  0  2  0  0  0  0  0  0
  183.9840  179.6110  142.2950 C   0  0  0  0  0  2  0  0  0  0  0  0
  185.4750  179.4870  144.4270 C   0  0  1  0  0  3  0  0  0  0  0  0
  184.1450  179.8100  145.0340 C   0  0  0  0  0  2  0  0  0  0  0  0
  186.1470  177.7940  146.1650 C   0  0  0  0  0  2  0  0  0  0  0  0
  183.3820  178.5800  144.5860 C   0  0  2  0  0  3  0  0  0  0  0  0
  192.7170  178.3620  143.7330 O   0  0  0  0  0  0  0  0  0  0  0  0
  191.9610  178.4570  144.9010 C   0  0  0  0  0  1  0  0  0  0  0  0
  190.5360  176.5220  138.8870 C   0  0  0  0  0  2  0  0  0  0  0  0
  190.5180  175.1980  138.2720 N   0  0  0  0  0  2  0  0  0  0  0  0
  191.4950  175.2010  137.1940 C   0  0  2  0  0  3  0  0  0  0  0  0
  190.9020  174.5510  135.9610 C   0  0  0  0  0  2  0  0  0  0  0  0
  190.0650  175.4710  135.3150 O   0  0  0  0  0  1  0  0  0  0  0  0
  192.7620  174.4720  137.6190 C   0  0  0  0  0  2  0  0  0  0  0  0
  193.9010  175.4330  137.7620 C   0  0  0  0  0  0  0  0  0  0  0  0
  194.8790  175.1560  138.5080 O   0  0  0  0  0  1  0  0  0  0  0  0
  193.8780  176.6310  137.0580 O   0  0  0  0  0  0  0  0  0  0  0  0
  1  5  1  0  0  0  0
  1  2  2  0  0  0  0
  2 33  1  0  0  0  0
  3  4  2  0  0  0  0
  4 58  1  0  0  0  0
  4  2  1  0  0  0  0
  6  8  1  6  0  0  0
  6  3  1  0  0  0  0
  6  1  1  0  0  0  0
  7  8  2  0  0  0  0
  8  9  1  0  0  0  0
 10  9  1  6  0  0  0
 11 12  1  0  0  0  0
 11 10  1  0  0  0  0
 12 14  1  6  0  0  0
 12 10  1  0  0  0  0
 14 13  2  0  0  0  0
 15 22  2  0  0  0  0
 16 23  1  0  0  0  0
 17 20  1  0  0  0  0
 19 13  1  0  0  0  0
 19 17  1  0  0  0  0
 20 16  2  0  0  0  0
 20 15  1  0  0  0  0
 21 19  2  0  0  0  0
 22 18  1  0  0  0  0
 23 18  2  0  0  0  0
 25 27  1  6  0  0  0
 25 28  1  0  0  0  0
 25 29  1  0  0  0  0
 27 31  1  0  0  0  0
 28 32  1  0  0  0  0
 29 30  1  0  0  0  0
 30 23  1  6  0  0  0
 30 26  1  0  0  0  0
 31 24  2  0  0  0  0
 32 24  1  6  0  0  0
 32 26  1  0  0  0  0
 34 39  1  0  0  0  0
 35 38  1  0  0  0  0
 36 34  1  0  0  0  0
 36 44  1  1  0  0  0
 37 33  1  6  0  0  0
 37 35  1  0  0  0  0
 37 36  1  0  0  0  0
 38 40  2  0  0  0  0
 41 42  1  0  0  0  0
 41 39  1  0  0  0  0
 42 38  1  0  0  0  0
 42 56  1  1  0  0  0
 43 45  1  0  0  0  0
 44 49  1  0  0  0  0
 45 47  1  6  0  0  0
 45 54  1  0  0  0  0
 47 44  2  0  0  0  0
 49 48  2  0  0  0  0
 51 50  1  0  0  0  0
 51 46  1  0  0  0  0
 52 50  1  6  0  0  0
 52 45  1  0  0  0  0
 52 53  1  0  0  0  0
 54 48  1  0  0  0  0
 55 46  1  6  0  0  0
 55 43  1  0  0  0  0
 55 53  1  0  0  0  0
 56 57  1  0  0  0  0
 59 58  1  0  0  0  0
 60 61  1  6  0  0  0
 60 63  1  0  0  0  0
 60 59  1  0  0  0  0
 62 61  1  0  0  0  0
 63 64  1  0  0  0  0
 64 65  1  0  0  0  0
 66 64  2  0  0  0  0
M  END
>  <MODEL>
4

>  <REMARK>
 VINA RESULT:      -5.5      2.352      8.440
  Name = 
  16 active torsions:
  status: ('A' for Active; 'I' for Inactive)
    1  A    between atoms: CA_3  and  C_12
    2  A    between atoms: CA_3  and  CB_35
    3  A    between atoms: CA_3  and  N_49
    4  A    between atoms: C_7  and  C_11
    5  A    between atoms: C_7  and  C_20
    6  A    between atoms: C_8  and  N_49
    7  A    between atoms: C_8  and  C_51
    8  A    between atoms: O_13  and  C_60
    9  A    between atoms: C_16  and  C_17
   10  A    between atoms: C_18  and  N_52
   11  A    between atoms: C_20  and  C_66
   12  A    between atoms: C_21  and  N_41
   13  A    between atoms: CG_24  and  CB_35
   14  A    between atoms: C_42  and  N_52
   15  A    between atoms: C_48  and  N_50
   16  A    between atoms: C_61  and  C_63
                            x       y       z     vdW  Elec       q    Type
                         _______ _______ _______ _____ _____    ______ ____

>  <TORSDO>
F 16

$$$$
=
 OpenBabel10222418373D

 66 74  0  0  1  0  0  0  0  0999 V2000
  183.7130  178.3770  140.8750 C   0  0  0  0  0  0  0  0  0  0  0  0
  184.1110  178.6030  139.6330 C   0  0  0  0  0  0  0  0  0  0  0  0
  186.0240  178.3070  140.8200 N   0  0  0  0  0  0  0  0  0  0  0  0
  185.5590  178.5580  139.6370 C   0  0  0  0  0  0  0  0  0  0  0  0
  182.3920  178.3590  141.3120 O   0  0  0  0  0  1  0  0  0  0  0  0
  184.9060  178.1200  141.7430 C   0  0  1  0  0  3  0  0  0  0  0  0
  186.0380  179.2870  143.4770 O   0  0  0  0  0  0  0  0  0  0  0  0
  184.9740  179.0660  142.9210 C   0  0  0  0  0  0  0  0  0  0  0  0
  183.7330  179.7540  143.4230 C   0  0  0  0  0  2  0  0  0  0  0  0
  182.6540  178.7270  143.7510 C   0  0  2  0  0  3  0  0  0  0  0  0
  181.6890  179.3430  144.7490 C   0  0  0  0  0  2  0  0  0  0  0  0
  182.6130  178.2350  145.2050 C   0  0  2  0  0  3  0  0  0  0  0  0
  184.8230  178.2360  146.0480 N   0  0  0  0  0  0  0  0  0  0  0  0
  183.6760  178.7960  146.0270 N   0  0  0  0  0  0  0  0  0  0  0  0
  188.9550  176.8380  147.9160 C   0  0  0  0  0  3  0  0  0  0  0  0
  188.5220  178.1770  145.9950 N   0  0  0  0  0  0  0  0  0  0  0  0
  186.7260  177.7800  147.5760 N   0  0  0  0  0  2  0  0  0  0  0  0
  190.6890  177.2180  146.2690 C   0  0  0  0  0  3  0  0  0  0  0  0
  185.8560  178.7040  146.9180 C   0  0  0  0  0  0  0  0  0  0  0  0
  188.0870  177.6200  147.1570 C   0  0  0  0  0  0  0  0  0  0  0  0
  186.0670  179.9390  147.0170 O   0  0  0  0  0  0  0  0  0  0  0  0
  190.2660  176.6410  147.4690 C   0  0  0  0  0  3  0  0  0  0  0  0
  189.7960  177.9970  145.5340 C   0  0  0  0  0  0  0  0  0  0  0  0
  189.1850  176.0470  142.7410 C   0  0  0  0  0  3  0  0  0  0  0  0
  191.7570  177.1660  142.6850 C   0  0  1  0  0  3  0  0  0  0  0  0
  189.2100  178.4740  143.1510 N   0  0  0  0  0  2  0  0  0  0  0  0
  191.5440  175.7200  143.1710 C   0  0  0  0  0  2  0  0  0  0  0  0
  190.8140  177.5000  141.6240 N   0  0  0  0  0  2  0  0  0  0  0  0
  191.6800  178.1970  143.8070 C   0  0  0  0  0  2  0  0  0  0  0  0
  190.2390  178.5560  144.2100 C   0  0  2  0  0  3  0  0  0  0  0  0
  190.1440  175.3280  143.2140 N   0  0  0  0  0  0  0  0  0  0  0  0
  189.4510  177.4140  142.1620 C   0  0  1  0  0  3  0  0  0  0  0  0
  183.2830  178.8790  138.4910 N   0  0  0  0  0  2  0  0  0  0  0  0
  182.3010  176.9250  135.4820 C   0  0  0  0  0  2  0  0  0  0  0  0
  181.0850  177.8530  138.6950 C   0  0  0  0  0  2  0  0  0  0  0  0
  182.2320  178.1780  136.3650 C   0  0  2  0  0  3  0  0  0  0  0  0
  182.3850  177.9080  137.8810 C   0  0  1  0  0  3  0  0  0  0  0  0
  180.1230  176.7850  138.2720 C   0  0  0  0  0  0  0  0  0  0  0  0
  181.2790  175.8660  135.8640 C   0  0  0  0  0  2  0  0  0  0  0  0
  178.9320  177.0630  138.2310 O   0  0  0  0  0  0  0  0  0  0  0  0
  181.6450  175.2690  137.0790 O   0  0  0  0  0  0  0  0  0  0  0  0
  180.5680  175.3630  137.9900 C   0  0  2  0  0  3  0  0  0  0  0  0
  180.9180  182.6470  135.0430 O   0  0  0  0  0  0  0  0  0  0  0  0
  181.1780  179.1630  135.9270 C   0  0  0  0  0  0  0  0  0  0  0  0
  180.3240  181.5050  135.6290 C   0  0  1  0  0  0  0  0  0  0  0  0
  181.4630  184.1470  136.8240 C   0  0  0  0  0  2  0  0  0  0  0  0
  181.4070  180.4860  135.9560 C   0  0  0  0  0  3  0  0  0  0  0  0
  178.9460  179.4860  134.9910 C   0  0  0  0  0  3  0  0  0  0  0  0
  179.8360  178.6700  135.5680 C   0  0  0  0  0  3  0  0  0  0  0  0
  180.4620  182.1220  138.1090 C   0  0  0  0  0  2  0  0  0  0  0  0
  181.2430  183.4490  138.1830 C   0  0  0  0  0  2  0  0  0  0  0  0
  179.5440  181.9760  136.8690 C   0  0  1  0  0  3  0  0  0  0  0  0
  179.1350  183.3440  136.4190 C   0  0  0  0  0  2  0  0  0  0  0  0
  179.3420  180.8890  134.6070 C   0  0  0  0  0  2  0  0  0  0  0  0
  180.4290  183.7640  135.7520 C   0  0  2  0  0  3  0  0  0  0  0  0
  179.4960  174.5560  137.5950 O   0  0  0  0  0  0  0  0  0  0  0  0
  179.6660  173.3640  138.2980 C   0  0  0  0  0  1  0  0  0  0  0  0
  186.4400  178.8520  138.4660 C   0  0  0  0  0  2  0  0  0  0  0  0
  186.8270  177.6220  137.7800 N   0  0  0  0  0  2  0  0  0  0  0  0
  188.2410  177.4020  138.0370 C   0  0  2  0  0  3  0  0  0  0  0  0
  188.9670  178.7310  138.0890 C   0  0  0  0  0  2  0  0  0  0  0  0
  189.3680  179.0860  136.7950 O   0  0  0  0  0  1  0  0  0  0  0  0
  188.8470  176.5100  136.9630 C   0  0  0  0  0  2  0  0  0  0  0  0
  189.1780  175.1610  137.5210 C   0  0  0  0  0  0  0  0  0  0  0  0
  189.9870  175.0510  138.4820 O   0  0  0  0  0  1  0  0  0  0  0  0
  188.5780  174.0300  136.9800 O   0  0  0  0  0  0  0  0  0  0  0  0
  1  5  1  0  0  0  0
  1  6  1  0  0  0  0
  2  4  1  0  0  0  0
  2  1  2  0  0  0  0
  3  6  1  0  0  0  0
  4  3  2  0  0  0  0
  6  8  1  1  0  0  0
  8  9  1  0  0  0  0
  8  7  2  0  0  0  0
 10  9  1  1  0  0  0
 10 11  1  0  0  0  0
 10 12  1  0  0  0  0
 11 12  1  0  0  0  0
 12 14  1  1  0  0  0
 13 19  1  0  0  0  0
 14 13  2  0  0  0  0
 16 20  2  0  0  0  0
 18 22  1  0  0  0  0
 19 21  2  0  0  0  0
 19 17  1  0  0  0  0
 20 17  1  0  0  0  0
 20 15  1  0  0  0  0
 22 15  2  0  0  0  0
 23 16  1  0  0  0  0
 23 18  2  0  0  0  0
 24 31  2  0  0  0  0
 25 27  1  1  0  0  0
 25 29  1  0  0  0  0
 26 30  1  0  0  0  0
 27 31  1  0  0  0  0
 28 32  1  0  0  0  0
 28 25  1  0  0  0  0
 29 30  1  0  0  0  0
 30 23  1  1  0  0  0
 32 24  1  1  0  0  0
 32 26  1  0  0  0  0
 33  2  1  0  0  0  0
 34 39  1  0  0  0  0
 34 36  1  0  0  0  0
 36 44  1  1  0  0  0
 36 37  1  0  0  0  0
 37 33  1  1  0  0  0
 37 35  1  0  0  0  0
 38 35  1  0  0  0  0
 39 41  1  0  0  0  0
 40 38  2  0  0  0  0
 41 42  1  0  0  0  0
 42 56  1  6  0  0  0
 42 38  1  0  0  0  0
 43 45  1  0  0  0  0
 43 55  1  0  0  0  0
 44 47  2  0  0  0  0
 45 54  1  6  0  0  0
 45 47  1  0  0  0  0
 45 52  1  0  0  0  0
 46 51  1  0  0  0  0
 48 49  2  0  0  0  0
 49 44  1  0  0  0  0
 50 51  1  0  0  0  0
 52 53  1  6  0  0  0
 52 50  1  0  0  0  0
 54 48  1  0  0  0  0
 55 53  1  1  0  0  0
 55 46  1  0  0  0  0
 56 57  1  0  0  0  0
 58  4  1  0  0  0  0
 59 60  1  0  0  0  0
 59 58  1  0  0  0  0
 60 63  1  6  0  0  0
 60 61  1  0  0  0  0
 62 61  1  0  0  0  0
 63 64  1  0  0  0  0
 64 65  1  0  0  0  0
 66 64  2  0  0  0  0
M  END
>  <MODEL>
5

>  <REMARK>
 VINA RESULT:      -5.3      3.433     10.334
  Name = 
  16 active torsions:
  status: ('A' for Active; 'I' for Inactive)
    1  A    between atoms: CA_3  and  C_12
    2  A    between atoms: CA_3  and  CB_35
    3  A    between atoms: CA_3  and  N_49
    4  A    between atoms: C_7  and  C_11
    5  A    between atoms: C_7  and  C_20
    6  A    between atoms: C_8  and  N_49
    7  A    between atoms: C_8  and  C_51
    8  A    between atoms: O_13  and  C_60
    9  A    between atoms: C_16  and  C_17
   10  A    between atoms: C_18  and  N_52
   11  A    between atoms: C_20  and  C_66
   12  A    between atoms: C_21  and  N_41
   13  A    between atoms: CG_24  and  CB_35
   14  A    between atoms: C_42  and  N_52
   15  A    between atoms: C_48  and  N_50
   16  A    between atoms: C_61  and  C_63
                            x       y       z     vdW  Elec       q    Type
                         _______ _______ _______ _____ _____    ______ ____

>  <TORSDO>
F 16

$$$$
=
 OpenBabel10222418373D

 66 74  0  0  1  0  0  0  0  0999 V2000
  187.4850  178.1920  138.6600 C   0  0  0  0  0  0  0  0  0  0  0  0
  188.6750  178.2080  139.2390 C   0  0  0  0  0  0  0  0  0  0  0  0
  188.9810  177.0770  137.2940 N   0  0  0  0  0  0  0  0  0  0  0  0
  189.5830  177.4980  138.3600 C   0  0  0  0  0  0  0  0  0  0  0  0
  186.3210  178.7450  139.1850 O   0  0  0  0  0  1  0  0  0  0  0  0
  187.5840  177.5030  137.3340 C   0  0  1  0  0  3  0  0  0  0  0  0
  185.5880  176.3240  137.8600 O   0  0  0  0  0  0  0  0  0  0  0  0
  186.6280  176.3360  137.2200 C   0  0  0  0  0  0  0  0  0  0  0  0
  186.9390  175.1770  136.3130 C   0  0  0  0  0  2  0  0  0  0  0  0
  187.4760  174.0010  137.1230 C   0  0  2  0  0  3  0  0  0  0  0  0
  187.6680  172.8190  136.1880 C   0  0  0  0  0  2  0  0  0  0  0  0
  186.5590  172.7730  137.2160 C   0  0  2  0  0  3  0  0  0  0  0  0
  184.1960  172.8670  137.2280 N   0  0  0  0  0  0  0  0  0  0  0  0
  185.2760  172.9690  136.5560 N   0  0  0  0  0  0  0  0  0  0  0  0
  179.6750  173.9300  138.2060 C   0  0  0  0  0  3  0  0  0  0  0  0
  181.3990  175.2900  137.2830 N   0  0  0  0  0  0  0  0  0  0  0  0
  181.7160  172.8860  137.3590 N   0  0  0  0  0  2  0  0  0  0  0  0
  179.4450  176.3400  138.1590 C   0  0  0  0  0  3  0  0  0  0  0  0
  182.9190  172.9560  136.5910 C   0  0  0  0  0  0  0  0  0  0  0  0
  180.9220  174.0550  137.5960 C   0  0  0  0  0  0  0  0  0  0  0  0
  182.8600  173.2050  135.3600 O   0  0  0  0  0  0  0  0  0  0  0  0
  178.9330  175.0820  138.4840 C   0  0  0  0  0  3  0  0  0  0  0  0
  180.6950  176.4300  137.5480 C   0  0  0  0  0  0  0  0  0  0  0  0
  182.8190  177.7480  139.9420 C   0  0  0  0  0  3  0  0  0  0  0  0
  181.0070  179.6670  138.9900 C   0  0  1  0  0  3  0  0  0  0  0  0
  182.7290  177.8830  137.4860 N   0  0  0  0  0  2  0  0  0  0  0  0
  180.7330  178.9190  140.3090 C   0  0  0  0  0  2  0  0  0  0  0  0
  182.4360  179.8880  138.8080 N   0  0  0  0  0  2  0  0  0  0  0  0
  180.4170  178.9690  137.7680 C   0  0  0  0  0  2  0  0  0  0  0  0
  181.2700  177.7920  137.2660 C   0  0  2  0  0  3  0  0  0  0  0  0
  181.7290  177.9040  140.6120 N   0  0  0  0  0  0  0  0  0  0  0  0
  183.1060  178.5850  138.7210 C   0  0  1  0  0  3  0  0  0  0  0  0
  189.0160  178.7830  140.5110 N   0  0  0  0  0  2  0  0  0  0  0  0
  188.4930  175.6820  142.4990 C   0  0  0  0  0  2  0  0  0  0  0  0
  189.8940  178.9410  142.7760 C   0  0  0  0  0  2  0  0  0  0  0  0
  188.1300  177.1230  142.1170 C   0  0  2  0  0  3  0  0  0  0  0  0
  189.3340  178.0020  141.6990 C   0  0  1  0  0  3  0  0  0  0  0  0
  190.4080  178.2540  144.0050 C   0  0  0  0  0  0  0  0  0  0  0  0
  189.5280  175.5990  143.6080 C   0  0  0  0  0  2  0  0  0  0  0  0
  190.1560  178.7510  145.0940 O   0  0  0  0  0  0  0  0  0  0  0  0
  190.7820  175.9920  143.1190 O   0  0  0  0  0  0  0  0  0  0  0  0
  191.2980  177.0280  143.9320 C   0  0  2  0  0  3  0  0  0  0  0  0
  186.9110  179.5570  146.1210 O   0  0  0  0  0  0  0  0  0  0  0  0
  187.0870  177.7370  143.0160 C   0  0  0  0  0  0  0  0  0  0  0  0
  186.3230  178.6230  145.2370 C   0  0  1  0  0  0  0  0  0  0  0  0
  187.7030  178.3310  148.0150 C   0  0  0  0  0  2  0  0  0  0  0  0
  187.3820  178.1070  144.2730 C   0  0  0  0  0  3  0  0  0  0  0  0
  184.7920  178.5420  143.2300 C   0  0  0  0  0  3  0  0  0  0  0  0
  185.6940  177.8300  142.5440 C   0  0  0  0  0  3  0  0  0  0  0  0
  186.7370  176.4430  146.5130 C   0  0  0  0  0  2  0  0  0  0  0  0
  187.5850  176.8160  147.7450 C   0  0  0  0  0  2  0  0  0  0  0  0
  185.6940  177.5110  146.0940 C   0  0  1  0  0  3  0  0  0  0  0  0
  185.3100  178.2990  147.3080 C   0  0  0  0  0  2  0  0  0  0  0  0
  185.2150  179.3420  144.4350 C   0  0  0  0  0  2  0  0  0  0  0  0
  186.5500  179.1610  147.4250 C   0  0  2  0  0  3  0  0  0  0  0  0
  191.6310  176.5560  145.2050 O   0  0  0  0  0  0  0  0  0  0  0  0
  192.2640  175.3340  144.9800 C   0  0  0  0  0  1  0  0  0  0  0  0
  191.0150  177.1900  138.6580 C   0  0  0  0  0  2  0  0  0  0  0  0
  191.6780  176.6040  137.4960 N   0  0  0  0  0  2  0  0  0  0  0  0
  192.1980  175.3060  137.8950 C   0  0  2  0  0  3  0  0  0  0  0  0
  193.7100  175.3610  137.9760 C   0  0  0  0  0  2  0  0  0  0  0  0
  194.1710  176.4390  137.2100 O   0  0  0  0  0  1  0  0  0  0  0  0
  191.7590  174.2300  136.9120 C   0  0  0  0  0  2  0  0  0  0  0  0
  191.5270  174.8180  135.5550 C   0  0  0  0  0  0  0  0  0  0  0  0
  192.4830  174.9390  134.7410 O   0  0  0  0  0  0  0  0  0  0  0  0
  190.2470  175.2210  135.1940 O   0  0  0  0  0  1  0  0  0  0  0  0
  1  5  1  0  0  0  0
  1  2  2  0  0  0  0
  2 33  1  0  0  0  0
  3  6  1  0  0  0  0
  3  4  2  0  0  0  0
  4 58  1  0  0  0  0
  4  2  1  0  0  0  0
  6  8  1  1  0  0  0
  6  1  1  0  0  0  0
  8  7  2  0  0  0  0
  9  8  1  0  0  0  0
 10  9  1  6  0  0  0
 10 12  1  0  0  0  0
 11 10  1  0  0  0  0
 11 12  1  0  0  0  0
 12 14  1  6  0  0  0
 14 13  2  0  0  0  0
 15 22  2  0  0  0  0
 16 23  1  0  0  0  0
 16 20  2  0  0  0  0
 17 20  1  0  0  0  0
 18 22  1  0  0  0  0
 19 13  1  0  0  0  0
 19 17  1  0  0  0  0
 20 15  1  0  0  0  0
 21 19  2  0  0  0  0
 23 18  2  0  0  0  0
 24 31  2  0  0  0  0
 25 29  1  6  0  0  0
 25 27  1  0  0  0  0
 26 32  1  0  0  0  0
 27 31  1  0  0  0  0
 28 25  1  0  0  0  0
 30 26  1  0  0  0  0
 30 23  1  1  0  0  0
 30 29  1  0  0  0  0
 32 28  1  0  0  0  0
 32 24  1  1  0  0  0
 34 39  1  0  0  0  0
 35 38  1  0  0  0  0
 36 34  1  0  0  0  0
 36 44  1  1  0  0  0
 37 33  1  6  0  0  0
 37 36  1  0  0  0  0
 37 35  1  0  0  0  0
 38 40  2  0  0  0  0
 41 39  1  0  0  0  0
 41 42  1  0  0  0  0
 42 38  1  0  0  0  0
 42 56  1  1  0  0  0
 43 55  1  0  0  0  0
 44 47  2  0  0  0  0
 45 47  1  6  0  0  0
 45 52  1  0  0  0  0
 45 43  1  0  0  0  0
 48 54  1  0  0  0  0
 49 44  1  0  0  0  0
 49 48  2  0  0  0  0
 50 51  1  0  0  0  0
 51 46  1  0  0  0  0
 52 50  1  1  0  0  0
 52 53  1  0  0  0  0
 54 45  1  0  0  0  0
 55 53  1  6  0  0  0
 55 46  1  0  0  0  0
 57 56  1  0  0  0  0
 59 60  1  0  0  0  0
 59 58  1  0  0  0  0
 60 63  1  6  0  0  0
 60 61  1  0  0  0  0
 62 61  1  0  0  0  0
 64 63  1  0  0  0  0
 65 64  2  0  0  0  0
 66 64  1  0  0  0  0
M  END
>  <MODEL>
6

>  <REMARK>
 VINA RESULT:      -5.2      2.448      8.693
  Name = 
  16 active torsions:
  status: ('A' for Active; 'I' for Inactive)
    1  A    between atoms: CA_3  and  C_12
    2  A    between atoms: CA_3  and  CB_35
    3  A    between atoms: CA_3  and  N_49
    4  A    between atoms: C_7  and  C_11
    5  A    between atoms: C_7  and  C_20
    6  A    between atoms: C_8  and  N_49
    7  A    between atoms: C_8  and  C_51
    8  A    between atoms: O_13  and  C_60
    9  A    between atoms: C_16  and  C_17
   10  A    between atoms: C_18  and  N_52
   11  A    between atoms: C_20  and  C_66
   12  A    between atoms: C_21  and  N_41
   13  A    between atoms: CG_24  and  CB_35
   14  A    between atoms: C_42  and  N_52
   15  A    between atoms: C_48  and  N_50
   16  A    between atoms: C_61  and  C_63
                            x       y       z     vdW  Elec       q    Type
                         _______ _______ _______ _____ _____    ______ ____

>  <TORSDO>
F 16

$$$$
=
 OpenBabel10222418373D

 66 74  0  0  1  0  0  0  0  0999 V2000
  187.6070  177.8360  138.4120 C   0  0  0  0  0  0  0  0  0  0  0  0
  188.7260  177.8250  139.1190 C   0  0  0  0  0  0  0  0  0  0  0  0
  189.0650  176.3160  137.4570 N   0  0  0  0  0  0  0  0  0  0  0  0
  189.6110  176.8610  138.4970 C   0  0  0  0  0  0  0  0  0  0  0  0
  186.4830  178.6090  138.6860 O   0  0  0  0  0  1  0  0  0  0  0  0
  187.7410  176.8990  137.2510 C   0  0  1  0  0  3  0  0  0  0  0  0
  186.9360  174.6620  137.2250 O   0  0  0  0  0  0  0  0  0  0  0  0
  186.6520  175.8500  137.2310 C   0  0  0  0  0  0  0  0  0  0  0  0
  185.2020  176.2520  137.2230 C   0  0  0  0  0  2  0  0  0  0  0  0
  184.5620  175.9040  135.8830 C   0  0  2  0  0  3  0  0  0  0  0  0
  183.6340  177.0370  135.4820 C   0  0  0  0  0  2  0  0  0  0  0  0
  183.0400  175.7070  135.8940 C   0  0  2  0  0  3  0  0  0  0  0  0
  181.5400  175.0200  137.5870 N   0  0  0  0  0  0  0  0  0  0  0  0
  182.4600  175.8270  137.2240 N   0  0  0  0  0  0  0  0  0  0  0  0
  181.6150  177.7670  141.4570 C   0  0  0  0  0  3  0  0  0  0  0  0
  180.2200  177.8790  139.5300 N   0  0  0  0  0  0  0  0  0  0  0  0
  181.5180  175.8680  139.9220 N   0  0  0  0  0  2  0  0  0  0  0  0
  180.3430  179.7710  140.9780 C   0  0  0  0  0  3  0  0  0  0  0  0
  180.8810  175.1710  138.8480 C   0  0  0  0  0  0  0  0  0  0  0  0
  181.0890  177.1800  140.3070 C   0  0  0  0  0  0  0  0  0  0  0  0
  179.6930  174.7820  138.9740 O   0  0  0  0  0  0  0  0  0  0  0  0
  181.2330  179.0690  141.7940 C   0  0  0  0  0  3  0  0  0  0  0  0
  179.8340  179.1540  139.8360 C   0  0  0  0  0  0  0  0  0  0  0  0
  181.2060  180.2520  136.8540 C   0  0  0  0  0  3  0  0  0  0  0  0
  179.6660  182.2470  138.0870 C   0  0  1  0  0  3  0  0  0  0  0  0
  178.9610  179.4920  137.5180 N   0  0  0  0  0  2  0  0  0  0  0  0
  181.1980  182.2280  138.2510 C   0  0  0  0  0  2  0  0  0  0  0  0
  179.2810  181.7690  136.7650 N   0  0  0  0  0  2  0  0  0  0  0  0
  178.9340  181.4600  139.1700 C   0  0  0  0  0  2  0  0  0  0  0  0
  178.9310  179.9420  138.9260 C   0  0  2  0  0  3  0  0  0  0  0  0
  181.8300  181.0830  137.6160 N   0  0  0  0  0  0  0  0  0  0  0  0
  179.7210  180.3760  136.6220 C   0  0  1  0  0  3  0  0  0  0  0  0
  189.0150  178.5900  140.3010 N   0  0  0  0  0  2  0  0  0  0  0  0
  188.8190  175.7350  142.6790 C   0  0  0  0  0  2  0  0  0  0  0  0
  189.8930  179.1230  142.5080 C   0  0  0  0  0  2  0  0  0  0  0  0
  188.3120  177.0730  142.1240 C   0  0  2  0  0  3  0  0  0  0  0  0
  189.4190  178.0040  141.5720 C   0  0  1  0  0  3  0  0  0  0  0  0
  190.4830  178.6540  143.8030 C   0  0  0  0  0  0  0  0  0  0  0  0
  189.8670  175.8970  143.7680 C   0  0  0  0  0  2  0  0  0  0  0  0
  190.1920  179.2610  144.8250 O   0  0  0  0  0  0  0  0  0  0  0  0
  191.0710  176.3430  143.2060 O   0  0  0  0  0  0  0  0  0  0  0  0
  191.4890  177.5210  143.8690 C   0  0  2  0  0  3  0  0  0  0  0  0
  186.8760  179.5520  146.0270 O   0  0  0  0  0  0  0  0  0  0  0  0
  187.2210  177.6940  142.9600 C   0  0  0  0  0  0  0  0  0  0  0  0
  186.3380  178.6040  145.1260 C   0  0  1  0  0  0  0  0  0  0  0  0
  187.5720  178.3530  147.9760 C   0  0  0  0  0  2  0  0  0  0  0  0
  187.4490  178.0800  144.2250 C   0  0  0  0  0  3  0  0  0  0  0  0
  184.9150  178.4910  143.0430 C   0  0  0  0  0  3  0  0  0  0  0  0
  185.8550  177.7740  142.4140 C   0  0  0  0  0  3  0  0  0  0  0  0
  186.6930  176.4430  146.4500 C   0  0  0  0  0  2  0  0  0  0  0  0
  187.4740  176.8350  147.7200 C   0  0  0  0  0  2  0  0  0  0  0  0
  185.6700  177.5000  145.9640 C   0  0  1  0  0  3  0  0  0  0  0  0
  185.2190  178.3020  147.1450 C   0  0  0  0  0  2  0  0  0  0  0  0
  185.2720  179.3080  144.2580 C   0  0  0  0  0  2  0  0  0  0  0  0
  186.4480  179.1710  147.3160 C   0  0  2  0  0  3  0  0  0  0  0  0
  191.8780  177.2520  145.1840 O   0  0  0  0  0  0  0  0  0  0  0  0
  192.0070  175.8650  145.2440 C   0  0  0  0  0  1  0  0  0  0  0  0
  190.9520  176.4530  139.0160 C   0  0  0  0  0  2  0  0  0  0  0  0
  191.9500  176.4550  137.9500 N   0  0  0  0  0  2  0  0  0  0  0  0
  192.5440  175.1280  137.9030 C   0  0  2  0  0  3  0  0  0  0  0  0
  194.0550  175.2430  137.8910 C   0  0  0  0  0  2  0  0  0  0  0  0
  194.6130  173.9680  138.0520 O   0  0  0  0  0  1  0  0  0  0  0  0
  192.0620  174.3700  136.6740 C   0  0  0  0  0  2  0  0  0  0  0  0
  192.4230  175.1070  135.4230 C   0  0  0  0  0  0  0  0  0  0  0  0
  191.5930  175.8850  134.8790 O   0  0  0  0  0  1  0  0  0  0  0  0
  193.6860  174.9370  134.8690 O   0  0  0  0  0  0  0  0  0  0  0  0
  1  5  1  0  0  0  0
  1  2  2  0  0  0  0
  2 33  1  0  0  0  0
  3  4  2  0  0  0  0
  4 58  1  0  0  0  0
  4  2  1  0  0  0  0
  6  8  1  1  0  0  0
  6  3  1  0  0  0  0
  6  1  1  0  0  0  0
  7  8  2  0  0  0  0
  9  8  1  0  0  0  0
 10 12  1  0  0  0  0
 10  9  1  1  0  0  0
 11 10  1  0  0  0  0
 11 12  1  0  0  0  0
 12 14  1  1  0  0  0
 13 19  1  0  0  0  0
 14 13  2  0  0  0  0
 15 22  2  0  0  0  0
 16 23  1  0  0  0  0
 16 20  2  0  0  0  0
 17 20  1  0  0  0  0
 18 22  1  0  0  0  0
 19 21  2  0  0  0  0
 19 17  1  0  0  0  0
 20 15  1  0  0  0  0
 23 18  2  0  0  0  0
 24 31  2  0  0  0  0
 25 27  1  1  0  0  0
 25 29  1  0  0  0  0
 26 30  1  0  0  0  0
 28 25  1  0  0  0  0
 30 29  1  0  0  0  0
 30 23  1  1  0  0  0
 31 27  1  0  0  0  0
 32 28  1  0  0  0  0
 32 24  1  1  0  0  0
 32 26  1  0  0  0  0
 34 39  1  0  0  0  0
 35 38  1  0  0  0  0
 36 34  1  0  0  0  0
 36 44  1  1  0  0  0
 37 33  1  6  0  0  0
 37 36  1  0  0  0  0
 37 35  1  0  0  0  0
 38 42  1  0  0  0  0
 38 40  2  0  0  0  0
 41 39  1  0  0  0  0
 41 42  1  0  0  0  0
 42 56  1  1  0  0  0
 43 55  1  0  0  0  0
 44 47  2  0  0  0  0
 45 47  1  6  0  0  0
 45 52  1  0  0  0  0
 45 43  1  0  0  0  0
 48 54  1  0  0  0  0
 49 44  1  0  0  0  0
 49 48  2  0  0  0  0
 50 51  1  0  0  0  0
 51 46  1  0  0  0  0
 52 50  1  1  0  0  0
 52 53  1  0  0  0  0
 54 45  1  0  0  0  0
 55 53  1  6  0  0  0
 55 46  1  0  0  0  0
 56 57  1  0  0  0  0
 59 58  1  0  0  0  0
 60 63  1  6  0  0  0
 60 59  1  0  0  0  0
 61 60  1  0  0  0  0
 61 62  1  0  0  0  0
 64 63  1  0  0  0  0
 65 64  1  0  0  0  0
 66 64  2  0  0  0  0
M  END
>  <MODEL>
7

>  <REMARK>
 VINA RESULT:      -5.0      2.357      8.422
  Name = 
  16 active torsions:
  status: ('A' for Active; 'I' for Inactive)
    1  A    between atoms: CA_3  and  C_12
    2  A    between atoms: CA_3  and  CB_35
    3  A    between atoms: CA_3  and  N_49
    4  A    between atoms: C_7  and  C_11
    5  A    between atoms: C_7  and  C_20
    6  A    between atoms: C_8  and  N_49
    7  A    between atoms: C_8  and  C_51
    8  A    between atoms: O_13  and  C_60
    9  A    between atoms: C_16  and  C_17
   10  A    between atoms: C_18  and  N_52
   11  A    between atoms: C_20  and  C_66
   12  A    between atoms: C_21  and  N_41
   13  A    between atoms: CG_24  and  CB_35
   14  A    between atoms: C_42  and  N_52
   15  A    between atoms: C_48  and  N_50
   16  A    between atoms: C_61  and  C_63
                            x       y       z     vdW  Elec       q    Type
                         _______ _______ _______ _____ _____    ______ ____

>  <TORSDO>
F 16

$$$$
=
 OpenBabel10222418373D

 66 74  0  0  1  0  0  0  0  0999 V2000
  184.3300  177.6510  139.4710 C   0  0  0  0  0  0  0  0  0  0  0  0
  185.2530  177.1610  138.6590 C   0  0  0  0  0  0  0  0  0  0  0  0
  185.1710  179.3800  138.1860 N   0  0  0  0  0  0  0  0  0  0  0  0
  185.7520  178.2670  137.8670 C   0  0  0  0  0  0  0  0  0  0  0  0
  183.5820  176.9150  140.3840 O   0  0  0  0  0  1  0  0  0  0  0  0
  184.2260  179.1320  139.2730 C   0  0  1  0  0  3  0  0  0  0  0  0
  182.4280  179.5090  137.7640 O   0  0  0  0  0  0  0  0  0  0  0  0
  182.8210  179.5670  138.9190 C   0  0  0  0  0  0  0  0  0  0  0  0
  181.8850  180.0700  139.9830 C   0  0  0  0  0  2  0  0  0  0  0  0
  180.9680  178.9460  140.4560 C   0  0  2  0  0  3  0  0  0  0  0  0
  180.1200  179.4660  141.6040 C   0  0  0  0  0  2  0  0  0  0  0  0
  181.2010  178.4450  141.8880 C   0  0  2  0  0  3  0  0  0  0  0  0
  182.5580  178.8660  143.7780 N   0  0  0  0  0  0  0  0  0  0  0  0
  182.3240  179.0980  142.5450 N   0  0  0  0  0  0  0  0  0  0  0  0
  186.0610  178.0820  146.8830 C   0  0  0  0  0  3  0  0  0  0  0  0
  186.1290  178.2220  144.5060 N   0  0  0  0  0  0  0  0  0  0  0  0
  184.1580  179.0210  145.6720 N   0  0  0  0  0  2  0  0  0  0  0  0
  187.9750  177.2450  145.6580 C   0  0  0  0  0  3  0  0  0  0  0  0
  183.5920  179.5640  144.4770 C   0  0  0  0  0  0  0  0  0  0  0  0
  185.4740  178.4540  145.6750 C   0  0  0  0  0  0  0  0  0  0  0  0
  184.0790  180.6080  143.9750 O   0  0  0  0  0  0  0  0  0  0  0  0
  187.3230  177.4790  146.8710 C   0  0  0  0  0  3  0  0  0  0  0  0
  187.3600  177.6300  144.4680 C   0  0  0  0  0  0  0  0  0  0  0  0
  190.6180  176.4780  144.6490 C   0  0  0  0  0  3  0  0  0  0  0  0
  190.2990  178.3780  142.6090 C   0  0  1  0  0  3  0  0  0  0  0  0
  188.7260  176.0030  143.1490 N   0  0  0  0  0  2  0  0  0  0  0  0
  190.8580  178.7930  143.9840 C   0  0  0  0  0  2  0  0  0  0  0  0
  190.7290  177.0290  142.2620 N   0  0  0  0  0  2  0  0  0  0  0  0
  188.7810  178.4930  142.5160 C   0  0  0  0  0  2  0  0  0  0  0  0
  188.0380  177.3120  143.1630 C   0  0  2  0  0  3  0  0  0  0  0  0
  190.8810  177.7040  144.9480 N   0  0  0  0  0  0  0  0  0  0  0  0
  190.1890  176.0940  143.2550 C   0  0  1  0  0  3  0  0  0  0  0  0
  185.6700  175.7900  138.5420 N   0  0  0  0  0  2  0  0  0  0  0  0
  185.3340  175.2520  134.8770 C   0  0  0  0  0  2  0  0  0  0  0  0
  184.3150  173.8470  137.9830 C   0  0  0  0  0  2  0  0  0  0  0  0
  184.7930  175.7310  136.2300 C   0  0  2  0  0  3  0  0  0  0  0  0
  185.2830  174.9100  137.4480 C   0  0  1  0  0  3  0  0  0  0  0  0
  183.9480  172.7780  137.0000 C   0  0  0  0  0  0  0  0  0  0  0  0
  185.0310  173.7890  134.5950 C   0  0  0  0  0  2  0  0  0  0  0  0
  182.7820  172.4080  136.9560 O   0  0  0  0  0  0  0  0  0  0  0  0
  185.8190  172.9730  135.4190 O   0  0  0  0  0  0  0  0  0  0  0  0
  184.9840  172.0850  136.1360 C   0  0  2  0  0  3  0  0  0  0  0  0
  180.6300  176.7580  138.4800 O   0  0  0  0  0  0  0  0  0  0  0  0
  183.3400  176.1310  136.1890 C   0  0  0  0  0  0  0  0  0  0  0  0
  181.0550  176.2820  137.2170 C   0  0  1  0  0  0  0  0  0  0  0  0
  179.9830  174.8500  139.7680 C   0  0  0  0  0  2  0  0  0  0  0  0
  182.5490  175.9940  137.2650 C   0  0  0  0  0  3  0  0  0  0  0  0
  181.5300  177.1200  134.8820 C   0  0  0  0  0  3  0  0  0  0  0  0
  182.7520  176.5750  134.9120 C   0  0  0  0  0  3  0  0  0  0  0  0
  180.7810  173.7590  137.5490 C   0  0  0  0  0  2  0  0  0  0  0  0
  180.3720  173.5570  139.0220 C   0  0  0  0  0  2  0  0  0  0  0  0
  180.2110  175.0390  136.8860 C   0  0  1  0  0  3  0  0  0  0  0  0
  178.9310  175.3990  137.5730 C   0  0  0  0  0  2  0  0  0  0  0  0
  180.7850  177.3820  136.1670 C   0  0  0  0  0  2  0  0  0  0  0  0
  179.5090  175.9850  138.8450 C   0  0  2  0  0  3  0  0  0  0  0  0
  184.3990  171.1420  135.2860 O   0  0  0  0  0  0  0  0  0  0  0  0
  185.3770  170.1630  135.1110 C   0  0  0  0  0  1  0  0  0  0  0  0
  186.7420  178.1600  136.7530 C   0  0  0  0  0  2  0  0  0  0  0  0
  187.9610  178.9050  137.0600 N   0  0  0  0  0  2  0  0  0  0  0  0
  189.0880  178.1130  136.5940 C   0  0  2  0  0  3  0  0  0  0  0  0
  188.9710  177.8800  135.1020 C   0  0  0  0  0  2  0  0  0  0  0  0
  188.5790  176.5550  134.8740 O   0  0  0  0  0  1  0  0  0  0  0  0
  189.1510  176.7840  137.3340 C   0  0  0  0  0  2  0  0  0  0  0  0
  189.8590  176.9420  138.6430 C   0  0  0  0  0  0  0  0  0  0  0  0
  189.3170  176.5500  139.7130 O   0  0  0  0  0  1  0  0  0  0  0  0
  191.1240  177.5170  138.6730 O   0  0  0  0  0  0  0  0  0  0  0  0
  1  5  1  0  0  0  0
  2  1  2  0  0  0  0
  3  6  1  0  0  0  0
  4  3  2  0  0  0  0
  4  2  1  0  0  0  0
  6  8  1  6  0  0  0
  6  1  1  0  0  0  0
  7  8  2  0  0  0  0
  8  9  1  0  0  0  0
 10  9  1  1  0  0  0
 10 11  1  0  0  0  0
 10 12  1  0  0  0  0
 11 12  1  0  0  0  0
 12 14  1  1  0  0  0
 13 19  1  0  0  0  0
 14 13  2  0  0  0  0
 16 20  2  0  0  0  0
 17 20  1  0  0  0  0
 18 22  1  0  0  0  0
 19 17  1  0  0  0  0
 20 15  1  0  0  0  0
 21 19  2  0  0  0  0
 22 15  2  0  0  0  0
 23 16  1  0  0  0  0
 23 18  2  0  0  0  0
 24 31  2  0  0  0  0
 25 29  1  1  0  0  0
 25 27  1  0  0  0  0
 26 30  1  0  0  0  0
 26 32  1  0  0  0  0
 27 31  1  0  0  0  0
 28 25  1  0  0  0  0
 28 32  1  0  0  0  0
 29 30  1  0  0  0  0
 30 23  1  1  0  0  0
 32 24  1  1  0  0  0
 33  2  1  0  0  0  0
 34 36  1  0  0  0  0
 36 44  1  6  0  0  0
 36 37  1  0  0  0  0
 37 35  1  0  0  0  0
 37 33  1  1  0  0  0
 38 35  1  0  0  0  0
 39 34  1  0  0  0  0
 39 41  1  0  0  0  0
 40 38  2  0  0  0  0
 41 42  1  0  0  0  0
 42 56  1  6  0  0  0
 42 38  1  0  0  0  0
 43 55  1  0  0  0  0
 44 47  2  0  0  0  0
 45 54  1  6  0  0  0
 45 47  1  0  0  0  0
 45 43  1  0  0  0  0
 48 49  2  0  0  0  0
 48 54  1  0  0  0  0
 49 44  1  0  0  0  0
 50 51  1  0  0  0  0
 51 46  1  0  0  0  0
 52 45  1  0  0  0  0
 52 50  1  1  0  0  0
 52 53  1  0  0  0  0
 55 53  1  6  0  0  0
 55 46  1  0  0  0  0
 57 56  1  0  0  0  0
 58 59  1  0  0  0  0
 58  4  1  0  0  0  0
 60 61  1  6  0  0  0
 60 59  1  0  0  0  0
 60 63  1  0  0  0  0
 62 61  1  0  0  0  0
 63 64  1  0  0  0  0
 64 66  2  0  0  0  0
 64 65  1  0  0  0  0
M  END
>  <MODEL>
8

>  <REMARK>
 VINA RESULT:      -4.4      3.625      8.942
  Name = 
  16 active torsions:
  status: ('A' for Active; 'I' for Inactive)
    1  A    between atoms: CA_3  and  C_12
    2  A    between atoms: CA_3  and  CB_35
    3  A    between atoms: CA_3  and  N_49
    4  A    between atoms: C_7  and  C_11
    5  A    between atoms: C_7  and  C_20
    6  A    between atoms: C_8  and  N_49
    7  A    between atoms: C_8  and  C_51
    8  A    between atoms: O_13  and  C_60
    9  A    between atoms: C_16  and  C_17
   10  A    between atoms: C_18  and  N_52
   11  A    between atoms: C_20  and  C_66
   12  A    between atoms: C_21  and  N_41
   13  A    between atoms: CG_24  and  CB_35
   14  A    between atoms: C_42  and  N_52
   15  A    between atoms: C_48  and  N_50
   16  A    between atoms: C_61  and  C_63
                            x       y       z     vdW  Elec       q    Type
                         _______ _______ _______ _____ _____    ______ ____

>  <TORSDO>
F 16

$$$$
=
 OpenBabel10222418373D

 66 74  0  0  1  0  0  0  0  0999 V2000
  187.0250  177.7700  139.0360 C   0  0  0  0  0  0  0  0  0  0  0  0
  186.3110  178.3490  139.9890 C   0  0  0  0  0  0  0  0  0  0  0  0
  184.9200  178.2340  138.1980 N   0  0  0  0  0  0  0  0  0  0  0  0
  185.0040  178.6300  139.4280 C   0  0  0  0  0  0  0  0  0  0  0  0
  188.3490  177.3600  139.1530 O   0  0  0  0  0  1  0  0  0  0  0  0
  186.1800  177.6010  137.8110 C   0  0  1  0  0  3  0  0  0  0  0  0
  187.1810  179.4120  136.6400 O   0  0  0  0  0  0  0  0  0  0  0  0
  186.7970  178.2540  136.5940 C   0  0  0  0  0  0  0  0  0  0  0  0
  186.9530  177.4850  135.3100 C   0  0  0  0  0  2  0  0  0  0  0  0
  185.5910  177.2550  134.6620 C   0  0  2  0  0  3  0  0  0  0  0  0
  184.6430  176.7040  135.7130 C   0  0  0  0  0  2  0  0  0  0  0  0
  185.1150  175.7970  134.5970 C   0  0  2  0  0  3  0  0  0  0  0  0
  185.7140  173.9110  135.8920 N   0  0  0  0  0  0  0  0  0  0  0  0
  186.0930  174.8540  135.1190 N   0  0  0  0  0  0  0  0  0  0  0  0
  189.7410  171.6070  134.8950 C   0  0  0  0  0  3  0  0  0  0  0  0
  189.4070  173.6940  135.9910 N   0  0  0  0  0  0  0  0  0  0  0  0
  187.5120  172.2100  135.6940 N   0  0  0  0  0  2  0  0  0  0  0  0
  191.5800  173.1590  135.1660 C   0  0  0  0  0  3  0  0  0  0  0  0
  186.6610  173.0290  136.4990 C   0  0  0  0  0  0  0  0  0  0  0  0
  188.9050  172.5100  135.5490 C   0  0  0  0  0  0  0  0  0  0  0  0
  186.8200  173.0570  137.7450 O   0  0  0  0  0  0  0  0  0  0  0  0
  191.0880  171.9340  134.7080 C   0  0  0  0  0  3  0  0  0  0  0  0
  190.7180  174.0390  135.8180 C   0  0  0  0  0  0  0  0  0  0  0  0
  194.1120  174.5890  135.4220 C   0  0  0  0  0  3  0  0  0  0  0  0
  193.1880  175.5280  137.8990 C   0  0  1  0  0  3  0  0  0  0  0  0
  192.1220  176.0280  135.2490 N   0  0  0  0  0  2  0  0  0  0  0  0
  193.8670  174.1500  137.7890 C   0  0  0  0  0  2  0  0  0  0  0  0
  193.7770  176.4720  136.9570 N   0  0  0  0  0  2  0  0  0  0  0  0
  191.6740  175.4700  137.7170 C   0  0  0  0  0  2  0  0  0  0  0  0
  191.2390  175.3850  136.2450 C   0  0  2  0  0  3  0  0  0  0  0  0
  194.2100  173.7850  136.4230 N   0  0  0  0  0  0  0  0  0  0  0  0
  193.5500  175.9780  135.5940 C   0  0  1  0  0  3  0  0  0  0  0  0
  186.7410  178.6780  141.3200 N   0  0  0  0  0  2  0  0  0  0  0  0
  188.2950  175.7640  143.0330 C   0  0  0  0  0  2  0  0  0  0  0  0
  188.8340  179.2300  142.4330 C   0  0  0  0  0  2  0  0  0  0  0  0
  187.4890  177.0690  143.0440 C   0  0  2  0  0  3  0  0  0  0  0  0
  187.9100  178.0970  141.9660 C   0  0  1  0  0  3  0  0  0  0  0  0
  190.1530  178.7790  142.9830 C   0  0  0  0  0  0  0  0  0  0  0  0
  189.7930  175.9840  143.1700 C   0  0  0  0  0  2  0  0  0  0  0  0
  190.5850  179.3380  143.9820 O   0  0  0  0  0  0  0  0  0  0  0  0
  190.3020  176.5370  141.9870 O   0  0  0  0  0  0  0  0  0  0  0  0
  191.0010  177.7290  142.2910 C   0  0  2  0  0  3  0  0  0  0  0  0
  188.9430  179.1370  147.1730 O   0  0  0  0  0  0  0  0  0  0  0  0
  187.1970  177.5820  144.4320 C   0  0  0  0  0  0  0  0  0  0  0  0
  187.9190  178.2650  146.7360 C   0  0  1  0  0  0  0  0  0  0  0  0
  190.6650  177.7800  148.1270 C   0  0  0  0  0  2  0  0  0  0  0  0
  188.1880  177.8540  145.2950 C   0  0  0  0  0  3  0  0  0  0  0  0
  185.4960  178.3100  146.0240 C   0  0  0  0  0  3  0  0  0  0  0  0
  185.7970  177.6790  144.8830 C   0  0  0  0  0  3  0  0  0  0  0  0
  188.9440  175.9980  147.3410 C   0  0  0  0  0  2  0  0  0  0  0  0
  190.3670  176.2900  147.8580 C   0  0  0  0  0  2  0  0  0  0  0  0
  187.8870  177.0710  147.7070 C   0  0  1  0  0  3  0  0  0  0  0  0
  188.3170  177.7470  148.9720 C   0  0  0  0  0  2  0  0  0  0  0  0
  186.5730  179.0200  146.8060 C   0  0  0  0  0  2  0  0  0  0  0  0
  189.4110  178.6270  148.4010 C   0  0  2  0  0  3  0  0  0  0  0  0
  192.1740  177.4620  143.0020 O   0  0  0  0  0  0  0  0  0  0  0  0
  193.1090  177.1070  142.0310 C   0  0  0  0  0  1  0  0  0  0  0  0
  183.9030  179.3650  140.1200 C   0  0  0  0  0  2  0  0  0  0  0  0
  182.9470  179.9060  139.1570 N   0  0  0  0  0  2  0  0  0  0  0  0
  181.6280  179.4200  139.5270 C   0  0  2  0  0  3  0  0  0  0  0  0
  180.6620  180.5830  139.6320 C   0  0  0  0  0  2  0  0  0  0  0  0
  180.5230  181.1780  138.3710 O   0  0  0  0  0  1  0  0  0  0  0  0
  181.6870  178.6610  140.8450 C   0  0  0  0  0  2  0  0  0  0  0  0
  180.3090  178.3560  141.3410 C   0  0  0  0  0  0  0  0  0  0  0  0
  179.6240  177.4440  140.8010 O   0  0  0  0  0  0  0  0  0  0  0  0
  179.7890  179.0780  142.4090 O   0  0  0  0  0  1  0  0  0  0  0  0
  1  5  1  0  0  0  0
  1  2  2  0  0  0  0
  2 33  1  0  0  0  0
  3  4  2  0  0  0  0
  4  2  1  0  0  0  0
  4 58  1  0  0  0  0
  6  8  1  6  0  0  0
  6  3  1  0  0  0  0
  6  1  1  0  0  0  0
  8  7  2  0  0  0  0
  9  8  1  0  0  0  0
 10  9  1  1  0  0  0
 10 11  1  0  0  0  0
 12 10  1  0  0  0  0
 12 14  1  1  0  0  0
 12 11  1  0  0  0  0
 13 19  1  0  0  0  0
 14 13  2  0  0  0  0
 15 20  1  0  0  0  0
 17 19  1  0  0  0  0
 18 23  2  0  0  0  0
 19 21  2  0  0  0  0
 20 17  1  0  0  0  0
 20 16  2  0  0  0  0
 22 15  2  0  0  0  0
 22 18  1  0  0  0  0
 23 16  1  0  0  0  0
 24 31  2  0  0  0  0
 25 29  1  6  0  0  0
 26 32  1  0  0  0  0
 26 30  1  0  0  0  0
 27 25  1  0  0  0  0
 28 25  1  0  0  0  0
 30 23  1  6  0  0  0
 30 29  1  0  0  0  0
 31 27  1  0  0  0  0
 32 24  1  1  0  0  0
 32 28  1  0  0  0  0
 34 36  1  0  0  0  0
 34 39  1  0  0  0  0
 35 38  1  0  0  0  0
 36 44  1  1  0  0  0
 37 33  1  1  0  0  0
 37 35  1  0  0  0  0
 37 36  1  0  0  0  0
 38 40  2  0  0  0  0
 41 42  1  0  0  0  0
 41 39  1  0  0  0  0
 42 38  1  0  0  0  0
 42 56  1  1  0  0  0
 43 55  1  0  0  0  0
 44 49  1  0  0  0  0
 44 47  2  0  0  0  0
 45 47  1  6  0  0  0
 45 54  1  0  0  0  0
 45 43  1  0  0  0  0
 45 52  1  0  0  0  0
 48 54  1  0  0  0  0
 49 48  2  0  0  0  0
 50 51  1  0  0  0  0
 51 46  1  0  0  0  0
 52 50  1  6  0  0  0
 52 53  1  0  0  0  0
 55 46  1  6  0  0  0
 55 53  1  0  0  0  0
 57 56  1  0  0  0  0
 59 60  1  0  0  0  0
 59 58  1  0  0  0  0
 60 61  1  1  0  0  0
 60 63  1  0  0  0  0
 62 61  1  0  0  0  0
 63 64  1  0  0  0  0
 64 66  1  0  0  0  0
 65 64  2  0  0  0  0
M  END
>  <MODEL>
9

>  <REMARK>
 VINA RESULT:      -4.4      2.800     10.706
  Name = 
  16 active torsions:
  status: ('A' for Active; 'I' for Inactive)
    1  A    between atoms: CA_3  and  C_12
    2  A    between atoms: CA_3  and  CB_35
    3  A    between atoms: CA_3  and  N_49
    4  A    between atoms: C_7  and  C_11
    5  A    between atoms: C_7  and  C_20
    6  A    between atoms: C_8  and  N_49
    7  A    between atoms: C_8  and  C_51
    8  A    between atoms: O_13  and  C_60
    9  A    between atoms: C_16  and  C_17
   10  A    between atoms: C_18  and  N_52
   11  A    between atoms: C_20  and  C_66
   12  A    between atoms: C_21  and  N_41
   13  A    between atoms: CG_24  and  CB_35
   14  A    between atoms: C_42  and  N_52
   15  A    between atoms: C_48  and  N_50
   16  A    between atoms: C_61  and  C_63
                            x       y       z     vdW  Elec       q    Type
                         _______ _______ _______ _____ _____    ______ ____

>  <TORSDO>
F 16

$$$$
