=
 OpenBabel10222415563D

 58 62  0  0  1  0  0  0  0  0999 V2000
  186.3030  177.5660  144.4480 C   0  0  2  0  0  3  0  0  0  0  0  0
  190.2350  175.9980  142.4480 C   0  0  0  0  0  1  0  0  0  0  0  0
  187.8090  179.4060  140.6680 O   0  0  0  0  0  1  0  0  0  0  0  0
  188.7000  177.2330  143.9640 C   0  0  2  0  0  3  0  0  0  0  0  0
  186.1910  179.1810  146.2020 O   0  0  0  0  0  0  0  0  0  0  0  0
  189.8700  177.3640  142.9800 C   0  0  2  0  0  3  0  0  0  0  0  0
  186.6800  178.1400  145.7880 C   0  0  0  0  0  0  0  0  0  0  0  0
  187.4220  177.9360  143.4810 C   0  0  1  0  0  3  0  0  0  0  0  0
  188.2490  178.1490  141.0990 C   0  0  1  0  0  0  0  0  0  0  0  0
  187.9600  177.5930  146.3670 C   0  0  1  0  0  3  0  0  0  0  0  0
  189.0970  177.7540  145.3540 C   0  0  0  0  0  2  0  0  0  0  0  0
  189.6060  178.3540  141.8450 C   0  0  0  0  0  2  0  0  0  0  0  0
  187.1660  177.5520  142.0280 C   0  0  0  0  0  2  0  0  0  0  0  0
  187.5500  177.4950  148.8910 C   0  0  0  0  0  1  0  0  0  0  0  0
  188.3640  178.1020  147.7580 C   0  0  1  0  0  3  0  0  0  0  0  0
  189.8450  177.9880  148.0370 C   0  0  0  0  0  2  0  0  0  0  0  0
  190.3240  176.5730  147.7260 C   0  0  0  0  0  2  0  0  0  0  0  0
  192.5500  175.4890  148.1120 C   0  0  0  0  0  1  0  0  0  0  0  0
  191.7910  176.5290  147.3090 C   0  0  0  0  0  3  0  0  0  0  0  0
  191.9500  176.2470  145.8240 C   0  0  0  0  0  1  0  0  0  0  0  0
  188.3920  177.2690  139.9860 O   0  0  0  0  0  0  0  0  0  0  0  0
  189.4410  177.7250  139.1640 C   0  0  0  0  0  2  0  0  0  0  0  0
  188.1710  175.9030  137.4590 S   0  0  0  0  0  1  0  0  0  0  0  0
  189.6740  176.8030  137.9660 C   0  0  2  0  0  3  0  0  0  0  0  0
  190.7050  175.8470  138.3180 N   0  0  0  0  0  2  0  0  0  0  0  0
  191.8160  175.3890  136.1900 C   0  0  0  0  0  2  0  0  0  0  0  0
  193.1510  175.8330  138.3160 C   0  0  0  0  0  2  0  0  0  0  0  0
  194.1030  174.9350  137.5300 C   0  0  0  0  0  2  0  0  0  0  0  0
  192.1910  173.9090  136.3910 C   0  0  0  0  0  2  0  0  0  0  0  0
  193.4230  173.6840  137.1800 N   0  0  1  0  0  0  0  0  0  0  0  0
  191.8840  176.1520  137.5170 C   0  0  2  0  0  3  0  0  0  0  0  0
  193.9380  171.4240  136.4780 C   0  0  0  0  0  2  0  0  0  0  0  0
  195.0630  172.1480  138.5520 F   0  0  0  0  0  0  0  0  0  0  0  0
  194.3270  172.8940  136.3530 C   0  0  2  0  0  3  0  0  0  0  0  0
  195.1620  171.9370  137.1970 C   0  0  2  0  0  0  0  0  0  0  0  0
  196.5150  171.6230  136.5830 C   0  0  0  0  0  2  0  0  0  0  0  0
  196.9450  172.7450  135.6590 C   0  0  0  0  0  2  0  0  0  0  0  0
  198.3520  173.0380  135.8770 N   0  0  0  0  0  2  0  0  0  0  0  0
  198.1070  174.5680  137.7570 C   0  0  0  0  0  1  0  0  0  0  0  0
  198.5460  173.1880  137.3100 C   0  0  0  0  0  2  0  0  0  0  0  0
  184.8710  177.8410  143.9500 C   0  0  0  0  0  2  0  0  0  0  0  0
  184.5790  179.2700  143.5270 C   0  0  0  0  0  2  0  0  0  0  0  0
  183.3940  179.7620  144.3180 C   0  0  0  0  0  2  0  0  0  0  0  0
  182.0920  179.2400  143.7950 C   0  0  0  0  0  0  0  0  0  0  0  0
  181.5680  178.2280  144.3290 O   0  0  0  0  0  0  0  0  0  0  0  0
  181.4210  179.9240  142.7340 N   0  0  0  0  0  2  0  0  0  0  0  0
  180.1200  179.5050  142.2480 C   0  0  0  0  0  2  0  0  0  0  0  0
  180.1270  179.3860  140.7330 C   0  0  0  0  0  2  0  0  0  0  0  0
  181.6190  177.8440  139.3390 N   0  0  0  0  0  0  0  0  0  0  0  0
  184.3380  179.3350  139.8710 C   0  0  0  0  0  1  0  0  0  0  0  0
  182.1790  179.0140  138.6600 C   0  0  0  0  0  2  0  0  0  0  0  0
  184.1910  177.4920  138.2090 C   0  0  1  0  0  3  0  0  0  0  0  0
  180.0670  177.0190  140.9040 O   0  0  0  0  0  0  0  0  0  0  0  0
  183.0590  176.5390  137.8210 C   0  0  0  0  0  2  0  0  0  0  0  0
  185.1290  177.5730  137.1860 O   0  0  0  0  0  1  0  0  0  0  0  0
  182.0340  176.4920  138.9480 C   0  0  0  0  0  2  0  0  0  0  0  0
  183.7000  178.9050  138.5700 C   0  0  2  0  0  3  0  0  0  0  0  0
  180.5770  178.0190  140.3260 C   0  0  0  0  0  0  0  0  0  0  0  0
  1 41  1  6  0  0  0
  1  7  1  0  0  0  0
  4 11  1  1  0  0  0
  6  2  1  6  0  0  0
  6  4  1  0  0  0  0
  7  5  2  0  0  0  0
  7 10  1  0  0  0  0
  8 13  1  6  0  0  0
  8  4  1  0  0  0  0
  8  1  1  0  0  0  0
  9  3  1  6  0  0  0
  9 12  1  0  0  0  0
  9 13  1  0  0  0  0
 10 15  1  1  0  0  0
 11 10  1  0  0  0  0
 12  6  1  0  0  0  0
 15 16  1  0  0  0  0
 15 14  1  1  0  0  0
 17 16  1  0  0  0  0
 19 17  1  0  0  0  0
 19 18  1  0  0  0  0
 20 19  1  0  0  0  0
 21  9  1  0  0  0  0
 22 21  1  0  0  0  0
 24 23  1  1  0  0  0
 24 25  1  0  0  0  0
 24 22  1  0  0  0  0
 26 29  1  0  0  0  0
 26 31  1  0  0  0  0
 28 27  1  0  0  0  0
 30 29  1  6  0  0  0
 30 28  1  0  0  0  0
 31 27  1  0  0  0  0
 31 25  1  1  0  0  0
 32 35  1  0  0  0  0
 34 32  1  6  0  0  0
 34 30  1  0  0  0  0
 34 35  1  0  0  0  0
 35 33  1  1  0  0  0
 36 35  1  0  0  0  0
 37 38  1  0  0  0  0
 37 36  1  0  0  0  0
 38 40  1  0  0  0  0
 40 39  1  0  0  0  0
 42 41  1  0  0  0  0
 42 43  1  0  0  0  0
 44 43  1  0  0  0  0
 44 45  2  0  0  0  0
 46 44  1  0  0  0  0
 47 46  1  0  0  0  0
 48 47  1  0  0  0  0
 49 58  1  0  0  0  0
 51 49  1  0  0  0  0
 52 55  1  6  0  0  0
 52 57  1  0  0  0  0
 54 52  1  0  0  0  0
 54 56  1  0  0  0  0
 56 49  1  0  0  0  0
 57 51  1  0  0  0  0
 57 50  1  1  0  0  0
 58 48  1  0  0  0  0
 58 53  2  0  0  0  0
M  END
>  <MODEL>
1

>  <REMARK>
 VINA RESULT:      -7.3      0.000      0.000
  Name = 
  21 active torsions:
  status: ('A' for Active; 'I' for Inactive)
    1  A    between atoms: C_2  and  C_39
    2  A    between atoms: C_2  and  C_56
    3  A    between atoms: C_3  and  C_23
    4  A    between atoms: C_5  and  C_15
    5  A    between atoms: C_8  and  C_18
    6  A    between atoms: C_15  and  C_45
    7  A    between atoms: C_16  and  C_17
    8  A    between atoms: C_16  and  N_27
    9  A    between atoms: C_17  and  C_51
   10  A    between atoms: C_18  and  C_36
   11  A    between atoms: C_23  and  C_45
   12  A    between atoms: C_24  and  N_32
   13  A    between atoms: O_29  and  C_42
   14  A    between atoms: O_29  and  C_46
   15  A    between atoms: N_32  and  C_39
   16  A    between atoms: C_35  and  N_49
   17  A    between atoms: C_36  and  C_58
   18  A    between atoms: C_44  and  C_58
   19  A    between atoms: C_46  and  C_50
   20  A    between atoms: C_50  and  N_57
   21  A    between atoms: C_54  and  N_57
                            x       y       z     vdW  Elec       q    Type
                         _______ _______ _______ _____ _____    ______ ____

>  <TORSDO>
F 21

$$$$
=
 OpenBabel10222415563D

 58 62  0  0  1  0  0  0  0  0999 V2000
  186.1140  177.6900  144.5320 C   0  0  2  0  0  3  0  0  0  0  0  0
  189.9480  176.0440  142.4100 C   0  0  0  0  0  1  0  0  0  0  0  0
  187.6530  179.6300  140.8170 O   0  0  0  0  0  1  0  0  0  0  0  0
  188.4880  177.2760  144.0010 C   0  0  2  0  0  3  0  0  0  0  0  0
  186.0950  179.2280  146.3580 O   0  0  0  0  0  0  0  0  0  0  0  0
  189.6500  177.3990  143.0060 C   0  0  2  0  0  3  0  0  0  0  0  0
  186.5320  178.1870  145.8920 C   0  0  0  0  0  0  0  0  0  0  0  0
  187.2360  178.0540  143.5670 C   0  0  1  0  0  3  0  0  0  0  0  0
  188.0430  178.3380  141.1860 C   0  0  1  0  0  0  0  0  0  0  0  0
  187.7940  177.5590  146.4270 C   0  0  1  0  0  3  0  0  0  0  0  0
  188.9240  177.7150  145.4060 C   0  0  0  0  0  2  0  0  0  0  0  0
  189.4160  178.4500  141.9210 C   0  0  0  0  0  2  0  0  0  0  0  0
  186.9460  177.7480  142.1020 C   0  0  0  0  0  2  0  0  0  0  0  0
  187.5460  177.2210  148.9510 C   0  0  0  0  0  1  0  0  0  0  0  0
  188.2370  177.9870  147.8330 C   0  0  1  0  0  3  0  0  0  0  0  0
  189.7360  177.9810  148.0230 C   0  0  0  0  0  2  0  0  0  0  0  0
  190.2880  176.5840  147.7580 C   0  0  0  0  0  2  0  0  0  0  0  0
  192.6140  175.7140  148.0860 C   0  0  0  0  0  1  0  0  0  0  0  0
  191.7240  176.6080  147.2430 C   0  0  0  0  0  3  0  0  0  0  0  0
  191.8120  176.1920  145.7850 C   0  0  0  0  0  1  0  0  0  0  0  0
  188.1330  177.5030  140.0330 O   0  0  0  0  0  0  0  0  0  0  0  0
  189.1270  178.0070  139.1710 C   0  0  0  0  0  2  0  0  0  0  0  0
  187.5340  176.4120  137.5100 S   0  0  0  0  0  1  0  0  0  0  0  0
  188.8430  177.6660  137.7070 C   0  0  2  0  0  3  0  0  0  0  0  0
  190.0670  177.1740  137.1060 N   0  0  0  0  0  2  0  0  0  0  0  0
  191.9530  176.6230  138.5610 C   0  0  0  0  0  2  0  0  0  0  0  0
  190.7300  174.8220  137.2330 C   0  0  0  0  0  2  0  0  0  0  0  0
  192.1300  174.2270  137.3510 C   0  0  0  0  0  2  0  0  0  0  0  0
  193.0730  176.4840  137.5130 C   0  0  0  0  0  2  0  0  0  0  0  0
  193.1150  175.1760  136.8200 N   0  0  1  0  0  0  0  0  0  0  0  0
  190.6130  176.1490  137.9880 C   0  0  2  0  0  3  0  0  0  0  0  0
  195.3680  175.1260  135.9340 C   0  0  0  0  0  2  0  0  0  0  0  0
  193.8460  173.4240  134.9960 F   0  0  0  0  0  0  0  0  0  0  0  0
  194.4440  174.6160  137.0350 C   0  0  2  0  0  3  0  0  0  0  0  0
  194.8580  173.7070  135.8830 C   0  0  2  0  0  0  0  0  0  0  0  0
  195.8150  172.6060  136.3050 C   0  0  0  0  0  2  0  0  0  0  0  0
  197.2170  172.9120  135.8170 C   0  0  0  0  0  2  0  0  0  0  0  0
  198.0990  173.0900  136.9580 N   0  0  0  0  0  2  0  0  0  0  0  0
  198.8370  174.6040  135.1980 C   0  0  0  0  0  1  0  0  0  0  0  0
  199.1590  173.9960  136.5490 C   0  0  0  0  0  2  0  0  0  0  0  0
  184.6900  178.0500  144.0670 C   0  0  0  0  0  2  0  0  0  0  0  0
  184.5920  178.8180  142.7610 C   0  0  0  0  0  2  0  0  0  0  0  0
  183.1950  178.6550  142.2220 C   0  0  0  0  0  2  0  0  0  0  0  0
  183.1720  178.3500  140.7560 C   0  0  0  0  0  0  0  0  0  0  0  0
  183.9910  178.9220  139.9890 O   0  0  0  0  0  0  0  0  0  0  0  0
  182.2660  177.3710  140.2430 N   0  0  0  0  0  2  0  0  0  0  0  0
  182.2620  176.9820  138.8450 C   0  0  0  0  0  2  0  0  0  0  0  0
  183.0460  175.6960  138.6440 C   0  0  0  0  0  2  0  0  0  0  0  0
  184.3870  174.5160  136.8120 N   0  0  0  0  0  0  0  0  0  0  0  0
  182.9120  171.7410  136.9650 C   0  0  0  0  0  1  0  0  0  0  0  0
  184.6240  173.3930  137.7210 C   0  0  0  0  0  2  0  0  0  0  0  0
  184.9500  172.0330  135.5740 C   0  0  1  0  0  3  0  0  0  0  0  0
  183.4580  176.6580  136.5130 O   0  0  0  0  0  0  0  0  0  0  0  0
  185.8010  173.2570  135.2310 C   0  0  0  0  0  2  0  0  0  0  0  0
  185.6840  170.8660  135.3880 O   0  0  0  0  0  1  0  0  0  0  0  0
  184.9810  174.5200  135.4700 C   0  0  0  0  0  2  0  0  0  0  0  0
  184.3870  172.0640  137.0060 C   0  0  2  0  0  3  0  0  0  0  0  0
  183.6520  175.6700  137.2770 C   0  0  0  0  0  0  0  0  0  0  0  0
  1 41  1  6  0  0  0
  1  7  1  0  0  0  0
  4 11  1  1  0  0  0
  6  2  1  6  0  0  0
  6  4  1  0  0  0  0
  7  5  2  0  0  0  0
  7 10  1  0  0  0  0
  8 13  1  6  0  0  0
  8  4  1  0  0  0  0
  8  1  1  0  0  0  0
  9  3  1  6  0  0  0
  9 12  1  0  0  0  0
  9 13  1  0  0  0  0
 10 15  1  1  0  0  0
 11 10  1  0  0  0  0
 12  6  1  0  0  0  0
 15 16  1  0  0  0  0
 15 14  1  1  0  0  0
 17 16  1  0  0  0  0
 19 17  1  0  0  0  0
 19 18  1  0  0  0  0
 20 19  1  0  0  0  0
 21  9  1  0  0  0  0
 22 21  1  0  0  0  0
 24 23  1  1  0  0  0
 24 22  1  0  0  0  0
 25 24  1  0  0  0  0
 27 28  1  0  0  0  0
 27 31  1  0  0  0  0
 29 26  1  0  0  0  0
 30 34  1  0  0  0  0
 30 28  1  1  0  0  0
 30 29  1  0  0  0  0
 31 25  1  6  0  0  0
 31 26  1  0  0  0  0
 34 32  1  6  0  0  0
 35 33  1  6  0  0  0
 35 32  1  0  0  0  0
 35 36  1  0  0  0  0
 35 34  1  0  0  0  0
 37 36  1  0  0  0  0
 37 38  1  0  0  0  0
 39 40  1  0  0  0  0
 40 38  1  0  0  0  0
 42 41  1  0  0  0  0
 43 42  1  0  0  0  0
 44 43  1  0  0  0  0
 45 44  2  0  0  0  0
 46 44  1  0  0  0  0
 47 46  1  0  0  0  0
 48 47  1  0  0  0  0
 49 58  1  0  0  0  0
 49 51  1  0  0  0  0
 52 55  1  1  0  0  0
 52 57  1  0  0  0  0
 53 58  2  0  0  0  0
 54 56  1  0  0  0  0
 54 52  1  0  0  0  0
 56 49  1  0  0  0  0
 57 50  1  6  0  0  0
 57 51  1  0  0  0  0
 58 48  1  0  0  0  0
M  END
>  <MODEL>
2

>  <REMARK>
 VINA RESULT:      -7.1      2.183      3.132
  Name = 
  21 active torsions:
  status: ('A' for Active; 'I' for Inactive)
    1  A    between atoms: C_2  and  C_39
    2  A    between atoms: C_2  and  C_56
    3  A    between atoms: C_3  and  C_23
    4  A    between atoms: C_5  and  C_15
    5  A    between atoms: C_8  and  C_18
    6  A    between atoms: C_15  and  C_45
    7  A    between atoms: C_16  and  C_17
    8  A    between atoms: C_16  and  N_27
    9  A    between atoms: C_17  and  C_51
   10  A    between atoms: C_18  and  C_36
   11  A    between atoms: C_23  and  C_45
   12  A    between atoms: C_24  and  N_32
   13  A    between atoms: O_29  and  C_42
   14  A    between atoms: O_29  and  C_46
   15  A    between atoms: N_32  and  C_39
   16  A    between atoms: C_35  and  N_49
   17  A    between atoms: C_36  and  C_58
   18  A    between atoms: C_44  and  C_58
   19  A    between atoms: C_46  and  C_50
   20  A    between atoms: C_50  and  N_57
   21  A    between atoms: C_54  and  N_57
                            x       y       z     vdW  Elec       q    Type
                         _______ _______ _______ _____ _____    ______ ____

>  <TORSDO>
F 21

$$$$
=
 OpenBabel10222415563D

 58 62  0  0  1  0  0  0  0  0999 V2000
  185.5940  177.8780  145.1020 C   0  0  2  0  0  3  0  0  0  0  0  0
  189.1050  176.4200  142.3700 C   0  0  0  0  0  1  0  0  0  0  0  0
  186.4640  179.9430  141.2400 O   0  0  0  0  0  1  0  0  0  0  0  0
  187.8690  177.5650  144.1970 C   0  0  2  0  0  3  0  0  0  0  0  0
  185.8060  179.3810  146.9440 O   0  0  0  0  0  0  0  0  0  0  0  0
  188.8560  177.7510  143.0380 C   0  0  2  0  0  3  0  0  0  0  0  0
  186.2020  178.3660  146.3910 C   0  0  0  0  0  0  0  0  0  0  0  0
  186.5380  178.3020  143.9830 C   0  0  1  0  0  3  0  0  0  0  0  0
  186.9520  178.6600  141.5120 C   0  0  1  0  0  0  0  0  0  0  0  0
  187.5530  177.7780  146.7080 C   0  0  1  0  0  3  0  0  0  0  0  0
  188.5040  177.9960  145.5280 C   0  0  0  0  0  2  0  0  0  0  0  0
  188.4190  178.8120  142.0270 C   0  0  0  0  0  2  0  0  0  0  0  0
  186.0330  178.0120  142.5730 C   0  0  0  0  0  2  0  0  0  0  0  0
  187.6200  177.4760  149.2480 C   0  0  0  0  0  1  0  0  0  0  0  0
  188.1950  178.1970  148.0380 C   0  0  1  0  0  3  0  0  0  0  0  0
  189.7050  178.1190  148.0330 C   0  0  0  0  0  2  0  0  0  0  0  0
  190.1510  176.7100  147.6580 C   0  0  0  0  0  2  0  0  0  0  0  0
  192.3880  175.5990  147.8510 C   0  0  0  0  0  1  0  0  0  0  0  0
  191.5830  176.6670  147.1340 C   0  0  0  0  0  3  0  0  0  0  0  0
  191.6320  176.4260  145.6350 C   0  0  0  0  0  1  0  0  0  0  0  0
  186.8900  177.8510  140.3400 O   0  0  0  0  0  0  0  0  0  0  0  0
  188.0560  178.0510  139.5740 C   0  0  0  0  0  2  0  0  0  0  0  0
  186.2270  177.1930  137.6360 S   0  0  0  0  0  1  0  0  0  0  0  0
  187.7600  178.0780  138.0740 C   0  0  2  0  0  3  0  0  0  0  0  0
  188.8760  177.4700  137.3760 N   0  0  0  0  0  2  0  0  0  0  0  0
  190.4080  176.4640  138.9930 C   0  0  0  0  0  2  0  0  0  0  0  0
  189.4590  175.1170  137.0470 C   0  0  0  0  0  2  0  0  0  0  0  0
  190.7940  174.4190  137.2890 C   0  0  0  0  0  2  0  0  0  0  0  0
  191.7190  176.5040  138.1860 C   0  0  0  0  0  2  0  0  0  0  0  0
  191.8830  175.3990  137.2150 N   0  0  1  0  0  0  0  0  0  0  0  0
  189.2090  176.2310  138.0680 C   0  0  2  0  0  3  0  0  0  0  0  0
  194.2470  175.3170  136.6980 C   0  0  0  0  0  2  0  0  0  0  0  0
  192.8230  173.8930  135.2710 F   0  0  0  0  0  0  0  0  0  0  0  0
  193.1280  174.7160  137.5430 C   0  0  2  0  0  3  0  0  0  0  0  0
  193.6850  173.9630  136.3400 C   0  0  2  0  0  0  0  0  0  0  0  0
  194.5040  172.7430  136.7250 C   0  0  0  0  0  2  0  0  0  0  0  0
  195.6030  173.1320  137.6930 C   0  0  0  0  0  2  0  0  0  0  0  0
  196.8830  172.6720  137.1810 N   0  0  0  0  0  2  0  0  0  0  0  0
  197.9900  174.5990  138.1780 C   0  0  0  0  0  1  0  0  0  0  0  0
  197.6850  173.8510  136.8960 C   0  0  0  0  0  2  0  0  0  0  0  0
  184.1030  178.1910  144.8720 C   0  0  0  0  0  2  0  0  0  0  0  0
  183.7840  179.0540  143.6650 C   0  0  0  0  0  2  0  0  0  0  0  0
  182.2910  179.0470  143.4610 C   0  0  0  0  0  2  0  0  0  0  0  0
  181.9040  178.9430  142.0190 C   0  0  0  0  0  0  0  0  0  0  0  0
  182.7110  178.4420  141.1930 O   0  0  0  0  0  0  0  0  0  0  0  0
  180.6030  179.3560  141.5960 N   0  0  0  0  0  2  0  0  0  0  0  0
  180.1520  179.2000  140.2250 C   0  0  0  0  0  2  0  0  0  0  0  0
  178.9330  178.2960  140.1610 C   0  0  0  0  0  2  0  0  0  0  0  0
  179.8970  176.1640  139.1260 N   0  0  0  0  0  0  0  0  0  0  0  0
  182.3670  177.4950  137.7040 C   0  0  0  0  0  1  0  0  0  0  0  0
  179.9630  176.8360  137.8270 C   0  0  0  0  0  2  0  0  0  0  0  0
  181.7860  175.1130  137.2980 C   0  0  1  0  0  3  0  0  0  0  0  0
  179.2610  176.2910  141.3890 O   0  0  0  0  0  0  0  0  0  0  0  0
  180.7320  174.1880  137.9080 C   0  0  0  0  0  2  0  0  0  0  0  0
  182.1920  174.6320  136.0570 O   0  0  0  0  0  1  0  0  0  0  0  0
  180.2850  174.7550  139.2520 C   0  0  0  0  0  2  0  0  0  0  0  0
  181.3090  176.5690  137.1530 C   0  0  2  0  0  3  0  0  0  0  0  0
  179.3480  176.8630  140.2660 C   0  0  0  0  0  0  0  0  0  0  0  0
  1 41  1  6  0  0  0
  1  7  1  0  0  0  0
  4 11  1  1  0  0  0
  6  2  1  6  0  0  0
  6  4  1  0  0  0  0
  7 10  1  0  0  0  0
  7  5  2  0  0  0  0
  8 13  1  6  0  0  0
  8  4  1  0  0  0  0
  8  1  1  0  0  0  0
  9  3  1  6  0  0  0
  9 12  1  0  0  0  0
  9 13  1  0  0  0  0
 10 15  1  1  0  0  0
 11 10  1  0  0  0  0
 12  6  1  0  0  0  0
 15 14  1  1  0  0  0
 16 15  1  0  0  0  0
 17 16  1  0  0  0  0
 19 17  1  0  0  0  0
 19 18  1  0  0  0  0
 20 19  1  0  0  0  0
 21  9  1  0  0  0  0
 22 21  1  0  0  0  0
 24 23  1  1  0  0  0
 24 22  1  0  0  0  0
 25 24  1  0  0  0  0
 27 28  1  0  0  0  0
 27 31  1  0  0  0  0
 29 26  1  0  0  0  0
 30 28  1  1  0  0  0
 30 34  1  0  0  0  0
 30 29  1  0  0  0  0
 31 25  1  6  0  0  0
 31 26  1  0  0  0  0
 34 32  1  6  0  0  0
 35 33  1  6  0  0  0
 35 32  1  0  0  0  0
 35 36  1  0  0  0  0
 35 34  1  0  0  0  0
 36 37  1  0  0  0  0
 38 37  1  0  0  0  0
 40 38  1  0  0  0  0
 40 39  1  0  0  0  0
 42 41  1  0  0  0  0
 43 42  1  0  0  0  0
 44 43  1  0  0  0  0
 45 44  2  0  0  0  0
 46 44  1  0  0  0  0
 47 46  1  0  0  0  0
 48 47  1  0  0  0  0
 48 58  1  0  0  0  0
 49 56  1  0  0  0  0
 49 58  1  0  0  0  0
 51 49  1  0  0  0  0
 52 55  1  6  0  0  0
 52 54  1  0  0  0  0
 54 56  1  0  0  0  0
 57 52  1  0  0  0  0
 57 50  1  1  0  0  0
 57 51  1  0  0  0  0
 58 53  2  0  0  0  0
M  END
>  <MODEL>
3

>  <REMARK>
 VINA RESULT:      -7.0      1.643      2.222
  Name = 
  21 active torsions:
  status: ('A' for Active; 'I' for Inactive)
    1  A    between atoms: C_2  and  C_39
    2  A    between atoms: C_2  and  C_56
    3  A    between atoms: C_3  and  C_23
    4  A    between atoms: C_5  and  C_15
    5  A    between atoms: C_8  and  C_18
    6  A    between atoms: C_15  and  C_45
    7  A    between atoms: C_16  and  C_17
    8  A    between atoms: C_16  and  N_27
    9  A    between atoms: C_17  and  C_51
   10  A    between atoms: C_18  and  C_36
   11  A    between atoms: C_23  and  C_45
   12  A    between atoms: C_24  and  N_32
   13  A    between atoms: O_29  and  C_42
   14  A    between atoms: O_29  and  C_46
   15  A    between atoms: N_32  and  C_39
   16  A    between atoms: C_35  and  N_49
   17  A    between atoms: C_36  and  C_58
   18  A    between atoms: C_44  and  C_58
   19  A    between atoms: C_46  and  C_50
   20  A    between atoms: C_50  and  N_57
   21  A    between atoms: C_54  and  N_57
                            x       y       z     vdW  Elec       q    Type
                         _______ _______ _______ _____ _____    ______ ____

>  <TORSDO>
F 21

$$$$
=
 OpenBabel10222415563D

 58 62  0  0  1  0  0  0  0  0999 V2000
  185.6080  177.7840  145.2900 C   0  0  2  0  0  3  0  0  0  0  0  0
  188.9490  176.5350  142.2590 C   0  0  0  0  0  1  0  0  0  0  0  0
  186.0390  179.9170  141.3910 O   0  0  0  0  0  1  0  0  0  0  0  0
  187.8120  177.6000  144.1960 C   0  0  2  0  0  3  0  0  0  0  0  0
  185.8930  179.2850  147.1240 O   0  0  0  0  0  0  0  0  0  0  0  0
  188.6870  177.8470  142.9600 C   0  0  2  0  0  3  0  0  0  0  0  0
  186.2940  178.2970  146.5300 C   0  0  0  0  0  0  0  0  0  0  0  0
  186.4310  178.2660  144.1010 C   0  0  1  0  0  3  0  0  0  0  0  0
  186.6160  178.6610  141.6080 C   0  0  1  0  0  0  0  0  0  0  0  0
  187.6980  177.7800  146.7260 C   0  0  1  0  0  3  0  0  0  0  0  0
  188.5330  178.0570  145.4730 C   0  0  0  0  0  2  0  0  0  0  0  0
  188.1100  178.8880  142.0010 C   0  0  0  0  0  2  0  0  0  0  0  0
  185.8250  177.9570  142.7360 C   0  0  0  0  0  2  0  0  0  0  0  0
  187.7560  177.7540  149.2840 C   0  0  0  0  0  1  0  0  0  0  0  0
  188.4260  178.2250  148.0030 C   0  0  1  0  0  3  0  0  0  0  0  0
  189.8990  177.8860  148.0080 C   0  0  0  0  0  2  0  0  0  0  0  0
  190.1460  176.6340  147.1740 C   0  0  0  0  0  2  0  0  0  0  0  0
  192.4310  175.6500  147.4730 C   0  0  0  0  0  1  0  0  0  0  0  0
  191.5680  176.5650  146.6250 C   0  0  0  0  0  3  0  0  0  0  0  0
  191.5970  176.1030  145.1780 C   0  0  0  0  0  1  0  0  0  0  0  0
  186.4980  177.8570  140.4370 O   0  0  0  0  0  0  0  0  0  0  0  0
  187.5860  178.1210  139.5810 C   0  0  0  0  0  2  0  0  0  0  0  0
  185.5150  177.4530  137.8180 S   0  0  0  0  0  1  0  0  0  0  0  0
  187.1570  178.1890  138.1130 C   0  0  2  0  0  3  0  0  0  0  0  0
  188.1440  177.4890  137.3160 N   0  0  0  0  0  2  0  0  0  0  0  0
  189.9640  176.9600  138.8590 C   0  0  0  0  0  2  0  0  0  0  0  0
  189.0030  175.1980  137.2870 C   0  0  0  0  0  2  0  0  0  0  0  0
  190.4390  174.7110  137.4610 C   0  0  0  0  0  2  0  0  0  0  0  0
  191.1630  177.0130  137.8950 C   0  0  0  0  0  2  0  0  0  0  0  0
  191.3690  175.7840  137.0950 N   0  0  1  0  0  0  0  0  0  0  0  0
  188.7150  176.4340  138.1440 C   0  0  2  0  0  3  0  0  0  0  0  0
  193.7000  176.1900  136.5790 C   0  0  0  0  0  2  0  0  0  0  0  0
  192.5450  174.6600  135.0240 F   0  0  0  0  0  0  0  0  0  0  0  0
  192.7250  175.3180  137.3630 C   0  0  2  0  0  3  0  0  0  0  0  0
  193.3940  174.7920  136.0980 C   0  0  2  0  0  0  0  0  0  0  0  0
  194.4300  173.7160  136.3720 C   0  0  0  0  0  2  0  0  0  0  0  0
  194.5650  173.4850  137.8640 C   0  0  0  0  0  2  0  0  0  0  0  0
  195.9730  173.4670  138.2250 N   0  0  0  0  0  2  0  0  0  0  0  0
  197.8500  174.6330  137.1990 C   0  0  0  0  0  1  0  0  0  0  0  0
  196.7360  173.6250  136.9970 C   0  0  0  0  0  2  0  0  0  0  0  0
  184.0880  178.0170  145.1900 C   0  0  0  0  0  2  0  0  0  0  0  0
  183.6450  179.0990  144.2210 C   0  0  0  0  0  2  0  0  0  0  0  0
  182.1890  178.8780  143.9010 C   0  0  0  0  0  2  0  0  0  0  0  0
  181.8520  179.2120  142.4810 C   0  0  0  0  0  0  0  0  0  0  0  0
  180.9010  180.0000  142.2360 O   0  0  0  0  0  0  0  0  0  0  0  0
  182.6430  178.6840  141.4140 N   0  0  0  0  0  2  0  0  0  0  0  0
  182.4060  179.0420  140.0280 C   0  0  0  0  0  2  0  0  0  0  0  0
  181.2980  178.1880  139.4360 C   0  0  0  0  0  2  0  0  0  0  0  0
  180.6740  179.3520  137.2450 N   0  0  0  0  0  0  0  0  0  0  0  0
  181.4650  182.2720  138.1080 C   0  0  0  0  0  1  0  0  0  0  0  0
  179.8940  180.3350  137.9990 C   0  0  0  0  0  2  0  0  0  0  0  0
  180.2790  181.8470  135.9650 C   0  0  1  0  0  3  0  0  0  0  0  0
  181.9840  177.3980  137.3050 O   0  0  0  0  0  0  0  0  0  0  0  0
  179.8670  180.5590  135.2500 C   0  0  0  0  0  2  0  0  0  0  0  0
  179.5080  182.9150  135.5200 O   0  0  0  0  0  1  0  0  0  0  0  0
  180.7080  179.4010  135.7780 C   0  0  0  0  0  2  0  0  0  0  0  0
  180.1860  181.7490  137.4990 C   0  0  2  0  0  3  0  0  0  0  0  0
  181.3270  178.2680  137.9430 C   0  0  0  0  0  0  0  0  0  0  0  0
  1 41  1  6  0  0  0
  1  7  1  0  0  0  0
  4 11  1  1  0  0  0
  6  2  1  6  0  0  0
  6  4  1  0  0  0  0
  7 10  1  0  0  0  0
  7  5  2  0  0  0  0
  8 13  1  6  0  0  0
  8  4  1  0  0  0  0
  8  1  1  0  0  0  0
  9  3  1  6  0  0  0
  9 12  1  0  0  0  0
  9 13  1  0  0  0  0
 10 15  1  1  0  0  0
 11 10  1  0  0  0  0
 12  6  1  0  0  0  0
 15 16  1  0  0  0  0
 15 14  1  1  0  0  0
 17 16  1  0  0  0  0
 19 17  1  0  0  0  0
 19 18  1  0  0  0  0
 20 19  1  0  0  0  0
 21  9  1  0  0  0  0
 22 21  1  0  0  0  0
 24 23  1  1  0  0  0
 24 22  1  0  0  0  0
 25 24  1  0  0  0  0
 27 28  1  0  0  0  0
 27 31  1  0  0  0  0
 29 26  1  0  0  0  0
 30 34  1  0  0  0  0
 30 28  1  1  0  0  0
 30 29  1  0  0  0  0
 31 25  1  6  0  0  0
 31 26  1  0  0  0  0
 34 32  1  6  0  0  0
 35 33  1  6  0  0  0
 35 36  1  0  0  0  0
 35 32  1  0  0  0  0
 35 34  1  0  0  0  0
 36 37  1  0  0  0  0
 37 38  1  0  0  0  0
 40 39  1  0  0  0  0
 40 38  1  0  0  0  0
 42 41  1  0  0  0  0
 43 42  1  0  0  0  0
 44 43  1  0  0  0  0
 45 44  2  0  0  0  0
 46 44  1  0  0  0  0
 47 46  1  0  0  0  0
 48 47  1  0  0  0  0
 49 58  1  0  0  0  0
 49 51  1  0  0  0  0
 52 55  1  6  0  0  0
 52 57  1  0  0  0  0
 53 58  2  0  0  0  0
 54 56  1  0  0  0  0
 54 52  1  0  0  0  0
 56 49  1  0  0  0  0
 57 51  1  0  0  0  0
 57 50  1  1  0  0  0
 58 48  1  0  0  0  0
M  END
>  <MODEL>
4

>  <REMARK>
 VINA RESULT:      -6.9      2.253      2.973
  Name = 
  21 active torsions:
  status: ('A' for Active; 'I' for Inactive)
    1  A    between atoms: C_2  and  C_39
    2  A    between atoms: C_2  and  C_56
    3  A    between atoms: C_3  and  C_23
    4  A    between atoms: C_5  and  C_15
    5  A    between atoms: C_8  and  C_18
    6  A    between atoms: C_15  and  C_45
    7  A    between atoms: C_16  and  C_17
    8  A    between atoms: C_16  and  N_27
    9  A    between atoms: C_17  and  C_51
   10  A    between atoms: C_18  and  C_36
   11  A    between atoms: C_23  and  C_45
   12  A    between atoms: C_24  and  N_32
   13  A    between atoms: O_29  and  C_42
   14  A    between atoms: O_29  and  C_46
   15  A    between atoms: N_32  and  C_39
   16  A    between atoms: C_35  and  N_49
   17  A    between atoms: C_36  and  C_58
   18  A    between atoms: C_44  and  C_58
   19  A    between atoms: C_46  and  C_50
   20  A    between atoms: C_50  and  N_57
   21  A    between atoms: C_54  and  N_57
                            x       y       z     vdW  Elec       q    Type
                         _______ _______ _______ _____ _____    ______ ____

>  <TORSDO>
F 21

$$$$
=
 OpenBabel10222415563D

 58 62  0  0  1  0  0  0  0  0999 V2000
  190.9490  175.6890  137.9980 C   0  0  2  0  0  3  0  0  0  0  0  0
  187.3440  172.9440  136.8210 C   0  0  0  0  0  1  0  0  0  0  0  0
  187.6130  177.2840  135.4950 O   0  0  0  0  0  1  0  0  0  0  0  0
  189.5910  174.0070  136.8080 C   0  0  2  0  0  3  0  0  0  0  0  0
  193.0290  175.8150  136.8340 O   0  0  0  0  0  0  0  0  0  0  0  0
  188.3490  173.6790  135.9670 C   0  0  2  0  0  3  0  0  0  0  0  0
  192.1830  175.1070  137.3580 C   0  0  0  0  0  0  0  0  0  0  0  0
  189.8120  175.5150  136.9970 C   0  0  1  0  0  3  0  0  0  0  0  0
  187.4700  176.1140  136.2490 C   0  0  1  0  0  0  0  0  0  0  0  0
  192.0920  173.6350  137.0460 C   0  0  1  0  0  3  0  0  0  0  0  0
  190.8450  173.3600  136.2000 C   0  0  0  0  0  2  0  0  0  0  0  0
  187.7260  174.9030  135.2960 C   0  0  0  0  0  2  0  0  0  0  0  0
  188.4930  176.1610  137.4080 C   0  0  0  0  0  2  0  0  0  0  0  0
  193.6690  173.4570  135.0380 C   0  0  0  0  0  1  0  0  0  0  0  0
  193.3410  172.9770  136.4440 C   0  0  1  0  0  3  0  0  0  0  0  0
  194.5580  173.0580  137.3370 C   0  0  0  0  0  2  0  0  0  0  0  0
  195.7580  173.5540  136.5370 C   0  0  0  0  0  2  0  0  0  0  0  0
  196.5000  174.2710  138.8200 C   0  0  0  0  0  1  0  0  0  0  0  0
  196.6330  174.5200  137.3290 C   0  0  0  0  0  3  0  0  0  0  0  0
  198.0940  174.4280  136.9220 C   0  0  0  0  0  1  0  0  0  0  0  0
  186.1680  176.0580  136.8290 O   0  0  0  0  0  0  0  0  0  0  0  0
  185.2100  175.9090  135.8070 C   0  0  0  0  0  2  0  0  0  0  0  0
  184.0730  173.5070  134.9250 S   0  0  0  0  0  1  0  0  0  0  0  0
  184.1610  174.8510  136.1540 C   0  0  2  0  0  3  0  0  0  0  0  0
  182.8680  175.5020  136.2410 N   0  0  0  0  0  2  0  0  0  0  0  0
  180.7150  175.4070  137.3940 C   0  0  0  0  0  2  0  0  0  0  0  0
  182.9130  175.4180  138.6850 C   0  0  0  0  0  2  0  0  0  0  0  0
  181.9600  176.0700  139.6840 C   0  0  0  0  0  2  0  0  0  0  0  0
  180.5750  176.8770  137.8300 C   0  0  0  0  0  2  0  0  0  0  0  0
  181.3160  177.2310  139.0620 N   0  0  1  0  0  0  0  0  0  0  0  0
  182.1840  174.9720  137.4150 C   0  0  2  0  0  3  0  0  0  0  0  0
  180.0650  179.2230  139.6380 C   0  0  0  0  0  2  0  0  0  0  0  0
  182.3000  179.0660  140.6740 F   0  0  0  0  0  0  0  0  0  0  0  0
  180.3460  177.7700  140.0080 C   0  0  2  0  0  3  0  0  0  0  0  0
  180.9410  178.9120  140.8260 C   0  0  2  0  0  0  0  0  0  0  0  0
  180.3210  179.0460  142.2060 C   0  0  0  0  0  2  0  0  0  0  0  0
  181.3450  179.5690  143.1930 C   0  0  0  0  0  2  0  0  0  0  0  0
  181.8340  178.4720  144.0110 N   0  0  0  0  0  2  0  0  0  0  0  0
  184.1760  178.8470  143.4560 C   0  0  0  0  0  1  0  0  0  0  0  0
  183.1250  178.8730  144.5470 C   0  0  0  0  0  2  0  0  0  0  0  0
  191.0830  177.0910  138.6210 C   0  0  0  0  0  2  0  0  0  0  0  0
  191.4420  177.1310  140.0960 C   0  0  0  0  0  2  0  0  0  0  0  0
  190.1640  177.0980  140.8930 C   0  0  0  0  0  2  0  0  0  0  0  0
  190.4050  177.0320  142.3700 C   0  0  0  0  0  0  0  0  0  0  0  0
  189.9210  176.0810  143.0370 O   0  0  0  0  0  0  0  0  0  0  0  0
  191.2290  178.0130  143.0040 N   0  0  0  0  0  2  0  0  0  0  0  0
  191.5570  177.9470  144.4160 C   0  0  0  0  0  2  0  0  0  0  0  0
  191.1870  176.5900  144.9900 C   0  0  0  0  0  2  0  0  0  0  0  0
  189.4810  177.5190  146.6560 N   0  0  0  0  0  0  0  0  0  0  0  0
  186.8920  176.7500  145.0430 C   0  0  0  0  0  1  0  0  0  0  0  0
  188.8230  178.2420  145.5650 C   0  0  0  0  0  2  0  0  0  0  0  0
  186.7580  178.1660  147.0810 C   0  0  1  0  0  3  0  0  0  0  0  0
  191.2640  176.1320  147.3180 O   0  0  0  0  0  0  0  0  0  0  0  0
  187.8070  178.6080  148.1030 C   0  0  0  0  0  2  0  0  0  0  0  0
  185.6660  179.0280  147.1040 O   0  0  0  0  0  1  0  0  0  0  0  0
  189.0020  177.6630  148.0350 C   0  0  0  0  0  2  0  0  0  0  0  0
  187.3070  178.0710  145.6460 C   0  0  2  0  0  3  0  0  0  0  0  0
  190.6710  176.7430  146.3850 C   0  0  0  0  0  0  0  0  0  0  0  0
  1 41  1  6  0  0  0
  4 11  1  6  0  0  0
  4  8  1  0  0  0  0
  5  7  2  0  0  0  0
  6  4  1  0  0  0  0
  6  2  1  1  0  0  0
  7  1  1  0  0  0  0
  8 13  1  1  0  0  0
  8  1  1  0  0  0  0
  9  3  1  6  0  0  0
  9 21  1  0  0  0  0
  9 13  1  0  0  0  0
 10 15  1  6  0  0  0
 10  7  1  0  0  0  0
 11 10  1  0  0  0  0
 12  6  1  0  0  0  0
 12  9  1  0  0  0  0
 15 14  1  6  0  0  0
 15 16  1  0  0  0  0
 17 19  1  0  0  0  0
 17 16  1  0  0  0  0
 19 18  1  0  0  0  0
 20 19  1  0  0  0  0
 22 24  1  0  0  0  0
 22 21  1  0  0  0  0
 24 23  1  6  0  0  0
 24 25  1  0  0  0  0
 26 31  1  0  0  0  0
 26 29  1  0  0  0  0
 27 28  1  0  0  0  0
 30 29  1  6  0  0  0
 30 28  1  0  0  0  0
 30 34  1  0  0  0  0
 31 25  1  6  0  0  0
 31 27  1  0  0  0  0
 32 35  1  0  0  0  0
 34 32  1  6  0  0  0
 34 35  1  0  0  0  0
 35 33  1  6  0  0  0
 35 36  1  0  0  0  0
 36 37  1  0  0  0  0
 37 38  1  0  0  0  0
 38 40  1  0  0  0  0
 39 40  1  0  0  0  0
 41 42  1  0  0  0  0
 42 43  1  0  0  0  0
 43 44  1  0  0  0  0
 44 46  1  0  0  0  0
 44 45  2  0  0  0  0
 46 47  1  0  0  0  0
 47 48  1  0  0  0  0
 48 58  1  0  0  0  0
 49 56  1  0  0  0  0
 51 57  1  0  0  0  0
 51 49  1  0  0  0  0
 52 55  1  6  0  0  0
 52 54  1  0  0  0  0
 56 54  1  0  0  0  0
 57 50  1  1  0  0  0
 57 52  1  0  0  0  0
 58 49  1  0  0  0  0
 58 53  2  0  0  0  0
M  END
>  <MODEL>
5

>  <REMARK>
 VINA RESULT:      -6.5      3.474     11.297
  Name = 
  21 active torsions:
  status: ('A' for Active; 'I' for Inactive)
    1  A    between atoms: C_2  and  C_39
    2  A    between atoms: C_2  and  C_56
    3  A    between atoms: C_3  and  C_23
    4  A    between atoms: C_5  and  C_15
    5  A    between atoms: C_8  and  C_18
    6  A    between atoms: C_15  and  C_45
    7  A    between atoms: C_16  and  C_17
    8  A    between atoms: C_16  and  N_27
    9  A    between atoms: C_17  and  C_51
   10  A    between atoms: C_18  and  C_36
   11  A    between atoms: C_23  and  C_45
   12  A    between atoms: C_24  and  N_32
   13  A    between atoms: O_29  and  C_42
   14  A    between atoms: O_29  and  C_46
   15  A    between atoms: N_32  and  C_39
   16  A    between atoms: C_35  and  N_49
   17  A    between atoms: C_36  and  C_58
   18  A    between atoms: C_44  and  C_58
   19  A    between atoms: C_46  and  C_50
   20  A    between atoms: C_50  and  N_57
   21  A    between atoms: C_54  and  N_57
                            x       y       z     vdW  Elec       q    Type
                         _______ _______ _______ _____ _____    ______ ____

>  <TORSDO>
F 21

$$$$
=
 OpenBabel10222415563D

 58 62  0  0  1  0  0  0  0  0999 V2000
  190.7210  175.7180  137.8820 C   0  0  2  0  0  3  0  0  0  0  0  0
  186.9270  173.0700  137.1620 C   0  0  0  0  0  1  0  0  0  0  0  0
  187.1450  177.4040  135.8060 O   0  0  0  0  0  1  0  0  0  0  0  0
  189.1830  174.0740  136.8710 C   0  0  2  0  0  3  0  0  0  0  0  0
  192.6450  175.7920  136.4720 O   0  0  0  0  0  0  0  0  0  0  0  0
  187.8390  173.7800  136.1900 C   0  0  2  0  0  3  0  0  0  0  0  0
  191.8510  175.1050  137.0970 C   0  0  0  0  0  0  0  0  0  0  0  0
  189.4650  175.5750  137.0300 C   0  0  1  0  0  3  0  0  0  0  0  0
  187.0650  176.2360  136.5740 C   0  0  1  0  0  0  0  0  0  0  0  0
  191.6830  173.6360  136.8010 C   0  0  1  0  0  3  0  0  0  0  0  0
  190.3360  173.3950  136.1150 C   0  0  0  0  0  2  0  0  0  0  0  0
  187.1700  175.0210  135.5990 C   0  0  0  0  0  2  0  0  0  0  0  0
  188.2240  176.2550  137.5980 C   0  0  0  0  0  2  0  0  0  0  0  0
  192.3900  172.2220  134.7890 C   0  0  0  0  0  1  0  0  0  0  0  0
  192.8320  172.9460  136.0510 C   0  0  1  0  0  3  0  0  0  0  0  0
  194.0030  173.8590  135.7670 C   0  0  0  0  0  2  0  0  0  0  0  0
  195.3100  173.0860  135.9110 C   0  0  0  0  0  2  0  0  0  0  0  0
  195.5130  172.5620  138.3520 C   0  0  0  0  0  1  0  0  0  0  0  0
  196.0420  173.4080  137.2090 C   0  0  0  0  0  3  0  0  0  0  0  0
  197.5440  173.2130  137.0790 C   0  0  0  0  0  1  0  0  0  0  0  0
  185.8440  176.2130  137.3090 O   0  0  0  0  0  0  0  0  0  0  0  0
  184.7790  175.9210  136.4340 C   0  0  0  0  0  2  0  0  0  0  0  0
  182.3050  174.6170  136.5730 S   0  0  0  0  0  1  0  0  0  0  0  0
  183.4270  175.9340  137.1500 C   0  0  2  0  0  3  0  0  0  0  0  0
  182.8040  177.2230  136.9250 N   0  0  0  0  0  2  0  0  0  0  0  0
  182.4340  179.1380  138.3990 C   0  0  0  0  0  2  0  0  0  0  0  0
  182.7180  176.7820  139.3300 C   0  0  0  0  0  2  0  0  0  0  0  0
  183.2420  177.6380  140.4800 C   0  0  0  0  0  2  0  0  0  0  0  0
  183.8730  179.3890  138.8860 C   0  0  0  0  0  2  0  0  0  0  0  0
  184.3140  178.5120  139.9940 N   0  0  1  0  0  0  0  0  0  0  0  0
  182.1880  177.6420  138.1790 C   0  0  2  0  0  3  0  0  0  0  0  0
  186.0770  178.9020  141.6070 C   0  0  0  0  0  2  0  0  0  0  0  0
  184.3250  177.3280  142.3450 F   0  0  0  0  0  0  0  0  0  0  0  0
  184.7230  179.3790  141.0930 C   0  0  2  0  0  3  0  0  0  0  0  0
  184.8300  178.6060  142.4030 C   0  0  2  0  0  0  0  0  0  0  0  0
  184.5620  179.4640  143.6270 C   0  0  0  0  0  2  0  0  0  0  0  0
  183.2920  179.0090  144.3190 C   0  0  0  0  0  2  0  0  0  0  0  0
  182.1390  179.4410  143.5480 N   0  0  0  0  0  2  0  0  0  0  0  0
  179.9800  178.6200  144.3230 C   0  0  0  0  0  1  0  0  0  0  0  0
  181.2120  178.3220  143.4920 C   0  0  0  0  0  2  0  0  0  0  0  0
  190.9660  177.1160  138.4820 C   0  0  0  0  0  2  0  0  0  0  0  0
  191.5710  177.1440  139.8740 C   0  0  0  0  0  2  0  0  0  0  0  0
  190.4940  177.5440  140.8480 C   0  0  0  0  0  2  0  0  0  0  0  0
  190.8190  177.1630  142.2600 C   0  0  0  0  0  0  0  0  0  0  0  0
  190.7350  175.9580  142.6140 O   0  0  0  0  0  0  0  0  0  0  0  0
  191.2780  178.1550  143.1800 N   0  0  0  0  0  2  0  0  0  0  0  0
  191.6820  177.8220  144.5340 C   0  0  0  0  0  2  0  0  0  0  0  0
  190.9640  176.5720  145.0150 C   0  0  0  0  0  2  0  0  0  0  0  0
  189.2870  177.5590  146.6770 N   0  0  0  0  0  0  0  0  0  0  0  0
  186.6710  176.7570  145.1240 C   0  0  0  0  0  1  0  0  0  0  0  0
  188.6180  178.2530  145.5750 C   0  0  0  0  0  2  0  0  0  0  0  0
  186.5730  178.2320  147.1210 C   0  0  1  0  0  3  0  0  0  0  0  0
  191.0720  176.1820  147.3550 O   0  0  0  0  0  0  0  0  0  0  0  0
  187.6390  178.6980  148.1150 C   0  0  0  0  0  2  0  0  0  0  0  0
  185.4860  179.1000  147.1340 O   0  0  0  0  0  1  0  0  0  0  0  0
  188.8280  177.7460  148.0580 C   0  0  0  0  0  2  0  0  0  0  0  0
  187.1020  178.0920  145.6820 C   0  0  2  0  0  3  0  0  0  0  0  0
  190.4690  176.7690  146.4120 C   0  0  0  0  0  0  0  0  0  0  0  0
  1 41  1  6  0  0  0
  4 11  1  6  0  0  0
  4  8  1  0  0  0  0
  5  7  2  0  0  0  0
  6  4  1  0  0  0  0
  6  2  1  1  0  0  0
  7  1  1  0  0  0  0
  8 13  1  1  0  0  0
  8  1  1  0  0  0  0
  9  3  1  6  0  0  0
  9 21  1  0  0  0  0
  9 13  1  0  0  0  0
 10 15  1  6  0  0  0
 10  7  1  0  0  0  0
 11 10  1  0  0  0  0
 12  6  1  0  0  0  0
 12  9  1  0  0  0  0
 15 14  1  6  0  0  0
 16 17  1  0  0  0  0
 16 15  1  0  0  0  0
 17 19  1  0  0  0  0
 19 18  1  0  0  0  0
 20 19  1  0  0  0  0
 22 24  1  0  0  0  0
 22 21  1  0  0  0  0
 24 23  1  6  0  0  0
 25 24  1  0  0  0  0
 26 29  1  0  0  0  0
 27 28  1  0  0  0  0
 30 29  1  6  0  0  0
 30 28  1  0  0  0  0
 30 34  1  0  0  0  0
 31 25  1  6  0  0  0
 31 26  1  0  0  0  0
 31 27  1  0  0  0  0
 32 35  1  0  0  0  0
 34 32  1  6  0  0  0
 34 35  1  0  0  0  0
 35 33  1  1  0  0  0
 35 36  1  0  0  0  0
 36 37  1  0  0  0  0
 38 37  1  0  0  0  0
 40 38  1  0  0  0  0
 40 39  1  0  0  0  0
 41 42  1  0  0  0  0
 42 43  1  0  0  0  0
 43 44  1  0  0  0  0
 44 45  2  0  0  0  0
 44 46  1  0  0  0  0
 46 47  1  0  0  0  0
 47 48  1  0  0  0  0
 48 58  1  0  0  0  0
 49 56  1  0  0  0  0
 51 57  1  0  0  0  0
 51 49  1  0  0  0  0
 52 55  1  6  0  0  0
 52 54  1  0  0  0  0
 56 54  1  0  0  0  0
 57 50  1  1  0  0  0
 57 52  1  0  0  0  0
 58 49  1  0  0  0  0
 58 53  2  0  0  0  0
M  END
>  <MODEL>
6

>  <REMARK>
 VINA RESULT:      -6.4      3.337     11.020
  Name = 
  21 active torsions:
  status: ('A' for Active; 'I' for Inactive)
    1  A    between atoms: C_2  and  C_39
    2  A    between atoms: C_2  and  C_56
    3  A    between atoms: C_3  and  C_23
    4  A    between atoms: C_5  and  C_15
    5  A    between atoms: C_8  and  C_18
    6  A    between atoms: C_15  and  C_45
    7  A    between atoms: C_16  and  C_17
    8  A    between atoms: C_16  and  N_27
    9  A    between atoms: C_17  and  C_51
   10  A    between atoms: C_18  and  C_36
   11  A    between atoms: C_23  and  C_45
   12  A    between atoms: C_24  and  N_32
   13  A    between atoms: O_29  and  C_42
   14  A    between atoms: O_29  and  C_46
   15  A    between atoms: N_32  and  C_39
   16  A    between atoms: C_35  and  N_49
   17  A    between atoms: C_36  and  C_58
   18  A    between atoms: C_44  and  C_58
   19  A    between atoms: C_46  and  C_50
   20  A    between atoms: C_50  and  N_57
   21  A    between atoms: C_54  and  N_57
                            x       y       z     vdW  Elec       q    Type
                         _______ _______ _______ _____ _____    ______ ____

>  <TORSDO>
F 21

$$$$
=
 OpenBabel10222415563D

 58 62  0  0  1  0  0  0  0  0999 V2000
  185.2630  178.2390  138.7840 C   0  0  2  0  0  3  0  0  0  0  0  0
  188.5640  178.1790  135.4650 C   0  0  0  0  0  1  0  0  0  0  0  0
  188.9340  175.7460  139.2870 O   0  0  0  0  0  1  0  0  0  0  0  0
  186.4750  177.6680  136.7110 C   0  0  2  0  0  3  0  0  0  0  0  0
  183.2980  176.8840  138.8060 O   0  0  0  0  0  0  0  0  0  0  0  0
  187.7180  177.0680  136.0410 C   0  0  2  0  0  3  0  0  0  0  0  0
  184.0110  177.6550  138.1830 C   0  0  0  0  0  0  0  0  0  0  0  0
  186.4340  177.4350  138.2290 C   0  0  1  0  0  3  0  0  0  0  0  0
  188.8770  176.7900  138.3560 C   0  0  1  0  0  0  0  0  0  0  0  0
  183.9370  177.7490  136.6800 C   0  0  1  0  0  3  0  0  0  0  0  0
  185.1920  177.1310  136.0580 C   0  0  0  0  0  2  0  0  0  0  0  0
  188.5350  176.1660  136.9660 C   0  0  0  0  0  2  0  0  0  0  0  0
  187.7930  177.7900  138.8210 C   0  0  0  0  0  2  0  0  0  0  0  0
  181.7780  178.3120  135.4260 C   0  0  0  0  0  1  0  0  0  0  0  0
  182.6570  177.2200  136.0160 C   0  0  1  0  0  3  0  0  0  0  0  0
  182.9070  176.1250  135.0050 C   0  0  0  0  0  2  0  0  0  0  0  0
  182.0100  174.9280  135.3020 C   0  0  0  0  0  2  0  0  0  0  0  0
  181.2510  173.2470  136.9980 C   0  0  0  0  0  1  0  0  0  0  0  0
  182.2630  174.3330  136.6840 C   0  0  0  0  0  3  0  0  0  0  0  0
  183.6710  173.7760  136.8130 C   0  0  0  0  0  1  0  0  0  0  0  0
  190.1200  177.4890  138.3240 O   0  0  0  0  0  0  0  0  0  0  0  0
  191.0890  176.7470  139.0280 C   0  0  0  0  0  2  0  0  0  0  0  0
  193.4350  177.4980  140.3600 S   0  0  0  0  0  1  0  0  0  0  0  0
  191.6140  177.5020  140.2500 C   0  0  2  0  0  3  0  0  0  0  0  0
  191.0640  176.8850  141.4410 N   0  0  0  0  0  2  0  0  0  0  0  0
  191.5660  176.6030  143.8160 C   0  0  0  0  0  2  0  0  0  0  0  0
  191.0470  178.8970  142.8320 C   0  0  0  0  0  2  0  0  0  0  0  0
  190.5730  179.0610  144.2740 C   0  0  0  0  0  2  0  0  0  0  0  0
  190.1430  176.6520  144.4030 C   0  0  0  0  0  2  0  0  0  0  0  0
  189.5970  178.0140  144.5920 N   0  0  1  0  0  0  0  0  0  0  0  0
  191.6820  177.5240  142.5970 C   0  0  2  0  0  3  0  0  0  0  0  0
  189.1810  176.7490  146.6140 C   0  0  0  0  0  2  0  0  0  0  0  0
  187.2030  177.0870  145.1770 F   0  0  0  0  0  0  0  0  0  0  0  0
  189.2380  178.1440  145.9990 C   0  0  2  0  0  3  0  0  0  0  0  0
  187.8980  177.4790  146.2970 C   0  0  2  0  0  0  0  0  0  0  0  0
  187.1560  178.1220  147.4550 C   0  0  0  0  0  2  0  0  0  0  0  0
  186.0560  179.0270  146.9350 C   0  0  0  0  0  2  0  0  0  0  0  0
  184.7890  178.3180  146.9710 N   0  0  0  0  0  2  0  0  0  0  0  0
  185.0270  179.2460  144.7310 C   0  0  0  0  0  1  0  0  0  0  0  0
  184.0760  178.6430  145.7460 C   0  0  0  0  0  2  0  0  0  0  0  0
  185.2660  178.4580  140.3090 C   0  0  0  0  0  2  0  0  0  0  0  0
  184.1870  179.3780  140.8500 C   0  0  0  0  0  2  0  0  0  0  0  0
  183.3450  178.5970  141.8250 C   0  0  0  0  0  2  0  0  0  0  0  0
  181.9040  179.0030  141.8010 C   0  0  0  0  0  0  0  0  0  0  0  0
  181.2870  179.1710  142.8860 O   0  0  0  0  0  0  0  0  0  0  0  0
  181.2520  179.2550  140.5550 N   0  0  0  0  0  2  0  0  0  0  0  0
  179.8820  179.7280  140.4830 C   0  0  0  0  0  2  0  0  0  0  0  0
  179.8150  181.0710  139.7750 C   0  0  0  0  0  2  0  0  0  0  0  0
  179.7560  181.9890  137.3870 N   0  0  0  0  0  0  0  0  0  0  0  0
  182.2810  183.8520  137.6150 C   0  0  0  0  0  1  0  0  0  0  0  0
  179.8540  183.3500  137.9170 C   0  0  0  0  0  2  0  0  0  0  0  0
  180.8130  183.9230  135.6110 C   0  0  1  0  0  3  0  0  0  0  0  0
  179.5810  179.6890  137.8580 O   0  0  0  0  0  0  0  0  0  0  0  0
  179.6070  183.0860  135.1830 C   0  0  0  0  0  2  0  0  0  0  0  0
  180.8120  185.1470  134.9500 O   0  0  0  0  0  1  0  0  0  0  0  0
  179.6180  181.7640  135.9430 C   0  0  0  0  0  2  0  0  0  0  0  0
  180.8840  184.1590  137.1300 C   0  0  2  0  0  3  0  0  0  0  0  0
  179.6900  180.8680  138.2980 C   0  0  0  0  0  0  0  0  0  0  0  0
  1 41  1  1  0  0  0
  4 11  1  6  0  0  0
  4  8  1  0  0  0  0
  6  2  1  1  0  0  0
  6  4  1  0  0  0  0
  6 12  1  0  0  0  0
  7  1  1  0  0  0  0
  7  5  2  0  0  0  0
  8  1  1  0  0  0  0
  8 13  1  1  0  0  0
  9 13  1  0  0  0  0
  9  3  1  1  0  0  0
 10 15  1  6  0  0  0
 10  7  1  0  0  0  0
 11 10  1  0  0  0  0
 12  9  1  0  0  0  0
 15 14  1  6  0  0  0
 16 17  1  0  0  0  0
 16 15  1  0  0  0  0
 17 19  1  0  0  0  0
 19 20  1  0  0  0  0
 19 18  1  0  0  0  0
 21  9  1  0  0  0  0
 21 22  1  0  0  0  0
 22 24  1  0  0  0  0
 24 23  1  1  0  0  0
 24 25  1  0  0  0  0
 26 29  1  0  0  0  0
 27 28  1  0  0  0  0
 29 30  1  0  0  0  0
 30 28  1  1  0  0  0
 30 34  1  0  0  0  0
 31 25  1  6  0  0  0
 31 27  1  0  0  0  0
 31 26  1  0  0  0  0
 34 35  1  0  0  0  0
 34 32  1  1  0  0  0
 35 33  1  6  0  0  0
 35 32  1  0  0  0  0
 35 36  1  0  0  0  0
 37 38  1  0  0  0  0
 37 36  1  0  0  0  0
 39 40  1  0  0  0  0
 40 38  1  0  0  0  0
 41 42  1  0  0  0  0
 42 43  1  0  0  0  0
 44 43  1  0  0  0  0
 44 45  2  0  0  0  0
 46 44  1  0  0  0  0
 47 46  1  0  0  0  0
 48 47  1  0  0  0  0
 49 51  1  0  0  0  0
 49 58  1  0  0  0  0
 52 55  1  6  0  0  0
 52 57  1  0  0  0  0
 53 58  2  0  0  0  0
 54 52  1  0  0  0  0
 54 56  1  0  0  0  0
 56 49  1  0  0  0  0
 57 50  1  1  0  0  0
 57 51  1  0  0  0  0
 58 48  1  0  0  0  0
M  END
>  <MODEL>
7

>  <REMARK>
 VINA RESULT:      -6.1      4.001      9.268
  Name = 
  21 active torsions:
  status: ('A' for Active; 'I' for Inactive)
    1  A    between atoms: C_2  and  C_39
    2  A    between atoms: C_2  and  C_56
    3  A    between atoms: C_3  and  C_23
    4  A    between atoms: C_5  and  C_15
    5  A    between atoms: C_8  and  C_18
    6  A    between atoms: C_15  and  C_45
    7  A    between atoms: C_16  and  C_17
    8  A    between atoms: C_16  and  N_27
    9  A    between atoms: C_17  and  C_51
   10  A    between atoms: C_18  and  C_36
   11  A    between atoms: C_23  and  C_45
   12  A    between atoms: C_24  and  N_32
   13  A    between atoms: O_29  and  C_42
   14  A    between atoms: O_29  and  C_46
   15  A    between atoms: N_32  and  C_39
   16  A    between atoms: C_35  and  N_49
   17  A    between atoms: C_36  and  C_58
   18  A    between atoms: C_44  and  C_58
   19  A    between atoms: C_46  and  C_50
   20  A    between atoms: C_50  and  N_57
   21  A    between atoms: C_54  and  N_57
                            x       y       z     vdW  Elec       q    Type
                         _______ _______ _______ _____ _____    ______ ____

>  <TORSDO>
F 21

$$$$
=
 OpenBabel10222415563D

 58 62  0  0  1  0  0  0  0  0999 V2000
  185.2170  178.1650  138.2640 C   0  0  2  0  0  3  0  0  0  0  0  0
  188.1100  177.8350  134.5980 C   0  0  0  0  0  1  0  0  0  0  0  0
  188.7890  175.4920  138.4330 O   0  0  0  0  0  1  0  0  0  0  0  0
  186.1530  177.4730  136.0880 C   0  0  2  0  0  3  0  0  0  0  0  0
  183.2000  176.9200  138.5520 O   0  0  0  0  0  0  0  0  0  0  0  0
  187.2800  176.7890  135.3030 C   0  0  2  0  0  3  0  0  0  0  0  0
  183.8760  177.6340  137.8270 C   0  0  0  0  0  0  0  0  0  0  0  0
  186.2730  177.2840  137.6070 C   0  0  1  0  0  3  0  0  0  0  0  0
  188.6800  176.5110  137.4810 C   0  0  1  0  0  0  0  0  0  0  0  0
  183.6350  177.6900  136.3390 C   0  0  1  0  0  3  0  0  0  0  0  0
  184.7790  176.9880  135.6010 C   0  0  0  0  0  2  0  0  0  0  0  0
  188.1500  175.8690  136.1600 C   0  0  0  0  0  2  0  0  0  0  0  0
  187.7080  177.5810  138.0310 C   0  0  0  0  0  2  0  0  0  0  0  0
  181.4220  178.3170  135.2180 C   0  0  0  0  0  1  0  0  0  0  0  0
  182.2630  177.2140  135.8420 C   0  0  1  0  0  3  0  0  0  0  0  0
  182.3340  176.0100  134.9310 C   0  0  0  0  0  2  0  0  0  0  0  0
  181.1480  175.0890  135.1940 C   0  0  0  0  0  2  0  0  0  0  0  0
  182.9720  173.9250  136.4560 C   0  0  0  0  0  1  0  0  0  0  0  0
  181.4830  173.9640  136.1680 C   0  0  0  0  0  3  0  0  0  0  0  0
  180.7110  174.0920  137.4710 C   0  0  0  0  0  1  0  0  0  0  0  0
  189.9440  177.1410  137.2860 O   0  0  0  0  0  0  0  0  0  0  0  0
  190.9320  176.4280  137.9930 C   0  0  0  0  0  2  0  0  0  0  0  0
  193.1260  177.2190  139.5440 S   0  0  0  0  0  1  0  0  0  0  0  0
  191.3210  177.1270  139.2980 C   0  0  2  0  0  3  0  0  0  0  0  0
  190.7270  176.3990  140.4010 N   0  0  0  0  0  2  0  0  0  0  0  0
  190.6100  176.5240  142.8400 C   0  0  0  0  0  2  0  0  0  0  0  0
  189.3700  178.1930  141.3650 C   0  0  0  0  0  2  0  0  0  0  0  0
  188.4910  178.1650  142.6120 C   0  0  0  0  0  2  0  0  0  0  0  0
  189.2340  175.8760  143.0800 C   0  0  0  0  0  2  0  0  0  0  0  0
  188.0810  176.7850  142.8930 N   0  0  1  0  0  0  0  0  0  0  0  0
  190.6160  177.3170  141.5290 C   0  0  2  0  0  3  0  0  0  0  0  0
  186.5970  178.1190  144.2660 C   0  0  0  0  0  2  0  0  0  0  0  0
  189.0020  178.4570  144.7060 F   0  0  0  0  0  0  0  0  0  0  0  0
  187.3240  176.7840  144.1390 C   0  0  2  0  0  3  0  0  0  0  0  0
  187.8280  177.8570  145.0990 C   0  0  2  0  0  0  0  0  0  0  0  0
  187.6200  177.4990  146.5590 C   0  0  0  0  0  2  0  0  0  0  0  0
  188.9220  177.6360  147.3240 C   0  0  0  0  0  2  0  0  0  0  0  0
  189.9050  176.7190  146.7730 N   0  0  0  0  0  2  0  0  0  0  0  0
  192.0420  175.7430  147.4190 C   0  0  0  0  0  1  0  0  0  0  0  0
  191.1660  176.9800  147.4490 C   0  0  0  0  0  2  0  0  0  0  0  0
  185.4050  178.4250  139.7710 C   0  0  0  0  0  2  0  0  0  0  0  0
  184.3760  179.3320  140.4210 C   0  0  0  0  0  2  0  0  0  0  0  0
  183.6720  178.5510  141.4990 C   0  0  0  0  0  2  0  0  0  0  0  0
  182.2330  178.9370  141.6490 C   0  0  0  0  0  0  0  0  0  0  0  0
  181.7230  179.0040  142.7990 O   0  0  0  0  0  0  0  0  0  0  0  0
  181.4620  179.2850  140.4970 N   0  0  0  0  0  2  0  0  0  0  0  0
  180.0880  179.7430  140.5990 C   0  0  0  0  0  2  0  0  0  0  0  0
  179.9050  181.0530  139.8510 C   0  0  0  0  0  2  0  0  0  0  0  0
  179.8270  181.8880  137.4340 N   0  0  0  0  0  0  0  0  0  0  0  0
  182.2830  183.8470  137.6120 C   0  0  0  0  0  1  0  0  0  0  0  0
  179.8740  183.2690  137.9180 C   0  0  0  0  0  2  0  0  0  0  0  0
  180.8260  183.7990  135.5980 C   0  0  1  0  0  3  0  0  0  0  0  0
  179.7320  179.6010  137.9810 O   0  0  0  0  0  0  0  0  0  0  0  0
  179.6520  182.9050  135.1930 C   0  0  0  0  0  2  0  0  0  0  0  0
  180.7850  184.9990  134.8970 O   0  0  0  0  0  1  0  0  0  0  0  0
  179.7070  181.6110  135.9980 C   0  0  0  0  0  2  0  0  0  0  0  0
  180.8790  184.0880  137.1090 C   0  0  2  0  0  3  0  0  0  0  0  0
  179.7950  180.7970  138.3820 C   0  0  0  0  0  0  0  0  0  0  0  0
  1 41  1  1  0  0  0
  4 11  1  6  0  0  0
  4  8  1  0  0  0  0
  6  2  1  1  0  0  0
  6  4  1  0  0  0  0
  6 12  1  0  0  0  0
  7  1  1  0  0  0  0
  7  5  2  0  0  0  0
  8 13  1  1  0  0  0
  8  1  1  0  0  0  0
  9 13  1  0  0  0  0
  9  3  1  1  0  0  0
 10 15  1  1  0  0  0
 10  7  1  0  0  0  0
 11 10  1  0  0  0  0
 12  9  1  0  0  0  0
 15 14  1  6  0  0  0
 16 17  1  0  0  0  0
 16 15  1  0  0  0  0
 17 19  1  0  0  0  0
 19 18  1  0  0  0  0
 19 20  1  0  0  0  0
 21  9  1  0  0  0  0
 21 22  1  0  0  0  0
 22 24  1  0  0  0  0
 24 23  1  1  0  0  0
 24 25  1  0  0  0  0
 26 29  1  0  0  0  0
 27 31  1  0  0  0  0
 27 28  1  0  0  0  0
 30 28  1  1  0  0  0
 30 29  1  0  0  0  0
 30 34  1  0  0  0  0
 31 25  1  6  0  0  0
 31 26  1  0  0  0  0
 32 35  1  0  0  0  0
 34 32  1  6  0  0  0
 34 35  1  0  0  0  0
 35 33  1  6  0  0  0
 35 36  1  0  0  0  0
 36 37  1  0  0  0  0
 38 37  1  0  0  0  0
 38 40  1  0  0  0  0
 39 40  1  0  0  0  0
 41 42  1  0  0  0  0
 42 43  1  0  0  0  0
 43 44  1  0  0  0  0
 44 45  2  0  0  0  0
 46 47  1  0  0  0  0
 46 44  1  0  0  0  0
 48 47  1  0  0  0  0
 49 51  1  0  0  0  0
 49 58  1  0  0  0  0
 52 55  1  6  0  0  0
 52 57  1  0  0  0  0
 53 58  2  0  0  0  0
 54 52  1  0  0  0  0
 54 56  1  0  0  0  0
 56 49  1  0  0  0  0
 57 50  1  1  0  0  0
 57 51  1  0  0  0  0
 58 48  1  0  0  0  0
M  END
>  <MODEL>
8

>  <REMARK>
 VINA RESULT:      -6.1      3.710      8.881
  Name = 
  21 active torsions:
  status: ('A' for Active; 'I' for Inactive)
    1  A    between atoms: C_2  and  C_39
    2  A    between atoms: C_2  and  C_56
    3  A    between atoms: C_3  and  C_23
    4  A    between atoms: C_5  and  C_15
    5  A    between atoms: C_8  and  C_18
    6  A    between atoms: C_15  and  C_45
    7  A    between atoms: C_16  and  C_17
    8  A    between atoms: C_16  and  N_27
    9  A    between atoms: C_17  and  C_51
   10  A    between atoms: C_18  and  C_36
   11  A    between atoms: C_23  and  C_45
   12  A    between atoms: C_24  and  N_32
   13  A    between atoms: O_29  and  C_42
   14  A    between atoms: O_29  and  C_46
   15  A    between atoms: N_32  and  C_39
   16  A    between atoms: C_35  and  N_49
   17  A    between atoms: C_36  and  C_58
   18  A    between atoms: C_44  and  C_58
   19  A    between atoms: C_46  and  C_50
   20  A    between atoms: C_50  and  N_57
   21  A    between atoms: C_54  and  N_57
                            x       y       z     vdW  Elec       q    Type
                         _______ _______ _______ _____ _____    ______ ____

>  <TORSDO>
F 21

$$$$
=
 OpenBabel10222415563D

 58 62  0  0  1  0  0  0  0  0999 V2000
  188.1630  177.2410  142.0380 C   0  0  2  0  0  3  0  0  0  0  0  0
  191.0300  175.6130  138.7140 C   0  0  0  0  0  1  0  0  0  0  0  0
  188.6560  179.4550  138.1910 O   0  0  0  0  0  1  0  0  0  0  0  0
  190.2230  176.7570  140.7680 C   0  0  2  0  0  3  0  0  0  0  0  0
  188.8210  178.5910  143.8930 O   0  0  0  0  0  0  0  0  0  0  0  0
  191.0360  176.9160  139.4760 C   0  0  2  0  0  3  0  0  0  0  0  0
  189.0120  177.5790  143.2360 C   0  0  0  0  0  0  0  0  0  0  0  0
  188.9660  177.6390  140.8040 C   0  0  1  0  0  3  0  0  0  0  0  0
  189.0340  178.1130  138.3200 C   0  0  1  0  0  0  0  0  0  0  0  0
  190.3220  176.8360  143.3040 C   0  0  1  0  0  3  0  0  0  0  0  0
  191.0990  177.0330  142.0000 C   0  0  0  0  0  2  0  0  0  0  0  0
  190.5690  178.0800  138.6010 C   0  0  0  0  0  2  0  0  0  0  0  0
  188.2220  177.4940  139.4810 C   0  0  0  0  0  2  0  0  0  0  0  0
  191.6640  178.5440  144.6580 C   0  0  0  0  0  1  0  0  0  0  0  0
  191.2030  177.1000  144.5340 C   0  0  1  0  0  3  0  0  0  0  0  0
  190.5940  176.6160  145.8300 C   0  0  0  0  0  2  0  0  0  0  0  0
  190.3810  177.7940  146.7750 C   0  0  0  0  0  2  0  0  0  0  0  0
  188.0970  176.7670  146.7450 C   0  0  0  0  0  1  0  0  0  0  0  0
  188.9230  177.9590  147.1890 C   0  0  0  0  0  3  0  0  0  0  0  0
  188.7760  178.1560  148.6890 C   0  0  0  0  0  1  0  0  0  0  0  0
  188.7030  177.3930  137.1340 O   0  0  0  0  0  0  0  0  0  0  0  0
  187.6490  176.5000  137.4120 C   0  0  0  0  0  2  0  0  0  0  0  0
  186.8140  177.6830  135.0150 S   0  0  0  0  0  1  0  0  0  0  0  0
  186.7320  176.3020  136.2030 C   0  0  2  0  0  3  0  0  0  0  0  0
  185.3700  176.1630  136.6800 N   0  0  0  0  0  2  0  0  0  0  0  0
  184.7890  174.3700  135.1240 C   0  0  0  0  0  2  0  0  0  0  0  0
  183.7850  174.4740  137.4650 C   0  0  0  0  0  2  0  0  0  0  0  0
  182.6870  173.7540  136.6860 C   0  0  0  0  0  2  0  0  0  0  0  0
  183.4190  174.8710  134.6300 C   0  0  0  0  0  2  0  0  0  0  0  0
  182.2870  174.5700  135.5350 N   0  0  1  0  0  0  0  0  0  0  0  0
  185.0110  174.7530  136.5910 C   0  0  2  0  0  3  0  0  0  0  0  0
  180.0530  174.6650  134.6040 C   0  0  0  0  0  2  0  0  0  0  0  0
  180.1760  173.8230  136.9210 F   0  0  0  0  0  0  0  0  0  0  0  0
  181.3080  173.8130  134.7630 C   0  0  2  0  0  3  0  0  0  0  0  0
  180.0570  173.5180  135.5850 C   0  0  2  0  0  0  0  0  0  0  0  0
  179.3550  172.2380  135.1670 C   0  0  0  0  0  2  0  0  0  0  0  0
  180.3550  171.2530  134.5960 C   0  0  0  0  0  2  0  0  0  0  0  0
  180.8240  170.3720  135.6520 N   0  0  0  0  0  2  0  0  0  0  0  0
  183.1940  170.4160  136.2120 C   0  0  0  0  0  1  0  0  0  0  0  0
  182.1390  169.8900  135.2610 C   0  0  0  0  0  2  0  0  0  0  0  0
  186.6990  177.7190  142.0650 C   0  0  0  0  0  2  0  0  0  0  0  0
  186.3420  178.7050  143.1630 C   0  0  0  0  0  2  0  0  0  0  0  0
  185.7060  177.9410  144.2950 C   0  0  0  0  0  2  0  0  0  0  0  0
  184.3500  178.4640  144.6570 C   0  0  0  0  0  0  0  0  0  0  0  0
  184.1730  179.0060  145.7790 O   0  0  0  0  0  0  0  0  0  0  0  0
  183.2820  178.4000  143.7100 N   0  0  0  0  0  2  0  0  0  0  0  0
  181.9740  178.9660  143.9840 C   0  0  0  0  0  2  0  0  0  0  0  0
  181.3860  179.5870  142.7280 C   0  0  0  0  0  2  0  0  0  0  0  0
  180.8580  178.4280  140.5090 N   0  0  0  0  0  0  0  0  0  0  0  0
  183.8270  178.0810  139.5270 C   0  0  0  0  0  1  0  0  0  0  0  0
  181.7190  179.3870  139.8140 C   0  0  0  0  0  2  0  0  0  0  0  0
  181.9140  177.5560  138.0310 C   0  0  1  0  0  3  0  0  0  0  0  0
  179.8970  177.7470  142.5470 O   0  0  0  0  0  0  0  0  0  0  0  0
  180.4010  177.5290  138.2580 C   0  0  0  0  0  2  0  0  0  0  0  0
  182.1980  177.6900  136.6760 O   0  0  0  0  0  1  0  0  0  0  0  0
  180.1210  177.4100  139.7520 C   0  0  0  0  0  2  0  0  0  0  0  0
  182.6290  178.6670  138.8190 C   0  0  2  0  0  3  0  0  0  0  0  0
  180.6550  178.5510  141.9350 C   0  0  0  0  0  0  0  0  0  0  0  0
  1 41  1  1  0  0  0
  1  7  1  0  0  0  0
  4  8  1  0  0  0  0
  4 11  1  1  0  0  0
  6  2  1  6  0  0  0
  6  4  1  0  0  0  0
  7 10  1  0  0  0  0
  7  5  2  0  0  0  0
  8 13  1  6  0  0  0
  8  1  1  0  0  0  0
  9  3  1  6  0  0  0
  9 12  1  0  0  0  0
  9 13  1  0  0  0  0
 10 15  1  1  0  0  0
 11 10  1  0  0  0  0
 12  6  1  0  0  0  0
 15 14  1  1  0  0  0
 15 16  1  0  0  0  0
 16 17  1  0  0  0  0
 17 19  1  0  0  0  0
 18 19  1  0  0  0  0
 19 20  1  0  0  0  0
 21 22  1  0  0  0  0
 21  9  1  0  0  0  0
 24 23  1  6  0  0  0
 24 25  1  0  0  0  0
 24 22  1  0  0  0  0
 26 31  1  0  0  0  0
 28 27  1  0  0  0  0
 29 26  1  0  0  0  0
 30 29  1  6  0  0  0
 30 28  1  0  0  0  0
 31 25  1  6  0  0  0
 31 27  1  0  0  0  0
 32 35  1  0  0  0  0
 34 32  1  6  0  0  0
 34 30  1  0  0  0  0
 34 35  1  0  0  0  0
 35 33  1  1  0  0  0
 36 35  1  0  0  0  0
 37 36  1  0  0  0  0
 37 38  1  0  0  0  0
 40 38  1  0  0  0  0
 40 39  1  0  0  0  0
 41 42  1  0  0  0  0
 42 43  1  0  0  0  0
 43 44  1  0  0  0  0
 44 45  2  0  0  0  0
 46 47  1  0  0  0  0
 46 44  1  0  0  0  0
 48 47  1  0  0  0  0
 49 58  1  0  0  0  0
 51 49  1  0  0  0  0
 52 55  1  6  0  0  0
 52 54  1  0  0  0  0
 52 57  1  0  0  0  0
 54 56  1  0  0  0  0
 56 49  1  0  0  0  0
 57 50  1  1  0  0  0
 57 51  1  0  0  0  0
 58 53  2  0  0  0  0
 58 48  1  0  0  0  0
M  END
>  <MODEL>
9

>  <REMARK>
 VINA RESULT:      -6.0      4.091      7.458
  Name = 
  21 active torsions:
  status: ('A' for Active; 'I' for Inactive)
    1  A    between atoms: C_2  and  C_39
    2  A    between atoms: C_2  and  C_56
    3  A    between atoms: C_3  and  C_23
    4  A    between atoms: C_5  and  C_15
    5  A    between atoms: C_8  and  C_18
    6  A    between atoms: C_15  and  C_45
    7  A    between atoms: C_16  and  C_17
    8  A    between atoms: C_16  and  N_27
    9  A    between atoms: C_17  and  C_51
   10  A    between atoms: C_18  and  C_36
   11  A    between atoms: C_23  and  C_45
   12  A    between atoms: C_24  and  N_32
   13  A    between atoms: O_29  and  C_42
   14  A    between atoms: O_29  and  C_46
   15  A    between atoms: N_32  and  C_39
   16  A    between atoms: C_35  and  N_49
   17  A    between atoms: C_36  and  C_58
   18  A    between atoms: C_44  and  C_58
   19  A    between atoms: C_46  and  C_50
   20  A    between atoms: C_50  and  N_57
   21  A    between atoms: C_54  and  N_57
                            x       y       z     vdW  Elec       q    Type
                         _______ _______ _______ _____ _____    ______ ____

>  <TORSDO>
F 21

$$$$
