=
 OpenBabel10222418043D

 35 40  0  0  1  0  0  0  0  0999 V2000
  188.7800  177.6480  144.8270 N   0  0  0  0  0  0  0  0  0  0  0  0
  191.1290  176.8530  147.5540 C   0  0  2  0  0  3  0  0  0  0  0  0
  191.0830  176.8250  145.1120 C   0  0  0  0  0  2  0  0  0  0  0  0
  190.0230  177.7980  145.5980 C   0  0  2  0  0  3  0  0  0  0  0  0
  191.2420  175.3990  147.1430 C   0  0  0  0  0  2  0  0  0  0  0  0
  189.8180  177.4370  147.0580 C   0  0  0  0  0  2  0  0  0  0  0  0
  191.9320  176.4680  146.3200 C   0  0  2  0  0  3  0  0  0  0  0  0
  188.9120  176.5460  143.9630 N   0  0  0  0  0  2  0  0  0  0  0  0
  188.4050  176.9640  142.6650 C   0  0  0  0  0  2  0  0  0  0  0  0
  189.4430  177.8170  141.9530 C   0  0  0  0  0  2  0  0  0  0  0  0
  189.8500  177.5400  139.4640 C   0  0  0  0  0  0  0  0  0  0  0  0
  190.0000  177.0960  140.8150 N   0  0  0  0  0  2  0  0  0  0  0  0
  189.1490  178.5560  139.2060 O   0  0  0  0  0  0  0  0  0  0  0  0
  192.1960  176.1990  138.5670 S   0  0  0  0  0  0  0  0  0  0  0  0
  190.9720  175.9170  135.9110 S   0  0  0  0  0  0  0  0  0  0  0  0
  192.4690  176.4650  136.7850 C   0  0  2  0  0  3  0  0  0  0  0  0
  189.9950  176.7310  137.1640 C   0  0  0  0  0  3  0  0  0  0  0  0
  190.5320  176.8310  138.3720 C   0  0  0  0  0  0  0  0  0  0  0  0
  195.4880  174.0370  136.6230 C   0  0  0  0  0  2  0  0  0  0  0  0
  193.7230  175.7650  136.2600 C   0  0  2  0  0  3  0  0  0  0  0  0
  194.2770  174.7270  137.2430 C   0  0  0  0  0  2  0  0  0  0  0  0
  195.8500  176.0810  135.2430 C   0  0  0  0  0  2  0  0  0  0  0  0
  196.5150  175.0730  136.1780 C   0  0  0  0  0  2  0  0  0  0  0  0
  194.7500  176.7540  135.9320 N   0  0  0  0  0  2  0  0  0  0  0  0
  187.6360  177.3920  145.7200 C   0  0  0  0  0  2  0  0  0  0  0  0
  186.2740  177.5540  145.0400 C   0  0  0  0  0  2  0  0  0  0  0  0
  184.2860  178.8690  145.7560 C   0  0  0  0  0  2  0  0  0  0  0  0
  184.5560  179.3480  144.3410 C   0  0  1  0  0  3  0  0  0  0  0  0
  185.7160  178.9580  145.2660 C   0  0  2  0  0  3  0  0  0  0  0  0
  184.1290  178.2640  143.3550 C   0  0  0  0  0  2  0  0  0  0  0  0
  185.5790  179.0940  141.4240 C   0  0  0  0  0  3  0  0  0  0  0  0
  185.3580  179.4180  140.1340 N   0  0  0  0  0  0  0  0  0  0  0  0
  183.4450  178.8070  141.0360 O   0  0  0  0  0  0  0  0  0  0  0  0
  184.3680  178.7230  141.9600 C   0  0  0  0  0  0  0  0  0  0  0  0
  184.0350  179.2260  139.9400 C   0  0  0  0  0  3  0  0  0  0  0  0
  1 25  1  0  0  0  0
  2  6  1  6  0  0  0
  3  4  1  0  0  0  0
  4  1  1  6  0  0  0
  4  6  1  0  0  0  0
  5  2  1  0  0  0  0
  7  3  1  6  0  0  0
  7  5  1  0  0  0  0
  7  2  1  0  0  0  0
  8  1  1  0  0  0  0
  9  8  1  0  0  0  0
 10  9  1  0  0  0  0
 11 12  1  0  0  0  0
 12 10  1  0  0  0  0
 13 11  2  0  0  0  0
 15 17  1  0  0  0  0
 16 15  1  6  0  0  0
 16 14  1  0  0  0  0
 17 18  2  0  0  0  0
 18 14  1  0  0  0  0
 18 11  1  0  0  0  0
 19 21  1  0  0  0  0
 20 16  1  0  0  0  0
 20 21  1  1  0  0  0
 22 24  1  0  0  0  0
 22 23  1  0  0  0  0
 23 19  1  0  0  0  0
 24 20  1  0  0  0  0
 26 25  1  0  0  0  0
 28 30  1  6  0  0  0
 28 29  1  0  0  0  0
 28 27  1  0  0  0  0
 29 26  1  6  0  0  0
 29 27  1  0  0  0  0
 31 34  2  0  0  0  0
 32 31  1  0  0  0  0
 33 34  1  0  0  0  0
 34 30  1  0  0  0  0
 35 32  2  0  0  0  0
 35 33  1  0  0  0  0
M  END
>  <MODEL>
1

>  <REMARK>
 VINA RESULT:      -7.9      0.000      0.000
  Name = 
  12 active torsions:
  status: ('A' for Active; 'I' for Inactive)
    1  A    between atoms: C_5  and  C_17
    2  A    between atoms: C_9  and  C_23
    3  A    between atoms: C_11  and  N_19
    4  A    between atoms: N_13  and  C_15
    5  A    between atoms: C_14  and  C_29
    6  A    between atoms: C_15  and  C_34
    7  A    between atoms: N_19  and  N_28
    8  A    between atoms: N_19  and  C_33
    9  A    between atoms: N_28  and  C_34
   10  A    between atoms: C_29  and  C_31
   11  A    between atoms: C_32  and  C_33
   12  A    between atoms: C_32  and  C_35
                            x       y       z     vdW  Elec       q    Type
                         _______ _______ _______ _____ _____    ______ ____

>  <TORSDO>
F 12

$$$$
=
 OpenBabel10222418043D

 35 40  0  0  1  0  0  0  0  0999 V2000
  187.5080  178.0540  144.5340 N   0  0  0  0  0  0  0  0  0  0  0  0
  189.4070  177.0670  147.5350 C   0  0  2  0  0  3  0  0  0  0  0  0
  187.1280  177.7190  146.9440 C   0  0  0  0  0  2  0  0  0  0  0  0
  187.8160  177.2030  145.6930 C   0  0  2  0  0  3  0  0  0  0  0  0
  189.1480  178.3870  148.2320 C   0  0  0  0  0  2  0  0  0  0  0  0
  189.2960  177.2400  146.0300 C   0  0  0  0  0  2  0  0  0  0  0  0
  188.0320  177.3680  148.1130 C   0  0  2  0  0  3  0  0  0  0  0  0
  188.5690  177.9680  143.6140 N   0  0  0  0  0  2  0  0  0  0  0  0
  188.0120  177.4490  142.3750 C   0  0  0  0  0  2  0  0  0  0  0  0
  188.4740  178.3010  141.2020 C   0  0  0  0  0  2  0  0  0  0  0  0
  189.3650  177.9220  138.8560 C   0  0  0  0  0  0  0  0  0  0  0  0
  189.1090  177.4670  140.1880 N   0  0  0  0  0  2  0  0  0  0  0  0
  188.9710  179.0620  138.4900 O   0  0  0  0  0  0  0  0  0  0  0  0
  191.5220  176.1070  138.4500 S   0  0  0  0  0  0  0  0  0  0  0  0
  190.8920  176.0630  135.5810 S   0  0  0  0  0  0  0  0  0  0  0  0
  192.2360  176.2920  136.7830 C   0  0  2  0  0  3  0  0  0  0  0  0
  189.8500  177.0770  136.6160 C   0  0  0  0  0  3  0  0  0  0  0  0
  190.1130  177.0740  137.9160 C   0  0  0  0  0  0  0  0  0  0  0  0
  194.6690  173.3050  137.2260 C   0  0  0  0  0  2  0  0  0  0  0  0
  193.4020  175.3380  136.5220 C   0  0  2  0  0  3  0  0  0  0  0  0
  193.5220  174.2440  137.5890 C   0  0  0  0  0  2  0  0  0  0  0  0
  195.7100  175.1890  135.9690 C   0  0  0  0  0  2  0  0  0  0  0  0
  195.9530  174.1000  137.0110 C   0  0  0  0  0  2  0  0  0  0  0  0
  194.6530  176.0910  136.4210 N   0  0  0  0  0  2  0  0  0  0  0  0
  186.2810  177.5980  143.8590 C   0  0  0  0  0  2  0  0  0  0  0  0
  185.3910  178.7400  143.3600 C   0  0  0  0  0  2  0  0  0  0  0  0
  183.9370  178.5470  145.3710 C   0  0  0  0  0  2  0  0  0  0  0  0
  183.2350  179.5770  144.5040 C   0  0  1  0  0  3  0  0  0  0  0  0
  184.7670  179.4960  144.5310 C   0  0  2  0  0  3  0  0  0  0  0  0
  182.5750  178.8710  143.3220 C   0  0  0  0  0  2  0  0  0  0  0  0
  180.1500  178.2520  143.8260 C   0  0  0  0  0  3  0  0  0  0  0  0
  178.9570  178.8610  143.6740 N   0  0  0  0  0  0  0  0  0  0  0  0
  180.5280  180.2060  142.9170 O   0  0  0  0  0  0  0  0  0  0  0  0
  181.1070  179.1120  143.3410 C   0  0  0  0  0  0  0  0  0  0  0  0
  179.2370  180.0570  143.1130 C   0  0  0  0  0  3  0  0  0  0  0  0
  2  6  1  6  0  0  0
  2  7  1  0  0  0  0
  2  5  1  0  0  0  0
  4  1  1  6  0  0  0
  4  6  1  0  0  0  0
  4  3  1  0  0  0  0
  7  3  1  6  0  0  0
  7  5  1  0  0  0  0
  8  1  1  0  0  0  0
  9  8  1  0  0  0  0
 10  9  1  0  0  0  0
 11 12  1  0  0  0  0
 12 10  1  0  0  0  0
 13 11  2  0  0  0  0
 15 17  1  0  0  0  0
 16 15  1  6  0  0  0
 16 14  1  0  0  0  0
 17 18  2  0  0  0  0
 18 14  1  0  0  0  0
 18 11  1  0  0  0  0
 19 21  1  0  0  0  0
 20 16  1  0  0  0  0
 20 21  1  1  0  0  0
 22 24  1  0  0  0  0
 22 23  1  0  0  0  0
 23 19  1  0  0  0  0
 24 20  1  0  0  0  0
 25  1  1  0  0  0  0
 26 25  1  0  0  0  0
 28 30  1  6  0  0  0
 28 29  1  0  0  0  0
 28 27  1  0  0  0  0
 29 26  1  6  0  0  0
 29 27  1  0  0  0  0
 30 34  1  0  0  0  0
 32 31  1  0  0  0  0
 33 35  1  0  0  0  0
 33 34  1  0  0  0  0
 34 31  2  0  0  0  0
 35 32  2  0  0  0  0
M  END
>  <MODEL>
2

>  <REMARK>
 VINA RESULT:      -7.9      2.101      2.662
  Name = 
  12 active torsions:
  status: ('A' for Active; 'I' for Inactive)
    1  A    between atoms: C_5  and  C_17
    2  A    between atoms: C_9  and  C_23
    3  A    between atoms: C_11  and  N_19
    4  A    between atoms: N_13  and  C_15
    5  A    between atoms: C_14  and  C_29
    6  A    between atoms: C_15  and  C_34
    7  A    between atoms: N_19  and  N_28
    8  A    between atoms: N_19  and  C_33
    9  A    between atoms: N_28  and  C_34
   10  A    between atoms: C_29  and  C_31
   11  A    between atoms: C_32  and  C_33
   12  A    between atoms: C_32  and  C_35
                            x       y       z     vdW  Elec       q    Type
                         _______ _______ _______ _____ _____    ______ ____

>  <TORSDO>
F 12

$$$$
=
 OpenBabel10222418043D

 35 40  0  0  1  0  0  0  0  0999 V2000
  188.1740  177.7250  143.4500 N   0  0  0  0  0  0  0  0  0  0  0  0
  191.6300  177.8630  144.7240 C   0  0  2  0  0  3  0  0  0  0  0  0
  190.1900  176.3120  143.5040 C   0  0  0  0  0  2  0  0  0  0  0  0
  189.6390  177.7150  143.3240 C   0  0  2  0  0  3  0  0  0  0  0  0
  191.4300  176.6660  145.6310 C   0  0  0  0  0  2  0  0  0  0  0  0
  190.2960  178.5240  144.4290 C   0  0  0  0  0  2  0  0  0  0  0  0
  191.5630  176.4610  144.1350 C   0  0  2  0  0  3  0  0  0  0  0  0
  187.6090  177.4870  142.1840 N   0  0  0  0  0  2  0  0  0  0  0  0
  187.9450  178.6310  141.3500 C   0  0  0  0  0  2  0  0  0  0  0  0
  187.2960  178.4840  139.9820 C   0  0  0  0  0  2  0  0  0  0  0  0
  189.0040  178.1050  138.1450 C   0  0  0  0  0  0  0  0  0  0  0  0
  188.0940  177.6100  139.1320 N   0  0  0  0  0  2  0  0  0  0  0  0
  189.0880  179.3440  137.9260 O   0  0  0  0  0  0  0  0  0  0  0  0
  191.2270  176.3260  138.1930 S   0  0  0  0  0  0  0  0  0  0  0  0
  190.9120  175.9170  135.3010 S   0  0  0  0  0  0  0  0  0  0  0  0
  192.1140  176.3310  136.6010 C   0  0  2  0  0  3  0  0  0  0  0  0
  189.7450  177.0130  136.0890 C   0  0  0  0  0  3  0  0  0  0  0  0
  189.8650  177.1750  137.4000 C   0  0  0  0  0  0  0  0  0  0  0  0
  194.6710  173.6640  137.7750 C   0  0  0  0  0  2  0  0  0  0  0  0
  193.3190  175.3920  136.5840 C   0  0  2  0  0  3  0  0  0  0  0  0
  193.4850  174.6170  137.8960 C   0  0  0  0  0  2  0  0  0  0  0  0
  195.6320  175.2000  136.0640 C   0  0  0  0  0  2  0  0  0  0  0  0
  195.9200  174.4280  137.3500 C   0  0  0  0  0  2  0  0  0  0  0  0
  194.5370  176.1440  136.2790 N   0  0  0  0  0  2  0  0  0  0  0  0
  187.7170  176.6620  144.3600 C   0  0  0  0  0  2  0  0  0  0  0  0
  186.6080  177.1040  145.3190 C   0  0  0  0  0  2  0  0  0  0  0  0
  185.9680  178.9380  146.8760 C   0  0  0  0  0  2  0  0  0  0  0  0
  185.3330  179.3340  145.5550 C   0  0  1  0  0  3  0  0  0  0  0  0
  186.6830  178.6070  145.5820 C   0  0  2  0  0  3  0  0  0  0  0  0
  184.1250  178.4390  145.2920 C   0  0  0  0  0  2  0  0  0  0  0  0
  182.4460  178.9710  143.4430 C   0  0  0  0  0  3  0  0  0  0  0  0
  182.4810  178.9820  142.0950 N   0  0  0  0  0  0  0  0  0  0  0  0
  184.4590  178.3620  142.8370 O   0  0  0  0  0  0  0  0  0  0  0  0
  183.6910  178.5760  143.8750 C   0  0  0  0  0  0  0  0  0  0  0  0
  183.7350  178.6020  141.7680 C   0  0  0  0  0  3  0  0  0  0  0  0
  1 25  1  0  0  0  0
  2  6  1  6  0  0  0
  2  5  1  0  0  0  0
  4  1  1  1  0  0  0
  4  3  1  0  0  0  0
  4  6  1  0  0  0  0
  7  3  1  6  0  0  0
  7  2  1  0  0  0  0
  7  5  1  0  0  0  0
  8  1  1  0  0  0  0
  9  8  1  0  0  0  0
 10  9  1  0  0  0  0
 11 12  1  0  0  0  0
 12 10  1  0  0  0  0
 13 11  2  0  0  0  0
 15 17  1  0  0  0  0
 16 15  1  6  0  0  0
 16 14  1  0  0  0  0
 17 18  2  0  0  0  0
 18 11  1  0  0  0  0
 18 14  1  0  0  0  0
 19 21  1  0  0  0  0
 20 16  1  0  0  0  0
 20 21  1  1  0  0  0
 22 24  1  0  0  0  0
 22 23  1  0  0  0  0
 23 19  1  0  0  0  0
 24 20  1  0  0  0  0
 25 26  1  0  0  0  0
 28 30  1  6  0  0  0
 28 29  1  0  0  0  0
 28 27  1  0  0  0  0
 29 26  1  6  0  0  0
 29 27  1  0  0  0  0
 31 34  2  0  0  0  0
 32 31  1  0  0  0  0
 33 34  1  0  0  0  0
 34 30  1  0  0  0  0
 35 32  2  0  0  0  0
 35 33  1  0  0  0  0
M  END
>  <MODEL>
3

>  <REMARK>
 VINA RESULT:      -7.8      1.475      1.954
  Name = 
  12 active torsions:
  status: ('A' for Active; 'I' for Inactive)
    1  A    between atoms: C_5  and  C_17
    2  A    between atoms: C_9  and  C_23
    3  A    between atoms: C_11  and  N_19
    4  A    between atoms: N_13  and  C_15
    5  A    between atoms: C_14  and  C_29
    6  A    between atoms: C_15  and  C_34
    7  A    between atoms: N_19  and  N_28
    8  A    between atoms: N_19  and  C_33
    9  A    between atoms: N_28  and  C_34
   10  A    between atoms: C_29  and  C_31
   11  A    between atoms: C_32  and  C_33
   12  A    between atoms: C_32  and  C_35
                            x       y       z     vdW  Elec       q    Type
                         _______ _______ _______ _____ _____    ______ ____

>  <TORSDO>
F 12

$$$$
=
 OpenBabel10222418043D

 35 40  0  0  1  0  0  0  0  0999 V2000
  188.6860  177.4490  144.6080 N   0  0  0  0  0  0  0  0  0  0  0  0
  188.6140  177.1180  148.2780 C   0  0  2  0  0  3  0  0  0  0  0  0
  187.3320  178.2210  146.5150 C   0  0  0  0  0  2  0  0  0  0  0  0
  188.0940  177.0620  145.8970 C   0  0  2  0  0  3  0  0  0  0  0  0
  188.7830  178.6080  148.4970 C   0  0  0  0  0  2  0  0  0  0  0  0
  189.1640  176.7230  146.9190 C   0  0  0  0  0  2  0  0  0  0  0  0
  187.4500  178.0650  148.0210 C   0  0  2  0  0  3  0  0  0  0  0  0
  190.0760  177.2490  144.6690 N   0  0  0  0  0  2  0  0  0  0  0  0
  190.6870  178.2660  143.8280 C   0  0  0  0  0  2  0  0  0  0  0  0
  191.6040  177.6110  142.8050 C   0  0  0  0  0  2  0  0  0  0  0  0
  191.5990  177.3390  140.2820 C   0  0  0  0  0  0  0  0  0  0  0  0
  190.9120  177.4490  141.5330 N   0  0  0  0  0  2  0  0  0  0  0  0
  192.8530  177.4570  140.2370 O   0  0  0  0  0  0  0  0  0  0  0  0
  189.1200  177.4970  138.8900 S   0  0  0  0  0  0  0  0  0  0  0  0
  190.3330  176.0390  136.6470 S   0  0  0  0  0  0  0  0  0  0  0  0
  188.9010  176.0790  137.7660 C   0  0  2  0  0  3  0  0  0  0  0  0
  191.3850  176.3760  138.0480 C   0  0  0  0  0  3  0  0  0  0  0  0
  190.8490  177.0620  139.0490 C   0  0  0  0  0  0  0  0  0  0  0  0
  185.4300  177.3100  136.5540 C   0  0  0  0  0  2  0  0  0  0  0  0
  187.5790  176.1200  137.0000 C   0  0  2  0  0  3  0  0  0  0  0  0
  186.6980  177.3090  137.4020 C   0  0  0  0  0  2  0  0  0  0  0  0
  185.7020  174.8470  136.2820 C   0  0  0  0  0  2  0  0  0  0  0  0
  184.7270  175.9610  136.6570 C   0  0  0  0  0  2  0  0  0  0  0  0
  186.8530  174.8640  137.1840 N   0  0  0  0  0  2  0  0  0  0  0  0
  188.1530  176.6180  143.5140 C   0  0  0  0  0  2  0  0  0  0  0  0
  187.4150  177.4170  142.4360 C   0  0  0  0  0  2  0  0  0  0  0  0
  185.0350  178.0110  142.8530 C   0  0  0  0  0  2  0  0  0  0  0  0
  185.5790  179.1920  142.0700 C   0  0  1  0  0  3  0  0  0  0  0  0
  186.4710  178.4400  143.0650 C   0  0  2  0  0  3  0  0  0  0  0  0
  185.7590  178.7840  140.6100 C   0  0  0  0  0  2  0  0  0  0  0  0
  183.4800  178.1930  139.6220 C   0  0  0  0  0  3  0  0  0  0  0  0
  182.5470  178.8540  138.9080 N   0  0  0  0  0  0  0  0  0  0  0  0
  184.2270  180.2230  139.2990 O   0  0  0  0  0  0  0  0  0  0  0  0
  184.5150  179.0700  139.8450 C   0  0  0  0  0  0  0  0  0  0  0  0
  183.0480  180.0970  138.7330 C   0  0  0  0  0  3  0  0  0  0  0  0
  1  8  1  0  0  0  0
  2  6  1  6  0  0  0
  2  5  1  0  0  0  0
  4  1  1  6  0  0  0
  4  3  1  0  0  0  0
  4  6  1  0  0  0  0
  7  3  1  6  0  0  0
  7  2  1  0  0  0  0
  7  5  1  0  0  0  0
  9  8  1  0  0  0  0
 10  9  1  0  0  0  0
 11 12  1  0  0  0  0
 12 10  1  0  0  0  0
 13 11  2  0  0  0  0
 14 18  1  0  0  0  0
 15 17  1  0  0  0  0
 16 15  1  6  0  0  0
 16 14  1  0  0  0  0
 17 18  2  0  0  0  0
 18 11  1  0  0  0  0
 19 23  1  0  0  0  0
 19 21  1  0  0  0  0
 20 24  1  0  0  0  0
 20 21  1  1  0  0  0
 20 16  1  0  0  0  0
 22 23  1  0  0  0  0
 22 24  1  0  0  0  0
 25  1  1  0  0  0  0
 26 25  1  0  0  0  0
 27 29  1  0  0  0  0
 28 30  1  6  0  0  0
 28 27  1  0  0  0  0
 28 29  1  0  0  0  0
 29 26  1  6  0  0  0
 31 34  2  0  0  0  0
 32 31  1  0  0  0  0
 33 34  1  0  0  0  0
 34 30  1  0  0  0  0
 35 32  2  0  0  0  0
 35 33  1  0  0  0  0
M  END
>  <MODEL>
4

>  <REMARK>
 VINA RESULT:      -7.8      2.720      4.616
  Name = 
  12 active torsions:
  status: ('A' for Active; 'I' for Inactive)
    1  A    between atoms: C_5  and  C_17
    2  A    between atoms: C_9  and  C_23
    3  A    between atoms: C_11  and  N_19
    4  A    between atoms: N_13  and  C_15
    5  A    between atoms: C_14  and  C_29
    6  A    between atoms: C_15  and  C_34
    7  A    between atoms: N_19  and  N_28
    8  A    between atoms: N_19  and  C_33
    9  A    between atoms: N_28  and  C_34
   10  A    between atoms: C_29  and  C_31
   11  A    between atoms: C_32  and  C_33
   12  A    between atoms: C_32  and  C_35
                            x       y       z     vdW  Elec       q    Type
                         _______ _______ _______ _____ _____    ______ ____

>  <TORSDO>
F 12

$$$$
=
 OpenBabel10222418043D

 35 40  0  0  1  0  0  0  0  0999 V2000
  184.3190  178.1520  139.6780 N   0  0  0  0  0  0  0  0  0  0  0  0
  180.7600  177.3650  140.2290 C   0  0  2  0  0  3  0  0  0  0  0  0
  182.1580  179.3250  139.8140 C   0  0  0  0  0  2  0  0  0  0  0  0
  182.8960  178.0980  139.3100 C   0  0  2  0  0  3  0  0  0  0  0  0
  180.6810  178.2170  141.4800 C   0  0  0  0  0  2  0  0  0  0  0  0
  182.1930  176.9310  139.9810 C   0  0  0  0  0  2  0  0  0  0  0  0
  180.7370  178.8840  140.1190 C   0  0  2  0  0  3  0  0  0  0  0  0
  185.0480  178.6750  138.5950 N   0  0  0  0  0  2  0  0  0  0  0  0
  184.8070  177.7980  137.4610 C   0  0  0  0  0  2  0  0  0  0  0  0
  186.0550  177.7160  136.5950 C   0  0  0  0  0  2  0  0  0  0  0  0
  188.2780  178.0490  137.7720 C   0  0  0  0  0  0  0  0  0  0  0  0
  187.1820  177.2190  137.3740 N   0  0  0  0  0  2  0  0  0  0  0  0
  188.3370  179.2480  137.3850 O   0  0  0  0  0  0  0  0  0  0  0  0
  189.1090  177.4580  140.4300 S   0  0  0  0  0  0  0  0  0  0  0  0
  191.7220  176.6170  139.3840 S   0  0  0  0  0  0  0  0  0  0  0  0
  190.9090  177.6700  140.6230 C   0  0  2  0  0  3  0  0  0  0  0  0
  190.5170  177.1670  138.1880 C   0  0  0  0  0  3  0  0  0  0  0  0
  189.3260  177.5170  138.6550 C   0  0  0  0  0  0  0  0  0  0  0  0
  191.3580  175.8310  144.0070 C   0  0  0  0  0  2  0  0  0  0  0  0
  191.3990  177.3660  142.0390 C   0  0  2  0  0  3  0  0  0  0  0  0
  190.7760  176.0930  142.6220 C   0  0  0  0  0  2  0  0  0  0  0  0
  191.7970  178.2780  144.2000 C   0  0  0  0  0  2  0  0  0  0  0  0
  191.1860  177.0610  144.8920 C   0  0  0  0  0  2  0  0  0  0  0  0
  191.1370  178.5080  142.9160 N   0  0  0  0  0  2  0  0  0  0  0  0
  184.5280  179.0350  140.8380 C   0  0  0  0  0  2  0  0  0  0  0  0
  185.0720  178.3120  142.0740 C   0  0  0  0  0  2  0  0  0  0  0  0
  184.7590  179.7780  144.0610 C   0  0  0  0  0  2  0  0  0  0  0  0
  184.9000  178.3850  144.6470 C   0  0  1  0  0  3  0  0  0  0  0  0
  184.2020  178.5940  143.2980 C   0  0  2  0  0  3  0  0  0  0  0  0
  186.3590  177.9480  144.5550 C   0  0  0  0  0  2  0  0  0  0  0  0
  186.4360  178.4560  147.0560 C   0  0  0  0  0  3  0  0  0  0  0  0
  187.2820  178.1660  148.0650 N   0  0  0  0  0  0  0  0  0  0  0  0
  188.0810  177.2870  146.2100 O   0  0  0  0  0  0  0  0  0  0  0  0
  186.9630  177.9000  145.9140 C   0  0  0  0  0  0  0  0  0  0  0  0
  188.2760  177.4470  147.4990 C   0  0  0  0  0  3  0  0  0  0  0  0
  1 25  1  0  0  0  0
  2  6  1  1  0  0  0
  2  5  1  0  0  0  0
  4  1  1  1  0  0  0
  4  3  1  0  0  0  0
  4  6  1  0  0  0  0
  7  3  1  1  0  0  0
  7  2  1  0  0  0  0
  7  5  1  0  0  0  0
  8  1  1  0  0  0  0
  9  8  1  0  0  0  0
 10 12  1  0  0  0  0
 10  9  1  0  0  0  0
 11 18  1  0  0  0  0
 12 11  1  0  0  0  0
 13 11  2  0  0  0  0
 14 16  1  0  0  0  0
 16 15  1  6  0  0  0
 16 20  1  0  0  0  0
 17 18  2  0  0  0  0
 17 15  1  0  0  0  0
 18 14  1  0  0  0  0
 19 23  1  0  0  0  0
 20 21  1  1  0  0  0
 20 24  1  0  0  0  0
 21 19  1  0  0  0  0
 22 23  1  0  0  0  0
 24 22  1  0  0  0  0
 25 26  1  0  0  0  0
 27 28  1  0  0  0  0
 28 30  1  6  0  0  0
 29 26  1  6  0  0  0
 29 27  1  0  0  0  0
 29 28  1  0  0  0  0
 30 34  1  0  0  0  0
 31 32  1  0  0  0  0
 33 35  1  0  0  0  0
 34 33  1  0  0  0  0
 34 31  2  0  0  0  0
 35 32  2  0  0  0  0
M  END
>  <MODEL>
5

>  <REMARK>
 VINA RESULT:      -7.7      3.174      7.177
  Name = 
  12 active torsions:
  status: ('A' for Active; 'I' for Inactive)
    1  A    between atoms: C_5  and  C_17
    2  A    between atoms: C_9  and  C_23
    3  A    between atoms: C_11  and  N_19
    4  A    between atoms: N_13  and  C_15
    5  A    between atoms: C_14  and  C_29
    6  A    between atoms: C_15  and  C_34
    7  A    between atoms: N_19  and  N_28
    8  A    between atoms: N_19  and  C_33
    9  A    between atoms: N_28  and  C_34
   10  A    between atoms: C_29  and  C_31
   11  A    between atoms: C_32  and  C_33
   12  A    between atoms: C_32  and  C_35
                            x       y       z     vdW  Elec       q    Type
                         _______ _______ _______ _____ _____    ______ ____

>  <TORSDO>
F 12

$$$$
=
 OpenBabel10222418043D

 35 40  0  0  1  0  0  0  0  0999 V2000
  189.0340  177.7700  141.3240 N   0  0  0  0  0  0  0  0  0  0  0  0
  191.6990  177.4880  143.8540 C   0  0  2  0  0  3  0  0  0  0  0  0
  190.2950  176.0150  142.5030 C   0  0  0  0  0  2  0  0  0  0  0  0
  190.3580  177.3700  141.8210 C   0  0  2  0  0  3  0  0  0  0  0  0
  190.8100  176.7390  144.8260 C   0  0  0  0  0  2  0  0  0  0  0  0
  190.8540  178.3150  142.9020 C   0  0  0  0  0  2  0  0  0  0  0  0
  191.3470  176.0290  143.5990 C   0  0  2  0  0  3  0  0  0  0  0  0
  188.8690  177.2680  140.0210 N   0  0  0  0  0  2  0  0  0  0  0  0
  189.4320  178.2550  139.1130 C   0  0  0  0  0  2  0  0  0  0  0  0
  188.5870  178.3400  137.8500 C   0  0  0  0  0  2  0  0  0  0  0  0
  186.1240  177.7320  137.8950 C   0  0  0  0  0  0  0  0  0  0  0  0
  187.1990  178.6300  138.1870 N   0  0  0  0  0  2  0  0  0  0  0  0
  186.3450  176.6680  137.2550 O   0  0  0  0  0  0  0  0  0  0  0  0
  184.4770  179.0000  139.8410 S   0  0  0  0  0  0  0  0  0  0  0  0
  182.1100  177.8820  138.5070 S   0  0  0  0  0  0  0  0  0  0  0  0
  182.9370  178.0630  140.1150 C   0  0  2  0  0  3  0  0  0  0  0  0
  183.6950  177.5010  137.7820 C   0  0  0  0  0  3  0  0  0  0  0  0
  184.7630  178.0300  138.3630 C   0  0  0  0  0  0  0  0  0  0  0  0
  181.6240  179.2820  143.5540 C   0  0  0  0  0  2  0  0  0  0  0  0
  182.0230  178.7070  141.1570 C   0  0  2  0  0  3  0  0  0  0  0  0
  182.5620  178.5670  142.5860 C   0  0  0  0  0  2  0  0  0  0  0  0
  179.7790  178.9100  141.9200 C   0  0  0  0  0  2  0  0  0  0  0  0
  180.1980  178.7700  143.3810 C   0  0  0  0  0  2  0  0  0  0  0  0
  180.6770  178.1380  141.0630 N   0  0  0  0  0  2  0  0  0  0  0  0
  187.9640  177.2110  142.1680 C   0  0  0  0  0  2  0  0  0  0  0  0
  187.0090  178.2660  142.7340 C   0  0  0  0  0  2  0  0  0  0  0  0
  185.5740  178.6380  144.7330 C   0  0  0  0  0  2  0  0  0  0  0  0
  186.4780  177.4870  145.1360 C   0  0  1  0  0  3  0  0  0  0  0  0
  185.9980  177.6300  143.6860 C   0  0  2  0  0  3  0  0  0  0  0  0
  187.8820  178.0220  145.4030 C   0  0  0  0  0  2  0  0  0  0  0  0
  187.2240  177.8330  147.8630 C   0  0  0  0  0  3  0  0  0  0  0  0
  187.8810  177.9160  149.0370 N   0  0  0  0  0  0  0  0  0  0  0  0
  189.3250  178.2370  147.4060 O   0  0  0  0  0  0  0  0  0  0  0  0
  188.1490  178.0420  146.8670 C   0  0  0  0  0  0  0  0  0  0  0  0
  189.1680  178.1650  148.7070 C   0  0  0  0  0  3  0  0  0  0  0  0
  1 25  1  0  0  0  0
  2  6  1  6  0  0  0
  2  5  1  0  0  0  0
  4  1  1  1  0  0  0
  4  3  1  0  0  0  0
  4  6  1  0  0  0  0
  7  3  1  6  0  0  0
  7  2  1  0  0  0  0
  7  5  1  0  0  0  0
  8  1  1  0  0  0  0
  9  8  1  0  0  0  0
 10 12  1  0  0  0  0
 10  9  1  0  0  0  0
 11 12  1  0  0  0  0
 11 18  1  0  0  0  0
 13 11  2  0  0  0  0
 14 16  1  0  0  0  0
 16 15  1  6  0  0  0
 16 20  1  0  0  0  0
 17 18  2  0  0  0  0
 17 15  1  0  0  0  0
 18 14  1  0  0  0  0
 20 21  1  1  0  0  0
 21 19  1  0  0  0  0
 22 23  1  0  0  0  0
 23 19  1  0  0  0  0
 24 20  1  0  0  0  0
 24 22  1  0  0  0  0
 25 26  1  0  0  0  0
 27 28  1  0  0  0  0
 28 30  1  6  0  0  0
 29 26  1  6  0  0  0
 29 27  1  0  0  0  0
 29 28  1  0  0  0  0
 30 34  1  0  0  0  0
 31 32  1  0  0  0  0
 33 35  1  0  0  0  0
 34 33  1  0  0  0  0
 34 31  2  0  0  0  0
 35 32  2  0  0  0  0
M  END
>  <MODEL>
6

>  <REMARK>
 VINA RESULT:      -7.7      4.123      8.300
  Name = 
  12 active torsions:
  status: ('A' for Active; 'I' for Inactive)
    1  A    between atoms: C_5  and  C_17
    2  A    between atoms: C_9  and  C_23
    3  A    between atoms: C_11  and  N_19
    4  A    between atoms: N_13  and  C_15
    5  A    between atoms: C_14  and  C_29
    6  A    between atoms: C_15  and  C_34
    7  A    between atoms: N_19  and  N_28
    8  A    between atoms: N_19  and  C_33
    9  A    between atoms: N_28  and  C_34
   10  A    between atoms: C_29  and  C_31
   11  A    between atoms: C_32  and  C_33
   12  A    between atoms: C_32  and  C_35
                            x       y       z     vdW  Elec       q    Type
                         _______ _______ _______ _____ _____    ______ ____

>  <TORSDO>
F 12

$$$$
=
 OpenBabel10222418043D

 35 40  0  0  1  0  0  0  0  0999 V2000
  186.1690  177.5810  144.3660 N   0  0  0  0  0  0  0  0  0  0  0  0
  183.0590  179.0510  143.0400 C   0  0  2  0  0  3  0  0  0  0  0  0
  184.2850  178.9590  145.1520 C   0  0  0  0  0  2  0  0  0  0  0  0
  185.2610  178.6860  144.0210 C   0  0  2  0  0  3  0  0  0  0  0  0
  182.1850  178.2770  144.0060 C   0  0  0  0  0  2  0  0  0  0  0  0
  184.3800  178.3310  142.8370 C   0  0  0  0  0  2  0  0  0  0  0  0
  183.0010  179.4520  144.5080 C   0  0  2  0  0  3  0  0  0  0  0  0
  187.4580  177.8910  143.8960 N   0  0  0  0  0  2  0  0  0  0  0  0
  187.5170  177.4580  142.5080 C   0  0  0  0  0  2  0  0  0  0  0  0
  188.5120  178.3140  141.7400 C   0  0  0  0  0  2  0  0  0  0  0  0
  188.7870  177.7760  139.2750 C   0  0  0  0  0  0  0  0  0  0  0  0
  189.1060  177.5480  140.6510 N   0  0  0  0  0  2  0  0  0  0  0  0
  187.9030  178.6190  138.9620 O   0  0  0  0  0  0  0  0  0  0  0  0
  190.8880  175.9770  138.6000 S   0  0  0  0  0  0  0  0  0  0  0  0
  190.2490  176.3600  135.7580 S   0  0  0  0  0  0  0  0  0  0  0  0
  191.6030  176.3770  136.9710 C   0  0  2  0  0  3  0  0  0  0  0  0
  189.2400  177.2450  136.9340 C   0  0  0  0  0  3  0  0  0  0  0  0
  189.5060  177.0490  138.2190 C   0  0  0  0  0  0  0  0  0  0  0  0
  193.5880  173.0950  136.4040 C   0  0  0  0  0  2  0  0  0  0  0  0
  192.7390  175.4370  136.5690 C   0  0  2  0  0  3  0  0  0  0  0  0
  192.4340  173.9680  136.8860 C   0  0  0  0  0  2  0  0  0  0  0  0
  195.0880  175.0700  136.6610 C   0  0  0  0  0  2  0  0  0  0  0  0
  194.9050  173.5900  136.9920 C   0  0  0  0  0  2  0  0  0  0  0  0
  193.9840  175.8490  137.2190 N   0  0  0  0  0  2  0  0  0  0  0  0
  186.2460  177.4010  145.8250 C   0  0  0  0  0  2  0  0  0  0  0  0
  187.4420  178.1060  146.4720 C   0  0  0  0  0  2  0  0  0  0  0  0
  189.2840  177.8620  148.1280 C   0  0  0  0  0  2  0  0  0  0  0  0
  189.8010  177.1490  146.8910 C   0  0  1  0  0  3  0  0  0  0  0  0
  188.3080  177.1130  147.2440 C   0  0  2  0  0  3  0  0  0  0  0  0
  190.1880  178.1860  145.8400 C   0  0  0  0  0  2  0  0  0  0  0  0
  191.6320  178.0640  143.7370 C   0  0  0  0  0  3  0  0  0  0  0  0
  191.9170  177.1110  142.8280 N   0  0  0  0  0  0  0  0  0  0  0  0
  190.5280  176.2650  144.3130 O   0  0  0  0  0  0  0  0  0  0  0  0
  190.7600  177.5090  144.6450 C   0  0  0  0  0  0  0  0  0  0  0  0
  191.2180  176.0230  143.2210 C   0  0  0  0  0  3  0  0  0  0  0  0
  1 25  1  0  0  0  0
  2  6  1  1  0  0  0
  2  5  1  0  0  0  0
  2  7  1  0  0  0  0
  4  1  1  1  0  0  0
  4  3  1  0  0  0  0
  6  4  1  0  0  0  0
  7  5  1  1  0  0  0
  7  3  1  0  0  0  0
  8  1  1  0  0  0  0
  9  8  1  0  0  0  0
 10  9  1  0  0  0  0
 11 12  1  0  0  0  0
 12 10  1  0  0  0  0
 13 11  2  0  0  0  0
 15 17  1  0  0  0  0
 16 15  1  6  0  0  0
 16 14  1  0  0  0  0
 17 18  2  0  0  0  0
 18 14  1  0  0  0  0
 18 11  1  0  0  0  0
 19 21  1  0  0  0  0
 19 23  1  0  0  0  0
 20 21  1  1  0  0  0
 20 16  1  0  0  0  0
 20 24  1  0  0  0  0
 22 23  1  0  0  0  0
 22 24  1  0  0  0  0
 25 26  1  0  0  0  0
 28 30  1  6  0  0  0
 28 29  1  0  0  0  0
 28 27  1  0  0  0  0
 29 26  1  6  0  0  0
 29 27  1  0  0  0  0
 31 34  2  0  0  0  0
 32 35  2  0  0  0  0
 32 31  1  0  0  0  0
 33 34  1  0  0  0  0
 34 30  1  0  0  0  0
 35 33  1  0  0  0  0
M  END
>  <MODEL>
7

>  <REMARK>
 VINA RESULT:      -7.6      1.734      4.994
  Name = 
  12 active torsions:
  status: ('A' for Active; 'I' for Inactive)
    1  A    between atoms: C_5  and  C_17
    2  A    between atoms: C_9  and  C_23
    3  A    between atoms: C_11  and  N_19
    4  A    between atoms: N_13  and  C_15
    5  A    between atoms: C_14  and  C_29
    6  A    between atoms: C_15  and  C_34
    7  A    between atoms: N_19  and  N_28
    8  A    between atoms: N_19  and  C_33
    9  A    between atoms: N_28  and  C_34
   10  A    between atoms: C_29  and  C_31
   11  A    between atoms: C_32  and  C_33
   12  A    between atoms: C_32  and  C_35
                            x       y       z     vdW  Elec       q    Type
                         _______ _______ _______ _____ _____    ______ ____

>  <TORSDO>
F 12

$$$$
=
 OpenBabel10222418043D

 35 40  0  0  1  0  0  0  0  0999 V2000
  190.3220  177.0330  138.9980 N   0  0  0  0  0  0  0  0  0  0  0  0
  192.1570  174.4500  137.1150 C   0  0  2  0  0  3  0  0  0  0  0  0
  192.4870  176.7540  137.8580 C   0  0  0  0  0  2  0  0  0  0  0  0
  191.4390  176.1100  138.7500 C   0  0  2  0  0  3  0  0  0  0  0  0
  192.2240  175.2970  135.8600 C   0  0  0  0  0  2  0  0  0  0  0  0
  190.9850  174.8850  137.9770 C   0  0  0  0  0  2  0  0  0  0  0  0
  193.1100  175.6350  137.0430 C   0  0  2  0  0  3  0  0  0  0  0  0
  189.3220  176.8030  138.0360 N   0  0  0  0  0  2  0  0  0  0  0  0
  189.3350  177.9430  137.1320 C   0  0  0  0  0  2  0  0  0  0  0  0
  187.9140  178.4230  136.8810 C   0  0  0  0  0  2  0  0  0  0  0  0
  185.9090  178.3010  138.4310 C   0  0  0  0  0  0  0  0  0  0  0  0
  187.2470  178.7180  138.1430 N   0  0  0  0  0  2  0  0  0  0  0  0
  185.2250  177.7150  137.5490 O   0  0  0  0  0  0  0  0  0  0  0  0
  186.3600  178.9990  141.1550 S   0  0  0  0  0  0  0  0  0  0  0  0
  183.5140  178.5250  141.7060 S   0  0  0  0  0  0  0  0  0  0  0  0
  185.2000  178.1310  142.2610 C   0  0  2  0  0  3  0  0  0  0  0  0
  184.0570  178.2850  140.0240 C   0  0  0  0  0  3  0  0  0  0  0  0
  185.3340  178.5290  139.7650 C   0  0  0  0  0  0  0  0  0  0  0  0
  186.5740  177.9540  145.8820 C   0  0  0  0  0  2  0  0  0  0  0  0
  185.4100  178.4740  143.7360 C   0  0  2  0  0  3  0  0  0  0  0  0
  186.3760  177.5110  144.4360 C   0  0  0  0  0  2  0  0  0  0  0  0
  184.3260  179.0280  145.7800 C   0  0  0  0  0  2  0  0  0  0  0  0
  185.2250  178.0890  146.5810 C   0  0  0  0  0  2  0  0  0  0  0  0
  184.1230  178.4990  144.4320 N   0  0  0  0  0  2  0  0  0  0  0  0
  189.7350  176.8020  140.3290 C   0  0  0  0  0  2  0  0  0  0  0  0
  190.6350  177.2470  141.4860 C   0  0  0  0  0  2  0  0  0  0  0  0
  190.7080  178.8230  143.4110 C   0  0  0  0  0  2  0  0  0  0  0  0
  190.2030  177.5250  144.0140 C   0  0  1  0  0  3  0  0  0  0  0  0
  189.8150  177.9220  142.5840 C   0  0  2  0  0  3  0  0  0  0  0  0
  191.3610  176.5350  144.1150 C   0  0  0  0  0  2  0  0  0  0  0  0
  191.3080  177.0500  146.6150 C   0  0  0  0  0  3  0  0  0  0  0  0
  191.7880  176.4520  147.7240 N   0  0  0  0  0  0  0  0  0  0  0  0
  192.3600  175.2410  145.9760 O   0  0  0  0  0  0  0  0  0  0  0  0
  191.6850  176.2750  145.5440 C   0  0  0  0  0  0  0  0  0  0  0  0
  192.4260  175.3460  147.2840 C   0  0  0  0  0  3  0  0  0  0  0  0
  1 25  1  0  0  0  0
  2  5  1  6  0  0  0
  2  6  1  0  0  0  0
  3  4  1  0  0  0  0
  4  1  1  6  0  0  0
  6  4  1  0  0  0  0
  7  5  1  6  0  0  0
  7  2  1  0  0  0  0
  7  3  1  0  0  0  0
  8  1  1  0  0  0  0
  9  8  1  0  0  0  0
 10  9  1  0  0  0  0
 10 12  1  0  0  0  0
 11 18  1  0  0  0  0
 12 11  1  0  0  0  0
 13 11  2  0  0  0  0
 15 16  1  0  0  0  0
 16 14  1  6  0  0  0
 16 20  1  0  0  0  0
 17 15  1  0  0  0  0
 18 17  2  0  0  0  0
 18 14  1  0  0  0  0
 19 23  1  0  0  0  0
 20 24  1  0  0  0  0
 20 21  1  1  0  0  0
 21 19  1  0  0  0  0
 22 23  1  0  0  0  0
 24 22  1  0  0  0  0
 25 26  1  0  0  0  0
 27 28  1  0  0  0  0
 28 30  1  6  0  0  0
 29 26  1  6  0  0  0
 29 27  1  0  0  0  0
 29 28  1  0  0  0  0
 30 34  1  0  0  0  0
 31 32  1  0  0  0  0
 33 35  1  0  0  0  0
 34 33  1  0  0  0  0
 34 31  2  0  0  0  0
 35 32  2  0  0  0  0
M  END
>  <MODEL>
8

>  <REMARK>
 VINA RESULT:      -7.6      3.104      9.059
  Name = 
  12 active torsions:
  status: ('A' for Active; 'I' for Inactive)
    1  A    between atoms: C_5  and  C_17
    2  A    between atoms: C_9  and  C_23
    3  A    between atoms: C_11  and  N_19
    4  A    between atoms: N_13  and  C_15
    5  A    between atoms: C_14  and  C_29
    6  A    between atoms: C_15  and  C_34
    7  A    between atoms: N_19  and  N_28
    8  A    between atoms: N_19  and  C_33
    9  A    between atoms: N_28  and  C_34
   10  A    between atoms: C_29  and  C_31
   11  A    between atoms: C_32  and  C_33
   12  A    between atoms: C_32  and  C_35
                            x       y       z     vdW  Elec       q    Type
                         _______ _______ _______ _____ _____    ______ ____

>  <TORSDO>
F 12

$$$$
=
 OpenBabel10222418043D

 35 40  0  0  1  0  0  0  0  0999 V2000
  186.2130  177.0880  136.8900 N   0  0  0  0  0  0  0  0  0  0  0  0
  186.3910  173.4070  136.8120 C   0  0  2  0  0  3  0  0  0  0  0  0
  185.2270  175.2080  135.6420 C   0  0  0  0  0  2  0  0  0  0  0  0
  186.4840  175.7820  136.2700 C   0  0  2  0  0  3  0  0  0  0  0  0
  184.9210  173.2470  137.1420 C   0  0  0  0  0  2  0  0  0  0  0  0
  186.8950  174.7510  137.3070 C   0  0  0  0  0  2  0  0  0  0  0  0
  185.3360  173.6970  135.7550 C   0  0  2  0  0  3  0  0  0  0  0  0
  187.0560  178.0500  136.3070 N   0  0  0  0  0  2  0  0  0  0  0  0
  188.4200  177.6820  136.6520 C   0  0  0  0  0  2  0  0  0  0  0  0
  189.0410  178.7570  137.5310 C   0  0  0  0  0  2  0  0  0  0  0  0
  188.4860  178.1340  139.9270 C   0  0  0  0  0  0  0  0  0  0  0  0
  189.4020  178.2050  138.8310 N   0  0  0  0  0  2  0  0  0  0  0  0
  187.3310  178.6280  139.8190 O   0  0  0  0  0  0  0  0  0  0  0  0
  187.8960  177.6160  142.6640 S   0  0  0  0  0  0  0  0  0  0  0  0
  190.4090  176.1110  142.8800 S   0  0  0  0  0  0  0  0  0  0  0  0
  189.4200  177.4300  143.6460 C   0  0  2  0  0  3  0  0  0  0  0  0
  190.0250  176.8080  141.2830 C   0  0  0  0  0  3  0  0  0  0  0  0
  188.8760  177.4600  141.1740 C   0  0  0  0  0  0  0  0  0  0  0  0
  187.6710  177.5050  147.1050 C   0  0  0  0  0  2  0  0  0  0  0  0
  189.1500  177.1550  145.1250 C   0  0  2  0  0  3  0  0  0  0  0  0
  187.9010  177.8760  145.6430 C   0  0  0  0  0  2  0  0  0  0  0  0
  190.1160  177.0600  147.2960 C   0  0  0  0  0  2  0  0  0  0  0  0
  188.9270  177.7840  147.9240 C   0  0  0  0  0  2  0  0  0  0  0  0
  190.3190  177.5230  145.9250 N   0  0  0  0  0  2  0  0  0  0  0  0
  184.8190  177.5010  136.6560 C   0  0  0  0  0  2  0  0  0  0  0  0
  184.0600  177.8670  137.9350 C   0  0  0  0  0  2  0  0  0  0  0  0
  181.9780  176.6660  138.5780 C   0  0  0  0  0  2  0  0  0  0  0  0
  182.7010  176.8840  139.8950 C   0  0  1  0  0  3  0  0  0  0  0  0
  183.4910  176.6190  138.6070 C   0  0  2  0  0  3  0  0  0  0  0  0
  182.5900  178.3540  140.2900 C   0  0  0  0  0  2  0  0  0  0  0  0
  184.2270  178.2970  142.2490 C   0  0  0  0  0  3  0  0  0  0  0  0
  184.1570  178.5970  143.5610 N   0  0  0  0  0  0  0  0  0  0  0  0
  182.1820  178.9600  142.6570 O   0  0  0  0  0  0  0  0  0  0  0  0
  182.9810  178.5280  141.7150 C   0  0  0  0  0  0  0  0  0  0  0  0
  182.8840  179.0000  143.7670 C   0  0  0  0  0  3  0  0  0  0  0  0
  2  5  1  1  0  0  0
  2  6  1  0  0  0  0
  3  4  1  0  0  0  0
  4  1  1  1  0  0  0
  4  6  1  0  0  0  0
  7  3  1  1  0  0  0
  7  2  1  0  0  0  0
  7  5  1  0  0  0  0
  8  9  1  0  0  0  0
  8  1  1  0  0  0  0
  9 10  1  0  0  0  0
 10 12  1  0  0  0  0
 11 18  1  0  0  0  0
 12 11  1  0  0  0  0
 13 11  2  0  0  0  0
 15 16  1  0  0  0  0
 16 14  1  6  0  0  0
 16 20  1  0  0  0  0
 17 15  1  0  0  0  0
 18 17  2  0  0  0  0
 18 14  1  0  0  0  0
 19 23  1  0  0  0  0
 20 21  1  1  0  0  0
 20 24  1  0  0  0  0
 21 19  1  0  0  0  0
 22 23  1  0  0  0  0
 24 22  1  0  0  0  0
 25  1  1  0  0  0  0
 25 26  1  0  0  0  0
 27 29  1  0  0  0  0
 27 28  1  0  0  0  0
 28 30  1  6  0  0  0
 29 26  1  6  0  0  0
 29 28  1  0  0  0  0
 30 34  1  0  0  0  0
 31 32  1  0  0  0  0
 32 35  2  0  0  0  0
 33 35  1  0  0  0  0
 34 31  2  0  0  0  0
 34 33  1  0  0  0  0
M  END
>  <MODEL>
9

>  <REMARK>
 VINA RESULT:      -7.5      3.713      8.320
  Name = 
  12 active torsions:
  status: ('A' for Active; 'I' for Inactive)
    1  A    between atoms: C_5  and  C_17
    2  A    between atoms: C_9  and  C_23
    3  A    between atoms: C_11  and  N_19
    4  A    between atoms: N_13  and  C_15
    5  A    between atoms: C_14  and  C_29
    6  A    between atoms: C_15  and  C_34
    7  A    between atoms: N_19  and  N_28
    8  A    between atoms: N_19  and  C_33
    9  A    between atoms: N_28  and  C_34
   10  A    between atoms: C_29  and  C_31
   11  A    between atoms: C_32  and  C_33
   12  A    between atoms: C_32  and  C_35
                            x       y       z     vdW  Elec       q    Type
                         _______ _______ _______ _____ _____    ______ ____

>  <TORSDO>
F 12

$$$$
