=
 OpenBabel10222418393D

 66 74  0  0  1  0  0  0  0  0999 V2000
  184.3130  176.7810  134.6390 C   0  0  0  0  0  3  0  0  0  0  0  0
  185.3130  176.5060  135.4920 C   0  0  0  0  0  0  0  0  0  0  0  0
  186.2960  175.4760  135.0200 C   0  0  0  0  0  2  0  0  0  0  0  0
  186.6740  176.7260  137.6750 C   0  0  1  0  0  3  0  0  0  0  0  0
  185.4160  177.1270  136.8870 C   0  0  2  0  0  3  0  0  0  0  0  0
  187.5450  175.4180  135.8860 C   0  0  0  0  0  2  0  0  0  0  0  0
  187.1780  175.4010  137.2970 N   0  0  0  0  0  2  0  0  0  0  0  0
  184.1420  176.9000  137.7270 C   0  0  1  0  0  3  0  0  0  0  0  0
  184.0450  175.5680  138.1300 O   0  0  0  0  0  1  0  0  0  0  0  0
  184.4530  179.1540  138.6320 C   0  0  0  0  0  1  0  0  0  0  0  0
  183.9720  177.7990  138.8940 N   0  0  0  0  0  0  0  0  0  0  0  0
  182.5470  177.9200  139.2530 C   0  0  1  0  0  3  0  0  0  0  0  0
  181.8270  176.5670  139.2870 C   0  0  0  0  0  2  0  0  0  0  0  0
  180.5790  176.6740  138.6800 O   0  0  0  0  0  1  0  0  0  0  0  0
  182.3720  178.6520  140.5850 C   0  0  0  0  0  2  0  0  0  0  0  0
  180.7150  179.3330  142.4310 C   0  0  0  0  0  0  0  0  0  0  0  0
  179.1340  180.8050  141.3220 O   0  0  0  0  0  0  0  0  0  0  0  0
  181.1610  178.7090  143.5200 C   0  0  0  0  0  2  0  0  0  0  0  0
  179.7850  180.5120  142.5490 C   0  0  0  0  0  2  0  0  0  0  0  0
  178.9310  179.2100  139.0180 O   0  0  0  0  0  0  0  0  0  0  0  0
  180.9110  178.7860  141.0580 C   0  0  1  0  0  3  0  0  0  0  0  0
  179.9870  179.9770  140.1010 P   0  0  2  0  0  0  0  0  0  0  0  0
  180.8860  180.9260  139.3490 O   0  0  0  0  0  1  0  0  0  0  0  0
  187.7710  177.8040  137.6110 C   0  0  0  0  0  2  0  0  0  0  0  0
  186.7830  178.8870  140.3110 C   0  0  0  0  0  3  0  0  0  0  0  0
  189.8490  176.9850  138.8000 C   0  0  0  0  0  0  0  0  0  0  0  0
  187.6670  177.4840  143.6170 C   0  0  0  0  0  3  0  0  0  0  0  0
  188.6090  177.7430  138.8110 N   0  0  0  0  0  0  0  0  0  0  0  0
  184.4910  178.6690  146.1170 C   0  0  0  0  0  3  0  0  0  0  0  0
  184.5300  179.1150  144.7910 C   0  0  0  0  0  3  0  0  0  0  0  0
  187.6510  177.9140  142.2920 C   0  0  0  0  0  0  0  0  0  0  0  0
  186.6290  178.6940  141.7860 C   0  0  0  0  0  0  0  0  0  0  0  0
  186.5590  177.4470  145.7800 C   0  0  0  0  0  3  0  0  0  0  0  0
  185.5770  178.7280  143.9450 C   0  0  0  0  0  0  0  0  0  0  0  0
  189.6510  176.6980  141.1930 N   0  0  0  0  0  0  0  0  0  0  0  0
  190.3200  176.4530  139.9440 C   0  0  0  0  0  3  0  0  0  0  0  0
  185.5750  179.1210  142.5960 C   0  0  0  0  0  3  0  0  0  0  0  0
  186.6140  177.8910  144.4530 C   0  0  0  0  0  0  0  0  0  0  0  0
  185.4960  177.8330  146.6080 C   0  0  0  0  0  3  0  0  0  0  0  0
  188.0390  178.0960  140.0780 C   0  0  0  0  0  0  0  0  0  0  0  0
  188.5300  177.5840  141.1960 C   0  0  0  0  0  0  0  0  0  0  0  0
  190.5580  176.7740  137.6140 O   0  0  0  0  0  0  0  0  0  0  0  0
  191.4950  174.6270  137.1800 C   0  0  0  0  0  3  0  0  0  0  0  0
  193.9790  174.3600  136.8830 C   0  0  1  0  0  3  0  0  0  0  0  0
  193.0380  176.5120  137.6850 C   0  0  0  0  0  2  0  0  0  0  0  0
  192.6340  173.6520  137.0620 C   0  0  0  0  0  2  0  0  0  0  0  0
  194.1110  175.4530  137.9350 C   0  0  0  0  0  2  0  0  0  0  0  0
  195.0980  173.3590  137.0390 C   0  0  0  0  0  1  0  0  0  0  0  0
  191.6620  175.9180  137.5120 C   0  0  0  0  0  0  0  0  0  0  0  0
  183.1380  177.6680  134.9390 C   0  0  0  0  0  2  0  0  0  0  0  0
  181.7920  176.9910  134.6670 C   0  0  2  0  0  3  0  0  0  0  0  0
  180.6450  177.5920  135.4830 C   0  0  0  0  0  2  0  0  0  0  0  0
  181.0840  178.8340  136.1120 N   0  0  0  0  0  1  0  0  0  0  0  0
  181.9090  175.5970  134.8500 O   0  0  0  0  0  0  0  0  0  0  0  0
  180.7920  175.0840  135.5650 C   0  0  1  0  0  3  0  0  0  0  0  0
  179.8190  174.6280  134.6770 O   0  0  0  0  0  1  0  0  0  0  0  0
  181.1090  174.0080  136.6170 C   0  0  0  0  0  2  0  0  0  0  0  0
  183.7620  170.8900  136.6310 C   0  0  0  0  0  2  0  0  0  0  0  0
  181.9250  172.8280  134.5940 O   0  0  0  0  0  1  0  0  0  0  0  0
  181.7410  172.7800  135.9810 C   0  0  1  0  0  0  0  0  0  0  0  0
  182.8230  172.0920  136.8710 C   0  0  0  0  0  0  0  0  0  0  0  0
  184.0460  172.1520  135.9350 C   0  0  0  0  0  2  0  0  0  0  0  0
  181.4060  171.4580  136.5680 C   0  0  2  0  0  3  0  0  0  0  0  0
  182.0920  170.0720  134.6750 O   0  0  0  0  0  0  0  0  0  0  0  0
  181.1820  170.4050  135.4940 C   0  0  0  0  0  0  0  0  0  0  0  0
  179.8990  169.8980  135.3140 O   0  0  0  0  0  1  0  0  0  0  0  0
  1 50  1  0  0  0  0
  1  2  2  0  0  0  0
  2  5  1  0  0  0  0
  3  2  1  0  0  0  0
  3  6  1  0  0  0  0
  4 24  1  6  0  0  0
  5  4  1  0  0  0  0
  5  8  1  1  0  0  0
  6  7  1  0  0  0  0
  7  4  1  0  0  0  0
  8  9  1  1  0  0  0
  8 11  1  0  0  0  0
 10 11  1  0  0  0  0
 11 12  1  0  0  0  0
 12 13  1  1  0  0  0
 12 15  1  0  0  0  0
 14 13  1  0  0  0  0
 16 19  1  0  0  0  0
 16 18  2  0  0  0  0
 17 19  1  0  0  0  0
 21 15  1  6  0  0  0
 21 16  1  0  0  0  0
 22 20  2  6  0  0  0
 22 21  1  0  0  0  0
 22 17  1  0  0  0  0
 23 22  1  0  0  0  0
 24 28  1  0  0  0  0
 25 32  1  0  0  0  0
 26 28  1  0  0  0  0
 26 36  2  0  0  0  0
 27 38  1  0  0  0  0
 28 40  1  0  0  0  0
 29 39  1  0  0  0  0
 30 29  2  0  0  0  0
 31 27  2  0  0  0  0
 32 31  1  0  0  0  0
 32 37  2  0  0  0  0
 33 39  2  0  0  0  0
 34 38  2  0  0  0  0
 34 30  1  0  0  0  0
 35 41  2  0  0  0  0
 36 35  1  0  0  0  0
 37 34  1  0  0  0  0
 38 33  1  0  0  0  0
 40 25  2  0  0  0  0
 40 41  1  0  0  0  0
 41 31  1  0  0  0  0
 42 26  1  0  0  0  0
 43 49  2  0  0  0  0
 44 48  1  1  0  0  0
 44 46  1  0  0  0  0
 44 47  1  0  0  0  0
 45 47  1  0  0  0  0
 46 43  1  0  0  0  0
 49 42  1  0  0  0  0
 49 45  1  0  0  0  0
 51 54  1  0  0  0  0
 51 50  1  1  0  0  0
 51 52  1  0  0  0  0
 52 53  1  0  0  0  0
 54 55  1  0  0  0  0
 55 56  1  6  0  0  0
 55 57  1  0  0  0  0
 58 61  1  0  0  0  0
 60 59  1  6  0  0  0
 60 63  1  0  0  0  0
 60 57  1  0  0  0  0
 60 61  1  0  0  0  0
 62 58  1  0  0  0  0
 62 61  1  0  0  0  0
 63 65  1  6  0  0  0
 63 61  1  0  0  0  0
 64 65  2  0  0  0  0
 66 65  1  0  0  0  0
M  END
>  <MODEL>
1

>  <REMARK>
 VINA RESULT:      -7.7      0.000      0.000
  Name = 
  18 active torsions:
  status: ('A' for Active; 'I' for Inactive)
    1  A    between atoms: C_1  and  C_36
    2  A    between atoms: C_1  and  N_62
    3  A    between atoms: O_2  and  C_25
    4  A    between atoms: O_2  and  C_39
    5  A    between atoms: C_6  and  O_12
    6  A    between atoms: C_11  and  C_23
    7  A    between atoms: C_11  and  C_25
    8  A    between atoms: O_12  and  C_53
    9  A    between atoms: C_13  and  C_19
   10  A    between atoms: C_14  and  C_39
   11  A    between atoms: C_14  and  C_49
   12  A    between atoms: C_19  and  C_41
   13  A    between atoms: C_19  and  N_62
   14  A    between atoms: N_20  and  C_33
   15  A    between atoms: C_21  and  C_25
   16  A    between atoms: C_32  and  C_33
   17  A    between atoms: C_41  and  C_58
   18  A    between atoms: C_60  and  C_64
                            x       y       z     vdW  Elec       q    Type
                         _______ _______ _______ _____ _____    ______ ____

>  <TORSDO>
F 18

$$$$
=
 OpenBabel10222418393D

 66 74  0  0  1  0  0  0  0  0999 V2000
  186.0470  175.1780  136.6650 C   0  0  0  0  0  3  0  0  0  0  0  0
  186.8640  176.2410  136.5850 C   0  0  0  0  0  0  0  0  0  0  0  0
  186.5460  177.2170  135.4910 C   0  0  0  0  0  2  0  0  0  0  0  0
  188.8510  177.7400  137.2700 C   0  0  1  0  0  3  0  0  0  0  0  0
  188.0900  176.4220  137.4830 C   0  0  2  0  0  3  0  0  0  0  0  0
  187.3140  178.5230  135.6300 C   0  0  0  0  0  2  0  0  0  0  0  0
  188.7200  178.2530  135.9020 N   0  0  0  0  0  2  0  0  0  0  0  0
  189.0480  175.2150  137.4210 C   0  0  1  0  0  3  0  0  0  0  0  0
  188.6100  174.2830  136.4800 O   0  0  0  0  0  1  0  0  0  0  0  0
  191.2450  175.5910  138.4330 C   0  0  0  0  0  1  0  0  0  0  0  0
  190.4770  175.5370  137.1910 N   0  0  0  0  0  0  0  0  0  0  0  0
  191.1120  174.5100  136.3460 C   0  0  1  0  0  3  0  0  0  0  0  0
  191.2430  174.9430  134.8820 C   0  0  0  0  0  2  0  0  0  0  0  0
  191.2140  176.3310  134.7890 O   0  0  0  0  0  1  0  0  0  0  0  0
  192.4760  174.0980  136.9050 C   0  0  0  0  0  2  0  0  0  0  0  0
  194.6530  175.2080  136.1050 C   0  0  0  0  0  0  0  0  0  0  0  0
  196.2180  173.3700  135.8440 O   0  0  0  0  0  0  0  0  0  0  0  0
  194.3600  176.5070  136.0520 C   0  0  0  0  0  2  0  0  0  0  0  0
  196.0860  174.7470  136.1620 C   0  0  0  0  0  2  0  0  0  0  0  0
  194.3460  171.6620  134.6300 O   0  0  0  0  0  0  0  0  0  0  0  0
  193.6300  174.1460  135.8850 C   0  0  1  0  0  3  0  0  0  0  0  0
  194.6590  172.6890  135.9430 P   0  0  2  0  0  0  0  0  0  0  0  0
  194.4980  171.9270  137.2340 O   0  0  0  0  0  1  0  0  0  0  0  0
  188.4880  178.8020  138.3250 C   0  0  0  0  0  2  0  0  0  0  0  0
  189.7050  177.3680  140.7540 C   0  0  0  0  0  3  0  0  0  0  0  0
  186.2120  178.4690  139.3790 C   0  0  0  0  0  0  0  0  0  0  0  0
  188.2450  177.3300  144.1520 C   0  0  0  0  0  3  0  0  0  0  0  0
  187.6430  178.2130  139.3650 N   0  0  0  0  0  0  0  0  0  0  0  0
  191.5390  176.6100  146.6760 C   0  0  0  0  0  3  0  0  0  0  0  0
  191.7170  176.5950  145.2870 C   0  0  0  0  0  3  0  0  0  0  0  0
  188.4680  177.3480  142.7760 C   0  0  0  0  0  0  0  0  0  0  0  0
  189.7230  177.1520  142.2330 C   0  0  0  0  0  0  0  0  0  0  0  0
  189.1810  177.0960  146.3830 C   0  0  0  0  0  3  0  0  0  0  0  0
  190.6330  176.8360  144.4340 C   0  0  0  0  0  0  0  0  0  0  0  0
  186.2020  178.0780  141.7660 N   0  0  0  0  0  0  0  0  0  0  0  0
  185.5370  178.4410  140.5430 C   0  0  0  0  0  3  0  0  0  0  0  0
  190.8280  176.8890  143.0430 C   0  0  0  0  0  3  0  0  0  0  0  0
  189.3420  177.0770  144.9920 C   0  0  0  0  0  0  0  0  0  0  0  0
  190.2800  176.8660  147.2220 C   0  0  0  0  0  3  0  0  0  0  0  0
  188.2550  177.7140  140.5610 C   0  0  0  0  0  0  0  0  0  0  0  0
  187.5700  177.6700  141.6930 C   0  0  0  0  0  0  0  0  0  0  0  0
  185.5200  178.7700  138.2020 O   0  0  0  0  0  0  0  0  0  0  0  0
  183.3740  178.0500  137.4590 C   0  0  0  0  0  3  0  0  0  0  0  0
  181.2850  179.0590  138.4340 C   0  0  1  0  0  3  0  0  0  0  0  0
  183.5070  180.0470  138.9360 C   0  0  0  0  0  2  0  0  0  0  0  0
  181.8790  178.1650  137.3430 C   0  0  0  0  0  2  0  0  0  0  0  0
  182.0760  180.3590  138.4970 C   0  0  0  0  0  2  0  0  0  0  0  0
  179.8400  179.3530  138.1130 C   0  0  0  0  0  1  0  0  0  0  0  0
  184.1300  178.9280  138.1390 C   0  0  0  0  0  0  0  0  0  0  0  0
  186.2410  174.0040  137.5810 C   0  0  0  0  0  2  0  0  0  0  0  0
  185.4740  172.7580  137.1270 C   0  0  2  0  0  3  0  0  0  0  0  0
  185.9860  172.1900  135.8010 C   0  0  0  0  0  2  0  0  0  0  0  0
  187.1680  171.3680  136.0390 N   0  0  0  0  0  1  0  0  0  0  0  0
  184.0900  173.0310  137.0960 O   0  0  0  0  0  0  0  0  0  0  0  0
  183.4070  172.0970  136.2690 C   0  0  1  0  0  3  0  0  0  0  0  0
  182.9110  171.0450  137.0370 O   0  0  0  0  0  1  0  0  0  0  0  0
  182.3010  172.6810  135.3740 C   0  0  0  0  0  2  0  0  0  0  0  0
  178.9890  175.0060  135.9940 C   0  0  0  0  0  2  0  0  0  0  0  0
  182.3300  174.9650  136.3400 O   0  0  0  0  0  1  0  0  0  0  0  0
  181.5710  173.8200  136.0670 C   0  0  1  0  0  0  0  0  0  0  0  0
  180.0820  173.9790  135.6290 C   0  0  0  0  0  0  0  0  0  0  0  0
  180.0850  175.4310  135.1140 C   0  0  0  0  0  2  0  0  0  0  0  0
  180.5240  173.4580  137.0560 C   0  0  2  0  0  3  0  0  0  0  0  0
  179.5410  174.6100  138.9750 O   0  0  0  0  0  1  0  0  0  0  0  0
  180.5740  174.3530  138.2840 C   0  0  0  0  0  0  0  0  0  0  0  0
  181.7590  175.0240  138.5720 O   0  0  0  0  0  0  0  0  0  0  0  0
  1 50  1  0  0  0  0
  2  1  2  0  0  0  0
  2  5  1  0  0  0  0
  3  6  1  0  0  0  0
  3  2  1  0  0  0  0
  4  5  1  0  0  0  0
  4 24  1  1  0  0  0
  5  8  1  6  0  0  0
  6  7  1  0  0  0  0
  7  4  1  0  0  0  0
  8  9  1  6  0  0  0
 11  8  1  0  0  0  0
 11 10  1  0  0  0  0
 12 13  1  6  0  0  0
 12 15  1  0  0  0  0
 12 11  1  0  0  0  0
 14 13  1  0  0  0  0
 16 19  1  0  0  0  0
 17 22  1  0  0  0  0
 17 19  1  0  0  0  0
 18 16  2  0  0  0  0
 21 22  1  0  0  0  0
 21 16  1  0  0  0  0
 21 15  1  1  0  0  0
 22 20  2  6  0  0  0
 22 23  1  0  0  0  0
 24 28  1  0  0  0  0
 25 32  1  0  0  0  0
 26 36  2  0  0  0  0
 27 38  1  0  0  0  0
 28 26  1  0  0  0  0
 28 40  1  0  0  0  0
 29 39  1  0  0  0  0
 30 29  2  0  0  0  0
 31 27  2  0  0  0  0
 32 31  1  0  0  0  0
 32 37  2  0  0  0  0
 33 39  2  0  0  0  0
 34 38  2  0  0  0  0
 34 30  1  0  0  0  0
 36 35  1  0  0  0  0
 37 34  1  0  0  0  0
 38 33  1  0  0  0  0
 40 25  2  0  0  0  0
 40 41  1  0  0  0  0
 41 35  2  0  0  0  0
 41 31  1  0  0  0  0
 42 26  1  0  0  0  0
 43 49  2  0  0  0  0
 44 48  1  6  0  0  0
 44 47  1  0  0  0  0
 46 43  1  0  0  0  0
 46 44  1  0  0  0  0
 47 45  1  0  0  0  0
 49 42  1  0  0  0  0
 49 45  1  0  0  0  0
 51 52  1  6  0  0  0
 51 50  1  0  0  0  0
 52 53  1  0  0  0  0
 54 51  1  0  0  0  0
 55 56  1  1  0  0  0
 55 54  1  0  0  0  0
 57 60  1  0  0  0  0
 57 55  1  0  0  0  0
 60 59  1  1  0  0  0
 60 63  1  0  0  0  0
 61 58  1  0  0  0  0
 61 60  1  0  0  0  0
 61 63  1  0  0  0  0
 62 61  1  0  0  0  0
 62 58  1  0  0  0  0
 63 65  1  1  0  0  0
 65 66  2  0  0  0  0
 65 64  1  0  0  0  0
M  END
>  <MODEL>
2

>  <REMARK>
 VINA RESULT:      -6.7      3.406      8.523
  Name = 
  18 active torsions:
  status: ('A' for Active; 'I' for Inactive)
    1  A    between atoms: C_1  and  C_36
    2  A    between atoms: C_1  and  N_62
    3  A    between atoms: O_2  and  C_25
    4  A    between atoms: O_2  and  C_39
    5  A    between atoms: C_6  and  O_12
    6  A    between atoms: C_11  and  C_23
    7  A    between atoms: C_11  and  C_25
    8  A    between atoms: O_12  and  C_53
    9  A    between atoms: C_13  and  C_19
   10  A    between atoms: C_14  and  C_39
   11  A    between atoms: C_14  and  C_49
   12  A    between atoms: C_19  and  C_41
   13  A    between atoms: C_19  and  N_62
   14  A    between atoms: N_20  and  C_33
   15  A    between atoms: C_21  and  C_25
   16  A    between atoms: C_32  and  C_33
   17  A    between atoms: C_41  and  C_58
   18  A    between atoms: C_60  and  C_64
                            x       y       z     vdW  Elec       q    Type
                         _______ _______ _______ _____ _____    ______ ____

>  <TORSDO>
F 18

$$$$
=
 OpenBabel10222418393D

 66 74  0  0  1  0  0  0  0  0999 V2000
  188.3850  177.6650  138.0000 C   0  0  0  0  0  3  0  0  0  0  0  0
  187.4780  177.7490  137.0120 C   0  0  0  0  0  0  0  0  0  0  0  0
  187.8640  178.6260  135.8580 C   0  0  0  0  0  2  0  0  0  0  0  0
  185.2500  177.2420  135.8120 C   0  0  1  0  0  3  0  0  0  0  0  0
  186.1070  177.0720  137.0770 C   0  0  2  0  0  3  0  0  0  0  0  0
  186.9420  178.4560  134.6600 C   0  0  0  0  0  2  0  0  0  0  0  0
  185.5500  178.4830  135.0890 N   0  0  0  0  0  2  0  0  0  0  0  0
  185.3150  177.4680  138.3390 C   0  0  1  0  0  3  0  0  0  0  0  0
  185.6310  178.7680  138.7360 O   0  0  0  0  0  1  0  0  0  0  0  0
  183.3780  176.0740  138.8850 C   0  0  0  0  0  1  0  0  0  0  0  0
  183.8430  177.3060  138.2530 N   0  0  0  0  0  0  0  0  0  0  0  0
  183.1570  178.4170  138.9380 C   0  0  1  0  0  3  0  0  0  0  0  0
  182.0430  179.0400  138.0910 C   0  0  0  0  0  2  0  0  0  0  0  0
  180.8680  179.1240  138.8320 O   0  0  0  0  0  1  0  0  0  0  0  0
  182.6110  177.9770  140.2980 C   0  0  0  0  0  2  0  0  0  0  0  0
  181.7550  178.9700  142.5110 C   0  0  0  0  0  0  0  0  0  0  0  0
  183.7010  178.9930  143.9640 O   0  0  0  0  0  0  0  0  0  0  0  0
  180.4630  179.2040  142.2890 C   0  0  0  0  0  2  0  0  0  0  0  0
  182.2870  178.8740  143.9170 C   0  0  0  0  0  2  0  0  0  0  0  0
  185.4520  179.9120  141.9680 O   0  0  0  0  0  0  0  0  0  0  0  0
  182.7760  179.0150  141.4250 C   0  0  1  0  0  3  0  0  0  0  0  0
  184.2680  178.7660  142.3730 P   0  0  2  0  0  0  0  0  0  0  0  0
  184.8260  177.3760  142.2050 O   0  0  0  0  0  1  0  0  0  0  0  0
  185.3100  176.0070  134.8940 C   0  0  0  0  0  2  0  0  0  0  0  0
  188.3030  175.3800  134.5940 C   0  0  0  0  0  3  0  0  0  0  0  0
  185.1860  174.1610  136.6190 C   0  0  0  0  0  0  0  0  0  0  0  0
  190.4560  173.9710  137.2500 C   0  0  0  0  0  3  0  0  0  0  0  0
  185.9290  174.8830  135.6000 N   0  0  0  0  0  0  0  0  0  0  0  0
  194.3410  175.2010  136.1820 C   0  0  0  0  0  3  0  0  0  0  0  0
  193.2670  175.4860  135.3300 C   0  0  0  0  0  3  0  0  0  0  0  0
  189.4070  174.3080  136.3970 C   0  0  0  0  0  0  0  0  0  0  0  0
  189.6060  175.0340  135.2390 C   0  0  0  0  0  0  0  0  0  0  0  0
  192.8360  174.0990  137.7320 C   0  0  0  0  0  3  0  0  0  0  0  0
  191.9690  175.0870  135.6710 C   0  0  0  0  0  0  0  0  0  0  0  0
  187.2820  173.5440  137.6570 N   0  0  0  0  0  0  0  0  0  0  0  0
  185.8440  173.5540  137.6250 C   0  0  0  0  0  3  0  0  0  0  0  0
  190.8840  175.4350  134.8480 C   0  0  0  0  0  3  0  0  0  0  0  0
  191.7530  174.3700  136.8850 C   0  0  0  0  0  0  0  0  0  0  0  0
  194.1260  174.5170  137.3800 C   0  0  0  0  0  3  0  0  0  0  0  0
  187.3540  174.7400  135.5690 C   0  0  0  0  0  0  0  0  0  0  0  0
  187.9850  174.1190  136.5540 C   0  0  0  0  0  0  0  0  0  0  0  0
  183.7890  174.0990  136.5910 O   0  0  0  0  0  0  0  0  0  0  0  0
  181.7770  172.8300  136.4700 C   0  0  0  0  0  3  0  0  0  0  0  0
  181.5630  170.9390  134.8240 C   0  0  1  0  0  3  0  0  0  0  0  0
  183.7620  172.0260  135.2050 C   0  0  0  0  0  2  0  0  0  0  0  0
  180.9500  171.6540  136.0310 C   0  0  0  0  0  2  0  0  0  0  0  0
  183.0390  170.6830  135.0940 C   0  0  0  0  0  2  0  0  0  0  0  0
  180.8480  169.6300  134.5990 C   0  0  0  0  0  1  0  0  0  0  0  0
  183.0710  172.9850  136.1420 C   0  0  0  0  0  0  0  0  0  0  0  0
  188.1730  176.9640  139.3120 C   0  0  0  0  0  2  0  0  0  0  0  0
  189.0230  177.5470  140.4450 C   0  0  2  0  0  3  0  0  0  0  0  0
  190.2550  176.6980  140.7660 C   0  0  0  0  0  2  0  0  0  0  0  0
  191.3710  177.1070  139.9210 N   0  0  0  0  0  1  0  0  0  0  0  0
  188.2160  177.7760  141.5800 O   0  0  0  0  0  0  0  0  0  0  0  0
  188.8940  177.3910  142.7700 C   0  0  1  0  0  3  0  0  0  0  0  0
  189.5520  178.4870  143.3260 O   0  0  0  0  0  1  0  0  0  0  0  0
  188.0340  176.6820  143.8300 C   0  0  0  0  0  2  0  0  0  0  0  0
  185.9920  178.3210  146.9760 C   0  0  0  0  0  2  0  0  0  0  0  0
  188.8310  178.5870  145.2030 O   0  0  0  0  0  1  0  0  0  0  0  0
  187.9750  177.4830  145.1210 C   0  0  1  0  0  0  0  0  0  0  0  0
  186.5460  177.5780  145.7420 C   0  0  0  0  0  0  0  0  0  0  0  0
  186.3530  179.1060  145.7880 C   0  0  0  0  0  2  0  0  0  0  0  0
  187.7240  176.7340  146.3780 C   0  0  2  0  0  3  0  0  0  0  0  0
  189.8340  177.4340  147.3940 O   0  0  0  0  0  0  0  0  0  0  0  0
  188.5860  177.2460  147.5210 C   0  0  0  0  0  0  0  0  0  0  0  0
  188.0130  177.3730  148.7830 O   0  0  0  0  0  1  0  0  0  0  0  0
  1 50  1  0  0  0  0
  2  5  1  0  0  0  0
  2  1  2  0  0  0  0
  3  2  1  0  0  0  0
  4 24  1  6  0  0  0
  4  5  1  0  0  0  0
  5  8  1  1  0  0  0
  6  7  1  0  0  0  0
  6  3  1  0  0  0  0
  7  4  1  0  0  0  0
  8  9  1  6  0  0  0
 11  8  1  0  0  0  0
 11 10  1  0  0  0  0
 11 12  1  0  0  0  0
 12 13  1  6  0  0  0
 12 15  1  0  0  0  0
 13 14  1  0  0  0  0
 16 19  1  0  0  0  0
 18 16  2  0  0  0  0
 19 17  1  0  0  0  0
 21 15  1  6  0  0  0
 21 22  1  0  0  0  0
 21 16  1  0  0  0  0
 22 20  2  6  0  0  0
 22 17  1  0  0  0  0
 23 22  1  0  0  0  0
 24 28  1  0  0  0  0
 25 32  1  0  0  0  0
 25 40  2  0  0  0  0
 26 36  2  0  0  0  0
 28 26  1  0  0  0  0
 29 39  1  0  0  0  0
 30 34  1  0  0  0  0
 30 29  2  0  0  0  0
 31 41  1  0  0  0  0
 31 27  2  0  0  0  0
 32 31  1  0  0  0  0
 34 38  2  0  0  0  0
 36 35  1  0  0  0  0
 37 32  2  0  0  0  0
 37 34  1  0  0  0  0
 38 27  1  0  0  0  0
 38 33  1  0  0  0  0
 39 33  2  0  0  0  0
 40 28  1  0  0  0  0
 40 41  1  0  0  0  0
 41 35  2  0  0  0  0
 42 26  1  0  0  0  0
 44 48  1  1  0  0  0
 44 47  1  0  0  0  0
 44 46  1  0  0  0  0
 45 49  1  0  0  0  0
 46 43  1  0  0  0  0
 47 45  1  0  0  0  0
 49 43  2  0  0  0  0
 49 42  1  0  0  0  0
 51 50  1  6  0  0  0
 51 52  1  0  0  0  0
 51 54  1  0  0  0  0
 53 52  1  0  0  0  0
 54 55  1  0  0  0  0
 55 56  1  1  0  0  0
 55 57  1  0  0  0  0
 57 60  1  0  0  0  0
 60 59  1  1  0  0  0
 60 61  1  0  0  0  0
 60 63  1  0  0  0  0
 61 62  1  0  0  0  0
 61 63  1  0  0  0  0
 61 58  1  0  0  0  0
 62 58  1  0  0  0  0
 63 65  1  1  0  0  0
 64 65  2  0  0  0  0
 65 66  1  0  0  0  0
M  END
>  <MODEL>
3

>  <REMARK>
 VINA RESULT:      -6.6      3.040      9.040
  Name = 
  18 active torsions:
  status: ('A' for Active; 'I' for Inactive)
    1  A    between atoms: C_1  and  C_36
    2  A    between atoms: C_1  and  N_62
    3  A    between atoms: O_2  and  C_25
    4  A    between atoms: O_2  and  C_39
    5  A    between atoms: C_6  and  O_12
    6  A    between atoms: C_11  and  C_23
    7  A    between atoms: C_11  and  C_25
    8  A    between atoms: O_12  and  C_53
    9  A    between atoms: C_13  and  C_19
   10  A    between atoms: C_14  and  C_39
   11  A    between atoms: C_14  and  C_49
   12  A    between atoms: C_19  and  C_41
   13  A    between atoms: C_19  and  N_62
   14  A    between atoms: N_20  and  C_33
   15  A    between atoms: C_21  and  C_25
   16  A    between atoms: C_32  and  C_33
   17  A    between atoms: C_41  and  C_58
   18  A    between atoms: C_60  and  C_64
                            x       y       z     vdW  Elec       q    Type
                         _______ _______ _______ _____ _____    ______ ____

>  <TORSDO>
F 18

$$$$
=
 OpenBabel10222418393D

 66 74  0  0  1  0  0  0  0  0999 V2000
  183.1160  177.5570  135.0610 C   0  0  0  0  0  3  0  0  0  0  0  0
  184.2170  177.2120  135.7500 C   0  0  0  0  0  0  0  0  0  0  0  0
  185.1780  176.3190  135.0210 C   0  0  0  0  0  2  0  0  0  0  0  0
  185.8080  177.1750  137.7820 C   0  0  1  0  0  3  0  0  0  0  0  0
  184.4540  177.6200  137.2050 C   0  0  2  0  0  3  0  0  0  0  0  0
  186.5180  176.2000  135.7300 C   0  0  0  0  0  2  0  0  0  0  0  0
  186.3150  175.9510  137.1510 N   0  0  0  0  0  2  0  0  0  0  0  0
  183.2940  177.2000  138.1310 C   0  0  1  0  0  3  0  0  0  0  0  0
  183.5810  175.9940  138.7700 O   0  0  0  0  0  1  0  0  0  0  0  0
  183.7670  179.3610  139.1800 C   0  0  0  0  0  1  0  0  0  0  0  0
  182.8640  178.2130  139.1250 N   0  0  0  0  0  0  0  0  0  0  0  0
  181.5300  178.7410  138.7860 C   0  0  1  0  0  3  0  0  0  0  0  0
  180.3980  177.9950  139.5000 C   0  0  0  0  0  2  0  0  0  0  0  0
  180.8480  177.4930  140.7180 O   0  0  0  0  0  1  0  0  0  0  0  0
  181.4400  180.2420  139.0670 C   0  0  0  0  0  2  0  0  0  0  0  0
  179.4530  181.3660  140.2500 C   0  0  0  0  0  0  0  0  0  0  0  0
  178.9430  183.3060  138.8820 O   0  0  0  0  0  0  0  0  0  0  0  0
  179.2250  180.5970  141.3140 C   0  0  0  0  0  2  0  0  0  0  0  0
  178.9330  182.7790  140.1990 C   0  0  0  0  0  2  0  0  0  0  0  0
  179.2350  181.9370  136.4460 O   0  0  0  0  0  0  0  0  0  0  0  0
  180.0180  180.8290  138.9800 C   0  0  1  0  0  3  0  0  0  0  0  0
  179.9390  182.2850  137.9490 P   0  0  2  0  0  0  0  0  0  0  0  0
  181.2940  182.9140  137.7440 O   0  0  0  0  0  1  0  0  0  0  0  0
  186.8500  178.3090  137.7710 C   0  0  0  0  0  2  0  0  0  0  0  0
  186.2320  179.1870  140.6490 C   0  0  0  0  0  3  0  0  0  0  0  0
  189.0140  177.3190  138.6300 C   0  0  0  0  0  0  0  0  0  0  0  0
  187.4330  177.4740  143.6990 C   0  0  0  0  0  3  0  0  0  0  0  0
  187.8180  178.1160  138.8520 N   0  0  0  0  0  0  0  0  0  0  0  0
  184.6270  178.5450  146.6510 C   0  0  0  0  0  3  0  0  0  0  0  0
  184.5290  179.1030  145.3710 C   0  0  0  0  0  3  0  0  0  0  0  0
  187.2810  178.0170  142.4250 C   0  0  0  0  0  0  0  0  0  0  0  0
  186.2420  178.8720  142.1110 C   0  0  0  0  0  0  0  0  0  0  0  0
  186.5850  177.2870  145.9690 C   0  0  0  0  0  3  0  0  0  0  0  0
  185.4520  178.7550  144.3760 C   0  0  0  0  0  0  0  0  0  0  0  0
  189.0840  176.8330  140.9990 N   0  0  0  0  0  0  0  0  0  0  0  0
  189.5910  176.6750  139.6620 C   0  0  0  0  0  3  0  0  0  0  0  0
  185.3110  179.2630  143.0740 C   0  0  0  0  0  3  0  0  0  0  0  0
  186.5040  177.8430  144.6860 C   0  0  0  0  0  0  0  0  0  0  0  0
  185.6440  177.6360  146.9480 C   0  0  0  0  0  3  0  0  0  0  0  0
  187.4160  178.3770  140.2030 C   0  0  0  0  0  0  0  0  0  0  0  0
  188.0110  177.7530  141.2080 C   0  0  0  0  0  0  0  0  0  0  0  0
  189.5690  177.1870  137.3540 O   0  0  0  0  0  0  0  0  0  0  0  0
  191.6400  176.2200  136.6810 C   0  0  0  0  0  3  0  0  0  0  0  0
  191.9000  173.7200  136.5750 C   0  0  1  0  0  3  0  0  0  0  0  0
  189.6610  174.7320  136.9230 C   0  0  0  0  0  2  0  0  0  0  0  0
  192.5130  175.0810  136.2340 C   0  0  0  0  0  2  0  0  0  0  0  0
  190.4480  173.6990  136.1180 C   0  0  0  0  0  2  0  0  0  0  0  0
  192.6750  172.6300  135.8750 C   0  0  0  0  0  1  0  0  0  0  0  0
  190.3300  176.0840  136.9500 C   0  0  0  0  0  0  0  0  0  0  0  0
  181.9510  178.3230  135.6190 C   0  0  0  0  0  2  0  0  0  0  0  0
  180.6030  177.6550  135.3320 C   0  0  2  0  0  3  0  0  0  0  0  0
  179.4930  178.6610  135.0140 C   0  0  0  0  0  2  0  0  0  0  0  0
  180.0810  179.9330  134.6080 N   0  0  0  0  0  1  0  0  0  0  0  0
  180.2580  176.7930  136.3950 O   0  0  0  0  0  0  0  0  0  0  0  0
  180.1950  175.4430  135.9530 C   0  0  1  0  0  3  0  0  0  0  0  0
  179.8840  175.3940  134.5950 O   0  0  0  0  0  1  0  0  0  0  0  0
  181.4340  174.5820  136.2540 C   0  0  0  0  0  2  0  0  0  0  0  0
  179.0050  171.4020  135.3910 C   0  0  0  0  0  2  0  0  0  0  0  0
  181.3570  172.4630  137.5410 O   0  0  0  0  0  1  0  0  0  0  0  0
  181.0770  173.1060  136.3290 C   0  0  1  0  0  0  0  0  0  0  0  0
  179.7810  172.7270  135.5460 C   0  0  0  0  0  0  0  0  0  0  0  0
  178.9320  172.1130  136.6750 C   0  0  0  0  0  2  0  0  0  0  0  0
  181.2350  172.3030  135.0900 C   0  0  2  0  0  3  0  0  0  0  0  0
  183.0560  170.7680  135.6440 O   0  0  0  0  0  1  0  0  0  0  0  0
  181.8260  170.9310  135.3800 C   0  0  0  0  0  0  0  0  0  0  0  0
  181.0210  169.8090  135.2080 O   0  0  0  0  0  0  0  0  0  0  0  0
  1 50  1  0  0  0  0
  1  2  2  0  0  0  0
  2  5  1  0  0  0  0
  3  6  1  0  0  0  0
  3  2  1  0  0  0  0
  4 24  1  6  0  0  0
  5  4  1  0  0  0  0
  5  8  1  1  0  0  0
  6  7  1  0  0  0  0
  7  4  1  0  0  0  0
  8  9  1  1  0  0  0
  8 11  1  0  0  0  0
 11 10  1  0  0  0  0
 12 15  1  1  0  0  0
 12 11  1  0  0  0  0
 12 13  1  0  0  0  0
 13 14  1  0  0  0  0
 16 18  2  0  0  0  0
 17 19  1  0  0  0  0
 19 16  1  0  0  0  0
 21 15  1  1  0  0  0
 21 16  1  0  0  0  0
 22 20  2  6  0  0  0
 22 17  1  0  0  0  0
 22 21  1  0  0  0  0
 23 22  1  0  0  0  0
 24 28  1  0  0  0  0
 25 32  1  0  0  0  0
 26 28  1  0  0  0  0
 26 36  2  0  0  0  0
 27 38  1  0  0  0  0
 28 40  1  0  0  0  0
 29 39  1  0  0  0  0
 30 29  2  0  0  0  0
 31 27  2  0  0  0  0
 32 31  1  0  0  0  0
 32 37  2  0  0  0  0
 33 39  2  0  0  0  0
 34 38  2  0  0  0  0
 34 30  1  0  0  0  0
 35 41  2  0  0  0  0
 36 35  1  0  0  0  0
 37 34  1  0  0  0  0
 38 33  1  0  0  0  0
 40 25  2  0  0  0  0
 40 41  1  0  0  0  0
 41 31  1  0  0  0  0
 42 26  1  0  0  0  0
 43 49  2  0  0  0  0
 44 48  1  6  0  0  0
 45 49  1  0  0  0  0
 46 44  1  0  0  0  0
 46 43  1  0  0  0  0
 47 44  1  0  0  0  0
 47 45  1  0  0  0  0
 49 42  1  0  0  0  0
 51 52  1  1  0  0  0
 51 50  1  0  0  0  0
 51 54  1  0  0  0  0
 53 52  1  0  0  0  0
 55 56  1  6  0  0  0
 55 57  1  0  0  0  0
 55 54  1  0  0  0  0
 57 60  1  0  0  0  0
 58 61  1  0  0  0  0
 58 62  1  0  0  0  0
 60 59  1  1  0  0  0
 61 60  1  0  0  0  0
 61 62  1  0  0  0  0
 63 65  1  1  0  0  0
 63 61  1  0  0  0  0
 63 60  1  0  0  0  0
 65 64  1  0  0  0  0
 66 65  2  0  0  0  0
M  END
>  <MODEL>
4

>  <REMARK>
 VINA RESULT:      -6.6      1.577      2.064
  Name = 
  18 active torsions:
  status: ('A' for Active; 'I' for Inactive)
    1  A    between atoms: C_1  and  C_36
    2  A    between atoms: C_1  and  N_62
    3  A    between atoms: O_2  and  C_25
    4  A    between atoms: O_2  and  C_39
    5  A    between atoms: C_6  and  O_12
    6  A    between atoms: C_11  and  C_23
    7  A    between atoms: C_11  and  C_25
    8  A    between atoms: O_12  and  C_53
    9  A    between atoms: C_13  and  C_19
   10  A    between atoms: C_14  and  C_39
   11  A    between atoms: C_14  and  C_49
   12  A    between atoms: C_19  and  C_41
   13  A    between atoms: C_19  and  N_62
   14  A    between atoms: N_20  and  C_33
   15  A    between atoms: C_21  and  C_25
   16  A    between atoms: C_32  and  C_33
   17  A    between atoms: C_41  and  C_58
   18  A    between atoms: C_60  and  C_64
                            x       y       z     vdW  Elec       q    Type
                         _______ _______ _______ _____ _____    ______ ____

>  <TORSDO>
F 18

$$$$
=
 OpenBabel10222418393D

 66 74  0  0  1  0  0  0  0  0999 V2000
  186.4090  178.7910  141.9860 C   0  0  0  0  0  3  0  0  0  0  0  0
  186.8890  178.5040  140.7650 C   0  0  0  0  0  0  0  0  0  0  0  0
  188.2150  179.1220  140.4330 C   0  0  0  0  0  2  0  0  0  0  0  0
  186.8760  177.4100  138.4260 C   0  0  1  0  0  3  0  0  0  0  0  0
  186.1160  177.6740  139.7370 C   0  0  2  0  0  3  0  0  0  0  0  0
  188.8340  178.5390  139.1720 C   0  0  0  0  0  2  0  0  0  0  0  0
  187.8390  178.4690  138.1090 N   0  0  0  0  0  2  0  0  0  0  0  0
  184.7120  178.2460  139.4560 C   0  0  1  0  0  3  0  0  0  0  0  0
  184.7970  179.4410  138.7410 O   0  0  0  0  0  1  0  0  0  0  0  0
  182.5540  177.0960  139.5830 C   0  0  0  0  0  1  0  0  0  0  0  0
  183.7610  177.3230  138.7910 N   0  0  0  0  0  0  0  0  0  0  0  0
  183.3190  177.8750  137.4970 C   0  0  1  0  0  3  0  0  0  0  0  0
  183.5390  176.9050  136.3310 C   0  0  0  0  0  2  0  0  0  0  0  0
  182.3210  176.5800  135.7420 O   0  0  0  0  0  1  0  0  0  0  0  0
  181.8550  178.3170  137.5540 C   0  0  0  0  0  2  0  0  0  0  0  0
  180.3740  180.0580  136.3760 C   0  0  0  0  0  0  0  0  0  0  0  0
  180.0280  181.7930  138.0390 O   0  0  0  0  0  0  0  0  0  0  0  0
  180.1720  179.5510  135.1610 C   0  0  0  0  0  2  0  0  0  0  0  0
  179.4610  181.1230  136.9240 C   0  0  0  0  0  2  0  0  0  0  0  0
  182.6960  181.7860  138.9200 O   0  0  0  0  0  0  0  0  0  0  0  0
  181.6120  179.7870  137.1620 C   0  0  1  0  0  3  0  0  0  0  0  0
  181.3320  180.8380  138.5780 P   0  0  2  0  0  0  0  0  0  0  0  0
  180.9380  180.0520  139.8030 O   0  0  0  0  0  1  0  0  0  0  0  0
  187.5190  176.0110  138.3960 C   0  0  0  0  0  2  0  0  0  0  0  0
  185.4150  173.7980  138.0560 C   0  0  0  0  0  3  0  0  0  0  0  0
  187.8960  175.9170  135.8960 C   0  0  0  0  0  0  0  0  0  0  0  0
  183.4000  173.2320  135.0070 C   0  0  0  0  0  3  0  0  0  0  0  0
  187.2840  175.3750  137.0980 N   0  0  0  0  0  0  0  0  0  0  0  0
  179.9660  171.2330  136.4040 C   0  0  0  0  0  3  0  0  0  0  0  0
  181.0060  171.5240  137.2950 C   0  0  0  0  0  3  0  0  0  0  0  0
  184.3960  173.5420  135.9300 C   0  0  0  0  0  0  0  0  0  0  0  0
  184.2800  173.2260  137.2700 C   0  0  0  0  0  0  0  0  0  0  0  0
  181.2090  172.2620  134.5940 C   0  0  0  0  0  3  0  0  0  0  0  0
  182.1530  172.1910  136.8470 C   0  0  0  0  0  0  0  0  0  0  0  0
  186.0960  174.9590  134.5940 N   0  0  0  0  0  0  0  0  0  0  0  0
  187.2960  175.7450  134.7020 C   0  0  0  0  0  3  0  0  0  0  0  0
  183.1640  172.5440  137.7570 C   0  0  0  0  0  3  0  0  0  0  0  0
  182.2610  172.5530  135.4720 C   0  0  0  0  0  0  0  0  0  0  0  0
  180.0630  171.6060  135.0620 C   0  0  0  0  0  3  0  0  0  0  0  0
  186.1750  174.4790  136.9510 C   0  0  0  0  0  0  0  0  0  0  0  0
  185.6120  174.3030  135.7660 C   0  0  0  0  0  0  0  0  0  0  0  0
  189.0920  176.6370  135.9540 O   0  0  0  0  0  0  0  0  0  0  0  0
  190.8880  176.2530  137.4720 C   0  0  0  0  0  3  0  0  0  0  0  0
  192.6180  174.4950  136.9750 C   0  0  1  0  0  3  0  0  0  0  0  0
  190.9620  175.1460  135.2450 C   0  0  0  0  0  2  0  0  0  0  0  0
  192.2170  175.6720  137.8670 C   0  0  0  0  0  2  0  0  0  0  0  0
  192.4450  174.8940  135.5160 C   0  0  0  0  0  2  0  0  0  0  0  0
  194.0590  174.1310  137.2400 C   0  0  0  0  0  1  0  0  0  0  0  0
  190.3300  176.0620  136.2640 C   0  0  0  0  0  0  0  0  0  0  0  0
  185.0490  178.4050  142.4940 C   0  0  0  0  0  2  0  0  0  0  0  0
  184.9180  178.5390  144.0140 C   0  0  2  0  0  3  0  0  0  0  0  0
  183.7550  179.4400  144.4370 C   0  0  0  0  0  2  0  0  0  0  0  0
  182.5270  179.0020  143.7800 N   0  0  0  0  0  1  0  0  0  0  0  0
  186.1480  178.9530  144.5680 O   0  0  0  0  0  0  0  0  0  0  0  0
  186.2230  178.6150  145.9470 C   0  0  1  0  0  3  0  0  0  0  0  0
  185.6260  177.3760  146.1730 O   0  0  0  0  0  1  0  0  0  0  0  0
  187.6290  178.6590  146.5700 C   0  0  0  0  0  2  0  0  0  0  0  0
  189.7970  177.2620  143.3910 C   0  0  0  0  0  2  0  0  0  0  0  0
  188.3440  176.3040  146.2640 O   0  0  0  0  0  1  0  0  0  0  0  0
  188.5550  177.6450  145.9190 C   0  0  1  0  0  0  0  0  0  0  0  0
  188.9560  178.0010  144.4530 C   0  0  0  0  0  0  0  0  0  0  0  0
  188.4570  176.7500  143.7050 C   0  0  0  0  0  2  0  0  0  0  0  0
  189.9600  178.0610  145.6740 C   0  0  2  0  0  3  0  0  0  0  0  0
  190.6600  176.0080  146.8000 O   0  0  0  0  0  1  0  0  0  0  0  0
  190.9420  176.9450  145.9930 C   0  0  0  0  0  0  0  0  0  0  0  0
  192.2380  177.0360  145.4950 O   0  0  0  0  0  0  0  0  0  0  0  0
  1 50  1  0  0  0  0
  2  1  2  0  0  0  0
  3  2  1  0  0  0  0
  4 24  1  1  0  0  0
  4  5  1  0  0  0  0
  5  8  1  6  0  0  0
  5  2  1  0  0  0  0
  6  3  1  0  0  0  0
  7  4  1  0  0  0  0
  7  6  1  0  0  0  0
  8  9  1  6  0  0  0
 11  8  1  0  0  0  0
 11 10  1  0  0  0  0
 12 13  1  6  0  0  0
 12 15  1  0  0  0  0
 12 11  1  0  0  0  0
 14 13  1  0  0  0  0
 16 19  1  0  0  0  0
 16 21  1  0  0  0  0
 17 22  1  0  0  0  0
 18 16  2  0  0  0  0
 19 17  1  0  0  0  0
 21 15  1  1  0  0  0
 21 22  1  0  0  0  0
 22 20  2  1  0  0  0
 22 23  1  0  0  0  0
 26 42  1  0  0  0  0
 26 28  1  0  0  0  0
 27 38  2  0  0  0  0
 27 31  1  0  0  0  0
 28 24  1  0  0  0  0
 29 30  2  0  0  0  0
 31 32  2  0  0  0  0
 32 37  1  0  0  0  0
 32 25  1  0  0  0  0
 33 39  2  0  0  0  0
 33 38  1  0  0  0  0
 34 30  1  0  0  0  0
 34 37  2  0  0  0  0
 35 36  1  0  0  0  0
 35 41  2  0  0  0  0
 36 26  2  0  0  0  0
 38 34  1  0  0  0  0
 39 29  1  0  0  0  0
 40 28  1  0  0  0  0
 40 25  2  0  0  0  0
 41 31  1  0  0  0  0
 41 40  1  0  0  0  0
 42 49  1  0  0  0  0
 43 46  1  0  0  0  0
 44 48  1  6  0  0  0
 44 46  1  0  0  0  0
 45 47  1  0  0  0  0
 45 49  1  0  0  0  0
 47 44  1  0  0  0  0
 49 43  2  0  0  0  0
 51 50  1  6  0  0  0
 51 52  1  0  0  0  0
 51 54  1  0  0  0  0
 53 52  1  0  0  0  0
 54 55  1  0  0  0  0
 55 56  1  6  0  0  0
 55 57  1  0  0  0  0
 58 62  1  0  0  0  0
 58 61  1  0  0  0  0
 60 59  1  1  0  0  0
 60 57  1  0  0  0  0
 61 63  1  0  0  0  0
 61 60  1  0  0  0  0
 62 61  1  0  0  0  0
 63 60  1  0  0  0  0
 63 65  1  6  0  0  0
 65 64  1  0  0  0  0
 66 65  2  0  0  0  0
M  END
>  <MODEL>
5

>  <REMARK>
 VINA RESULT:      -5.9      2.964      8.339
  Name = 
  18 active torsions:
  status: ('A' for Active; 'I' for Inactive)
    1  A    between atoms: C_1  and  C_36
    2  A    between atoms: C_1  and  N_62
    3  A    between atoms: O_2  and  C_25
    4  A    between atoms: O_2  and  C_39
    5  A    between atoms: C_6  and  O_12
    6  A    between atoms: C_11  and  C_23
    7  A    between atoms: C_11  and  C_25
    8  A    between atoms: O_12  and  C_53
    9  A    between atoms: C_13  and  C_19
   10  A    between atoms: C_14  and  C_39
   11  A    between atoms: C_14  and  C_49
   12  A    between atoms: C_19  and  C_41
   13  A    between atoms: C_19  and  N_62
   14  A    between atoms: N_20  and  C_33
   15  A    between atoms: C_21  and  C_25
   16  A    between atoms: C_32  and  C_33
   17  A    between atoms: C_41  and  C_58
   18  A    between atoms: C_60  and  C_64
                            x       y       z     vdW  Elec       q    Type
                         _______ _______ _______ _____ _____    ______ ____

>  <TORSDO>
F 18

$$$$
=
 OpenBabel10222418393D

 66 74  0  0  1  0  0  0  0  0999 V2000
  186.3590  175.9160  136.4670 C   0  0  0  0  0  3  0  0  0  0  0  0
  187.1780  176.9620  136.6690 C   0  0  0  0  0  0  0  0  0  0  0  0
  187.0590  178.0750  135.6700 C   0  0  0  0  0  2  0  0  0  0  0  0
  189.0110  178.3170  137.8790 C   0  0  1  0  0  3  0  0  0  0  0  0
  188.2240  177.0000  137.7850 C   0  0  2  0  0  3  0  0  0  0  0  0
  187.7910  179.3340  136.1070 C   0  0  0  0  0  2  0  0  0  0  0  0
  189.1260  179.0000  136.5860 N   0  0  0  0  0  2  0  0  0  0  0  0
  189.1780  175.7880  137.7390 C   0  0  1  0  0  3  0  0  0  0  0  0
  188.7350  174.8440  136.8120 O   0  0  0  0  0  1  0  0  0  0  0  0
  191.4020  176.0500  138.7280 C   0  0  0  0  0  1  0  0  0  0  0  0
  190.6070  176.1020  137.5020 N   0  0  0  0  0  0  0  0  0  0  0  0
  191.2050  175.1300  136.5700 C   0  0  1  0  0  3  0  0  0  0  0  0
  190.7610  175.3480  135.1190 C   0  0  0  0  0  2  0  0  0  0  0  0
  190.6450  176.7100  134.8540 O   0  0  0  0  0  1  0  0  0  0  0  0
  192.7320  175.1350  136.6670 C   0  0  0  0  0  2  0  0  0  0  0  0
  193.4860  172.8020  135.8900 C   0  0  0  0  0  0  0  0  0  0  0  0
  195.7720  172.6020  136.6830 O   0  0  0  0  0  0  0  0  0  0  0  0
  192.4290  172.3130  135.2440 C   0  0  0  0  0  2  0  0  0  0  0  0
  194.8580  172.2220  135.6660 C   0  0  0  0  0  2  0  0  0  0  0  0
  195.2310  173.7330  139.1970 O   0  0  0  0  0  1  0  0  0  0  0  0
  193.3590  173.7710  137.0160 C   0  0  1  0  0  3  0  0  0  0  0  0
  195.0670  173.9090  137.5180 P   0  0  2  0  0  0  0  0  0  0  0  0
  195.6870  175.2110  137.0790 O   0  0  0  0  0  0  0  0  0  0  0  0
  188.4670  179.2460  138.9800 C   0  0  0  0  0  2  0  0  0  0  0  0
  189.7370  177.6960  141.3100 C   0  0  0  0  0  3  0  0  0  0  0  0
  186.2000  178.6080  139.9060 C   0  0  0  0  0  0  0  0  0  0  0  0
  188.1820  177.1950  144.6280 C   0  0  0  0  0  3  0  0  0  0  0  0
  187.6490  178.4840  139.9250 N   0  0  0  0  0  0  0  0  0  0  0  0
  191.4480  176.5310  147.2020 C   0  0  0  0  0  3  0  0  0  0  0  0
  191.6700  176.6690  145.8270 C   0  0  0  0  0  3  0  0  0  0  0  0
  188.4440  177.3670  143.2700 C   0  0  0  0  0  0  0  0  0  0  0  0
  189.7280  177.3400  142.7620 C   0  0  0  0  0  0  0  0  0  0  0  0
  189.0660  176.8290  146.8620 C   0  0  0  0  0  3  0  0  0  0  0  0
  190.5950  176.8930  144.9570 C   0  0  0  0  0  0  0  0  0  0  0  0
  186.1530  177.9860  142.2430 N   0  0  0  0  0  0  0  0  0  0  0  0
  185.4950  178.4050  141.0350 C   0  0  0  0  0  3  0  0  0  0  0  0
  190.8280  177.0990  143.5870 C   0  0  0  0  0  3  0  0  0  0  0  0
  189.2710  176.9610  145.4830 C   0  0  0  0  0  0  0  0  0  0  0  0
  190.1540  176.6180  147.7190 C   0  0  0  0  0  3  0  0  0  0  0  0
  188.2670  177.9280  141.0930 C   0  0  0  0  0  0  0  0  0  0  0  0
  187.5540  177.7110  142.1870 C   0  0  0  0  0  0  0  0  0  0  0  0
  185.5200  178.9580  138.7360 O   0  0  0  0  0  0  0  0  0  0  0  0
  183.2790  179.7650  138.6910 C   0  0  0  0  0  3  0  0  0  0  0  0
  181.4410  178.3590  137.7010 C   0  0  1  0  0  3  0  0  0  0  0  0
  183.6960  177.3900  138.0770 C   0  0  0  0  0  2  0  0  0  0  0  0
  181.7940  179.6100  138.5100 C   0  0  0  0  0  2  0  0  0  0  0  0
  182.1960  177.1670  138.2730 C   0  0  0  0  0  2  0  0  0  0  0  0
  179.9550  178.1110  137.7800 C   0  0  0  0  0  1  0  0  0  0  0  0
  184.1480  178.7510  138.5450 C   0  0  0  0  0  0  0  0  0  0  0  0
  186.3860  174.6320  137.2450 C   0  0  0  0  0  2  0  0  0  0  0  0
  185.9010  173.4290  136.4310 C   0  0  2  0  0  3  0  0  0  0  0  0
  185.1000  173.8300  135.1910 C   0  0  0  0  0  2  0  0  0  0  0  0
  184.0520  174.7750  135.5630 N   0  0  0  0  0  1  0  0  0  0  0  0
  185.1910  172.5400  137.2660 O   0  0  0  0  0  0  0  0  0  0  0  0
  184.2100  171.8240  136.5260 C   0  0  1  0  0  3  0  0  0  0  0  0
  184.7360  170.6140  136.0730 O   0  0  0  0  0  1  0  0  0  0  0  0
  182.8680  171.5950  137.2410 C   0  0  0  0  0  2  0  0  0  0  0  0
  178.9490  171.1380  136.1500 C   0  0  0  0  0  2  0  0  0  0  0  0
  181.9880  171.9080  134.9440 O   0  0  0  0  0  1  0  0  0  0  0  0
  181.6940  171.8580  136.3120 C   0  0  1  0  0  0  0  0  0  0  0  0
  180.3560  171.2050  136.7810 C   0  0  0  0  0  0  0  0  0  0  0  0
  180.0220  170.3240  135.5630 C   0  0  0  0  0  2  0  0  0  0  0  0
  180.6240  172.7640  136.8020 C   0  0  2  0  0  3  0  0  0  0  0  0
  179.4560  173.2910  134.7210 O   0  0  0  0  0  0  0  0  0  0  0  0
  180.1360  173.7030  135.7100 C   0  0  0  0  0  0  0  0  0  0  0  0
  180.5710  175.0240  135.7230 O   0  0  0  0  0  1  0  0  0  0  0  0
  1  2  2  0  0  0  0
  1 50  1  0  0  0  0
  2  5  1  0  0  0  0
  3  6  1  0  0  0  0
  3  2  1  0  0  0  0
  4 24  1  1  0  0  0
  5  8  1  6  0  0  0
  5  4  1  0  0  0  0
  6  7  1  0  0  0  0
  7  4  1  0  0  0  0
  8  9  1  6  0  0  0
 11  8  1  0  0  0  0
 11 10  1  0  0  0  0
 12 13  1  6  0  0  0
 12 15  1  0  0  0  0
 12 11  1  0  0  0  0
 14 13  1  0  0  0  0
 16 21  1  0  0  0  0
 17 22  1  0  0  0  0
 18 16  2  0  0  0  0
 19 16  1  0  0  0  0
 19 17  1  0  0  0  0
 21 15  1  6  0  0  0
 21 22  1  0  0  0  0
 22 23  2  6  0  0  0
 22 20  1  0  0  0  0
 24 28  1  0  0  0  0
 25 32  1  0  0  0  0
 26 28  1  0  0  0  0
 26 36  2  0  0  0  0
 27 38  1  0  0  0  0
 28 40  1  0  0  0  0
 29 39  1  0  0  0  0
 30 29  2  0  0  0  0
 31 27  2  0  0  0  0
 32 31  1  0  0  0  0
 32 37  2  0  0  0  0
 33 39  2  0  0  0  0
 34 38  2  0  0  0  0
 34 30  1  0  0  0  0
 36 35  1  0  0  0  0
 37 34  1  0  0  0  0
 38 33  1  0  0  0  0
 40 25  2  0  0  0  0
 40 41  1  0  0  0  0
 41 35  2  0  0  0  0
 41 31  1  0  0  0  0
 42 26  1  0  0  0  0
 44 48  1  1  0  0  0
 44 47  1  0  0  0  0
 44 46  1  0  0  0  0
 45 47  1  0  0  0  0
 45 49  1  0  0  0  0
 46 43  1  0  0  0  0
 49 43  2  0  0  0  0
 49 42  1  0  0  0  0
 51 52  1  6  0  0  0
 51 50  1  0  0  0  0
 51 54  1  0  0  0  0
 52 53  1  0  0  0  0
 55 56  1  1  0  0  0
 55 57  1  0  0  0  0
 55 54  1  0  0  0  0
 58 61  1  0  0  0  0
 60 59  1  6  0  0  0
 60 61  1  0  0  0  0
 60 63  1  0  0  0  0
 60 57  1  0  0  0  0
 61 63  1  0  0  0  0
 62 58  1  0  0  0  0
 62 61  1  0  0  0  0
 63 65  1  6  0  0  0
 64 65  2  0  0  0  0
 65 66  1  0  0  0  0
M  END
>  <MODEL>
6

>  <REMARK>
 VINA RESULT:      -5.7      3.289      8.286
  Name = 
  18 active torsions:
  status: ('A' for Active; 'I' for Inactive)
    1  A    between atoms: C_1  and  C_36
    2  A    between atoms: C_1  and  N_62
    3  A    between atoms: O_2  and  C_25
    4  A    between atoms: O_2  and  C_39
    5  A    between atoms: C_6  and  O_12
    6  A    between atoms: C_11  and  C_23
    7  A    between atoms: C_11  and  C_25
    8  A    between atoms: O_12  and  C_53
    9  A    between atoms: C_13  and  C_19
   10  A    between atoms: C_14  and  C_39
   11  A    between atoms: C_14  and  C_49
   12  A    between atoms: C_19  and  C_41
   13  A    between atoms: C_19  and  N_62
   14  A    between atoms: N_20  and  C_33
   15  A    between atoms: C_21  and  C_25
   16  A    between atoms: C_32  and  C_33
   17  A    between atoms: C_41  and  C_58
   18  A    between atoms: C_60  and  C_64
                            x       y       z     vdW  Elec       q    Type
                         _______ _______ _______ _____ _____    ______ ____

>  <TORSDO>
F 18

$$$$
=
 OpenBabel10222418393D

 66 74  0  0  1  0  0  0  0  0999 V2000
  188.9440  177.6370  138.4970 C   0  0  0  0  0  3  0  0  0  0  0  0
  188.1450  177.8530  137.4390 C   0  0  0  0  0  0  0  0  0  0  0  0
  188.6490  178.8620  136.4480 C   0  0  0  0  0  2  0  0  0  0  0  0
  186.0540  177.5260  135.9610 C   0  0  1  0  0  3  0  0  0  0  0  0
  186.7750  177.1910  137.2770 C   0  0  2  0  0  3  0  0  0  0  0  0
  187.8570  178.8520  135.1500 C   0  0  0  0  0  2  0  0  0  0  0  0
  186.4270  178.8420  135.4320 N   0  0  0  0  0  2  0  0  0  0  0  0
  185.8550  177.4380  138.4900 C   0  0  1  0  0  3  0  0  0  0  0  0
  186.1750  178.6420  139.1170 O   0  0  0  0  0  1  0  0  0  0  0  0
  183.8210  176.0770  138.5450 C   0  0  0  0  0  1  0  0  0  0  0  0
  184.3990  177.3780  138.2160 N   0  0  0  0  0  0  0  0  0  0  0  0
  183.6770  178.3770  139.0240 C   0  0  1  0  0  3  0  0  0  0  0  0
  182.7530  179.2650  138.1840 C   0  0  0  0  0  2  0  0  0  0  0  0
  183.3660  180.4890  137.9300 O   0  0  0  0  0  1  0  0  0  0  0  0
  182.8930  177.7120  140.1580 C   0  0  0  0  0  2  0  0  0  0  0  0
  180.5060  176.7540  140.2060 C   0  0  0  0  0  0  0  0  0  0  0  0
  179.3730  178.0230  141.9380 O   0  0  0  0  0  0  0  0  0  0  0  0
  180.5150  175.8020  139.2750 C   0  0  0  0  0  2  0  0  0  0  0  0
  179.4490  176.7690  141.2790 C   0  0  0  0  0  2  0  0  0  0  0  0
  180.4630  180.4900  141.1500 O   0  0  0  0  0  0  0  0  0  0  0  0
  181.3730  177.9650  140.1230 C   0  0  1  0  0  3  0  0  0  0  0  0
  180.7960  178.8750  141.5460 P   0  0  2  0  0  0  0  0  0  0  0  0
  181.7740  178.8230  142.6920 O   0  0  0  0  0  1  0  0  0  0  0  0
  186.2110  176.4120  134.9090 C   0  0  0  0  0  2  0  0  0  0  0  0
  189.2040  175.7900  134.5960 C   0  0  0  0  0  3  0  0  0  0  0  0
  186.0470  174.4160  136.4550 C   0  0  0  0  0  0  0  0  0  0  0  0
  191.3060  174.1240  137.1430 C   0  0  0  0  0  3  0  0  0  0  0  0
  186.8110  175.2230  135.5170 N   0  0  0  0  0  0  0  0  0  0  0  0
  195.2150  175.4140  136.2490 C   0  0  0  0  0  3  0  0  0  0  0  0
  194.1570  175.7850  135.4110 C   0  0  0  0  0  3  0  0  0  0  0  0
  190.2720  174.5470  136.3090 C   0  0  0  0  0  0  0  0  0  0  0  0
  190.4950  175.3740  135.2260 C   0  0  0  0  0  0  0  0  0  0  0  0
  193.6780  174.1870  137.6690 C   0  0  0  0  0  3  0  0  0  0  0  0
  192.8500  175.3670  135.6960 C   0  0  0  0  0  0  0  0  0  0  0  0
  188.1220  173.6890  137.4620 N   0  0  0  0  0  0  0  0  0  0  0  0
  186.6850  173.7140  137.4100 C   0  0  0  0  0  3  0  0  0  0  0  0
  191.7810  175.7990  134.8920 C   0  0  0  0  0  3  0  0  0  0  0  0
  192.6110  174.5440  136.8350 C   0  0  0  0  0  0  0  0  0  0  0  0
  194.9770  174.6250  137.3770 C   0  0  0  0  0  3  0  0  0  0  0  0
  188.2360  175.0710  135.4940 C   0  0  0  0  0  0  0  0  0  0  0  0
  188.8460  174.3570  136.4270 C   0  0  0  0  0  0  0  0  0  0  0  0
  184.6510  174.3700  136.4000 O   0  0  0  0  0  0  0  0  0  0  0  0
  182.9020  172.8110  136.8290 C   0  0  0  0  0  3  0  0  0  0  0  0
  182.2200  171.1480  135.0680 C   0  0  1  0  0  3  0  0  0  0  0  0
  184.2630  172.5250  134.7660 C   0  0  0  0  0  2  0  0  0  0  0  0
  182.0880  171.5820  136.5300 C   0  0  0  0  0  2  0  0  0  0  0  0
  183.6950  171.1080  134.6920 C   0  0  0  0  0  2  0  0  0  0  0  0
  181.6080  169.7790  134.8930 C   0  0  0  0  0  1  0  0  0  0  0  0
  183.9250  173.2210  136.0620 C   0  0  0  0  0  0  0  0  0  0  0  0
  188.5970  176.7830  139.6830 C   0  0  0  0  0  2  0  0  0  0  0  0
  189.5370  177.0010  140.8730 C   0  0  2  0  0  3  0  0  0  0  0  0
  190.9940  176.6570  140.5550 C   0  0  0  0  0  2  0  0  0  0  0  0
  191.8800  177.6310  141.1830 N   0  0  0  0  0  1  0  0  0  0  0  0
  189.0530  176.3040  142.0010 O   0  0  0  0  0  0  0  0  0  0  0  0
  189.5290  176.8930  143.2040 C   0  0  1  0  0  3  0  0  0  0  0  0
  189.8150  178.2420  143.0000 O   0  0  0  0  0  1  0  0  0  0  0  0
  188.6300  176.7120  144.4380 C   0  0  0  0  0  2  0  0  0  0  0  0
  185.0120  178.1400  143.1630 C   0  0  0  0  0  2  0  0  0  0  0  0
  187.8950  179.0750  144.6090 O   0  0  0  0  0  1  0  0  0  0  0  0
  187.5080  177.7380  144.4610 C   0  0  1  0  0  0  0  0  0  0  0  0
  186.3120  177.3890  143.5200 C   0  0  0  0  0  0  0  0  0  0  0  0
  186.2820  178.6380  142.6180 C   0  0  0  0  0  2  0  0  0  0  0  0
  186.2280  177.3350  145.0990 C   0  0  2  0  0  3  0  0  0  0  0  0
  186.2460  178.9490  146.9350 O   0  0  0  0  0  1  0  0  0  0  0  0
  185.6370  178.4600  145.9360 C   0  0  0  0  0  0  0  0  0  0  0  0
  184.3300  178.8620  145.6820 O   0  0  0  0  0  0  0  0  0  0  0  0
  1 50  1  0  0  0  0
  2  1  2  0  0  0  0
  3  2  1  0  0  0  0
  4 24  1  6  0  0  0
  4  5  1  0  0  0  0
  5  2  1  0  0  0  0
  5  8  1  1  0  0  0
  6  7  1  0  0  0  0
  6  3  1  0  0  0  0
  7  4  1  0  0  0  0
  8  9  1  6  0  0  0
 11  8  1  0  0  0  0
 11 10  1  0  0  0  0
 11 12  1  0  0  0  0
 12 13  1  6  0  0  0
 12 15  1  0  0  0  0
 14 13  1  0  0  0  0
 16 19  1  0  0  0  0
 18 16  2  0  0  0  0
 19 17  1  0  0  0  0
 21 15  1  1  0  0  0
 21 16  1  0  0  0  0
 21 22  1  0  0  0  0
 22 20  2  6  0  0  0
 22 17  1  0  0  0  0
 22 23  1  0  0  0  0
 24 28  1  0  0  0  0
 25 32  1  0  0  0  0
 25 40  2  0  0  0  0
 26 36  2  0  0  0  0
 28 26  1  0  0  0  0
 29 39  1  0  0  0  0
 30 34  1  0  0  0  0
 30 29  2  0  0  0  0
 31 41  1  0  0  0  0
 31 27  2  0  0  0  0
 32 31  1  0  0  0  0
 34 38  2  0  0  0  0
 36 35  1  0  0  0  0
 37 32  2  0  0  0  0
 37 34  1  0  0  0  0
 38 27  1  0  0  0  0
 38 33  1  0  0  0  0
 39 33  2  0  0  0  0
 40 28  1  0  0  0  0
 40 41  1  0  0  0  0
 41 35  2  0  0  0  0
 42 26  1  0  0  0  0
 44 48  1  1  0  0  0
 44 46  1  0  0  0  0
 45 49  1  0  0  0  0
 46 43  1  0  0  0  0
 47 45  1  0  0  0  0
 47 44  1  0  0  0  0
 49 42  1  0  0  0  0
 49 43  2  0  0  0  0
 51 50  1  6  0  0  0
 51 54  1  0  0  0  0
 52 51  1  0  0  0  0
 52 53  1  0  0  0  0
 54 55  1  0  0  0  0
 55 56  1  6  0  0  0
 55 57  1  0  0  0  0
 57 60  1  0  0  0  0
 58 61  1  0  0  0  0
 60 59  1  1  0  0  0
 60 63  1  0  0  0  0
 61 60  1  0  0  0  0
 61 63  1  0  0  0  0
 62 58  1  0  0  0  0
 62 61  1  0  0  0  0
 63 65  1  1  0  0  0
 65 64  1  0  0  0  0
 66 65  2  0  0  0  0
M  END
>  <MODEL>
7

>  <REMARK>
 VINA RESULT:      -5.0      2.589      8.682
  Name = 
  18 active torsions:
  status: ('A' for Active; 'I' for Inactive)
    1  A    between atoms: C_1  and  C_36
    2  A    between atoms: C_1  and  N_62
    3  A    between atoms: O_2  and  C_25
    4  A    between atoms: O_2  and  C_39
    5  A    between atoms: C_6  and  O_12
    6  A    between atoms: C_11  and  C_23
    7  A    between atoms: C_11  and  C_25
    8  A    between atoms: O_12  and  C_53
    9  A    between atoms: C_13  and  C_19
   10  A    between atoms: C_14  and  C_39
   11  A    between atoms: C_14  and  C_49
   12  A    between atoms: C_19  and  C_41
   13  A    between atoms: C_19  and  N_62
   14  A    between atoms: N_20  and  C_33
   15  A    between atoms: C_21  and  C_25
   16  A    between atoms: C_32  and  C_33
   17  A    between atoms: C_41  and  C_58
   18  A    between atoms: C_60  and  C_64
                            x       y       z     vdW  Elec       q    Type
                         _______ _______ _______ _____ _____    ______ ____

>  <TORSDO>
F 18

$$$$
