8tyq
 OpenBabel11062412003D

 39 43  0  0  1  0  0  0  0  0999 V2000
  189.8240  176.7790  142.5120 C   0  0  0  0  0  0  0  0  0  0  0  0
  190.4490  175.8390  142.7670 O   0  0  0  0  0  0  0  0  0  0  0  0
  189.9850  177.5290  141.2640 N   0  0  0  0  0  2  0  0  0  0  0  0
  185.9210  178.2510  146.5000 C   0  0  0  0  0  1  0  0  0  0  0  0
  186.9730  177.8620  145.4860 C   0  0  0  0  0  0  0  0  0  0  0  0
  186.6440  177.7890  144.1590 C   0  0  0  0  0  0  0  0  0  0  0  0
  187.5630  177.4480  143.2080 C   0  0  0  0  0  3  0  0  0  0  0  0
  188.8420  177.1730  143.6080 C   0  0  0  0  0  0  0  0  0  0  0  0
  189.1980  177.2260  144.9350 C   0  0  0  0  0  3  0  0  0  0  0  0
  188.2550  177.5780  145.8820 C   0  0  0  0  0  3  0  0  0  0  0  0
  185.2270  178.1040  143.7480 C   0  0  0  0  0  0  0  0  0  0  0  0
  184.1260  178.3430  143.4130 C   0  0  0  0  0  0  0  0  0  0  0  0
  182.7110  178.6380  142.9630 C   0  0  2  0  0  3  0  0  0  0  0  0
  182.3510  178.6400  141.6460 C   0  0  0  0  0  3  0  0  0  0  0  0
  181.0830  178.9190  141.3940 C   0  0  0  0  0  0  0  0  0  0  0  0
  180.1550  179.1910  142.4030 C   0  0  0  0  0  0  0  0  0  0  0  0
  178.9890  179.4090  141.6320 N   0  0  0  0  0  0  0  0  0  0  0  0
  178.9890  179.3260  140.3380 N   0  0  0  0  0  0  0  0  0  0  0  0
  180.2120  179.0480  140.2670 C   0  0  0  0  0  3  0  0  0  0  0  0
  180.4710  179.2010  143.6710 N   0  0  0  0  0  0  0  0  0  0  0  0
  181.7670  178.9180  143.9760 C   0  0  0  0  0  3  0  0  0  0  0  0
  190.9610  177.1260  140.2190 C   0  0  0  0  0  0  0  0  0  0  0  0
  190.5540  176.3690  139.1460 C   0  0  0  0  0  3  0  0  0  0  0  0
  191.4250  175.9540  138.1460 C   0  0  0  0  0  0  0  0  0  0  0  0
  192.7910  176.3210  138.1980 C   0  0  0  0  0  0  0  0  0  0  0  0
  193.1820  177.1180  139.2770 C   0  0  0  0  0  3  0  0  0  0  0  0
  192.2870  177.5020  140.2830 C   0  0  0  0  0  3  0  0  0  0  0  0
  190.8510  175.1130  137.0270 C   0  0  0  0  0  0  0  0  0  0  0  0
  191.4700  173.9170  136.9710 F   0  0  0  0  0  0  0  0  0  0  0  0
  189.5470  174.9060  137.2630 F   0  0  0  0  0  0  0  0  0  0  0  0
  190.9790  175.7990  135.8780 F   0  0  0  0  0  0  0  0  0  0  0  0
  193.7730  175.8910  137.0380 C   0  0  0  0  0  2  0  0  0  0  0  0
  194.9400  175.2860  137.3120 N   0  0  0  0  0  0  0  0  0  0  0  0
  194.7250  174.1320  137.8720 C   0  0  0  0  0  2  0  0  0  0  0  0
  195.9910  173.3160  138.1700 C   0  0  0  0  0  2  0  0  0  0  0  0
  196.7240  173.2370  137.0880 N   0  0  0  0  0  0  0  0  0  0  0  0
  196.9960  174.4620  136.7960 C   0  0  0  0  0  2  0  0  0  0  0  0
  195.7410  175.1650  136.3240 C   0  0  0  0  0  2  0  0  0  0  0  0
  197.8360  172.6180  137.3360 C   0  0  0  0  0  1  0  0  0  0  0  0
  1  2  2  0  0  0  0
  1  8  1  0  0  0  0
  3  1  1  0  0  0  0
  5 10  1  0  0  0  0
  5  4  1  0  0  0  0
  6  5  2  0  0  0  0
  7  8  2  0  0  0  0
  7  6  1  0  0  0  0
  8  9  1  0  0  0  0
  9 10  2  0  0  0  0
 11  6  1  0  0  0  0
 12 11  3  0  0  0  0
 13 12  1  6  0  0  0
 13 21  1  0  0  0  0
 14 13  1  0  0  0  0
 15 14  2  0  0  0  0
 15 16  1  0  0  0  0
 16 20  1  0  0  0  0
 17 16  2  0  0  0  0
 18 17  1  0  0  0  0
 19 18  2  0  0  0  0
 19 15  1  0  0  0  0
 20 21  2  0  0  0  0
 22 27  1  0  0  0  0
 22  3  1  0  0  0  0
 23 22  2  0  0  0  0
 24 25  2  0  0  0  0
 24 23  1  0  0  0  0
 25 26  1  0  0  0  0
 26 27  2  0  0  0  0
 28 30  1  0  0  0  0
 28 24  1  0  0  0  0
 29 28  1  0  0  0  0
 31 28  1  0  0  0  0
 32 33  1  0  0  0  0
 32 25  1  0  0  0  0
 33 34  1  0  0  0  0
 34 35  1  0  0  0  0
 36 39  1  0  0  0  0
 36 35  1  0  0  0  0
 37 36  1  0  0  0  0
 38 37  1  0  0  0  0
 38 33  1  0  0  0  0
M  END
>  <MODEL>
1

>  <REMARK>
 VINA RESULT:      -9.2      0.000      0.000
  Name = 8tyq
  8 active torsions:
  status: ('A' for Active; 'I' for Inactive)
    1  A    between atoms: C_3  and  C_26
    2  A    between atoms: C_5  and  C_8
    3  A    between atoms: N_10  and  C_11
    4  A    between atoms: C_13  and  C_25
    5  A    between atoms: C_14  and  C_17
    6  A    between atoms: C_17  and  N_18
    7  A    between atoms: C_26  and  C_27
    8  A    between atoms: C_27  and  C_28
                            x       y       z     vdW  Elec       q    Type
                         _______ _______ _______ _____ _____    ______ ____

>  <TORSDO>
F 8

$$$$
8tyq
 OpenBabel11062412003D

 39 43  0  0  1  0  0  0  0  0999 V2000
  186.5800  178.2550  137.8790 C   0  0  0  0  0  0  0  0  0  0  0  0
  186.4390  178.5630  136.7720 O   0  0  0  0  0  0  0  0  0  0  0  0
  185.4890  178.2740  138.8570 N   0  0  0  0  0  2  0  0  0  0  0  0
  191.9270  176.7250  139.4190 C   0  0  0  0  0  1  0  0  0  0  0  0
  190.5370  177.1230  138.9740 C   0  0  0  0  0  0  0  0  0  0  0  0
  189.5800  177.4060  139.9100 C   0  0  0  0  0  0  0  0  0  0  0  0
  188.3140  177.7750  139.5550 C   0  0  0  0  0  3  0  0  0  0  0  0
  188.0110  177.8590  138.2230 C   0  0  0  0  0  0  0  0  0  0  0  0
  188.9480  177.5680  137.2610 C   0  0  0  0  0  3  0  0  0  0  0  0
  190.2260  177.2020  137.6410 C   0  0  0  0  0  3  0  0  0  0  0  0
  189.9460  177.3110  141.3710 C   0  0  0  0  0  0  0  0  0  0  0  0
  190.2180  177.2280  142.5110 C   0  0  0  0  0  0  0  0  0  0  0  0
  190.5480  177.1300  143.9850 C   0  0  2  0  0  3  0  0  0  0  0  0
  191.5070  176.2820  144.4620 C   0  0  0  0  0  3  0  0  0  0  0  0
  191.6890  176.2940  145.7720 C   0  0  0  0  0  0  0  0  0  0  0  0
  190.9570  177.1210  146.6280 C   0  0  0  0  0  0  0  0  0  0  0  0
  191.5220  176.7670  147.8770 N   0  0  0  0  0  0  0  0  0  0  0  0
  192.4650  175.8850  147.9850 N   0  0  0  0  0  0  0  0  0  0  0  0
  192.5110  175.6530  146.7510 C   0  0  0  0  0  3  0  0  0  0  0  0
  190.0310  177.9380  146.2020 N   0  0  0  0  0  0  0  0  0  0  0  0
  189.8110  177.9590  144.8590 C   0  0  0  0  0  3  0  0  0  0  0  0
  184.1070  178.6780  138.4930 C   0  0  0  0  0  0  0  0  0  0  0  0
  183.3400  177.8720  137.6860 C   0  0  0  0  0  3  0  0  0  0  0  0
  182.0450  178.2050  137.3060 C   0  0  0  0  0  0  0  0  0  0  0  0
  181.4600  179.4110  137.7600 C   0  0  0  0  0  0  0  0  0  0  0  0
  182.2420  180.2040  138.6060 C   0  0  0  0  0  3  0  0  0  0  0  0
  183.5510  179.8530  138.9550 C   0  0  0  0  0  3  0  0  0  0  0  0
  181.3140  177.2360  136.4030 C   0  0  0  0  0  0  0  0  0  0  0  0
  180.9530  177.8410  135.2540 F   0  0  0  0  0  0  0  0  0  0  0  0
  182.1310  176.2140  136.1080 F   0  0  0  0  0  0  0  0  0  0  0  0
  180.2500  176.7590  137.0740 F   0  0  0  0  0  0  0  0  0  0  0  0
  179.9730  179.7690  137.3680 C   0  0  0  0  0  2  0  0  0  0  0  0
  179.6990  180.8470  136.6160 N   0  0  0  0  0  0  0  0  0  0  0  0
  179.6280  181.9080  137.3660 C   0  0  0  0  0  2  0  0  0  0  0  0
  179.3850  183.2190  136.6030 C   0  0  0  0  0  2  0  0  0  0  0  0
  180.2580  183.3280  135.6320 N   0  0  0  0  0  0  0  0  0  0  0  0
  180.0470  182.2930  134.8950 C   0  0  0  0  0  2  0  0  0  0  0  0
  180.4860  181.0450  135.6300 C   0  0  0  0  0  2  0  0  0  0  0  0
  180.0230  184.3900  134.9270 C   0  0  0  0  0  1  0  0  0  0  0  0
  1  8  1  0  0  0  0
  1  3  1  0  0  0  0
  2  1  2  0  0  0  0
  5  4  1  0  0  0  0
  5  6  1  0  0  0  0
  6 11  1  0  0  0  0
  7  6  2  0  0  0  0
  8  7  1  0  0  0  0
  9 10  1  0  0  0  0
  9  8  2  0  0  0  0
 10  5  2  0  0  0  0
 11 12  3  0  0  0  0
 13 12  1  1  0  0  0
 13 14  1  0  0  0  0
 13 21  1  0  0  0  0
 14 15  2  0  0  0  0
 15 16  1  0  0  0  0
 15 19  1  0  0  0  0
 16 17  2  0  0  0  0
 17 18  1  0  0  0  0
 19 18  2  0  0  0  0
 20 16  1  0  0  0  0
 21 20  2  0  0  0  0
 22  3  1  0  0  0  0
 22 27  1  0  0  0  0
 23 22  2  0  0  0  0
 24 23  1  0  0  0  0
 24 25  2  0  0  0  0
 25 26  1  0  0  0  0
 26 27  2  0  0  0  0
 28 31  1  0  0  0  0
 28 24  1  0  0  0  0
 29 28  1  0  0  0  0
 30 28  1  0  0  0  0
 32 25  1  0  0  0  0
 33 34  1  0  0  0  0
 33 32  1  0  0  0  0
 35 34  1  0  0  0  0
 36 35  1  0  0  0  0
 37 38  1  0  0  0  0
 37 36  1  0  0  0  0
 38 33  1  0  0  0  0
 39 36  1  0  0  0  0
M  END
>  <MODEL>
2

>  <REMARK>
 VINA RESULT:      -7.3      5.158     11.706
  Name = 8tyq
  8 active torsions:
  status: ('A' for Active; 'I' for Inactive)
    1  A    between atoms: C_3  and  C_26
    2  A    between atoms: C_5  and  C_8
    3  A    between atoms: N_10  and  C_11
    4  A    between atoms: C_13  and  C_25
    5  A    between atoms: C_14  and  C_17
    6  A    between atoms: C_17  and  N_18
    7  A    between atoms: C_26  and  C_27
    8  A    between atoms: C_27  and  C_28
                            x       y       z     vdW  Elec       q    Type
                         _______ _______ _______ _____ _____    ______ ____

>  <TORSDO>
F 8

$$$$
8tyq
 OpenBabel11062412003D

 39 43  0  0  1  0  0  0  0  0999 V2000
  183.4160  178.0820  141.0400 C   0  0  0  0  0  0  0  0  0  0  0  0
  183.4930  178.9930  140.3300 O   0  0  0  0  0  0  0  0  0  0  0  0
  182.9480  176.7650  140.5990 N   0  0  0  0  0  2  0  0  0  0  0  0
  185.1760  179.1970  146.4220 C   0  0  0  0  0  1  0  0  0  0  0  0
  184.6770  178.9230  145.0200 C   0  0  0  0  0  0  0  0  0  0  0  0
  185.4840  178.2730  144.1270 C   0  0  0  0  0  0  0  0  0  0  0  0
  185.0740  177.9990  142.8540 C   0  0  0  0  0  3  0  0  0  0  0  0
  183.8190  178.3930  142.4760 C   0  0  0  0  0  0  0  0  0  0  0  0
  182.9920  179.0600  143.3480 C   0  0  0  0  0  3  0  0  0  0  0  0
  183.4240  179.3220  144.6340 C   0  0  0  0  0  3  0  0  0  0  0  0
  186.8600  177.8450  144.5740 C   0  0  0  0  0  0  0  0  0  0  0  0
  187.9270  177.4960  144.9260 C   0  0  0  0  0  0  0  0  0  0  0  0
  189.2900  177.0390  145.3980 C   0  0  2  0  0  3  0  0  0  0  0  0
  189.6330  177.0140  146.7200 C   0  0  0  0  0  3  0  0  0  0  0  0
  190.8580  176.5970  146.9910 C   0  0  0  0  0  0  0  0  0  0  0  0
  191.7570  176.1980  145.9970 C   0  0  0  0  0  0  0  0  0  0  0  0
  192.8790  175.8500  146.7870 N   0  0  0  0  0  0  0  0  0  0  0  0
  192.8730  175.9440  148.0790 N   0  0  0  0  0  0  0  0  0  0  0  0
  191.6940  176.3780  148.1300 C   0  0  0  0  0  3  0  0  0  0  0  0
  191.4590  176.2160  144.7250 N   0  0  0  0  0  0  0  0  0  0  0  0
  190.2070  176.6380  144.4010 C   0  0  0  0  0  3  0  0  0  0  0  0
  182.5500  176.4960  139.1940 C   0  0  0  0  0  0  0  0  0  0  0  0
  183.4950  176.4880  138.1960 C   0  0  0  0  0  3  0  0  0  0  0  0
  183.1780  176.2530  136.8630 C   0  0  0  0  0  0  0  0  0  0  0  0
  181.8370  175.9960  136.4880 C   0  0  0  0  0  0  0  0  0  0  0  0
  180.8940  175.9750  137.5190 C   0  0  0  0  0  3  0  0  0  0  0  0
  181.2390  176.2370  138.8500 C   0  0  0  0  0  3  0  0  0  0  0  0
  184.3100  176.2860  135.8610 C   0  0  0  0  0  0  0  0  0  0  0  0
  184.0340  177.1510  134.8650 F   0  0  0  0  0  0  0  0  0  0  0  0
  185.4280  176.6930  136.4810 F   0  0  0  0  0  0  0  0  0  0  0  0
  184.5020  175.0370  135.4020 F   0  0  0  0  0  0  0  0  0  0  0  0
  181.4810  175.6820  134.9820 C   0  0  0  0  0  2  0  0  0  0  0  0
  180.8990  174.5220  134.6390 N   0  0  0  0  0  0  0  0  0  0  0  0
  181.6490  173.5220  134.9980 C   0  0  0  0  0  2  0  0  0  0  0  0
  181.0520  172.1360  134.7160 C   0  0  0  0  0  2  0  0  0  0  0  0
  179.8390  172.0750  135.2060 N   0  0  0  0  0  0  0  0  0  0  0  0
  179.1990  173.0110  134.5940 C   0  0  0  0  0  2  0  0  0  0  0  0
  179.7030  174.3610  135.0580 C   0  0  0  0  0  2  0  0  0  0  0  0
  179.2860  170.9400  134.9130 C   0  0  0  0  0  1  0  0  0  0  0  0
  1  8  1  0  0  0  0
  2  1  2  0  0  0  0
  3  1  1  0  0  0  0
  5  4  1  0  0  0  0
  6 11  1  0  0  0  0
  6  5  2  0  0  0  0
  7  6  1  0  0  0  0
  8  7  2  0  0  0  0
  8  9  1  0  0  0  0
  9 10  2  0  0  0  0
 10  5  1  0  0  0  0
 11 12  3  0  0  0  0
 13 12  1  6  0  0  0
 13 14  1  0  0  0  0
 14 15  2  0  0  0  0
 15 19  1  0  0  0  0
 16 17  2  0  0  0  0
 16 15  1  0  0  0  0
 17 18  1  0  0  0  0
 18 19  2  0  0  0  0
 20 16  1  0  0  0  0
 21 20  2  0  0  0  0
 21 13  1  0  0  0  0
 22  3  1  0  0  0  0
 23 22  2  0  0  0  0
 24 23  1  0  0  0  0
 25 24  2  0  0  0  0
 25 26  1  0  0  0  0
 26 27  2  0  0  0  0
 27 22  1  0  0  0  0
 28 30  1  0  0  0  0
 28 24  1  0  0  0  0
 29 28  1  0  0  0  0
 31 28  1  0  0  0  0
 32 25  1  0  0  0  0
 33 32  1  0  0  0  0
 33 34  1  0  0  0  0
 33 38  1  0  0  0  0
 35 34  1  0  0  0  0
 35 36  1  0  0  0  0
 37 38  1  0  0  0  0
 37 36  1  0  0  0  0
 39 36  1  0  0  0  0
M  END
>  <MODEL>
3

>  <REMARK>
 VINA RESULT:      -7.2      5.635     10.624
  Name = 8tyq
  8 active torsions:
  status: ('A' for Active; 'I' for Inactive)
    1  A    between atoms: C_3  and  C_26
    2  A    between atoms: C_5  and  C_8
    3  A    between atoms: N_10  and  C_11
    4  A    between atoms: C_13  and  C_25
    5  A    between atoms: C_14  and  C_17
    6  A    between atoms: C_17  and  N_18
    7  A    between atoms: C_26  and  C_27
    8  A    between atoms: C_27  and  C_28
                            x       y       z     vdW  Elec       q    Type
                         _______ _______ _______ _____ _____    ______ ____

>  <TORSDO>
F 8

$$$$
8tyq
 OpenBabel11062412003D

 39 43  0  0  1  0  0  0  0  0999 V2000
  183.8570  178.0930  141.4050 C   0  0  0  0  0  0  0  0  0  0  0  0
  184.6920  178.3750  140.6550 O   0  0  0  0  0  0  0  0  0  0  0  0
  182.5630  177.5460  140.9890 N   0  0  0  0  0  2  0  0  0  0  0  0
  185.4820  179.0840  146.8530 C   0  0  0  0  0  1  0  0  0  0  0  0
  185.0190  178.8430  145.4330 C   0  0  0  0  0  0  0  0  0  0  0  0
  185.8460  178.2090  144.5470 C   0  0  0  0  0  0  0  0  0  0  0  0
  185.4680  177.9640  143.2580 C   0  0  0  0  0  3  0  0  0  0  0  0
  184.2240  178.3710  142.8570 C   0  0  0  0  0  0  0  0  0  0  0  0
  183.3770  179.0220  143.7220 C   0  0  0  0  0  3  0  0  0  0  0  0
  183.7770  179.2550  145.0240 C   0  0  0  0  0  3  0  0  0  0  0  0
  187.2090  177.7660  145.0200 C   0  0  0  0  0  0  0  0  0  0  0  0
  188.2640  177.4150  145.4020 C   0  0  0  0  0  0  0  0  0  0  0  0
  189.6210  176.9470  145.8820 C   0  0  2  0  0  3  0  0  0  0  0  0
  190.0250  177.0870  147.1780 C   0  0  0  0  0  3  0  0  0  0  0  0
  191.2360  176.6380  147.4590 C   0  0  0  0  0  0  0  0  0  0  0  0
  192.0640  176.0490  146.4990 C   0  0  0  0  0  0  0  0  0  0  0  0
  193.2010  175.7480  147.2850 N   0  0  0  0  0  0  0  0  0  0  0  0
  193.2610  176.0240  148.5500 N   0  0  0  0  0  0  0  0  0  0  0  0
  192.1120  176.5320  148.5840 C   0  0  0  0  0  3  0  0  0  0  0  0
  191.7070  175.9050  145.2490 N   0  0  0  0  0  0  0  0  0  0  0  0
  190.4660  176.3530  144.9170 C   0  0  0  0  0  3  0  0  0  0  0  0
  182.2300  177.2970  139.5630 C   0  0  0  0  0  0  0  0  0  0  0  0
  181.4550  178.1930  138.8660 C   0  0  0  0  0  3  0  0  0  0  0  0
  181.1040  178.0070  137.5350 C   0  0  0  0  0  0  0  0  0  0  0  0
  181.5580  176.8620  136.8360 C   0  0  0  0  0  0  0  0  0  0  0  0
  182.3720  175.9770  137.5490 C   0  0  0  0  0  3  0  0  0  0  0  0
  182.6910  176.1800  138.8960 C   0  0  0  0  0  3  0  0  0  0  0  0
  180.2350  179.0620  136.8890 C   0  0  0  0  0  0  0  0  0  0  0  0
  179.1760  178.4930  136.2790 F   0  0  0  0  0  0  0  0  0  0  0  0
  179.7830  179.8950  137.8380 F   0  0  0  0  0  0  0  0  0  0  0  0
  180.9940  179.7620  136.0270 F   0  0  0  0  0  0  0  0  0  0  0  0
  181.2000  176.6710  135.3100 C   0  0  0  0  0  2  0  0  0  0  0  0
  180.6050  175.5480  134.8770 N   0  0  0  0  0  0  0  0  0  0  0  0
  181.4150  174.5380  134.9970 C   0  0  0  0  0  2  0  0  0  0  0  0
  180.8160  173.1820  134.5940 C   0  0  0  0  0  2  0  0  0  0  0  0
  179.6750  173.0070  135.2120 N   0  0  0  0  0  0  0  0  0  0  0  0
  178.9450  173.9940  134.8220 C   0  0  0  0  0  2  0  0  0  0  0  0
  179.4740  175.2850  135.4100 C   0  0  0  0  0  2  0  0  0  0  0  0
  179.1140  171.9030  134.8280 C   0  0  0  0  0  1  0  0  0  0  0  0
  1  8  1  0  0  0  0
  2  1  2  0  0  0  0
  3  1  1  0  0  0  0
  5  4  1  0  0  0  0
  6 11  1  0  0  0  0
  6  5  2  0  0  0  0
  7  6  1  0  0  0  0
  8  7  2  0  0  0  0
  8  9  1  0  0  0  0
  9 10  2  0  0  0  0
 10  5  1  0  0  0  0
 11 12  3  0  0  0  0
 13 12  1  6  0  0  0
 13 14  1  0  0  0  0
 14 15  2  0  0  0  0
 15 19  1  0  0  0  0
 16 17  2  0  0  0  0
 16 15  1  0  0  0  0
 17 18  1  0  0  0  0
 18 19  2  0  0  0  0
 20 16  1  0  0  0  0
 21 20  2  0  0  0  0
 21 13  1  0  0  0  0
 22  3  1  0  0  0  0
 23 22  2  0  0  0  0
 24 23  1  0  0  0  0
 25 24  2  0  0  0  0
 25 26  1  0  0  0  0
 26 27  2  0  0  0  0
 27 22  1  0  0  0  0
 28 24  1  0  0  0  0
 28 30  1  0  0  0  0
 29 28  1  0  0  0  0
 31 28  1  0  0  0  0
 32 25  1  0  0  0  0
 33 34  1  0  0  0  0
 33 32  1  0  0  0  0
 33 38  1  0  0  0  0
 35 34  1  0  0  0  0
 35 36  1  0  0  0  0
 37 36  1  0  0  0  0
 37 38  1  0  0  0  0
 39 36  1  0  0  0  0
M  END
>  <MODEL>
4

>  <REMARK>
 VINA RESULT:      -7.1      6.299     11.210
  Name = 8tyq
  8 active torsions:
  status: ('A' for Active; 'I' for Inactive)
    1  A    between atoms: C_3  and  C_26
    2  A    between atoms: C_5  and  C_8
    3  A    between atoms: N_10  and  C_11
    4  A    between atoms: C_13  and  C_25
    5  A    between atoms: C_14  and  C_17
    6  A    between atoms: C_17  and  N_18
    7  A    between atoms: C_26  and  C_27
    8  A    between atoms: C_27  and  C_28
                            x       y       z     vdW  Elec       q    Type
                         _______ _______ _______ _____ _____    ______ ____

>  <TORSDO>
F 8

$$$$
8tyq
 OpenBabel11062412003D

 39 43  0  0  1  0  0  0  0  0999 V2000
  185.1300  178.5780  142.9520 C   0  0  0  0  0  0  0  0  0  0  0  0
  184.6070  179.2780  143.7120 O   0  0  0  0  0  0  0  0  0  0  0  0
  184.5090  178.1640  141.6910 N   0  0  0  0  0  2  0  0  0  0  0  0
  190.4310  176.8460  144.4350 C   0  0  0  0  0  1  0  0  0  0  0  0
  189.0300  177.3000  144.0880 C   0  0  0  0  0  0  0  0  0  0  0  0
  188.6880  177.5060  142.7790 C   0  0  0  0  0  0  0  0  0  0  0  0
  187.4350  177.9100  142.4180 C   0  0  0  0  0  3  0  0  0  0  0  0
  186.5070  178.1090  143.4050 C   0  0  0  0  0  0  0  0  0  0  0  0
  186.8260  177.9220  144.7280 C   0  0  0  0  0  3  0  0  0  0  0  0
  188.0990  177.5080  145.0720 C   0  0  0  0  0  3  0  0  0  0  0  0
  189.7310  177.2710  141.7130 C   0  0  0  0  0  0  0  0  0  0  0  0
  190.5460  177.1040  140.8840 C   0  0  0  0  0  0  0  0  0  0  0  0
  191.5810  176.8910  139.7990 C   0  0  2  0  0  3  0  0  0  0  0  0
  191.2450  176.4660  138.5460 C   0  0  0  0  0  3  0  0  0  0  0  0
  192.2490  176.3170  137.6980 C   0  0  0  0  0  0  0  0  0  0  0  0
  193.5770  176.5790  138.0470 C   0  0  0  0  0  0  0  0  0  0  0  0
  194.2300  176.2810  136.8270 N   0  0  0  0  0  0  0  0  0  0  0  0
  193.5840  175.8870  135.7750 N   0  0  0  0  0  0  0  0  0  0  0  0
  192.4620  175.9260  136.3390 C   0  0  0  0  0  3  0  0  0  0  0  0
  193.9290  176.9800  139.2400 N   0  0  0  0  0  0  0  0  0  0  0  0
  192.9260  177.1480  140.1440 C   0  0  0  0  0  3  0  0  0  0  0  0
  183.1580  178.6290  141.2840 C   0  0  0  0  0  0  0  0  0  0  0  0
  182.1660  178.7820  142.2230 C   0  0  0  0  0  3  0  0  0  0  0  0
  180.8820  179.2030  141.8980 C   0  0  0  0  0  0  0  0  0  0  0  0
  180.5550  179.5060  140.5540 C   0  0  0  0  0  0  0  0  0  0  0  0
  181.5830  179.3770  139.6170 C   0  0  0  0  0  3  0  0  0  0  0  0
  182.8610  178.9290  139.9710 C   0  0  0  0  0  3  0  0  0  0  0  0
  179.8800  179.3170  143.0250 C   0  0  0  0  0  0  0  0  0  0  0  0
  180.4930  179.1790  144.2180 F   0  0  0  0  0  0  0  0  0  0  0  0
  179.3070  180.5290  142.9780 F   0  0  0  0  0  0  0  0  0  0  0  0
  178.9310  178.3830  142.8390 F   0  0  0  0  0  0  0  0  0  0  0  0
  179.1100  180.0300  140.1890 C   0  0  0  0  0  2  0  0  0  0  0  0
  178.9310  180.9260  139.2060 N   0  0  0  0  0  0  0  0  0  0  0  0
  179.5910  182.0160  139.4680 C   0  0  0  0  0  2  0  0  0  0  0  0
  179.5140  183.0930  138.3750 C   0  0  0  0  0  2  0  0  0  0  0  0
  179.8260  182.5640  137.2180 N   0  0  0  0  0  0  0  0  0  0  0  0
  178.9510  181.6360  137.0440 C   0  0  0  0  0  2  0  0  0  0  0  0
  179.1970  180.5110  138.0270 C   0  0  0  0  0  2  0  0  0  0  0  0
  179.6930  183.4370  136.2690 C   0  0  0  0  0  1  0  0  0  0  0  0
  1  8  1  0  0  0  0
  1  2  2  0  0  0  0
  3  1  1  0  0  0  0
  5  4  1  0  0  0  0
  5 10  1  0  0  0  0
  6  5  2  0  0  0  0
  7  6  1  0  0  0  0
  7  8  2  0  0  0  0
  8  9  1  0  0  0  0
  9 10  2  0  0  0  0
 11  6  1  0  0  0  0
 12 11  3  0  0  0  0
 13 21  1  0  0  0  0
 13 12  1  1  0  0  0
 14 13  1  0  0  0  0
 15 16  1  0  0  0  0
 15 14  2  0  0  0  0
 16 20  1  0  0  0  0
 17 16  2  0  0  0  0
 18 19  2  0  0  0  0
 18 17  1  0  0  0  0
 19 15  1  0  0  0  0
 20 21  2  0  0  0  0
 22  3  1  0  0  0  0
 22 23  1  0  0  0  0
 24 23  2  0  0  0  0
 24 28  1  0  0  0  0
 25 24  1  0  0  0  0
 26 27  1  0  0  0  0
 26 25  2  0  0  0  0
 27 22  2  0  0  0  0
 28 29  1  0  0  0  0
 30 28  1  0  0  0  0
 31 28  1  0  0  0  0
 32 25  1  0  0  0  0
 33 34  1  0  0  0  0
 33 32  1  0  0  0  0
 35 34  1  0  0  0  0
 36 35  1  0  0  0  0
 37 36  1  0  0  0  0
 37 38  1  0  0  0  0
 38 33  1  0  0  0  0
 39 36  1  0  0  0  0
M  END
>  <MODEL>
5

>  <REMARK>
 VINA RESULT:      -7.1      4.440     12.324
  Name = 8tyq
  8 active torsions:
  status: ('A' for Active; 'I' for Inactive)
    1  A    between atoms: C_3  and  C_26
    2  A    between atoms: C_5  and  C_8
    3  A    between atoms: N_10  and  C_11
    4  A    between atoms: C_13  and  C_25
    5  A    between atoms: C_14  and  C_17
    6  A    between atoms: C_17  and  N_18
    7  A    between atoms: C_26  and  C_27
    8  A    between atoms: C_27  and  C_28
                            x       y       z     vdW  Elec       q    Type
                         _______ _______ _______ _____ _____    ______ ____

>  <TORSDO>
F 8

$$$$
8tyq
 OpenBabel11062412003D

 39 43  0  0  1  0  0  0  0  0999 V2000
  189.9600  176.7130  141.3720 C   0  0  0  0  0  0  0  0  0  0  0  0
  190.8310  175.9810  141.5820 O   0  0  0  0  0  0  0  0  0  0  0  0
  189.6430  177.2140  140.0320 N   0  0  0  0  0  2  0  0  0  0  0  0
  186.8580  178.2540  145.9880 C   0  0  0  0  0  1  0  0  0  0  0  0
  187.7060  177.8460  144.8030 C   0  0  0  0  0  0  0  0  0  0  0  0
  187.1420  177.7720  143.5590 C   0  0  0  0  0  0  0  0  0  0  0  0
  187.8700  177.4150  142.4600 C   0  0  0  0  0  3  0  0  0  0  0  0
  189.1970  177.1260  142.6250 C   0  0  0  0  0  0  0  0  0  0  0  0
  189.7870  177.1790  143.8650 C   0  0  0  0  0  3  0  0  0  0  0  0
  189.0340  177.5480  144.9640 C   0  0  0  0  0  3  0  0  0  0  0  0
  185.6780  178.1030  143.4070 C   0  0  0  0  0  0  0  0  0  0  0  0
  184.5340  178.3460  143.2870 C   0  0  0  0  0  0  0  0  0  0  0  0
  183.0580  178.6540  143.1550 C   0  0  2  0  0  3  0  0  0  0  0  0
  182.4800  178.9520  141.9540 C   0  0  0  0  0  3  0  0  0  0  0  0
  181.1830  179.2060  141.9840 C   0  0  0  0  0  0  0  0  0  0  0  0
  180.4330  179.1700  143.1630 C   0  0  0  0  0  0  0  0  0  0  0  0
  179.1490  179.4960  142.6650 N   0  0  0  0  0  0  0  0  0  0  0  0
  178.9320  179.7280  141.4090 N   0  0  0  0  0  0  0  0  0  0  0  0
  180.1310  179.5490  141.0770 C   0  0  0  0  0  3  0  0  0  0  0  0
  180.9590  178.8940  144.3270 N   0  0  0  0  0  0  0  0  0  0  0  0
  182.2930  178.6250  144.3430 C   0  0  0  0  0  3  0  0  0  0  0  0
  190.4150  176.8020  138.8310 C   0  0  0  0  0  0  0  0  0  0  0  0
  191.7120  176.3670  138.9570 C   0  0  0  0  0  3  0  0  0  0  0  0
  192.4840  175.9810  137.8680 C   0  0  0  0  0  0  0  0  0  0  0  0
  191.9350  176.0130  136.5630 C   0  0  0  0  0  0  0  0  0  0  0  0
  190.6040  176.4260  136.4550 C   0  0  0  0  0  3  0  0  0  0  0  0
  189.8590  176.8320  137.5680 C   0  0  0  0  0  3  0  0  0  0  0  0
  193.9030  175.5350  138.1420 C   0  0  0  0  0  0  0  0  0  0  0  0
  194.7370  176.0050  137.1930 F   0  0  0  0  0  0  0  0  0  0  0  0
  194.2910  176.0240  139.3300 F   0  0  0  0  0  0  0  0  0  0  0  0
  193.9170  174.1920  138.2020 F   0  0  0  0  0  0  0  0  0  0  0  0
  192.7940  175.5300  135.3290 C   0  0  0  0  0  2  0  0  0  0  0  0
  192.7710  174.2470  134.9330 N   0  0  0  0  0  0  0  0  0  0  0  0
  193.9700  173.7450  134.9750 C   0  0  0  0  0  2  0  0  0  0  0  0
  194.0570  172.2560  134.6070 C   0  0  0  0  0  2  0  0  0  0  0  0
  193.1880  171.5800  135.3150 N   0  0  0  0  0  0  0  0  0  0  0  0
  192.0490  172.0910  134.9970 C   0  0  0  0  0  2  0  0  0  0  0  0
  191.9460  173.4950  135.5540 C   0  0  0  0  0  2  0  0  0  0  0  0
  193.1900  170.3310  134.9650 C   0  0  0  0  0  1  0  0  0  0  0  0
  1  2  2  0  0  0  0
  1  8  1  0  0  0  0
  3  1  1  0  0  0  0
  5 10  1  0  0  0  0
  5  4  1  0  0  0  0
  6  5  2  0  0  0  0
  7  8  2  0  0  0  0
  7  6  1  0  0  0  0
  8  9  1  0  0  0  0
  9 10  2  0  0  0  0
 11  6  1  0  0  0  0
 12 11  3  0  0  0  0
 13 12  1  1  0  0  0
 13 21  1  0  0  0  0
 14 15  2  0  0  0  0
 14 13  1  0  0  0  0
 15 16  1  0  0  0  0
 16 20  1  0  0  0  0
 17 16  2  0  0  0  0
 18 17  1  0  0  0  0
 19 18  2  0  0  0  0
 19 15  1  0  0  0  0
 20 21  2  0  0  0  0
 22 23  1  0  0  0  0
 22  3  1  0  0  0  0
 24 28  1  0  0  0  0
 24 23  2  0  0  0  0
 25 24  1  0  0  0  0
 26 25  2  0  0  0  0
 26 27  1  0  0  0  0
 27 22  2  0  0  0  0
 28 31  1  0  0  0  0
 28 30  1  0  0  0  0
 29 28  1  0  0  0  0
 32 25  1  0  0  0  0
 33 34  1  0  0  0  0
 33 32  1  0  0  0  0
 33 38  1  0  0  0  0
 35 34  1  0  0  0  0
 35 36  1  0  0  0  0
 37 36  1  0  0  0  0
 37 38  1  0  0  0  0
 39 36  1  0  0  0  0
M  END
>  <MODEL>
6

>  <REMARK>
 VINA RESULT:      -6.8      2.064      2.633
  Name = 8tyq
  8 active torsions:
  status: ('A' for Active; 'I' for Inactive)
    1  A    between atoms: C_3  and  C_26
    2  A    between atoms: C_5  and  C_8
    3  A    between atoms: N_10  and  C_11
    4  A    between atoms: C_13  and  C_25
    5  A    between atoms: C_14  and  C_17
    6  A    between atoms: C_17  and  N_18
    7  A    between atoms: C_26  and  C_27
    8  A    between atoms: C_27  and  C_28
                            x       y       z     vdW  Elec       q    Type
                         _______ _______ _______ _____ _____    ______ ____

>  <TORSDO>
F 8

$$$$
8tyq
 OpenBabel11062412003D

 39 43  0  0  1  0  0  0  0  0999 V2000
  186.4270  178.2380  138.3100 C   0  0  0  0  0  0  0  0  0  0  0  0
  186.0550  178.2060  137.2140 O   0  0  0  0  0  0  0  0  0  0  0  0
  185.5690  178.6280  139.4320 N   0  0  0  0  0  2  0  0  0  0  0  0
  191.9430  176.7530  139.1330 C   0  0  0  0  0  1  0  0  0  0  0  0
  190.5050  177.1460  138.8750 C   0  0  0  0  0  0  0  0  0  0  0  0
  189.6250  177.2290  139.9210 C   0  0  0  0  0  0  0  0  0  0  0  0
  188.3200  177.5860  139.7360 C   0  0  0  0  0  3  0  0  0  0  0  0
  187.8960  177.8640  138.4660 C   0  0  0  0  0  0  0  0  0  0  0  0
  188.7530  177.7760  137.3950 C   0  0  0  0  0  3  0  0  0  0  0  0
  190.0720  177.4190  137.6030 C   0  0  0  0  0  3  0  0  0  0  0  0
  190.1250  176.9230  141.3110 C   0  0  0  0  0  0  0  0  0  0  0  0
  190.5260  176.6760  142.3890 C   0  0  0  0  0  0  0  0  0  0  0  0
  191.0390  176.3790  143.7810 C   0  0  2  0  0  3  0  0  0  0  0  0
  190.7620  177.1870  144.8470 C   0  0  0  0  0  3  0  0  0  0  0  0
  191.2780  176.8120  146.0060 C   0  0  0  0  0  0  0  0  0  0  0  0
  192.0560  175.6600  146.1480 C   0  0  0  0  0  0  0  0  0  0  0  0
  192.3430  175.7090  147.5330 N   0  0  0  0  0  0  0  0  0  0  0  0
  191.9010  176.6570  148.2980 N   0  0  0  0  0  0  0  0  0  0  0  0
  191.3050  177.2530  147.3660 C   0  0  0  0  0  3  0  0  0  0  0  0
  192.3420  174.8700  145.1460 N   0  0  0  0  0  0  0  0  0  0  0  0
  191.8300  175.2180  143.9340 C   0  0  0  0  0  3  0  0  0  0  0  0
  184.1430  179.0000  139.2460 C   0  0  0  0  0  0  0  0  0  0  0  0
  183.1520  178.0700  139.4550 C   0  0  0  0  0  3  0  0  0  0  0  0
  181.8030  178.3590  139.2860 C   0  0  0  0  0  0  0  0  0  0  0  0
  181.4010  179.6590  138.8940 C   0  0  0  0  0  0  0  0  0  0  0  0
  182.4180  180.6020  138.7190 C   0  0  0  0  0  3  0  0  0  0  0  0
  183.7700  180.2750  138.8740 C   0  0  0  0  0  3  0  0  0  0  0  0
  180.8150  177.2420  139.5340 C   0  0  0  0  0  0  0  0  0  0  0  0
  180.0020  177.0850  138.4710 F   0  0  0  0  0  0  0  0  0  0  0  0
  181.4900  176.0990  139.7270 F   0  0  0  0  0  0  0  0  0  0  0  0
  180.1270  177.5320  140.6530 F   0  0  0  0  0  0  0  0  0  0  0  0
  179.8670  180.0040  138.7470 C   0  0  0  0  0  2  0  0  0  0  0  0
  179.4220  180.7430  137.7190 N   0  0  0  0  0  0  0  0  0  0  0  0
  179.4480  182.0060  138.0320 C   0  0  0  0  0  2  0  0  0  0  0  0
  179.0230  182.9570  136.9040 C   0  0  0  0  0  2  0  0  0  0  0  0
  179.7010  182.6790  135.8190 N   0  0  0  0  0  0  0  0  0  0  0  0
  179.3990  181.4540  135.5580 C   0  0  0  0  0  2  0  0  0  0  0  0
  180.0100  180.5440  136.6030 C   0  0  0  0  0  2  0  0  0  0  0  0
  179.3040  183.4190  134.8320 C   0  0  0  0  0  1  0  0  0  0  0  0
  1  8  1  0  0  0  0
  1  3  1  0  0  0  0
  2  1  2  0  0  0  0
  5  4  1  0  0  0  0
  5  6  1  0  0  0  0
  6 11  1  0  0  0  0
  7  6  2  0  0  0  0
  8  7  1  0  0  0  0
  9 10  1  0  0  0  0
  9  8  2  0  0  0  0
 10  5  2  0  0  0  0
 11 12  3  0  0  0  0
 13 12  1  6  0  0  0
 13 21  1  0  0  0  0
 13 14  1  0  0  0  0
 14 15  2  0  0  0  0
 15 16  1  0  0  0  0
 15 19  1  0  0  0  0
 16 17  2  0  0  0  0
 17 18  1  0  0  0  0
 19 18  2  0  0  0  0
 20 16  1  0  0  0  0
 21 20  2  0  0  0  0
 22  3  1  0  0  0  0
 22 23  1  0  0  0  0
 24 23  2  0  0  0  0
 24 28  1  0  0  0  0
 25 24  1  0  0  0  0
 26 27  1  0  0  0  0
 26 25  2  0  0  0  0
 27 22  2  0  0  0  0
 28 30  1  0  0  0  0
 28 31  1  0  0  0  0
 29 28  1  0  0  0  0
 32 25  1  0  0  0  0
 33 34  1  0  0  0  0
 33 32  1  0  0  0  0
 35 34  1  0  0  0  0
 36 35  1  0  0  0  0
 37 36  1  0  0  0  0
 37 38  1  0  0  0  0
 38 33  1  0  0  0  0
 39 36  1  0  0  0  0
M  END
>  <MODEL>
7

>  <REMARK>
 VINA RESULT:      -6.6      4.966     11.966
  Name = 8tyq
  8 active torsions:
  status: ('A' for Active; 'I' for Inactive)
    1  A    between atoms: C_3  and  C_26
    2  A    between atoms: C_5  and  C_8
    3  A    between atoms: N_10  and  C_11
    4  A    between atoms: C_13  and  C_25
    5  A    between atoms: C_14  and  C_17
    6  A    between atoms: C_17  and  N_18
    7  A    between atoms: C_26  and  C_27
    8  A    between atoms: C_27  and  C_28
                            x       y       z     vdW  Elec       q    Type
                         _______ _______ _______ _____ _____    ______ ____

>  <TORSDO>
F 8

$$$$
8tyq
 OpenBabel11062412003D

 39 43  0  0  1  0  0  0  0  0999 V2000
  185.8740  178.6520  141.5450 C   0  0  0  0  0  0  0  0  0  0  0  0
  185.8270  179.6660  140.9880 O   0  0  0  0  0  0  0  0  0  0  0  0
  184.6840  177.8510  141.8430 N   0  0  0  0  0  2  0  0  0  0  0  0
  191.2750  177.1130  142.8710 C   0  0  0  0  0  1  0  0  0  0  0  0
  189.8530  177.5260  142.5640 C   0  0  0  0  0  0  0  0  0  0  0  0
  189.3830  177.4450  141.2810 C   0  0  0  0  0  0  0  0  0  0  0  0
  188.1050  177.8010  140.9600 C   0  0  0  0  0  3  0  0  0  0  0  0
  187.2840  178.2490  141.9580 C   0  0  0  0  0  0  0  0  0  0  0  0
  187.7320  178.3530  143.2530 C   0  0  0  0  0  3  0  0  0  0  0  0
  189.0280  177.9830  143.5600 C   0  0  0  0  0  3  0  0  0  0  0  0
  190.3100  176.9410  140.2030 C   0  0  0  0  0  0  0  0  0  0  0  0
  191.0450  176.5550  139.3700 C   0  0  0  0  0  0  0  0  0  0  0  0
  191.9760  176.0410  138.2930 C   0  0  2  0  0  3  0  0  0  0  0  0
  191.6920  174.9290  137.5540 C   0  0  0  0  0  3  0  0  0  0  0  0
  192.5950  174.5890  136.6500 C   0  0  0  0  0  0  0  0  0  0  0  0
  193.7720  175.3160  136.4490 C   0  0  0  0  0  0  0  0  0  0  0  0
  194.3650  174.5660  135.4050 N   0  0  0  0  0  0  0  0  0  0  0  0
  193.8010  173.5140  134.9020 N   0  0  0  0  0  0  0  0  0  0  0  0
  192.7990  173.5800  135.6570 C   0  0  0  0  0  3  0  0  0  0  0  0
  194.0740  176.3800  137.1440 N   0  0  0  0  0  0  0  0  0  0  0  0
  193.1700  176.7670  138.0860 C   0  0  0  0  0  3  0  0  0  0  0  0
  183.3200  178.2770  141.4370 C   0  0  0  0  0  0  0  0  0  0  0  0
  182.3930  178.6300  142.3880 C   0  0  0  0  0  3  0  0  0  0  0  0
  181.1000  179.0260  142.0660 C   0  0  0  0  0  0  0  0  0  0  0  0
  180.6950  179.0920  140.7110 C   0  0  0  0  0  0  0  0  0  0  0  0
  181.6600  178.7620  139.7550 C   0  0  0  0  0  3  0  0  0  0  0  0
  182.9480  178.3450  140.1100 C   0  0  0  0  0  3  0  0  0  0  0  0
  180.1730  179.3730  143.2100 C   0  0  0  0  0  0  0  0  0  0  0  0
  179.9050  180.6940  143.2150 F   0  0  0  0  0  0  0  0  0  0  0  0
  179.0210  178.7050  143.0550 F   0  0  0  0  0  0  0  0  0  0  0  0
  180.7530  178.9750  144.3560 F   0  0  0  0  0  0  0  0  0  0  0  0
  179.2430  179.5870  140.3410 C   0  0  0  0  0  2  0  0  0  0  0  0
  179.0550  180.5440  139.4190 N   0  0  0  0  0  0  0  0  0  0  0  0
  179.7040  181.6210  139.7550 C   0  0  0  0  0  2  0  0  0  0  0  0
  179.6180  182.7670  138.7360 C   0  0  0  0  0  2  0  0  0  0  0  0
  179.9370  182.3210  137.5470 N   0  0  0  0  0  0  0  0  0  0  0  0
  179.0710  181.3970  137.3100 C   0  0  0  0  0  2  0  0  0  0  0  0
  179.3280  180.2120  138.2160 C   0  0  0  0  0  2  0  0  0  0  0  0
  179.7960  183.2530  136.6580 C   0  0  0  0  0  1  0  0  0  0  0  0
  1  3  1  0  0  0  0
  1  8  1  0  0  0  0
  2  1  2  0  0  0  0
  5  4  1  0  0  0  0
  5 10  1  0  0  0  0
  6  5  2  0  0  0  0
  7  6  1  0  0  0  0
  7  8  2  0  0  0  0
  8  9  1  0  0  0  0
  9 10  2  0  0  0  0
 11  6  1  0  0  0  0
 12 11  3  0  0  0  0
 13 12  1  1  0  0  0
 14 13  1  0  0  0  0
 15 14  2  0  0  0  0
 16 15  1  0  0  0  0
 16 20  1  0  0  0  0
 17 16  2  0  0  0  0
 18 17  1  0  0  0  0
 18 19  2  0  0  0  0
 19 15  1  0  0  0  0
 20 21  2  0  0  0  0
 21 13  1  0  0  0  0
 22  3  1  0  0  0  0
 22 23  1  0  0  0  0
 24 23  2  0  0  0  0
 24 28  1  0  0  0  0
 25 24  1  0  0  0  0
 26 27  1  0  0  0  0
 26 25  2  0  0  0  0
 27 22  2  0  0  0  0
 28 29  1  0  0  0  0
 28 31  1  0  0  0  0
 30 28  1  0  0  0  0
 32 25  1  0  0  0  0
 33 34  1  0  0  0  0
 33 32  1  0  0  0  0
 35 34  1  0  0  0  0
 36 35  1  0  0  0  0
 37 36  1  0  0  0  0
 37 38  1  0  0  0  0
 38 33  1  0  0  0  0
 39 36  1  0  0  0  0
M  END
>  <MODEL>
8

>  <REMARK>
 VINA RESULT:      -6.6      4.379     12.569
  Name = 8tyq
  8 active torsions:
  status: ('A' for Active; 'I' for Inactive)
    1  A    between atoms: C_3  and  C_26
    2  A    between atoms: C_5  and  C_8
    3  A    between atoms: N_10  and  C_11
    4  A    between atoms: C_13  and  C_25
    5  A    between atoms: C_14  and  C_17
    6  A    between atoms: C_17  and  N_18
    7  A    between atoms: C_26  and  C_27
    8  A    between atoms: C_27  and  C_28
                            x       y       z     vdW  Elec       q    Type
                         _______ _______ _______ _____ _____    ______ ____

>  <TORSDO>
F 8

$$$$
8tyq
 OpenBabel11062412003D

 39 43  0  0  1  0  0  0  0  0999 V2000
  184.0290  178.5690  141.6600 C   0  0  0  0  0  0  0  0  0  0  0  0
  184.7200  179.3660  141.1840 O   0  0  0  0  0  0  0  0  0  0  0  0
  184.4420  177.7270  142.7860 N   0  0  0  0  0  2  0  0  0  0  0  0
  178.9310  177.9430  139.0310 C   0  0  0  0  0  1  0  0  0  0  0  0
  180.2520  178.1420  139.7400 C   0  0  0  0  0  0  0  0  0  0  0  0
  181.2780  177.2630  139.5230 C   0  0  0  0  0  0  0  0  0  0  0  0
  182.4900  177.4070  140.1360 C   0  0  0  0  0  3  0  0  0  0  0  0
  182.6670  178.4640  140.9870 C   0  0  0  0  0  0  0  0  0  0  0  0
  181.6500  179.3550  141.2340 C   0  0  0  0  0  3  0  0  0  0  0  0
  180.4330  179.1950  140.5990 C   0  0  0  0  0  3  0  0  0  0  0  0
  181.0550  176.1110  138.5740 C   0  0  0  0  0  0  0  0  0  0  0  0
  180.8840  175.2030  137.8470 C   0  0  0  0  0  0  0  0  0  0  0  0
  180.6560  174.0230  136.9280 C   0  0  2  0  0  3  0  0  0  0  0  0
  180.1800  172.8260  137.3830 C   0  0  0  0  0  3  0  0  0  0  0  0
  180.0330  171.8790  136.4720 C   0  0  0  0  0  0  0  0  0  0  0  0
  180.3360  172.0760  135.1220 C   0  0  0  0  0  0  0  0  0  0  0  0
  180.0080  170.8050  134.5940 N   0  0  0  0  0  0  0  0  0  0  0  0
  179.5550  169.8430  135.3350 N   0  0  0  0  0  0  0  0  0  0  0  0
  179.5960  170.5200  136.3930 C   0  0  0  0  0  3  0  0  0  0  0  0
  180.7980  173.2070  134.6580 N   0  0  0  0  0  0  0  0  0  0  0  0
  180.9640  174.2110  135.5620 C   0  0  0  0  0  3  0  0  0  0  0  0
  185.7840  177.8450  143.4130 C   0  0  0  0  0  0  0  0  0  0  0  0
  186.9190  177.6920  142.6540 C   0  0  0  0  0  3  0  0  0  0  0  0
  188.1980  177.7820  143.1890 C   0  0  0  0  0  0  0  0  0  0  0  0
  188.3730  178.0530  144.5680 C   0  0  0  0  0  0  0  0  0  0  0  0
  187.2090  178.2390  145.3190 C   0  0  0  0  0  3  0  0  0  0  0  0
  185.9320  178.1200  144.7570 C   0  0  0  0  0  3  0  0  0  0  0  0
  189.3640  177.5800  142.2470 C   0  0  0  0  0  0  0  0  0  0  0  0
  188.9570  177.6790  140.9650 F   0  0  0  0  0  0  0  0  0  0  0  0
  190.2810  178.5310  142.4780 F   0  0  0  0  0  0  0  0  0  0  0  0
  189.9110  176.3790  142.5070 F   0  0  0  0  0  0  0  0  0  0  0  0
  189.8250  178.2030  145.1700 C   0  0  0  0  0  2  0  0  0  0  0  0
  190.3570  177.2350  145.9330 N   0  0  0  0  0  0  0  0  0  0  0  0
  191.5830  177.0000  145.5660 C   0  0  0  0  0  2  0  0  0  0  0  0
  192.3190  175.9540  146.4160 C   0  0  0  0  0  2  0  0  0  0  0  0
  192.2090  176.2650  147.6840 N   0  0  0  0  0  0  0  0  0  0  0  0
  190.9410  176.2620  147.9050 C   0  0  0  0  0  2  0  0  0  0  0  0
  190.2960  177.4330  147.1940 C   0  0  0  0  0  2  0  0  0  0  0  0
  192.7580  175.3540  148.4250 C   0  0  0  0  0  1  0  0  0  0  0  0
  1  3  1  0  0  0  0
  2  1  2  0  0  0  0
  3 22  1  0  0  0  0
  4  5  1  0  0  0  0
  5 10  1  0  0  0  0
  6  5  2  0  0  0  0
  6  7  1  0  0  0  0
  7  8  2  0  0  0  0
  8  9  1  0  0  0  0
  8  1  1  0  0  0  0
 10  9  2  0  0  0  0
 11  6  1  0  0  0  0
 12 11  3  0  0  0  0
 13 14  1  0  0  0  0
 13 12  1  1  0  0  0
 15 14  2  0  0  0  0
 16 15  1  0  0  0  0
 17 16  2  0  0  0  0
 17 18  1  0  0  0  0
 18 19  2  0  0  0  0
 19 15  1  0  0  0  0
 20 16  1  0  0  0  0
 20 21  2  0  0  0  0
 21 13  1  0  0  0  0
 22 27  1  0  0  0  0
 23 24  1  0  0  0  0
 23 22  2  0  0  0  0
 24 25  2  0  0  0  0
 25 32  1  0  0  0  0
 25 26  1  0  0  0  0
 27 26  2  0  0  0  0
 28 30  1  0  0  0  0
 28 31  1  0  0  0  0
 28 24  1  0  0  0  0
 29 28  1  0  0  0  0
 32 33  1  0  0  0  0
 33 38  1  0  0  0  0
 34 33  1  0  0  0  0
 34 35  1  0  0  0  0
 35 36  1  0  0  0  0
 36 37  1  0  0  0  0
 36 39  1  0  0  0  0
 38 37  1  0  0  0  0
M  END
>  <MODEL>
9

>  <REMARK>
 VINA RESULT:      -6.5      5.424      8.715
  Name = 8tyq
  8 active torsions:
  status: ('A' for Active; 'I' for Inactive)
    1  A    between atoms: C_3  and  C_26
    2  A    between atoms: C_5  and  C_8
    3  A    between atoms: N_10  and  C_11
    4  A    between atoms: C_13  and  C_25
    5  A    between atoms: C_14  and  C_17
    6  A    between atoms: C_17  and  N_18
    7  A    between atoms: C_26  and  C_27
    8  A    between atoms: C_27  and  C_28
                            x       y       z     vdW  Elec       q    Type
                         _______ _______ _______ _____ _____    ______ ____

>  <TORSDO>
F 8

$$$$
