7li3
 OpenBabel11062412003D

 31 33  0  0  1  0  0  0  0  0999 V2000
  185.3200  178.3600  143.2810 C   0  0  1  0  0  3  0  0  0  0  0  0
  186.1520  177.4360  143.9710 O   0  0  0  0  0  0  0  0  0  0  0  0
  184.8580  179.3940  144.2880 C   0  0  1  0  0  3  0  0  0  0  0  0
  183.4360  179.3230  144.3780 O   0  0  0  0  0  1  0  0  0  0  0  0
  185.4460  178.9790  145.6150 C   0  0  1  0  0  3  0  0  0  0  0  0
  184.4080  178.8920  146.5920 O   0  0  0  0  0  1  0  0  0  0  0  0
  186.0390  177.6060  145.3780 C   0  0  2  0  0  3  0  0  0  0  0  0
  191.0720  176.5550  144.5300 N   0  0  0  0  0  0  0  0  0  0  0  0
  190.0230  176.5290  143.6890 C   0  0  0  0  0  3  0  0  0  0  0  0
  188.7670  176.8270  144.0530 N   0  0  0  0  0  0  0  0  0  0  0  0
  188.4900  177.1790  145.3250 C   0  0  0  0  0  0  0  0  0  0  0  0
  189.5760  177.2360  146.3050 C   0  0  0  0  0  0  0  0  0  0  0  0
  190.9320  176.8920  145.8300 C   0  0  0  0  0  0  0  0  0  0  0  0
  191.9890  176.9170  146.6720 N   0  0  0  0  0  1  0  0  0  0  0  0
  189.0270  177.6110  147.4720 N   0  0  0  0  0  0  0  0  0  0  0  0
  187.7000  177.7800  147.2550 C   0  0  0  0  0  3  0  0  0  0  0  0
  187.3860  177.5240  145.9760 N   0  0  0  0  0  0  0  0  0  0  0  0
  186.0870  178.9760  142.1230 C   0  0  0  0  0  2  0  0  0  0  0  0
  185.1620  179.6360  141.2720 O   0  0  0  0  0  0  0  0  0  0  0  0
  184.8370  179.0010  139.8360 P   0  0  1  0  0  0  0  0  0  0  0  0
  183.9340  177.8080  140.0210 O   0  0  0  0  0  1  0  0  0  0  0  0
  184.4700  180.1180  138.8940 O   0  0  0  0  0  0  0  0  0  0  0  0
  186.3050  178.5030  139.4170 O   0  0  0  0  0  0  0  0  0  0  0  0
  186.5930  178.0040  137.9180 P   0  0  1  0  0  0  0  0  0  0  0  0
  185.4490  177.1130  137.5000 O   0  0  0  0  0  1  0  0  0  0  0  0
  186.9700  179.1960  137.0760 O   0  0  0  0  0  0  0  0  0  0  0  0
  187.8880  177.0770  138.1330 O   0  0  0  0  0  0  0  0  0  0  0  0
  189.2000  177.6640  138.8520 P   0  0  0  0  0  0  0  0  0  0  0  0
  190.3410  177.0950  138.0440 O   0  0  0  0  0  0  0  0  0  0  0  0
  189.1070  177.1280  140.2600 O   0  0  0  0  0  1  0  0  0  0  0  0
  189.0420  179.1600  138.7330 O   0  0  0  0  0  1  0  0  0  0  0  0
  1 18  1  6  0  0  0
  1  2  1  0  0  0  0
  1  3  1  0  0  0  0
  2  7  1  0  0  0  0
  3  4  1  1  0  0  0
  3  5  1  0  0  0  0
  5  6  1  1  0  0  0
  7  5  1  0  0  0  0
  7 17  1  1  0  0  0
  8 13  1  0  0  0  0
  9 10  1  0  0  0  0
  9  8  2  0  0  0  0
 10 11  2  0  0  0  0
 11 17  1  0  0  0  0
 11 12  1  0  0  0  0
 12 15  1  0  0  0  0
 13 12  2  0  0  0  0
 13 14  1  0  0  0  0
 16 15  2  0  0  0  0
 17 16  1  0  0  0  0
 19 18  1  0  0  0  0
 20 22  2  6  0  0  0
 20 21  1  0  0  0  0
 20 19  1  0  0  0  0
 23 20  1  0  0  0  0
 24 26  2  6  0  0  0
 24 27  1  0  0  0  0
 24 23  1  0  0  0  0
 25 24  1  0  0  0  0
 27 28  1  0  0  0  0
 28 30  1  0  0  0  0
 29 28  2  0  0  0  0
 31 28  1  0  0  0  0
M  END
>  <MODEL>
1

>  <REMARK>
 VINA RESULT:      -8.8      0.000      0.000
  Name = 7li3
  8 active torsions:
  status: ('A' for Active; 'I' for Inactive)
    1  A    between atoms: P_1  and  O_5
    2  A    between atoms: P_1  and  O_22
    3  A    between atoms: P_2  and  O_22
    4  A    between atoms: P_2  and  O_23
    5  A    between atoms: P_3  and  O_23
    6  A    between atoms: C_4  and  O_5
    7  A    between atoms: C_4  and  C_6
    8  A    between atoms: C_12  and  N_31
                            x       y       z     vdW  Elec       q    Type
                         _______ _______ _______ _____ _____    ______ ____

>  <TORSDO>
F 8

$$$$
7li3
 OpenBabel11062412003D

 31 33  0  0  1  0  0  0  0  0999 V2000
  189.0000  176.9760  145.8590 C   0  0  1  0  0  3  0  0  0  0  0  0
  188.4570  176.6320  144.5900 O   0  0  0  0  0  0  0  0  0  0  0  0
  190.3760  177.5650  145.6180 C   0  0  1  0  0  3  0  0  0  0  0  0
  191.3360  176.7320  146.2650 O   0  0  0  0  0  1  0  0  0  0  0  0
  190.6070  177.4970  144.1270 C   0  0  1  0  0  3  0  0  0  0  0  0
  191.8420  176.8310  143.8640 O   0  0  0  0  0  1  0  0  0  0  0  0
  189.4590  176.6730  143.5830 C   0  0  2  0  0  3  0  0  0  0  0  0
  190.0070  177.4580  138.4610 N   0  0  0  0  0  0  0  0  0  0  0  0
  190.7680  176.7590  139.3210 C   0  0  0  0  0  3  0  0  0  0  0  0
  190.5010  176.6450  140.6300 N   0  0  0  0  0  0  0  0  0  0  0  0
  189.4170  177.2460  141.1610 C   0  0  0  0  0  0  0  0  0  0  0  0
  188.5330  178.0250  140.2930 C   0  0  0  0  0  0  0  0  0  0  0  0
  188.8940  178.1070  138.8630 C   0  0  0  0  0  0  0  0  0  0  0  0
  188.1300  178.8080  137.9950 N   0  0  0  0  0  1  0  0  0  0  0  0
  187.5480  178.5020  141.0710 N   0  0  0  0  0  0  0  0  0  0  0  0
  187.7830  178.0650  142.3320 C   0  0  0  0  0  3  0  0  0  0  0  0
  188.8960  177.3170  142.3790 N   0  0  0  0  0  0  0  0  0  0  0  0
  188.0690  177.9440  146.5700 C   0  0  0  0  0  2  0  0  0  0  0  0
  186.7470  177.4320  146.4950 O   0  0  0  0  0  0  0  0  0  0  0  0
  185.5460  178.4330  146.1410 P   0  0  1  0  0  0  0  0  0  0  0  0
  184.3740  178.1310  147.0410 O   0  0  0  0  0  1  0  0  0  0  0  0
  186.1050  179.8290  146.0330 O   0  0  0  0  0  0  0  0  0  0  0  0
  185.2140  177.9490  144.6470 O   0  0  0  0  0  0  0  0  0  0  0  0
  184.1630  178.7640  143.7460 P   0  0  1  0  0  0  0  0  0  0  0  0
  182.7970  178.5950  144.3630 O   0  0  0  0  0  1  0  0  0  0  0  0
  184.7140  180.1440  143.4920 O   0  0  0  0  0  0  0  0  0  0  0  0
  184.1950  177.9210  142.3780 O   0  0  0  0  0  0  0  0  0  0  0  0
  183.4310  178.4600  141.0710 P   0  0  0  0  0  0  0  0  0  0  0  0
  182.1510  179.0450  141.6140 O   0  0  0  0  0  1  0  0  0  0  0  0
  183.2420  177.2210  140.2300 O   0  0  0  0  0  0  0  0  0  0  0  0
  184.3800  179.4790  140.4880 O   0  0  0  0  0  1  0  0  0  0  0  0
  1 18  1  6  0  0  0
  2  1  1  0  0  0  0
  3  1  1  0  0  0  0
  3  4  1  1  0  0  0
  5  6  1  1  0  0  0
  5  3  1  0  0  0  0
  7 17  1  6  0  0  0
  7  5  1  0  0  0  0
  7  2  1  0  0  0  0
  8 13  2  0  0  0  0
  8  9  1  0  0  0  0
  9 10  2  0  0  0  0
 10 11  1  0  0  0  0
 11 17  1  0  0  0  0
 12 15  1  0  0  0  0
 12 11  2  0  0  0  0
 13 12  1  0  0  0  0
 14 13  1  0  0  0  0
 15 16  2  0  0  0  0
 16 17  1  0  0  0  0
 19 18  1  0  0  0  0
 20 22  2  1  0  0  0
 20 19  1  0  0  0  0
 20 21  1  0  0  0  0
 23 20  1  0  0  0  0
 24 26  2  6  0  0  0
 24 25  1  0  0  0  0
 24 23  1  0  0  0  0
 27 24  1  0  0  0  0
 28 29  1  0  0  0  0
 28 27  1  0  0  0  0
 30 28  2  0  0  0  0
 31 28  1  0  0  0  0
M  END
>  <MODEL>
2

>  <REMARK>
 VINA RESULT:      -8.4      3.296      6.226
  Name = 7li3
  8 active torsions:
  status: ('A' for Active; 'I' for Inactive)
    1  A    between atoms: P_1  and  O_5
    2  A    between atoms: P_1  and  O_22
    3  A    between atoms: P_2  and  O_22
    4  A    between atoms: P_2  and  O_23
    5  A    between atoms: P_3  and  O_23
    6  A    between atoms: C_4  and  O_5
    7  A    between atoms: C_4  and  C_6
    8  A    between atoms: C_12  and  N_31
                            x       y       z     vdW  Elec       q    Type
                         _______ _______ _______ _____ _____    ______ ____

>  <TORSDO>
F 8

$$$$
7li3
 OpenBabel11062412003D

 31 33  0  0  1  0  0  0  0  0999 V2000
  184.6860  178.5540  143.0210 C   0  0  1  0  0  3  0  0  0  0  0  0
  185.6050  177.5290  143.3820 O   0  0  0  0  0  0  0  0  0  0  0  0
  184.6840  179.5760  144.1400 C   0  0  1  0  0  3  0  0  0  0  0  0
  183.3720  179.6260  144.6960 O   0  0  0  0  0  1  0  0  0  0  0  0
  185.6320  179.0490  145.1920 C   0  0  1  0  0  3  0  0  0  0  0  0
  184.9690  179.0070  146.4550 O   0  0  0  0  0  1  0  0  0  0  0  0
  185.9770  177.6430  144.7500 C   0  0  2  0  0  3  0  0  0  0  0  0
  190.0590  177.4210  147.9810 N   0  0  0  0  0  0  0  0  0  0  0  0
  188.7620  177.6760  148.2320 C   0  0  0  0  0  3  0  0  0  0  0  0
  187.8110  177.7010  147.2870 N   0  0  0  0  0  0  0  0  0  0  0  0
  188.1230  177.4630  145.9970 C   0  0  0  0  0  0  0  0  0  0  0  0
  189.5130  177.1740  145.6380 C   0  0  0  0  0  0  0  0  0  0  0  0
  190.5040  177.1660  146.7330 C   0  0  0  0  0  0  0  0  0  0  0  0
  191.8080  176.9100  146.4840 N   0  0  0  0  0  1  0  0  0  0  0  0
  189.5370  176.9770  144.3100 N   0  0  0  0  0  0  0  0  0  0  0  0
  188.2680  177.1270  143.8570 C   0  0  0  0  0  3  0  0  0  0  0  0
  187.4310  177.4140  144.8660 N   0  0  0  0  0  0  0  0  0  0  0  0
  185.0870  179.1540  141.6840 C   0  0  0  0  0  2  0  0  0  0  0  0
  184.1020  178.8080  140.7230 O   0  0  0  0  0  0  0  0  0  0  0  0
  184.4310  179.0070  139.1670 P   0  0  1  0  0  0  0  0  0  0  0  0
  183.5500  178.0890  138.3570 O   0  0  0  0  0  0  0  0  0  0  0  0
  184.4900  180.4850  138.8770 O   0  0  0  0  0  1  0  0  0  0  0  0
  185.9430  178.4660  139.1340 O   0  0  0  0  0  0  0  0  0  0  0  0
  186.5850  177.9410  137.7590 P   0  0  1  0  0  0  0  0  0  0  0  0
  185.6760  176.8710  137.2040 O   0  0  0  0  0  1  0  0  0  0  0  0
  186.9560  179.1320  136.9120 O   0  0  0  0  0  0  0  0  0  0  0  0
  187.9250  177.2270  138.2850 O   0  0  0  0  0  0  0  0  0  0  0  0
  189.0450  178.0720  139.0690 P   0  0  0  0  0  0  0  0  0  0  0  0
  188.5470  178.0980  140.4930 O   0  0  0  0  0  1  0  0  0  0  0  0
  189.0280  179.4140  138.3780 O   0  0  0  0  0  0  0  0  0  0  0  0
  190.3100  177.2740  138.8690 O   0  0  0  0  0  1  0  0  0  0  0  0
  1 18  1  6  0  0  0
  1  2  1  0  0  0  0
  1  3  1  0  0  0  0
  2  7  1  0  0  0  0
  3  4  1  1  0  0  0
  3  5  1  0  0  0  0
  5  6  1  1  0  0  0
  7 17  1  6  0  0  0
  7  5  1  0  0  0  0
  8  9  1  0  0  0  0
 10  9  2  0  0  0  0
 11 10  1  0  0  0  0
 12 11  2  0  0  0  0
 12 13  1  0  0  0  0
 13  8  2  0  0  0  0
 14 13  1  0  0  0  0
 15 12  1  0  0  0  0
 16 15  2  0  0  0  0
 16 17  1  0  0  0  0
 17 11  1  0  0  0  0
 19 18  1  0  0  0  0
 20 21  2  6  0  0  0
 20 19  1  0  0  0  0
 22 20  1  0  0  0  0
 23 20  1  0  0  0  0
 24 26  2  6  0  0  0
 24 27  1  0  0  0  0
 24 23  1  0  0  0  0
 25 24  1  0  0  0  0
 27 28  1  0  0  0  0
 28 29  1  0  0  0  0
 30 28  2  0  0  0  0
 31 28  1  0  0  0  0
M  END
>  <MODEL>
3

>  <REMARK>
 VINA RESULT:      -8.3      0.888      1.886
  Name = 7li3
  8 active torsions:
  status: ('A' for Active; 'I' for Inactive)
    1  A    between atoms: P_1  and  O_5
    2  A    between atoms: P_1  and  O_22
    3  A    between atoms: P_2  and  O_22
    4  A    between atoms: P_2  and  O_23
    5  A    between atoms: P_3  and  O_23
    6  A    between atoms: C_4  and  O_5
    7  A    between atoms: C_4  and  C_6
    8  A    between atoms: C_12  and  N_31
                            x       y       z     vdW  Elec       q    Type
                         _______ _______ _______ _____ _____    ______ ____

>  <TORSDO>
F 8

$$$$
7li3
 OpenBabel11062412003D

 31 33  0  0  1  0  0  0  0  0999 V2000
  189.4190  177.0850  139.8090 C   0  0  1  0  0  3  0  0  0  0  0  0
  189.6810  176.2990  140.9650 O   0  0  0  0  0  0  0  0  0  0  0  0
  188.7630  178.3700  140.2740 C   0  0  1  0  0  3  0  0  0  0  0  0
  187.4590  178.4360  139.7010 O   0  0  0  0  0  1  0  0  0  0  0  0
  188.6250  178.2530  141.7730 C   0  0  1  0  0  3  0  0  0  0  0  0
  187.2680  178.4920  142.1490 O   0  0  0  0  0  1  0  0  0  0  0  0
  188.9980  176.8210  142.0980 C   0  0  2  0  0  3  0  0  0  0  0  0
  189.3900  177.2130  147.2790 N   0  0  0  0  0  0  0  0  0  0  0  0
  188.3140  177.3070  146.4770 C   0  0  0  0  0  3  0  0  0  0  0  0
  188.3660  177.1850  145.1430 N   0  0  0  0  0  0  0  0  0  0  0  0
  189.5410  176.9520  144.5230 C   0  0  0  0  0  0  0  0  0  0  0  0
  190.7610  176.8330  145.3230 C   0  0  0  0  0  0  0  0  0  0  0  0
  190.6250  176.9820  146.7860 C   0  0  0  0  0  0  0  0  0  0  0  0
  191.7040  176.8870  147.5950 N   0  0  0  0  0  1  0  0  0  0  0  0
  191.7670  176.6030  144.4640 N   0  0  0  0  0  0  0  0  0  0  0  0
  191.2340  176.5770  143.2180 C   0  0  0  0  0  3  0  0  0  0  0  0
  189.9090  176.7840  143.2590 N   0  0  0  0  0  0  0  0  0  0  0  0
  190.7140  177.3330  139.0530 C   0  0  0  0  0  2  0  0  0  0  0  0
  190.5280  176.9370  137.7020 O   0  0  0  0  0  0  0  0  0  0  0  0
  191.3800  175.7070  137.1290 P   0  0  1  0  0  0  0  0  0  0  0  0
  191.2760  174.5480  138.0880 O   0  0  0  0  0  1  0  0  0  0  0  0
  191.0510  175.5390  135.6680 O   0  0  0  0  0  0  0  0  0  0  0  0
  192.8560  176.3350  137.2040 O   0  0  0  0  0  0  0  0  0  0  0  0
  194.1430  175.4100  136.9470 P   0  0  1  0  0  0  0  0  0  0  0  0
  193.6570  174.0590  136.4830 O   0  0  0  0  0  1  0  0  0  0  0  0
  195.1360  176.1830  136.1160 O   0  0  0  0  0  0  0  0  0  0  0  0
  194.7190  175.2420  138.4390 O   0  0  0  0  0  0  0  0  0  0  0  0
  195.9120  174.2080  138.7400 P   0  0  0  0  0  0  0  0  0  0  0  0
  196.6560  174.8390  139.8910 O   0  0  0  0  0  1  0  0  0  0  0  0
  196.6860  174.1690  137.4450 O   0  0  0  0  0  0  0  0  0  0  0  0
  195.2020  172.9230  139.0910 O   0  0  0  0  0  1  0  0  0  0  0  0
  1 18  1  1  0  0  0
  1  3  1  0  0  0  0
  1  2  1  0  0  0  0
  2  7  1  0  0  0  0
  3  4  1  6  0  0  0
  3  5  1  0  0  0  0
  5  7  1  0  0  0  0
  5  6  1  6  0  0  0
  7 17  1  1  0  0  0
  9  8  2  0  0  0  0
 10  9  1  0  0  0  0
 11 10  2  0  0  0  0
 11 12  1  0  0  0  0
 12 13  2  0  0  0  0
 13  8  1  0  0  0  0
 13 14  1  0  0  0  0
 15 12  1  0  0  0  0
 16 17  1  0  0  0  0
 16 15  2  0  0  0  0
 17 11  1  0  0  0  0
 19 18  1  0  0  0  0
 20 22  2  6  0  0  0
 20 23  1  0  0  0  0
 20 19  1  0  0  0  0
 20 21  1  0  0  0  0
 24 26  2  6  0  0  0
 24 23  1  0  0  0  0
 24 27  1  0  0  0  0
 25 24  1  0  0  0  0
 27 28  1  0  0  0  0
 28 31  1  0  0  0  0
 28 29  1  0  0  0  0
 30 28  2  0  0  0  0
M  END
>  <MODEL>
4

>  <REMARK>
 VINA RESULT:      -8.1      3.668      6.103
  Name = 7li3
  8 active torsions:
  status: ('A' for Active; 'I' for Inactive)
    1  A    between atoms: P_1  and  O_5
    2  A    between atoms: P_1  and  O_22
    3  A    between atoms: P_2  and  O_22
    4  A    between atoms: P_2  and  O_23
    5  A    between atoms: P_3  and  O_23
    6  A    between atoms: C_4  and  O_5
    7  A    between atoms: C_4  and  C_6
    8  A    between atoms: C_12  and  N_31
                            x       y       z     vdW  Elec       q    Type
                         _______ _______ _______ _____ _____    ______ ____

>  <TORSDO>
F 8

$$$$
7li3
 OpenBabel11062412003D

 31 33  0  0  1  0  0  0  0  0999 V2000
  188.0270  177.2260  144.6460 C   0  0  1  0  0  3  0  0  0  0  0  0
  187.9890  176.7640  143.3010 O   0  0  0  0  0  0  0  0  0  0  0  0
  189.2640  178.0890  144.7940 C   0  0  1  0  0  3  0  0  0  0  0  0
  190.1170  177.4830  145.7630 O   0  0  0  0  0  1  0  0  0  0  0  0
  189.9600  178.0590  143.4540 C   0  0  1  0  0  3  0  0  0  0  0  0
  191.3210  177.6670  143.6310 O   0  0  0  0  0  1  0  0  0  0  0  0
  189.2280  177.0070  142.6480 C   0  0  2  0  0  3  0  0  0  0  0  0
  190.6670  176.8760  137.6410 N   0  0  0  0  0  0  0  0  0  0  0  0
  191.1780  176.2410  138.7110 C   0  0  0  0  0  3  0  0  0  0  0  0
  190.6990  176.3750  139.9560 N   0  0  0  0  0  0  0  0  0  0  0  0
  189.6430  177.1780  140.2000 C   0  0  0  0  0  0  0  0  0  0  0  0
  189.0240  177.9030  139.0890 C   0  0  0  0  0  0  0  0  0  0  0  0
  189.6090  177.7080  137.7470 C   0  0  0  0  0  0  0  0  0  0  0  0
  189.0970  178.3430  136.6690 N   0  0  0  0  0  1  0  0  0  0  0  0
  188.0090  178.6140  139.6070 N   0  0  0  0  0  0  0  0  0  0  0  0
  187.9820  178.3640  140.9390 C   0  0  0  0  0  3  0  0  0  0  0  0
  188.9550  177.5080  141.2860 N   0  0  0  0  0  0  0  0  0  0  0  0
  186.7480  177.9810  144.9660 C   0  0  0  0  0  2  0  0  0  0  0  0
  185.7140  177.4890  144.1260 O   0  0  0  0  0  0  0  0  0  0  0  0
  184.7150  178.5330  143.4320 P   0  0  1  0  0  0  0  0  0  0  0  0
  183.3990  178.5170  144.1690 O   0  0  0  0  0  1  0  0  0  0  0  0
  185.4600  179.8220  143.1980 O   0  0  0  0  0  0  0  0  0  0  0  0
  184.5350  177.8320  141.9980 O   0  0  0  0  0  0  0  0  0  0  0  0
  183.7800  178.6040  140.8090 P   0  0  1  0  0  0  0  0  0  0  0  0
  182.4100  178.9920  141.3070 O   0  0  0  0  0  1  0  0  0  0  0  0
  184.7080  179.6520  140.2490 O   0  0  0  0  0  0  0  0  0  0  0  0
  183.5990  177.4260  139.7300 O   0  0  0  0  0  0  0  0  0  0  0  0
  183.5480  177.7620  138.1590 P   0  0  0  0  0  0  0  0  0  0  0  0
  184.9920  178.0010  137.7930 O   0  0  0  0  0  1  0  0  0  0  0  0
  182.6750  178.9900  138.0840 O   0  0  0  0  0  1  0  0  0  0  0  0
  182.9490  176.5220  137.5410 O   0  0  0  0  0  0  0  0  0  0  0  0
  1  3  1  0  0  0  0
  1 18  1  6  0  0  0
  2  1  1  0  0  0  0
  3  4  1  1  0  0  0
  5  6  1  1  0  0  0
  5  3  1  0  0  0  0
  7 17  1  6  0  0  0
  7  2  1  0  0  0  0
  7  5  1  0  0  0  0
  8 13  2  0  0  0  0
  8  9  1  0  0  0  0
  9 10  2  0  0  0  0
 10 11  1  0  0  0  0
 11 17  1  0  0  0  0
 12 15  1  0  0  0  0
 12 11  2  0  0  0  0
 13 12  1  0  0  0  0
 14 13  1  0  0  0  0
 15 16  2  0  0  0  0
 16 17  1  0  0  0  0
 19 18  1  0  0  0  0
 20 22  2  6  0  0  0
 20 19  1  0  0  0  0
 20 21  1  0  0  0  0
 23 20  1  0  0  0  0
 24 26  2  6  0  0  0
 24 25  1  0  0  0  0
 24 23  1  0  0  0  0
 27 24  1  0  0  0  0
 28 27  1  0  0  0  0
 29 28  1  0  0  0  0
 30 28  1  0  0  0  0
 31 28  2  0  0  0  0
M  END
>  <MODEL>
5

>  <REMARK>
 VINA RESULT:      -7.9      3.350      5.654
  Name = 7li3
  8 active torsions:
  status: ('A' for Active; 'I' for Inactive)
    1  A    between atoms: P_1  and  O_5
    2  A    between atoms: P_1  and  O_22
    3  A    between atoms: P_2  and  O_22
    4  A    between atoms: P_2  and  O_23
    5  A    between atoms: P_3  and  O_23
    6  A    between atoms: C_4  and  O_5
    7  A    between atoms: C_4  and  C_6
    8  A    between atoms: C_12  and  N_31
                            x       y       z     vdW  Elec       q    Type
                         _______ _______ _______ _____ _____    ______ ____

>  <TORSDO>
F 8

$$$$
7li3
 OpenBabel11062412003D

 31 33  0  0  1  0  0  0  0  0999 V2000
  190.4740  177.3130  142.4400 C   0  0  1  0  0  3  0  0  0  0  0  0
  189.4170  178.2470  142.6240 O   0  0  0  0  0  0  0  0  0  0  0  0
  190.3300  176.2480  143.5090 C   0  0  1  0  0  3  0  0  0  0  0  0
  191.4980  176.2780  144.3270 O   0  0  0  0  0  1  0  0  0  0  0  0
  189.1430  176.6550  144.3490 C   0  0  1  0  0  3  0  0  0  0  0  0
  189.5230  176.6960  145.7250 O   0  0  0  0  0  1  0  0  0  0  0  0
  188.7800  178.0480  143.8790 C   0  0  2  0  0  3  0  0  0  0  0  0
  184.1810  178.7940  146.2120 N   0  0  0  0  0  0  0  0  0  0  0  0
  185.4220  178.7510  146.7280 C   0  0  0  0  0  3  0  0  0  0  0  0
  186.5260  178.5460  145.9960 N   0  0  0  0  0  0  0  0  0  0  0  0
  186.4390  178.3700  144.6610 C   0  0  0  0  0  0  0  0  0  0  0  0
  185.1240  178.4060  144.0190 C   0  0  0  0  0  0  0  0  0  0  0  0
  183.9540  178.6330  144.8910 C   0  0  0  0  0  0  0  0  0  0  0  0
  182.7050  178.6790  144.3760 N   0  0  0  0  0  1  0  0  0  0  0  0
  185.3290  178.2080  142.7060 N   0  0  0  0  0  0  0  0  0  0  0  0
  186.6630  178.0590  142.5250 C   0  0  0  0  0  3  0  0  0  0  0  0
  187.3190  178.1570  143.6910 N   0  0  0  0  0  0  0  0  0  0  0  0
  190.4130  176.7390  141.0340 C   0  0  0  0  0  2  0  0  0  0  0  0
  189.2430  177.2340  140.3980 O   0  0  0  0  0  0  0  0  0  0  0  0
  189.2800  177.5240  138.8220 P   0  0  1  0  0  0  0  0  0  0  0  0
  188.4730  176.4680  138.1100 O   0  0  0  0  0  0  0  0  0  0  0  0
  189.0110  178.9900  138.6010 O   0  0  0  0  0  1  0  0  0  0  0  0
  190.8420  177.2880  138.5340 O   0  0  0  0  0  0  0  0  0  0  0  0
  191.3160  176.1080  137.5540 P   0  0  1  0  0  0  0  0  0  0  0  0
  190.9020  174.7970  138.1760 O   0  0  0  0  0  1  0  0  0  0  0  0
  190.8900  176.4470  136.1480 O   0  0  0  0  0  0  0  0  0  0  0  0
  192.9150  176.2240  137.6650 O   0  0  0  0  0  0  0  0  0  0  0  0
  193.8620  175.4960  136.5890 P   0  0  0  0  0  0  0  0  0  0  0  0
  193.9400  176.4830  135.4500 O   0  0  0  0  0  0  0  0  0  0  0  0
  193.1180  174.2240  136.2610 O   0  0  0  0  0  1  0  0  0  0  0  0
  195.1630  175.2940  137.3250 O   0  0  0  0  0  1  0  0  0  0  0  0
  1 18  1  6  0  0  0
  1  2  1  0  0  0  0
  1  3  1  0  0  0  0
  2  7  1  0  0  0  0
  3  4  1  1  0  0  0
  3  5  1  0  0  0  0
  5  6  1  1  0  0  0
  7 17  1  6  0  0  0
  7  5  1  0  0  0  0
  8  9  1  0  0  0  0
 10  9  2  0  0  0  0
 11 10  1  0  0  0  0
 12 11  2  0  0  0  0
 12 13  1  0  0  0  0
 13  8  2  0  0  0  0
 14 13  1  0  0  0  0
 15 12  1  0  0  0  0
 16 15  2  0  0  0  0
 16 17  1  0  0  0  0
 17 11  1  0  0  0  0
 19 18  1  0  0  0  0
 20 21  2  6  0  0  0
 20 19  1  0  0  0  0
 22 20  1  0  0  0  0
 23 20  1  0  0  0  0
 24 26  2  6  0  0  0
 24 27  1  0  0  0  0
 24 25  1  0  0  0  0
 24 23  1  0  0  0  0
 28 31  1  0  0  0  0
 28 27  1  0  0  0  0
 29 28  2  0  0  0  0
 30 28  1  0  0  0  0
M  END
>  <MODEL>
6

>  <REMARK>
 VINA RESULT:      -7.9      3.113      5.584
  Name = 7li3
  8 active torsions:
  status: ('A' for Active; 'I' for Inactive)
    1  A    between atoms: P_1  and  O_5
    2  A    between atoms: P_1  and  O_22
    3  A    between atoms: P_2  and  O_22
    4  A    between atoms: P_2  and  O_23
    5  A    between atoms: P_3  and  O_23
    6  A    between atoms: C_4  and  O_5
    7  A    between atoms: C_4  and  C_6
    8  A    between atoms: C_12  and  N_31
                            x       y       z     vdW  Elec       q    Type
                         _______ _______ _______ _____ _____    ______ ____

>  <TORSDO>
F 8

$$$$
7li3
 OpenBabel11062412003D

 31 33  0  0  1  0  0  0  0  0999 V2000
  190.1530  177.2610  141.8220 C   0  0  1  0  0  3  0  0  0  0  0  0
  189.1540  178.2280  142.1220 O   0  0  0  0  0  0  0  0  0  0  0  0
  190.0370  176.1550  142.8530 C   0  0  1  0  0  3  0  0  0  0  0  0
  191.2590  176.0990  143.5850 O   0  0  0  0  0  1  0  0  0  0  0  0
  188.9310  176.5720  143.7930 C   0  0  1  0  0  3  0  0  0  0  0  0
  189.4080  176.5350  145.1390 O   0  0  0  0  0  1  0  0  0  0  0  0
  188.5980  177.9980  143.4110 C   0  0  2  0  0  3  0  0  0  0  0  0
  184.1880  178.6320  146.1130 N   0  0  0  0  0  0  0  0  0  0  0  0
  185.4560  178.4900  146.5370 C   0  0  0  0  0  3  0  0  0  0  0  0
  186.5040  178.3320  145.7150 N   0  0  0  0  0  0  0  0  0  0  0  0
  186.3260  178.3080  144.3780 C   0  0  0  0  0  0  0  0  0  0  0  0
  184.9760  178.4600  143.8320 C   0  0  0  0  0  0  0  0  0  0  0  0
  183.8730  178.6270  144.8000 C   0  0  0  0  0  0  0  0  0  0  0  0
  182.5960  178.7710  144.3780 N   0  0  0  0  0  1  0  0  0  0  0  0
  185.0890  178.4030  142.4950 N   0  0  0  0  0  0  0  0  0  0  0  0
  186.4030  178.2300  142.2100 C   0  0  0  0  0  3  0  0  0  0  0  0
  187.1340  178.1760  143.3340 N   0  0  0  0  0  0  0  0  0  0  0  0
  189.9660  176.7550  140.4020 C   0  0  0  0  0  2  0  0  0  0  0  0
  191.2260  176.7830  139.7460 O   0  0  0  0  0  0  0  0  0  0  0  0
  191.3320  176.2330  138.2450 P   0  0  1  0  0  0  0  0  0  0  0  0
  190.9820  174.7660  138.2340 O   0  0  0  0  0  1  0  0  0  0  0  0
  190.6350  177.2070  137.3300 O   0  0  0  0  0  0  0  0  0  0  0  0
  192.9090  176.4090  137.9970 O   0  0  0  0  0  0  0  0  0  0  0  0
  193.6340  175.6200  136.8010 P   0  0  1  0  0  0  0  0  0  0  0  0
  192.6080  175.3690  135.7240 O   0  0  0  0  0  0  0  0  0  0  0  0
  194.9240  176.3260  136.4680 O   0  0  0  0  0  1  0  0  0  0  0  0
  193.9680  174.2130  137.5040 O   0  0  0  0  0  0  0  0  0  0  0  0
  195.3370  174.0140  138.3210 P   0  0  0  0  0  0  0  0  0  0  0  0
  195.1170  172.7370  139.0930 O   0  0  0  0  0  1  0  0  0  0  0  0
  195.4250  175.2540  139.1780 O   0  0  0  0  0  1  0  0  0  0  0  0
  196.3920  173.9150  137.2450 O   0  0  0  0  0  0  0  0  0  0  0  0
  1 18  1  6  0  0  0
  1  2  1  0  0  0  0
  1  3  1  0  0  0  0
  2  7  1  0  0  0  0
  3  4  1  1  0  0  0
  3  5  1  0  0  0  0
  5  6  1  1  0  0  0
  7 17  1  6  0  0  0
  7  5  1  0  0  0  0
  8  9  1  0  0  0  0
 10  9  2  0  0  0  0
 11 10  1  0  0  0  0
 12 11  2  0  0  0  0
 12 13  1  0  0  0  0
 13  8  2  0  0  0  0
 14 13  1  0  0  0  0
 15 12  1  0  0  0  0
 16 15  2  0  0  0  0
 16 17  1  0  0  0  0
 17 11  1  0  0  0  0
 19 18  1  0  0  0  0
 20 22  2  6  0  0  0
 20 19  1  0  0  0  0
 21 20  1  0  0  0  0
 23 20  1  0  0  0  0
 24 25  2  6  0  0  0
 24 27  1  0  0  0  0
 24 23  1  0  0  0  0
 26 24  1  0  0  0  0
 27 28  1  0  0  0  0
 28 29  1  0  0  0  0
 28 30  1  0  0  0  0
 31 28  2  0  0  0  0
M  END
>  <MODEL>
7

>  <REMARK>
 VINA RESULT:      -7.8      3.753      6.507
  Name = 7li3
  8 active torsions:
  status: ('A' for Active; 'I' for Inactive)
    1  A    between atoms: P_1  and  O_5
    2  A    between atoms: P_1  and  O_22
    3  A    between atoms: P_2  and  O_22
    4  A    between atoms: P_2  and  O_23
    5  A    between atoms: P_3  and  O_23
    6  A    between atoms: C_4  and  O_5
    7  A    between atoms: C_4  and  C_6
    8  A    between atoms: C_12  and  N_31
                            x       y       z     vdW  Elec       q    Type
                         _______ _______ _______ _____ _____    ______ ____

>  <TORSDO>
F 8

$$$$
7li3
 OpenBabel11062412003D

 31 33  0  0  1  0  0  0  0  0999 V2000
  185.0310  178.6500  142.8550 C   0  0  1  0  0  3  0  0  0  0  0  0
  185.9130  177.7050  143.4480 O   0  0  0  0  0  0  0  0  0  0  0  0
  184.5540  179.5780  143.9550 C   0  0  1  0  0  3  0  0  0  0  0  0
  183.1390  179.4440  144.0680 O   0  0  0  0  0  1  0  0  0  0  0  0
  185.1880  179.0770  145.2310 C   0  0  1  0  0  3  0  0  0  0  0  0
  184.1770  178.8670  146.2170 O   0  0  0  0  0  1  0  0  0  0  0  0
  185.8260  177.7530  144.8660 C   0  0  2  0  0  3  0  0  0  0  0  0
  190.7810  176.4070  143.9750 N   0  0  0  0  0  0  0  0  0  0  0  0
  189.7030  176.3420  143.1730 C   0  0  0  0  0  3  0  0  0  0  0  0
  188.4740  176.7280  143.5440 N   0  0  0  0  0  0  0  0  0  0  0  0
  188.2550  177.2170  144.7820 C   0  0  0  0  0  0  0  0  0  0  0  0
  189.3770  177.3250  145.7170 C   0  0  0  0  0  0  0  0  0  0  0  0
  190.7000  176.8780  145.2370 C   0  0  0  0  0  0  0  0  0  0  0  0
  191.7860  176.9430  146.0400 N   0  0  0  0  0  1  0  0  0  0  0  0
  188.8840  177.8390  146.8560 N   0  0  0  0  0  0  0  0  0  0  0  0
  187.5570  178.0430  146.6640 C   0  0  0  0  0  3  0  0  0  0  0  0
  187.1900  177.6730  145.4280 N   0  0  0  0  0  0  0  0  0  0  0  0
  185.7470  179.3900  141.7380 C   0  0  0  0  0  2  0  0  0  0  0  0
  185.7960  178.5450  140.5980 O   0  0  0  0  0  0  0  0  0  0  0  0
  184.7020  178.7370  139.4430 P   0  0  1  0  0  0  0  0  0  0  0  0
  184.3170  180.1930  139.3680 O   0  0  0  0  0  1  0  0  0  0  0  0
  185.1660  177.9900  138.2190 O   0  0  0  0  0  0  0  0  0  0  0  0
  183.4880  177.8930  140.0700 O   0  0  0  0  0  0  0  0  0  0  0  0
  181.9840  178.1400  139.5630 P   0  0  1  0  0  0  0  0  0  0  0  0
  182.0510  178.6280  138.1370 O   0  0  0  0  0  0  0  0  0  0  0  0
  181.1530  176.9310  139.9110 O   0  0  0  0  0  1  0  0  0  0  0  0
  181.5350  179.3750  140.4890 O   0  0  0  0  0  0  0  0  0  0  0  0
  180.3030  180.3120  140.0550 P   0  0  0  0  0  0  0  0  0  0  0  0
  180.9180  181.2960  139.0910 O   0  0  0  0  0  0  0  0  0  0  0  0
  179.8420  180.9210  141.3580 O   0  0  0  0  0  1  0  0  0  0  0  0
  179.3220  179.3550  139.4240 O   0  0  0  0  0  1  0  0  0  0  0  0
  1 18  1  6  0  0  0
  1  2  1  0  0  0  0
  1  3  1  0  0  0  0
  2  7  1  0  0  0  0
  3  4  1  1  0  0  0
  3  5  1  0  0  0  0
  5  6  1  1  0  0  0
  7  5  1  0  0  0  0
  7 17  1  1  0  0  0
  8 13  1  0  0  0  0
  9 10  1  0  0  0  0
  9  8  2  0  0  0  0
 10 11  2  0  0  0  0
 11 17  1  0  0  0  0
 11 12  1  0  0  0  0
 12 15  1  0  0  0  0
 13 12  2  0  0  0  0
 13 14  1  0  0  0  0
 16 15  2  0  0  0  0
 17 16  1  0  0  0  0
 19 18  1  0  0  0  0
 20 22  2  6  0  0  0
 20 23  1  0  0  0  0
 20 19  1  0  0  0  0
 21 20  1  0  0  0  0
 24 25  2  6  0  0  0
 24 26  1  0  0  0  0
 24 23  1  0  0  0  0
 24 27  1  0  0  0  0
 28 27  1  0  0  0  0
 28 30  1  0  0  0  0
 29 28  2  0  0  0  0
 31 28  1  0  0  0  0
M  END
>  <MODEL>
8

>  <REMARK>
 VINA RESULT:      -7.8      2.038      4.239
  Name = 7li3
  8 active torsions:
  status: ('A' for Active; 'I' for Inactive)
    1  A    between atoms: P_1  and  O_5
    2  A    between atoms: P_1  and  O_22
    3  A    between atoms: P_2  and  O_22
    4  A    between atoms: P_2  and  O_23
    5  A    between atoms: P_3  and  O_23
    6  A    between atoms: C_4  and  O_5
    7  A    between atoms: C_4  and  C_6
    8  A    between atoms: C_12  and  N_31
                            x       y       z     vdW  Elec       q    Type
                         _______ _______ _______ _____ _____    ______ ____

>  <TORSDO>
F 8

$$$$
7li3
 OpenBabel11062412003D

 31 33  0  0  1  0  0  0  0  0999 V2000
  185.2450  178.2580  143.2770 C   0  0  1  0  0  3  0  0  0  0  0  0
  186.0810  177.3390  143.9690 O   0  0  0  0  0  0  0  0  0  0  0  0
  184.8840  179.3630  144.2500 C   0  0  1  0  0  3  0  0  0  0  0  0
  183.4680  179.3560  144.4250 O   0  0  0  0  0  1  0  0  0  0  0  0
  185.5330  178.9950  145.5630 C   0  0  1  0  0  3  0  0  0  0  0  0
  184.5510  179.0020  146.6000 O   0  0  0  0  0  1  0  0  0  0  0  0
  186.0570  177.5880  145.3680 C   0  0  2  0  0  3  0  0  0  0  0  0
  191.0190  176.4560  144.2470 N   0  0  0  0  0  0  0  0  0  0  0  0
  189.9260  176.4510  143.4630 C   0  0  0  0  0  3  0  0  0  0  0  0
  188.6970  176.7680  143.8960 N   0  0  0  0  0  0  0  0  0  0  0  0
  188.4950  177.1200  145.1820 C   0  0  0  0  0  0  0  0  0  0  0  0
  189.6330  177.1550  146.1020 C   0  0  0  0  0  0  0  0  0  0  0  0
  190.9550  176.7910  145.5530 C   0  0  0  0  0  0  0  0  0  0  0  0
  192.0560  176.7950  146.3370 N   0  0  0  0  0  1  0  0  0  0  0  0
  189.1540  177.5350  147.2980 N   0  0  0  0  0  0  0  0  0  0  0  0
  187.8200  177.7270  147.1540 C   0  0  0  0  0  3  0  0  0  0  0  0
  187.4340  177.4800  145.8920 N   0  0  0  0  0  0  0  0  0  0  0  0
  185.9660  178.7800  142.0450 C   0  0  0  0  0  2  0  0  0  0  0  0
  185.0350  179.5020  141.2520 O   0  0  0  0  0  0  0  0  0  0  0  0
  184.7630  179.0240  139.7470 P   0  0  1  0  0  0  0  0  0  0  0  0
  184.1830  180.1750  138.9640 O   0  0  0  0  0  0  0  0  0  0  0  0
  185.9790  178.2820  139.2550 O   0  0  0  0  0  1  0  0  0  0  0  0
  183.6220  177.9250  140.0090 O   0  0  0  0  0  0  0  0  0  0  0  0
  182.0780  178.2830  139.7460 P   0  0  1  0  0  0  0  0  0  0  0  0
  181.6900  179.3860  140.6980 O   0  0  0  0  0  1  0  0  0  0  0  0
  181.8680  178.4540  138.2620 O   0  0  0  0  0  0  0  0  0  0  0  0
  181.3510  176.9330  140.2300 O   0  0  0  0  0  0  0  0  0  0  0  0
  179.7840  176.9340  140.5850 P   0  0  0  0  0  0  0  0  0  0  0  0
  179.3860  175.4830  140.4740 O   0  0  0  0  0  1  0  0  0  0  0  0
  179.1790  177.8280  139.5290 O   0  0  0  0  0  0  0  0  0  0  0  0
  179.7280  177.4880  141.9880 O   0  0  0  0  0  1  0  0  0  0  0  0
  1 18  1  6  0  0  0
  1  2  1  0  0  0  0
  1  3  1  0  0  0  0
  2  7  1  0  0  0  0
  3  4  1  1  0  0  0
  3  5  1  0  0  0  0
  5  6  1  1  0  0  0
  7  5  1  0  0  0  0
  7 17  1  6  0  0  0
  8 13  1  0  0  0  0
  9 10  1  0  0  0  0
  9  8  2  0  0  0  0
 10 11  2  0  0  0  0
 11 17  1  0  0  0  0
 11 12  1  0  0  0  0
 12 15  1  0  0  0  0
 13 12  2  0  0  0  0
 13 14  1  0  0  0  0
 16 15  2  0  0  0  0
 17 16  1  0  0  0  0
 19 18  1  0  0  0  0
 20 21  2  6  0  0  0
 20 23  1  0  0  0  0
 20 19  1  0  0  0  0
 22 20  1  0  0  0  0
 24 26  2  6  0  0  0
 24 23  1  0  0  0  0
 24 27  1  0  0  0  0
 24 25  1  0  0  0  0
 27 28  1  0  0  0  0
 28 31  1  0  0  0  0
 29 28  1  0  0  0  0
 30 28  2  0  0  0  0
M  END
>  <MODEL>
9

>  <REMARK>
 VINA RESULT:      -7.8      2.077      4.288
  Name = 7li3
  8 active torsions:
  status: ('A' for Active; 'I' for Inactive)
    1  A    between atoms: P_1  and  O_5
    2  A    between atoms: P_1  and  O_22
    3  A    between atoms: P_2  and  O_22
    4  A    between atoms: P_2  and  O_23
    5  A    between atoms: P_3  and  O_23
    6  A    between atoms: C_4  and  O_5
    7  A    between atoms: C_4  and  C_6
    8  A    between atoms: C_12  and  N_31
                            x       y       z     vdW  Elec       q    Type
                         _______ _______ _______ _____ _____    ______ ____

>  <TORSDO>
F 8

$$$$
