8u8a
 OpenBabel11062411593D

 39 43  0  0  0  0  0  0  0  0999 V2000
  190.5120  175.3240  142.8940 O   0  0  0  0  0  0  0  0  0  0  0  0
  190.2400  177.3210  141.8580 N   0  0  0  0  0  2  0  0  0  0  0  0
  190.0640  176.4700  142.8800 C   0  0  0  0  0  0  0  0  0  0  0  0
  187.0500  177.7550  144.7500 C   0  0  0  0  0  0  0  0  0  0  0  0
  187.5170  177.8780  146.1220 C   0  0  0  0  0  0  0  0  0  0  0  0
  188.8750  177.5280  146.4160 C   0  0  0  0  0  3  0  0  0  0  0  0
  189.7430  177.0580  145.3890 C   0  0  0  0  0  3  0  0  0  0  0  0
  189.2520  176.9350  144.0400 C   0  0  0  0  0  0  0  0  0  0  0  0
  187.9200  177.2940  143.7470 C   0  0  0  0  0  3  0  0  0  0  0  0
  186.6140  178.3810  147.2420 C   0  0  0  0  0  1  0  0  0  0  0  0
  185.6910  178.0690  144.3470 C   0  0  0  0  0  0  0  0  0  0  0  0
  184.6050  178.3690  143.8980 C   0  0  0  0  0  0  0  0  0  0  0  0
  182.2560  178.9700  143.9130 C   0  0  0  0  0  3  0  0  0  0  0  0
  181.2420  179.1490  143.0050 N   0  0  0  0  0  0  0  0  0  0  0  0
  183.3930  178.6540  143.2730 C   0  0  0  0  0  0  0  0  0  0  0  0
  181.2670  178.9470  140.5030 C   0  0  0  0  0  3  0  0  0  0  0  0
  184.0260  178.2930  140.9640 N   0  0  0  0  0  0  0  0  0  0  0  0
  182.1200  178.6550  139.4650 C   0  0  0  0  0  3  0  0  0  0  0  0
  183.1330  178.5910  141.9500 N   0  0  0  0  0  0  0  0  0  0  0  0
  183.4710  178.3400  139.7570 C   0  0  0  0  0  3  0  0  0  0  0  0
  181.7760  178.9270  141.8300 C   0  0  0  0  0  0  0  0  0  0  0  0
  190.9690  177.0640  140.6710 C   0  0  0  0  0  0  0  0  0  0  0  0
  192.3380  177.4120  140.6240 C   0  0  0  0  0  3  0  0  0  0  0  0
  193.1050  177.1600  139.4430 C   0  0  0  0  0  3  0  0  0  0  0  0
  192.5150  176.5470  138.2740 C   0  0  0  0  0  0  0  0  0  0  0  0
  191.0990  176.1950  138.3250 C   0  0  0  0  0  0  0  0  0  0  0  0
  190.3750  176.4630  139.5150 C   0  0  0  0  0  3  0  0  0  0  0  0
  190.3070  175.5360  137.1920 C   0  0  0  0  0  0  0  0  0  0  0  0
  190.8190  174.3650  136.9050 F   0  0  0  0  0  0  0  0  0  0  0  0
  189.0390  175.3390  137.5090 F   0  0  0  0  0  0  0  0  0  0  0  0
  190.3270  176.3080  136.1100 F   0  0  0  0  0  0  0  0  0  0  0  0
  193.4260  176.3150  137.0490 C   0  0  0  0  0  2  0  0  0  0  0  0
  194.5460  175.4080  137.3100 N   0  0  0  0  0  0  0  0  0  0  0  0
  196.2380  173.0370  137.0610 N   0  0  0  0  0  0  0  0  0  0  0  0
  194.0920  174.0530  137.7180 C   0  0  0  0  0  2  0  0  0  0  0  0
  195.2960  173.2080  138.1790 C   0  0  0  0  0  2  0  0  0  0  0  0
  196.6640  174.3560  136.5070 C   0  0  0  0  0  2  0  0  0  0  0  0
  195.4460  175.2620  136.1530 C   0  0  0  0  0  2  0  0  0  0  0  0
  197.3610  172.2020  137.4520 C   0  0  0  0  0  1  0  0  0  0  0  0
  2  3  1  0  0  0  0
  3  1  2  0  0  0  0
  3  8  1  0  0  0  0
  4  5  1  0  0  0  0
  5  6  2  0  0  0  0
  5 10  1  0  0  0  0
  7  6  1  0  0  0  0
  8  7  2  0  0  0  0
  9  8  1  0  0  0  0
  9  4  2  0  0  0  0
 11  4  1  0  0  0  0
 12 11  3  0  0  0  0
 14 13  1  0  0  0  0
 15 12  1  0  0  0  0
 15 13  2  0  0  0  0
 16 21  1  0  0  0  0
 17 19  1  0  0  0  0
 18 20  1  0  0  0  0
 18 16  2  0  0  0  0
 19 15  1  0  0  0  0
 20 17  2  0  0  0  0
 21 19  1  0  0  0  0
 21 14  2  0  0  0  0
 22  2  1  0  0  0  0
 23 22  1  0  0  0  0
 24 23  2  0  0  0  0
 25 26  2  0  0  0  0
 25 24  1  0  0  0  0
 26 27  1  0  0  0  0
 27 22  2  0  0  0  0
 28 30  1  0  0  0  0
 28 26  1  0  0  0  0
 29 28  1  0  0  0  0
 31 28  1  0  0  0  0
 32 33  1  0  0  0  0
 32 25  1  0  0  0  0
 33 35  1  0  0  0  0
 34 39  1  0  0  0  0
 34 36  1  0  0  0  0
 35 36  1  0  0  0  0
 37 34  1  0  0  0  0
 38 37  1  0  0  0  0
 38 33  1  0  0  0  0
M  END
>  <MODEL>
1

>  <REMARK>
 VINA RESULT:      -9.6      0.000      0.000
  Name = 8u8a
  8 active torsions:
  status: ('A' for Active; 'I' for Inactive)
    1  A    between atoms: C_4  and  C_6
    2  A    between atoms: N_5  and  C_18
    3  A    between atoms: C_6  and  C_8
    4  A    between atoms: N_7  and  C_25
    5  A    between atoms: C_8  and  C_10
    6  A    between atoms: C_14  and  C_17
    7  A    between atoms: C_21  and  C_25
    8  A    between atoms: C_22  and  C_24
                            x       y       z     vdW  Elec       q    Type
                         _______ _______ _______ _____ _____    ______ ____

>  <TORSDO>
F 8

$$$$
8u8a
 OpenBabel11062411593D

 39 43  0  0  0  0  0  0  0  0999 V2000
  190.3350  175.5860  142.5900 O   0  0  0  0  0  0  0  0  0  0  0  0
  189.7810  177.3220  141.2430 N   0  0  0  0  0  2  0  0  0  0  0  0
  189.6720  176.5980  142.3670 C   0  0  0  0  0  0  0  0  0  0  0  0
  186.3860  177.8810  143.7060 C   0  0  0  0  0  0  0  0  0  0  0  0
  186.5900  177.9230  145.1450 C   0  0  0  0  0  0  0  0  0  0  0  0
  187.8600  177.5190  145.6690 C   0  0  0  0  0  3  0  0  0  0  0  0
  188.8970  177.0740  144.7990 C   0  0  0  0  0  3  0  0  0  0  0  0
  188.6650  177.0300  143.3770 C   0  0  0  0  0  0  0  0  0  0  0  0
  187.4200  177.4420  142.8610 C   0  0  0  0  0  3  0  0  0  0  0  0
  185.5020  178.3990  146.1020 C   0  0  0  0  0  1  0  0  0  0  0  0
  185.1340  178.2540  143.0730 C   0  0  0  0  0  0  0  0  0  0  0  0
  184.0300  178.4910  142.6290 C   0  0  0  0  0  0  0  0  0  0  0  0
  182.6160  178.8890  140.7010 C   0  0  0  0  0  3  0  0  0  0  0  0
  181.2850  179.0970  140.4370 N   0  0  0  0  0  0  0  0  0  0  0  0
  182.7960  178.6920  142.0170 C   0  0  0  0  0  0  0  0  0  0  0  0
  179.3230  179.1670  142.0020 C   0  0  0  0  0  3  0  0  0  0  0  0
  181.3600  178.6710  143.9670 N   0  0  0  0  0  0  0  0  0  0  0  0
  179.0210  179.0450  143.3380 C   0  0  0  0  0  3  0  0  0  0  0  0
  181.5980  178.8000  142.6310 N   0  0  0  0  0  0  0  0  0  0  0  0
  180.0700  178.8000  144.2580 C   0  0  0  0  0  3  0  0  0  0  0  0
  180.6790  179.0360  141.5960 C   0  0  0  0  0  0  0  0  0  0  0  0
  190.6680  177.0690  140.1680 C   0  0  0  0  0  0  0  0  0  0  0  0
  192.0490  177.3050  140.3550 C   0  0  0  0  0  3  0  0  0  0  0  0
  192.9730  177.0540  139.2910 C   0  0  0  0  0  3  0  0  0  0  0  0
  192.5320  176.5550  138.0080 C   0  0  0  0  0  0  0  0  0  0  0  0
  191.1040  176.3180  137.8180 C   0  0  0  0  0  0  0  0  0  0  0  0
  190.2220  176.5810  138.8970 C   0  0  0  0  0  3  0  0  0  0  0  0
  190.4560  175.7880  136.5360 C   0  0  0  0  0  0  0  0  0  0  0  0
  189.1710  175.6100  136.7190 F   0  0  0  0  0  0  0  0  0  0  0  0
  190.5920  176.6210  135.5190 F   0  0  0  0  0  0  0  0  0  0  0  0
  191.0180  174.6370  136.1800 F   0  0  0  0  0  0  0  0  0  0  0  0
  193.6060  176.3130  136.9250 C   0  0  0  0  0  2  0  0  0  0  0  0
  194.5870  175.2870  137.2850 N   0  0  0  0  0  0  0  0  0  0  0  0
  196.1300  172.8130  137.0840 N   0  0  0  0  0  0  0  0  0  0  0  0
  193.9700  173.9440  137.4360 C   0  0  0  0  0  2  0  0  0  0  0  0
  194.9980  172.9520  138.0140 C   0  0  0  0  0  2  0  0  0  0  0  0
  196.7460  174.1380  136.7810 C   0  0  0  0  0  2  0  0  0  0  0  0
  195.6870  175.1810  136.3120 C   0  0  0  0  0  2  0  0  0  0  0  0
  197.0930  171.8440  137.5800 C   0  0  0  0  0  1  0  0  0  0  0  0
  2  3  1  0  0  0  0
  3  1  2  0  0  0  0
  3  8  1  0  0  0  0
  4  5  1  0  0  0  0
  5  6  2  0  0  0  0
  5 10  1  0  0  0  0
  7  6  1  0  0  0  0
  8  7  2  0  0  0  0
  9  8  1  0  0  0  0
  9  4  2  0  0  0  0
 11  4  1  0  0  0  0
 12 11  3  0  0  0  0
 13 15  2  0  0  0  0
 14 13  1  0  0  0  0
 14 21  2  0  0  0  0
 15 12  1  0  0  0  0
 15 19  1  0  0  0  0
 16 18  2  0  0  0  0
 17 20  2  0  0  0  0
 18 20  1  0  0  0  0
 19 17  1  0  0  0  0
 21 16  1  0  0  0  0
 21 19  1  0  0  0  0
 22 23  1  0  0  0  0
 22  2  1  0  0  0  0
 24 23  2  0  0  0  0
 25 24  1  0  0  0  0
 26 25  2  0  0  0  0
 26 27  1  0  0  0  0
 27 22  2  0  0  0  0
 28 29  1  0  0  0  0
 28 26  1  0  0  0  0
 30 28  1  0  0  0  0
 31 28  1  0  0  0  0
 32 33  1  0  0  0  0
 32 25  1  0  0  0  0
 33 35  1  0  0  0  0
 34 39  1  0  0  0  0
 34 36  1  0  0  0  0
 35 36  1  0  0  0  0
 37 34  1  0  0  0  0
 38 37  1  0  0  0  0
 38 33  1  0  0  0  0
M  END
>  <MODEL>
2

>  <REMARK>
 VINA RESULT:      -9.1      1.099      1.868
  Name = 8u8a
  8 active torsions:
  status: ('A' for Active; 'I' for Inactive)
    1  A    between atoms: C_4  and  C_6
    2  A    between atoms: N_5  and  C_18
    3  A    between atoms: C_6  and  C_8
    4  A    between atoms: N_7  and  C_25
    5  A    between atoms: C_8  and  C_10
    6  A    between atoms: C_14  and  C_17
    7  A    between atoms: C_21  and  C_25
    8  A    between atoms: C_22  and  C_24
                            x       y       z     vdW  Elec       q    Type
                         _______ _______ _______ _____ _____    ______ ____

>  <TORSDO>
F 8

$$$$
8u8a
 OpenBabel11062411593D

 39 43  0  0  0  0  0  0  0  0999 V2000
  184.2880  178.7010  144.0340 O   0  0  0  0  0  0  0  0  0  0  0  0
  185.1300  178.3220  141.9640 N   0  0  0  0  0  2  0  0  0  0  0  0
  185.2180  178.3620  143.3020 C   0  0  0  0  0  0  0  0  0  0  0  0
  188.8950  177.5390  143.4890 C   0  0  0  0  0  0  0  0  0  0  0  0
  189.1290  177.3110  144.9060 C   0  0  0  0  0  0  0  0  0  0  0  0
  188.0250  177.4300  145.8100 C   0  0  0  0  0  3  0  0  0  0  0  0
  186.7280  177.7770  145.3320 C   0  0  0  0  0  3  0  0  0  0  0  0
  186.5250  178.0090  143.9240 C   0  0  0  0  0  0  0  0  0  0  0  0
  187.6090  177.8770  143.0320 C   0  0  0  0  0  3  0  0  0  0  0  0
  190.5040  176.9350  145.4480 C   0  0  0  0  0  1  0  0  0  0  0  0
  189.9460  177.4590  142.4910 C   0  0  0  0  0  0  0  0  0  0  0  0
  190.7320  177.3790  141.5700 C   0  0  0  0  0  0  0  0  0  0  0  0
  192.9540  177.5080  140.6100 C   0  0  0  0  0  3  0  0  0  0  0  0
  193.5740  177.1980  139.4250 N   0  0  0  0  0  0  0  0  0  0  0  0
  191.6570  177.1670  140.5510 C   0  0  0  0  0  0  0  0  0  0  0  0
  192.6320  176.1760  137.3340 C   0  0  0  0  0  3  0  0  0  0  0  0
  190.2040  176.2080  138.8680 N   0  0  0  0  0  0  0  0  0  0  0  0
  191.4490  175.7030  136.8180 C   0  0  0  0  0  3  0  0  0  0  0  0
  191.4050  176.6630  139.3240 N   0  0  0  0  0  0  0  0  0  0  0  0
  190.2850  175.7450  137.6250 C   0  0  0  0  0  3  0  0  0  0  0  0
  192.6420  176.6860  138.6600 C   0  0  0  0  0  0  0  0  0  0  0  0
  183.9830  178.6290  141.1910 C   0  0  0  0  0  0  0  0  0  0  0  0
  184.1470  178.9340  139.8210 C   0  0  0  0  0  3  0  0  0  0  0  0
  183.0090  179.2420  139.0110 C   0  0  0  0  0  3  0  0  0  0  0  0
  181.6710  179.2500  139.5570 C   0  0  0  0  0  0  0  0  0  0  0  0
  181.5070  178.9400  140.9740 C   0  0  0  0  0  0  0  0  0  0  0  0
  182.6610  178.6410  141.7430 C   0  0  0  0  0  3  0  0  0  0  0  0
  180.1720  178.8940  141.7240 C   0  0  0  0  0  0  0  0  0  0  0  0
  179.3270  178.1180  141.0930 F   0  0  0  0  0  0  0  0  0  0  0  0
  180.2980  178.4170  142.9510 F   0  0  0  0  0  0  0  0  0  0  0  0
  179.6620  180.1170  141.8280 F   0  0  0  0  0  0  0  0  0  0  0  0
  180.5080  179.5930  138.6020 C   0  0  0  0  0  2  0  0  0  0  0  0
  180.7840  180.7280  137.7190 N   0  0  0  0  0  0  0  0  0  0  0  0
  180.2970  183.2020  136.2400 N   0  0  0  0  0  0  0  0  0  0  0  0
  179.8230  180.8100  136.5880 C   0  0  0  0  0  2  0  0  0  0  0  0
  180.2800  181.8860  135.5830 C   0  0  0  0  0  2  0  0  0  0  0  0
  181.1530  183.1850  137.4630 C   0  0  0  0  0  2  0  0  0  0  0  0
  180.7730  182.0200  138.4260 C   0  0  0  0  0  2  0  0  0  0  0  0
  180.6760  184.2460  135.3030 C   0  0  0  0  0  1  0  0  0  0  0  0
  2  3  1  0  0  0  0
  3  8  1  0  0  0  0
  3  1  2  0  0  0  0
  4  5  1  0  0  0  0
  5 10  1  0  0  0  0
  5  6  2  0  0  0  0
  7  6  1  0  0  0  0
  8  7  2  0  0  0  0
  9  4  2  0  0  0  0
  9  8  1  0  0  0  0
 11  4  1  0  0  0  0
 12 11  3  0  0  0  0
 14 13  1  0  0  0  0
 15 13  2  0  0  0  0
 15 12  1  0  0  0  0
 16 21  1  0  0  0  0
 17 19  1  0  0  0  0
 18 16  2  0  0  0  0
 18 20  1  0  0  0  0
 19 15  1  0  0  0  0
 20 17  2  0  0  0  0
 21 19  1  0  0  0  0
 21 14  2  0  0  0  0
 22 27  1  0  0  0  0
 22  2  1  0  0  0  0
 23 22  2  0  0  0  0
 24 25  2  0  0  0  0
 24 23  1  0  0  0  0
 25 26  1  0  0  0  0
 26 28  1  0  0  0  0
 26 27  2  0  0  0  0
 28 31  1  0  0  0  0
 28 30  1  0  0  0  0
 29 28  1  0  0  0  0
 32 25  1  0  0  0  0
 33 38  1  0  0  0  0
 33 32  1  0  0  0  0
 34 37  1  0  0  0  0
 35 33  1  0  0  0  0
 36 34  1  0  0  0  0
 36 35  1  0  0  0  0
 37 38  1  0  0  0  0
 39 34  1  0  0  0  0
M  END
>  <MODEL>
3

>  <REMARK>
 VINA RESULT:      -8.2      4.204     10.855
  Name = 8u8a
  8 active torsions:
  status: ('A' for Active; 'I' for Inactive)
    1  A    between atoms: C_4  and  C_6
    2  A    between atoms: N_5  and  C_18
    3  A    between atoms: C_6  and  C_8
    4  A    between atoms: N_7  and  C_25
    5  A    between atoms: C_8  and  C_10
    6  A    between atoms: C_14  and  C_17
    7  A    between atoms: C_21  and  C_25
    8  A    between atoms: C_22  and  C_24
                            x       y       z     vdW  Elec       q    Type
                         _______ _______ _______ _____ _____    ______ ____

>  <TORSDO>
F 8

$$$$
8u8a
 OpenBabel11062411593D

 39 43  0  0  0  0  0  0  0  0999 V2000
  182.3710  179.2840  140.4850 O   0  0  0  0  0  0  0  0  0  0  0  0
  183.1160  177.1440  140.4100 N   0  0  0  0  0  2  0  0  0  0  0  0
  182.9350  178.3270  141.0170 C   0  0  0  0  0  0  0  0  0  0  0  0
  185.4740  178.2690  143.8060 C   0  0  0  0  0  0  0  0  0  0  0  0
  184.7250  178.7180  144.9680 C   0  0  0  0  0  0  0  0  0  0  0  0
  183.3380  179.0370  144.8070 C   0  0  0  0  0  3  0  0  0  0  0  0
  182.7100  178.9290  143.5320 C   0  0  0  0  0  3  0  0  0  0  0  0
  183.4780  178.4930  142.3940 C   0  0  0  0  0  0  0  0  0  0  0  0
  184.8400  178.1640  142.5560 C   0  0  0  0  0  3  0  0  0  0  0  0
  185.3660  178.8390  146.3460 C   0  0  0  0  0  1  0  0  0  0  0  0
  186.8860  177.9350  143.8550 C   0  0  0  0  0  0  0  0  0  0  0  0
  188.0320  177.5510  143.9600 C   0  0  0  0  0  0  0  0  0  0  0  0
  190.1170  176.5410  143.2450 C   0  0  0  0  0  3  0  0  0  0  0  0
  191.2850  176.1000  143.8140 N   0  0  0  0  0  0  0  0  0  0  0  0
  189.3110  177.0510  144.1900 C   0  0  0  0  0  0  0  0  0  0  0  0
  192.0140  176.1170  146.2170 C   0  0  0  0  0  3  0  0  0  0  0  0
  189.4290  177.3130  146.5940 N   0  0  0  0  0  0  0  0  0  0  0  0
  191.5700  176.4920  147.4620 C   0  0  0  0  0  3  0  0  0  0  0  0
  189.9240  176.9210  145.3870 N   0  0  0  0  0  0  0  0  0  0  0  0
  190.2850  177.0780  147.5840 C   0  0  0  0  0  3  0  0  0  0  0  0
  191.1670  176.3370  145.0970 C   0  0  0  0  0  0  0  0  0  0  0  0
  182.6820  176.7970  139.1060 C   0  0  0  0  0  0  0  0  0  0  0  0
  181.3920  176.2440  138.9440 C   0  0  0  0  0  3  0  0  0  0  0  0
  180.9200  175.8880  137.6400 C   0  0  0  0  0  3  0  0  0  0  0  0
  181.7340  176.0820  136.4620 C   0  0  0  0  0  0  0  0  0  0  0  0
  183.0690  176.6490  136.6360 C   0  0  0  0  0  0  0  0  0  0  0  0
  183.4980  176.9860  137.9450 C   0  0  0  0  0  3  0  0  0  0  0  0
  184.0670  176.9310  135.5090 C   0  0  0  0  0  0  0  0  0  0  0  0
  185.1560  177.4710  135.9950 F   0  0  0  0  0  0  0  0  0  0  0  0
  184.4290  175.8320  134.8690 F   0  0  0  0  0  0  0  0  0  0  0  0
  183.5250  177.7490  134.6120 F   0  0  0  0  0  0  0  0  0  0  0  0
  181.1360  175.6680  135.1010 C   0  0  0  0  0  2  0  0  0  0  0  0
  181.0800  174.2190  134.8950 N   0  0  0  0  0  0  0  0  0  0  0  0
  181.0030  171.3780  135.5790 N   0  0  0  0  0  0  0  0  0  0  0  0
  182.2270  173.5150  135.5250 C   0  0  0  0  0  2  0  0  0  0  0  0
  182.2330  172.0320  135.1050 C   0  0  0  0  0  2  0  0  0  0  0  0
  179.7870  172.0910  135.0870 C   0  0  0  0  0  2  0  0  0  0  0  0
  179.8360  173.6170  135.4030 C   0  0  0  0  0  2  0  0  0  0  0  0
  181.0020  169.9650  135.2410 C   0  0  0  0  0  1  0  0  0  0  0  0
  1  3  2  0  0  0  0
  2  3  1  0  0  0  0
  3  8  1  0  0  0  0
  4 11  1  0  0  0  0
  4  5  1  0  0  0  0
  5 10  1  0  0  0  0
  6  5  2  0  0  0  0
  7  6  1  0  0  0  0
  8  9  1  0  0  0  0
  8  7  2  0  0  0  0
  9  4  2  0  0  0  0
 11 12  3  0  0  0  0
 12 15  1  0  0  0  0
 13 14  1  0  0  0  0
 13 15  2  0  0  0  0
 14 21  2  0  0  0  0
 15 19  1  0  0  0  0
 16 18  2  0  0  0  0
 17 20  2  0  0  0  0
 18 20  1  0  0  0  0
 19 17  1  0  0  0  0
 21 19  1  0  0  0  0
 21 16  1  0  0  0  0
 22  2  1  0  0  0  0
 23 22  1  0  0  0  0
 24 23  2  0  0  0  0
 25 26  2  0  0  0  0
 25 24  1  0  0  0  0
 26 27  1  0  0  0  0
 27 22  2  0  0  0  0
 28 29  1  0  0  0  0
 28 26  1  0  0  0  0
 30 28  1  0  0  0  0
 31 28  1  0  0  0  0
 32 25  1  0  0  0  0
 33 32  1  0  0  0  0
 33 38  1  0  0  0  0
 33 35  1  0  0  0  0
 36 35  1  0  0  0  0
 36 34  1  0  0  0  0
 37 38  1  0  0  0  0
 37 34  1  0  0  0  0
 39 34  1  0  0  0  0
M  END
>  <MODEL>
4

>  <REMARK>
 VINA RESULT:      -8.1      4.969      9.760
  Name = 8u8a
  8 active torsions:
  status: ('A' for Active; 'I' for Inactive)
    1  A    between atoms: C_4  and  C_6
    2  A    between atoms: N_5  and  C_18
    3  A    between atoms: C_6  and  C_8
    4  A    between atoms: N_7  and  C_25
    5  A    between atoms: C_8  and  C_10
    6  A    between atoms: C_14  and  C_17
    7  A    between atoms: C_21  and  C_25
    8  A    between atoms: C_22  and  C_24
                            x       y       z     vdW  Elec       q    Type
                         _______ _______ _______ _____ _____    ______ ____

>  <TORSDO>
F 8

$$$$
8u8a
 OpenBabel11062411593D

 39 43  0  0  0  0  0  0  0  0999 V2000
  187.1720  179.1170  137.1370 O   0  0  0  0  0  0  0  0  0  0  0  0
  187.4710  177.0350  137.9790 N   0  0  0  0  0  2  0  0  0  0  0  0
  186.8020  178.1910  137.8570 C   0  0  0  0  0  0  0  0  0  0  0  0
  184.6480  178.4400  140.9450 C   0  0  0  0  0  0  0  0  0  0  0  0
  183.3090  178.6550  140.4190 C   0  0  0  0  0  0  0  0  0  0  0  0
  183.1320  178.7080  138.9990 C   0  0  0  0  0  3  0  0  0  0  0  0
  184.2460  178.5660  138.1220 C   0  0  0  0  0  3  0  0  0  0  0  0
  185.5640  178.3660  138.6680 C   0  0  0  0  0  0  0  0  0  0  0  0
  185.7360  178.2980  140.0660 C   0  0  0  0  0  3  0  0  0  0  0  0
  182.0970  178.8060  141.3320 C   0  0  0  0  0  1  0  0  0  0  0  0
  184.9400  178.3850  142.3660 C   0  0  0  0  0  0  0  0  0  0  0  0
  185.2370  178.4540  143.5400 C   0  0  0  0  0  0  0  0  0  0  0  0
  184.6020  178.8160  145.8510 C   0  0  0  0  0  3  0  0  0  0  0  0
  185.1780  178.7300  147.0940 N   0  0  0  0  0  0  0  0  0  0  0  0
  185.4850  178.4470  144.9100 C   0  0  0  0  0  0  0  0  0  0  0  0
  187.5030  178.0450  147.7470 C   0  0  0  0  0  3  0  0  0  0  0  0
  187.8000  177.7380  144.9060 N   0  0  0  0  0  0  0  0  0  0  0  0
  188.6870  177.6260  147.1890 C   0  0  0  0  0  3  0  0  0  0  0  0
  186.6540  178.1490  145.5180 N   0  0  0  0  0  0  0  0  0  0  0  0
  188.7710  177.4930  145.7800 C   0  0  0  0  0  3  0  0  0  0  0  0
  186.4060  178.3240  146.8880 C   0  0  0  0  0  0  0  0  0  0  0  0
  188.6660  176.6850  137.3020 C   0  0  0  0  0  0  0  0  0  0  0  0
  188.5930  176.3220  135.9380 C   0  0  0  0  0  3  0  0  0  0  0  0
  189.7810  175.9680  135.2230 C   0  0  0  0  0  3  0  0  0  0  0  0
  191.0780  175.9730  135.8610 C   0  0  0  0  0  0  0  0  0  0  0  0
  191.1470  176.3440  137.2710 C   0  0  0  0  0  0  0  0  0  0  0  0
  189.9460  176.6850  137.9440 C   0  0  0  0  0  3  0  0  0  0  0  0
  192.4280  176.4110  138.1090 C   0  0  0  0  0  0  0  0  0  0  0  0
  192.1780  176.9600  139.2720 F   0  0  0  0  0  0  0  0  0  0  0  0
  192.9400  175.2150  138.3460 F   0  0  0  0  0  0  0  0  0  0  0  0
  193.3550  177.1180  137.4730 F   0  0  0  0  0  0  0  0  0  0  0  0
  192.3000  175.5790  135.0040 C   0  0  0  0  0  2  0  0  0  0  0  0
  192.9290  174.3210  135.4150 N   0  0  0  0  0  0  0  0  0  0  0  0
  194.4730  171.8500  135.1800 N   0  0  0  0  0  0  0  0  0  0  0  0
  192.4760  173.1690  134.5940 C   0  0  0  0  0  2  0  0  0  0  0  0
  193.0010  171.8510  135.1960 C   0  0  0  0  0  2  0  0  0  0  0  0
  195.0210  173.0430  135.8900 C   0  0  0  0  0  2  0  0  0  0  0  0
  194.4000  174.3730  135.3650 C   0  0  0  0  0  2  0  0  0  0  0  0
  194.9970  170.5970  135.6960 C   0  0  0  0  0  1  0  0  0  0  0  0
  1  3  2  0  0  0  0
  3  2  1  0  0  0  0
  3  8  1  0  0  0  0
  4 11  1  0  0  0  0
  5  4  1  0  0  0  0
  5 10  1  0  0  0  0
  6  5  2  0  0  0  0
  7  8  2  0  0  0  0
  7  6  1  0  0  0  0
  8  9  1  0  0  0  0
  9  4  2  0  0  0  0
 11 12  3  0  0  0  0
 12 15  1  0  0  0  0
 13 14  1  0  0  0  0
 15 19  1  0  0  0  0
 15 13  2  0  0  0  0
 17 19  1  0  0  0  0
 17 20  2  0  0  0  0
 18 16  2  0  0  0  0
 19 21  1  0  0  0  0
 20 18  1  0  0  0  0
 21 14  2  0  0  0  0
 21 16  1  0  0  0  0
 22 27  1  0  0  0  0
 22  2  1  0  0  0  0
 23 22  2  0  0  0  0
 24 25  2  0  0  0  0
 24 23  1  0  0  0  0
 25 26  1  0  0  0  0
 26 27  2  0  0  0  0
 26 28  1  0  0  0  0
 28 30  1  0  0  0  0
 28 29  1  0  0  0  0
 31 28  1  0  0  0  0
 32 33  1  0  0  0  0
 32 25  1  0  0  0  0
 34 36  1  0  0  0  0
 34 39  1  0  0  0  0
 34 37  1  0  0  0  0
 35 36  1  0  0  0  0
 35 33  1  0  0  0  0
 38 33  1  0  0  0  0
 38 37  1  0  0  0  0
M  END
>  <MODEL>
5

>  <REMARK>
 VINA RESULT:      -7.9      2.833      5.352
  Name = 8u8a
  8 active torsions:
  status: ('A' for Active; 'I' for Inactive)
    1  A    between atoms: C_4  and  C_6
    2  A    between atoms: N_5  and  C_18
    3  A    between atoms: C_6  and  C_8
    4  A    between atoms: N_7  and  C_25
    5  A    between atoms: C_8  and  C_10
    6  A    between atoms: C_14  and  C_17
    7  A    between atoms: C_21  and  C_25
    8  A    between atoms: C_22  and  C_24
                            x       y       z     vdW  Elec       q    Type
                         _______ _______ _______ _____ _____    ______ ____

>  <TORSDO>
F 8

$$$$
8u8a
 OpenBabel11062411593D

 39 43  0  0  0  0  0  0  0  0999 V2000
  186.5740  178.2630  136.8680 O   0  0  0  0  0  0  0  0  0  0  0  0
  185.7750  178.3610  138.9870 N   0  0  0  0  0  2  0  0  0  0  0  0
  186.7560  178.2110  138.0850 C   0  0  0  0  0  0  0  0  0  0  0  0
  189.5080  177.6380  140.6010 C   0  0  0  0  0  0  0  0  0  0  0  0
  190.6910  177.4290  139.7810 C   0  0  0  0  0  0  0  0  0  0  0  0
  190.5570  177.4910  138.3570 C   0  0  0  0  0  3  0  0  0  0  0  0
  189.2880  177.7390  137.7570 C   0  0  0  0  0  3  0  0  0  0  0  0
  188.1290  177.9310  138.5910 C   0  0  0  0  0  0  0  0  0  0  0  0
  188.2650  177.8850  139.9940 C   0  0  0  0  0  3  0  0  0  0  0  0
  192.0630  177.1660  140.3940 C   0  0  0  0  0  1  0  0  0  0  0  0
  189.5310  177.5820  142.0510 C   0  0  0  0  0  0  0  0  0  0  0  0
  189.6650  177.4810  143.2530 C   0  0  0  0  0  0  0  0  0  0  0  0
  191.1280  177.1320  145.1540 C   0  0  0  0  0  3  0  0  0  0  0  0
  191.0380  177.1200  146.5230 N   0  0  0  0  0  0  0  0  0  0  0  0
  189.9330  177.4250  144.6180 C   0  0  0  0  0  0  0  0  0  0  0  0
  189.0560  177.5270  148.0100 C   0  0  0  0  0  3  0  0  0  0  0  0
  187.7190  177.8740  145.4910 N   0  0  0  0  0  0  0  0  0  0  0  0
  187.7160  177.8280  147.9410 C   0  0  0  0  0  3  0  0  0  0  0  0
  189.0430  177.5760  145.6220 N   0  0  0  0  0  0  0  0  0  0  0  0
  187.1140  177.9870  146.6680 C   0  0  0  0  0  3  0  0  0  0  0  0
  189.7860  177.3940  146.7980 C   0  0  0  0  0  0  0  0  0  0  0  0
  184.4110  178.6220  138.7040 C   0  0  0  0  0  0  0  0  0  0  0  0
  183.8130  179.7810  139.2490 C   0  0  0  0  0  3  0  0  0  0  0  0
  182.4400  180.0780  138.9780 C   0  0  0  0  0  3  0  0  0  0  0  0
  181.6290  179.2160  138.1480 C   0  0  0  0  0  0  0  0  0  0  0  0
  182.2500  178.0170  137.5920 C   0  0  0  0  0  0  0  0  0  0  0  0
  183.6130  177.7590  137.8860 C   0  0  0  0  0  3  0  0  0  0  0  0
  181.5530  176.9950  136.6890 C   0  0  0  0  0  0  0  0  0  0  0  0
  180.5020  176.5010  137.2940 F   0  0  0  0  0  0  0  0  0  0  0  0
  181.1350  177.5260  135.5530 F   0  0  0  0  0  0  0  0  0  0  0  0
  182.3910  176.0110  136.3790 F   0  0  0  0  0  0  0  0  0  0  0  0
  180.1590  179.6230  137.9120 C   0  0  0  0  0  2  0  0  0  0  0  0
  180.0030  180.8280  137.0940 N   0  0  0  0  0  0  0  0  0  0  0  0
  180.7440  183.3170  135.7540 N   0  0  0  0  0  0  0  0  0  0  0  0
  180.3540  182.0650  137.8390 C   0  0  0  0  0  2  0  0  0  0  0  0
  179.9760  183.3070  137.0090 C   0  0  0  0  0  2  0  0  0  0  0  0
  180.5420  182.0530  134.9860 C   0  0  0  0  0  2  0  0  0  0  0  0
  180.8050  180.7900  135.8600 C   0  0  0  0  0  2  0  0  0  0  0  0
  180.4450  184.5050  134.9710 C   0  0  0  0  0  1  0  0  0  0  0  0
  1  3  2  0  0  0  0
  3  8  1  0  0  0  0
  3  2  1  0  0  0  0
  4 11  1  0  0  0  0
  5 10  1  0  0  0  0
  5  4  2  0  0  0  0
  6  5  1  0  0  0  0
  7  6  2  0  0  0  0
  7  8  1  0  0  0  0
  8  9  2  0  0  0  0
  9  4  1  0  0  0  0
 11 12  3  0  0  0  0
 12 15  1  0  0  0  0
 13 14  1  0  0  0  0
 14 21  2  0  0  0  0
 15 13  2  0  0  0  0
 15 19  1  0  0  0  0
 17 19  1  0  0  0  0
 17 20  2  0  0  0  0
 18 16  2  0  0  0  0
 19 21  1  0  0  0  0
 20 18  1  0  0  0  0
 21 16  1  0  0  0  0
 22  2  1  0  0  0  0
 22 23  1  0  0  0  0
 24 23  2  0  0  0  0
 25 24  1  0  0  0  0
 26 27  1  0  0  0  0
 26 25  2  0  0  0  0
 27 22  2  0  0  0  0
 28 29  1  0  0  0  0
 28 26  1  0  0  0  0
 30 28  1  0  0  0  0
 31 28  1  0  0  0  0
 32 25  1  0  0  0  0
 33 35  1  0  0  0  0
 33 32  1  0  0  0  0
 34 36  1  0  0  0  0
 36 35  1  0  0  0  0
 37 34  1  0  0  0  0
 37 38  1  0  0  0  0
 38 33  1  0  0  0  0
 39 34  1  0  0  0  0
M  END
>  <MODEL>
6

>  <REMARK>
 VINA RESULT:      -7.7      4.682     10.636
  Name = 8u8a
  8 active torsions:
  status: ('A' for Active; 'I' for Inactive)
    1  A    between atoms: C_4  and  C_6
    2  A    between atoms: N_5  and  C_18
    3  A    between atoms: C_6  and  C_8
    4  A    between atoms: N_7  and  C_25
    5  A    between atoms: C_8  and  C_10
    6  A    between atoms: C_14  and  C_17
    7  A    between atoms: C_21  and  C_25
    8  A    between atoms: C_22  and  C_24
                            x       y       z     vdW  Elec       q    Type
                         _______ _______ _______ _____ _____    ______ ____

>  <TORSDO>
F 8

$$$$
8u8a
 OpenBabel11062411593D

 39 43  0  0  0  0  0  0  0  0999 V2000
  185.4080  179.2510  138.8630 O   0  0  0  0  0  0  0  0  0  0  0  0
  186.8140  177.7270  139.7790 N   0  0  0  0  0  2  0  0  0  0  0  0
  185.7640  178.5610  139.8190 C   0  0  0  0  0  0  0  0  0  0  0  0
  185.1850  178.5100  143.5460 C   0  0  0  0  0  0  0  0  0  0  0  0
  183.7730  178.8290  143.6840 C   0  0  0  0  0  0  0  0  0  0  0  0
  183.0040  179.0570  142.4970 C   0  0  0  0  0  3  0  0  0  0  0  0
  183.6140  178.9850  141.2110 C   0  0  0  0  0  3  0  0  0  0  0  0
  185.0180  178.6790  141.1030 C   0  0  0  0  0  0  0  0  0  0  0  0
  185.7710  178.4390  142.2710 C   0  0  0  0  0  3  0  0  0  0  0  0
  183.0910  178.9100  145.0450 C   0  0  0  0  0  1  0  0  0  0  0  0
  186.0580  178.2760  144.6830 C   0  0  0  0  0  0  0  0  0  0  0  0
  186.8840  178.0800  145.5500 C   0  0  0  0  0  0  0  0  0  0  0  0
  187.7610  177.8810  147.8010 C   0  0  0  0  0  3  0  0  0  0  0  0
  188.9370  177.5220  148.4100 N   0  0  0  0  0  0  0  0  0  0  0  0
  187.8790  177.7600  146.4690 C   0  0  0  0  0  0  0  0  0  0  0  0
  191.1040  176.7530  147.4010 C   0  0  0  0  0  3  0  0  0  0  0  0
  189.6530  177.1200  144.9500 N   0  0  0  0  0  0  0  0  0  0  0  0
  191.6800  176.5000  146.1790 C   0  0  0  0  0  3  0  0  0  0  0  0
  189.1360  177.3540  146.1890 N   0  0  0  0  0  0  0  0  0  0  0  0
  190.9120  176.7000  145.0050 C   0  0  0  0  0  3  0  0  0  0  0  0
  189.7560  177.2010  147.4390 C   0  0  0  0  0  0  0  0  0  0  0  0
  187.6490  177.4860  138.6590 C   0  0  0  0  0  0  0  0  0  0  0  0
  188.8850  178.1660  138.5740 C   0  0  0  0  0  3  0  0  0  0  0  0
  189.7550  177.9400  137.4600 C   0  0  0  0  0  3  0  0  0  0  0  0
  189.4050  177.0210  136.4000 C   0  0  0  0  0  0  0  0  0  0  0  0
  188.1240  176.3260  136.4910 C   0  0  0  0  0  0  0  0  0  0  0  0
  187.2910  176.5790  137.6100 C   0  0  0  0  0  3  0  0  0  0  0  0
  187.5890  175.3160  135.4710 C   0  0  0  0  0  0  0  0  0  0  0  0
  187.1820  174.2310  136.0810 F   0  0  0  0  0  0  0  0  0  0  0  0
  186.5610  175.7870  134.7860 F   0  0  0  0  0  0  0  0  0  0  0  0
  188.5380  175.0050  134.5940 F   0  0  0  0  0  0  0  0  0  0  0  0
  190.4100  176.8450  135.2430 C   0  0  0  0  0  2  0  0  0  0  0  0
  191.5560  175.9970  135.5790 N   0  0  0  0  0  0  0  0  0  0  0  0
  193.7080  174.0560  135.1930 N   0  0  0  0  0  0  0  0  0  0  0  0
  191.2990  174.5620  135.2950 C   0  0  0  0  0  2  0  0  0  0  0  0
  192.4440  173.6970  135.8570 C   0  0  0  0  0  2  0  0  0  0  0  0
  193.9940  175.5150  135.3290 C   0  0  0  0  0  2  0  0  0  0  0  0
  192.7880  176.3920  134.8750 C   0  0  0  0  0  2  0  0  0  0  0  0
  194.7990  173.2220  135.6670 C   0  0  0  0  0  1  0  0  0  0  0  0
  1  3  2  0  0  0  0
  2  3  1  0  0  0  0
  3  8  1  0  0  0  0
  4  5  1  0  0  0  0
  4 11  1  0  0  0  0
  5 10  1  0  0  0  0
  6  5  2  0  0  0  0
  7  6  1  0  0  0  0
  8  7  2  0  0  0  0
  8  9  1  0  0  0  0
  9  4  2  0  0  0  0
 11 12  3  0  0  0  0
 12 15  1  0  0  0  0
 13 14  1  0  0  0  0
 15 13  2  0  0  0  0
 16 21  1  0  0  0  0
 17 20  2  0  0  0  0
 17 19  1  0  0  0  0
 18 16  2  0  0  0  0
 19 15  1  0  0  0  0
 19 21  1  0  0  0  0
 20 18  1  0  0  0  0
 21 14  2  0  0  0  0
 22  2  1  0  0  0  0
 23 22  1  0  0  0  0
 24 23  2  0  0  0  0
 25 26  2  0  0  0  0
 25 24  1  0  0  0  0
 26 27  1  0  0  0  0
 27 22  2  0  0  0  0
 28 29  1  0  0  0  0
 28 26  1  0  0  0  0
 30 28  1  0  0  0  0
 31 28  1  0  0  0  0
 32 33  1  0  0  0  0
 32 25  1  0  0  0  0
 34 37  1  0  0  0  0
 34 39  1  0  0  0  0
 34 36  1  0  0  0  0
 35 33  1  0  0  0  0
 35 36  1  0  0  0  0
 38 37  1  0  0  0  0
 38 33  1  0  0  0  0
M  END
>  <MODEL>
7

>  <REMARK>
 VINA RESULT:      -7.6      2.882      5.729
  Name = 8u8a
  8 active torsions:
  status: ('A' for Active; 'I' for Inactive)
    1  A    between atoms: C_4  and  C_6
    2  A    between atoms: N_5  and  C_18
    3  A    between atoms: C_6  and  C_8
    4  A    between atoms: N_7  and  C_25
    5  A    between atoms: C_8  and  C_10
    6  A    between atoms: C_14  and  C_17
    7  A    between atoms: C_21  and  C_25
    8  A    between atoms: C_22  and  C_24
                            x       y       z     vdW  Elec       q    Type
                         _______ _______ _______ _____ _____    ______ ____

>  <TORSDO>
F 8

$$$$
8u8a
 OpenBabel11062411593D

 39 43  0  0  0  0  0  0  0  0999 V2000
  188.2790  178.7470  138.4230 O   0  0  0  0  0  0  0  0  0  0  0  0
  189.1880  177.1590  139.7600 N   0  0  0  0  0  2  0  0  0  0  0  0
  188.2420  178.0560  139.4410 C   0  0  0  0  0  0  0  0  0  0  0  0
  186.4410  178.1850  142.7530 C   0  0  0  0  0  0  0  0  0  0  0  0
  185.0750  178.5290  142.3940 C   0  0  0  0  0  0  0  0  0  0  0  0
  184.7570  178.7130  141.0090 C   0  0  0  0  0  3  0  0  0  0  0  0
  185.7620  178.5730  140.0080 C   0  0  0  0  0  3  0  0  0  0  0  0
  187.1110  178.2420  140.3920 C   0  0  0  0  0  0  0  0  0  0  0  0
  187.4200  178.0470  141.7540 C   0  0  0  0  0  3  0  0  0  0  0  0
  183.9770  178.6820  143.4410 C   0  0  0  0  0  1  0  0  0  0  0  0
  186.8730  177.9920  144.1260 C   0  0  0  0  0  0  0  0  0  0  0  0
  187.3500  177.8680  145.2350 C   0  0  0  0  0  0  0  0  0  0  0  0
  187.4500  178.0930  147.6470 C   0  0  0  0  0  3  0  0  0  0  0  0
  188.3760  177.9450  148.6480 N   0  0  0  0  0  0  0  0  0  0  0  0
  188.0030  177.7870  146.4620 C   0  0  0  0  0  0  0  0  0  0  0  0
  190.7860  177.2490  148.5230 C   0  0  0  0  0  3  0  0  0  0  0  0
  190.2020  177.1050  145.7140 N   0  0  0  0  0  0  0  0  0  0  0  0
  191.7410  176.8740  147.6080 C   0  0  0  0  0  3  0  0  0  0  0  0
  189.2990  177.4680  146.6680 N   0  0  0  0  0  0  0  0  0  0  0  0
  191.3910  176.8220  146.2360 C   0  0  0  0  0  3  0  0  0  0  0  0
  189.4810  177.5640  148.0560 C   0  0  0  0  0  0  0  0  0  0  0  0
  190.3380  176.8470  138.9940 C   0  0  0  0  0  0  0  0  0  0  0  0
  191.6120  177.1490  139.5260 C   0  0  0  0  0  3  0  0  0  0  0  0
  192.7940  176.8410  138.7800 C   0  0  0  0  0  3  0  0  0  0  0  0
  192.7270  176.2170  137.4780 C   0  0  0  0  0  0  0  0  0  0  0  0
  191.4080  175.9120  136.9310 C   0  0  0  0  0  0  0  0  0  0  0  0
  190.2620  176.2350  137.7010 C   0  0  0  0  0  3  0  0  0  0  0  0
  191.1410  175.2500  135.5760 C   0  0  0  0  0  0  0  0  0  0  0  0
  191.6590  174.0470  135.5520 F   0  0  0  0  0  0  0  0  0  0  0  0
  189.8490  175.1230  135.3220 F   0  0  0  0  0  0  0  0  0  0  0  0
  191.6650  175.9800  134.5980 F   0  0  0  0  0  0  0  0  0  0  0  0
  194.0580  175.9220  136.7540 C   0  0  0  0  0  2  0  0  0  0  0  0
  194.7240  174.7020  137.2150 N   0  0  0  0  0  0  0  0  0  0  0  0
  196.1570  172.1600  137.0500 N   0  0  0  0  0  0  0  0  0  0  0  0
  194.1150  173.4750  136.6390 C   0  0  0  0  0  2  0  0  0  0  0  0
  194.7100  172.2230  137.3120 C   0  0  0  0  0  2  0  0  0  0  0  0
  196.8420  173.4090  137.4950 C   0  0  0  0  0  2  0  0  0  0  0  0
  196.1650  174.6860  136.9130 C   0  0  0  0  0  2  0  0  0  0  0  0
  196.7380  170.9610  137.6310 C   0  0  0  0  0  1  0  0  0  0  0  0
  1  3  2  0  0  0  0
  3  2  1  0  0  0  0
  3  8  1  0  0  0  0
  4 11  1  0  0  0  0
  5  4  1  0  0  0  0
  5 10  1  0  0  0  0
  6  5  2  0  0  0  0
  7  8  2  0  0  0  0
  7  6  1  0  0  0  0
  8  9  1  0  0  0  0
  9  4  2  0  0  0  0
 11 12  3  0  0  0  0
 12 15  1  0  0  0  0
 13 14  1  0  0  0  0
 15 19  1  0  0  0  0
 15 13  2  0  0  0  0
 17 20  2  0  0  0  0
 17 19  1  0  0  0  0
 18 16  2  0  0  0  0
 19 21  1  0  0  0  0
 20 18  1  0  0  0  0
 21 16  1  0  0  0  0
 21 14  2  0  0  0  0
 22 23  1  0  0  0  0
 22  2  1  0  0  0  0
 24 23  2  0  0  0  0
 25 24  1  0  0  0  0
 26 25  2  0  0  0  0
 26 27  1  0  0  0  0
 27 22  2  0  0  0  0
 28 26  1  0  0  0  0
 29 28  1  0  0  0  0
 30 28  1  0  0  0  0
 31 28  1  0  0  0  0
 32 33  1  0  0  0  0
 32 25  1  0  0  0  0
 34 36  1  0  0  0  0
 34 37  1  0  0  0  0
 34 39  1  0  0  0  0
 35 33  1  0  0  0  0
 35 36  1  0  0  0  0
 38 33  1  0  0  0  0
 38 37  1  0  0  0  0
M  END
>  <MODEL>
8

>  <REMARK>
 VINA RESULT:      -7.4      2.689      5.271
  Name = 8u8a
  8 active torsions:
  status: ('A' for Active; 'I' for Inactive)
    1  A    between atoms: C_4  and  C_6
    2  A    between atoms: N_5  and  C_18
    3  A    between atoms: C_6  and  C_8
    4  A    between atoms: N_7  and  C_25
    5  A    between atoms: C_8  and  C_10
    6  A    between atoms: C_14  and  C_17
    7  A    between atoms: C_21  and  C_25
    8  A    between atoms: C_22  and  C_24
                            x       y       z     vdW  Elec       q    Type
                         _______ _______ _______ _____ _____    ______ ____

>  <TORSDO>
F 8

$$$$
8u8a
 OpenBabel11062411593D

 39 43  0  0  0  0  0  0  0  0999 V2000
  186.5160  177.1180  137.7410 O   0  0  0  0  0  0  0  0  0  0  0  0
  186.1550  178.4230  139.5580 N   0  0  0  0  0  2  0  0  0  0  0  0
  186.9370  177.7090  138.7360 C   0  0  0  0  0  0  0  0  0  0  0  0
  190.0130  177.3730  140.8950 C   0  0  0  0  0  0  0  0  0  0  0  0
  191.1110  177.4020  139.9430 C   0  0  0  0  0  0  0  0  0  0  0  0
  190.8070  177.5460  138.5510 C   0  0  0  0  0  3  0  0  0  0  0  0
  189.4560  177.6450  138.1080 C   0  0  0  0  0  3  0  0  0  0  0  0
  188.3850  177.6010  139.0710 C   0  0  0  0  0  0  0  0  0  0  0  0
  188.6860  177.4750  140.4430 C   0  0  0  0  0  3  0  0  0  0  0  0
  192.5670  177.3030  140.3850 C   0  0  0  0  0  1  0  0  0  0  0  0
  190.2090  177.2170  142.3250 C   0  0  0  0  0  0  0  0  0  0  0  0
  190.2500  177.1180  143.5330 C   0  0  0  0  0  0  0  0  0  0  0  0
  191.3370  176.8020  145.6770 C   0  0  0  0  0  3  0  0  0  0  0  0
  191.0120  176.8830  147.0080 N   0  0  0  0  0  0  0  0  0  0  0  0
  190.2750  177.1330  144.9260 C   0  0  0  0  0  0  0  0  0  0  0  0
  188.8380  177.5030  148.1010 C   0  0  0  0  0  3  0  0  0  0  0  0
  187.9820  177.7700  145.3710 N   0  0  0  0  0  0  0  0  0  0  0  0
  187.5540  177.8790  147.7820 C   0  0  0  0  0  3  0  0  0  0  0  0
  189.2390  177.4010  145.7490 N   0  0  0  0  0  0  0  0  0  0  0  0
  187.1930  177.9930  146.4170 C   0  0  0  0  0  3  0  0  0  0  0  0
  189.7550  177.2490  147.0450 C   0  0  0  0  0  0  0  0  0  0  0  0
  184.7620  178.6350  139.4140 C   0  0  0  0  0  0  0  0  0  0  0  0
  184.2290  178.7980  138.1150 C   0  0  0  0  0  3  0  0  0  0  0  0
  182.8250  179.0060  137.9340 C   0  0  0  0  0  3  0  0  0  0  0  0
  181.9160  179.0550  139.0560 C   0  0  0  0  0  0  0  0  0  0  0  0
  182.4720  178.8920  140.3970 C   0  0  0  0  0  0  0  0  0  0  0  0
  183.8690  178.6880  140.5330 C   0  0  0  0  0  3  0  0  0  0  0  0
  181.6660  178.9080  141.6990 C   0  0  0  0  0  0  0  0  0  0  0  0
  182.4730  178.8530  142.7290 F   0  0  0  0  0  0  0  0  0  0  0  0
  180.9410  180.0060  141.8310 F   0  0  0  0  0  0  0  0  0  0  0  0
  180.8290  177.8760  141.7330 F   0  0  0  0  0  0  0  0  0  0  0  0
  180.4190  179.2830  138.7580 C   0  0  0  0  0  2  0  0  0  0  0  0
  180.1430  180.5290  138.0400 N   0  0  0  0  0  0  0  0  0  0  0  0
  180.6830  182.9720  136.5280 N   0  0  0  0  0  0  0  0  0  0  0  0
  180.8660  181.6890  138.6230 C   0  0  0  0  0  2  0  0  0  0  0  0
  180.3830  182.9980  137.9680 C   0  0  0  0  0  2  0  0  0  0  0  0
  180.0880  181.7700  135.8730 C   0  0  0  0  0  2  0  0  0  0  0  0
  180.4760  180.4510  136.6080 C   0  0  0  0  0  2  0  0  0  0  0  0
  180.2830  184.2160  135.8920 C   0  0  0  0  0  1  0  0  0  0  0  0
  1  3  2  0  0  0  0
  3  8  1  0  0  0  0
  3  2  1  0  0  0  0
  4 11  1  0  0  0  0
  5 10  1  0  0  0  0
  5  4  2  0  0  0  0
  6  5  1  0  0  0  0
  7  6  2  0  0  0  0
  7  8  1  0  0  0  0
  8  9  2  0  0  0  0
  9  4  1  0  0  0  0
 11 12  3  0  0  0  0
 12 15  1  0  0  0  0
 13 14  1  0  0  0  0
 14 21  2  0  0  0  0
 15 13  2  0  0  0  0
 15 19  1  0  0  0  0
 17 19  1  0  0  0  0
 17 20  2  0  0  0  0
 18 16  2  0  0  0  0
 19 21  1  0  0  0  0
 20 18  1  0  0  0  0
 21 16  1  0  0  0  0
 22  2  1  0  0  0  0
 22 27  1  0  0  0  0
 23 22  2  0  0  0  0
 24 23  1  0  0  0  0
 24 25  2  0  0  0  0
 25 26  1  0  0  0  0
 26 27  2  0  0  0  0
 26 28  1  0  0  0  0
 28 31  1  0  0  0  0
 28 30  1  0  0  0  0
 28 29  1  0  0  0  0
 32 25  1  0  0  0  0
 33 35  1  0  0  0  0
 33 32  1  0  0  0  0
 34 36  1  0  0  0  0
 36 35  1  0  0  0  0
 37 34  1  0  0  0  0
 37 38  1  0  0  0  0
 38 33  1  0  0  0  0
 39 34  1  0  0  0  0
M  END
>  <MODEL>
9

>  <REMARK>
 VINA RESULT:      -7.4      4.805     10.691
  Name = 8u8a
  8 active torsions:
  status: ('A' for Active; 'I' for Inactive)
    1  A    between atoms: C_4  and  C_6
    2  A    between atoms: N_5  and  C_18
    3  A    between atoms: C_6  and  C_8
    4  A    between atoms: N_7  and  C_25
    5  A    between atoms: C_8  and  C_10
    6  A    between atoms: C_14  and  C_17
    7  A    between atoms: C_21  and  C_25
    8  A    between atoms: C_22  and  C_24
                            x       y       z     vdW  Elec       q    Type
                         _______ _______ _______ _____ _____    ______ ____

>  <TORSDO>
F 8

$$$$
