8tzc
 OpenBabel11062411593D

 28 32  0  0  1  0  0  0  0  0999 V2000
  183.5570  178.7560  143.6400 N   0  0  0  0  0  0  0  0  0  0  0  0
  184.1480  178.6540  141.4660 N   0  0  0  0  0  0  0  0  0  0  0  0
  185.3340  178.5250  141.7670 C   0  0  0  0  0  0  0  0  0  0  0  0
  185.7790  178.4940  142.9820 C   0  0  0  0  0  3  0  0  0  0  0  0
  184.8720  178.6160  143.9670 C   0  0  0  0  0  0  0  0  0  0  0  0
  183.2600  178.7680  142.3500 C   0  0  0  0  0  3  0  0  0  0  0  0
  186.0090  177.3430  137.2770 C   0  0  0  0  0  1  0  0  0  0  0  0
  186.2540  178.4030  140.7130 N   0  0  0  0  0  0  0  0  0  0  0  0
  187.7610  177.6470  138.7170 O   0  0  0  0  0  0  0  0  0  0  0  0
  186.6330  178.2130  138.3070 C   0  0  2  0  0  3  0  0  0  0  0  0
  185.6790  178.4700  139.4110 C   0  0  0  0  0  2  0  0  0  0  0  0
  187.6570  178.2230  140.9360 C   0  0  0  0  0  2  0  0  0  0  0  0
  188.3750  178.3720  139.6480 C   0  0  1  0  0  3  0  0  0  0  0  0
  189.8140  177.9610  139.6740 C   0  0  0  0  0  1  0  0  0  0  0  0
  184.6400  178.9660  146.1520 N   0  0  0  0  0  0  0  0  0  0  0  0
  185.3270  178.8220  147.2450 N   0  0  0  0  0  0  0  0  0  0  0  0
  185.3680  178.5820  145.3670 C   0  0  0  0  0  0  0  0  0  0  0  0
  186.5950  178.2880  146.9930 C   0  0  0  0  0  0  0  0  0  0  0  0
  187.6420  177.9560  147.7300 C   0  0  0  0  0  3  0  0  0  0  0  0
  188.6790  177.4700  147.1110 C   0  0  0  0  0  3  0  0  0  0  0  0
  188.6940  177.3070  145.7900 C   0  0  0  0  0  0  0  0  0  0  0  0
  187.6200  177.6450  145.0820 C   0  0  0  0  0  3  0  0  0  0  0  0
  186.5690  178.1360  145.6430 C   0  0  1  0  0  3  0  0  0  0  0  0
  189.8560  176.7710  145.2250 O   0  0  0  0  0  0  0  0  0  0  0  0
  190.1940  177.0460  143.9440 C   0  0  0  0  0  0  0  0  0  0  0  0
  190.3840  178.4880  143.5530 C   0  0  0  0  0  1  0  0  0  0  0  0
  190.0700  176.0260  142.8490 C   0  0  0  0  0  2  0  0  0  0  0  0
  191.3070  176.0860  143.6800 C   0  0  0  0  0  2  0  0  0  0  0  0
  1  5  1  0  0  0  0
  2  3  2  0  0  0  0
  2  6  1  0  0  0  0
  3  4  1  0  0  0  0
  4  5  2  0  0  0  0
  5 17  1  0  0  0  0
  6  1  2  0  0  0  0
  8 12  1  0  0  0  0
  8  3  1  0  0  0  0
  9 13  1  0  0  0  0
 10  7  1  6  0  0  0
 10  9  1  0  0  0  0
 10 11  1  0  0  0  0
 11  8  1  0  0  0  0
 13 14  1  1  0  0  0
 13 12  1  0  0  0  0
 15 16  1  0  0  0  0
 17 23  1  0  0  0  0
 17 15  2  0  0  0  0
 18 16  2  0  0  0  0
 18 19  1  0  0  0  0
 20 19  2  0  0  0  0
 21 20  1  0  0  0  0
 22 21  2  0  0  0  0
 23 22  1  1  0  0  0
 23 18  1  0  0  0  0
 24 21  1  0  0  0  0
 25 24  1  0  0  0  0
 26 25  1  0  0  0  0
 27 28  1  0  0  0  0
 27 25  1  0  0  0  0
 28 25  1  0  0  0  0
M  END
>  <MODEL>
1

>  <REMARK>
 VINA RESULT:     -10.4      0.000      0.000
  Name = 8tzc
  3 active torsions:
  status: ('A' for Active; 'I' for Inactive)
    1  A    between atoms: C_5  and  C_9
    2  A    between atoms: C_13  and  O_16
    3  A    between atoms: O_16  and  C_17
                            x       y       z     vdW  Elec       q    Type
                         _______ _______ _______ _____ _____    ______ ____

>  <TORSDO>
F 3

$$$$
8tzc
 OpenBabel11062411593D

 28 32  0  0  1  0  0  0  0  0999 V2000
  186.2560  178.2670  143.1890 N   0  0  0  0  0  0  0  0  0  0  0  0
  184.4640  178.4550  141.8330 N   0  0  0  0  0  0  0  0  0  0  0  0
  183.7180  178.6250  142.7970 C   0  0  0  0  0  0  0  0  0  0  0  0
  184.1130  178.6400  144.0300 C   0  0  0  0  0  3  0  0  0  0  0  0
  185.4250  178.4520  144.2530 C   0  0  0  0  0  0  0  0  0  0  0  0
  185.7000  178.2790  141.9880 C   0  0  0  0  0  3  0  0  0  0  0  0
  180.4960  179.9590  139.6590 C   0  0  0  0  0  1  0  0  0  0  0  0
  182.3530  178.8150  142.5280 N   0  0  0  0  0  0  0  0  0  0  0  0
  179.9810  179.6890  141.8720 O   0  0  0  0  0  0  0  0  0  0  0  0
  180.5910  179.0880  140.8580 C   0  0  2  0  0  3  0  0  0  0  0  0
  182.0060  178.7600  141.1470 C   0  0  0  0  0  2  0  0  0  0  0  0
  181.3920  179.0470  143.5640 C   0  0  0  0  0  2  0  0  0  0  0  0
  180.0300  178.9640  142.9860 C   0  0  1  0  0  3  0  0  0  0  0  0
  178.9310  179.4340  143.8880 C   0  0  0  0  0  1  0  0  0  0  0  0
  185.1440  178.8680  146.4200 N   0  0  0  0  0  0  0  0  0  0  0  0
  185.8100  178.7670  147.5310 N   0  0  0  0  0  0  0  0  0  0  0  0
  185.8930  178.4680  145.6630 C   0  0  0  0  0  0  0  0  0  0  0  0
  187.0890  178.2410  147.3220 C   0  0  0  0  0  0  0  0  0  0  0  0
  188.1240  177.9450  148.0900 C   0  0  0  0  0  3  0  0  0  0  0  0
  189.1800  177.4520  147.5080 C   0  0  0  0  0  3  0  0  0  0  0  0
  189.2240  177.2480  146.1930 C   0  0  0  0  0  0  0  0  0  0  0  0
  188.1610  177.5510  145.4540 C   0  0  0  0  0  3  0  0  0  0  0  0
  187.0930  178.0460  145.9770 C   0  0  1  0  0  3  0  0  0  0  0  0
  190.4040  176.7090  145.6690 O   0  0  0  0  0  0  0  0  0  0  0  0
  190.7930  176.9930  144.4050 C   0  0  0  0  0  0  0  0  0  0  0  0
  191.3100  178.3790  144.1170 C   0  0  0  0  0  1  0  0  0  0  0  0
  190.4380  176.1140  143.2420 C   0  0  0  0  0  2  0  0  0  0  0  0
  191.6560  175.8260  144.0530 C   0  0  0  0  0  2  0  0  0  0  0  0
  1  5  1  0  0  0  0
  2  6  1  0  0  0  0
  2  3  2  0  0  0  0
  3  4  1  0  0  0  0
  4  5  2  0  0  0  0
  5 17  1  0  0  0  0
  6  1  2  0  0  0  0
  8  3  1  0  0  0  0
  8 12  1  0  0  0  0
  9 13  1  0  0  0  0
 10  7  1  6  0  0  0
 10 11  1  0  0  0  0
 10  9  1  0  0  0  0
 11  8  1  0  0  0  0
 13 12  1  0  0  0  0
 13 14  1  1  0  0  0
 15 16  1  0  0  0  0
 17 23  1  0  0  0  0
 17 15  2  0  0  0  0
 18 16  2  0  0  0  0
 18 19  1  0  0  0  0
 20 19  2  0  0  0  0
 21 20  1  0  0  0  0
 22 21  2  0  0  0  0
 23 22  1  1  0  0  0
 23 18  1  0  0  0  0
 24 21  1  0  0  0  0
 25 24  1  0  0  0  0
 26 25  1  0  0  0  0
 27 28  1  0  0  0  0
 27 25  1  0  0  0  0
 28 25  1  0  0  0  0
M  END
>  <MODEL>
2

>  <REMARK>
 VINA RESULT:     -10.0      2.375      4.190
  Name = 8tzc
  3 active torsions:
  status: ('A' for Active; 'I' for Inactive)
    1  A    between atoms: C_5  and  C_9
    2  A    between atoms: C_13  and  O_16
    3  A    between atoms: O_16  and  C_17
                            x       y       z     vdW  Elec       q    Type
                         _______ _______ _______ _____ _____    ______ ____

>  <TORSDO>
F 3

$$$$
8tzc
 OpenBabel11062411593D

 28 32  0  0  1  0  0  0  0  0999 V2000
  184.3450  179.0030  141.6510 N   0  0  0  0  0  0  0  0  0  0  0  0
  185.7490  178.7130  139.9100 N   0  0  0  0  0  0  0  0  0  0  0  0
  186.6870  178.4750  140.6700 C   0  0  0  0  0  0  0  0  0  0  0  0
  186.5940  178.4670  141.9620 C   0  0  0  0  0  3  0  0  0  0  0  0
  185.3880  178.7420  142.4890 C   0  0  0  0  0  0  0  0  0  0  0  0
  184.6000  178.9730  140.3520 C   0  0  0  0  0  3  0  0  0  0  0  0
  188.9730  176.9720  136.8590 C   0  0  0  0  0  1  0  0  0  0  0  0
  187.9320  178.1950  140.0870 N   0  0  0  0  0  0  0  0  0  0  0  0
  190.0140  177.1680  138.8870 O   0  0  0  0  0  0  0  0  0  0  0  0
  189.2270  177.8270  138.0470 C   0  0  2  0  0  3  0  0  0  0  0  0
  187.9470  178.2480  138.6620 C   0  0  0  0  0  2  0  0  0  0  0  0
  189.0910  177.8780  140.8650 C   0  0  0  0  0  2  0  0  0  0  0  0
  190.2820  177.8750  139.9820 C   0  0  1  0  0  3  0  0  0  0  0  0
  191.5250  177.3140  140.5980 C   0  0  0  0  0  1  0  0  0  0  0  0
  184.2780  179.1230  144.3790 N   0  0  0  0  0  0  0  0  0  0  0  0
  184.4570  179.0030  145.6600 N   0  0  0  0  0  0  0  0  0  0  0  0
  185.2660  178.7340  143.9690 C   0  0  0  0  0  0  0  0  0  0  0  0
  185.7190  178.4800  145.9600 C   0  0  0  0  0  0  0  0  0  0  0  0
  186.3730  178.1720  147.0680 C   0  0  0  0  0  3  0  0  0  0  0  0
  187.5750  177.6880  146.9380 C   0  0  0  0  0  3  0  0  0  0  0  0
  188.1310  177.5060  145.7430 C   0  0  0  0  0  0  0  0  0  0  0  0
  187.4400  177.8200  144.6510 C   0  0  0  0  0  3  0  0  0  0  0  0
  186.2500  178.3070  144.7210 C   0  0  1  0  0  3  0  0  0  0  0  0
  189.4250  176.9740  145.7140 O   0  0  0  0  0  0  0  0  0  0  0  0
  190.2570  177.2340  144.6800 C   0  0  0  0  0  0  0  0  0  0  0  0
  190.4880  178.6730  144.2980 C   0  0  0  0  0  1  0  0  0  0  0  0
  190.6930  176.1670  143.7170 C   0  0  0  0  0  2  0  0  0  0  0  0
  191.4450  176.3810  144.9860 C   0  0  0  0  0  2  0  0  0  0  0  0
  1  5  1  0  0  0  0
  2  6  1  0  0  0  0
  2  3  2  0  0  0  0
  3  4  1  0  0  0  0
  4  5  2  0  0  0  0
  5 17  1  0  0  0  0
  6  1  2  0  0  0  0
  8  3  1  0  0  0  0
  8 12  1  0  0  0  0
  9 13  1  0  0  0  0
 10  7  1  6  0  0  0
 10 11  1  0  0  0  0
 10  9  1  0  0  0  0
 11  8  1  0  0  0  0
 13 14  1  1  0  0  0
 13 12  1  0  0  0  0
 15 16  1  0  0  0  0
 16 18  2  0  0  0  0
 17 15  2  0  0  0  0
 17 23  1  0  0  0  0
 18 19  1  0  0  0  0
 20 19  2  0  0  0  0
 21 20  1  0  0  0  0
 22 21  2  0  0  0  0
 23 22  1  6  0  0  0
 23 18  1  0  0  0  0
 24 21  1  0  0  0  0
 25 28  1  0  0  0  0
 25 24  1  0  0  0  0
 26 25  1  0  0  0  0
 27 25  1  0  0  0  0
 27 28  1  0  0  0  0
M  END
>  <MODEL>
3

>  <REMARK>
 VINA RESULT:      -9.8      1.244      1.727
  Name = 8tzc
  3 active torsions:
  status: ('A' for Active; 'I' for Inactive)
    1  A    between atoms: C_5  and  C_9
    2  A    between atoms: C_13  and  O_16
    3  A    between atoms: O_16  and  C_17
                            x       y       z     vdW  Elec       q    Type
                         _______ _______ _______ _____ _____    ______ ____

>  <TORSDO>
F 3

$$$$
8tzc
 OpenBabel11062411593D

 28 32  0  0  1  0  0  0  0  0999 V2000
  190.7060  177.5230  140.8730 N   0  0  0  0  0  0  0  0  0  0  0  0
  191.4940  177.1570  142.9540 N   0  0  0  0  0  0  0  0  0  0  0  0
  190.3900  177.3950  143.4430 C   0  0  0  0  0  0  0  0  0  0  0  0
  189.3400  177.7150  142.7540 C   0  0  0  0  0  3  0  0  0  0  0  0
  189.4860  177.7890  141.4200 C   0  0  0  0  0  0  0  0  0  0  0  0
  191.6820  177.2100  141.7120 C   0  0  0  0  0  3  0  0  0  0  0  0
  192.1140  175.5830  147.4110 C   0  0  0  0  0  1  0  0  0  0  0  0
  190.2730  177.3120  144.8400 N   0  0  0  0  0  0  0  0  0  0  0  0
  190.0640  176.5950  147.3430 O   0  0  0  0  0  0  0  0  0  0  0  0
  191.3270  176.7640  146.9760 C   0  0  2  0  0  3  0  0  0  0  0  0
  191.4820  176.9780  145.5180 C   0  0  0  0  0  2  0  0  0  0  0  0
  189.0360  177.5420  145.5220 C   0  0  0  0  0  2  0  0  0  0  0  0
  189.2950  177.6180  146.9800 C   0  0  1  0  0  3  0  0  0  0  0  0
  188.0710  177.6000  147.8420 C   0  0  0  0  0  1  0  0  0  0  0  0
  188.4840  178.3340  139.5100 N   0  0  0  0  0  0  0  0  0  0  0  0
  187.2950  178.6280  139.0770 N   0  0  0  0  0  0  0  0  0  0  0  0
  188.2910  178.1520  140.6160 C   0  0  0  0  0  0  0  0  0  0  0  0
  186.3480  178.5950  140.1060 C   0  0  1  0  0  3  0  0  0  0  0  0
  185.0450  178.8060  140.1940 C   0  0  0  0  0  3  0  0  0  0  0  0
  184.4960  178.6750  141.3690 C   0  0  0  0  0  3  0  0  0  0  0  0
  185.2090  178.3410  142.4410 C   0  0  0  0  0  0  0  0  0  0  0  0
  186.5160  178.1300  142.3130 C   0  0  0  0  0  3  0  0  0  0  0  0
  187.1110  178.2510  141.1760 C   0  0  0  0  0  0  0  0  0  0  0  0
  184.5220  178.2210  143.6540 O   0  0  0  0  0  0  0  0  0  0  0  0
  184.7530  179.0840  144.6700 C   0  0  0  0  0  0  0  0  0  0  0  0
  184.8150  180.5550  144.3510 C   0  0  0  0  0  1  0  0  0  0  0  0
  185.2600  178.6280  146.0070 C   0  0  0  0  0  2  0  0  0  0  0  0
  183.7970  178.6250  145.7210 C   0  0  0  0  0  2  0  0  0  0  0  0
  1  5  2  0  0  0  0
  1  6  1  0  0  0  0
  2  3  1  0  0  0  0
  3  8  1  0  0  0  0
  4  3  2  0  0  0  0
  5  4  1  0  0  0  0
  6  2  2  0  0  0  0
  8 11  1  0  0  0  0
  8 12  1  0  0  0  0
 10  9  1  0  0  0  0
 10  7  1  6  0  0  0
 11 10  1  0  0  0  0
 12 13  1  0  0  0  0
 13  9  1  0  0  0  0
 13 14  1  1  0  0  0
 15 17  1  0  0  0  0
 16 15  2  0  0  0  0
 16 18  1  0  0  0  0
 17 23  2  0  0  0  0
 17  5  1  0  0  0  0
 18 19  1  6  0  0  0
 18 23  1  0  0  0  0
 19 20  2  0  0  0  0
 20 21  1  0  0  0  0
 21 24  1  0  0  0  0
 22 21  2  0  0  0  0
 23 22  1  0  0  0  0
 24 25  1  0  0  0  0
 25 28  1  0  0  0  0
 25 27  1  0  0  0  0
 26 25  1  0  0  0  0
 28 27  1  0  0  0  0
M  END
>  <MODEL>
4

>  <REMARK>
 VINA RESULT:      -9.5      2.678      7.152
  Name = 8tzc
  3 active torsions:
  status: ('A' for Active; 'I' for Inactive)
    1  A    between atoms: C_5  and  C_9
    2  A    between atoms: C_13  and  O_16
    3  A    between atoms: O_16  and  C_17
                            x       y       z     vdW  Elec       q    Type
                         _______ _______ _______ _____ _____    ______ ____

>  <TORSDO>
F 3

$$$$
8tzc
 OpenBabel11062411593D

 28 32  0  0  1  0  0  0  0  0999 V2000
  186.9550  178.1070  147.7340 N   0  0  0  0  0  0  0  0  0  0  0  0
  185.1050  178.6620  146.5690 N   0  0  0  0  0  0  0  0  0  0  0  0
  185.6860  178.4700  145.5020 C   0  0  0  0  0  0  0  0  0  0  0  0
  186.9200  178.0890  145.4010 C   0  0  0  0  0  3  0  0  0  0  0  0
  187.5950  177.8990  146.5480 C   0  0  0  0  0  0  0  0  0  0  0  0
  185.6910  178.4960  147.6700 C   0  0  0  0  0  3  0  0  0  0  0  0
  181.4380  178.6800  143.5230 C   0  0  0  0  0  1  0  0  0  0  0  0
  184.9520  178.6800  144.3240 N   0  0  0  0  0  0  0  0  0  0  0  0
  183.3460  178.5730  142.2650 O   0  0  0  0  0  0  0  0  0  0  0  0
  182.8030  179.2160  143.2910 C   0  0  2  0  0  3  0  0  0  0  0  0
  183.6120  179.1200  144.5280 C   0  0  0  0  0  2  0  0  0  0  0  0
  185.5110  178.4650  143.0230 C   0  0  0  0  0  2  0  0  0  0  0  0
  184.5780  179.0000  142.0020 C   0  0  1  0  0  3  0  0  0  0  0  0
  184.9020  178.6240  140.5900 C   0  0  0  0  0  1  0  0  0  0  0  0
  189.6100  177.5240  147.4140 N   0  0  0  0  0  0  0  0  0  0  0  0
  190.7740  177.0930  147.0330 N   0  0  0  0  0  0  0  0  0  0  0  0
  189.0100  177.4600  146.4490 C   0  0  0  0  0  0  0  0  0  0  0  0
  190.7830  176.7570  145.6750 C   0  0  0  0  0  0  0  0  0  0  0  0
  191.6810  176.2860  144.8250 C   0  0  0  0  0  2  0  0  0  0  0  0
  191.2980  176.0960  143.5950 C   0  0  0  0  0  3  0  0  0  0  0  0
  190.0560  176.3600  143.1990 C   0  0  0  0  0  0  0  0  0  0  0  0
  189.1780  176.8260  144.0830 C   0  0  0  0  0  3  0  0  0  0  0  0
  189.5040  177.0380  145.3110 C   0  0  0  0  0  0  0  0  0  0  0  0
  189.7470  176.1140  141.8570 O   0  0  0  0  0  0  0  0  0  0  0  0
  189.6540  177.1320  140.9700 C   0  0  0  0  0  0  0  0  0  0  0  0
  188.7040  178.2590  141.2800 C   0  0  0  0  0  1  0  0  0  0  0  0
  190.2000  177.0300  139.5750 C   0  0  0  0  0  2  0  0  0  0  0  0
  191.0840  177.4640  140.6950 C   0  0  0  0  0  2  0  0  0  0  0  0
  2  6  2  0  0  0  0
  3  2  1  0  0  0  0
  4  3  2  0  0  0  0
  4  5  1  0  0  0  0
  5  1  2  0  0  0  0
  6  1  1  0  0  0  0
  8 11  1  0  0  0  0
  8  3  1  0  0  0  0
  9 10  1  0  0  0  0
 10  7  1  1  0  0  0
 10 11  1  0  0  0  0
 12  8  1  0  0  0  0
 13 14  1  6  0  0  0
 13  9  1  0  0  0  0
 13 12  1  0  0  0  0
 16 15  1  0  0  0  0
 17  5  1  0  0  0  0
 17 15  2  0  0  0  0
 18 16  2  0  0  0  0
 19 18  1  0  0  0  0
 20 19  1  0  0  0  0
 21 20  2  0  0  0  0
 21 22  1  0  0  0  0
 22 23  2  0  0  0  0
 23 18  1  0  0  0  0
 23 17  1  0  0  0  0
 24 21  1  0  0  0  0
 25 26  1  0  0  0  0
 25 24  1  0  0  0  0
 27 28  1  0  0  0  0
 27 25  1  0  0  0  0
 28 25  1  0  0  0  0
M  END
>  <MODEL>
5

>  <REMARK>
 VINA RESULT:      -9.3      2.177      4.566
  Name = 8tzc
  3 active torsions:
  status: ('A' for Active; 'I' for Inactive)
    1  A    between atoms: C_5  and  C_9
    2  A    between atoms: C_13  and  O_16
    3  A    between atoms: O_16  and  C_17
                            x       y       z     vdW  Elec       q    Type
                         _______ _______ _______ _____ _____    ______ ____

>  <TORSDO>
F 3

$$$$
8tzc
 OpenBabel11062411593D

 28 32  0  0  1  0  0  0  0  0999 V2000
  186.7950  178.2140  145.0020 N   0  0  0  0  0  0  0  0  0  0  0  0
  184.5820  178.6380  144.9100 N   0  0  0  0  0  0  0  0  0  0  0  0
  184.5760  178.4880  143.6880 C   0  0  0  0  0  0  0  0  0  0  0  0
  185.6230  178.1960  142.9850 C   0  0  0  0  0  3  0  0  0  0  0  0
  186.7840  178.0530  143.6480 C   0  0  0  0  0  0  0  0  0  0  0  0
  185.6410  178.5120  145.5770 C   0  0  0  0  0  3  0  0  0  0  0  0
  179.8990  178.3990  144.0450 C   0  0  0  0  0  1  0  0  0  0  0  0
  183.3480  178.6480  143.0270 N   0  0  0  0  0  0  0  0  0  0  0  0
  180.9500  178.4300  142.0130 O   0  0  0  0  0  0  0  0  0  0  0  0
  180.9410  179.0310  143.1950 C   0  0  2  0  0  3  0  0  0  0  0  0
  182.2560  178.9910  143.8760 C   0  0  0  0  0  2  0  0  0  0  0  0
  183.2100  178.4740  141.6120 C   0  0  0  0  0  2  0  0  0  0  0  0
  181.8660  178.9440  141.1970 C   0  0  1  0  0  3  0  0  0  0  0  0
  181.4800  178.5920  139.7940 C   0  0  0  0  0  1  0  0  0  0  0  0
  187.8220  177.5850  141.7380 N   0  0  0  0  0  0  0  0  0  0  0  0
  189.0180  177.3020  141.3170 N   0  0  0  0  0  0  0  0  0  0  0  0
  187.9930  177.7160  142.8550 C   0  0  0  0  0  0  0  0  0  0  0  0
  189.9440  177.2800  142.3660 C   0  0  1  0  0  3  0  0  0  0  0  0
  191.2430  177.0550  142.4720 C   0  0  0  0  0  3  0  0  0  0  0  0
  191.7670  177.1280  143.6620 C   0  0  0  0  0  3  0  0  0  0  0  0
  191.0340  177.4200  144.7340 C   0  0  0  0  0  0  0  0  0  0  0  0
  189.7320  177.6470  144.5870 C   0  0  0  0  0  3  0  0  0  0  0  0
  189.1600  177.5820  143.4340 C   0  0  0  0  0  0  0  0  0  0  0  0
  191.6970  177.4800  145.9650 O   0  0  0  0  0  0  0  0  0  0  0  0
  191.3500  176.6540  146.9780 C   0  0  0  0  0  0  0  0  0  0  0  0
  189.9070  176.6270  147.4100 C   0  0  0  0  0  1  0  0  0  0  0  0
  192.3710  176.0230  147.8800 C   0  0  0  0  0  2  0  0  0  0  0  0
  192.0010  175.3650  146.5940 C   0  0  0  0  0  2  0  0  0  0  0  0
  1  6  1  0  0  0  0
  2  6  2  0  0  0  0
  3  2  1  0  0  0  0
  4  5  1  0  0  0  0
  4  3  2  0  0  0  0
  5  1  2  0  0  0  0
  8  3  1  0  0  0  0
  8 11  1  0  0  0  0
  9 10  1  0  0  0  0
 10 11  1  0  0  0  0
 10  7  1  1  0  0  0
 12  8  1  0  0  0  0
 13 14  1  6  0  0  0
 13 12  1  0  0  0  0
 13  9  1  0  0  0  0
 15 17  1  0  0  0  0
 16 15  2  0  0  0  0
 16 18  1  0  0  0  0
 17 23  2  0  0  0  0
 17  5  1  0  0  0  0
 18 19  1  6  0  0  0
 18 23  1  0  0  0  0
 19 20  2  0  0  0  0
 20 21  1  0  0  0  0
 21 24  1  0  0  0  0
 22 21  2  0  0  0  0
 23 22  1  0  0  0  0
 24 25  1  0  0  0  0
 25 26  1  0  0  0  0
 25 27  1  0  0  0  0
 28 25  1  0  0  0  0
 28 27  1  0  0  0  0
M  END
>  <MODEL>
6

>  <REMARK>
 VINA RESULT:      -9.1      2.603      5.069
  Name = 8tzc
  3 active torsions:
  status: ('A' for Active; 'I' for Inactive)
    1  A    between atoms: C_5  and  C_9
    2  A    between atoms: C_13  and  O_16
    3  A    between atoms: O_16  and  C_17
                            x       y       z     vdW  Elec       q    Type
                         _______ _______ _______ _____ _____    ______ ____

>  <TORSDO>
F 3

$$$$
8tzc
 OpenBabel11062411593D

 28 32  0  0  1  0  0  0  0  0999 V2000
  191.6220  177.1340  141.5390 N   0  0  0  0  0  0  0  0  0  0  0  0
  190.2870  177.3460  139.7330 N   0  0  0  0  0  0  0  0  0  0  0  0
  189.3300  177.6540  140.4430 C   0  0  0  0  0  0  0  0  0  0  0  0
  189.3780  177.7420  141.7340 C   0  0  0  0  0  3  0  0  0  0  0  0
  190.5570  177.4720  142.3210 C   0  0  0  0  0  0  0  0  0  0  0  0
  191.4130  177.0870  140.2320 C   0  0  0  0  0  3  0  0  0  0  0  0
  187.2170  178.9670  136.4650 C   0  0  0  0  0  1  0  0  0  0  0  0
  188.1130  177.9260  139.7980 N   0  0  0  0  0  0  0  0  0  0  0  0
  186.1010  178.9240  138.4630 O   0  0  0  0  0  0  0  0  0  0  0  0
  186.9000  178.1950  137.6940 C   0  0  2  0  0  3  0  0  0  0  0  0
  188.1460  177.7830  138.3810 C   0  0  0  0  0  2  0  0  0  0  0  0
  186.9360  178.3190  140.5130 C   0  0  0  0  0  2  0  0  0  0  0  0
  185.7780  178.2940  139.5880 C   0  0  1  0  0  3  0  0  0  0  0  0
  184.5290  178.9230  140.1230 C   0  0  0  0  0  1  0  0  0  0  0  0
  191.6760  177.6510  144.2350 N   0  0  0  0  0  0  0  0  0  0  0  0
  191.4330  177.7170  145.5090 N   0  0  0  0  0  0  0  0  0  0  0  0
  190.6280  177.5700  143.8010 C   0  0  0  0  0  0  0  0  0  0  0  0
  190.0610  177.6600  145.7770 C   0  0  0  0  0  0  0  0  0  0  0  0
  189.3110  177.6890  146.8660 C   0  0  0  0  0  3  0  0  0  0  0  0
  188.0200  177.6100  146.7060 C   0  0  0  0  0  3  0  0  0  0  0  0
  187.4700  177.5070  145.4990 C   0  0  0  0  0  0  0  0  0  0  0  0
  188.2550  177.4880  144.4260 C   0  0  0  0  0  3  0  0  0  0  0  0
  189.5380  177.5570  144.5270 C   0  0  1  0  0  3  0  0  0  0  0  0
  186.0740  177.4350  145.4380 O   0  0  0  0  0  0  0  0  0  0  0  0
  185.3100  178.5010  145.7700 C   0  0  0  0  0  0  0  0  0  0  0  0
  185.7150  179.3170  146.9700 C   0  0  0  0  0  1  0  0  0  0  0  0
  183.9350  178.7070  145.2050 C   0  0  0  0  0  2  0  0  0  0  0  0
  185.1300  179.2010  144.4630 C   0  0  0  0  0  2  0  0  0  0  0  0
  1  5  1  0  0  0  0
  2  6  1  0  0  0  0
  2  3  2  0  0  0  0
  3  4  1  0  0  0  0
  4  5  2  0  0  0  0
  5 17  1  0  0  0  0
  6  1  2  0  0  0  0
  8  3  1  0  0  0  0
  8 12  1  0  0  0  0
  9 13  1  0  0  0  0
 10  7  1  6  0  0  0
 10 11  1  0  0  0  0
 10  9  1  0  0  0  0
 11  8  1  0  0  0  0
 13 14  1  1  0  0  0
 13 12  1  0  0  0  0
 15 16  1  0  0  0  0
 16 18  2  0  0  0  0
 17 15  2  0  0  0  0
 17 23  1  0  0  0  0
 18 19  1  0  0  0  0
 20 19  2  0  0  0  0
 21 20  1  0  0  0  0
 22 21  2  0  0  0  0
 23 22  1  6  0  0  0
 23 18  1  0  0  0  0
 24 21  1  0  0  0  0
 24 25  1  0  0  0  0
 25 26  1  0  0  0  0
 27 25  1  0  0  0  0
 28 27  1  0  0  0  0
 28 25  1  0  0  0  0
M  END
>  <MODEL>
7

>  <REMARK>
 VINA RESULT:      -9.1      2.684      4.826
  Name = 8tzc
  3 active torsions:
  status: ('A' for Active; 'I' for Inactive)
    1  A    between atoms: C_5  and  C_9
    2  A    between atoms: C_13  and  O_16
    3  A    between atoms: O_16  and  C_17
                            x       y       z     vdW  Elec       q    Type
                         _______ _______ _______ _____ _____    ______ ____

>  <TORSDO>
F 3

$$$$
8tzc
 OpenBabel11062411593D

 28 32  0  0  1  0  0  0  0  0999 V2000
  188.5450  178.1960  141.0380 N   0  0  0  0  0  0  0  0  0  0  0  0
  188.9210  177.7130  138.8670 N   0  0  0  0  0  0  0  0  0  0  0  0
  190.0280  177.2470  139.1340 C   0  0  0  0  0  0  0  0  0  0  0  0
  190.5270  177.1900  140.3280 C   0  0  0  0  0  3  0  0  0  0  0  0
  189.7730  177.6810  141.3280 C   0  0  0  0  0  0  0  0  0  0  0  0
  188.1760  178.1820  139.7660 C   0  0  0  0  0  3  0  0  0  0  0  0
  189.9880  175.5040  134.7790 C   0  0  0  0  0  1  0  0  0  0  0  0
  190.7900  176.7460  138.0660 N   0  0  0  0  0  0  0  0  0  0  0  0
  191.8450  175.3750  136.1090 O   0  0  0  0  0  0  0  0  0  0  0  0
  190.9210  176.2250  135.6820 C   0  0  2  0  0  3  0  0  0  0  0  0
  190.1730  176.8690  136.7870 C   0  0  0  0  0  2  0  0  0  0  0  0
  192.0810  176.1560  138.2540 C   0  0  0  0  0  2  0  0  0  0  0  0
  192.7160  175.9530  136.9300 C   0  0  1  0  0  3  0  0  0  0  0  0
  193.9570  175.1150  136.9470 C   0  0  0  0  0  1  0  0  0  0  0  0
  191.4660  177.6760  142.7710 N   0  0  0  0  0  0  0  0  0  0  0  0
  191.6590  177.6010  144.0530 N   0  0  0  0  0  0  0  0  0  0  0  0
  190.3320  177.6220  142.7020 C   0  0  0  0  0  0  0  0  0  0  0  0
  190.4530  177.4900  144.7530 C   0  0  0  0  0  0  0  0  0  0  0  0
  190.1060  177.3890  146.0250 C   0  0  0  0  0  3  0  0  0  0  0  0
  188.8350  177.3030  146.2940 C   0  0  0  0  0  3  0  0  0  0  0  0
  187.9140  177.3180  145.3340 C   0  0  0  0  0  0  0  0  0  0  0  0
  188.2990  177.4280  144.0660 C   0  0  0  0  0  3  0  0  0  0  0  0
  189.5440  177.5110  143.7430 C   0  0  1  0  0  3  0  0  0  0  0  0
  186.5750  177.2260  145.7310 O   0  0  0  0  0  0  0  0  0  0  0  0
  185.7590  178.3040  145.6700 C   0  0  0  0  0  0  0  0  0  0  0  0
  185.0710  178.5990  144.3620 C   0  0  0  0  0  1  0  0  0  0  0  0
  185.7650  179.3720  146.7240 C   0  0  0  0  0  2  0  0  0  0  0  0
  184.9200  178.1560  146.8960 C   0  0  0  0  0  2  0  0  0  0  0  0
  1  5  1  0  0  0  0
  2  3  2  0  0  0  0
  2  6  1  0  0  0  0
  3  4  1  0  0  0  0
  4  5  2  0  0  0  0
  5 17  1  0  0  0  0
  6  1  2  0  0  0  0
  8 12  1  0  0  0  0
  8  3  1  0  0  0  0
  9 13  1  0  0  0  0
 10  7  1  6  0  0  0
 10  9  1  0  0  0  0
 10 11  1  0  0  0  0
 11  8  1  0  0  0  0
 13 14  1  1  0  0  0
 13 12  1  0  0  0  0
 15 16  1  0  0  0  0
 16 18  2  0  0  0  0
 17 15  2  0  0  0  0
 17 23  1  0  0  0  0
 18 19  1  0  0  0  0
 19 20  2  0  0  0  0
 21 24  1  0  0  0  0
 21 20  1  0  0  0  0
 22 21  2  0  0  0  0
 23 22  1  1  0  0  0
 23 18  1  0  0  0  0
 25 24  1  0  0  0  0
 25 27  1  0  0  0  0
 25 28  1  0  0  0  0
 26 25  1  0  0  0  0
 27 28  1  0  0  0  0
M  END
>  <MODEL>
8

>  <REMARK>
 VINA RESULT:      -9.1      3.249      5.281
  Name = 8tzc
  3 active torsions:
  status: ('A' for Active; 'I' for Inactive)
    1  A    between atoms: C_5  and  C_9
    2  A    between atoms: C_13  and  O_16
    3  A    between atoms: O_16  and  C_17
                            x       y       z     vdW  Elec       q    Type
                         _______ _______ _______ _____ _____    ______ ____

>  <TORSDO>
F 3

$$$$
8tzc
 OpenBabel11062411593D

 28 32  0  0  1  0  0  0  0  0999 V2000
  183.4100  178.9480  143.4190 N   0  0  0  0  0  0  0  0  0  0  0  0
  184.6840  178.4480  145.2110 N   0  0  0  0  0  0  0  0  0  0  0  0
  185.6670  178.2610  144.4950 C   0  0  0  0  0  0  0  0  0  0  0  0
  185.6630  178.3830  143.2050 C   0  0  0  0  0  3  0  0  0  0  0  0
  184.5010  178.7360  142.6290 C   0  0  0  0  0  0  0  0  0  0  0  0
  183.5740  178.7830  144.7220 C   0  0  0  0  0  3  0  0  0  0  0  0
  188.1660  178.3010  148.4640 C   0  0  0  0  0  1  0  0  0  0  0  0
  186.8630  177.8910  145.1290 N   0  0  0  0  0  0  0  0  0  0  0  0
  189.1110  177.7530  146.4540 O   0  0  0  0  0  0  0  0  0  0  0  0
  188.0600  177.4940  147.2220 C   0  0  2  0  0  3  0  0  0  0  0  0
  186.7700  177.7580  146.5450 C   0  0  0  0  0  2  0  0  0  0  0  0
  188.0790  177.6700  144.4050 C   0  0  0  0  0  2  0  0  0  0  0  0
  189.0800  177.0650  145.3160 C   0  0  1  0  0  3  0  0  0  0  0  0
  190.4760  177.0110  144.7750 C   0  0  0  0  0  1  0  0  0  0  0  0
  185.1520  179.7010  140.7340 N   0  0  0  0  0  0  0  0  0  0  0  0
  184.9330  179.5980  139.4570 N   0  0  0  0  0  0  0  0  0  0  0  0
  184.4820  178.8820  141.1510 C   0  0  0  0  0  0  0  0  0  0  0  0
  184.0170  178.5810  139.1690 C   0  0  1  0  0  3  0  0  0  0  0  0
  183.4740  178.0840  138.0700 C   0  0  0  0  0  3  0  0  0  0  0  0
  182.6310  177.1010  138.2110 C   0  0  0  0  0  3  0  0  0  0  0  0
  182.3230  176.6090  139.4080 C   0  0  0  0  0  0  0  0  0  0  0  0
  182.8940  177.1290  140.4910 C   0  0  0  0  0  3  0  0  0  0  0  0
  183.7310  178.1060  140.4100 C   0  0  0  0  0  0  0  0  0  0  0  0
  181.4110  175.5490  139.4480 O   0  0  0  0  0  0  0  0  0  0  0  0
  180.1080  175.7670  139.7410 C   0  0  0  0  0  0  0  0  0  0  0  0
  179.3510  176.7670  138.9050 C   0  0  0  0  0  1  0  0  0  0  0  0
  179.4910  175.3110  141.0310 C   0  0  0  0  0  2  0  0  0  0  0  0
  179.5590  174.3840  139.8650 C   0  0  0  0  0  2  0  0  0  0  0  0
  1  6  1  0  0  0  0
  3  8  1  0  0  0  0
  3  2  1  0  0  0  0
  4  3  2  0  0  0  0
  5  4  1  0  0  0  0
  5  1  2  0  0  0  0
  6  2  2  0  0  0  0
  8 11  1  0  0  0  0
  9 10  1  0  0  0  0
 10  7  1  1  0  0  0
 11 10  1  0  0  0  0
 12  8  1  0  0  0  0
 12 13  1  0  0  0  0
 13 14  1  6  0  0  0
 13  9  1  0  0  0  0
 15 17  1  0  0  0  0
 16 15  2  0  0  0  0
 17  5  1  0  0  0  0
 18 19  1  6  0  0  0
 18 16  1  0  0  0  0
 18 23  1  0  0  0  0
 19 20  2  0  0  0  0
 20 21  1  0  0  0  0
 21 24  1  0  0  0  0
 21 22  2  0  0  0  0
 23 22  1  0  0  0  0
 23 17  2  0  0  0  0
 24 25  1  0  0  0  0
 25 28  1  0  0  0  0
 25 27  1  0  0  0  0
 26 25  1  0  0  0  0
 28 27  1  0  0  0  0
M  END
>  <MODEL>
9

>  <REMARK>
 VINA RESULT:      -9.0      2.956      7.704
  Name = 8tzc
  3 active torsions:
  status: ('A' for Active; 'I' for Inactive)
    1  A    between atoms: C_5  and  C_9
    2  A    between atoms: C_13  and  O_16
    3  A    between atoms: O_16  and  C_17
                            x       y       z     vdW  Elec       q    Type
                         _______ _______ _______ _____ _____    ______ ____

>  <TORSDO>
F 3

$$$$
