8smc
 OpenBabel11062411593D

 24 25  0  0  0  0  0  0  0  0999 V2000
  189.7610  177.9660  144.6400 C   0  0  0  0  0  1  0  0  0  0  0  0
  188.6360  177.2030  145.1410 N   0  0  0  0  0  2  0  0  0  0  0  0
  187.4660  177.8820  145.6560 C   0  0  0  0  0  0  0  0  0  0  0  0
  186.5740  178.4090  144.8400 N   0  0  0  0  0  4  0  0  0  0  0  0
  185.5040  179.0190  145.2960 C   0  0  0  0  0  0  0  0  0  0  0  0
  184.5150  179.6220  144.4140 N   0  0  0  0  0  2  0  0  0  0  0  0
  185.3040  179.1290  146.5960 N   0  0  0  0  0  0  0  0  0  0  0  0
  186.1430  178.6290  147.4760 C   0  0  0  0  0  3  0  0  0  0  0  0
  187.2740  177.9750  147.0190 C   0  0  0  0  0  0  0  0  0  0  0  0
  183.9950  179.1070  143.1580 C   0  0  0  0  0  0  0  0  0  0  0  0
  182.5170  178.5310  141.6830 N   0  0  0  0  0  0  0  0  0  0  0  0
  182.6510  179.0000  142.8920 C   0  0  0  0  0  3  0  0  0  0  0  0
  183.7420  178.3390  141.1160 N   0  0  0  0  0  0  0  0  0  0  0  0
  184.6680  178.7020  142.0030 C   0  0  0  0  0  0  0  0  0  0  0  0
  186.1700  178.6290  141.7390 C   0  0  0  0  0  1  0  0  0  0  0  0
  181.2570  178.2570  141.0240 C   0  0  0  0  0  0  0  0  0  0  0  0
  181.3960  177.0130  140.1470 C   0  0  0  0  0  1  0  0  0  0  0  0
  180.8820  179.4510  140.1500 C   0  0  0  0  0  1  0  0  0  0  0  0
  179.3480  177.8790  142.8440 N   0  0  0  0  0  0  0  0  0  0  0  0
  180.1630  178.0390  142.0680 C   0  0  0  0  0  0  0  0  0  0  0  0
  188.2910  177.3780  147.9750 C   0  0  0  0  0  0  0  0  0  0  0  0
  189.4370  178.1100  147.9150 F   0  0  0  0  0  0  0  0  0  0  0  0
  187.7890  177.4280  149.2420 F   0  0  0  0  0  0  0  0  0  0  0  0
  188.5490  176.0840  147.6390 F   0  0  0  0  0  0  0  0  0  0  0  0
  1  2  1  0  0  0  0
  2  3  1  0  0  0  0
  3  9  1  0  0  0  0
  4  5  2  0  0  0  0
  4  3  2  0  0  0  0
  5  7  2  0  0  0  0
  6  5  1  0  0  0  0
  7  8  1  0  0  0  0
  9  8  2  0  0  0  0
  9 21  1  0  0  0  0
 10  6  1  0  0  0  0
 11 12  1  0  0  0  0
 12 10  2  0  0  0  0
 13 11  1  0  0  0  0
 13 14  2  0  0  0  0
 14 10  1  0  0  0  0
 15 14  1  0  0  0  0
 16 11  1  0  0  0  0
 16 20  1  0  0  0  0
 17 16  1  0  0  0  0
 18 16  1  0  0  0  0
 20 19  3  0  0  0  0
 21 23  1  0  0  0  0
 22 21  1  0  0  0  0
 24 21  1  0  0  0  0
M  END
>  <MODEL>
1

>  <REMARK>
 VINA RESULT:      -7.6      0.000      0.000
  Name = 8smc
  4 active torsions:
  status: ('A' for Active; 'I' for Inactive)
    1  A    between atoms: N_6  and  C_7
    2  A    between atoms: N_8  and  C_15
    3  A    between atoms: C_15  and  C_18
    4  A    between atoms: C_20  and  C_21
                            x       y       z     vdW  Elec       q    Type
                         _______ _______ _______ _____ _____    ______ ____

>  <TORSDO>
F 4

$$$$
8smc
 OpenBabel11062411593D

 24 25  0  0  0  0  0  0  0  0999 V2000
  189.6500  178.0870  144.5080 C   0  0  0  0  0  1  0  0  0  0  0  0
  188.5440  177.3030  145.0210 N   0  0  0  0  0  2  0  0  0  0  0  0
  187.4000  177.9590  145.6160 C   0  0  0  0  0  0  0  0  0  0  0  0
  186.4760  178.5260  144.8630 N   0  0  0  0  0  4  0  0  0  0  0  0
  185.4280  179.1160  145.3920 C   0  0  0  0  0  0  0  0  0  0  0  0
  184.4060  179.7610  144.5820 N   0  0  0  0  0  2  0  0  0  0  0  0
  185.2840  179.1650  146.7030 N   0  0  0  0  0  0  0  0  0  0  0  0
  186.1570  178.6220  147.5230 C   0  0  0  0  0  3  0  0  0  0  0  0
  187.2650  177.9890  146.9890 C   0  0  0  0  0  0  0  0  0  0  0  0
  183.8310  179.3060  143.3260 C   0  0  0  0  0  0  0  0  0  0  0  0
  183.7570  178.7840  141.2260 N   0  0  0  0  0  0  0  0  0  0  0  0
  184.5430  179.2550  142.1520 C   0  0  0  0  0  3  0  0  0  0  0  0
  182.5340  178.4930  141.7520 N   0  0  0  0  0  0  0  0  0  0  0  0
  182.5620  178.7940  143.0500 C   0  0  0  0  0  0  0  0  0  0  0  0
  181.3720  178.6110  143.9890 C   0  0  0  0  0  1  0  0  0  0  0  0
  184.1200  178.5860  139.8370 C   0  0  0  0  0  0  0  0  0  0  0  0
  183.5550  179.7260  138.9910 C   0  0  0  0  0  1  0  0  0  0  0  0
  183.5360  177.2600  139.3550 C   0  0  0  0  0  1  0  0  0  0  0  0
  186.7720  178.5100  139.5990 N   0  0  0  0  0  0  0  0  0  0  0  0
  185.6410  178.5400  139.7020 C   0  0  0  0  0  0  0  0  0  0  0  0
  188.3190  177.3460  147.8720 C   0  0  0  0  0  0  0  0  0  0  0  0
  189.4370  178.1240  147.8650 F   0  0  0  0  0  0  0  0  0  0  0  0
  187.8370  177.2600  149.1440 F   0  0  0  0  0  0  0  0  0  0  0  0
  188.6200  176.0990  147.4130 F   0  0  0  0  0  0  0  0  0  0  0  0
  1  2  1  0  0  0  0
  2  3  1  0  0  0  0
  3  9  1  0  0  0  0
  4  5  2  0  0  0  0
  4  3  2  0  0  0  0
  5  7  2  0  0  0  0
  6  5  1  0  0  0  0
  7  8  1  0  0  0  0
  9  8  2  0  0  0  0
  9 21  1  0  0  0  0
 10  6  1  0  0  0  0
 11 13  1  0  0  0  0
 11 12  1  0  0  0  0
 12 10  2  0  0  0  0
 13 14  2  0  0  0  0
 14 10  1  0  0  0  0
 14 15  1  0  0  0  0
 16 11  1  0  0  0  0
 17 16  1  0  0  0  0
 18 16  1  0  0  0  0
 19 20  3  0  0  0  0
 20 16  1  0  0  0  0
 21 23  1  0  0  0  0
 22 21  1  0  0  0  0
 24 21  1  0  0  0  0
M  END
>  <MODEL>
2

>  <REMARK>
 VINA RESULT:      -7.5      1.313      2.734
  Name = 8smc
  4 active torsions:
  status: ('A' for Active; 'I' for Inactive)
    1  A    between atoms: N_6  and  C_7
    2  A    between atoms: N_8  and  C_15
    3  A    between atoms: C_15  and  C_18
    4  A    between atoms: C_20  and  C_21
                            x       y       z     vdW  Elec       q    Type
                         _______ _______ _______ _____ _____    ______ ____

>  <TORSDO>
F 4

$$$$
8smc
 OpenBabel11062411593D

 24 25  0  0  0  0  0  0  0  0999 V2000
  183.9550  178.3400  143.5570 C   0  0  0  0  0  1  0  0  0  0  0  0
  185.1910  179.0170  143.8930 N   0  0  0  0  0  2  0  0  0  0  0  0
  186.3830  178.2530  144.1910 C   0  0  0  0  0  0  0  0  0  0  0  0
  187.0990  177.7100  143.2250 N   0  0  0  0  0  4  0  0  0  0  0  0
  188.1880  177.0220  143.4830 C   0  0  0  0  0  0  0  0  0  0  0  0
  188.9840  176.4000  142.4340 N   0  0  0  0  0  2  0  0  0  0  0  0
  188.5850  176.8470  144.7290 N   0  0  0  0  0  0  0  0  0  0  0  0
  187.9310  177.3580  145.7480 C   0  0  0  0  0  3  0  0  0  0  0  0
  186.7850  178.0930  145.5010 C   0  0  0  0  0  0  0  0  0  0  0  0
  189.3280  176.9370  141.1270 C   0  0  0  0  0  0  0  0  0  0  0  0
  189.0210  177.6390  139.1010 N   0  0  0  0  0  0  0  0  0  0  0  0
  188.4030  177.1270  140.1290 C   0  0  0  0  0  3  0  0  0  0  0  0
  190.3400  177.8220  139.3900 N   0  0  0  0  0  0  0  0  0  0  0  0
  190.5490  177.4080  140.6400 C   0  0  0  0  0  0  0  0  0  0  0  0
  191.9110  177.4470  141.3300 C   0  0  0  0  0  1  0  0  0  0  0  0
  188.4040  177.9790  137.8350 C   0  0  0  0  0  0  0  0  0  0  0  0
  188.5570  176.8110  136.8610 C   0  0  0  0  0  1  0  0  0  0  0  0
  189.0970  179.2110  137.2590 C   0  0  0  0  0  1  0  0  0  0  0  0
  185.8230  178.5200  138.2070 N   0  0  0  0  0  0  0  0  0  0  0  0
  186.9240  178.2900  138.0470 C   0  0  0  0  0  0  0  0  0  0  0  0
  185.9730  178.7070  146.6270 C   0  0  0  0  0  0  0  0  0  0  0  0
  186.6830  178.6180  147.7850 F   0  0  0  0  0  0  0  0  0  0  0  0
  185.7400  180.0190  146.3410 F   0  0  0  0  0  0  0  0  0  0  0  0
  184.7860  178.0520  146.7610 F   0  0  0  0  0  0  0  0  0  0  0  0
  1  2  1  0  0  0  0
  2  3  1  0  0  0  0
  3  9  1  0  0  0  0
  4  5  2  0  0  0  0
  4  3  2  0  0  0  0
  5  7  2  0  0  0  0
  6  5  1  0  0  0  0
  7  8  1  0  0  0  0
  9  8  2  0  0  0  0
  9 21  1  0  0  0  0
 10  6  1  0  0  0  0
 11 13  1  0  0  0  0
 11 12  1  0  0  0  0
 12 10  2  0  0  0  0
 13 14  2  0  0  0  0
 14 10  1  0  0  0  0
 14 15  1  0  0  0  0
 16 20  1  0  0  0  0
 16 11  1  0  0  0  0
 17 16  1  0  0  0  0
 18 16  1  0  0  0  0
 20 19  3  0  0  0  0
 21 24  1  0  0  0  0
 21 22  1  0  0  0  0
 23 21  1  0  0  0  0
M  END
>  <MODEL>
3

>  <REMARK>
 VINA RESULT:      -7.4      3.515      5.656
  Name = 8smc
  4 active torsions:
  status: ('A' for Active; 'I' for Inactive)
    1  A    between atoms: N_6  and  C_7
    2  A    between atoms: N_8  and  C_15
    3  A    between atoms: C_15  and  C_18
    4  A    between atoms: C_20  and  C_21
                            x       y       z     vdW  Elec       q    Type
                         _______ _______ _______ _____ _____    ______ ____

>  <TORSDO>
F 4

$$$$
8smc
 OpenBabel11062411593D

 24 25  0  0  0  0  0  0  0  0999 V2000
  186.1720  177.3350  145.5540 C   0  0  0  0  0  1  0  0  0  0  0  0
  187.3660  178.1540  145.4940 N   0  0  0  0  0  2  0  0  0  0  0  0
  188.6610  177.5390  145.3000 C   0  0  0  0  0  0  0  0  0  0  0  0
  189.0440  177.1270  144.1070 N   0  0  0  0  0  4  0  0  0  0  0  0
  190.2220  176.5760  143.9160 C   0  0  0  0  0  0  0  0  0  0  0  0
  190.6580  176.1000  142.6120 N   0  0  0  0  0  2  0  0  0  0  0  0
  191.0490  176.4100  144.9300 N   0  0  0  0  0  0  0  0  0  0  0  0
  190.7460  176.7960  146.1500 C   0  0  0  0  0  3  0  0  0  0  0  0
  189.5150  177.3860  146.3730 C   0  0  0  0  0  0  0  0  0  0  0  0
  190.4580  176.7210  141.3130 C   0  0  0  0  0  0  0  0  0  0  0  0
  189.3790  177.4650  139.5880 N   0  0  0  0  0  0  0  0  0  0  0  0
  189.2220  176.8490  140.7260 C   0  0  0  0  0  3  0  0  0  0  0  0
  190.6920  177.7800  139.4030 N   0  0  0  0  0  0  0  0  0  0  0  0
  191.3740  177.3430  140.4620 C   0  0  0  0  0  0  0  0  0  0  0  0
  192.8840  177.5040  140.6240 C   0  0  0  0  0  1  0  0  0  0  0  0
  188.3200  177.7850  138.6530 C   0  0  0  0  0  0  0  0  0  0  0  0
  187.9220  176.5280  137.8800 C   0  0  0  0  0  1  0  0  0  0  0  0
  188.8240  178.8410  137.6730 C   0  0  0  0  0  1  0  0  0  0  0  0
  186.2150  178.7460  139.9710 N   0  0  0  0  0  0  0  0  0  0  0  0
  187.1130  178.3370  139.4080 C   0  0  0  0  0  0  0  0  0  0  0  0
  189.0910  177.8500  147.7550 C   0  0  0  0  0  0  0  0  0  0  0  0
  188.2080  176.9520  148.2730 F   0  0  0  0  0  0  0  0  0  0  0  0
  190.1920  177.9130  148.5570 F   0  0  0  0  0  0  0  0  0  0  0  0
  188.5110  179.0800  147.6810 F   0  0  0  0  0  0  0  0  0  0  0  0
  2  1  1  0  0  0  0
  3  2  1  0  0  0  0
  3  9  1  0  0  0  0
  4  3  2  0  0  0  0
  5  4  2  0  0  0  0
  5  7  2  0  0  0  0
  6  5  1  0  0  0  0
  7  8  1  0  0  0  0
  8  9  2  0  0  0  0
  9 21  1  0  0  0  0
 10  6  1  0  0  0  0
 11 12  1  0  0  0  0
 12 10  2  0  0  0  0
 13 11  1  0  0  0  0
 13 14  2  0  0  0  0
 14 15  1  0  0  0  0
 14 10  1  0  0  0  0
 16 20  1  0  0  0  0
 16 11  1  0  0  0  0
 17 16  1  0  0  0  0
 18 16  1  0  0  0  0
 20 19  3  0  0  0  0
 21 22  1  0  0  0  0
 21 23  1  0  0  0  0
 24 21  1  0  0  0  0
M  END
>  <MODEL>
4

>  <REMARK>
 VINA RESULT:      -7.3      3.750      5.752
  Name = 8smc
  4 active torsions:
  status: ('A' for Active; 'I' for Inactive)
    1  A    between atoms: N_6  and  C_7
    2  A    between atoms: N_8  and  C_15
    3  A    between atoms: C_15  and  C_18
    4  A    between atoms: C_20  and  C_21
                            x       y       z     vdW  Elec       q    Type
                         _______ _______ _______ _____ _____    ______ ____

>  <TORSDO>
F 4

$$$$
8smc
 OpenBabel11062411593D

 24 25  0  0  0  0  0  0  0  0999 V2000
  184.0130  178.1520  141.3380 C   0  0  0  0  0  1  0  0  0  0  0  0
  184.9580  178.9170  142.1250 N   0  0  0  0  0  2  0  0  0  0  0  0
  185.8480  178.2470  143.0490 C   0  0  0  0  0  0  0  0  0  0  0  0
  186.9220  177.6140  142.6160 N   0  0  0  0  0  4  0  0  0  0  0  0
  187.7420  177.0100  143.4460 C   0  0  0  0  0  0  0  0  0  0  0  0
  188.9240  176.2940  142.9900 N   0  0  0  0  0  2  0  0  0  0  0  0
  187.4980  177.0130  144.7420 N   0  0  0  0  0  0  0  0  0  0  0  0
  186.4510  177.6220  145.2550 C   0  0  0  0  0  3  0  0  0  0  0  0
  185.5770  178.2720  144.4010 C   0  0  0  0  0  0  0  0  0  0  0  0
  189.8590  176.6720  141.9420 C   0  0  0  0  0  0  0  0  0  0  0  0
  190.6650  176.8520  139.9400 N   0  0  0  0  0  0  0  0  0  0  0  0
  189.6720  176.3510  140.6200 C   0  0  0  0  0  3  0  0  0  0  0  0
  191.5090  177.5260  140.7710 N   0  0  0  0  0  0  0  0  0  0  0  0
  191.0230  177.4400  142.0100 C   0  0  0  0  0  0  0  0  0  0  0  0
  191.6940  178.0680  143.2290 C   0  0  0  0  0  1  0  0  0  0  0  0
  190.8520  176.7250  138.5090 C   0  0  0  0  0  0  0  0  0  0  0  0
  190.1500  177.8810  137.7960 C   0  0  0  0  0  1  0  0  0  0  0  0
  190.2470  175.4030  138.0430 C   0  0  0  0  0  1  0  0  0  0  0  0
  193.4520  176.7440  137.9320 N   0  0  0  0  0  0  0  0  0  0  0  0
  192.3430  176.7380  138.1790 C   0  0  0  0  0  0  0  0  0  0  0  0
  184.3440  178.9900  144.9180 C   0  0  0  0  0  0  0  0  0  0  0  0
  183.2340  178.3310  144.4870 F   0  0  0  0  0  0  0  0  0  0  0  0
  184.3690  178.9870  146.2810 F   0  0  0  0  0  0  0  0  0  0  0  0
  184.3250  180.2750  144.4660 F   0  0  0  0  0  0  0  0  0  0  0  0
  1  2  1  0  0  0  0
  2  3  1  0  0  0  0
  3  9  1  0  0  0  0
  4  3  2  0  0  0  0
  4  5  2  0  0  0  0
  5  7  2  0  0  0  0
  6  5  1  0  0  0  0
  7  8  1  0  0  0  0
  9 21  1  0  0  0  0
  9  8  2  0  0  0  0
 10 14  1  0  0  0  0
 10  6  1  0  0  0  0
 11 12  1  0  0  0  0
 11 13  1  0  0  0  0
 12 10  2  0  0  0  0
 13 14  2  0  0  0  0
 14 15  1  0  0  0  0
 16 11  1  0  0  0  0
 17 16  1  0  0  0  0
 18 16  1  0  0  0  0
 19 20  3  0  0  0  0
 20 16  1  0  0  0  0
 21 23  1  0  0  0  0
 22 21  1  0  0  0  0
 24 21  1  0  0  0  0
M  END
>  <MODEL>
5

>  <REMARK>
 VINA RESULT:      -7.3      4.436      7.354
  Name = 8smc
  4 active torsions:
  status: ('A' for Active; 'I' for Inactive)
    1  A    between atoms: N_6  and  C_7
    2  A    between atoms: N_8  and  C_15
    3  A    between atoms: C_15  and  C_18
    4  A    between atoms: C_20  and  C_21
                            x       y       z     vdW  Elec       q    Type
                         _______ _______ _______ _____ _____    ______ ____

>  <TORSDO>
F 4

$$$$
8smc
 OpenBabel11062411593D

 24 25  0  0  0  0  0  0  0  0999 V2000
  189.5220  177.8680  145.3440 C   0  0  0  0  0  1  0  0  0  0  0  0
  188.5210  177.0840  144.6480 N   0  0  0  0  0  2  0  0  0  0  0  0
  187.8500  177.6270  143.4860 C   0  0  0  0  0  0  0  0  0  0  0  0
  188.4490  177.6610  142.3110 N   0  0  0  0  0  4  0  0  0  0  0  0
  187.8450  178.1420  141.2480 C   0  0  0  0  0  0  0  0  0  0  0  0
  188.4930  178.2050  139.9460 N   0  0  0  0  0  2  0  0  0  0  0  0
  186.6180  178.6180  141.3390 N   0  0  0  0  0  0  0  0  0  0  0  0
  185.9500  178.6170  142.4710 C   0  0  0  0  0  3  0  0  0  0  0  0
  186.5620  178.1080  143.6030 C   0  0  0  0  0  0  0  0  0  0  0  0
  189.3550  177.2160  139.3200 C   0  0  0  0  0  0  0  0  0  0  0  0
  189.9760  175.7130  137.8900 N   0  0  0  0  0  0  0  0  0  0  0  0
  188.9800  176.4870  138.2180 C   0  0  0  0  0  3  0  0  0  0  0  0
  191.0270  175.9190  138.7330 N   0  0  0  0  0  0  0  0  0  0  0  0
  190.6710  176.8540  139.6140 C   0  0  0  0  0  0  0  0  0  0  0  0
  191.5820  177.3580  140.7310 C   0  0  0  0  0  1  0  0  0  0  0  0
  189.9820  174.7730  136.7880 C   0  0  0  0  0  0  0  0  0  0  0  0
  191.2420  173.9090  136.8560 C   0  0  0  0  0  1  0  0  0  0  0  0
  189.9730  175.5480  135.4730 C   0  0  0  0  0  1  0  0  0  0  0  0
  187.8150  173.2280  136.9030 N   0  0  0  0  0  0  0  0  0  0  0  0
  188.7390  173.8880  136.8560 C   0  0  0  0  0  0  0  0  0  0  0  0
  185.8570  178.0810  144.9470 C   0  0  0  0  0  0  0  0  0  0  0  0
  186.3630  179.0710  145.7320 F   0  0  0  0  0  0  0  0  0  0  0  0
  184.5250  178.2960  144.7520 F   0  0  0  0  0  0  0  0  0  0  0  0
  186.0400  176.8730  145.5490 F   0  0  0  0  0  0  0  0  0  0  0  0
  2  1  1  0  0  0  0
  3  9  1  0  0  0  0
  3  2  1  0  0  0  0
  4  3  2  0  0  0  0
  5  7  2  0  0  0  0
  5  4  2  0  0  0  0
  6  5  1  0  0  0  0
  7  8  1  0  0  0  0
  8  9  2  0  0  0  0
  9 21  1  0  0  0  0
 10 14  1  0  0  0  0
 10  6  1  0  0  0  0
 11 12  1  0  0  0  0
 11 13  1  0  0  0  0
 12 10  2  0  0  0  0
 13 14  2  0  0  0  0
 14 15  1  0  0  0  0
 16 20  1  0  0  0  0
 16 17  1  0  0  0  0
 16 11  1  0  0  0  0
 18 16  1  0  0  0  0
 20 19  3  0  0  0  0
 21 24  1  0  0  0  0
 21 22  1  0  0  0  0
 23 21  1  0  0  0  0
M  END
>  <MODEL>
6

>  <REMARK>
 VINA RESULT:      -7.2      5.030      6.898
  Name = 8smc
  4 active torsions:
  status: ('A' for Active; 'I' for Inactive)
    1  A    between atoms: N_6  and  C_7
    2  A    between atoms: N_8  and  C_15
    3  A    between atoms: C_15  and  C_18
    4  A    between atoms: C_20  and  C_21
                            x       y       z     vdW  Elec       q    Type
                         _______ _______ _______ _____ _____    ______ ____

>  <TORSDO>
F 4

$$$$
8smc
 OpenBabel11062411593D

 24 25  0  0  0  0  0  0  0  0999 V2000
  187.7830  178.4030  141.9480 C   0  0  0  0  0  1  0  0  0  0  0  0
  187.0210  177.5010  142.7880 N   0  0  0  0  0  2  0  0  0  0  0  0
  186.1050  178.0260  143.7770 C   0  0  0  0  0  0  0  0  0  0  0  0
  184.9200  178.4880  143.4260 N   0  0  0  0  0  4  0  0  0  0  0  0
  184.0760  178.9580  144.3160 C   0  0  0  0  0  0  0  0  0  0  0  0
  182.7710  179.4870  143.9490 N   0  0  0  0  0  2  0  0  0  0  0  0
  184.4060  178.9900  145.5930 N   0  0  0  0  0  0  0  0  0  0  0  0
  185.5650  178.5460  146.0260 C   0  0  0  0  0  3  0  0  0  0  0  0
  186.4680  178.0390  145.1080 C   0  0  0  0  0  0  0  0  0  0  0  0
  181.8350  178.9730  142.9620 C   0  0  0  0  0  0  0  0  0  0  0  0
  181.1400  178.2350  141.0480 N   0  0  0  0  0  0  0  0  0  0  0  0
  182.1910  178.7020  141.6630 C   0  0  0  0  0  3  0  0  0  0  0  0
  180.0870  178.1610  141.9090 N   0  0  0  0  0  0  0  0  0  0  0  0
  180.4970  178.5980  143.1000 C   0  0  0  0  0  0  0  0  0  0  0  0
  179.5970  178.6740  144.3320 C   0  0  0  0  0  1  0  0  0  0  0  0
  181.0900  177.8390  139.6550 C   0  0  0  0  0  0  0  0  0  0  0  0
  181.5040  179.0160  138.7720 C   0  0  0  0  0  1  0  0  0  0  0  0
  179.6630  177.4240  139.3080 C   0  0  0  0  0  1  0  0  0  0  0  0
  182.7220  175.7740  139.2470 N   0  0  0  0  0  0  0  0  0  0  0  0
  182.0260  176.6560  139.4200 C   0  0  0  0  0  0  0  0  0  0  0  0
  187.8290  177.5160  145.5320 C   0  0  0  0  0  0  0  0  0  0  0  0
  187.7930  177.2150  146.8590 F   0  0  0  0  0  0  0  0  0  0  0  0
  188.1100  176.3890  144.8210 F   0  0  0  0  0  0  0  0  0  0  0  0
  188.7870  178.4550  145.2950 F   0  0  0  0  0  0  0  0  0  0  0  0
  1  2  1  0  0  0  0
  2  3  1  0  0  0  0
  3  9  1  0  0  0  0
  4  3  2  0  0  0  0
  4  5  2  0  0  0  0
  5  7  2  0  0  0  0
  6  5  1  0  0  0  0
  7  8  1  0  0  0  0
  9 21  1  0  0  0  0
  9  8  2  0  0  0  0
 10 14  1  0  0  0  0
 10  6  1  0  0  0  0
 11 12  1  0  0  0  0
 11 13  1  0  0  0  0
 12 10  2  0  0  0  0
 13 14  2  0  0  0  0
 14 15  1  0  0  0  0
 16 11  1  0  0  0  0
 17 16  1  0  0  0  0
 18 16  1  0  0  0  0
 19 20  3  0  0  0  0
 20 16  1  0  0  0  0
 21 22  1  0  0  0  0
 23 21  1  0  0  0  0
 24 21  1  0  0  0  0
M  END
>  <MODEL>
7

>  <REMARK>
 VINA RESULT:      -7.2      1.757      3.124
  Name = 8smc
  4 active torsions:
  status: ('A' for Active; 'I' for Inactive)
    1  A    between atoms: N_6  and  C_7
    2  A    between atoms: N_8  and  C_15
    3  A    between atoms: C_15  and  C_18
    4  A    between atoms: C_20  and  C_21
                            x       y       z     vdW  Elec       q    Type
                         _______ _______ _______ _____ _____    ______ ____

>  <TORSDO>
F 4

$$$$
8smc
 OpenBabel11062411593D

 24 25  0  0  0  0  0  0  0  0999 V2000
  191.3500  176.2760  144.0270 C   0  0  0  0  0  1  0  0  0  0  0  0
  190.2840  175.7570  143.1930 N   0  0  0  0  0  2  0  0  0  0  0  0
  189.8680  176.4800  142.0100 C   0  0  0  0  0  0  0  0  0  0  0  0
  190.5800  176.4320  140.9010 N   0  0  0  0  0  4  0  0  0  0  0  0
  190.2070  177.0760  139.8180 C   0  0  0  0  0  0  0  0  0  0  0  0
  190.9850  177.0500  138.5890 N   0  0  0  0  0  2  0  0  0  0  0  0
  189.1050  177.8020  139.8230 N   0  0  0  0  0  0  0  0  0  0  0  0
  188.3380  177.9000  140.8860 C   0  0  0  0  0  3  0  0  0  0  0  0
  188.7060  177.2240  142.0360 C   0  0  0  0  0  0  0  0  0  0  0  0
  191.6790  175.9230  137.9850 C   0  0  0  0  0  0  0  0  0  0  0  0
  193.3500  174.6830  137.3870 N   0  0  0  0  0  0  0  0  0  0  0  0
  193.0480  175.8050  137.9760 C   0  0  0  0  0  3  0  0  0  0  0  0
  192.2150  174.0270  137.0170 N   0  0  0  0  0  0  0  0  0  0  0  0
  191.1710  174.7680  137.3890 C   0  0  0  0  0  0  0  0  0  0  0  0
  189.7170  174.3690  137.1440 C   0  0  0  0  0  1  0  0  0  0  0  0
  194.6930  174.1890  137.1600 C   0  0  0  0  0  0  0  0  0  0  0  0
  195.4210  175.1110  136.1820 C   0  0  0  0  0  1  0  0  0  0  0  0
  194.6130  172.7850  136.5660 C   0  0  0  0  0  1  0  0  0  0  0  0
  196.0200  174.0860  139.4670 N   0  0  0  0  0  0  0  0  0  0  0  0
  195.4530  174.1290  138.4840 C   0  0  0  0  0  0  0  0  0  0  0  0
  187.8750  177.2950  143.3040 C   0  0  0  0  0  0  0  0  0  0  0  0
  186.7280  177.9810  143.0440 F   0  0  0  0  0  0  0  0  0  0  0  0
  187.5630  176.0290  143.7000 F   0  0  0  0  0  0  0  0  0  0  0  0
  188.5760  177.9210  144.2900 F   0  0  0  0  0  0  0  0  0  0  0  0
  2  1  1  0  0  0  0
  3  9  1  0  0  0  0
  3  2  1  0  0  0  0
  4  3  2  0  0  0  0
  5  7  2  0  0  0  0
  5  4  2  0  0  0  0
  6  5  1  0  0  0  0
  7  8  1  0  0  0  0
  8  9  2  0  0  0  0
  9 21  1  0  0  0  0
 10  6  1  0  0  0  0
 11 12  1  0  0  0  0
 12 10  2  0  0  0  0
 13 11  1  0  0  0  0
 13 14  2  0  0  0  0
 14 10  1  0  0  0  0
 15 14  1  0  0  0  0
 16 11  1  0  0  0  0
 16 20  1  0  0  0  0
 17 16  1  0  0  0  0
 18 16  1  0  0  0  0
 20 19  3  0  0  0  0
 21 23  1  0  0  0  0
 21 24  1  0  0  0  0
 22 21  1  0  0  0  0
M  END
>  <MODEL>
8

>  <REMARK>
 VINA RESULT:      -7.0      6.854      9.820
  Name = 8smc
  4 active torsions:
  status: ('A' for Active; 'I' for Inactive)
    1  A    between atoms: N_6  and  C_7
    2  A    between atoms: N_8  and  C_15
    3  A    between atoms: C_15  and  C_18
    4  A    between atoms: C_20  and  C_21
                            x       y       z     vdW  Elec       q    Type
                         _______ _______ _______ _____ _____    ______ ____

>  <TORSDO>
F 4

$$$$
8smc
 OpenBabel11062411593D

 24 25  0  0  0  0  0  0  0  0999 V2000
  189.9580  177.1290  144.2580 C   0  0  0  0  0  1  0  0  0  0  0  0
  188.7610  176.5980  143.6380 N   0  0  0  0  0  2  0  0  0  0  0  0
  188.0170  177.3970  142.6870 C   0  0  0  0  0  0  0  0  0  0  0  0
  188.4380  177.5370  141.4450 N   0  0  0  0  0  4  0  0  0  0  0  0
  187.7670  178.2520  140.5700 C   0  0  0  0  0  0  0  0  0  0  0  0
  188.2210  178.4330  139.1990 N   0  0  0  0  0  2  0  0  0  0  0  0
  186.6520  178.8610  140.9260 N   0  0  0  0  0  0  0  0  0  0  0  0
  186.1630  178.7690  142.1430 C   0  0  0  0  0  3  0  0  0  0  0  0
  186.8480  178.0160  143.0790 C   0  0  0  0  0  0  0  0  0  0  0  0
  188.8240  177.4510  138.3120 C   0  0  0  0  0  0  0  0  0  0  0  0
  190.3890  176.2670  137.3970 N   0  0  0  0  0  0  0  0  0  0  0  0
  190.1760  177.2120  138.2690 C   0  0  0  0  0  3  0  0  0  0  0  0
  189.2070  175.8440  136.8660 N   0  0  0  0  0  0  0  0  0  0  0  0
  188.2260  176.5510  137.4280 C   0  0  0  0  0  0  0  0  0  0  0  0
  186.7490  176.3710  137.0870 C   0  0  0  0  0  1  0  0  0  0  0  0
  191.6860  175.7290  137.0420 C   0  0  0  0  0  0  0  0  0  0  0  0
  192.0020  176.0680  135.5860 C   0  0  0  0  0  1  0  0  0  0  0  0
  191.6590  174.2120  137.2130 C   0  0  0  0  0  1  0  0  0  0  0  0
  193.5530  176.7530  138.6420 N   0  0  0  0  0  0  0  0  0  0  0  0
  192.7580  176.3160  137.9580 C   0  0  0  0  0  0  0  0  0  0  0  0
  186.3500  177.8700  144.5050 C   0  0  0  0  0  0  0  0  0  0  0  0
  185.0520  178.2790  144.5650 F   0  0  0  0  0  0  0  0  0  0  0  0
  186.4270  176.5590  144.8680 F   0  0  0  0  0  0  0  0  0  0  0  0
  187.1110  178.6220  145.3480 F   0  0  0  0  0  0  0  0  0  0  0  0
  2  1  1  0  0  0  0
  3  9  1  0  0  0  0
  3  2  1  0  0  0  0
  4  3  2  0  0  0  0
  5  7  2  0  0  0  0
  5  4  2  0  0  0  0
  6  5  1  0  0  0  0
  7  8  1  0  0  0  0
  8  9  2  0  0  0  0
  9 21  1  0  0  0  0
 10  6  1  0  0  0  0
 11 12  1  0  0  0  0
 12 10  2  0  0  0  0
 13 11  1  0  0  0  0
 13 14  2  0  0  0  0
 14 10  1  0  0  0  0
 15 14  1  0  0  0  0
 16 18  1  0  0  0  0
 16 11  1  0  0  0  0
 16 20  1  0  0  0  0
 17 16  1  0  0  0  0
 20 19  3  0  0  0  0
 21 22  1  0  0  0  0
 21 23  1  0  0  0  0
 21 24  1  0  0  0  0
M  END
>  <MODEL>
9

>  <REMARK>
 VINA RESULT:      -7.0      5.282      7.669
  Name = 8smc
  4 active torsions:
  status: ('A' for Active; 'I' for Inactive)
    1  A    between atoms: N_6  and  C_7
    2  A    between atoms: N_8  and  C_15
    3  A    between atoms: C_15  and  C_18
    4  A    between atoms: C_20  and  C_21
                            x       y       z     vdW  Elec       q    Type
                         _______ _______ _______ _____ _____    ______ ____

>  <TORSDO>
F 4

$$$$
