8fo7
 OpenBabel11062411593D

 42 47  0  0  1  0  0  0  0  0999 V2000
  183.4270  178.5210  140.5960 C   0  0  0  0  0  3  0  0  0  0  0  0
  184.0910  178.7810  141.8000 C   0  0  0  0  0  3  0  0  0  0  0  0
  181.3160  178.5110  141.7400 C   0  0  0  0  0  3  0  0  0  0  0  0
  182.0170  178.3790  140.5470 C   0  0  0  0  0  0  0  0  0  0  0  0
  183.3610  178.9130  142.9900 C   0  0  0  0  0  0  0  0  0  0  0  0
  181.9740  178.7740  142.9450 C   0  0  0  0  0  0  0  0  0  0  0  0
  187.8930  177.2740  148.6640 C   0  0  0  0  0  1  0  0  0  0  0  0
  187.5130  176.1490  143.2850 C   0  0  0  0  0  1  0  0  0  0  0  0
  191.8250  178.6260  144.1250 C   0  0  0  0  0  3  0  0  0  0  0  0
  191.0840  178.3570  142.9780 C   0  0  0  0  0  3  0  0  0  0  0  0
  191.2930  178.3400  145.3810 C   0  0  0  0  0  3  0  0  0  0  0  0
  189.8050  177.8020  143.0650 C   0  0  0  0  0  3  0  0  0  0  0  0
  183.8520  179.1610  144.2440 N   0  0  0  0  0  2  0  0  0  0  0  0
  190.3870  177.1710  147.6800 O   0  0  0  0  0  0  0  0  0  0  0  0
  189.5180  177.5090  146.8400 C   0  0  0  0  0  0  0  0  0  0  0  0
  190.0060  177.7840  145.4910 C   0  0  0  0  0  0  0  0  0  0  0  0
  189.2420  177.4990  144.3310 C   0  0  0  0  0  0  0  0  0  0  0  0
  188.1810  177.5790  147.2880 N   0  0  0  0  0  0  0  0  0  0  0  0
  187.9730  176.9520  144.3890 N   0  0  0  0  0  0  0  0  0  0  0  0
  184.9830  179.0520  146.2210 N   0  0  0  0  0  0  0  0  0  0  0  0
  184.9350  178.7470  144.9160 C   0  0  0  0  0  0  0  0  0  0  0  0
  185.9210  178.0540  144.3210 N   0  0  0  0  0  0  0  0  0  0  0  0
  186.9930  177.6500  145.0360 C   0  0  2  0  0  3  0  0  0  0  0  0
  187.0990  177.9590  146.4240 C   0  0  0  0  0  0  0  0  0  0  0  0
  186.0050  178.6860  146.9650 C   0  0  0  0  0  3  0  0  0  0  0  0
  180.7130  175.4550  136.6680 C   0  0  0  0  0  2  0  0  0  0  0  0
  182.9530  175.2460  138.0330 C   0  0  0  0  0  2  0  0  0  0  0  0
  180.5010  176.7740  137.4370 C   0  0  0  0  0  2  0  0  0  0  0  0
  182.0370  175.7880  139.1310 C   0  0  0  0  0  2  0  0  0  0  0  0
  180.6190  179.0680  138.8780 O   0  0  0  0  0  0  0  0  0  0  0  0
  181.3030  178.1080  139.3360 C   0  0  0  0  0  0  0  0  0  0  0  0
  182.1490  174.8630  136.7660 C   0  0  1  0  0  3  0  0  0  0  0  0
  181.2790  176.9270  138.6470 N   0  0  0  0  0  0  0  0  0  0  0  0
  183.4940  170.5620  134.7080 C   0  0  0  0  0  1  0  0  0  0  0  0
  181.3070  171.2260  135.6930 C   0  0  0  0  0  2  0  0  0  0  0  0
  183.3630  171.2430  137.0680 C   0  0  0  0  0  2  0  0  0  0  0  0
  181.4780  172.7420  135.4500 C   0  0  0  0  0  2  0  0  0  0  0  0
  183.5310  172.7480  136.7980 C   0  0  0  0  0  2  0  0  0  0  0  0
  182.6480  170.6080  135.9250 N   0  0  0  0  0  0  0  0  0  0  0  0
  182.2000  173.3770  136.6050 N   0  0  0  0  0  0  0  0  0  0  0  0
  179.9160  178.7430  144.2000 C   0  0  0  0  0  1  0  0  0  0  0  0
  181.3420  178.9100  144.1490 O   0  0  0  0  0  0  0  0  0  0  0  0
  1  2  1  0  0  0  0
  2  5  2  0  0  0  0
  3  6  2  0  0  0  0
  4  1  2  0  0  0  0
  4  3  1  0  0  0  0
  5 13  1  0  0  0  0
  6  5  1  0  0  0  0
  6 42  1  0  0  0  0
  8 19  1  0  0  0  0
  9 11  1  0  0  0  0
 10 12  1  0  0  0  0
 10  9  2  0  0  0  0
 11 16  2  0  0  0  0
 12 17  2  0  0  0  0
 13 21  1  0  0  0  0
 15 18  1  0  0  0  0
 15 14  2  0  0  0  0
 16 15  1  0  0  0  0
 17 19  1  0  0  0  0
 17 16  1  0  0  0  0
 18  7  1  0  0  0  0
 19 23  1  0  0  0  0
 20 25  1  0  0  0  0
 21 20  2  0  0  0  0
 22 21  2  0  0  0  0
 23 22  1  6  0  0  0
 23 24  1  0  0  0  0
 24 25  2  0  0  0  0
 24 18  1  0  0  0  0
 26 32  1  0  0  0  0
 26 28  1  0  0  0  0
 27 29  1  0  0  0  0
 28 33  1  0  0  0  0
 30 31  2  0  0  0  0
 31  4  1  0  0  0  0
 32 40  1  1  0  0  0
 32 27  1  0  0  0  0
 33 29  1  0  0  0  0
 33 31  1  0  0  0  0
 34 39  1  0  0  0  0
 35 39  1  0  0  0  0
 37 35  1  0  0  0  0
 37 40  1  0  0  0  0
 38 36  1  0  0  0  0
 39 36  1  0  0  0  0
 40 38  1  0  0  0  0
 42 41  1  0  0  0  0
M  END
>  <MODEL>
1

>  <REMARK>
 VINA RESULT:     -10.0      0.000      0.000
  Name = 8fo7
  4 active torsions:
  status: ('A' for Active; 'I' for Inactive)
    1  A    between atoms: N_20  and  C_26
    2  A    between atoms: O_23  and  C_27
    3  A    between atoms: C_24  and  C_25
    4  A    between atoms: C_31  and  N_34
                            x       y       z     vdW  Elec       q    Type
                         _______ _______ _______ _____ _____    ______ ____

>  <TORSDO>
F 4

$$$$
8fo7
 OpenBabel11062411593D

 42 47  0  0  1  0  0  0  0  0999 V2000
  189.7790  177.0960  138.6420 C   0  0  0  0  0  3  0  0  0  0  0  0
  189.0440  177.8360  139.5750 C   0  0  0  0  0  3  0  0  0  0  0  0
  187.9100  177.1010  137.1360 C   0  0  0  0  0  3  0  0  0  0  0  0
  189.2180  176.7130  137.3980 C   0  0  0  0  0  0  0  0  0  0  0  0
  187.7260  178.2190  139.2870 C   0  0  0  0  0  0  0  0  0  0  0  0
  187.1720  177.8430  138.0630 C   0  0  0  0  0  0  0  0  0  0  0  0
  183.4950  178.8740  145.3760 C   0  0  0  0  0  1  0  0  0  0  0  0
  187.6450  175.7110  143.6070 C   0  0  0  0  0  1  0  0  0  0  0  0
  189.1550  178.2230  147.7110 C   0  0  0  0  0  3  0  0  0  0  0  0
  189.8300  177.5360  146.7060 C   0  0  0  0  0  3  0  0  0  0  0  0
  187.7890  178.4710  147.5870 C   0  0  0  0  0  3  0  0  0  0  0  0
  189.1580  177.0900  145.5670 C   0  0  0  0  0  3  0  0  0  0  0  0
  186.8740  178.9340  140.0840 N   0  0  0  0  0  2  0  0  0  0  0  0
  185.0600  178.3330  147.4880 O   0  0  0  0  0  0  0  0  0  0  0  0
  185.6640  178.3280  146.3890 C   0  0  0  0  0  0  0  0  0  0  0  0
  187.0940  178.0330  146.4450 C   0  0  0  0  0  0  0  0  0  0  0  0
  187.7680  177.3270  145.4170 C   0  0  0  0  0  0  0  0  0  0  0  0
  184.9010  178.6000  145.2320 N   0  0  0  0  0  0  0  0  0  0  0  0
  187.1270  176.8760  144.2780 N   0  0  0  0  0  0  0  0  0  0  0  0
  185.4440  179.5960  141.7330 N   0  0  0  0  0  0  0  0  0  0  0  0
  186.4510  178.7980  141.3490 C   0  0  0  0  0  0  0  0  0  0  0  0
  186.9980  177.9050  142.1910 N   0  0  0  0  0  0  0  0  0  0  0  0
  186.5390  177.7950  143.4550 C   0  0  2  0  0  3  0  0  0  0  0  0
  185.4780  178.6280  143.9180 C   0  0  0  0  0  0  0  0  0  0  0  0
  184.9590  179.5330  142.9550 C   0  0  0  0  0  3  0  0  0  0  0  0
  193.3590  174.5010  135.5930 C   0  0  0  0  0  2  0  0  0  0  0  0
  193.3370  176.5330  137.2650 C   0  0  0  0  0  2  0  0  0  0  0  0
  191.8450  174.7500  135.4500 C   0  0  0  0  0  2  0  0  0  0  0  0
  192.0300  175.8540  137.6750 C   0  0  0  0  0  2  0  0  0  0  0  0
  189.2840  175.6380  135.3840 O   0  0  0  0  0  0  0  0  0  0  0  0
  189.9360  175.9530  136.4200 C   0  0  0  0  0  0  0  0  0  0  0  0
  194.1490  175.6500  136.2850 C   0  0  1  0  0  3  0  0  0  0  0  0
  191.2350  175.5300  136.5040 N   0  0  0  0  0  0  0  0  0  0  0  0
  197.7910  172.5100  137.4770 C   0  0  0  0  0  1  0  0  0  0  0  0
  196.5740  174.1360  138.9150 C   0  0  0  0  0  2  0  0  0  0  0  0
  197.8490  174.9100  136.9420 C   0  0  0  0  0  2  0  0  0  0  0  0
  195.2820  174.1610  138.0680 C   0  0  0  0  0  2  0  0  0  0  0  0
  196.5570  174.9080  136.1060 C   0  0  0  0  0  2  0  0  0  0  0  0
  197.7460  173.8890  138.0220 N   0  0  0  0  0  0  0  0  0  0  0  0
  195.3920  175.1920  136.9810 N   0  0  0  0  0  0  0  0  0  0  0  0
  184.8930  177.2630  137.5300 C   0  0  0  0  0  1  0  0  0  0  0  0
  185.8820  178.2500  137.8670 O   0  0  0  0  0  0  0  0  0  0  0  0
  1  2  1  0  0  0  0
  3  4  1  0  0  0  0
  3  6  2  0  0  0  0
  4  1  2  0  0  0  0
  5  2  2  0  0  0  0
  5 13  1  0  0  0  0
  6  5  1  0  0  0  0
  8 19  1  0  0  0  0
 10  9  2  0  0  0  0
 11  9  1  0  0  0  0
 12 10  1  0  0  0  0
 13 21  1  0  0  0  0
 15 16  1  0  0  0  0
 15 14  2  0  0  0  0
 16 11  2  0  0  0  0
 17 12  2  0  0  0  0
 17 16  1  0  0  0  0
 18  7  1  0  0  0  0
 18 15  1  0  0  0  0
 19 17  1  0  0  0  0
 20 25  1  0  0  0  0
 21 20  2  0  0  0  0
 21 22  2  0  0  0  0
 23 22  1  1  0  0  0
 23 24  1  0  0  0  0
 23 19  1  0  0  0  0
 24 18  1  0  0  0  0
 25 24  2  0  0  0  0
 27 29  1  0  0  0  0
 28 26  1  0  0  0  0
 28 33  1  0  0  0  0
 30 31  2  0  0  0  0
 31 33  1  0  0  0  0
 31  4  1  0  0  0  0
 32 26  1  1  0  0  0
 32 40  1  0  0  0  0
 32 27  1  0  0  0  0
 33 29  1  0  0  0  0
 34 39  1  0  0  0  0
 36 39  1  0  0  0  0
 37 35  1  0  0  0  0
 38 36  1  0  0  0  0
 38 40  1  0  0  0  0
 39 35  1  0  0  0  0
 40 37  1  0  0  0  0
 41 42  1  0  0  0  0
 42  6  1  0  0  0  0
M  END
>  <MODEL>
2

>  <REMARK>
 VINA RESULT:      -9.6      5.844      8.626
  Name = 8fo7
  4 active torsions:
  status: ('A' for Active; 'I' for Inactive)
    1  A    between atoms: N_20  and  C_26
    2  A    between atoms: O_23  and  C_27
    3  A    between atoms: C_24  and  C_25
    4  A    between atoms: C_31  and  N_34
                            x       y       z     vdW  Elec       q    Type
                         _______ _______ _______ _____ _____    ______ ____

>  <TORSDO>
F 4

$$$$
8fo7
 OpenBabel11062411593D

 42 47  0  0  1  0  0  0  0  0999 V2000
  189.4040  178.5010  138.7700 C   0  0  0  0  0  3  0  0  0  0  0  0
  188.4540  178.4950  137.7430 C   0  0  0  0  0  3  0  0  0  0  0  0
  189.7880  176.1520  138.4540 C   0  0  0  0  0  3  0  0  0  0  0  0
  190.0910  177.3190  139.1460 C   0  0  0  0  0  0  0  0  0  0  0  0
  188.1690  177.3060  137.0560 C   0  0  0  0  0  0  0  0  0  0  0  0
  188.8430  176.1420  137.4250 C   0  0  0  0  0  0  0  0  0  0  0  0
  181.2770  175.9400  134.5970 C   0  0  0  0  0  1  0  0  0  0  0  0
  183.6920  177.6240  139.2540 C   0  0  0  0  0  1  0  0  0  0  0  0
  180.6190  181.2680  137.6100 C   0  0  0  0  0  3  0  0  0  0  0  0
  181.6640  181.2400  138.5280 C   0  0  0  0  0  3  0  0  0  0  0  0
  180.3750  180.1620  136.7970 C   0  0  0  0  0  3  0  0  0  0  0  0
  182.4810  180.1140  138.6490 C   0  0  0  0  0  3  0  0  0  0  0  0
  187.2720  177.1290  136.0380 N   0  0  0  0  0  2  0  0  0  0  0  0
  179.6550  177.7440  135.7450 O   0  0  0  0  0  0  0  0  0  0  0  0
  180.8700  177.8990  136.0180 C   0  0  0  0  0  0  0  0  0  0  0  0
  181.1890  179.0190  136.9010 C   0  0  0  0  0  0  0  0  0  0  0  0
  182.2530  178.9750  137.8360 C   0  0  0  0  0  0  0  0  0  0  0  0
  181.7810  176.9820  135.4520 N   0  0  0  0  0  0  0  0  0  0  0  0
  183.0790  177.8740  137.9740 N   0  0  0  0  0  0  0  0  0  0  0  0
  185.3940  176.7120  134.8120 N   0  0  0  0  0  0  0  0  0  0  0  0
  185.9330  177.1230  135.9700 C   0  0  0  0  0  0  0  0  0  0  0  0
  185.1650  177.5010  137.0050 N   0  0  0  0  0  0  0  0  0  0  0  0
  183.8200  177.4760  136.8970 C   0  0  2  0  0  3  0  0  0  0  0  0
  183.1960  177.0590  135.6850 C   0  0  0  0  0  0  0  0  0  0  0  0
  184.0890  176.6700  134.6510 C   0  0  0  0  0  3  0  0  0  0  0  0
  191.4740  177.1420  143.9790 C   0  0  0  0  0  2  0  0  0  0  0  0
  189.1770  178.0740  143.0970 C   0  0  0  0  0  2  0  0  0  0  0  0
  191.9000  177.1120  142.4980 C   0  0  0  0  0  2  0  0  0  0  0  0
  189.4580  177.0300  142.0160 C   0  0  0  0  0  2  0  0  0  0  0  0
  192.2700  177.3760  139.8250 O   0  0  0  0  0  0  0  0  0  0  0  0
  191.0650  177.2840  140.1950 C   0  0  0  0  0  0  0  0  0  0  0  0
  190.1790  177.9550  144.2710 C   0  0  1  0  0  3  0  0  0  0  0  0
  190.8210  177.1490  141.5340 N   0  0  0  0  0  0  0  0  0  0  0  0
  188.2890  178.2630  148.8410 C   0  0  0  0  0  1  0  0  0  0  0  0
  189.3300  176.3170  147.6900 C   0  0  0  0  0  2  0  0  0  0  0  0
  187.3140  177.4010  146.7530 C   0  0  0  0  0  2  0  0  0  0  0  0
  190.2050  177.1520  146.7280 C   0  0  0  0  0  2  0  0  0  0  0  0
  188.2010  178.2410  145.8170 C   0  0  0  0  0  2  0  0  0  0  0  0
  188.0730  177.0670  147.9910 N   0  0  0  0  0  0  0  0  0  0  0  0
  189.4350  177.4870  145.4820 N   0  0  0  0  0  0  0  0  0  0  0  0
  189.3330  173.8620  136.8110 C   0  0  0  0  0  1  0  0  0  0  0  0
  188.4990  175.0280  136.7110 O   0  0  0  0  0  0  0  0  0  0  0  0
  1  4  1  0  0  0  0
  2  1  2  0  0  0  0
  3  4  2  0  0  0  0
  4 31  1  0  0  0  0
  5  6  2  0  0  0  0
  5  2  1  0  0  0  0
  6  3  1  0  0  0  0
  7 18  1  0  0  0  0
  9 10  1  0  0  0  0
 10 12  2  0  0  0  0
 11 16  1  0  0  0  0
 11  9  2  0  0  0  0
 13  5  1  0  0  0  0
 14 15  2  0  0  0  0
 15 16  1  0  0  0  0
 16 17  2  0  0  0  0
 17 19  1  0  0  0  0
 17 12  1  0  0  0  0
 18 24  1  0  0  0  0
 18 15  1  0  0  0  0
 19  8  1  0  0  0  0
 20 21  2  0  0  0  0
 21 13  1  0  0  0  0
 21 22  2  0  0  0  0
 23 24  1  6  0  0  0
 23 22  1  0  0  0  0
 23 19  1  0  0  0  0
 25 20  1  0  0  0  0
 25 24  2  0  0  0  0
 26 32  1  0  0  0  0
 28 26  1  0  0  0  0
 29 27  1  0  0  0  0
 30 31  2  0  0  0  0
 31 33  1  0  0  0  0
 32 27  1  6  0  0  0
 32 40  1  0  0  0  0
 33 29  1  0  0  0  0
 33 28  1  0  0  0  0
 35 39  1  0  0  0  0
 36 39  1  0  0  0  0
 37 35  1  0  0  0  0
 38 36  1  0  0  0  0
 39 34  1  0  0  0  0
 40 38  1  0  0  0  0
 40 37  1  0  0  0  0
 42 41  1  0  0  0  0
 42  6  1  0  0  0  0
M  END
>  <MODEL>
3

>  <REMARK>
 VINA RESULT:      -8.9      3.777     11.435
  Name = 8fo7
  4 active torsions:
  status: ('A' for Active; 'I' for Inactive)
    1  A    between atoms: N_20  and  C_26
    2  A    between atoms: O_23  and  C_27
    3  A    between atoms: C_24  and  C_25
    4  A    between atoms: C_31  and  N_34
                            x       y       z     vdW  Elec       q    Type
                         _______ _______ _______ _____ _____    ______ ____

>  <TORSDO>
F 4

$$$$
8fo7
 OpenBabel11062411593D

 42 47  0  0  1  0  0  0  0  0999 V2000
  183.4150  178.3620  140.8350 C   0  0  0  0  0  3  0  0  0  0  0  0
  184.1030  178.5820  142.0330 C   0  0  0  0  0  3  0  0  0  0  0  0
  181.3520  179.0070  141.8780 C   0  0  0  0  0  3  0  0  0  0  0  0
  182.0160  178.5720  140.7390 C   0  0  0  0  0  0  0  0  0  0  0  0
  183.4110  179.0250  143.1690 C   0  0  0  0  0  0  0  0  0  0  0  0
  182.0350  179.2320  143.0770 C   0  0  0  0  0  0  0  0  0  0  0  0
  187.9630  177.3480  148.8160 C   0  0  0  0  0  1  0  0  0  0  0  0
  187.4690  176.1240  143.4670 C   0  0  0  0  0  1  0  0  0  0  0  0
  191.8760  178.4660  144.1960 C   0  0  0  0  0  3  0  0  0  0  0  0
  191.1090  178.1990  143.0650 C   0  0  0  0  0  3  0  0  0  0  0  0
  191.3520  178.2250  145.4650 C   0  0  0  0  0  3  0  0  0  0  0  0
  189.8140  177.6920  143.1810 C   0  0  0  0  0  3  0  0  0  0  0  0
  183.9280  179.2820  144.4110 N   0  0  0  0  0  2  0  0  0  0  0  0
  190.4380  177.1370  147.8000 O   0  0  0  0  0  0  0  0  0  0  0  0
  189.5700  177.4870  146.9650 C   0  0  0  0  0  0  0  0  0  0  0  0
  190.0480  177.7170  145.6040 C   0  0  0  0  0  0  0  0  0  0  0  0
  189.2580  177.4350  144.4610 C   0  0  0  0  0  0  0  0  0  0  0  0
  188.2420  177.6140  147.4300 N   0  0  0  0  0  0  0  0  0  0  0  0
  187.9720  176.9340  144.5480 N   0  0  0  0  0  0  0  0  0  0  0  0
  185.0830  179.1750  146.3750 N   0  0  0  0  0  0  0  0  0  0  0  0
  185.0050  178.8440  145.0770 C   0  0  0  0  0  0  0  0  0  0  0  0
  185.9580  178.1050  144.4840 N   0  0  0  0  0  0  0  0  0  0  0  0
  187.0250  177.6790  145.1920 C   0  0  2  0  0  3  0  0  0  0  0  0
  187.1620  178.0130  146.5720 C   0  0  0  0  0  0  0  0  0  0  0  0
  186.1020  178.7880  147.1120 C   0  0  0  0  0  3  0  0  0  0  0  0
  179.4930  180.1370  136.6780 C   0  0  0  0  0  2  0  0  0  0  0  0
  179.7750  181.5100  138.9050 C   0  0  0  0  0  2  0  0  0  0  0  0
  180.0980  178.9570  137.4640 C   0  0  0  0  0  2  0  0  0  0  0  0
  181.0790  180.7130  138.9320 C   0  0  0  0  0  2  0  0  0  0  0  0
  181.0370  177.1450  139.2500 O   0  0  0  0  0  0  0  0  0  0  0  0
  181.2770  178.3540  139.5320 C   0  0  0  0  0  0  0  0  0  0  0  0
  179.0390  181.3420  137.5520 C   0  0  1  0  0  3  0  0  0  0  0  0
  180.8250  179.3100  138.6640 N   0  0  0  0  0  0  0  0  0  0  0  0
  181.0920  185.3970  135.5830 C   0  0  0  0  0  1  0  0  0  0  0  0
  178.9310  185.1490  136.7920 C   0  0  0  0  0  2  0  0  0  0  0  0
  179.3590  183.8870  134.7080 C   0  0  0  0  0  2  0  0  0  0  0  0
  179.3490  183.9070  137.6100 C   0  0  0  0  0  2  0  0  0  0  0  0
  179.7930  182.6660  135.5370 C   0  0  0  0  0  2  0  0  0  0  0  0
  179.6360  185.1340  135.4750 N   0  0  0  0  0  0  0  0  0  0  0  0
  179.0670  182.6520  136.8320 N   0  0  0  0  0  0  0  0  0  0  0  0
  180.1440  180.2740  144.1510 C   0  0  0  0  0  1  0  0  0  0  0  0
  181.4380  179.6550  144.2320 O   0  0  0  0  0  0  0  0  0  0  0  0
  1  2  1  0  0  0  0
  2  5  2  0  0  0  0
  3  6  2  0  0  0  0
  4  1  2  0  0  0  0
  4  3  1  0  0  0  0
  5 13  1  0  0  0  0
  6  5  1  0  0  0  0
  6 42  1  0  0  0  0
  8 19  1  0  0  0  0
  9 11  1  0  0  0  0
 10 12  1  0  0  0  0
 10  9  2  0  0  0  0
 11 16  2  0  0  0  0
 12 17  2  0  0  0  0
 13 21  1  0  0  0  0
 15 18  1  0  0  0  0
 15 14  2  0  0  0  0
 16 15  1  0  0  0  0
 17 19  1  0  0  0  0
 17 16  1  0  0  0  0
 18  7  1  0  0  0  0
 19 23  1  0  0  0  0
 20 25  1  0  0  0  0
 21 20  2  0  0  0  0
 22 21  2  0  0  0  0
 23 22  1  6  0  0  0
 23 24  1  0  0  0  0
 24 25  2  0  0  0  0
 24 18  1  0  0  0  0
 26 28  1  0  0  0  0
 27 29  1  0  0  0  0
 28 33  1  0  0  0  0
 30 31  2  0  0  0  0
 31  4  1  0  0  0  0
 32 26  1  6  0  0  0
 32 27  1  0  0  0  0
 33 29  1  0  0  0  0
 33 31  1  0  0  0  0
 35 37  1  0  0  0  0
 36 39  1  0  0  0  0
 36 38  1  0  0  0  0
 38 40  1  0  0  0  0
 39 34  1  0  0  0  0
 39 35  1  0  0  0  0
 40 32  1  0  0  0  0
 40 37  1  0  0  0  0
 41 42  1  0  0  0  0
M  END
>  <MODEL>
4

>  <REMARK>
 VINA RESULT:      -8.3      3.470      5.655
  Name = 8fo7
  4 active torsions:
  status: ('A' for Active; 'I' for Inactive)
    1  A    between atoms: N_20  and  C_26
    2  A    between atoms: O_23  and  C_27
    3  A    between atoms: C_24  and  C_25
    4  A    between atoms: C_31  and  N_34
                            x       y       z     vdW  Elec       q    Type
                         _______ _______ _______ _____ _____    ______ ____

>  <TORSDO>
F 4

$$$$
8fo7
 OpenBabel11062411593D

 42 47  0  0  1  0  0  0  0  0999 V2000
  186.7860  177.2600  137.1950 C   0  0  0  0  0  3  0  0  0  0  0  0
  186.0630  177.8550  138.2350 C   0  0  0  0  0  3  0  0  0  0  0  0
  188.8420  177.6610  138.3670 C   0  0  0  0  0  3  0  0  0  0  0  0
  188.1990  177.1540  137.2450 C   0  0  0  0  0  0  0  0  0  0  0  0
  186.7350  178.3550  139.3600 C   0  0  0  0  0  0  0  0  0  0  0  0
  188.1250  178.2530  139.4110 C   0  0  0  0  0  0  0  0  0  0  0  0
  184.7200  178.3190  146.5260 C   0  0  0  0  0  1  0  0  0  0  0  0
  188.0950  175.4870  143.2190 C   0  0  0  0  0  1  0  0  0  0  0  0
  190.8380  177.7000  146.8260 C   0  0  0  0  0  3  0  0  0  0  0  0
  191.1550  177.1290  145.5970 C   0  0  0  0  0  3  0  0  0  0  0  0
  189.5040  177.9030  147.1760 C   0  0  0  0  0  3  0  0  0  0  0  0
  190.1520  176.7550  144.7010 C   0  0  0  0  0  3  0  0  0  0  0  0
  186.1830  178.9650  140.4540 N   0  0  0  0  0  2  0  0  0  0  0  0
  186.8950  177.6640  147.9560 O   0  0  0  0  0  0  0  0  0  0  0  0
  187.1060  177.7770  146.7240 C   0  0  0  0  0  0  0  0  0  0  0  0
  188.4790  177.5360  146.2860 C   0  0  0  0  0  0  0  0  0  0  0  0
  188.7870  176.9480  145.0330 C   0  0  0  0  0  0  0  0  0  0  0  0
  186.0040  178.1160  145.9090 N   0  0  0  0  0  0  0  0  0  0  0  0
  187.8140  176.5700  144.1260 N   0  0  0  0  0  0  0  0  0  0  0  0
  185.3640  179.4270  142.5320 N   0  0  0  0  0  0  0  0  0  0  0  0
  186.1980  178.7050  141.7690 C   0  0  0  0  0  0  0  0  0  0  0  0
  186.9990  177.7660  142.3000 N   0  0  0  0  0  0  0  0  0  0  0  0
  186.9790  177.5310  143.6290 C   0  0  2  0  0  3  0  0  0  0  0  0
  186.1190  178.2780  144.4870 C   0  0  0  0  0  0  0  0  0  0  0  0
  185.3050  179.2410  143.8330 C   0  0  0  0  0  3  0  0  0  0  0  0
  192.1540  174.5830  135.5000 C   0  0  0  0  0  2  0  0  0  0  0  0
  192.1180  175.9630  137.7390 C   0  0  0  0  0  2  0  0  0  0  0  0
  190.7940  175.2450  135.2030 C   0  0  0  0  0  2  0  0  0  0  0  0
  190.6460  175.5550  137.6700 C   0  0  0  0  0  2  0  0  0  0  0  0
  188.5410  176.7430  135.0250 O   0  0  0  0  0  0  0  0  0  0  0  0
  188.9730  176.5580  136.1990 C   0  0  0  0  0  0  0  0  0  0  0  0
  192.9580  175.2300  136.6640 C   0  0  1  0  0  3  0  0  0  0  0  0
  190.1090  175.8090  136.3450 N   0  0  0  0  0  0  0  0  0  0  0  0
  197.1680  172.7240  137.4000 C   0  0  0  0  0  1  0  0  0  0  0  0
  194.8140  171.9920  137.7400 C   0  0  0  0  0  2  0  0  0  0  0  0
  195.7200  173.9320  138.9790 C   0  0  0  0  0  2  0  0  0  0  0  0
  194.1950  172.9620  136.7090 C   0  0  0  0  0  2  0  0  0  0  0  0
  195.1160  174.8830  137.9310 C   0  0  0  0  0  2  0  0  0  0  0  0
  196.0280  172.6200  138.3430 N   0  0  0  0  0  0  0  0  0  0  0  0
  193.8860  174.2820  137.3550 N   0  0  0  0  0  0  0  0  0  0  0  0
  189.8440  178.1080  141.0950 C   0  0  0  0  0  1  0  0  0  0  0  0
  188.6980  178.7730  140.5380 O   0  0  0  0  0  0  0  0  0  0  0  0
  1  4  2  0  0  0  0
  1  2  1  0  0  0  0
  2  5  2  0  0  0  0
  3  6  2  0  0  0  0
  4  3  1  0  0  0  0
  5  6  1  0  0  0  0
  5 13  1  0  0  0  0
  6 42  1  0  0  0  0
  8 19  1  0  0  0  0
  9 11  1  0  0  0  0
 10  9  2  0  0  0  0
 12 17  2  0  0  0  0
 12 10  1  0  0  0  0
 13 21  1  0  0  0  0
 15 14  2  0  0  0  0
 16 15  1  0  0  0  0
 16 11  2  0  0  0  0
 17 16  1  0  0  0  0
 18  7  1  0  0  0  0
 18 15  1  0  0  0  0
 19 17  1  0  0  0  0
 20 25  1  0  0  0  0
 21 22  2  0  0  0  0
 21 20  2  0  0  0  0
 23 22  1  1  0  0  0
 23 19  1  0  0  0  0
 23 24  1  0  0  0  0
 24 18  1  0  0  0  0
 25 24  2  0  0  0  0
 28 26  1  0  0  0  0
 28 33  1  0  0  0  0
 29 27  1  0  0  0  0
 30 31  2  0  0  0  0
 31 33  1  0  0  0  0
 31  4  1  0  0  0  0
 32 26  1  6  0  0  0
 32 40  1  0  0  0  0
 32 27  1  0  0  0  0
 33 29  1  0  0  0  0
 34 39  1  0  0  0  0
 35 39  1  0  0  0  0
 37 40  1  0  0  0  0
 37 35  1  0  0  0  0
 38 36  1  0  0  0  0
 39 36  1  0  0  0  0
 40 38  1  0  0  0  0
 42 41  1  0  0  0  0
M  END
>  <MODEL>
5

>  <REMARK>
 VINA RESULT:      -7.3      5.495      7.711
  Name = 8fo7
  4 active torsions:
  status: ('A' for Active; 'I' for Inactive)
    1  A    between atoms: N_20  and  C_26
    2  A    between atoms: O_23  and  C_27
    3  A    between atoms: C_24  and  C_25
    4  A    between atoms: C_31  and  N_34
                            x       y       z     vdW  Elec       q    Type
                         _______ _______ _______ _____ _____    ______ ____

>  <TORSDO>
F 4

$$$$
8fo7
 OpenBabel11062411593D

 42 47  0  0  1  0  0  0  0  0999 V2000
  184.4410  177.4600  136.2200 C   0  0  0  0  0  3  0  0  0  0  0  0
  185.7960  177.3110  136.5340 C   0  0  0  0  0  3  0  0  0  0  0  0
  184.0770  175.1170  136.5970 C   0  0  0  0  0  3  0  0  0  0  0  0
  183.5530  176.3540  136.2460 C   0  0  0  0  0  0  0  0  0  0  0  0
  186.3010  176.0530  136.8890 C   0  0  0  0  0  0  0  0  0  0  0  0
  185.4300  174.9640  136.9150 C   0  0  0  0  0  0  0  0  0  0  0  0
  192.6680  177.5140  140.4600 C   0  0  0  0  0  1  0  0  0  0  0  0
  187.3800  179.0340  140.7520 C   0  0  0  0  0  1  0  0  0  0  0  0
  188.6570  176.7670  145.0720 C   0  0  0  0  0  3  0  0  0  0  0  0
  187.4370  177.0800  144.4790 C   0  0  0  0  0  3  0  0  0  0  0  0
  189.8410  176.9210  144.3510 C   0  0  0  0  0  3  0  0  0  0  0  0
  187.3780  177.5460  143.1650 C   0  0  0  0  0  3  0  0  0  0  0  0
  187.5920  175.7370  137.2180 N   0  0  0  0  0  2  0  0  0  0  0  0
  192.0610  177.8470  143.0530 O   0  0  0  0  0  0  0  0  0  0  0  0
  191.0840  177.5240  142.3360 C   0  0  0  0  0  0  0  0  0  0  0  0
  189.8030  177.3860  143.0250 C   0  0  0  0  0  0  0  0  0  0  0  0
  188.5680  177.7140  142.4110 C   0  0  0  0  0  0  0  0  0  0  0  0
  191.3290  177.3370  140.9580 N   0  0  0  0  0  0  0  0  0  0  0  0
  188.4810  178.1760  141.1100 N   0  0  0  0  0  0  0  0  0  0  0  0
  189.7150  175.7590  138.0530 N   0  0  0  0  0  0  0  0  0  0  0  0
  188.4400  176.1630  138.1650 C   0  0  0  0  0  0  0  0  0  0  0  0
  188.0430  176.9600  139.1710 N   0  0  0  0  0  0  0  0  0  0  0  0
  188.9300  177.3710  140.1020 C   0  0  2  0  0  3  0  0  0  0  0  0
  190.2940  176.9610  140.0360 C   0  0  0  0  0  0  0  0  0  0  0  0
  190.6210  176.1280  138.9330 C   0  0  0  0  0  3  0  0  0  0  0  0
  179.2160  178.8790  135.9040 C   0  0  0  0  0  2  0  0  0  0  0  0
  181.1800  179.4640  137.5550 C   0  0  0  0  0  2  0  0  0  0  0  0
  179.9970  177.5820  135.6170 C   0  0  0  0  0  2  0  0  0  0  0  0
  181.9870  178.8520  136.4090 C   0  0  0  0  0  2  0  0  0  0  0  0
  181.6030  175.3980  135.5410 O   0  0  0  0  0  0  0  0  0  0  0  0
  182.1620  176.4650  135.9260 C   0  0  0  0  0  0  0  0  0  0  0  0
  179.6980  179.6700  137.1550 C   0  0  1  0  0  3  0  0  0  0  0  0
  181.3960  177.5970  135.9840 N   0  0  0  0  0  0  0  0  0  0  0  0
  180.8010  184.4630  136.5610 C   0  0  0  0  0  1  0  0  0  0  0  0
  179.1940  183.3960  138.1320 C   0  0  0  0  0  2  0  0  0  0  0  0
  178.9310  183.1240  135.6880 C   0  0  0  0  0  2  0  0  0  0  0  0
  179.9120  182.0290  138.1890 C   0  0  0  0  0  2  0  0  0  0  0  0
  179.6680  181.7750  135.7590 C   0  0  0  0  0  2  0  0  0  0  0  0
  179.4070  184.0100  136.7870 N   0  0  0  0  0  0  0  0  0  0  0  0
  179.4290  181.1400  137.0790 N   0  0  0  0  0  0  0  0  0  0  0  0
  185.1530  172.6470  137.5210 C   0  0  0  0  0  1  0  0  0  0  0  0
  186.0060  173.7740  137.2640 O   0  0  0  0  0  0  0  0  0  0  0  0
  1  4  2  0  0  0  0
  1  2  1  0  0  0  0
  2  5  2  0  0  0  0
  3  6  2  0  0  0  0
  4  3  1  0  0  0  0
  5  6  1  0  0  0  0
  5 13  1  0  0  0  0
  6 42  1  0  0  0  0
  7 18  1  0  0  0  0
  8 19  1  0  0  0  0
 10  9  1  0  0  0  0
 11  9  2  0  0  0  0
 12 10  2  0  0  0  0
 13 21  1  0  0  0  0
 15 16  1  0  0  0  0
 15 14  2  0  0  0  0
 16 11  1  0  0  0  0
 17 16  2  0  0  0  0
 17 12  1  0  0  0  0
 18 15  1  0  0  0  0
 19 17  1  0  0  0  0
 20 21  2  0  0  0  0
 20 25  1  0  0  0  0
 21 22  2  0  0  0  0
 23 22  1  1  0  0  0
 23 19  1  0  0  0  0
 24 23  1  0  0  0  0
 24 18  1  0  0  0  0
 25 24  2  0  0  0  0
 28 26  1  0  0  0  0
 28 33  1  0  0  0  0
 29 27  1  0  0  0  0
 30 31  2  0  0  0  0
 31 33  1  0  0  0  0
 31  4  1  0  0  0  0
 32 26  1  6  0  0  0
 32 27  1  0  0  0  0
 33 29  1  0  0  0  0
 34 39  1  0  0  0  0
 35 37  1  0  0  0  0
 36 38  1  0  0  0  0
 36 39  1  0  0  0  0
 38 40  1  0  0  0  0
 39 35  1  0  0  0  0
 40 32  1  0  0  0  0
 40 37  1  0  0  0  0
 42 41  1  0  0  0  0
M  END
>  <MODEL>
6

>  <REMARK>
 VINA RESULT:      -7.1      4.099      7.353
  Name = 8fo7
  4 active torsions:
  status: ('A' for Active; 'I' for Inactive)
    1  A    between atoms: N_20  and  C_26
    2  A    between atoms: O_23  and  C_27
    3  A    between atoms: C_24  and  C_25
    4  A    between atoms: C_31  and  N_34
                            x       y       z     vdW  Elec       q    Type
                         _______ _______ _______ _____ _____    ______ ____

>  <TORSDO>
F 4

$$$$
8fo7
 OpenBabel11062411593D

 42 47  0  0  1  0  0  0  0  0999 V2000
  184.1160  179.1150  143.3610 C   0  0  0  0  0  3  0  0  0  0  0  0
  183.1670  179.2950  142.3490 C   0  0  0  0  0  3  0  0  0  0  0  0
  182.3730  178.5960  144.9290 C   0  0  0  0  0  3  0  0  0  0  0  0
  183.7290  178.7600  144.6790 C   0  0  0  0  0  0  0  0  0  0  0  0
  181.8040  179.1190  142.6240 C   0  0  0  0  0  0  0  0  0  0  0  0
  181.4210  178.7710  143.9200 C   0  0  0  0  0  0  0  0  0  0  0  0
  179.0040  179.1570  135.7270 C   0  0  0  0  0  1  0  0  0  0  0  0
  183.4900  177.2620  138.3030 C   0  0  0  0  0  1  0  0  0  0  0  0
  180.9520  173.3530  136.3760 C   0  0  0  0  0  3  0  0  0  0  0  0
  181.9520  173.4640  137.3370 C   0  0  0  0  0  3  0  0  0  0  0  0
  180.3290  174.4980  135.8830 C   0  0  0  0  0  3  0  0  0  0  0  0
  182.3450  174.7140  137.8210 C   0  0  0  0  0  3  0  0  0  0  0  0
  180.7550  179.2600  141.7560 N   0  0  0  0  0  2  0  0  0  0  0  0
  179.6600  176.8140  134.5940 O   0  0  0  0  0  0  0  0  0  0  0  0
  180.0120  176.9190  135.7940 C   0  0  0  0  0  0  0  0  0  0  0  0
  180.7070  175.7660  136.3600 C   0  0  0  0  0  0  0  0  0  0  0  0
  181.7290  175.8950  137.3340 C   0  0  0  0  0  0  0  0  0  0  0  0
  179.7030  178.1290  136.4530 N   0  0  0  0  0  0  0  0  0  0  0  0
  182.1350  177.1200  137.8320 N   0  0  0  0  0  0  0  0  0  0  0  0
  179.4550  179.4200  139.8880 N   0  0  0  0  0  0  0  0  0  0  0  0
  180.5660  178.9410  140.4680 C   0  0  0  0  0  0  0  0  0  0  0  0
  181.4430  178.1870  139.7840 N   0  0  0  0  0  0  0  0  0  0  0  0
  181.2190  177.8930  138.4860 C   0  0  2  0  0  3  0  0  0  0  0  0
  180.0470  178.3680  137.8260 C   0  0  0  0  0  0  0  0  0  0  0  0
  179.1850  179.1630  138.6270 C   0  0  0  0  0  3  0  0  0  0  0  0
  188.3210  177.7840  146.4860 C   0  0  0  0  0  2  0  0  0  0  0  0
  187.4250  177.0090  144.1360 C   0  0  0  0  0  2  0  0  0  0  0  0
  186.8650  178.1990  146.7760 C   0  0  0  0  0  2  0  0  0  0  0  0
  186.6220  178.3000  144.3000 C   0  0  0  0  0  2  0  0  0  0  0  0
  184.1910  178.6240  146.9110 O   0  0  0  0  0  0  0  0  0  0  0  0
  184.6700  178.5730  145.7420 C   0  0  0  0  0  0  0  0  0  0  0  0
  188.5050  176.8720  145.2370 C   0  0  1  0  0  3  0  0  0  0  0  0
  186.0150  178.3590  145.6170 N   0  0  0  0  0  0  0  0  0  0  0  0
  191.7270  177.5030  141.5280 C   0  0  0  0  0  1  0  0  0  0  0  0
  191.8730  176.0020  143.5080 C   0  0  0  0  0  2  0  0  0  0  0  0
  191.6840  178.4520  143.7970 C   0  0  0  0  0  2  0  0  0  0  0  0
  190.3480  175.8770  143.7230 C   0  0  0  0  0  2  0  0  0  0  0  0
  190.1630  178.3110  143.9880 C   0  0  0  0  0  2  0  0  0  0  0  0
  192.1810  177.3460  142.9310 N   0  0  0  0  0  0  0  0  0  0  0  0
  189.8510  176.9940  144.5970 N   0  0  0  0  0  0  0  0  0  0  0  0
  179.3320  179.7370  144.6350 C   0  0  0  0  0  1  0  0  0  0  0  0
  180.0740  178.6280  144.1030 O   0  0  0  0  0  0  0  0  0  0  0  0
  1  4  1  0  0  0  0
  2  5  1  0  0  0  0
  2  1  2  0  0  0  0
  4  3  2  0  0  0  0
  4 31  1  0  0  0  0
  5  6  2  0  0  0  0
  6 42  1  0  0  0  0
  6  3  1  0  0  0  0
  7 18  1  0  0  0  0
  9 10  1  0  0  0  0
 10 12  2  0  0  0  0
 11 16  1  0  0  0  0
 11  9  2  0  0  0  0
 13  5  1  0  0  0  0
 14 15  2  0  0  0  0
 15 16  1  0  0  0  0
 15 18  1  0  0  0  0
 16 17  2  0  0  0  0
 17 12  1  0  0  0  0
 17 19  1  0  0  0  0
 18 24  1  0  0  0  0
 19  8  1  0  0  0  0
 19 23  1  0  0  0  0
 20 21  2  0  0  0  0
 21 13  1  0  0  0  0
 22 21  2  0  0  0  0
 23 24  1  1  0  0  0
 23 22  1  0  0  0  0
 24 25  2  0  0  0  0
 25 20  1  0  0  0  0
 26 28  1  0  0  0  0
 27 29  1  0  0  0  0
 29 33  1  0  0  0  0
 31 30  2  0  0  0  0
 32 27  1  6  0  0  0
 32 26  1  0  0  0  0
 33 31  1  0  0  0  0
 33 28  1  0  0  0  0
 34 39  1  0  0  0  0
 35 37  1  0  0  0  0
 36 38  1  0  0  0  0
 37 40  1  0  0  0  0
 38 40  1  0  0  0  0
 39 35  1  0  0  0  0
 39 36  1  0  0  0  0
 40 32  1  0  0  0  0
 42 41  1  0  0  0  0
M  END
>  <MODEL>
7

>  <REMARK>
 VINA RESULT:      -7.1      2.325     10.219
  Name = 8fo7
  4 active torsions:
  status: ('A' for Active; 'I' for Inactive)
    1  A    between atoms: N_20  and  C_26
    2  A    between atoms: O_23  and  C_27
    3  A    between atoms: C_24  and  C_25
    4  A    between atoms: C_31  and  N_34
                            x       y       z     vdW  Elec       q    Type
                         _______ _______ _______ _____ _____    ______ ____

>  <TORSDO>
F 4

$$$$
8fo7
 OpenBabel11062411593D

 42 47  0  0  1  0  0  0  0  0999 V2000
  188.8140  178.3480  141.9870 C   0  0  0  0  0  3  0  0  0  0  0  0
  187.4660  178.4560  142.3470 C   0  0  0  0  0  3  0  0  0  0  0  0
  189.3830  177.7160  144.2320 C   0  0  0  0  0  3  0  0  0  0  0  0
  189.8020  177.9740  142.9330 C   0  0  0  0  0  0  0  0  0  0  0  0
  187.0670  178.1850  143.6630 C   0  0  0  0  0  0  0  0  0  0  0  0
  188.0370  177.8180  144.5960 C   0  0  0  0  0  0  0  0  0  0  0  0
  179.8590  179.9460  143.0580 C   0  0  0  0  0  1  0  0  0  0  0  0
  184.1470  179.0800  139.7090 C   0  0  0  0  0  1  0  0  0  0  0  0
  180.5850  175.6540  138.7050 C   0  0  0  0  0  3  0  0  0  0  0  0
  181.9400  175.7430  138.4000 C   0  0  0  0  0  3  0  0  0  0  0  0
  180.0110  176.5580  139.5980 C   0  0  0  0  0  3  0  0  0  0  0  0
  182.7410  176.7290  138.9800 C   0  0  0  0  0  3  0  0  0  0  0  0
  185.7990  178.2470  144.1780 N   0  0  0  0  0  2  0  0  0  0  0  0
  178.9320  178.7340  140.8510 O   0  0  0  0  0  0  0  0  0  0  0  0
  180.1280  178.4670  141.1180 C   0  0  0  0  0  0  0  0  0  0  0  0
  180.8010  177.5560  140.1960 C   0  0  0  0  0  0  0  0  0  0  0  0
  182.1810  177.6620  139.8890 C   0  0  0  0  0  0  0  0  0  0  0  0
  180.6840  179.0750  142.2650 N   0  0  0  0  0  0  0  0  0  0  0  0
  182.9980  178.6270  140.4510 N   0  0  0  0  0  0  0  0  0  0  0  0
  183.5750  178.6370  144.4970 N   0  0  0  0  0  0  0  0  0  0  0  0
  184.5870  178.4380  143.6390 C   0  0  0  0  0  0  0  0  0  0  0  0
  184.3890  178.4380  142.3100 N   0  0  0  0  0  0  0  0  0  0  0  0
  183.1530  178.6390  141.8080 C   0  0  2  0  0  3  0  0  0  0  0  0
  182.0400  178.8440  142.6770 C   0  0  0  0  0  0  0  0  0  0  0  0
  182.3490  178.8350  144.0630 C   0  0  0  0  0  3  0  0  0  0  0  0
  193.5990  176.9990  139.7810 C   0  0  0  0  0  2  0  0  0  0  0  0
  191.1650  176.0220  139.5640 C   0  0  0  0  0  2  0  0  0  0  0  0
  193.1500  177.5030  141.1670 C   0  0  0  0  0  2  0  0  0  0  0  0
  190.8430  177.3560  140.2390 C   0  0  0  0  0  2  0  0  0  0  0  0
  191.9960  178.0510  143.5590 O   0  0  0  0  0  0  0  0  0  0  0  0
  191.1910  177.8580  142.6040 C   0  0  0  0  0  0  0  0  0  0  0  0
  192.6490  175.9560  139.1240 C   0  0  1  0  0  3  0  0  0  0  0  0
  191.7200  177.5770  141.3740 N   0  0  0  0  0  0  0  0  0  0  0  0
  192.9690  173.9760  134.5940 C   0  0  0  0  0  1  0  0  0  0  0  0
  193.9440  176.0940  135.4640 C   0  0  0  0  0  2  0  0  0  0  0  0
  191.4960  175.7370  135.4770 C   0  0  0  0  0  2  0  0  0  0  0  0
  193.9990  175.6470  136.9420 C   0  0  0  0  0  2  0  0  0  0  0  0
  191.5720  175.2740  136.9430 C   0  0  0  0  0  2  0  0  0  0  0  0
  192.7840  175.4340  134.7920 N   0  0  0  0  0  0  0  0  0  0  0  0
  192.6990  175.9540  137.6290 N   0  0  0  0  0  0  0  0  0  0  0  0
  188.5010  177.5250  146.9440 C   0  0  0  0  0  1  0  0  0  0  0  0
  187.5630  177.5810  145.8560 O   0  0  0  0  0  0  0  0  0  0  0  0
  1  2  2  0  0  0  0
  1  4  1  0  0  0  0
  2  5  1  0  0  0  0
  3  6  1  0  0  0  0
  4  3  2  0  0  0  0
  5 13  1  0  0  0  0
  5  6  2  0  0  0  0
  6 42  1  0  0  0  0
  8 19  1  0  0  0  0
  9 11  1  0  0  0  0
 10  9  2  0  0  0  0
 10 12  1  0  0  0  0
 11 16  2  0  0  0  0
 12 17  2  0  0  0  0
 14 15  2  0  0  0  0
 15 18  1  0  0  0  0
 16 15  1  0  0  0  0
 17 16  1  0  0  0  0
 17 19  1  0  0  0  0
 18 24  1  0  0  0  0
 18  7  1  0  0  0  0
 19 23  1  0  0  0  0
 21 13  1  0  0  0  0
 21 20  2  0  0  0  0
 22 21  2  0  0  0  0
 23 22  1  1  0  0  0
 23 24  1  0  0  0  0
 24 25  2  0  0  0  0
 25 20  1  0  0  0  0
 26 28  1  0  0  0  0
 27 29  1  0  0  0  0
 28 33  1  0  0  0  0
 29 33  1  0  0  0  0
 31  4  1  0  0  0  0
 31 30  2  0  0  0  0
 32 40  1  6  0  0  0
 32 27  1  0  0  0  0
 32 26  1  0  0  0  0
 33 31  1  0  0  0  0
 34 39  1  0  0  0  0
 35 37  1  0  0  0  0
 36 38  1  0  0  0  0
 37 40  1  0  0  0  0
 38 40  1  0  0  0  0
 39 35  1  0  0  0  0
 39 36  1  0  0  0  0
 42 41  1  0  0  0  0
M  END
>  <MODEL>
8

>  <REMARK>
 VINA RESULT:      -7.0      4.116      9.232
  Name = 8fo7
  4 active torsions:
  status: ('A' for Active; 'I' for Inactive)
    1  A    between atoms: N_20  and  C_26
    2  A    between atoms: O_23  and  C_27
    3  A    between atoms: C_24  and  C_25
    4  A    between atoms: C_31  and  N_34
                            x       y       z     vdW  Elec       q    Type
                         _______ _______ _______ _____ _____    ______ ____

>  <TORSDO>
F 4

$$$$
