8u8b
 OpenBabel11062411593D

 41 45  0  0  0  0  0  0  0  0999 V2000
  188.3520  178.1890  142.5390 N   0  0  0  0  0  2  0  0  0  0  0  0
  189.1210  177.2620  141.6970 C   0  0  0  0  0  0  0  0  0  0  0  0
  189.2670  177.5810  140.2740 N   0  0  0  0  0  2  0  0  0  0  0  0
  189.6050  176.2860  142.1690 O   0  0  0  0  0  0  0  0  0  0  0  0
  189.3540  176.0600  138.2610 C   0  0  0  0  0  3  0  0  0  0  0  0
  190.1100  175.3670  137.3270 C   0  0  0  0  0  3  0  0  0  0  0  0
  191.4920  175.4080  137.3720 C   0  0  0  0  0  0  0  0  0  0  0  0
  192.1170  176.1700  138.3460 C   0  0  0  0  0  3  0  0  0  0  0  0
  191.3570  176.8560  139.2750 C   0  0  0  0  0  0  0  0  0  0  0  0
  189.9830  176.8050  139.2510 C   0  0  0  0  0  0  0  0  0  0  0  0
  191.9640  177.5960  140.2410 F   0  0  0  0  0  0  0  0  0  0  0  0
  192.2700  174.7340  136.4140 O   0  0  0  0  0  0  0  0  0  0  0  0
  195.0210  176.8650  135.0970 C   0  0  0  0  0  3  0  0  0  0  0  0
  196.0640  176.2570  135.6380 N   0  0  0  0  0  0  0  0  0  0  0  0
  195.9170  175.1950  136.4050 C   0  0  0  0  0  0  0  0  0  0  0  0
  194.6600  174.6810  136.6660 C   0  0  0  0  0  3  0  0  0  0  0  0
  193.5330  175.2890  136.1330 C   0  0  0  0  0  0  0  0  0  0  0  0
  193.7300  176.3990  135.3240 C   0  0  0  0  0  3  0  0  0  0  0  0
  197.1260  174.4980  137.0240 C   0  0  0  0  0  0  0  0  0  0  0  0
  197.3370  173.3620  136.7690 O   0  0  0  0  0  0  0  0  0  0  0  0
  198.0190  175.2050  137.9200 N   0  0  0  0  0  2  0  0  0  0  0  0
  199.1520  174.4930  138.4800 C   0  0  0  0  0  1  0  0  0  0  0  0
  188.5330  177.5120  146.1290 C   0  0  0  0  0  0  0  0  0  0  0  0
  189.1430  177.6630  144.8880 C   0  0  0  0  0  3  0  0  0  0  0  0
  188.1570  177.9530  143.9740 C   0  0  0  0  0  0  0  0  0  0  0  0
  187.0130  177.9820  144.6330 N   0  0  0  0  0  0  0  0  0  0  0  0
  187.2210  177.7150  145.9660 N   0  0  0  0  0  0  0  0  0  0  0  0
  185.6960  178.2620  144.0630 C   0  0  0  0  0  0  0  0  0  0  0  0
  184.6880  178.7580  144.8940 C   0  0  0  0  0  3  0  0  0  0  0  0
  183.4230  179.0230  144.3730 C   0  0  0  0  0  3  0  0  0  0  0  0
  183.1530  178.7840  142.9910 C   0  0  0  0  0  0  0  0  0  0  0  0
  184.1360  178.2980  142.1810 C   0  0  0  0  0  0  0  0  0  0  0  0
  185.4340  178.0220  142.7150 C   0  0  0  0  0  3  0  0  0  0  0  0
  181.6190  178.8360  141.1740 C   0  0  0  0  0  3  0  0  0  0  0  0
  181.8890  179.0570  142.4840 N   0  0  0  0  0  0  0  0  0  0  0  0
  183.8560  178.0690  140.8310 C   0  0  0  0  0  3  0  0  0  0  0  0
  182.6130  178.3350  140.3330 C   0  0  0  0  0  3  0  0  0  0  0  0
  189.2380  177.1830  147.4480 C   0  0  0  0  0  0  0  0  0  0  0  0
  190.6910  176.8060  147.1690 C   0  0  0  0  0  1  0  0  0  0  0  0
  188.5180  176.0180  148.1230 C   0  0  0  0  0  1  0  0  0  0  0  0
  189.1910  178.4070  148.3450 C   0  0  0  0  0  1  0  0  0  0  0  0
  1 25  1  0  0  0  0
  2  4  2  0  0  0  0
  2  1  1  0  0  0  0
  3  2  1  0  0  0  0
  5 10  1  0  0  0  0
  6  7  1  0  0  0  0
  6  5  2  0  0  0  0
  7  8  2  0  0  0  0
  8  9  1  0  0  0  0
  9 11  1  0  0  0  0
 10  9  2  0  0  0  0
 10  3  1  0  0  0  0
 12  7  1  0  0  0  0
 13 18  2  0  0  0  0
 13 14  1  0  0  0  0
 14 15  2  0  0  0  0
 15 16  1  0  0  0  0
 15 19  1  0  0  0  0
 17 12  1  0  0  0  0
 17 16  2  0  0  0  0
 18 17  1  0  0  0  0
 19 21  1  0  0  0  0
 20 19  2  0  0  0  0
 21 22  1  0  0  0  0
 23 38  1  0  0  0  0
 24 23  1  0  0  0  0
 25 26  1  0  0  0  0
 25 24  2  0  0  0  0
 26 27  1  0  0  0  0
 27 23  2  0  0  0  0
 28 26  1  0  0  0  0
 28 29  1  0  0  0  0
 30 29  2  0  0  0  0
 31 30  1  0  0  0  0
 32 33  1  0  0  0  0
 32 31  2  0  0  0  0
 33 28  2  0  0  0  0
 34 35  2  0  0  0  0
 35 31  1  0  0  0  0
 36 32  1  0  0  0  0
 37 36  2  0  0  0  0
 37 34  1  0  0  0  0
 38 40  1  0  0  0  0
 38 41  1  0  0  0  0
 39 38  1  0  0  0  0
M  END
>  <MODEL>
1

>  <REMARK>
 VINA RESULT:     -10.0      0.000      0.000
  Name = 8u8b
  7 active torsions:
  status: ('A' for Active; 'I' for Inactive)
    1  A    between atoms: C_1  and  N_26
    2  A    between atoms: C_13  and  C_33
    3  A    between atoms: C_15  and  O_32
    4  A    between atoms: C_19  and  O_32
    5  A    between atoms: C_22  and  N_30
    6  A    between atoms: C_23  and  C_37
    7  A    between atoms: C_25  and  N_28
                            x       y       z     vdW  Elec       q    Type
                         _______ _______ _______ _____ _____    ______ ____

>  <TORSDO>
F 7

$$$$
8u8b
 OpenBabel11062411593D

 41 45  0  0  0  0  0  0  0  0999 V2000
  188.0880  178.3210  142.6530 N   0  0  0  0  0  2  0  0  0  0  0  0
  188.8170  177.4180  141.7500 C   0  0  0  0  0  0  0  0  0  0  0  0
  188.9120  177.7860  140.3340 N   0  0  0  0  0  2  0  0  0  0  0  0
  189.3100  176.4230  142.1690 O   0  0  0  0  0  0  0  0  0  0  0  0
  190.9240  176.6820  139.2840 C   0  0  0  0  0  3  0  0  0  0  0  0
  191.4710  175.9680  138.2280 C   0  0  0  0  0  3  0  0  0  0  0  0
  190.6920  175.6100  137.1430 C   0  0  0  0  0  0  0  0  0  0  0  0
  189.3490  175.9510  137.1300 C   0  0  0  0  0  3  0  0  0  0  0  0
  188.8110  176.6650  138.1850 C   0  0  0  0  0  0  0  0  0  0  0  0
  189.5820  177.0430  139.2590 C   0  0  0  0  0  0  0  0  0  0  0  0
  187.4960  177.0130  138.1740 F   0  0  0  0  0  0  0  0  0  0  0  0
  191.2270  174.8610  136.0790 O   0  0  0  0  0  0  0  0  0  0  0  0
  194.5240  173.2290  136.6360 C   0  0  0  0  0  3  0  0  0  0  0  0
  195.3310  174.1970  136.2340 N   0  0  0  0  0  0  0  0  0  0  0  0
  194.8590  175.3460  135.7940 C   0  0  0  0  0  0  0  0  0  0  0  0
  193.4960  175.5760  135.7410 C   0  0  0  0  0  3  0  0  0  0  0  0
  192.6070  174.5890  136.1390 C   0  0  0  0  0  0  0  0  0  0  0  0
  193.1430  173.3970  136.6040 C   0  0  0  0  0  3  0  0  0  0  0  0
  195.7980  176.4580  135.3340 C   0  0  0  0  0  0  0  0  0  0  0  0
  196.8960  176.1880  134.9850 O   0  0  0  0  0  0  0  0  0  0  0  0
  195.3670  177.8420  135.3180 N   0  0  0  0  0  2  0  0  0  0  0  0
  196.3010  178.8590  134.8720 C   0  0  0  0  0  1  0  0  0  0  0  0
  188.3990  177.5250  146.2090 C   0  0  0  0  0  0  0  0  0  0  0  0
  188.9640  177.7220  144.9530 C   0  0  0  0  0  3  0  0  0  0  0  0
  187.9450  178.0350  144.0840 C   0  0  0  0  0  0  0  0  0  0  0  0
  186.8250  178.0330  144.7840 N   0  0  0  0  0  0  0  0  0  0  0  0
  187.0810  177.7230  146.0990 N   0  0  0  0  0  0  0  0  0  0  0  0
  185.4870  178.3220  144.2700 C   0  0  0  0  0  0  0  0  0  0  0  0
  184.5090  178.7910  145.1510 C   0  0  0  0  0  3  0  0  0  0  0  0
  183.2240  179.0640  144.6840 C   0  0  0  0  0  3  0  0  0  0  0  0
  182.9050  178.8610  143.3060 C   0  0  0  0  0  0  0  0  0  0  0  0
  183.8590  178.4010  142.4480 C   0  0  0  0  0  0  0  0  0  0  0  0
  185.1770  178.1170  142.9260 C   0  0  0  0  0  3  0  0  0  0  0  0
  181.3050  178.9540  141.5480 C   0  0  0  0  0  3  0  0  0  0  0  0
  181.6220  179.1420  142.8530 N   0  0  0  0  0  0  0  0  0  0  0  0
  183.5300  178.2070  141.1030 C   0  0  0  0  0  3  0  0  0  0  0  0
  182.2700  178.4810  140.6590 C   0  0  0  0  0  3  0  0  0  0  0  0
  189.1520  177.1570  147.4900 C   0  0  0  0  0  0  0  0  0  0  0  0
  189.1580  178.3530  148.4400 C   0  0  0  0  0  1  0  0  0  0  0  0
  190.5850  176.7670  147.1350 C   0  0  0  0  0  1  0  0  0  0  0  0
  188.4480  175.9840  148.1510 C   0  0  0  0  0  1  0  0  0  0  0  0
  1 25  1  0  0  0  0
  2  4  2  0  0  0  0
  2  1  1  0  0  0  0
  3  2  1  0  0  0  0
  6  5  2  0  0  0  0
  7  6  1  0  0  0  0
  8  7  2  0  0  0  0
  8  9  1  0  0  0  0
  9 10  2  0  0  0  0
 10  5  1  0  0  0  0
 10  3  1  0  0  0  0
 11  9  1  0  0  0  0
 12 17  1  0  0  0  0
 12  7  1  0  0  0  0
 14 13  2  0  0  0  0
 15 14  1  0  0  0  0
 16 15  2  0  0  0  0
 16 17  1  0  0  0  0
 17 18  2  0  0  0  0
 18 13  1  0  0  0  0
 19 15  1  0  0  0  0
 20 19  2  0  0  0  0
 21 19  1  0  0  0  0
 22 21  1  0  0  0  0
 23 38  1  0  0  0  0
 24 23  1  0  0  0  0
 25 26  1  0  0  0  0
 25 24  2  0  0  0  0
 26 27  1  0  0  0  0
 27 23  2  0  0  0  0
 28 26  1  0  0  0  0
 28 29  1  0  0  0  0
 30 29  2  0  0  0  0
 31 30  1  0  0  0  0
 32 33  1  0  0  0  0
 32 31  2  0  0  0  0
 33 28  2  0  0  0  0
 34 35  2  0  0  0  0
 35 31  1  0  0  0  0
 36 32  1  0  0  0  0
 37 36  2  0  0  0  0
 37 34  1  0  0  0  0
 38 41  1  0  0  0  0
 38 39  1  0  0  0  0
 40 38  1  0  0  0  0
M  END
>  <MODEL>
2

>  <REMARK>
 VINA RESULT:      -9.8      1.511      2.154
  Name = 8u8b
  7 active torsions:
  status: ('A' for Active; 'I' for Inactive)
    1  A    between atoms: C_1  and  N_26
    2  A    between atoms: C_13  and  C_33
    3  A    between atoms: C_15  and  O_32
    4  A    between atoms: C_19  and  O_32
    5  A    between atoms: C_22  and  N_30
    6  A    between atoms: C_23  and  C_37
    7  A    between atoms: C_25  and  N_28
                            x       y       z     vdW  Elec       q    Type
                         _______ _______ _______ _____ _____    ______ ____

>  <TORSDO>
F 7

$$$$
8u8b
 OpenBabel11062411593D

 41 45  0  0  0  0  0  0  0  0999 V2000
  187.5490  178.7710  140.4620 N   0  0  0  0  0  2  0  0  0  0  0  0
  188.2070  177.8340  139.5400 C   0  0  0  0  0  0  0  0  0  0  0  0
  189.5990  178.0970  139.1650 N   0  0  0  0  0  2  0  0  0  0  0  0
  187.6160  176.8950  139.1180 O   0  0  0  0  0  0  0  0  0  0  0  0
  190.1480  177.0610  136.9290 C   0  0  0  0  0  3  0  0  0  0  0  0
  191.0150  176.3130  136.1470 C   0  0  0  0  0  3  0  0  0  0  0  0
  192.1830  175.8020  136.6850 C   0  0  0  0  0  0  0  0  0  0  0  0
  192.4920  176.0670  138.0090 C   0  0  0  0  0  3  0  0  0  0  0  0
  191.6220  176.8120  138.7840 C   0  0  0  0  0  0  0  0  0  0  0  0
  190.4490  177.3060  138.2640 C   0  0  0  0  0  0  0  0  0  0  0  0
  191.9140  177.0650  140.0870 F   0  0  0  0  0  0  0  0  0  0  0  0
  193.0860  175.0670  135.8960 O   0  0  0  0  0  0  0  0  0  0  0  0
  195.8990  177.3320  135.0050 C   0  0  0  0  0  3  0  0  0  0  0  0
  196.9240  176.5990  135.4120 N   0  0  0  0  0  0  0  0  0  0  0  0
  196.7450  175.4130  135.9580 C   0  0  0  0  0  0  0  0  0  0  0  0
  195.4730  174.8950  136.1210 C   0  0  0  0  0  3  0  0  0  0  0  0
  194.3650  175.6290  135.7220 C   0  0  0  0  0  0  0  0  0  0  0  0
  194.5950  176.8690  135.1440 C   0  0  0  0  0  3  0  0  0  0  0  0
  197.9310  174.5740  136.4230 C   0  0  0  0  0  0  0  0  0  0  0  0
  198.9840  175.0910  136.5850 O   0  0  0  0  0  0  0  0  0  0  0  0
  197.7920  173.1520  136.6690 N   0  0  0  0  0  2  0  0  0  0  0  0
  198.9530  172.4020  137.1090 C   0  0  0  0  0  1  0  0  0  0  0  0
  183.9300  178.4920  140.9110 C   0  0  0  0  0  0  0  0  0  0  0  0
  185.0390  178.7700  140.1190 C   0  0  0  0  0  3  0  0  0  0  0  0
  186.1600  178.5860  140.8950 C   0  0  0  0  0  0  0  0  0  0  0  0
  185.7460  178.2100  142.0900 N   0  0  0  0  0  0  0  0  0  0  0  0
  184.3730  178.1420  142.1240 N   0  0  0  0  0  0  0  0  0  0  0  0
  186.5960  177.8930  143.2380 C   0  0  0  0  0  0  0  0  0  0  0  0
  187.7750  177.1740  143.0300 C   0  0  0  0  0  3  0  0  0  0  0  0
  188.5960  176.8530  144.1110 C   0  0  0  0  0  3  0  0  0  0  0  0
  188.2300  177.2560  145.4310 C   0  0  0  0  0  0  0  0  0  0  0  0
  187.0780  177.9570  145.6340 C   0  0  0  0  0  0  0  0  0  0  0  0
  186.2330  178.2830  144.5260 C   0  0  0  0  0  3  0  0  0  0  0  0
  188.7240  177.3110  147.7580 C   0  0  0  0  0  3  0  0  0  0  0  0
  189.0590  176.9340  146.4990 N   0  0  0  0  0  0  0  0  0  0  0  0
  186.7340  178.3430  146.9320 C   0  0  0  0  0  3  0  0  0  0  0  0
  187.5470  178.0250  147.9810 C   0  0  0  0  0  3  0  0  0  0  0  0
  182.4650  178.5630  140.4710 C   0  0  0  0  0  0  0  0  0  0  0  0
  182.0240  177.1990  139.9450 C   0  0  0  0  0  1  0  0  0  0  0  0
  182.3220  179.6160  139.3750 C   0  0  0  0  0  1  0  0  0  0  0  0
  181.6140  178.9480  141.6690 C   0  0  0  0  0  1  0  0  0  0  0  0
  1 25  1  0  0  0  0
  2  1  1  0  0  0  0
  3  2  1  0  0  0  0
  4  2  2  0  0  0  0
  5 10  1  0  0  0  0
  6  7  1  0  0  0  0
  6  5  2  0  0  0  0
  7  8  2  0  0  0  0
  8  9  1  0  0  0  0
  9 11  1  0  0  0  0
 10  9  2  0  0  0  0
 10  3  1  0  0  0  0
 12  7  1  0  0  0  0
 13 18  2  0  0  0  0
 13 14  1  0  0  0  0
 14 15  2  0  0  0  0
 15 16  1  0  0  0  0
 15 19  1  0  0  0  0
 17 12  1  0  0  0  0
 17 16  2  0  0  0  0
 18 17  1  0  0  0  0
 19 20  2  0  0  0  0
 19 21  1  0  0  0  0
 21 22  1  0  0  0  0
 23 27  2  0  0  0  0
 24 25  2  0  0  0  0
 24 23  1  0  0  0  0
 25 26  1  0  0  0  0
 26 27  1  0  0  0  0
 26 28  1  0  0  0  0
 28 33  1  0  0  0  0
 29 28  2  0  0  0  0
 29 30  1  0  0  0  0
 30 31  2  0  0  0  0
 31 32  1  0  0  0  0
 31 35  1  0  0  0  0
 32 36  1  0  0  0  0
 33 32  2  0  0  0  0
 34 37  1  0  0  0  0
 35 34  2  0  0  0  0
 36 37  2  0  0  0  0
 38 23  1  0  0  0  0
 38 41  1  0  0  0  0
 39 38  1  0  0  0  0
 40 38  1  0  0  0  0
M  END
>  <MODEL>
3

>  <REMARK>
 VINA RESULT:      -9.8      1.625      5.074
  Name = 8u8b
  7 active torsions:
  status: ('A' for Active; 'I' for Inactive)
    1  A    between atoms: C_1  and  N_26
    2  A    between atoms: C_13  and  C_33
    3  A    between atoms: C_15  and  O_32
    4  A    between atoms: C_19  and  O_32
    5  A    between atoms: C_22  and  N_30
    6  A    between atoms: C_23  and  C_37
    7  A    between atoms: C_25  and  N_28
                            x       y       z     vdW  Elec       q    Type
                         _______ _______ _______ _____ _____    ______ ____

>  <TORSDO>
F 7

$$$$
8u8b
 OpenBabel11062411593D

 41 45  0  0  0  0  0  0  0  0999 V2000
  185.2840  179.3450  141.9980 N   0  0  0  0  0  2  0  0  0  0  0  0
  185.6510  178.6000  140.7850 C   0  0  0  0  0  0  0  0  0  0  0  0
  186.9430  178.8940  140.1580 N   0  0  0  0  0  2  0  0  0  0  0  0
  184.9130  177.7850  140.3370 O   0  0  0  0  0  0  0  0  0  0  0  0
  186.7930  178.0560  137.7820 C   0  0  0  0  0  3  0  0  0  0  0  0
  187.4160  177.4830  136.6830 C   0  0  0  0  0  3  0  0  0  0  0  0
  188.7520  177.1300  136.7370 C   0  0  0  0  0  0  0  0  0  0  0  0
  189.4730  177.3770  137.8940 C   0  0  0  0  0  3  0  0  0  0  0  0
  188.8450  177.9460  138.9870 C   0  0  0  0  0  0  0  0  0  0  0  0
  187.5120  178.2820  138.9500 C   0  0  0  0  0  0  0  0  0  0  0  0
  189.5440  178.1810  140.1300 F   0  0  0  0  0  0  0  0  0  0  0  0
  189.4030  176.5750  135.6200 O   0  0  0  0  0  0  0  0  0  0  0  0
  191.1760  173.4070  136.4350 C   0  0  0  0  0  3  0  0  0  0  0  0
  192.4280  173.8360  136.4340 N   0  0  0  0  0  0  0  0  0  0  0  0
  192.7210  175.0960  136.1830 C   0  0  0  0  0  0  0  0  0  0  0  0
  191.7220  176.0140  135.9140 C   0  0  0  0  0  3  0  0  0  0  0  0
  190.3940  175.6120  135.8910 C   0  0  0  0  0  0  0  0  0  0  0  0
  190.1260  174.2800  136.1680 C   0  0  0  0  0  3  0  0  0  0  0  0
  194.1670  175.5830  136.1860 C   0  0  0  0  0  0  0  0  0  0  0  0
  194.3990  176.7220  136.4140 O   0  0  0  0  0  0  0  0  0  0  0  0
  195.2640  174.6750  135.9150 N   0  0  0  0  0  2  0  0  0  0  0  0
  196.6190  175.1930  135.9290 C   0  0  0  0  0  1  0  0  0  0  0  0
  181.8360  178.9270  143.1430 C   0  0  0  0  0  0  0  0  0  0  0  0
  182.7580  179.2280  142.1460 C   0  0  0  0  0  3  0  0  0  0  0  0
  184.0140  179.1140  142.6950 C   0  0  0  0  0  0  0  0  0  0  0  0
  183.8550  178.7570  143.9560 N   0  0  0  0  0  0  0  0  0  0  0  0
  182.5190  178.6320  144.2550 N   0  0  0  0  0  0  0  0  0  0  0  0
  184.9240  178.5110  144.9240 C   0  0  0  0  0  0  0  0  0  0  0  0
  184.6970  178.7970  146.2720 C   0  0  0  0  0  3  0  0  0  0  0  0
  185.7060  178.5790  147.2100 C   0  0  0  0  0  3  0  0  0  0  0  0
  186.9720  178.0670  146.7930 C   0  0  0  0  0  0  0  0  0  0  0  0
  187.1930  177.7890  145.4770 C   0  0  0  0  0  0  0  0  0  0  0  0
  186.1610  178.0160  144.5120 C   0  0  0  0  0  3  0  0  0  0  0  0
  189.1730  177.3620  147.3570 C   0  0  0  0  0  3  0  0  0  0  0  0
  187.9660  177.8490  147.7390 N   0  0  0  0  0  0  0  0  0  0  0  0
  188.4380  177.2890  145.0850 C   0  0  0  0  0  3  0  0  0  0  0  0
  189.4150  177.0770  146.0140 C   0  0  0  0  0  3  0  0  0  0  0  0
  180.3120  178.9240  142.9930 C   0  0  0  0  0  0  0  0  0  0  0  0
  179.8200  180.3490  142.7470 C   0  0  0  0  0  1  0  0  0  0  0  0
  179.6840  178.3690  144.2700 C   0  0  0  0  0  1  0  0  0  0  0  0
  179.9400  178.0450  141.8120 C   0  0  0  0  0  1  0  0  0  0  0  0
  1 25  1  0  0  0  0
  2  1  1  0  0  0  0
  3  2  1  0  0  0  0
  4  2  2  0  0  0  0
  5 10  1  0  0  0  0
  6  7  1  0  0  0  0
  6  5  2  0  0  0  0
  7  8  2  0  0  0  0
  8  9  1  0  0  0  0
  9 11  1  0  0  0  0
 10  9  2  0  0  0  0
 10  3  1  0  0  0  0
 12 17  1  0  0  0  0
 12  7  1  0  0  0  0
 14 13  1  0  0  0  0
 15 19  1  0  0  0  0
 15 14  2  0  0  0  0
 16 15  1  0  0  0  0
 17 16  2  0  0  0  0
 17 18  1  0  0  0  0
 18 13  2  0  0  0  0
 19 20  2  0  0  0  0
 21 22  1  0  0  0  0
 21 19  1  0  0  0  0
 23 27  2  0  0  0  0
 24 25  2  0  0  0  0
 24 23  1  0  0  0  0
 25 26  1  0  0  0  0
 26 27  1  0  0  0  0
 26 28  1  0  0  0  0
 28 29  1  0  0  0  0
 29 30  2  0  0  0  0
 31 30  1  0  0  0  0
 31 35  1  0  0  0  0
 32 31  2  0  0  0  0
 33 28  2  0  0  0  0
 33 32  1  0  0  0  0
 34 35  2  0  0  0  0
 36 32  1  0  0  0  0
 36 37  2  0  0  0  0
 37 34  1  0  0  0  0
 38 23  1  0  0  0  0
 38 40  1  0  0  0  0
 39 38  1  0  0  0  0
 41 38  1  0  0  0  0
M  END
>  <MODEL>
4

>  <REMARK>
 VINA RESULT:      -9.5      2.279      5.605
  Name = 8u8b
  7 active torsions:
  status: ('A' for Active; 'I' for Inactive)
    1  A    between atoms: C_1  and  N_26
    2  A    between atoms: C_13  and  C_33
    3  A    between atoms: C_15  and  O_32
    4  A    between atoms: C_19  and  O_32
    5  A    between atoms: C_22  and  N_30
    6  A    between atoms: C_23  and  C_37
    7  A    between atoms: C_25  and  N_28
                            x       y       z     vdW  Elec       q    Type
                         _______ _______ _______ _____ _____    ______ ____

>  <TORSDO>
F 7

$$$$
8u8b
 OpenBabel11062411593D

 41 45  0  0  0  0  0  0  0  0999 V2000
  186.7600  178.8970  141.3320 N   0  0  0  0  0  2  0  0  0  0  0  0
  187.3940  178.2240  140.1890 C   0  0  0  0  0  0  0  0  0  0  0  0
  188.8450  178.3590  140.0260 N   0  0  0  0  0  2  0  0  0  0  0  0
  186.7390  177.5930  139.4270 O   0  0  0  0  0  0  0  0  0  0  0  0
  189.3880  177.8610  137.6120 C   0  0  0  0  0  3  0  0  0  0  0  0
  190.2460  177.2970  136.6800 C   0  0  0  0  0  3  0  0  0  0  0  0
  191.4010  176.6530  137.0860 C   0  0  0  0  0  0  0  0  0  0  0  0
  191.7070  176.5960  138.4350 C   0  0  0  0  0  3  0  0  0  0  0  0
  190.8450  177.1580  139.3610 C   0  0  0  0  0  0  0  0  0  0  0  0
  189.6850  177.7830  138.9680 C   0  0  0  0  0  0  0  0  0  0  0  0
  191.1340  177.0960  140.6880 F   0  0  0  0  0  0  0  0  0  0  0  0
  192.2940  176.1030  136.1490 O   0  0  0  0  0  0  0  0  0  0  0  0
  193.4720  172.6360  136.8110 C   0  0  0  0  0  3  0  0  0  0  0  0
  194.5720  172.8940  137.5000 N   0  0  0  0  0  0  0  0  0  0  0  0
  194.9470  174.1310  137.7570 C   0  0  0  0  0  0  0  0  0  0  0  0
  194.1940  175.2040  137.3140 C   0  0  0  0  0  3  0  0  0  0  0  0
  193.0390  174.9880  136.5770 C   0  0  0  0  0  0  0  0  0  0  0  0
  192.6740  173.6720  136.3340 C   0  0  0  0  0  3  0  0  0  0  0  0
  196.2160  174.4190  138.5540 C   0  0  0  0  0  0  0  0  0  0  0  0
  197.2710  174.1600  138.0840 O   0  0  0  0  0  0  0  0  0  0  0  0
  196.1520  175.0040  139.8780 N   0  0  0  0  0  2  0  0  0  0  0  0
  197.3900  175.2560  140.5920 C   0  0  0  0  0  1  0  0  0  0  0  0
  183.1040  178.7840  141.2740 C   0  0  0  0  0  0  0  0  0  0  0  0
  184.3270  178.9140  140.6240 C   0  0  0  0  0  3  0  0  0  0  0  0
  185.3160  178.8140  141.5750 C   0  0  0  0  0  0  0  0  0  0  0  0
  184.7170  178.6270  142.7370 N   0  0  0  0  0  0  0  0  0  0  0  0
  183.3520  178.6020  142.5760 N   0  0  0  0  0  0  0  0  0  0  0  0
  185.3790  178.4590  144.0310 C   0  0  0  0  0  0  0  0  0  0  0  0
  184.7080  178.8470  145.1920 C   0  0  0  0  0  3  0  0  0  0  0  0
  185.3240  178.7030  146.4350 C   0  0  0  0  0  3  0  0  0  0  0  0
  186.6430  178.1630  146.5210 C   0  0  0  0  0  0  0  0  0  0  0  0
  187.2990  177.7860  145.3870 C   0  0  0  0  0  0  0  0  0  0  0  0
  186.6700  177.9360  144.1110 C   0  0  0  0  0  3  0  0  0  0  0  0
  188.4950  177.5090  147.8630 C   0  0  0  0  0  3  0  0  0  0  0  0
  187.2430  178.0210  147.7660 N   0  0  0  0  0  0  0  0  0  0  0  0
  188.5900  177.2600  145.4890 C   0  0  0  0  0  3  0  0  0  0  0  0
  189.1800  177.1220  146.7110 C   0  0  0  0  0  3  0  0  0  0  0  0
  181.7230  178.8300  140.6170 C   0  0  0  0  0  0  0  0  0  0  0  0
  180.7030  179.3830  141.6100 C   0  0  0  0  0  1  0  0  0  0  0  0
  181.3220  177.4190  140.1920 C   0  0  0  0  0  1  0  0  0  0  0  0
  181.7910  179.7350  139.3990 C   0  0  0  0  0  1  0  0  0  0  0  0
  1 25  1  0  0  0  0
  2  1  1  0  0  0  0
  3  2  1  0  0  0  0
  4  2  2  0  0  0  0
  5 10  1  0  0  0  0
  6  7  1  0  0  0  0
  6  5  2  0  0  0  0
  7  8  2  0  0  0  0
  8  9  1  0  0  0  0
  9 11  1  0  0  0  0
 10  9  2  0  0  0  0
 10  3  1  0  0  0  0
 12 17  1  0  0  0  0
 12  7  1  0  0  0  0
 13 14  1  0  0  0  0
 14 15  2  0  0  0  0
 15 19  1  0  0  0  0
 16 15  1  0  0  0  0
 17 16  2  0  0  0  0
 18 17  1  0  0  0  0
 18 13  2  0  0  0  0
 19 21  1  0  0  0  0
 20 19  2  0  0  0  0
 21 22  1  0  0  0  0
 23 27  2  0  0  0  0
 24 23  1  0  0  0  0
 24 25  2  0  0  0  0
 25 26  1  0  0  0  0
 26 28  1  0  0  0  0
 27 26  1  0  0  0  0
 28 33  2  0  0  0  0
 28 29  1  0  0  0  0
 29 30  2  0  0  0  0
 30 31  1  0  0  0  0
 31 35  1  0  0  0  0
 32 36  1  0  0  0  0
 32 31  2  0  0  0  0
 33 32  1  0  0  0  0
 35 34  2  0  0  0  0
 36 37  2  0  0  0  0
 37 34  1  0  0  0  0
 38 23  1  0  0  0  0
 38 39  1  0  0  0  0
 40 38  1  0  0  0  0
 41 38  1  0  0  0  0
M  END
>  <MODEL>
5

>  <REMARK>
 VINA RESULT:      -9.5      1.817      5.188
  Name = 8u8b
  7 active torsions:
  status: ('A' for Active; 'I' for Inactive)
    1  A    between atoms: C_1  and  N_26
    2  A    between atoms: C_13  and  C_33
    3  A    between atoms: C_15  and  O_32
    4  A    between atoms: C_19  and  O_32
    5  A    between atoms: C_22  and  N_30
    6  A    between atoms: C_23  and  C_37
    7  A    between atoms: C_25  and  N_28
                            x       y       z     vdW  Elec       q    Type
                         _______ _______ _______ _____ _____    ______ ____

>  <TORSDO>
F 7

$$$$
8u8b
 OpenBabel11062411593D

 41 45  0  0  0  0  0  0  0  0999 V2000
  184.0450  179.4020  139.3640 N   0  0  0  0  0  2  0  0  0  0  0  0
  184.1740  178.7670  140.6840 C   0  0  0  0  0  0  0  0  0  0  0  0
  184.9870  179.4430  141.6990 N   0  0  0  0  0  2  0  0  0  0  0  0
  183.6300  177.7360  140.9080 O   0  0  0  0  0  0  0  0  0  0  0  0
  184.5700  179.4600  144.1880 C   0  0  0  0  0  3  0  0  0  0  0  0
  184.8830  178.9740  145.4490 C   0  0  0  0  0  3  0  0  0  0  0  0
  185.8790  178.0280  145.6090 C   0  0  0  0  0  0  0  0  0  0  0  0
  186.5470  177.5500  144.4940 C   0  0  0  0  0  3  0  0  0  0  0  0
  186.2320  178.0420  143.2400 C   0  0  0  0  0  0  0  0  0  0  0  0
  185.2570  178.9970  143.0730 C   0  0  0  0  0  0  0  0  0  0  0  0
  186.8910  177.5860  142.1420 F   0  0  0  0  0  0  0  0  0  0  0  0
  186.1870  177.5040  146.8780 O   0  0  0  0  0  0  0  0  0  0  0  0
  189.2570  178.2520  148.8430 C   0  0  0  0  0  3  0  0  0  0  0  0
  190.1830  177.8570  147.9840 N   0  0  0  0  0  0  0  0  0  0  0  0
  189.8600  177.3620  146.8060 C   0  0  0  0  0  0  0  0  0  0  0  0
  188.5340  177.2440  146.4290 C   0  0  0  0  0  3  0  0  0  0  0  0
  187.5250  177.6320  147.2980 C   0  0  0  0  0  0  0  0  0  0  0  0
  187.9060  178.1560  148.5250 C   0  0  0  0  0  3  0  0  0  0  0  0
  190.9340  176.9100  145.8210 C   0  0  0  0  0  0  0  0  0  0  0  0
  192.0390  176.7300  146.2050 O   0  0  0  0  0  0  0  0  0  0  0  0
  190.6240  176.6980  144.4210 N   0  0  0  0  0  2  0  0  0  0  0  0
  191.6840  176.2690  143.5280 C   0  0  0  0  0  1  0  0  0  0  0  0
  181.5700  178.3050  136.9050 C   0  0  0  0  0  0  0  0  0  0  0  0
  181.9410  179.0970  137.9870 C   0  0  0  0  0  3  0  0  0  0  0  0
  183.2500  178.8000  138.2890 C   0  0  0  0  0  0  0  0  0  0  0  0
  183.6460  177.8810  137.4290 N   0  0  0  0  0  0  0  0  0  0  0  0
  182.6280  177.5610  136.5630 N   0  0  0  0  0  0  0  0  0  0  0  0
  184.9750  177.2720  137.3690 C   0  0  0  0  0  0  0  0  0  0  0  0
  185.0830  175.9010  137.1220 C   0  0  0  0  0  3  0  0  0  0  0  0
  186.3400  175.2990  137.0710 C   0  0  0  0  0  3  0  0  0  0  0  0
  187.5170  176.0810  137.2750 C   0  0  0  0  0  0  0  0  0  0  0  0
  187.4120  177.4190  137.5180 C   0  0  0  0  0  0  0  0  0  0  0  0
  186.1220  178.0380  137.5750 C   0  0  0  0  0  3  0  0  0  0  0  0
  189.8890  176.2000  137.4070 C   0  0  0  0  0  3  0  0  0  0  0  0
  188.7630  175.4700  137.2160 N   0  0  0  0  0  0  0  0  0  0  0  0
  188.5730  178.1700  137.7160 C   0  0  0  0  0  3  0  0  0  0  0  0
  189.7970  177.5690  137.6600 C   0  0  0  0  0  3  0  0  0  0  0  0
  180.2000  178.2930  136.2220 C   0  0  0  0  0  0  0  0  0  0  0  0
  179.6400  179.7140  136.1780 C   0  0  0  0  0  1  0  0  0  0  0  0
  179.2560  177.3850  137.0070 C   0  0  0  0  0  1  0  0  0  0  0  0
  180.3640  177.7660  134.8070 C   0  0  0  0  0  1  0  0  0  0  0  0
  1  2  1  0  0  0  0
  2  4  2  0  0  0  0
  2  3  1  0  0  0  0
  3 10  1  0  0  0  0
  5  6  1  0  0  0  0
  6  7  2  0  0  0  0
  7 12  1  0  0  0  0
  8  7  1  0  0  0  0
  9  8  2  0  0  0  0
 10  9  1  0  0  0  0
 10  5  2  0  0  0  0
 11  9  1  0  0  0  0
 12 17  1  0  0  0  0
 14 13  2  0  0  0  0
 15 14  1  0  0  0  0
 16 15  2  0  0  0  0
 16 17  1  0  0  0  0
 17 18  2  0  0  0  0
 18 13  1  0  0  0  0
 19 20  2  0  0  0  0
 19 15  1  0  0  0  0
 21 19  1  0  0  0  0
 22 21  1  0  0  0  0
 23 24  1  0  0  0  0
 24 25  2  0  0  0  0
 25  1  1  0  0  0  0
 26 25  1  0  0  0  0
 27 23  2  0  0  0  0
 27 26  1  0  0  0  0
 28 26  1  0  0  0  0
 28 33  1  0  0  0  0
 29 28  2  0  0  0  0
 30 29  1  0  0  0  0
 30 31  2  0  0  0  0
 31 32  1  0  0  0  0
 32 33  2  0  0  0  0
 32 36  1  0  0  0  0
 34 37  1  0  0  0  0
 35 31  1  0  0  0  0
 35 34  2  0  0  0  0
 37 36  2  0  0  0  0
 38 23  1  0  0  0  0
 38 40  1  0  0  0  0
 39 38  1  0  0  0  0
 41 38  1  0  0  0  0
M  END
>  <MODEL>
6

>  <REMARK>
 VINA RESULT:      -9.4      4.472     10.162
  Name = 8u8b
  7 active torsions:
  status: ('A' for Active; 'I' for Inactive)
    1  A    between atoms: C_1  and  N_26
    2  A    between atoms: C_13  and  C_33
    3  A    between atoms: C_15  and  O_32
    4  A    between atoms: C_19  and  O_32
    5  A    between atoms: C_22  and  N_30
    6  A    between atoms: C_23  and  C_37
    7  A    between atoms: C_25  and  N_28
                            x       y       z     vdW  Elec       q    Type
                         _______ _______ _______ _____ _____    ______ ____

>  <TORSDO>
F 7

$$$$
8u8b
 OpenBabel11062411593D

 41 45  0  0  0  0  0  0  0  0999 V2000
  185.1780  179.2640  140.1800 N   0  0  0  0  0  2  0  0  0  0  0  0
  185.7740  178.3540  139.1910 C   0  0  0  0  0  0  0  0  0  0  0  0
  187.1620  178.5910  138.7840 N   0  0  0  0  0  2  0  0  0  0  0  0
  185.1380  177.4570  138.7430 O   0  0  0  0  0  0  0  0  0  0  0  0
  187.7930  176.4580  137.5900 C   0  0  0  0  0  3  0  0  0  0  0  0
  188.5800  175.8130  136.6480 C   0  0  0  0  0  3  0  0  0  0  0  0
  189.5300  176.5130  135.9270 C   0  0  0  0  0  0  0  0  0  0  0  0
  189.6740  177.8740  136.1380 C   0  0  0  0  0  3  0  0  0  0  0  0
  188.8890  178.5120  137.0810 C   0  0  0  0  0  0  0  0  0  0  0  0
  187.9550  177.8200  137.8170 C   0  0  0  0  0  0  0  0  0  0  0  0
  189.0330  179.8460  137.3010 F   0  0  0  0  0  0  0  0  0  0  0  0
  190.3140  175.8770  134.9470 O   0  0  0  0  0  0  0  0  0  0  0  0
  191.9400  172.5880  135.5640 C   0  0  0  0  0  3  0  0  0  0  0  0
  192.9090  172.9600  136.3850 N   0  0  0  0  0  0  0  0  0  0  0  0
  193.0580  174.2180  136.7440 C   0  0  0  0  0  0  0  0  0  0  0  0
  192.1990  175.1950  136.2730 C   0  0  0  0  0  3  0  0  0  0  0  0
  191.1740  174.8590  135.4000 C   0  0  0  0  0  0  0  0  0  0  0  0
  191.0450  173.5220  135.0520 C   0  0  0  0  0  3  0  0  0  0  0  0
  194.1770  174.6390  137.6930 C   0  0  0  0  0  0  0  0  0  0  0  0
  194.2650  175.7710  138.0270 O   0  0  0  0  0  0  0  0  0  0  0  0
  195.1370  173.6740  138.1930 N   0  0  0  0  0  2  0  0  0  0  0  0
  196.1810  174.1290  139.0920 C   0  0  0  0  0  1  0  0  0  0  0  0
  181.5690  178.9820  140.7080 C   0  0  0  0  0  0  0  0  0  0  0  0
  182.6630  179.2020  139.8770 C   0  0  0  0  0  3  0  0  0  0  0  0
  183.7970  179.1020  140.6490 C   0  0  0  0  0  0  0  0  0  0  0  0
  183.4050  178.8300  141.8800 N   0  0  0  0  0  0  0  0  0  0  0  0
  182.0330  178.7480  141.9410 N   0  0  0  0  0  0  0  0  0  0  0  0
  184.2760  178.6280  143.0380 C   0  0  0  0  0  0  0  0  0  0  0  0
  183.8340  179.0370  144.2990 C   0  0  0  0  0  3  0  0  0  0  0  0
  184.6520  178.8630  145.4140 C   0  0  0  0  0  3  0  0  0  0  0  0
  185.9440  178.2700  145.2690 C   0  0  0  0  0  0  0  0  0  0  0  0
  186.3750  177.8730  144.0380 C   0  0  0  0  0  0  0  0  0  0  0  0
  185.5380  178.0550  142.8920 C   0  0  0  0  0  3  0  0  0  0  0  0
  187.9750  177.5360  146.2660 C   0  0  0  0  0  3  0  0  0  0  0  0
  186.7460  178.0980  146.3890 N   0  0  0  0  0  0  0  0  0  0  0  0
  187.6420  177.2960  143.9130 C   0  0  0  0  0  3  0  0  0  0  0  0
  188.4310  177.1280  145.0130 C   0  0  0  0  0  3  0  0  0  0  0  0
  180.0980  178.9960  140.2860 C   0  0  0  0  0  0  0  0  0  0  0  0
  179.9920  178.6870  138.7940 C   0  0  0  0  0  1  0  0  0  0  0  0
  179.5060  180.3740  140.5750 C   0  0  0  0  0  1  0  0  0  0  0  0
  179.3520  177.9380  141.0810 C   0  0  0  0  0  1  0  0  0  0  0  0
  1 25  1  0  0  0  0
  2  1  1  0  0  0  0
  3  2  1  0  0  0  0
  4  2  2  0  0  0  0
  5 10  1  0  0  0  0
  6  5  2  0  0  0  0
  7  8  2  0  0  0  0
  7  6  1  0  0  0  0
  8  9  1  0  0  0  0
  9 11  1  0  0  0  0
  9 10  2  0  0  0  0
 10  3  1  0  0  0  0
 12 17  1  0  0  0  0
 12  7  1  0  0  0  0
 13 14  1  0  0  0  0
 14 15  2  0  0  0  0
 15 19  1  0  0  0  0
 16 15  1  0  0  0  0
 17 16  2  0  0  0  0
 18 17  1  0  0  0  0
 18 13  2  0  0  0  0
 19 20  2  0  0  0  0
 19 21  1  0  0  0  0
 21 22  1  0  0  0  0
 23 27  2  0  0  0  0
 24 25  2  0  0  0  0
 24 23  1  0  0  0  0
 25 26  1  0  0  0  0
 26 27  1  0  0  0  0
 26 28  1  0  0  0  0
 28 29  1  0  0  0  0
 29 30  2  0  0  0  0
 31 30  1  0  0  0  0
 31 35  1  0  0  0  0
 32 31  2  0  0  0  0
 33 28  2  0  0  0  0
 33 32  1  0  0  0  0
 34 35  2  0  0  0  0
 36 32  1  0  0  0  0
 36 37  2  0  0  0  0
 37 34  1  0  0  0  0
 38 40  1  0  0  0  0
 38 23  1  0  0  0  0
 38 41  1  0  0  0  0
 39 38  1  0  0  0  0
M  END
>  <MODEL>
7

>  <REMARK>
 VINA RESULT:      -9.4      2.434      5.811
  Name = 8u8b
  7 active torsions:
  status: ('A' for Active; 'I' for Inactive)
    1  A    between atoms: C_1  and  N_26
    2  A    between atoms: C_13  and  C_33
    3  A    between atoms: C_15  and  O_32
    4  A    between atoms: C_19  and  O_32
    5  A    between atoms: C_22  and  N_30
    6  A    between atoms: C_23  and  C_37
    7  A    between atoms: C_25  and  N_28
                            x       y       z     vdW  Elec       q    Type
                         _______ _______ _______ _____ _____    ______ ____

>  <TORSDO>
F 7

$$$$
8u8b
 OpenBabel11062411593D

 41 45  0  0  0  0  0  0  0  0999 V2000
  188.3960  178.5720  142.7780 N   0  0  0  0  0  2  0  0  0  0  0  0
  188.5670  177.5790  141.7080 C   0  0  0  0  0  0  0  0  0  0  0  0
  188.7570  178.0650  140.3380 N   0  0  0  0  0  2  0  0  0  0  0  0
  188.5490  176.4190  141.9600 O   0  0  0  0  0  0  0  0  0  0  0  0
  190.0380  176.4370  138.8950 C   0  0  0  0  0  3  0  0  0  0  0  0
  190.1250  175.7060  137.7200 C   0  0  0  0  0  3  0  0  0  0  0  0
  189.1290  175.7890  136.7640 C   0  0  0  0  0  0  0  0  0  0  0  0
  188.0280  176.5950  137.0010 C   0  0  0  0  0  3  0  0  0  0  0  0
  187.9480  177.3250  138.1740 C   0  0  0  0  0  0  0  0  0  0  0  0
  188.9430  177.2630  139.1210 C   0  0  0  0  0  0  0  0  0  0  0  0
  186.8750  178.1260  138.4080 F   0  0  0  0  0  0  0  0  0  0  0  0
  189.1910  175.0300  135.5810 O   0  0  0  0  0  0  0  0  0  0  0  0
  188.5030  171.3960  135.1850 C   0  0  0  0  0  3  0  0  0  0  0  0
  187.3110  171.3220  135.7550 N   0  0  0  0  0  0  0  0  0  0  0  0
  186.7240  172.3900  136.2590 C   0  0  0  0  0  0  0  0  0  0  0  0
  187.3410  173.6270  136.2030 C   0  0  0  0  0  3  0  0  0  0  0  0
  188.5970  173.7550  135.6270 C   0  0  0  0  0  0  0  0  0  0  0  0
  189.1770  172.6100  135.1010 C   0  0  0  0  0  3  0  0  0  0  0  0
  185.3490  172.2970  136.9130 C   0  0  0  0  0  0  0  0  0  0  0  0
  185.1450  172.8740  137.9270 O   0  0  0  0  0  0  0  0  0  0  0  0
  184.2870  171.5140  136.3140 N   0  0  0  0  0  2  0  0  0  0  0  0
  182.9980  171.4600  136.9800 C   0  0  0  0  0  1  0  0  0  0  0  0
  188.5870  177.5410  146.2820 C   0  0  0  0  0  0  0  0  0  0  0  0
  189.1970  177.8560  145.0720 C   0  0  0  0  0  3  0  0  0  0  0  0
  188.2030  178.1780  144.1780 C   0  0  0  0  0  0  0  0  0  0  0  0
  187.0550  178.0680  144.8190 N   0  0  0  0  0  0  0  0  0  0  0  0
  187.2660  177.6790  146.1210 N   0  0  0  0  0  0  0  0  0  0  0  0
  185.7270  178.3250  144.2610 C   0  0  0  0  0  0  0  0  0  0  0  0
  184.7260  178.8290  145.0940 C   0  0  0  0  0  3  0  0  0  0  0  0
  183.4510  179.0720  144.5850 C   0  0  0  0  0  3  0  0  0  0  0  0
  183.1660  178.8020  143.2120 C   0  0  0  0  0  0  0  0  0  0  0  0
  184.1430  178.3080  142.3980 C   0  0  0  0  0  0  0  0  0  0  0  0
  185.4510  178.0540  142.9210 C   0  0  0  0  0  3  0  0  0  0  0  0
  181.6090  178.8020  141.4140 C   0  0  0  0  0  3  0  0  0  0  0  0
  181.8930  179.0530  142.7160 N   0  0  0  0  0  0  0  0  0  0  0  0
  183.8470  178.0480  141.0580 C   0  0  0  0  0  3  0  0  0  0  0  0
  182.5960  178.2930  140.5710 C   0  0  0  0  0  3  0  0  0  0  0  0
  189.2990  177.1210  147.5710 C   0  0  0  0  0  0  0  0  0  0  0  0
  190.7210  176.6690  147.2430 C   0  0  0  0  0  1  0  0  0  0  0  0
  188.5260  175.9760  148.2210 C   0  0  0  0  0  1  0  0  0  0  0  0
  189.3470  178.3120  148.5130 C   0  0  0  0  0  1  0  0  0  0  0  0
  1 25  1  0  0  0  0
  2  4  2  0  0  0  0
  2  1  1  0  0  0  0
  3  2  1  0  0  0  0
  5 10  1  0  0  0  0
  6  5  2  0  0  0  0
  7  8  2  0  0  0  0
  7  6  1  0  0  0  0
  8  9  1  0  0  0  0
  9 11  1  0  0  0  0
  9 10  2  0  0  0  0
 10  3  1  0  0  0  0
 12 17  1  0  0  0  0
 12  7  1  0  0  0  0
 13 14  1  0  0  0  0
 14 15  2  0  0  0  0
 15 19  1  0  0  0  0
 16 15  1  0  0  0  0
 17 16  2  0  0  0  0
 18 13  2  0  0  0  0
 18 17  1  0  0  0  0
 19 20  2  0  0  0  0
 21 19  1  0  0  0  0
 21 22  1  0  0  0  0
 23 38  1  0  0  0  0
 24 23  1  0  0  0  0
 25 26  1  0  0  0  0
 25 24  2  0  0  0  0
 26 27  1  0  0  0  0
 27 23  2  0  0  0  0
 28 26  1  0  0  0  0
 28 29  1  0  0  0  0
 30 29  2  0  0  0  0
 31 30  1  0  0  0  0
 32 33  1  0  0  0  0
 32 31  2  0  0  0  0
 33 28  2  0  0  0  0
 34 35  2  0  0  0  0
 35 31  1  0  0  0  0
 36 32  1  0  0  0  0
 37 36  2  0  0  0  0
 37 34  1  0  0  0  0
 38 40  1  0  0  0  0
 38 41  1  0  0  0  0
 39 38  1  0  0  0  0
M  END
>  <MODEL>
8

>  <REMARK>
 VINA RESULT:      -9.3      3.698      5.493
  Name = 8u8b
  7 active torsions:
  status: ('A' for Active; 'I' for Inactive)
    1  A    between atoms: C_1  and  N_26
    2  A    between atoms: C_13  and  C_33
    3  A    between atoms: C_15  and  O_32
    4  A    between atoms: C_19  and  O_32
    5  A    between atoms: C_22  and  N_30
    6  A    between atoms: C_23  and  C_37
    7  A    between atoms: C_25  and  N_28
                            x       y       z     vdW  Elec       q    Type
                         _______ _______ _______ _____ _____    ______ ____

>  <TORSDO>
F 7

$$$$
8u8b
 OpenBabel11062411593D

 41 45  0  0  0  0  0  0  0  0999 V2000
  181.9470  178.9550  140.8330 N   0  0  0  0  0  2  0  0  0  0  0  0
  183.2930  178.9550  141.4240 C   0  0  0  0  0  0  0  0  0  0  0  0
  183.4620  178.3660  142.7550 N   0  0  0  0  0  2  0  0  0  0  0  0
  184.2080  179.4210  140.8290 O   0  0  0  0  0  0  0  0  0  0  0  0
  185.8830  177.7130  143.0460 C   0  0  0  0  0  3  0  0  0  0  0  0
  187.0110  177.6630  143.8510 C   0  0  0  0  0  3  0  0  0  0  0  0
  186.9740  178.1530  145.1450 C   0  0  0  0  0  0  0  0  0  0  0  0
  185.8030  178.7170  145.6230 C   0  0  0  0  0  3  0  0  0  0  0  0
  184.6810  178.7610  144.8160 C   0  0  0  0  0  0  0  0  0  0  0  0
  184.7020  178.2590  143.5360 C   0  0  0  0  0  0  0  0  0  0  0  0
  183.5250  179.3040  145.2830 F   0  0  0  0  0  0  0  0  0  0  0  0
  188.1190  178.1350  145.9620 O   0  0  0  0  0  0  0  0  0  0  0  0
  191.4610  176.5950  145.4150 C   0  0  0  0  0  3  0  0  0  0  0  0
  191.5670  176.7320  144.1030 N   0  0  0  0  0  0  0  0  0  0  0  0
  190.6110  177.2960  143.3930 C   0  0  0  0  0  0  0  0  0  0  0  0
  189.4630  177.7680  144.0030 C   0  0  0  0  0  3  0  0  0  0  0  0
  189.2970  177.6370  145.3740 C   0  0  0  0  0  0  0  0  0  0  0  0
  190.3300  177.0450  146.0870 C   0  0  0  0  0  3  0  0  0  0  0  0
  190.7420  177.4520  141.8800 C   0  0  0  0  0  0  0  0  0  0  0  0
  191.8160  177.4440  141.3830 O   0  0  0  0  0  0  0  0  0  0  0  0
  189.5710  177.6110  141.0410 N   0  0  0  0  0  2  0  0  0  0  0  0
  189.7540  177.7560  139.6080 C   0  0  0  0  0  1  0  0  0  0  0  0
  181.0210  180.8760  137.8600 C   0  0  0  0  0  0  0  0  0  0  0  0
  181.0750  180.7250  139.2420 C   0  0  0  0  0  3  0  0  0  0  0  0
  181.6840  179.5190  139.5040 C   0  0  0  0  0  0  0  0  0  0  0  0
  181.9870  178.9780  138.3390 N   0  0  0  0  0  0  0  0  0  0  0  0
  181.5900  179.7980  137.3090 N   0  0  0  0  0  0  0  0  0  0  0  0
  182.6560  177.6930  138.1330 C   0  0  0  0  0  0  0  0  0  0  0  0
  181.9550  176.5130  138.3900 C   0  0  0  0  0  3  0  0  0  0  0  0
  182.5770  175.2790  138.2090 C   0  0  0  0  0  3  0  0  0  0  0  0
  183.9330  175.2190  137.7650 C   0  0  0  0  0  0  0  0  0  0  0  0
  184.6190  176.3710  137.5160 C   0  0  0  0  0  0  0  0  0  0  0  0
  183.9820  177.6390  137.7050 C   0  0  0  0  0  3  0  0  0  0  0  0
  185.8270  173.9110  137.1630 C   0  0  0  0  0  3  0  0  0  0  0  0
  184.5400  173.9820  137.5850 N   0  0  0  0  0  0  0  0  0  0  0  0
  185.9450  176.2960  137.0830 C   0  0  0  0  0  3  0  0  0  0  0  0
  186.5410  175.0810  136.9080 C   0  0  0  0  0  3  0  0  0  0  0  0
  180.4270  182.0680  137.1050 C   0  0  0  0  0  0  0  0  0  0  0  0
  178.9590  182.2370  137.4920 C   0  0  0  0  0  1  0  0  0  0  0  0
  180.5450  181.8190  135.6030 C   0  0  0  0  0  1  0  0  0  0  0  0
  181.2010  183.3200  137.4820 C   0  0  0  0  0  1  0  0  0  0  0  0
  1  2  1  0  0  0  0
  2  3  1  0  0  0  0
  3 10  1  0  0  0  0
  4  2  2  0  0  0  0
  5 10  2  0  0  0  0
  5  6  1  0  0  0  0
  6  7  2  0  0  0  0
  7  8  1  0  0  0  0
  7 12  1  0  0  0  0
  9 11  1  0  0  0  0
  9  8  2  0  0  0  0
 10  9  1  0  0  0  0
 13 18  1  0  0  0  0
 14 13  2  0  0  0  0
 15 16  2  0  0  0  0
 15 14  1  0  0  0  0
 16 17  1  0  0  0  0
 17 12  1  0  0  0  0
 17 18  2  0  0  0  0
 19 15  1  0  0  0  0
 20 19  2  0  0  0  0
 21 19  1  0  0  0  0
 22 21  1  0  0  0  0
 23 24  1  0  0  0  0
 24 25  2  0  0  0  0
 25  1  1  0  0  0  0
 26 25  1  0  0  0  0
 27 23  2  0  0  0  0
 27 26  1  0  0  0  0
 28 26  1  0  0  0  0
 28 29  1  0  0  0  0
 30 29  2  0  0  0  0
 31 30  1  0  0  0  0
 32 33  1  0  0  0  0
 32 31  2  0  0  0  0
 33 28  2  0  0  0  0
 34 35  2  0  0  0  0
 35 31  1  0  0  0  0
 36 32  1  0  0  0  0
 37 36  2  0  0  0  0
 37 34  1  0  0  0  0
 38 41  1  0  0  0  0
 38 39  1  0  0  0  0
 38 23  1  0  0  0  0
 40 38  1  0  0  0  0
M  END
>  <MODEL>
9

>  <REMARK>
 VINA RESULT:      -9.1      4.609      9.336
  Name = 8u8b
  7 active torsions:
  status: ('A' for Active; 'I' for Inactive)
    1  A    between atoms: C_1  and  N_26
    2  A    between atoms: C_13  and  C_33
    3  A    between atoms: C_15  and  O_32
    4  A    between atoms: C_19  and  O_32
    5  A    between atoms: C_22  and  N_30
    6  A    between atoms: C_23  and  C_37
    7  A    between atoms: C_25  and  N_28
                            x       y       z     vdW  Elec       q    Type
                         _______ _______ _______ _____ _____    ______ ____

>  <TORSDO>
F 7

$$$$
