8u7h
 OpenBabel11062412003D

 31 33  0  0  0  0  0  0  0  0999 V2000
  189.8690  177.5440  141.6690 C   0  0  0  0  0  0  0  0  0  0  0  0
  188.5380  177.8860  141.4630 C   0  0  0  0  0  3  0  0  0  0  0  0
  188.0800  178.1680  140.1810 C   0  0  0  0  0  0  0  0  0  0  0  0
  188.9450  178.0850  139.1020 C   0  0  0  0  0  0  0  0  0  0  0  0
  190.2680  177.7330  139.3060 C   0  0  0  0  0  3  0  0  0  0  0  0
  190.7210  177.4420  140.5830 C   0  0  0  0  0  0  0  0  0  0  0  0
  186.7740  178.5220  139.9830 F   0  0  0  0  0  0  0  0  0  0  0  0
  188.4640  178.3870  137.6630 C   0  0  0  0  0  0  0  0  0  0  0  0
  188.6320  179.4790  137.2380 O   0  0  0  0  0  0  0  0  0  0  0  0
  187.7680  177.4020  136.8310 N   0  0  0  0  0  0  0  0  0  0  0  0
  187.4840  176.0390  137.2050 C   0  0  0  0  0  2  0  0  0  0  0  0
  188.1790  175.1730  136.1460 C   0  0  0  0  0  2  0  0  0  0  0  0
  187.6070  175.3630  134.8510 O   0  0  0  0  0  0  0  0  0  0  0  0
  186.6780  176.4400  134.7990 C   0  0  0  0  0  2  0  0  0  0  0  0
  187.3010  177.6720  135.4800 C   0  0  0  0  0  2  0  0  0  0  0  0
  188.0810  177.9180  145.7200 C   0  0  0  0  0  0  0  0  0  0  0  0
  188.8990  177.7030  146.8220 C   0  0  0  0  0  0  0  0  0  0  0  0
  190.2030  177.3180  146.5760 C   0  0  0  0  0  3  0  0  0  0  0  0
  190.6300  177.1850  145.3340 N   0  0  0  0  0  0  0  0  0  0  0  0
  189.8240  177.3900  144.3090 C   0  0  0  0  0  0  0  0  0  0  0  0
  188.5710  177.7580  144.5010 N   0  0  0  0  0  4  0  0  0  0  0  0
  190.4140  177.2090  142.9830 N   0  0  0  0  0  2  0  0  0  0  0  0
  188.3910  177.8690  148.2480 C   0  0  0  0  0  0  0  0  0  0  0  0
  187.8060  176.7070  148.6410 F   0  0  0  0  0  0  0  0  0  0  0  0
  189.4480  178.1350  149.0670 F   0  0  0  0  0  0  0  0  0  0  0  0
  187.4840  178.8760  148.3380 F   0  0  0  0  0  0  0  0  0  0  0  0
  186.6990  178.3200  145.9170 N   0  0  0  0  0  2  0  0  0  0  0  0
  184.4380  178.9110  145.2250 C   0  0  0  0  0  1  0  0  0  0  0  0
  185.7530  178.2510  144.8180 C   0  0  0  0  0  2  0  0  0  0  0  0
  192.0570  177.0830  140.8030 O   0  0  0  0  0  0  0  0  0  0  0  0
  192.9390  177.3330  139.7450 C   0  0  0  0  0  1  0  0  0  0  0  0
  1 22  1  0  0  0  0
  2  1  1  0  0  0  0
  3  2  2  0  0  0  0
  4  5  2  0  0  0  0
  4  3  1  0  0  0  0
  5  6  1  0  0  0  0
  6 30  1  0  0  0  0
  6  1  2  0  0  0  0
  7  3  1  0  0  0  0
  8  4  1  0  0  0  0
  9  8  2  0  0  0  0
 10 11  1  0  0  0  0
 10  8  1  0  0  0  0
 12 11  1  0  0  0  0
 13 12  1  0  0  0  0
 14 13  1  0  0  0  0
 14 15  1  0  0  0  0
 15 10  1  0  0  0  0
 16 27  1  0  0  0  0
 16 17  1  0  0  0  0
 17 23  1  0  0  0  0
 18 17  2  0  0  0  0
 19 18  1  0  0  0  0
 20 21  2  0  0  0  0
 20 19  2  0  0  0  0
 21 16  2  0  0  0  0
 22 20  1  0  0  0  0
 23 26  1  0  0  0  0
 23 24  1  0  0  0  0
 23 25  1  0  0  0  0
 29 28  1  0  0  0  0
 29 27  1  0  0  0  0
 31 30  1  0  0  0  0
M  END
>  <MODEL>
1

>  <REMARK>
 VINA RESULT:      -8.8      0.000      0.000
  Name = 8u7h
  6 active torsions:
  status: ('A' for Active; 'I' for Inactive)
    1  A    between atoms: C_2  and  N_3
    2  A    between atoms: N_3  and  C_4
    3  A    between atoms: C_5  and  C_27
    4  A    between atoms: N_10  and  C_11
    5  A    between atoms: C_14  and  C_19
    6  A    between atoms: C_16  and  O_17
                            x       y       z     vdW  Elec       q    Type
                         _______ _______ _______ _____ _____    ______ ____

>  <TORSDO>
F 6

$$$$
8u7h
 OpenBabel11062412003D

 31 33  0  0  0  0  0  0  0  0999 V2000
  185.8450  178.3360  143.6360 C   0  0  0  0  0  0  0  0  0  0  0  0
  186.6880  178.3460  142.5320 C   0  0  0  0  0  3  0  0  0  0  0  0
  186.1680  178.5460  141.2580 C   0  0  0  0  0  0  0  0  0  0  0  0
  184.8100  178.7590  141.0890 C   0  0  0  0  0  0  0  0  0  0  0  0
  183.9720  178.7600  142.1910 C   0  0  0  0  0  3  0  0  0  0  0  0
  184.4920  178.5720  143.4610 C   0  0  0  0  0  0  0  0  0  0  0  0
  186.9980  178.5380  140.1710 F   0  0  0  0  0  0  0  0  0  0  0  0
  184.2020  178.9890  139.6860 C   0  0  0  0  0  0  0  0  0  0  0  0
  184.4930  179.9820  139.1100 O   0  0  0  0  0  0  0  0  0  0  0  0
  183.2490  178.0650  139.0670 N   0  0  0  0  0  0  0  0  0  0  0  0
  182.7930  176.8230  139.6390 C   0  0  0  0  0  2  0  0  0  0  0  0
  183.1900  175.7390  138.6280 C   0  0  0  0  0  2  0  0  0  0  0  0
  182.4930  175.8920  137.3900 O   0  0  0  0  0  0  0  0  0  0  0  0
  181.7580  177.1070  137.3050 C   0  0  0  0  0  2  0  0  0  0  0  0
  182.6610  178.2710  137.7530 C   0  0  0  0  0  2  0  0  0  0  0  0
  189.8460  177.1550  145.1700 C   0  0  0  0  0  0  0  0  0  0  0  0
  189.9740  176.8740  146.5240 C   0  0  0  0  0  0  0  0  0  0  0  0
  188.8540  177.0500  147.3160 C   0  0  0  0  0  3  0  0  0  0  0  0
  187.7190  177.4540  146.7750 N   0  0  0  0  0  0  0  0  0  0  0  0
  187.6340  177.7190  145.4840 C   0  0  0  0  0  0  0  0  0  0  0  0
  188.6800  177.5640  144.6940 N   0  0  0  0  0  4  0  0  0  0  0  0
  186.3240  178.1590  145.0050 N   0  0  0  0  0  2  0  0  0  0  0  0
  191.2890  176.4020  147.1300 C   0  0  0  0  0  0  0  0  0  0  0  0
  191.6200  177.2320  148.1530 F   0  0  0  0  0  0  0  0  0  0  0  0
  191.1260  175.1390  147.6150 F   0  0  0  0  0  0  0  0  0  0  0  0
  192.2890  176.4080  146.2110 F   0  0  0  0  0  0  0  0  0  0  0  0
  190.9900  176.9930  144.2900 N   0  0  0  0  0  2  0  0  0  0  0  0
  191.5250  179.3630  144.1070 C   0  0  0  0  0  1  0  0  0  0  0  0
  191.3510  178.0440  143.3580 C   0  0  0  0  0  2  0  0  0  0  0  0
  183.6560  178.5720  144.5850 O   0  0  0  0  0  0  0  0  0  0  0  0
  182.3100  178.8750  144.3440 C   0  0  0  0  0  1  0  0  0  0  0  0
  1 22  1  0  0  0  0
  2  1  2  0  0  0  0
  3  2  1  0  0  0  0
  4  3  2  0  0  0  0
  4  5  1  0  0  0  0
  5  6  2  0  0  0  0
  6  1  1  0  0  0  0
  6 30  1  0  0  0  0
  7  3  1  0  0  0  0
  8  4  1  0  0  0  0
  9  8  2  0  0  0  0
 10 11  1  0  0  0  0
 10  8  1  0  0  0  0
 12 11  1  0  0  0  0
 13 12  1  0  0  0  0
 14 13  1  0  0  0  0
 14 15  1  0  0  0  0
 15 10  1  0  0  0  0
 16 17  1  0  0  0  0
 17 23  1  0  0  0  0
 17 18  2  0  0  0  0
 19 18  1  0  0  0  0
 20 19  2  0  0  0  0
 21 16  2  0  0  0  0
 21 20  2  0  0  0  0
 22 20  1  0  0  0  0
 23 25  1  0  0  0  0
 23 24  1  0  0  0  0
 26 23  1  0  0  0  0
 27 16  1  0  0  0  0
 29 28  1  0  0  0  0
 29 27  1  0  0  0  0
 31 30  1  0  0  0  0
M  END
>  <MODEL>
2

>  <REMARK>
 VINA RESULT:      -8.7      3.575      5.152
  Name = 8u7h
  6 active torsions:
  status: ('A' for Active; 'I' for Inactive)
    1  A    between atoms: C_2  and  N_3
    2  A    between atoms: N_3  and  C_4
    3  A    between atoms: C_5  and  C_27
    4  A    between atoms: N_10  and  C_11
    5  A    between atoms: C_14  and  C_19
    6  A    between atoms: C_16  and  O_17
                            x       y       z     vdW  Elec       q    Type
                         _______ _______ _______ _____ _____    ______ ____

>  <TORSDO>
F 6

$$$$
8u7h
 OpenBabel11062412003D

 31 33  0  0  0  0  0  0  0  0999 V2000
  183.5390  178.9760  143.2930 C   0  0  0  0  0  0  0  0  0  0  0  0
  184.4490  178.8980  142.2460 C   0  0  0  0  0  3  0  0  0  0  0  0
  184.0050  178.6590  140.9500 C   0  0  0  0  0  0  0  0  0  0  0  0
  182.6500  178.5220  140.6970 C   0  0  0  0  0  0  0  0  0  0  0  0
  181.7430  178.6120  141.7380 C   0  0  0  0  0  3  0  0  0  0  0  0
  182.1860  178.8610  143.0270 C   0  0  0  0  0  0  0  0  0  0  0  0
  184.9040  178.5650  139.9240 F   0  0  0  0  0  0  0  0  0  0  0  0
  182.1240  178.2620  139.2660 C   0  0  0  0  0  0  0  0  0  0  0  0
  182.0700  177.1410  138.8880 O   0  0  0  0  0  0  0  0  0  0  0  0
  181.7420  179.3380  138.3480 N   0  0  0  0  0  0  0  0  0  0  0  0
  181.7560  180.7470  138.6530 C   0  0  0  0  0  2  0  0  0  0  0  0
  180.3120  181.2220  138.4500 C   0  0  0  0  0  2  0  0  0  0  0  0
  179.9070  181.1110  137.0840 O   0  0  0  0  0  0  0  0  0  0  0  0
  180.8450  180.4090  136.2760 C   0  0  0  0  0  2  0  0  0  0  0  0
  181.2540  179.1110  136.9960 C   0  0  0  0  0  2  0  0  0  0  0  0
  187.1780  177.7930  145.5540 C   0  0  0  0  0  0  0  0  0  0  0  0
  187.2060  178.0290  146.9230 C   0  0  0  0  0  0  0  0  0  0  0  0
  186.1200  178.6810  147.4760 C   0  0  0  0  0  3  0  0  0  0  0  0
  185.1050  179.0390  146.7120 N   0  0  0  0  0  0  0  0  0  0  0  0
  185.1130  178.8070  145.4120 C   0  0  0  0  0  0  0  0  0  0  0  0
  186.1310  178.1860  144.8450 N   0  0  0  0  0  4  0  0  0  0  0  0
  183.9310  179.2510  144.6730 N   0  0  0  0  0  2  0  0  0  0  0  0
  188.3820  177.6020  147.7910 C   0  0  0  0  0  0  0  0  0  0  0  0
  189.4890  178.2810  147.3900 F   0  0  0  0  0  0  0  0  0  0  0  0
  188.1120  177.9140  149.0890 F   0  0  0  0  0  0  0  0  0  0  0  0
  188.6180  176.2680  147.6870 F   0  0  0  0  0  0  0  0  0  0  0  0
  188.2930  177.1160  144.9170 N   0  0  0  0  0  2  0  0  0  0  0  0
  190.3130  178.2790  144.2060 C   0  0  0  0  0  1  0  0  0  0  0  0
  188.9600  177.7170  143.7770 C   0  0  0  0  0  2  0  0  0  0  0  0
  181.2780  178.9550  144.0900 O   0  0  0  0  0  0  0  0  0  0  0  0
  180.0480  178.3150  143.9010 C   0  0  0  0  0  1  0  0  0  0  0  0
  1 22  1  0  0  0  0
  2  1  2  0  0  0  0
  3  2  1  0  0  0  0
  4  3  2  0  0  0  0
  4  5  1  0  0  0  0
  5  6  2  0  0  0  0
  6  1  1  0  0  0  0
  6 30  1  0  0  0  0
  7  3  1  0  0  0  0
  8  4  1  0  0  0  0
  9  8  2  0  0  0  0
 10 11  1  0  0  0  0
 10  8  1  0  0  0  0
 12 11  1  0  0  0  0
 13 12  1  0  0  0  0
 14 15  1  0  0  0  0
 14 13  1  0  0  0  0
 15 10  1  0  0  0  0
 16 17  1  0  0  0  0
 17 18  2  0  0  0  0
 17 23  1  0  0  0  0
 19 18  1  0  0  0  0
 20 19  2  0  0  0  0
 21 20  2  0  0  0  0
 21 16  2  0  0  0  0
 22 20  1  0  0  0  0
 23 25  1  0  0  0  0
 24 23  1  0  0  0  0
 26 23  1  0  0  0  0
 27 16  1  0  0  0  0
 29 28  1  0  0  0  0
 29 27  1  0  0  0  0
 31 30  1  0  0  0  0
M  END
>  <MODEL>
3

>  <REMARK>
 VINA RESULT:      -8.6      4.616      6.473
  Name = 8u7h
  6 active torsions:
  status: ('A' for Active; 'I' for Inactive)
    1  A    between atoms: C_2  and  N_3
    2  A    between atoms: N_3  and  C_4
    3  A    between atoms: C_5  and  C_27
    4  A    between atoms: N_10  and  C_11
    5  A    between atoms: C_14  and  C_19
    6  A    between atoms: C_16  and  O_17
                            x       y       z     vdW  Elec       q    Type
                         _______ _______ _______ _____ _____    ______ ____

>  <TORSDO>
F 6

$$$$
8u7h
 OpenBabel11062412003D

 31 33  0  0  0  0  0  0  0  0999 V2000
  183.5890  178.9880  143.2510 C   0  0  0  0  0  0  0  0  0  0  0  0
  184.5170  178.9540  142.2180 C   0  0  0  0  0  3  0  0  0  0  0  0
  184.0970  178.7530  140.9080 C   0  0  0  0  0  0  0  0  0  0  0  0
  182.7480  178.6110  140.6270 C   0  0  0  0  0  0  0  0  0  0  0  0
  181.8230  178.6580  141.6550 C   0  0  0  0  0  3  0  0  0  0  0  0
  182.2420  178.8680  142.9590 C   0  0  0  0  0  0  0  0  0  0  0  0
  185.0140  178.7020  139.8950 F   0  0  0  0  0  0  0  0  0  0  0  0
  182.2490  178.3930  139.1800 C   0  0  0  0  0  0  0  0  0  0  0  0
  181.9620  179.3460  138.5400 O   0  0  0  0  0  0  0  0  0  0  0  0
  182.0670  177.0640  138.5900 N   0  0  0  0  0  0  0  0  0  0  0  0
  182.3630  175.8100  139.2380 C   0  0  0  0  0  2  0  0  0  0  0  0
  183.4030  175.1250  138.3420 C   0  0  0  0  0  2  0  0  0  0  0  0
  182.8610  174.7980  137.0610 O   0  0  0  0  0  0  0  0  0  0  0  0
  181.5700  175.3520  136.8380 C   0  0  0  0  0  2  0  0  0  0  0  0
  181.5890  176.8400  137.2350 C   0  0  0  0  0  2  0  0  0  0  0  0
  187.2150  177.7930  145.5270 C   0  0  0  0  0  0  0  0  0  0  0  0
  187.2180  177.9810  146.9030 C   0  0  0  0  0  0  0  0  0  0  0  0
  186.1120  178.5930  147.4620 C   0  0  0  0  0  3  0  0  0  0  0  0
  185.1020  178.9590  146.6940 N   0  0  0  0  0  0  0  0  0  0  0  0
  185.1340  178.7730  145.3870 C   0  0  0  0  0  0  0  0  0  0  0  0
  186.1720  178.1920  144.8150 N   0  0  0  0  0  4  0  0  0  0  0  0
  183.9550  179.2210  144.6460 N   0  0  0  0  0  2  0  0  0  0  0  0
  188.3890  177.5450  147.7740 C   0  0  0  0  0  0  0  0  0  0  0  0
  188.1160  177.8690  149.0650 F   0  0  0  0  0  0  0  0  0  0  0  0
  188.5380  176.1940  147.6750 F   0  0  0  0  0  0  0  0  0  0  0  0
  189.5430  178.1560  147.3970 F   0  0  0  0  0  0  0  0  0  0  0  0
  188.3520  177.1590  144.8840 N   0  0  0  0  0  2  0  0  0  0  0  0
  190.4310  178.2300  144.1950 C   0  0  0  0  0  1  0  0  0  0  0  0
  189.0240  177.8110  143.7750 C   0  0  0  0  0  2  0  0  0  0  0  0
  181.3160  178.9180  144.0090 O   0  0  0  0  0  0  0  0  0  0  0  0
  180.0830  178.2990  143.7670 C   0  0  0  0  0  1  0  0  0  0  0  0
  1 22  1  0  0  0  0
  2  1  2  0  0  0  0
  3  2  1  0  0  0  0
  4  3  2  0  0  0  0
  4  5  1  0  0  0  0
  5  6  2  0  0  0  0
  6  1  1  0  0  0  0
  6 30  1  0  0  0  0
  7  3  1  0  0  0  0
  8  4  1  0  0  0  0
  9  8  2  0  0  0  0
 10  8  1  0  0  0  0
 10 11  1  0  0  0  0
 12 11  1  0  0  0  0
 13 12  1  0  0  0  0
 14 13  1  0  0  0  0
 14 15  1  0  0  0  0
 15 10  1  0  0  0  0
 16 17  1  0  0  0  0
 17 18  2  0  0  0  0
 17 23  1  0  0  0  0
 19 18  1  0  0  0  0
 20 19  2  0  0  0  0
 21 20  2  0  0  0  0
 21 16  2  0  0  0  0
 22 20  1  0  0  0  0
 23 24  1  0  0  0  0
 25 23  1  0  0  0  0
 26 23  1  0  0  0  0
 27 16  1  0  0  0  0
 29 28  1  0  0  0  0
 29 27  1  0  0  0  0
 31 30  1  0  0  0  0
M  END
>  <MODEL>
4

>  <REMARK>
 VINA RESULT:      -8.5      4.014      5.888
  Name = 8u7h
  6 active torsions:
  status: ('A' for Active; 'I' for Inactive)
    1  A    between atoms: C_2  and  N_3
    2  A    between atoms: N_3  and  C_4
    3  A    between atoms: C_5  and  C_27
    4  A    between atoms: N_10  and  C_11
    5  A    between atoms: C_14  and  C_19
    6  A    between atoms: C_16  and  O_17
                            x       y       z     vdW  Elec       q    Type
                         _______ _______ _______ _____ _____    ______ ____

>  <TORSDO>
F 6

$$$$
8u7h
 OpenBabel11062412003D

 31 33  0  0  0  0  0  0  0  0999 V2000
  187.9120  178.2760  141.4500 C   0  0  0  0  0  0  0  0  0  0  0  0
  186.8240  178.6220  142.2410 C   0  0  0  0  0  3  0  0  0  0  0  0
  185.6190  178.9870  141.6500 C   0  0  0  0  0  0  0  0  0  0  0  0
  185.4950  178.9830  140.2700 C   0  0  0  0  0  0  0  0  0  0  0  0
  186.5770  178.6270  139.4830 C   0  0  0  0  0  3  0  0  0  0  0  0
  187.7730  178.2530  140.0730 C   0  0  0  0  0  0  0  0  0  0  0  0
  184.5550  179.3450  142.4300 F   0  0  0  0  0  0  0  0  0  0  0  0
  184.1670  179.3790  139.5830 C   0  0  0  0  0  0  0  0  0  0  0  0
  184.0930  180.4530  139.0910 O   0  0  0  0  0  0  0  0  0  0  0  0
  182.9890  178.5080  139.5620 N   0  0  0  0  0  0  0  0  0  0  0  0
  182.9170  177.1800  140.1190 C   0  0  0  0  0  2  0  0  0  0  0  0
  182.5550  176.2640  138.9430 C   0  0  0  0  0  2  0  0  0  0  0  0
  181.2540  176.5560  138.4290 O   0  0  0  0  0  0  0  0  0  0  0  0
  180.6840  177.7380  138.9790 C   0  0  0  0  0  2  0  0  0  0  0  0
  181.7300  178.8670  138.9290 C   0  0  0  0  0  2  0  0  0  0  0  0
  189.0660  177.2110  145.6070 C   0  0  0  0  0  0  0  0  0  0  0  0
  190.4150  177.0310  145.8900 C   0  0  0  0  0  0  0  0  0  0  0  0
  191.3020  177.1320  144.8340 C   0  0  0  0  0  3  0  0  0  0  0  0
  190.8570  177.4030  143.6210 N   0  0  0  0  0  0  0  0  0  0  0  0
  189.5670  177.5600  143.3850 C   0  0  0  0  0  0  0  0  0  0  0  0
  188.6880  177.4720  144.3670 N   0  0  0  0  0  4  0  0  0  0  0  0
  189.1990  177.8560  142.0010 N   0  0  0  0  0  2  0  0  0  0  0  0
  190.9110  176.7270  147.2970 C   0  0  0  0  0  0  0  0  0  0  0  0
  192.2700  176.7420  147.2920 F   0  0  0  0  0  0  0  0  0  0  0  0
  190.4570  177.6900  148.1460 F   0  0  0  0  0  0  0  0  0  0  0  0
  190.4820  175.5100  147.7220 F   0  0  0  0  0  0  0  0  0  0  0  0
  188.0880  177.1130  146.6770 N   0  0  0  0  0  2  0  0  0  0  0  0
  185.9020  178.0900  146.2180 C   0  0  0  0  0  1  0  0  0  0  0  0
  187.2190  178.2350  146.9780 C   0  0  0  0  0  2  0  0  0  0  0  0
  188.8750  177.8890  139.2880 O   0  0  0  0  0  0  0  0  0  0  0  0
  189.0540  178.6230  138.1100 C   0  0  0  0  0  1  0  0  0  0  0  0
  1 22  1  0  0  0  0
  1  2  1  0  0  0  0
  3  2  2  0  0  0  0
  3  7  1  0  0  0  0
  4  3  1  0  0  0  0
  5  6  1  0  0  0  0
  5  4  2  0  0  0  0
  6  1  2  0  0  0  0
  8  4  1  0  0  0  0
  9  8  2  0  0  0  0
 10  8  1  0  0  0  0
 10 11  1  0  0  0  0
 12 11  1  0  0  0  0
 13 12  1  0  0  0  0
 13 14  1  0  0  0  0
 15 14  1  0  0  0  0
 15 10  1  0  0  0  0
 16 17  1  0  0  0  0
 16 27  1  0  0  0  0
 17 23  1  0  0  0  0
 18 17  2  0  0  0  0
 19 18  1  0  0  0  0
 20 19  2  0  0  0  0
 20 21  2  0  0  0  0
 21 16  2  0  0  0  0
 22 20  1  0  0  0  0
 23 26  1  0  0  0  0
 23 25  1  0  0  0  0
 24 23  1  0  0  0  0
 27 29  1  0  0  0  0
 28 29  1  0  0  0  0
 30  6  1  0  0  0  0
 31 30  1  0  0  0  0
M  END
>  <MODEL>
5

>  <REMARK>
 VINA RESULT:      -8.2      3.428      3.970
  Name = 8u7h
  6 active torsions:
  status: ('A' for Active; 'I' for Inactive)
    1  A    between atoms: C_2  and  N_3
    2  A    between atoms: N_3  and  C_4
    3  A    between atoms: C_5  and  C_27
    4  A    between atoms: N_10  and  C_11
    5  A    between atoms: C_14  and  C_19
    6  A    between atoms: C_16  and  O_17
                            x       y       z     vdW  Elec       q    Type
                         _______ _______ _______ _____ _____    ______ ____

>  <TORSDO>
F 6

$$$$
8u7h
 OpenBabel11062412003D

 31 33  0  0  0  0  0  0  0  0999 V2000
  186.3830  178.4750  141.5820 C   0  0  0  0  0  0  0  0  0  0  0  0
  187.7080  178.3030  141.2010 C   0  0  0  0  0  3  0  0  0  0  0  0
  188.0440  178.2400  139.8530 C   0  0  0  0  0  0  0  0  0  0  0  0
  187.0600  178.3710  138.8870 C   0  0  0  0  0  0  0  0  0  0  0  0
  185.7420  178.5540  139.2680 C   0  0  0  0  0  3  0  0  0  0  0  0
  185.4090  178.6280  140.6110 C   0  0  0  0  0  0  0  0  0  0  0  0
  189.3460  178.0530  139.4800 F   0  0  0  0  0  0  0  0  0  0  0  0
  187.4030  178.3110  137.3800 C   0  0  0  0  0  0  0  0  0  0  0  0
  187.4540  179.3300  136.7790 O   0  0  0  0  0  0  0  0  0  0  0  0
  187.6120  177.0530  136.6580 N   0  0  0  0  0  0  0  0  0  0  0  0
  187.5760  175.7350  137.2420 C   0  0  0  0  0  2  0  0  0  0  0  0
  188.9590  175.1300  136.9650 C   0  0  0  0  0  2  0  0  0  0  0  0
  189.1830  174.9450  135.5660 O   0  0  0  0  0  0  0  0  0  0  0  0
  188.1780  175.5390  134.7530 C   0  0  0  0  0  2  0  0  0  0  0  0
  187.9250  176.9770  135.2400 C   0  0  0  0  0  2  0  0  0  0  0  0
  188.6000  177.6410  145.3430 C   0  0  0  0  0  0  0  0  0  0  0  0
  187.8900  177.6370  146.5370 C   0  0  0  0  0  0  0  0  0  0  0  0
  186.5480  177.9630  146.4770 C   0  0  0  0  0  3  0  0  0  0  0  0
  185.9880  178.2460  145.3160 N   0  0  0  0  0  0  0  0  0  0  0  0
  186.6940  178.2470  144.1990 C   0  0  0  0  0  0  0  0  0  0  0  0
  187.9780  177.9420  144.2140 N   0  0  0  0  0  4  0  0  0  0  0  0
  185.9610  178.5770  142.9770 N   0  0  0  0  0  2  0  0  0  0  0  0
  188.5510  177.3010  147.8670 C   0  0  0  0  0  0  0  0  0  0  0  0
  189.5030  178.2340  148.1290 F   0  0  0  0  0  0  0  0  0  0  0  0
  187.6100  177.3360  148.8520 F   0  0  0  0  0  0  0  0  0  0  0  0
  189.1290  176.0720  147.8380 F   0  0  0  0  0  0  0  0  0  0  0  0
  190.0140  177.3100  145.3450 N   0  0  0  0  0  2  0  0  0  0  0  0
  191.4710  178.7800  144.0570 C   0  0  0  0  0  1  0  0  0  0  0  0
  190.7920  177.4140  144.1240 C   0  0  0  0  0  2  0  0  0  0  0  0
  184.0800  178.8140  141.0090 O   0  0  0  0  0  0  0  0  0  0  0  0
  183.1870  177.7950  140.6540 C   0  0  0  0  0  1  0  0  0  0  0  0
  1 22  1  0  0  0  0
  2  1  1  0  0  0  0
  3  2  2  0  0  0  0
  4  5  2  0  0  0  0
  4  3  1  0  0  0  0
  5  6  1  0  0  0  0
  6 30  1  0  0  0  0
  6  1  2  0  0  0  0
  7  3  1  0  0  0  0
  8  4  1  0  0  0  0
  9  8  2  0  0  0  0
 10 11  1  0  0  0  0
 10  8  1  0  0  0  0
 12 11  1  0  0  0  0
 13 12  1  0  0  0  0
 14 15  1  0  0  0  0
 14 13  1  0  0  0  0
 15 10  1  0  0  0  0
 16 27  1  0  0  0  0
 16 17  1  0  0  0  0
 17 23  1  0  0  0  0
 18 17  2  0  0  0  0
 19 18  1  0  0  0  0
 20 21  2  0  0  0  0
 20 19  2  0  0  0  0
 21 16  2  0  0  0  0
 22 20  1  0  0  0  0
 23 24  1  0  0  0  0
 23 25  1  0  0  0  0
 26 23  1  0  0  0  0
 28 29  1  0  0  0  0
 29 27  1  0  0  0  0
 31 30  1  0  0  0  0
M  END
>  <MODEL>
6

>  <REMARK>
 VINA RESULT:      -8.2      2.041      3.730
  Name = 8u7h
  6 active torsions:
  status: ('A' for Active; 'I' for Inactive)
    1  A    between atoms: C_2  and  N_3
    2  A    between atoms: N_3  and  C_4
    3  A    between atoms: C_5  and  C_27
    4  A    between atoms: N_10  and  C_11
    5  A    between atoms: C_14  and  C_19
    6  A    between atoms: C_16  and  O_17
                            x       y       z     vdW  Elec       q    Type
                         _______ _______ _______ _____ _____    ______ ____

>  <TORSDO>
F 6

$$$$
8u7h
 OpenBabel11062412003D

 31 33  0  0  0  0  0  0  0  0999 V2000
  187.0760  178.1480  141.5640 C   0  0  0  0  0  0  0  0  0  0  0  0
  188.4200  177.8570  141.3610 C   0  0  0  0  0  3  0  0  0  0  0  0
  188.9580  177.8980  140.0800 C   0  0  0  0  0  0  0  0  0  0  0  0
  188.1600  178.2520  139.0040 C   0  0  0  0  0  0  0  0  0  0  0  0
  186.8250  178.5540  139.2090 C   0  0  0  0  0  3  0  0  0  0  0  0
  186.2920  178.5230  140.4870 C   0  0  0  0  0  0  0  0  0  0  0  0
  190.2760  177.5940  139.8810 F   0  0  0  0  0  0  0  0  0  0  0  0
  188.7300  178.3130  137.5680 C   0  0  0  0  0  0  0  0  0  0  0  0
  188.9340  179.3780  137.0940 O   0  0  0  0  0  0  0  0  0  0  0  0
  188.9770  177.1180  136.7560 N   0  0  0  0  0  0  0  0  0  0  0  0
  188.7750  175.7560  137.1840 C   0  0  0  0  0  2  0  0  0  0  0  0
  190.1470  175.0810  137.0560 C   0  0  0  0  0  2  0  0  0  0  0  0
  190.5770  175.0160  135.6940 O   0  0  0  0  0  0  0  0  0  0  0  0
  189.7470  175.7570  134.8070 C   0  0  0  0  0  2  0  0  0  0  0  0
  189.5040  177.1570  135.4010 C   0  0  0  0  0  2  0  0  0  0  0  0
  188.8700  177.8050  145.6150 C   0  0  0  0  0  0  0  0  0  0  0  0
  188.0170  177.6430  146.7000 C   0  0  0  0  0  0  0  0  0  0  0  0
  186.6580  177.6680  146.4470 C   0  0  0  0  0  3  0  0  0  0  0  0
  186.2190  177.8260  145.2120 N   0  0  0  0  0  0  0  0  0  0  0  0
  187.0570  177.9850  144.2040 C   0  0  0  0  0  0  0  0  0  0  0  0
  188.3630  177.9670  144.4040 N   0  0  0  0  0  4  0  0  0  0  0  0
  186.4500  178.1510  142.8840 N   0  0  0  0  0  2  0  0  0  0  0  0
  188.5410  177.4550  148.1180 C   0  0  0  0  0  0  0  0  0  0  0  0
  187.4850  177.4250  148.9720 F   0  0  0  0  0  0  0  0  0  0  0  0
  189.2070  176.2680  148.1900 F   0  0  0  0  0  0  0  0  0  0  0  0
  189.3750  178.4640  148.4770 F   0  0  0  0  0  0  0  0  0  0  0  0
  190.3070  177.7910  145.8220 N   0  0  0  0  0  2  0  0  0  0  0  0
  191.9720  176.1240  146.4470 C   0  0  0  0  0  1  0  0  0  0  0  0
  191.1080  176.6890  145.3220 C   0  0  0  0  0  2  0  0  0  0  0  0
  184.9420  178.8270  140.7070 O   0  0  0  0  0  0  0  0  0  0  0  0
  184.1920  179.1360  139.5660 C   0  0  0  0  0  1  0  0  0  0  0  0
  1 22  1  0  0  0  0
  2  1  1  0  0  0  0
  3  2  2  0  0  0  0
  4  5  2  0  0  0  0
  4  3  1  0  0  0  0
  5  6  1  0  0  0  0
  6 30  1  0  0  0  0
  6  1  2  0  0  0  0
  7  3  1  0  0  0  0
  8  4  1  0  0  0  0
  9  8  2  0  0  0  0
 10 11  1  0  0  0  0
 10  8  1  0  0  0  0
 12 11  1  0  0  0  0
 13 12  1  0  0  0  0
 14 15  1  0  0  0  0
 14 13  1  0  0  0  0
 15 10  1  0  0  0  0
 16 27  1  0  0  0  0
 16 17  1  0  0  0  0
 17 23  1  0  0  0  0
 18 17  2  0  0  0  0
 19 18  1  0  0  0  0
 20 21  2  0  0  0  0
 20 19  2  0  0  0  0
 21 16  2  0  0  0  0
 22 20  1  0  0  0  0
 23 25  1  0  0  0  0
 23 26  1  0  0  0  0
 23 24  1  0  0  0  0
 29 27  1  0  0  0  0
 29 28  1  0  0  0  0
 31 30  1  0  0  0  0
M  END
>  <MODEL>
7

>  <REMARK>
 VINA RESULT:      -8.1      2.020      3.597
  Name = 8u7h
  6 active torsions:
  status: ('A' for Active; 'I' for Inactive)
    1  A    between atoms: C_2  and  N_3
    2  A    between atoms: N_3  and  C_4
    3  A    between atoms: C_5  and  C_27
    4  A    between atoms: N_10  and  C_11
    5  A    between atoms: C_14  and  C_19
    6  A    between atoms: C_16  and  O_17
                            x       y       z     vdW  Elec       q    Type
                         _______ _______ _______ _____ _____    ______ ____

>  <TORSDO>
F 6

$$$$
8u7h
 OpenBabel11062412003D

 31 33  0  0  0  0  0  0  0  0999 V2000
  187.2980  178.3630  141.4060 C   0  0  0  0  0  0  0  0  0  0  0  0
  186.1150  178.6920  142.0570 C   0  0  0  0  0  3  0  0  0  0  0  0
  184.9760  179.0030  141.3220 C   0  0  0  0  0  0  0  0  0  0  0  0
  185.0120  178.9610  139.9380 C   0  0  0  0  0  0  0  0  0  0  0  0
  186.1870  178.6210  139.2900 C   0  0  0  0  0  3  0  0  0  0  0  0
  187.3190  178.3020  140.0230 C   0  0  0  0  0  0  0  0  0  0  0  0
  183.8190  179.3430  141.9650 F   0  0  0  0  0  0  0  0  0  0  0  0
  183.7610  179.2950  139.0930 C   0  0  0  0  0  0  0  0  0  0  0  0
  183.5850  180.4230  138.7800 O   0  0  0  0  0  0  0  0  0  0  0  0
  182.7630  178.2920  138.7120 N   0  0  0  0  0  0  0  0  0  0  0  0
  182.8280  176.8850  139.0200 C   0  0  0  0  0  2  0  0  0  0  0  0
  182.8130  176.1700  137.6630 C   0  0  0  0  0  2  0  0  0  0  0  0
  181.5780  176.3740  136.9730 O   0  0  0  0  0  0  0  0  0  0  0  0
  180.7400  177.3400  137.5960 C   0  0  0  0  0  2  0  0  0  0  0  0
  181.5760  178.5900  137.9270 C   0  0  0  0  0  2  0  0  0  0  0  0
  188.0250  177.5730  145.7180 C   0  0  0  0  0  0  0  0  0  0  0  0
  189.3380  177.4350  146.1490 C   0  0  0  0  0  0  0  0  0  0  0  0
  190.3290  177.4850  145.1860 C   0  0  0  0  0  3  0  0  0  0  0  0
  190.0100  177.6740  143.9190 N   0  0  0  0  0  0  0  0  0  0  0  0
  188.7500  177.7950  143.5420 C   0  0  0  0  0  0  0  0  0  0  0  0
  187.7740  177.7520  144.4310 N   0  0  0  0  0  4  0  0  0  0  0  0
  188.5240  178.0000  142.1120 N   0  0  0  0  0  2  0  0  0  0  0  0
  189.6890  177.2250  147.6160 C   0  0  0  0  0  0  0  0  0  0  0  0
  188.9840  176.1620  148.0840 F   0  0  0  0  0  0  0  0  0  0  0  0
  191.0210  176.9580  147.7200 F   0  0  0  0  0  0  0  0  0  0  0  0
  189.3870  178.3210  148.3600 F   0  0  0  0  0  0  0  0  0  0  0  0
  186.9410  177.5250  146.6850 N   0  0  0  0  0  2  0  0  0  0  0  0
  184.8460  178.6370  146.1250 C   0  0  0  0  0  1  0  0  0  0  0  0
  186.1350  178.7040  146.9400 C   0  0  0  0  0  2  0  0  0  0  0  0
  188.5140  177.9560  139.3800 O   0  0  0  0  0  0  0  0  0  0  0  0
  188.4480  177.8490  137.9850 C   0  0  0  0  0  1  0  0  0  0  0  0
  1  2  1  0  0  0  0
  1 22  1  0  0  0  0
  3  7  1  0  0  0  0
  3  2  2  0  0  0  0
  4  3  1  0  0  0  0
  5  4  2  0  0  0  0
  5  6  1  0  0  0  0
  6  1  2  0  0  0  0
  8  4  1  0  0  0  0
  9  8  2  0  0  0  0
 10 11  1  0  0  0  0
 10  8  1  0  0  0  0
 12 11  1  0  0  0  0
 13 14  1  0  0  0  0
 13 12  1  0  0  0  0
 14 15  1  0  0  0  0
 15 10  1  0  0  0  0
 16 17  1  0  0  0  0
 16 27  1  0  0  0  0
 17 23  1  0  0  0  0
 18 17  2  0  0  0  0
 19 18  1  0  0  0  0
 20 19  2  0  0  0  0
 20 21  2  0  0  0  0
 21 16  2  0  0  0  0
 22 20  1  0  0  0  0
 23 25  1  0  0  0  0
 23 24  1  0  0  0  0
 23 26  1  0  0  0  0
 27 29  1  0  0  0  0
 28 29  1  0  0  0  0
 30  6  1  0  0  0  0
 31 30  1  0  0  0  0
M  END
>  <MODEL>
8

>  <REMARK>
 VINA RESULT:      -8.1      3.292      3.705
  Name = 8u7h
  6 active torsions:
  status: ('A' for Active; 'I' for Inactive)
    1  A    between atoms: C_2  and  N_3
    2  A    between atoms: N_3  and  C_4
    3  A    between atoms: C_5  and  C_27
    4  A    between atoms: N_10  and  C_11
    5  A    between atoms: C_14  and  C_19
    6  A    between atoms: C_16  and  O_17
                            x       y       z     vdW  Elec       q    Type
                         _______ _______ _______ _____ _____    ______ ____

>  <TORSDO>
F 6

$$$$
8u7h
 OpenBabel11062412003D

 31 33  0  0  0  0  0  0  0  0999 V2000
  190.4050  176.9720  139.8630 C   0  0  0  0  0  0  0  0  0  0  0  0
  191.6910  177.2160  140.3280 C   0  0  0  0  0  3  0  0  0  0  0  0
  192.7870  176.9770  139.5070 C   0  0  0  0  0  0  0  0  0  0  0  0
  192.5980  176.5180  138.2140 C   0  0  0  0  0  0  0  0  0  0  0  0
  191.3160  176.2870  137.7470 C   0  0  0  0  0  3  0  0  0  0  0  0
  190.2230  176.5350  138.5620 C   0  0  0  0  0  0  0  0  0  0  0  0
  194.0530  177.2010  139.9730 F   0  0  0  0  0  0  0  0  0  0  0  0
  193.7970  176.2480  137.2750 C   0  0  0  0  0  0  0  0  0  0  0  0
  194.1630  177.1280  136.5730 O   0  0  0  0  0  0  0  0  0  0  0  0
  194.4590  174.9450  137.1800 N   0  0  0  0  0  0  0  0  0  0  0  0
  194.1290  173.7770  137.9580 C   0  0  0  0  0  2  0  0  0  0  0  0
  195.4140  173.4160  138.7150 C   0  0  0  0  0  2  0  0  0  0  0  0
  196.4590  173.0230  137.8230 O   0  0  0  0  0  0  0  0  0  0  0  0
  196.1420  173.2460  136.4530 C   0  0  0  0  0  2  0  0  0  0  0  0
  195.5810  174.6710  136.2950 C   0  0  0  0  0  2  0  0  0  0  0  0
  189.8860  177.3780  144.2580 C   0  0  0  0  0  0  0  0  0  0  0  0
  188.5940  177.4260  144.7660 C   0  0  0  0  0  0  0  0  0  0  0  0
  187.5550  177.4130  143.8540 C   0  0  0  0  0  3  0  0  0  0  0  0
  187.8110  177.3410  142.5620 N   0  0  0  0  0  0  0  0  0  0  0  0
  189.0520  177.3040  142.1110 C   0  0  0  0  0  0  0  0  0  0  0  0
  190.0730  177.3150  142.9490 N   0  0  0  0  0  4  0  0  0  0  0  0
  189.2060  177.2250  140.6590 N   0  0  0  0  0  2  0  0  0  0  0  0
  188.3170  177.5020  146.2610 C   0  0  0  0  0  0  0  0  0  0  0  0
  188.9840  178.5680  146.7750 F   0  0  0  0  0  0  0  0  0  0  0  0
  186.9800  177.6760  146.4570 F   0  0  0  0  0  0  0  0  0  0  0  0
  188.7240  176.3740  146.8990 F   0  0  0  0  0  0  0  0  0  0  0  0
  191.0180  177.3940  145.1680 N   0  0  0  0  0  2  0  0  0  0  0  0
  191.9070  176.0170  146.9720 C   0  0  0  0  0  1  0  0  0  0  0  0
  191.7380  176.1680  145.4620 C   0  0  0  0  0  2  0  0  0  0  0  0
  188.9200  176.3060  138.1020 O   0  0  0  0  0  0  0  0  0  0  0  0
  188.7980  176.0050  136.7400 C   0  0  0  0  0  1  0  0  0  0  0  0
  1  2  1  0  0  0  0
  1 22  1  0  0  0  0
  3  7  1  0  0  0  0
  3  2  2  0  0  0  0
  4  3  1  0  0  0  0
  5  4  2  0  0  0  0
  5  6  1  0  0  0  0
  6  1  2  0  0  0  0
  8  4  1  0  0  0  0
  9  8  2  0  0  0  0
 10  8  1  0  0  0  0
 10 11  1  0  0  0  0
 11 12  1  0  0  0  0
 13 12  1  0  0  0  0
 14 13  1  0  0  0  0
 15 14  1  0  0  0  0
 15 10  1  0  0  0  0
 16 17  1  0  0  0  0
 16 27  1  0  0  0  0
 17 23  1  0  0  0  0
 18 17  2  0  0  0  0
 19 18  1  0  0  0  0
 20 19  2  0  0  0  0
 20 21  2  0  0  0  0
 21 16  2  0  0  0  0
 22 20  1  0  0  0  0
 23 25  1  0  0  0  0
 23 24  1  0  0  0  0
 23 26  1  0  0  0  0
 27 29  1  0  0  0  0
 29 28  1  0  0  0  0
 30  6  1  0  0  0  0
 31 30  1  0  0  0  0
M  END
>  <MODEL>
9

>  <REMARK>
 VINA RESULT:      -8.1      3.368      5.370
  Name = 8u7h
  6 active torsions:
  status: ('A' for Active; 'I' for Inactive)
    1  A    between atoms: C_2  and  N_3
    2  A    between atoms: N_3  and  C_4
    3  A    between atoms: C_5  and  C_27
    4  A    between atoms: N_10  and  C_11
    5  A    between atoms: C_14  and  C_19
    6  A    between atoms: C_16  and  O_17
                            x       y       z     vdW  Elec       q    Type
                         _______ _______ _______ _____ _____    ______ ____

>  <TORSDO>
F 6

$$$$
