8smc
 OpenBabel11062411593D

 24 25  0  0  0  0  0  0  0  0999 V2000
  189.7370  177.9390  144.6310 C   0  0  0  0  0  1  0  0  0  0  0  0
  188.5910  177.1960  145.1140 N   0  0  0  0  0  2  0  0  0  0  0  0
  187.4100  177.8950  145.5740 C   0  0  0  0  0  0  0  0  0  0  0  0
  186.5500  178.4090  144.7160 N   0  0  0  0  0  4  0  0  0  0  0  0
  185.4700  179.0370  145.1220 C   0  0  0  0  0  0  0  0  0  0  0  0
  184.5150  179.6250  144.1940 N   0  0  0  0  0  2  0  0  0  0  0  0
  185.2290  179.1790  146.4120 N   0  0  0  0  0  0  0  0  0  0  0  0
  186.0340  178.6940  147.3310 C   0  0  0  0  0  3  0  0  0  0  0  0
  187.1740  178.0220  146.9270 C   0  0  0  0  0  0  0  0  0  0  0  0
  184.0320  179.0840  142.9340 C   0  0  0  0  0  0  0  0  0  0  0  0
  182.5980  178.4350  141.4470 N   0  0  0  0  0  0  0  0  0  0  0  0
  182.6980  178.9120  142.6560 C   0  0  0  0  0  3  0  0  0  0  0  0
  183.8350  178.3010  140.8920 N   0  0  0  0  0  0  0  0  0  0  0  0
  184.7350  178.7100  141.7870 C   0  0  0  0  0  0  0  0  0  0  0  0
  186.2410  178.7080  141.5370 C   0  0  0  0  0  1  0  0  0  0  0  0
  181.3580  178.1000  140.7760 C   0  0  0  0  0  0  0  0  0  0  0  0
  181.5550  176.8400  139.9340 C   0  0  0  0  0  1  0  0  0  0  0  0
  180.9560  179.2580  139.8660 C   0  0  0  0  0  1  0  0  0  0  0  0
  179.4380  177.6950  142.5770 N   0  0  0  0  0  0  0  0  0  0  0  0
  180.2570  177.8700  141.8090 C   0  0  0  0  0  0  0  0  0  0  0  0
  188.1550  177.4410  147.9300 C   0  0  0  0  0  0  0  0  0  0  0  0
  189.3170  178.1480  147.8730 F   0  0  0  0  0  0  0  0  0  0  0  0
  187.6230  177.5470  149.1800 F   0  0  0  0  0  0  0  0  0  0  0  0
  188.3950  176.1310  147.6470 F   0  0  0  0  0  0  0  0  0  0  0  0
  1  2  1  0  0  0  0
  2  3  1  0  0  0  0
  3  9  1  0  0  0  0
  4  5  2  0  0  0  0
  4  3  2  0  0  0  0
  5  7  2  0  0  0  0
  6  5  1  0  0  0  0
  7  8  1  0  0  0  0
  9  8  2  0  0  0  0
  9 21  1  0  0  0  0
 10  6  1  0  0  0  0
 11 12  1  0  0  0  0
 12 10  2  0  0  0  0
 13 11  1  0  0  0  0
 13 14  2  0  0  0  0
 14 10  1  0  0  0  0
 15 14  1  0  0  0  0
 16 11  1  0  0  0  0
 16 20  1  0  0  0  0
 17 16  1  0  0  0  0
 18 16  1  0  0  0  0
 20 19  3  0  0  0  0
 21 23  1  0  0  0  0
 22 21  1  0  0  0  0
 24 21  1  0  0  0  0
M  END
>  <MODEL>
1

>  <REMARK>
 VINA RESULT:      -7.6      0.000      0.000
  Name = 8smc
  4 active torsions:
  status: ('A' for Active; 'I' for Inactive)
    1  A    between atoms: N_6  and  C_7
    2  A    between atoms: N_8  and  C_15
    3  A    between atoms: C_15  and  C_18
    4  A    between atoms: C_20  and  C_21
                            x       y       z     vdW  Elec       q    Type
                         _______ _______ _______ _____ _____    ______ ____

>  <TORSDO>
F 4

$$$$
8smc
 OpenBabel11062411593D

 24 25  0  0  0  0  0  0  0  0999 V2000
  183.9820  178.3330  143.6110 C   0  0  0  0  0  1  0  0  0  0  0  0
  185.2200  179.0080  143.9440 N   0  0  0  0  0  2  0  0  0  0  0  0
  186.4130  178.2410  144.2350 C   0  0  0  0  0  0  0  0  0  0  0  0
  187.1230  177.7000  143.2640 N   0  0  0  0  0  4  0  0  0  0  0  0
  188.2130  177.0100  143.5150 C   0  0  0  0  0  0  0  0  0  0  0  0
  189.0030  176.3910  142.4610 N   0  0  0  0  0  2  0  0  0  0  0  0
  188.6150  176.8320  144.7590 N   0  0  0  0  0  0  0  0  0  0  0  0
  187.9660  177.3410  145.7830 C   0  0  0  0  0  3  0  0  0  0  0  0
  186.8200  178.0780  145.5430 C   0  0  0  0  0  0  0  0  0  0  0  0
  189.3430  176.9300  141.1540 C   0  0  0  0  0  0  0  0  0  0  0  0
  189.0290  177.6300  139.1290 N   0  0  0  0  0  0  0  0  0  0  0  0
  188.4160  177.1130  140.1570 C   0  0  0  0  0  3  0  0  0  0  0  0
  190.3460  177.8240  139.4180 N   0  0  0  0  0  0  0  0  0  0  0  0
  190.5590  177.4120  140.6680 C   0  0  0  0  0  0  0  0  0  0  0  0
  191.9210  177.4620  141.3570 C   0  0  0  0  0  1  0  0  0  0  0  0
  188.4090  177.9650  137.8630 C   0  0  0  0  0  0  0  0  0  0  0  0
  188.5530  176.7910  136.8950 C   0  0  0  0  0  1  0  0  0  0  0  0
  189.1050  179.1900  137.2770 C   0  0  0  0  0  1  0  0  0  0  0  0
  185.8310  178.5230  138.2360 N   0  0  0  0  0  0  0  0  0  0  0  0
  186.9310  178.2850  138.0790 C   0  0  0  0  0  0  0  0  0  0  0  0
  186.0130  178.6890  146.6740 C   0  0  0  0  0  0  0  0  0  0  0  0
  184.8390  178.0110  146.7970 F   0  0  0  0  0  0  0  0  0  0  0  0
  186.7220  178.5770  147.8330 F   0  0  0  0  0  0  0  0  0  0  0  0
  185.7650  180.0030  146.4170 F   0  0  0  0  0  0  0  0  0  0  0  0
  1  2  1  0  0  0  0
  2  3  1  0  0  0  0
  3  9  1  0  0  0  0
  4  5  2  0  0  0  0
  4  3  2  0  0  0  0
  5  7  2  0  0  0  0
  6  5  1  0  0  0  0
  7  8  1  0  0  0  0
  9  8  2  0  0  0  0
  9 21  1  0  0  0  0
 10  6  1  0  0  0  0
 11 13  1  0  0  0  0
 11 12  1  0  0  0  0
 12 10  2  0  0  0  0
 13 14  2  0  0  0  0
 14 10  1  0  0  0  0
 14 15  1  0  0  0  0
 16 20  1  0  0  0  0
 16 11  1  0  0  0  0
 17 16  1  0  0  0  0
 18 16  1  0  0  0  0
 20 19  3  0  0  0  0
 21 22  1  0  0  0  0
 21 23  1  0  0  0  0
 24 21  1  0  0  0  0
M  END
>  <MODEL>
2

>  <REMARK>
 VINA RESULT:      -7.3      3.393      5.551
  Name = 8smc
  4 active torsions:
  status: ('A' for Active; 'I' for Inactive)
    1  A    between atoms: N_6  and  C_7
    2  A    between atoms: N_8  and  C_15
    3  A    between atoms: C_15  and  C_18
    4  A    between atoms: C_20  and  C_21
                            x       y       z     vdW  Elec       q    Type
                         _______ _______ _______ _____ _____    ______ ____

>  <TORSDO>
F 4

$$$$
8smc
 OpenBabel11062411593D

 24 25  0  0  0  0  0  0  0  0999 V2000
  186.1740  177.3470  145.5490 C   0  0  0  0  0  1  0  0  0  0  0  0
  187.3720  178.1610  145.4870 N   0  0  0  0  0  2  0  0  0  0  0  0
  188.6640  177.5400  145.2900 C   0  0  0  0  0  0  0  0  0  0  0  0
  189.0430  177.1270  144.0960 N   0  0  0  0  0  4  0  0  0  0  0  0
  190.2180  176.5720  143.9030 C   0  0  0  0  0  0  0  0  0  0  0  0
  190.6490  176.0940  142.5970 N   0  0  0  0  0  2  0  0  0  0  0  0
  191.0470  176.4020  144.9150 N   0  0  0  0  0  0  0  0  0  0  0  0
  190.7480  176.7880  146.1360 C   0  0  0  0  0  3  0  0  0  0  0  0
  189.5190  177.3830  146.3620 C   0  0  0  0  0  0  0  0  0  0  0  0
  190.4490  176.7180  141.2990 C   0  0  0  0  0  0  0  0  0  0  0  0
  189.3720  177.4590  139.5730 N   0  0  0  0  0  0  0  0  0  0  0  0
  189.2150  176.8390  140.7090 C   0  0  0  0  0  3  0  0  0  0  0  0
  190.6830  177.7820  139.3920 N   0  0  0  0  0  0  0  0  0  0  0  0
  191.3640  177.3470  140.4520 C   0  0  0  0  0  0  0  0  0  0  0  0
  192.8730  177.5170  140.6190 C   0  0  0  0  0  1  0  0  0  0  0  0
  188.3130  177.7740  138.6350 C   0  0  0  0  0  0  0  0  0  0  0  0
  187.9190  176.5150  137.8640 C   0  0  0  0  0  1  0  0  0  0  0  0
  188.8160  178.8300  137.6540 C   0  0  0  0  0  1  0  0  0  0  0  0
  186.2030  178.7370  139.9440 N   0  0  0  0  0  0  0  0  0  0  0  0
  187.1030  178.3250  139.3870 C   0  0  0  0  0  0  0  0  0  0  0  0
  189.1000  177.8480  147.7450 C   0  0  0  0  0  0  0  0  0  0  0  0
  188.2040  176.9610  148.2580 F   0  0  0  0  0  0  0  0  0  0  0  0
  190.2000  177.8920  148.5480 F   0  0  0  0  0  0  0  0  0  0  0  0
  188.5380  179.0860  147.6740 F   0  0  0  0  0  0  0  0  0  0  0  0
  2  1  1  0  0  0  0
  3  2  1  0  0  0  0
  3  9  1  0  0  0  0
  4  3  2  0  0  0  0
  5  4  2  0  0  0  0
  5  7  2  0  0  0  0
  6  5  1  0  0  0  0
  7  8  1  0  0  0  0
  8  9  2  0  0  0  0
  9 21  1  0  0  0  0
 10  6  1  0  0  0  0
 11 12  1  0  0  0  0
 12 10  2  0  0  0  0
 13 11  1  0  0  0  0
 13 14  2  0  0  0  0
 14 15  1  0  0  0  0
 14 10  1  0  0  0  0
 16 20  1  0  0  0  0
 16 11  1  0  0  0  0
 17 16  1  0  0  0  0
 18 16  1  0  0  0  0
 20 19  3  0  0  0  0
 21 22  1  0  0  0  0
 21 23  1  0  0  0  0
 24 21  1  0  0  0  0
M  END
>  <MODEL>
3

>  <REMARK>
 VINA RESULT:      -7.2      3.697      5.670
  Name = 8smc
  4 active torsions:
  status: ('A' for Active; 'I' for Inactive)
    1  A    between atoms: N_6  and  C_7
    2  A    between atoms: N_8  and  C_15
    3  A    between atoms: C_15  and  C_18
    4  A    between atoms: C_20  and  C_21
                            x       y       z     vdW  Elec       q    Type
                         _______ _______ _______ _____ _____    ______ ____

>  <TORSDO>
F 4

$$$$
8smc
 OpenBabel11062411593D

 24 25  0  0  0  0  0  0  0  0999 V2000
  183.9770  177.9700  141.3080 C   0  0  0  0  0  1  0  0  0  0  0  0
  184.8880  178.8000  142.0700 N   0  0  0  0  0  2  0  0  0  0  0  0
  185.7910  178.2000  143.0290 C   0  0  0  0  0  0  0  0  0  0  0  0
  186.8890  177.5870  142.6340 N   0  0  0  0  0  4  0  0  0  0  0  0
  187.7210  177.0480  143.4960 C   0  0  0  0  0  0  0  0  0  0  0  0
  188.9310  176.3520  143.0820 N   0  0  0  0  0  2  0  0  0  0  0  0
  187.4640  177.0980  144.7890 N   0  0  0  0  0  0  0  0  0  0  0  0
  186.3920  177.6940  145.2650 C   0  0  0  0  0  3  0  0  0  0  0  0
  185.5060  178.2760  144.3770 C   0  0  0  0  0  0  0  0  0  0  0  0
  189.8630  176.7160  142.0270 C   0  0  0  0  0  0  0  0  0  0  0  0
  190.6570  176.8790  140.0190 N   0  0  0  0  0  0  0  0  0  0  0  0
  189.6630  176.3920  140.7070 C   0  0  0  0  0  3  0  0  0  0  0  0
  191.5150  177.5460  140.8420 N   0  0  0  0  0  0  0  0  0  0  0  0
  191.0370  177.4700  142.0840 C   0  0  0  0  0  0  0  0  0  0  0  0
  191.7230  178.0950  143.2970 C   0  0  0  0  0  1  0  0  0  0  0  0
  190.8330  176.7460  138.5870 C   0  0  0  0  0  0  0  0  0  0  0  0
  190.1260  177.8980  137.8740 C   0  0  0  0  0  1  0  0  0  0  0  0
  190.2240  175.4220  138.1320 C   0  0  0  0  0  1  0  0  0  0  0  0
  193.4290  176.7590  137.9900 N   0  0  0  0  0  0  0  0  0  0  0  0
  192.3210  176.7550  138.2450 C   0  0  0  0  0  0  0  0  0  0  0  0
  184.2440  178.9740  144.8510 C   0  0  0  0  0  0  0  0  0  0  0  0
  183.1600  178.2700  144.4220 F   0  0  0  0  0  0  0  0  0  0  0  0
  184.2460  179.0120  146.2140 F   0  0  0  0  0  0  0  0  0  0  0  0
  184.1970  180.2430  144.3600 F   0  0  0  0  0  0  0  0  0  0  0  0
  1  2  1  0  0  0  0
  2  3  1  0  0  0  0
  3  9  1  0  0  0  0
  4  3  2  0  0  0  0
  4  5  2  0  0  0  0
  5  7  2  0  0  0  0
  6  5  1  0  0  0  0
  7  8  1  0  0  0  0
  9 21  1  0  0  0  0
  9  8  2  0  0  0  0
 10 14  1  0  0  0  0
 10  6  1  0  0  0  0
 11 12  1  0  0  0  0
 11 13  1  0  0  0  0
 12 10  2  0  0  0  0
 13 14  2  0  0  0  0
 14 15  1  0  0  0  0
 16 11  1  0  0  0  0
 17 16  1  0  0  0  0
 18 16  1  0  0  0  0
 19 20  3  0  0  0  0
 20 16  1  0  0  0  0
 21 23  1  0  0  0  0
 22 21  1  0  0  0  0
 24 21  1  0  0  0  0
M  END
>  <MODEL>
4

>  <REMARK>
 VINA RESULT:      -7.2      4.358      7.238
  Name = 8smc
  4 active torsions:
  status: ('A' for Active; 'I' for Inactive)
    1  A    between atoms: N_6  and  C_7
    2  A    between atoms: N_8  and  C_15
    3  A    between atoms: C_15  and  C_18
    4  A    between atoms: C_20  and  C_21
                            x       y       z     vdW  Elec       q    Type
                         _______ _______ _______ _____ _____    ______ ____

>  <TORSDO>
F 4

$$$$
8smc
 OpenBabel11062411593D

 24 25  0  0  0  0  0  0  0  0999 V2000
  189.4610  178.1860  144.1760 C   0  0  0  0  0  1  0  0  0  0  0  0
  188.4150  177.3380  144.7120 N   0  0  0  0  0  2  0  0  0  0  0  0
  187.2700  177.9250  145.3740 C   0  0  0  0  0  0  0  0  0  0  0  0
  186.2900  178.4680  144.6780 N   0  0  0  0  0  4  0  0  0  0  0  0
  185.2400  178.9950  145.2680 C   0  0  0  0  0  0  0  0  0  0  0  0
  184.1560  179.6140  144.5210 N   0  0  0  0  0  2  0  0  0  0  0  0
  185.1520  179.0030  146.5840 N   0  0  0  0  0  0  0  0  0  0  0  0
  186.0830  178.4790  147.3500 C   0  0  0  0  0  3  0  0  0  0  0  0
  187.1940  177.9110  146.7520 C   0  0  0  0  0  0  0  0  0  0  0  0
  183.5470  179.1660  143.2780 C   0  0  0  0  0  0  0  0  0  0  0  0
  183.4300  178.6060  141.1890 N   0  0  0  0  0  0  0  0  0  0  0  0
  184.2480  179.0500  142.1020 C   0  0  0  0  0  3  0  0  0  0  0  0
  182.1950  178.3960  141.7280 N   0  0  0  0  0  0  0  0  0  0  0  0
  182.2490  178.7220  143.0200 C   0  0  0  0  0  0  0  0  0  0  0  0
  181.0560  178.6280  143.9690 C   0  0  0  0  0  1  0  0  0  0  0  0
  183.7720  178.3570  139.8030 C   0  0  0  0  0  0  0  0  0  0  0  0
  183.0250  179.3440  138.9060 C   0  0  0  0  0  1  0  0  0  0  0  0
  183.3630  176.9330  139.4380 C   0  0  0  0  0  1  0  0  0  0  0  0
  186.4000  178.6280  139.4640 N   0  0  0  0  0  0  0  0  0  0  0  0
  185.2780  178.5120  139.6070 C   0  0  0  0  0  0  0  0  0  0  0  0
  188.3140  177.2950  147.5710 C   0  0  0  0  0  0  0  0  0  0  0  0
  188.6200  176.0740  147.0530 F   0  0  0  0  0  0  0  0  0  0  0  0
  189.4090  178.1030  147.5000 F   0  0  0  0  0  0  0  0  0  0  0  0
  187.9280  177.1640  148.8700 F   0  0  0  0  0  0  0  0  0  0  0  0
  1  2  1  0  0  0  0
  2  3  1  0  0  0  0
  3  9  1  0  0  0  0
  4  5  2  0  0  0  0
  4  3  2  0  0  0  0
  5  7  2  0  0  0  0
  6  5  1  0  0  0  0
  7  8  1  0  0  0  0
  9  8  2  0  0  0  0
  9 21  1  0  0  0  0
 10  6  1  0  0  0  0
 11 13  1  0  0  0  0
 11 12  1  0  0  0  0
 12 10  2  0  0  0  0
 13 14  2  0  0  0  0
 14 10  1  0  0  0  0
 14 15  1  0  0  0  0
 16 11  1  0  0  0  0
 17 16  1  0  0  0  0
 18 16  1  0  0  0  0
 19 20  3  0  0  0  0
 20 16  1  0  0  0  0
 21 24  1  0  0  0  0
 22 21  1  0  0  0  0
 23 21  1  0  0  0  0
M  END
>  <MODEL>
5

>  <REMARK>
 VINA RESULT:      -7.2      1.259      2.745
  Name = 8smc
  4 active torsions:
  status: ('A' for Active; 'I' for Inactive)
    1  A    between atoms: N_6  and  C_7
    2  A    between atoms: N_8  and  C_15
    3  A    between atoms: C_15  and  C_18
    4  A    between atoms: C_20  and  C_21
                            x       y       z     vdW  Elec       q    Type
                         _______ _______ _______ _____ _____    ______ ____

>  <TORSDO>
F 4

$$$$
8smc
 OpenBabel11062411593D

 24 25  0  0  0  0  0  0  0  0999 V2000
  189.5460  177.8360  145.4810 C   0  0  0  0  0  1  0  0  0  0  0  0
  188.5460  177.0600  144.7770 N   0  0  0  0  0  2  0  0  0  0  0  0
  187.8690  177.6180  143.6250 C   0  0  0  0  0  0  0  0  0  0  0  0
  188.4640  177.6710  142.4490 N   0  0  0  0  0  4  0  0  0  0  0  0
  187.8560  178.1660  141.3950 C   0  0  0  0  0  0  0  0  0  0  0  0
  188.5000  178.2490  140.0920 N   0  0  0  0  0  2  0  0  0  0  0  0
  186.6280  178.6380  141.4960 N   0  0  0  0  0  0  0  0  0  0  0  0
  185.9640  178.6190  142.6300 C   0  0  0  0  0  3  0  0  0  0  0  0
  186.5810  178.0950  143.7530 C   0  0  0  0  0  0  0  0  0  0  0  0
  189.3630  177.2710  139.4490 C   0  0  0  0  0  0  0  0  0  0  0  0
  189.9860  175.7970  137.9910 N   0  0  0  0  0  0  0  0  0  0  0  0
  188.9900  176.5660  138.3300 C   0  0  0  0  0  3  0  0  0  0  0  0
  191.0340  175.9830  138.8420 N   0  0  0  0  0  0  0  0  0  0  0  0
  190.6760  176.9000  139.7410 C   0  0  0  0  0  0  0  0  0  0  0  0
  191.5840  177.3780  140.8720 C   0  0  0  0  0  1  0  0  0  0  0  0
  189.9940  174.8800  136.8690 C   0  0  0  0  0  0  0  0  0  0  0  0
  188.7000  174.0670  136.8610 C   0  0  0  0  0  1  0  0  0  0  0  0
  191.1840  173.9330  137.0090 C   0  0  0  0  0  1  0  0  0  0  0  0
  190.2270  176.2450  134.5940 N   0  0  0  0  0  0  0  0  0  0  0  0
  190.1280  175.6610  135.5630 C   0  0  0  0  0  0  0  0  0  0  0  0
  185.8800  178.0470  145.0990 C   0  0  0  0  0  0  0  0  0  0  0  0
  186.4050  179.0090  145.9060 F   0  0  0  0  0  0  0  0  0  0  0  0
  184.5510  178.2890  144.9140 F   0  0  0  0  0  0  0  0  0  0  0  0
  186.0450  176.8210  145.6700 F   0  0  0  0  0  0  0  0  0  0  0  0
  2  1  1  0  0  0  0
  3  9  1  0  0  0  0
  3  2  1  0  0  0  0
  4  3  2  0  0  0  0
  5  7  2  0  0  0  0
  5  4  2  0  0  0  0
  6  5  1  0  0  0  0
  7  8  1  0  0  0  0
  8  9  2  0  0  0  0
  9 21  1  0  0  0  0
 10 14  1  0  0  0  0
 10  6  1  0  0  0  0
 11 12  1  0  0  0  0
 11 13  1  0  0  0  0
 12 10  2  0  0  0  0
 13 14  2  0  0  0  0
 14 15  1  0  0  0  0
 16 18  1  0  0  0  0
 16 11  1  0  0  0  0
 17 16  1  0  0  0  0
 19 20  3  0  0  0  0
 20 16  1  0  0  0  0
 21 24  1  0  0  0  0
 21 22  1  0  0  0  0
 23 21  1  0  0  0  0
M  END
>  <MODEL>
6

>  <REMARK>
 VINA RESULT:      -7.1      4.985      6.898
  Name = 8smc
  4 active torsions:
  status: ('A' for Active; 'I' for Inactive)
    1  A    between atoms: N_6  and  C_7
    2  A    between atoms: N_8  and  C_15
    3  A    between atoms: C_15  and  C_18
    4  A    between atoms: C_20  and  C_21
                            x       y       z     vdW  Elec       q    Type
                         _______ _______ _______ _____ _____    ______ ____

>  <TORSDO>
F 4

$$$$
8smc
 OpenBabel11062411593D

 24 25  0  0  0  0  0  0  0  0999 V2000
  187.8160  178.4010  141.9970 C   0  0  0  0  0  1  0  0  0  0  0  0
  187.0460  177.5000  142.8300 N   0  0  0  0  0  2  0  0  0  0  0  0
  186.1270  178.0260  143.8170 C   0  0  0  0  0  0  0  0  0  0  0  0
  184.9470  178.4950  143.4620 N   0  0  0  0  0  4  0  0  0  0  0  0
  184.1010  178.9660  144.3500 C   0  0  0  0  0  0  0  0  0  0  0  0
  182.8000  179.5030  143.9780 N   0  0  0  0  0  2  0  0  0  0  0  0
  184.4250  178.9920  145.6280 N   0  0  0  0  0  0  0  0  0  0  0  0
  185.5800  178.5410  146.0650 C   0  0  0  0  0  3  0  0  0  0  0  0
  186.4840  178.0330  145.1500 C   0  0  0  0  0  0  0  0  0  0  0  0
  181.8660  178.9960  142.9850 C   0  0  0  0  0  0  0  0  0  0  0  0
  181.1770  178.2700  141.0650 N   0  0  0  0  0  0  0  0  0  0  0  0
  182.2260  178.7300  141.6870 C   0  0  0  0  0  3  0  0  0  0  0  0
  180.1190  178.1970  141.9210 N   0  0  0  0  0  0  0  0  0  0  0  0
  180.5260  178.6270  143.1160 C   0  0  0  0  0  0  0  0  0  0  0  0
  179.6210  178.7010  144.3440 C   0  0  0  0  0  1  0  0  0  0  0  0
  181.1310  177.8800  139.6700 C   0  0  0  0  0  0  0  0  0  0  0  0
  181.6090  179.0400  138.7970 C   0  0  0  0  0  1  0  0  0  0  0  0
  179.6920  177.5280  139.3000 C   0  0  0  0  0  1  0  0  0  0  0  0
  182.6800  175.7490  139.2810 N   0  0  0  0  0  0  0  0  0  0  0  0
  182.0180  176.6570  139.4450 C   0  0  0  0  0  0  0  0  0  0  0  0
  187.8400  177.5020  145.5780 C   0  0  0  0  0  0  0  0  0  0  0  0
  188.7800  178.4640  145.3640 F   0  0  0  0  0  0  0  0  0  0  0  0
  187.7970  177.2020  146.9070 F   0  0  0  0  0  0  0  0  0  0  0  0
  188.1520  176.3830  144.8680 F   0  0  0  0  0  0  0  0  0  0  0  0
  1  2  1  0  0  0  0
  2  3  1  0  0  0  0
  3  9  1  0  0  0  0
  4  3  2  0  0  0  0
  4  5  2  0  0  0  0
  5  7  2  0  0  0  0
  6  5  1  0  0  0  0
  7  8  1  0  0  0  0
  9 21  1  0  0  0  0
  9  8  2  0  0  0  0
 10 14  1  0  0  0  0
 10  6  1  0  0  0  0
 11 12  1  0  0  0  0
 11 13  1  0  0  0  0
 12 10  2  0  0  0  0
 13 14  2  0  0  0  0
 14 15  1  0  0  0  0
 16 11  1  0  0  0  0
 17 16  1  0  0  0  0
 18 16  1  0  0  0  0
 19 20  3  0  0  0  0
 20 16  1  0  0  0  0
 21 23  1  0  0  0  0
 22 21  1  0  0  0  0
 24 21  1  0  0  0  0
M  END
>  <MODEL>
7

>  <REMARK>
 VINA RESULT:      -7.1      1.725      2.937
  Name = 8smc
  4 active torsions:
  status: ('A' for Active; 'I' for Inactive)
    1  A    between atoms: N_6  and  C_7
    2  A    between atoms: N_8  and  C_15
    3  A    between atoms: C_15  and  C_18
    4  A    between atoms: C_20  and  C_21
                            x       y       z     vdW  Elec       q    Type
                         _______ _______ _______ _____ _____    ______ ____

>  <TORSDO>
F 4

$$$$
8smc
 OpenBabel11062411593D

 24 25  0  0  0  0  0  0  0  0999 V2000
  191.6260  178.9710  143.9480 C   0  0  0  0  0  1  0  0  0  0  0  0
  190.8650  177.7730  143.6560 N   0  0  0  0  0  2  0  0  0  0  0  0
  189.5540  177.8730  143.0500 C   0  0  0  0  0  0  0  0  0  0  0  0
  189.4210  178.1130  141.7600 N   0  0  0  0  0  4  0  0  0  0  0  0
  188.2370  178.1960  141.1970 C   0  0  0  0  0  0  0  0  0  0  0  0
  188.0660  178.4750  139.7780 N   0  0  0  0  0  2  0  0  0  0  0  0
  187.1440  178.0520  141.9220 N   0  0  0  0  0  0  0  0  0  0  0  0
  187.1900  177.8080  143.2130 C   0  0  0  0  0  3  0  0  0  0  0  0
  188.4260  177.7090  143.8270 C   0  0  0  0  0  0  0  0  0  0  0  0
  188.8410  177.9640  138.6590 C   0  0  0  0  0  0  0  0  0  0  0  0
  190.3910  176.8530  137.6330 N   0  0  0  0  0  0  0  0  0  0  0  0
  189.9400  177.1560  138.8180 C   0  0  0  0  0  3  0  0  0  0  0  0
  189.6060  177.4200  136.6740 N   0  0  0  0  0  0  0  0  0  0  0  0
  188.6340  178.0990  137.2850 C   0  0  0  0  0  0  0  0  0  0  0  0
  187.5510  178.8800  136.5450 C   0  0  0  0  0  1  0  0  0  0  0  0
  191.5500  176.0280  137.3600 C   0  0  0  0  0  0  0  0  0  0  0  0
  191.9100  176.1230  135.8780 C   0  0  0  0  0  1  0  0  0  0  0  0
  191.2220  174.5780  137.7090 C   0  0  0  0  0  1  0  0  0  0  0  0
  193.6040  176.8420  138.8480 N   0  0  0  0  0  0  0  0  0  0  0  0
  192.7280  176.4930  138.2140 C   0  0  0  0  0  0  0  0  0  0  0  0
  188.5590  177.4360  145.3150 C   0  0  0  0  0  0  0  0  0  0  0  0
  187.3270  177.1640  145.8260 F   0  0  0  0  0  0  0  0  0  0  0  0
  189.3710  176.3570  145.4960 F   0  0  0  0  0  0  0  0  0  0  0  0
  189.0930  178.5190  145.9440 F   0  0  0  0  0  0  0  0  0  0  0  0
  2  1  1  0  0  0  0
  3  2  1  0  0  0  0
  3  9  1  0  0  0  0
  4  3  2  0  0  0  0
  5  4  2  0  0  0  0
  5  7  2  0  0  0  0
  6  5  1  0  0  0  0
  7  8  1  0  0  0  0
  8  9  2  0  0  0  0
  9 21  1  0  0  0  0
 10 12  2  0  0  0  0
 10  6  1  0  0  0  0
 11 12  1  0  0  0  0
 13 14  2  0  0  0  0
 13 11  1  0  0  0  0
 14 10  1  0  0  0  0
 15 14  1  0  0  0  0
 16 11  1  0  0  0  0
 16 18  1  0  0  0  0
 16 20  1  0  0  0  0
 17 16  1  0  0  0  0
 20 19  3  0  0  0  0
 21 23  1  0  0  0  0
 21 22  1  0  0  0  0
 21 24  1  0  0  0  0
M  END
>  <MODEL>
8

>  <REMARK>
 VINA RESULT:      -7.0      4.907      7.255
  Name = 8smc
  4 active torsions:
  status: ('A' for Active; 'I' for Inactive)
    1  A    between atoms: N_6  and  C_7
    2  A    between atoms: N_8  and  C_15
    3  A    between atoms: C_15  and  C_18
    4  A    between atoms: C_20  and  C_21
                            x       y       z     vdW  Elec       q    Type
                         _______ _______ _______ _____ _____    ______ ____

>  <TORSDO>
F 4

$$$$
8smc
 OpenBabel11062411593D

 24 25  0  0  0  0  0  0  0  0999 V2000
  191.4270  176.5010  144.0270 C   0  0  0  0  0  1  0  0  0  0  0  0
  190.3580  175.9330  143.2310 N   0  0  0  0  0  2  0  0  0  0  0  0
  189.8980  176.6110  142.0390 C   0  0  0  0  0  0  0  0  0  0  0  0
  190.5870  176.5510  140.9160 N   0  0  0  0  0  4  0  0  0  0  0  0
  190.1740  177.1550  139.8240 C   0  0  0  0  0  0  0  0  0  0  0  0
  190.9270  177.1140  138.5790 N   0  0  0  0  0  2  0  0  0  0  0  0
  189.0550  177.8530  139.8340 N   0  0  0  0  0  0  0  0  0  0  0  0
  188.3080  177.9600  140.9100 C   0  0  0  0  0  3  0  0  0  0  0  0
  188.7180  177.3270  142.0700 C   0  0  0  0  0  0  0  0  0  0  0  0
  191.6370  175.9900  137.9910 C   0  0  0  0  0  0  0  0  0  0  0  0
  193.3260  174.7720  137.3970 N   0  0  0  0  0  0  0  0  0  0  0  0
  193.0070  175.9010  137.9650 C   0  0  0  0  0  3  0  0  0  0  0  0
  192.2000  174.0830  137.0590 N   0  0  0  0  0  0  0  0  0  0  0  0
  191.1460  174.8090  137.4300 C   0  0  0  0  0  0  0  0  0  0  0  0
  189.6980  174.3730  137.2160 C   0  0  0  0  0  1  0  0  0  0  0  0
  194.6760  174.3020  137.1610 C   0  0  0  0  0  0  0  0  0  0  0  0
  195.4000  175.2690  136.2240 C   0  0  0  0  0  1  0  0  0  0  0  0
  194.6160  172.9210  136.5140 C   0  0  0  0  0  1  0  0  0  0  0  0
  195.9890  174.1240  139.4720 N   0  0  0  0  0  0  0  0  0  0  0  0
  195.4280  174.2010  138.4870 C   0  0  0  0  0  0  0  0  0  0  0  0
  187.9120  177.4120  143.3540 C   0  0  0  0  0  0  0  0  0  0  0  0
  186.7670  178.1080  143.1130 F   0  0  0  0  0  0  0  0  0  0  0  0
  187.5960  176.1510  143.7620 F   0  0  0  0  0  0  0  0  0  0  0  0
  188.6380  178.0350  144.3230 F   0  0  0  0  0  0  0  0  0  0  0  0
  2  1  1  0  0  0  0
  3  9  1  0  0  0  0
  3  2  1  0  0  0  0
  4  3  2  0  0  0  0
  5  7  2  0  0  0  0
  5  4  2  0  0  0  0
  6  5  1  0  0  0  0
  7  8  1  0  0  0  0
  8  9  2  0  0  0  0
  9 21  1  0  0  0  0
 10  6  1  0  0  0  0
 11 12  1  0  0  0  0
 12 10  2  0  0  0  0
 13 11  1  0  0  0  0
 13 14  2  0  0  0  0
 14 10  1  0  0  0  0
 15 14  1  0  0  0  0
 16 11  1  0  0  0  0
 16 20  1  0  0  0  0
 17 16  1  0  0  0  0
 18 16  1  0  0  0  0
 20 19  3  0  0  0  0
 21 23  1  0  0  0  0
 21 24  1  0  0  0  0
 22 21  1  0  0  0  0
M  END
>  <MODEL>
9

>  <REMARK>
 VINA RESULT:      -6.9      6.781      9.646
  Name = 8smc
  4 active torsions:
  status: ('A' for Active; 'I' for Inactive)
    1  A    between atoms: N_6  and  C_7
    2  A    between atoms: N_8  and  C_15
    3  A    between atoms: C_15  and  C_18
    4  A    between atoms: C_20  and  C_21
                            x       y       z     vdW  Elec       q    Type
                         _______ _______ _______ _____ _____    ______ ____

>  <TORSDO>
F 4

$$$$
